data_functionalizedCrystal
_audit_creation_method	'MofGen! by Chris Wilmer'
_symmetry_space_group_name_H-M	'P1'
_symmetry_Int_Tables_number	1
_symmetry_cell_setting	triclinic
loop_
_symmetry_equiv_pos_as_xyz
  x,y,z
_cell_length_a	12.594516
_cell_length_b	16.625547
_cell_length_c	16.625539
_cell_angle_alpha	89.975178
_cell_angle_beta	89.976673
_cell_angle_gamma	90.015990
loop_
_atom_site_label
_atom_site_type_symbol
_atom_site_fract_x
_atom_site_fract_y
_atom_site_fract_z
Zn1	Zn	-0.423742	1.232716	-0.456029
Zn2	Zn	-0.601743	1.232635	-0.321208
Zn3	Zn	-0.423779	1.097878	-0.321199
Zn4	Zn	-0.601679	1.097864	-0.455988
O5	O	-0.512736	1.165273	-0.388606
O6	O	-0.447366	1.345538	-0.438165
O7	O	-0.578178	1.214731	-0.208374
O8	O	-0.274828	1.115805	-0.339098
O9	O	-0.578143	1.345478	-0.339113
O10	O	-0.274801	1.214870	-0.438157
O11	O	-0.447429	1.115726	-0.208368
O12	O	-0.447366	0.985044	-0.339058
O13	O	-0.578032	1.115780	-0.568825
O14	O	-0.578068	0.985033	-0.438087
O15	O	-0.447303	1.214856	-0.568856
O16	O	-0.750680	1.214717	-0.339073
O17	O	-0.750633	1.115701	-0.438095
C18	C	-0.512715	0.955782	-0.388568
C19	C	-0.512732	0.866161	-0.388571
C20	C	-0.512734	0.793379	-0.388581
C21	C	-0.512739	0.702070	-0.388601
C22	C	-0.512749	0.629294	-0.388621
C23	C	-0.512757	0.537980	-0.388641
C24	C	-0.789277	1.165220	-0.388598
C25	C	-0.907582	1.165272	-0.388622
C26	C	-0.976848	1.111412	-0.442442
C27	C	-1.047709	1.091767	-0.368866
C28	C	-1.047521	1.184990	-0.462210
C29	C	-0.976884	1.145588	-0.315007
C30	C	-0.976690	1.238845	-0.408400
C31	C	-1.047519	1.219228	-0.334774
C32	C	-0.235115	1.165348	-0.388631
C33	C	-0.116809	1.165380	-0.388642
C34	C	-0.512656	1.165326	-0.598915
C35	C	-0.512623	1.165348	-0.688536
C36	C	-0.512757	1.375582	-0.388645
C37	C	-0.512766	1.465203	-0.388661
C38	C	-0.512503	1.165385	-1.016712
C39	C	-0.512540	1.165373	-0.925403
C40	C	-0.512564	1.165367	-0.852627
C41	C	-0.512599	1.165354	-0.761312
C42	C	-0.512738	1.165268	-0.179115
C43	C	-0.512472	1.165401	-0.089494
H44	H	-0.945816	1.065783	-0.487890
O45	O	-1.084265	1.273531	-0.280319
C46	C	-1.048058	1.252511	-0.202877
H47	H	-1.028382	1.185605	-0.201275
H48	H	-0.973854	1.288827	-0.187931
C49	C	-1.159490	1.353047	-0.142605
C50	C	-1.135332	1.270871	-0.140636
H51	H	-1.213322	1.364376	-0.104211
H52	H	-1.183881	1.367211	-0.194779
H53	H	-1.097646	1.383301	-0.130152
H54	H	-1.197172	1.240620	-0.153099
H55	H	-1.110953	1.256702	-0.088463
O56	O	-1.084803	1.017593	-0.348797
C57	C	-1.047291	0.996449	-0.271748
H58	H	-0.972190	1.032105	-0.257832
H59	H	-1.110672	1.010775	-0.224925
C60	C	-1.114385	0.862040	-0.286722
C61	C	-1.022140	0.905828	-0.269634
H62	H	-1.098874	0.806140	-0.285416
H63	H	-1.139661	0.876285	-0.338631
H64	H	-1.167193	0.873988	-0.247700
H65	H	-0.969338	0.893888	-0.308660
H66	H	-0.996853	0.891579	-0.217731
H67	H	-0.945475	1.301000	-0.425148
H68	H	-0.945985	1.128882	-0.252765
H69	H	-1.078549	1.201624	-0.524435
