data_functionalizedCrystal
_audit_creation_method	'MofGen! by Chris Wilmer'
_symmetry_space_group_name_H-M	'P1'
_symmetry_Int_Tables_number	1
_symmetry_cell_setting	triclinic
loop_
_symmetry_equiv_pos_as_xyz
  x,y,z
_cell_length_a	17.699097
_cell_length_b	14.044190
_cell_length_c	16.776229
_cell_angle_alpha	89.988781
_cell_angle_beta	89.989262
_cell_angle_gamma	88.240103
loop_
_atom_site_label
_atom_site_type_symbol
_atom_site_fract_x
_atom_site_fract_y
_atom_site_fract_z
O1	O	1.012346	0.119911	-0.066364
O2	O	0.793044	0.135490	-0.066352
O3	O	0.899401	-0.010277	-0.066342
O4	O	0.905990	0.265678	-0.066374
O5	O	0.899385	-0.010286	0.066234
O6	O	0.793028	0.135481	0.066224
O7	O	1.012330	0.119902	0.066213
Zn8	Zn	0.902677	0.127690	0.087268
Zn9	Zn	0.902698	0.127702	-0.087407
O10	O	0.905974	0.265669	0.066203
C11	C	0.764801	0.134926	-0.000062
C12	C	0.680667	0.133244	-0.000057
C13	C	0.896510	-0.045589	-0.000052
C14	C	0.887912	-0.150796	-0.000044
C15	C	0.164247	0.122944	-0.072356
C16	C	0.243299	0.124518	-0.072352
C17	C	0.282811	0.125301	-0.000081
C18	C	0.243266	0.124501	0.072190
C19	C	0.164215	0.122921	0.072186
C20	C	0.562070	0.130872	0.072211
C21	C	0.641126	0.132454	0.072210
C22	C	0.641154	0.132468	-0.072327
C23	C	0.562103	0.130888	-0.072332
C24	C	0.522565	0.130083	-0.000060
C25	C	0.436847	0.128376	-0.000065
C26	C	0.368527	0.127015	-0.000075
C27	C	0.933172	-0.401184	-0.000078
C28	C	0.872205	-0.343418	-0.000069
C29	C	0.880947	-0.236234	-0.000055
C30	C	0.924432	-0.508379	-0.000092
C31	C	1.040574	0.120467	-0.000079
C32	C	1.124707	0.122148	-0.000090
C33	C	0.908864	0.300981	-0.000090
C34	C	0.917462	0.406188	-0.000103
N35	N	0.902668	0.127682	0.206479
N36	N	0.902712	0.127703	-0.206619
C37	C	0.949780	0.063162	0.248201
C38	C	0.949784	0.063161	0.331653
C39	C	0.902679	0.127685	0.373382
C40	C	0.855562	0.192208	0.331655
C41	C	0.855554	0.192203	0.248204
C42	C	0.855591	0.192226	0.668202
C43	C	0.855603	0.192228	0.751658
C44	C	0.949820	0.063185	0.751651
C45	C	0.949813	0.063180	0.668200
C46	C	0.902693	0.127699	0.626480
C47	C	0.902688	0.127698	0.535991
C48	C	0.902688	0.127692	0.463869
H49	H	0.275489	0.125160	-0.131198
O50	O	1.003286	-0.364201	-0.000211
C51	C	1.042850	-0.395228	-0.068866
H52	H	1.000781	-0.415775	-0.116863
H53	H	1.079008	-0.335321	-0.091902
H54	H	1.080755	-0.459673	-0.053348
O55	O	0.995591	0.000623	0.372273
C56	C	1.045712	0.051321	0.420505
H57	H	1.020572	0.125527	0.432996
H58	H	1.055018	0.011751	0.479195
H59	H	1.102073	0.057680	0.388329
H60	H	0.529936	0.130255	-0.131182
O61	O	0.125791	0.122057	-0.142510
C62	C	0.083110	0.039084	-0.146840
H63	H	0.072260	0.011489	-0.084091
H64	H	0.026848	0.056429	-0.177435
H65	H	0.115707	-0.017758	-0.182495
O66	O	0.679642	0.133368	-0.142482
C67	C	0.722326	0.216341	-0.146820
H68	H	0.733147	0.243922	-0.084074
H69	H	0.778602	0.199001	-0.177404
H70	H	0.689746	0.273191	-0.182488
O71	O	0.679597	0.133081	0.142367
C72	C	0.728341	0.051936	0.146700
H73	H	0.741204	0.024833	0.083952
H74	H	0.783243	0.071495	0.177285
H75	H	0.699993	-0.006135	0.182365
H76	H	0.529888	0.130202	0.131058
O77	O	0.802086	-0.380398	-0.000207
C78	C	0.762542	-0.349309	-0.068849
H79	H	0.804626	-0.328731	-0.116846
H80	H	0.726382	-0.409190	-0.091897
H81	H	0.724641	-0.284869	-0.053313
O82	O	0.281761	0.125306	0.142324
C83	C	0.360013	0.126851	0.126834
H84	H	0.369716	0.157064	0.064721
H85	H	0.388346	0.173444	0.172985
H86	H	0.385255	0.051297	0.130269
H87	H	0.988172	0.010642	0.634227
O88	O	0.125919	0.122193	0.142456
C89	C	0.177743	0.123200	0.206246
H90	H	0.232990	0.154324	0.185061
H91	H	0.153191	0.168730	0.256787
H92	H	0.188955	0.047363	0.228473
O93	O	0.995561	0.000391	0.207792
C94	C	1.037156	-0.056540	0.262516
H95	H	1.006063	-0.057559	0.322011
H96	H	1.043591	-0.132247	0.238419
H97	H	1.095450	-0.025851	0.271368
O98	O	0.995518	0.000538	0.792302
C99	C	0.985439	0.014385	0.874906
H100	H	0.927666	0.049894	0.886317
H101	H	0.989021	-0.057402	0.906632
H102	H	1.031480	0.061858	0.898566
O103	O	0.809767	0.254940	0.792072
C104	C	0.768187	0.311899	0.737355
H105	H	0.764705	0.273043	0.677876
H106	H	0.708732	0.326438	0.761487
H107	H	0.797501	0.382273	0.728458
O108	O	0.809935	0.254950	0.627598
C109	C	0.854408	0.313373	0.579321
H110	H	0.911069	0.275528	0.566800
H111	H	0.823826	0.328428	0.520649
H112	H	0.864291	0.383404	0.611474
O113	O	0.809876	0.255010	0.207708
C114	C	0.828497	0.348813	0.228089
H115	H	0.889117	0.349189	0.251010
H116	H	0.822996	0.396387	0.173199
H117	H	0.788435	0.376716	0.276535
H118	H	0.817205	0.244741	0.365635
