data_functionalizedCrystal
_audit_creation_method	'MofGen! by Chris Wilmer'
_symmetry_space_group_name_H-M	'P1'
_symmetry_Int_Tables_number	1
_symmetry_cell_setting	triclinic
loop_
_symmetry_equiv_pos_as_xyz
  x,y,z
_cell_length_a	29.917948
_cell_length_b	29.917021
_cell_length_c	29.913391
_cell_angle_alpha	60.005297
_cell_angle_beta	60.010472
_cell_angle_gamma	59.993667
loop_
_atom_site_label
_atom_site_type_symbol
_atom_site_fract_x
_atom_site_fract_y
_atom_site_fract_z
O1	O	0.061938	-0.653075	0.546110
O2	O	0.023328	-0.508466	0.440017
O3	O	0.114898	-0.599963	0.439941
O4	O	-0.029633	-0.561578	0.546186
O5	O	0.145278	-0.569587	0.470242
O6	O	0.053708	-0.478090	0.470318
O7	O	0.092318	-0.622699	0.576411
Zn8	Zn	0.077836	-0.545572	0.528175
Zn9	Zn	0.037809	-0.585593	0.488253
O10	O	0.000747	-0.531202	0.576487
N11	N	0.105154	-0.518262	0.555424
N12	N	0.010496	-0.612908	0.461004
C13	C	0.164136	-0.309209	0.614352
C14	C	0.164251	-0.459335	0.764424
C15	C	0.164150	-0.459313	0.614341
C16	C	0.314282	-0.459305	0.614278
C17	C	0.180666	-0.358742	0.630849
C18	C	0.180732	-0.442815	0.714891
C19	C	0.264747	-0.442797	0.630809
C20	C	0.180676	-0.442802	0.630843
C21	C	0.143097	-0.246161	0.593354
C22	C	0.143120	-0.480326	0.593337
C23	C	0.201706	-0.421790	0.651848
C24	C	0.405963	-0.443499	0.565998
C25	C	0.463273	-0.462598	0.546874
C26	C	0.463297	-0.555329	0.582235
C27	C	0.405988	-0.536228	0.601360
C28	C	0.156905	-0.217495	0.537012
C29	C	0.137776	-0.160180	0.517926
C30	C	0.091035	-0.160201	0.611524
C31	C	0.110164	-0.217516	0.630611
C32	C	0.086772	-0.466488	0.607209
C33	C	0.067659	-0.485590	0.588108
C34	C	0.161236	-0.532368	0.541277
C35	C	0.180352	-0.513266	0.560371
C36	C	0.086942	-0.466529	0.856152
C37	C	0.067877	-0.485647	0.913465
C38	C	0.161489	-0.532436	0.913415
C39	C	0.180552	-0.513318	0.856101
C40	C	0.143277	-0.480363	0.827471
C41	C	0.377323	-0.480313	0.593239
C42	C	-0.111377	-0.650681	0.422736
C43	C	-0.027364	-0.650787	0.422929
C44	C	-0.048335	-0.671770	0.401835
C45	C	-0.064214	-0.763416	0.450041
C46	C	-0.045160	-0.820731	0.469172
C47	C	0.047573	-0.820841	0.433980
C48	C	0.028517	-0.763527	0.414847
C49	C	-0.140115	-0.664483	0.479060
C50	C	-0.197425	-0.645309	0.498058
C51	C	-0.197256	-0.598535	0.404405
C52	C	-0.139946	-0.617709	0.385407
C53	C	-0.041168	-0.594444	0.409067
C54	C	-0.022104	-0.575374	0.428250
C55	C	0.024568	-0.668986	0.475143
C56	C	0.005504	-0.688059	0.455967
C57	C	-0.041000	-0.594453	0.310105
C58	C	-0.021803	-0.575386	0.252792
C59	C	0.024951	-0.669004	0.252854
C60	C	0.005755	-0.688070	0.310168
C61	C	-0.027222	-0.650793	0.338792
C62	C	-0.027377	-0.734817	0.422881
N63	N	0.491125	-0.518235	0.555255
O64	O	0.678406	-0.527360	0.420422
O65	O	0.678588	-0.633782	0.564887
O66	O	0.678516	-0.633539	0.473265
O67	O	0.678478	-0.527602	0.512044
O68	O	0.587469	-0.603251	0.503685
O69	O	0.587541	-0.603493	0.595307
O70	O	0.587359	-0.497071	0.450842
Zn71	Zn	0.572994	-0.545473	0.527905
Zn72	Zn	0.692953	-0.585380	0.487825
O73	O	0.587431	-0.497313	0.542465
N74	N	0.774821	-0.612618	0.460470
N75	N	0.105125	-0.132348	0.555445
O76	O	-0.029633	0.055031	0.546198
O77	O	0.114837	0.055047	0.439777
O78	O	0.023189	0.055024	0.440050
O79	O	0.062016	0.055054	0.545925
O80	O	0.053572	-0.036031	0.470398
O81	O	0.145220	-0.036008	0.470125
O82	O	0.000750	-0.036024	0.576546
Zn83	Zn	0.077809	-0.050473	0.528154
Zn84	Zn	0.037778	0.069496	0.488169
O85	O	0.092399	-0.036001	0.576273
N86	N	0.010456	0.151371	0.460879
N87	N	0.105414	-0.518315	0.941279
O88	O	0.096182	-0.653057	1.128644
O89	O	-0.010215	-0.508539	1.128670
O90	O	-0.009968	-0.600172	1.128636
O91	O	0.095935	-0.561424	1.128678
O92	O	0.020367	-0.569808	1.037586
O93	O	0.020121	-0.478175	1.037620
O94	O	0.126517	-0.622693	1.037594
Zn95	Zn	0.078135	-0.545613	1.023151
Zn96	Zn	0.038167	-0.585619	1.143113
O97	O	0.126270	-0.531061	1.037628
N98	N	0.010887	-0.612923	1.224985
C99	C	0.034899	-0.475056	0.440551
C100	C	0.148298	-0.588365	0.440456
C101	C	0.080746	-0.656109	0.575876
C102	C	-0.032653	-0.542801	0.575971
C103	C	0.633086	-0.633292	0.598298
C104	C	0.632998	-0.632993	0.484834
C105	C	0.632857	-0.497559	0.417433
C106	C	0.632949	-0.497860	0.530895
C107	C	0.148191	0.009634	0.440259
C108	C	0.034733	0.009493	0.440634
C109	C	-0.032641	0.009502	0.576027
C110	C	0.080854	0.009529	0.575690
C111	C	-0.009699	-0.475150	1.083148
C112	C	-0.009388	-0.588620	1.083088
C113	C	0.126001	-0.656082	1.083116
C114	C	0.125697	-0.542605	1.083155
H115	H	0.022003	-0.474373	0.936811
H116	H	0.089168	0.009538	0.608950
O117	O	0.165837	-0.705593	1.083033
C118	C	0.223742	-0.771511	1.035821
C119	C	0.178618	-0.715437	1.035855
H120	H	0.234097	-0.779483	0.997676
H121	H	0.208703	-0.804968	1.073890
H122	H	0.261862	-0.771578	1.035857
H123	H	0.140482	-0.715317	1.035799
H124	H	0.193701	-0.682004	0.997789
H125	H	0.026652	-0.433515	0.407232
H126	H	0.088995	-0.697649	0.609197
H127	H	0.158967	-0.534314	1.083161
H128	H	-0.074166	-0.534620	0.609333
O129	O	0.197857	-0.598204	0.400719
C130	C	0.287997	-0.663084	0.375392
C131	C	0.231901	-0.652010	0.420447
H132	H	0.315533	-0.706589	0.391322
H133	H	0.307731	-0.632755	0.363422
H134	H	0.282240	-0.658114	0.338059
H135	H	0.237610	-0.656987	0.457811
H136	H	0.212186	-0.682336	0.432371
O137	O	0.633038	-0.672766	0.475021
C138	C	0.633088	-0.765021	0.510830
C139	C	0.633056	-0.720032	0.522012
H140	H	0.633091	-0.803242	0.548818
H141	H	0.671180	-0.775266	0.474995
H142	H	0.594974	-0.749842	0.500407
H143	H	0.671144	-0.735173	0.532458
H144	H	0.594939	-0.709794	0.557832
H145	H	0.633132	-0.666701	0.639790
H146	H	0.026418	0.009490	0.407371
H147	H	0.632798	-0.464146	0.375944
O148	O	0.096720	-0.245276	0.685359
C149	C	0.048308	-0.239245	0.776183
C150	C	0.063506	-0.207738	0.714193
H151	H	0.021443	-0.208909	0.799513
H152	H	0.087194	-0.266060	0.787479
H153	H	0.025005	-0.266098	0.787448
H154	H	0.086795	-0.180856	0.702884
H155	H	0.024600	-0.180957	0.702930
H156	H	0.632941	-0.464583	0.539193
H157	H	0.189596	0.009891	0.406765
O158	O	-0.082179	0.009531	0.615816
C159	C	-0.172362	0.009501	0.641294
C160	C	-0.116288	0.009475	0.596184
H161	H	-0.199950	0.009444	0.625442
H162	H	-0.192050	0.047624	0.653217
H163	H	-0.166580	-0.028589	0.678640
H164	H	-0.122022	0.047539	0.558809
H165	H	-0.096618	-0.028673	0.584307
O166	O	0.064374	-0.735829	0.388496
C167	C	0.158368	-0.741990	0.355581
C168	C	0.117819	-0.773425	0.385446
H169	H	0.201589	-0.772372	0.353096
H170	H	0.146878	-0.715165	0.379024
H171	H	0.156658	-0.715153	0.312476
H172	H	0.119508	-0.800291	0.428552
H173	H	0.129322	-0.800215	0.361962
H174	H	-0.043102	-0.433644	1.083156
O175	O	-0.049045	-0.598577	1.083100
C176	C	-0.106626	-0.654089	1.130192
C177	C	-0.061704	-0.642879	1.130241
H178	H	-0.116882	-0.689899	1.168307
H179	H	-0.091438	-0.664542	1.092093
H180	H	-0.144844	-0.616090	1.130156
H181	H	-0.023470	-0.680859	1.130296
H182	H	-0.076936	-0.632402	1.168337
O183	O	0.050656	-0.434539	0.828428
C184	C	-0.044207	-0.390119	0.834531
C185	C	-0.003176	-0.426359	0.865996
H186	H	-0.087739	-0.383484	0.864891
H187	H	-0.037664	-0.411104	0.807712
H188	H	-0.037590	-0.348904	0.807688
H189	H	-0.009768	-0.467580	0.892869
H190	H	-0.009729	-0.405330	0.892780
H191	H	0.191844	-0.559260	0.936723
O192	O	0.378113	-0.571932	0.627759
C193	C	0.313440	-0.598172	0.628662
C194	C	0.344961	-0.557688	0.598724
H195	H	0.286637	-0.586677	0.605194
H196	H	0.286589	-0.596430	0.671753
H197	H	0.343792	-0.641411	0.631186
H198	H	0.314648	-0.514430	0.596159
H199	H	0.371819	-0.559478	0.555650
H200	H	0.056452	-0.439666	0.634048
O201	O	0.235293	-0.526854	0.828302
C202	C	0.321135	-0.599506	0.810700
C203	C	0.259153	-0.584255	0.842222
H204	H	0.340443	-0.645914	0.821934
H205	H	0.340494	-0.583729	0.821971
H206	H	0.328348	-0.580157	0.764822
H207	H	0.251891	-0.603598	0.888108
H208	H	0.239825	-0.600022	0.830906
O209	O	0.012904	-0.472124	0.601655
C210	C	-0.077899	-0.423701	0.650110
C211	C	-0.015907	-0.438918	0.634818
H212	H	-0.101211	-0.396843	0.676915
H213	H	-0.089186	-0.462583	0.673471
H214	H	-0.089194	-0.400381	0.611225
H215	H	-0.004567	-0.462225	0.673674
H216	H	-0.004653	-0.400016	0.611435
H217	H	0.226235	-0.524529	0.549071
O218	O	0.197432	-0.564287	0.509177
C219	C	0.271564	-0.571598	0.424817
C220	C	0.230595	-0.535392	0.461111
H221	H	0.298395	-0.548255	0.385953
H222	H	0.248257	-0.582866	0.413498
H223	H	0.298395	-0.610499	0.448154
H224	H	0.203754	-0.496468	0.437807
H225	H	0.253936	-0.524168	0.472432
O226	O	0.491058	-0.609665	0.590186
C227	C	0.485038	-0.699623	0.627244
C228	C	0.453528	-0.638103	0.618289
H229	H	0.454709	-0.722631	0.649956
H230	H	0.511877	-0.715793	0.652457
H231	H	0.511863	-0.705981	0.585908
H232	H	0.426673	-0.631698	0.659599
H233	H	0.426724	-0.621963	0.593051
H234	H	0.486593	-0.432619	0.524694
H235	H	0.183721	-0.240813	0.506671
O236	O	0.378176	-0.389159	0.558016
C237	C	0.360573	-0.298024	0.492472
C238	C	0.392082	-0.359545	0.501436
H239	H	0.371795	-0.274064	0.446729
H240	H	0.371866	-0.283758	0.513211
H241	H	0.314694	-0.290710	0.510844
H242	H	0.437967	-0.366905	0.483062
H243	H	0.380743	-0.373780	0.480709
O244	O	0.151256	-0.132414	0.463176
C245	C	0.199602	-0.138440	0.372350
C246	C	0.184390	-0.169950	0.434340
H247	H	0.226383	-0.168774	0.349018
H248	H	0.222960	-0.111614	0.361027
H249	H	0.160685	-0.111598	0.361115
H250	H	0.223279	-0.196822	0.445619
H251	H	0.161011	-0.196741	0.445630
H252	H	0.064226	-0.136878	0.641864
O253	O	0.056553	-0.705246	0.507168
C254	C	0.140852	-0.779453	0.514639
C255	C	0.104677	-0.738425	0.478315
H256	H	0.179773	-0.806281	0.491322
H257	H	0.117499	-0.806285	0.553492
H258	H	0.152080	-0.756135	0.525983
H259	H	0.093440	-0.761698	0.466929
H260	H	0.128051	-0.711594	0.439488
O261	O	-0.035267	-0.520635	0.225015
C262	C	-0.083651	-0.429793	0.231008
C263	C	-0.068455	-0.491781	0.262535
H264	H	-0.110476	-0.406446	0.261329
H265	H	-0.106958	-0.418461	0.204120
H266	H	-0.044729	-0.418581	0.204230
H267	H	-0.107348	-0.503037	0.289343
H268	H	-0.045126	-0.503080	0.289388
O269	O	-0.073113	-0.558256	0.337929
C270	C	-0.160400	-0.525413	0.402529
C271	C	-0.124098	-0.566426	0.371046
H272	H	-0.201625	-0.532011	0.429321
H273	H	-0.166994	-0.481859	0.372199
H274	H	-0.139435	-0.532031	0.429404
H275	H	-0.145032	-0.559858	0.344170
H276	H	-0.117503	-0.609965	0.401406
H277	H	0.051792	-0.699362	0.229554
O278	O	-0.112336	-0.696589	0.515296
C279	C	-0.047711	-0.783865	0.548158
C280	C	-0.079146	-0.747569	0.507098
H281	H	-0.020860	-0.825086	0.541537
H282	H	-0.078071	-0.790479	0.591692
H283	H	-0.020902	-0.762882	0.541617
H284	H	-0.105956	-0.768522	0.513589
H285	H	-0.048756	-0.740954	0.463578
H286	H	-0.067926	-0.564092	0.382165
O287	O	0.019170	-0.742821	0.337949
C288	C	0.067591	-0.833664	0.331958
C289	C	0.052431	-0.771676	0.300430
H290	H	0.094494	-0.857012	0.301638
H291	H	0.028693	-0.844921	0.358704
H292	H	0.090842	-0.844949	0.358879
H293	H	0.029193	-0.760346	0.273480
H294	H	0.091349	-0.760452	0.273719
H295	H	0.016742	-0.733938	0.467255
O296	O	-0.035431	-0.520637	0.414687
C297	C	-0.030917	-0.434850	0.342000
C298	C	-0.015786	-0.496830	0.357287
H299	H	-0.015050	-0.415581	0.295591
H300	H	-0.011622	-0.427599	0.361342
H301	H	-0.077321	-0.415477	0.357754
H302	H	0.030610	-0.516244	0.341536
H303	H	-0.035120	-0.504042	0.337952
O304	O	-0.081029	-0.848429	0.495630
C305	C	-0.175036	-0.842274	0.528640
C306	C	-0.134469	-0.810836	0.498637
H307	H	-0.218249	-0.811893	0.531070
H308	H	-0.173352	-0.869044	0.571764
H309	H	-0.163530	-0.869164	0.505261
H310	H	-0.145947	-0.783915	0.521970
H311	H	-0.136160	-0.784100	0.455510
O312	O	0.101852	-0.848758	0.426278
C313	C	0.171083	-0.913550	0.468654
C314	C	0.109600	-0.881961	0.477456
H315	H	0.177366	-0.940410	0.510022
H316	H	0.194163	-0.883287	0.445985
H317	H	0.187235	-0.940369	0.443428
H318	H	0.093398	-0.855141	0.502694
H319	H	0.086557	-0.912253	0.500100
H320	H	-0.220824	-0.656545	0.543924
O321	O	-0.224926	-0.566498	0.368072
C322	C	-0.218713	-0.522172	0.273175
C323	C	-0.187310	-0.558448	0.314262
H324	H	-0.188314	-0.515662	0.229661
H325	H	-0.245516	-0.480903	0.279698
H326	H	-0.245565	-0.543132	0.279755
H327	H	-0.160429	-0.537537	0.307707
H328	H	-0.160542	-0.599716	0.307729
O329	O	-0.118485	-0.735461	0.457739
C330	C	-0.187707	-0.670714	0.415343
C331	C	-0.126229	-0.702334	0.406553
H332	H	-0.193989	-0.643932	0.373966
H333	H	-0.203889	-0.643830	0.440511
H334	H	-0.210761	-0.701005	0.438064
H335	H	-0.103130	-0.672083	0.383817
H336	H	-0.110089	-0.729226	0.381407
H337	H	-0.116547	-0.606465	0.339541
