data_functionalizedCrystal
_audit_creation_method	'MofGen! by Chris Wilmer'
_symmetry_space_group_name_H-M	'P1'
_symmetry_Int_Tables_number	1
_symmetry_cell_setting	triclinic
loop_
_symmetry_equiv_pos_as_xyz
  x,y,z
_cell_length_a	19.288864
_cell_length_b	19.288865
_cell_length_c	17.766277
_cell_angle_alpha	90.011603
_cell_angle_beta	90.023209
_cell_angle_gamma	83.136245
loop_
_atom_site_label
_atom_site_type_symbol
_atom_site_fract_x
_atom_site_fract_y
_atom_site_fract_z
O1	O	-0.921353	-0.086649	-0.062844
O2	O	-0.588020	0.246685	0.270489
O3	O	-0.254686	0.580018	0.603823
O4	O	-0.719092	-0.098337	-0.062794
O5	O	-0.385759	0.234996	0.270539
O6	O	-0.052426	0.568329	0.603873
O7	O	-0.826067	0.008637	-0.062806
O8	O	-0.492734	0.341971	0.270528
O9	O	-0.159400	0.675304	0.603861
O10	O	-0.814378	-0.193623	-0.062832
O11	O	-0.481045	0.139710	0.270501
O12	O	-0.147712	0.473043	0.603834
O13	O	-0.826048	0.008643	0.062383
O14	O	-0.492715	0.341976	0.395716
O15	O	-0.159382	0.675309	0.729050
O16	O	-0.719074	-0.098332	0.062395
O17	O	-0.385740	0.235001	0.395728
O18	O	-0.052407	0.568335	0.729061
O19	O	-0.921334	-0.086643	0.062344
O20	O	-0.588001	0.246690	0.395678
O21	O	-0.254668	0.580023	0.729011
Cu22	Cu	-0.820202	-0.092487	0.073800
Cu23	Cu	-0.486869	0.240846	0.407134
Cu24	Cu	-0.153536	0.574179	0.740467
Cu25	Cu	-0.820224	-0.092494	-0.074250
Cu26	Cu	-0.486891	0.240840	0.259084
Cu27	Cu	-0.153558	0.574173	0.592417
O28	O	-0.814360	-0.193618	0.062356
O29	O	-0.481026	0.139715	0.395689
O30	O	-0.147693	0.473049	0.729023
C31	C	-0.693207	-0.097959	-0.000193
C32	C	-0.359873	0.235375	0.333140
C33	C	-0.026540	0.568708	0.666474
C34	C	-0.616103	-0.096830	-0.000173
C35	C	-0.282770	0.236504	0.333160
C36	C	0.050564	0.569837	0.666494
C37	C	-0.825682	0.034516	-0.000209
C38	C	-0.492348	0.367850	0.333124
C39	C	-0.159015	0.701183	0.666458
C40	C	-0.824553	0.111620	-0.000202
C41	C	-0.491219	0.444953	0.333131
C42	C	-0.157886	0.778287	0.666465
C43	C	-0.947220	-0.087022	-0.000258
C44	C	-0.613887	0.246311	0.333075
C45	C	-0.280554	0.579645	0.666408
C46	C	-1.024324	-0.088151	-0.000283
C47	C	-0.690990	0.245182	0.333050
C48	C	-0.357657	0.578516	0.666384
C49	C	-0.814745	-0.219497	-0.000242
C50	C	-0.481412	0.113836	0.333091
C51	C	-0.148078	0.447169	0.666424
C52	C	-0.815874	-0.296601	-0.000254
C53	C	-0.482541	0.036733	0.333079
C54	C	-0.149207	0.370066	0.666413
C55	C	-0.571407	-0.159598	-0.000193
C56	C	-0.238073	0.173736	0.333140
C57	C	0.095260	0.507069	0.666473
C58	C	-0.498960	-0.158537	-0.000201
C59	C	-0.165626	0.174796	0.333132
C60	C	0.167707	0.508130	0.666465
C61	C	-0.471212	-0.094705	-0.000205
C62	C	-0.137879	0.238629	0.333129
C63	C	0.195455	0.571962	0.666462
C64	C	-0.515918	-0.031929	-0.000180
C65	C	-0.182585	0.301405	0.333153
C66	C	0.150748	0.634738	0.666487
C67	C	-0.588364	-0.032991	-0.000164
C68	C	-0.255030	0.300342	0.333169
C69	C	0.078303	0.633676	0.666502
C70	C	-0.362957	-0.044527	-0.044082
C71	C	-0.029623	0.288806	0.289251
C72	C	0.303710	0.622139	0.622584
C73	C	-0.290512	-0.043468	-0.044103
C74	C	0.042821	0.289866	0.289231
C75	C	0.376154	0.623199	0.622564
C76	C	-0.247767	-0.091425	-0.000250
C77	C	0.085567	0.241908	0.333084
C78	C	0.418900	0.575242	0.666417
C79	C	-0.277473	-0.140454	0.043614
C80	C	0.055861	0.192879	0.376947
C81	C	0.389194	0.526212	0.710281
C82	C	-0.349918	-0.141517	0.043630
C83	C	-0.016585	0.191817	0.376963
C84	C	0.316749	0.525150	0.710296
C85	C	-0.392658	-0.093546	-0.000221
C86	C	-0.059325	0.239788	0.333112
C87	C	0.274009	0.573121	0.666446
C88	C	-0.124514	-0.153047	-0.000278
C89	C	0.208819	0.180286	0.333056
C90	C	0.542152	0.513619	0.666389
C91	C	-0.052066	-0.151984	-0.000281
C92	C	0.281267	0.181349	0.333052
C93	C	0.614600	0.514683	0.666386
C94	C	-0.069026	-0.025374	-0.000267
C95	C	0.264307	0.307960	0.333066
C96	C	0.597640	0.641293	0.666399
C97	C	-0.141473	-0.026439	-0.000256
C98	C	0.191860	0.306894	0.333077
C99	C	0.525194	0.640228	0.666410
C100	C	-0.169212	-0.090278	-0.000265
C101	C	0.164121	0.243056	0.333068
C102	C	0.497454	0.576389	0.666402
N103	N	-0.820192	-0.092482	0.177931
N104	N	-0.486858	0.240851	0.511264
N105	N	-0.153525	0.574184	0.844597
C106	C	-0.887321	0.156316	-0.000214
C107	C	-0.553987	0.489650	0.333119
C108	C	-0.220654	0.822983	0.666453
C109	C	-0.886260	0.228763	-0.000226
C110	C	-0.552927	0.562097	0.333108
C111	C	-0.219593	0.895430	0.666441
C112	C	-0.822428	0.256511	-0.000210
C113	C	-0.489094	0.589844	0.333123
C114	C	-0.155761	0.923178	0.666456
C115	C	-0.759652	0.211805	-0.000203
C116	C	-0.426318	0.545138	0.333131
C117	C	-0.092985	0.878471	0.666464
C118	C	-0.760714	0.139359	-0.000198
C119	C	-0.427381	0.472693	0.333135
C120	C	-0.094047	0.806026	0.666468
C121	C	-0.772242	0.364800	0.043653
C122	C	-0.438908	0.698133	0.376986
C123	C	-0.105575	1.031467	0.710320
C124	C	-0.771182	0.437245	0.043654
C125	C	-0.437848	0.770578	0.376987
C126	C	-0.104515	1.103911	0.710320
C127	C	-0.819148	0.479956	-0.000226
C128	C	-0.485815	0.813290	0.333107
C129	C	-0.152481	1.146623	0.666440
C130	C	-0.868186	0.450216	-0.044097
C131	C	-0.534853	0.783550	0.289236
C132	C	-0.201519	1.116883	0.622570
C133	C	-0.869249	0.377771	-0.044093
C134	C	-0.535915	0.711104	0.289240
C135	C	-0.202582	1.044438	0.622574
C136	C	-0.821269	0.335065	-0.000215
C137	C	-0.487935	0.668398	0.333118
C138	C	-0.154602	1.001732	0.666452
C139	C	-0.880770	0.603209	-0.000252
C140	C	-0.547437	0.936542	0.333081
C141	C	-0.214104	1.269875	0.666415
C142	C	-0.879707	0.675657	-0.000268
C143	C	-0.546374	1.008990	0.333065
C144	C	-0.213040	1.342323	0.666398
C145	C	-0.753097	0.658697	-0.000238
C146	C	-0.419763	0.992030	0.333096
C147	C	-0.086430	1.325363	0.666429
C148	C	-0.754162	0.586250	-0.000229
C149	C	-0.420829	0.919583	0.333105
C150	C	-0.087495	1.252917	0.666438
C151	C	-0.818001	0.558511	-0.000232
C152	C	-0.484667	0.891844	0.333101
C153	C	-0.151334	1.225177	0.666434
N154	N	-0.820241	-0.092493	-0.178380
N155	N	-0.486907	0.240840	0.154953
N156	N	-0.153574	0.574174	0.488287
C157	C	-0.867575	-0.045137	0.217312
C158	C	-0.534242	0.288196	0.550646
C159	C	-0.200909	0.621530	0.883979
C160	C	-0.867579	-0.045134	0.296114
C161	C	-0.534246	0.288200	0.629447
C162	C	-0.200913	0.621533	0.962781
C163	C	-0.820206	-0.092488	0.335531
C164	C	-0.486873	0.240846	0.668864
C165	C	-0.153540	0.574179	1.002198
C166	C	-0.772814	-0.139837	0.296140
C167	C	-0.439481	0.193497	0.629473
C168	C	-0.106147	0.526830	0.962807
C169	C	-0.772807	-0.139834	0.217340
C170	C	-0.439473	0.193499	0.550673
C171	C	-0.106140	0.526833	0.884006
C172	C	-0.810908	-0.155775	0.460362
C173	C	-0.477574	0.177558	0.793695
C174	C	-0.144241	0.510891	1.127029
C175	C	-0.810920	-0.155779	0.539161
C176	C	-0.477586	0.177554	0.872494
C177	C	-0.144253	0.510888	1.205828
C178	C	-0.820225	-0.092496	0.578577
C179	C	-0.486892	0.240837	0.911911
C180	C	-0.153558	0.574171	1.245244
C181	C	-0.829533	-0.029207	0.539185
C182	C	-0.496199	0.304127	0.872519
C183	C	-0.162866	0.637460	1.205852
C184	C	-0.829525	-0.029204	0.460385
C185	C	-0.496192	0.304129	0.793718
C186	C	-0.162859	0.637463	1.127052
C187	C	-0.820209	-0.092496	0.420977
C188	C	-0.486875	0.240838	0.754310
C189	C	-0.153542	0.574171	1.087643
C190	C	-0.867616	-0.045143	0.703405
C191	C	-0.534282	0.288190	1.036738
C192	C	-0.200949	0.621523	1.370072
C193	C	-0.867615	-0.045139	0.782208
C194	C	-0.534281	0.288194	1.115542
C195	C	-0.200948	0.621527	1.448875
C196	C	-0.772853	-0.139848	0.782233
C197	C	-0.439519	0.193485	1.115566
C198	C	-0.106186	0.526818	1.448899
C199	C	-0.772850	-0.139846	0.703431
C200	C	-0.439517	0.193487	1.036764
C201	C	-0.106183	0.526820	1.370098
C202	C	-0.820235	-0.092495	0.664022
C203	C	-0.486902	0.240839	0.997355
C204	C	-0.153569	0.574172	1.330689
H205	H	-0.462561	-0.209652	-0.000216
H206	H	-0.129228	0.123682	0.333118
H207	H	0.204106	0.457015	0.666451
H208	H	-0.374102	-0.181436	0.079347
H209	H	-0.040769	0.151898	0.412681
H210	H	0.292565	0.485231	0.746014
H211	H	-0.906158	-0.006579	0.185228
H212	H	-0.572824	0.326754	0.518561
H213	H	-0.239491	0.660088	0.851894
H214	H	-0.803345	-0.207313	0.571228
H215	H	-0.470012	0.126020	0.904561
H216	H	-0.136679	0.459354	1.237895
O217	O	-0.601329	-0.228448	-0.000196
O218	O	-0.267996	0.104885	0.333137
O219	O	0.065338	0.438219	0.666471
H220	H	-0.633905	-0.231953	0.050834
H221	H	-0.300571	0.101380	0.384167
H222	H	0.032762	0.434713	0.717501
O223	O	-0.154442	-0.221897	-0.000272
O224	O	0.178891	0.111437	0.333062
O225	O	0.512224	0.444770	0.666395
H226	H	-0.111187	-0.265367	-0.000273
H227	H	0.222146	0.067967	0.333061
H228	H	0.555479	0.401300	0.666394
H229	H	-0.703049	0.549857	-0.000215
H230	H	-0.369716	0.883190	0.333119
H231	H	-0.036383	1.216524	0.666452
H232	H	-0.909176	0.353560	-0.079815
H233	H	-0.575842	0.686893	0.253518
H234	H	-0.242509	1.020226	0.586851
H235	H	-0.242670	-0.179505	0.079324
H236	H	0.090663	0.153828	0.412657
H237	H	0.423996	0.487161	0.745991
O238	O	-0.258473	0.009417	-0.091400
O239	O	0.074860	0.342751	0.241934
O240	O	0.408193	0.676084	0.575267
H241	H	-0.300368	0.042599	-0.121875
H242	H	0.032966	0.375932	0.211458
H243	H	0.366299	0.709265	0.544791
O244	O	-0.636574	0.034714	-0.000143
O245	O	-0.303241	0.368048	0.333190
O246	O	0.030093	0.701381	0.666524
H247	H	-0.691611	0.023251	-0.000128
H248	H	-0.358277	0.356584	0.333205
H249	H	-0.024944	0.689918	0.666539
H250	H	-0.707679	0.234401	-0.000192
H251	H	-0.374346	0.567735	0.333142
H252	H	-0.041012	0.901068	0.666475
O253	O	-0.918695	0.005926	0.338605
O254	O	-0.585361	0.339259	0.671939
O255	O	-0.252028	0.672592	1.005272
H256	H	-0.951646	0.038848	0.297963
H257	H	-0.618313	0.372181	0.631296
H258	H	-0.284980	0.705515	0.964630
H259	H	-0.701123	0.681288	-0.000229
H260	H	-0.367790	1.014621	0.333105
H261	H	-0.034457	1.347954	0.666438
H262	H	-0.731249	0.461453	0.079371
H263	H	-0.397916	0.794786	0.412705
H264	H	-0.064583	1.128119	0.746038
H265	H	-0.937375	0.265162	-0.000238
H266	H	-0.604041	0.598495	0.333095
H267	H	-0.270708	0.931829	0.666428
O268	O	-0.839551	0.039051	0.417894
O269	O	-0.506218	0.372385	0.751228
O270	O	-0.172885	0.705718	1.084561
H271	H	-0.846018	0.083059	0.458535
H272	H	-0.512684	0.416392	0.791869
H273	H	-0.179351	0.749726	1.125202
H274	H	-0.015674	-0.203099	-0.000293
H275	H	0.317659	0.130234	0.333040
H276	H	0.650992	0.463567	0.666373
O277	O	-0.721775	-0.190933	0.824750
O278	O	-0.388442	0.142400	1.158083
O279	O	-0.055109	0.475734	1.491417
H280	H	-0.730466	-0.245053	0.809599
H281	H	-0.397132	0.088280	1.142932
H282	H	-0.063799	0.421614	1.476266
H283	H	-0.837110	0.022324	0.571277
H284	H	-0.503776	0.355658	0.904610
H285	H	-0.170443	0.688991	1.237943
H286	H	-0.046435	0.026600	-0.000317
H287	H	0.286898	0.359933	0.333017
H288	H	0.620231	0.693266	0.666350
H289	H	-0.709599	0.102967	-0.000188
H290	H	-0.376266	0.436300	0.333145
H291	H	-0.042933	0.769633	0.666478
H292	H	-0.907245	0.484991	-0.079829
H293	H	-0.573911	0.818325	0.253505
H294	H	-0.240578	1.151658	0.586838
O295	O	-0.949620	0.573281	-0.000271
O296	O	-0.616286	0.906614	0.333062
O297	O	-0.282953	1.239947	0.666396
H298	H	-0.993090	0.616536	-0.000296
H299	H	-0.659756	0.949869	0.333038
H300	H	-0.326423	1.283202	0.666371
H301	H	-0.733180	0.330029	0.079389
H302	H	-0.399847	0.663363	0.412723
H303	H	-0.066513	0.996696	0.746056
O304	O	-0.189689	0.041261	-0.000241
O305	O	0.143645	0.374594	0.333092
O306	O	0.476978	0.707927	0.666426
H307	H	-0.158225	0.085827	-0.000249
H308	H	0.175108	0.419160	0.333084
H309	H	0.508441	0.752494	0.666418
H310	H	-0.930822	0.712049	-0.000282
H311	H	-0.597489	1.045382	0.333051
H312	H	-0.264156	1.378715	0.666385
H313	H	-0.397755	-0.005473	-0.079797
H314	H	-0.064422	0.327860	0.253536
H315	H	0.268911	0.661193	0.586870
H316	H	-0.939303	0.133736	-0.000220
H317	H	-0.605970	0.467069	0.333114
H318	H	-0.272636	0.800403	0.666447
O319	O	-0.918711	0.005933	0.660890
O320	O	-0.585378	0.339267	0.994224
O321	O	-0.252045	0.672600	1.327557
H322	H	-0.951654	0.038866	0.701518
H323	H	-0.618320	0.372200	1.034851
H324	H	-0.284987	0.705533	1.368184
O325	O	-0.485997	0.036921	-0.000184
O326	O	-0.152664	0.370255	0.333150
O327	O	0.180669	0.703588	0.666483
H328	H	-0.428112	0.027116	-0.000205
H329	H	-0.094778	0.360449	0.333128
H330	H	0.238555	0.693783	0.666461
O331	O	-0.918731	0.005921	0.824691
O332	O	-0.585398	0.339254	1.158024
O333	O	-0.252064	0.672588	1.491357
H334	H	-0.951684	0.038838	0.784045
H335	H	-0.618351	0.372171	1.117378
H336	H	-0.285017	0.705505	1.450712
O337	O	-0.721751	-0.190920	0.660947
O338	O	-0.388418	0.142414	0.994280
O339	O	-0.055085	0.475747	1.327613
H340	H	-0.688814	-0.223853	0.701592
H341	H	-0.355480	0.109481	1.034925
H342	H	-0.022147	0.442814	1.368259
H343	H	-0.803318	-0.207311	0.428276
H344	H	-0.469985	0.126022	0.761609
H345	H	-0.136651	0.459355	1.094942
O346	O	-0.721720	-0.190917	0.338647
O347	O	-0.388387	0.142416	0.671980
O348	O	-0.055054	0.475750	1.005314
H349	H	-0.729691	-0.182971	0.400059
H350	H	-0.396358	0.150362	0.733392
H351	H	-0.063025	0.483696	1.066725
H352	H	-0.734220	-0.178389	0.185274
H353	H	-0.400887	0.154945	0.518608
H354	H	-0.067554	0.488278	0.851941
