data_functionalizedCrystal
_audit_creation_method	'MofGen! by Chris Wilmer'
_symmetry_space_group_name_H-M	'P1'
_symmetry_Int_Tables_number	1
_symmetry_cell_setting	triclinic
loop_
_symmetry_equiv_pos_as_xyz
  x,y,z
_cell_length_a	18.627206
_cell_length_b	18.627215
_cell_length_c	18.627468
_cell_angle_alpha	90.004348
_cell_angle_beta	120.003381
_cell_angle_gamma	60.000676
loop_
_atom_site_label
_atom_site_type_symbol
_atom_site_fract_x
_atom_site_fract_y
_atom_site_fract_z
O1	O	0.633167	-0.611821	1.125685
O2	O	0.486174	-0.507439	0.874288
O3	O	0.633173	-0.507430	1.021292
O4	O	0.486167	-0.611830	0.978681
O5	O	0.513770	-0.388028	1.021289
O6	O	0.366770	-0.388037	0.874285
O7	O	0.513763	-0.492419	1.125682
Cu8	Cu	0.429364	-0.429326	0.999983
Cu9	Cu	0.570573	-0.570533	0.999987
O10	O	0.366763	-0.492429	0.978678
C11	C	0.355974	-0.386930	0.742992
C12	C	0.406371	-0.431235	0.837686
C13	C	0.398767	-0.430328	0.699385
C14	C	0.225976	-0.256927	0.613004
C15	C	0.137380	-0.162232	0.568713
C16	C	0.268967	-0.300523	0.569594
C17	C	0.355969	-0.386920	0.612990
C18	C	0.406362	-0.431214	0.568686
C19	C	0.268971	-0.300533	0.699399
C20	C	0.643963	-0.386922	1.030978
C21	C	0.593570	-0.431226	1.024887
C22	C	0.601165	-0.300523	1.031583
C23	C	0.773957	-0.386917	1.030969
C24	C	0.862555	-0.431216	1.024868
C25	C	0.730962	-0.300518	1.031574
C26	C	0.643958	-0.256918	1.030970
C27	C	0.593559	-0.162222	1.024871
C28	C	0.730967	-0.430324	1.031581
C29	C	0.225954	-0.612924	0.968969
C30	C	0.137351	-0.568621	0.975062
C31	C	0.268947	-0.699322	0.968361
C32	C	0.355962	-0.612928	0.968977
C33	C	0.406363	-0.568630	0.975079
C34	C	0.398756	-0.699327	0.968369
C35	C	0.355955	-0.742926	0.968972
C36	C	0.406349	-0.837622	0.975068
C37	C	0.268953	-0.569522	0.968366
O38	O	1.104348	-0.611820	0.978663
O39	O	0.895558	-0.507418	1.021272
O40	O	0.895547	-0.507432	0.874269
O41	O	1.104359	-0.611807	1.125666
O42	O	0.895545	-0.388028	0.874261
O43	O	0.895556	-0.388015	1.021265
O44	O	1.104346	-0.492417	0.978656
Cu45	Cu	0.999951	-0.429313	0.999959
Cu46	Cu	0.999953	-0.570522	0.999968
O47	O	1.104357	-0.492403	1.125659
O48	O	-0.104407	0.125758	0.507547
O49	O	0.104381	-0.125636	0.611917
O50	O	0.104394	0.021357	0.611945
O51	O	-0.104421	-0.021235	0.507519
O52	O	0.104390	0.021367	0.492542
O53	O	0.104376	-0.125626	0.492514
O54	O	-0.104411	0.125768	0.388144
Cu55	Cu	-0.000018	0.000072	0.429426
Cu56	Cu	-0.000013	0.000060	0.570634
O57	O	-0.104425	-0.021226	0.388116
O58	O	0.486145	0.125780	0.978662
O59	O	0.633156	-0.125616	1.021268
O60	O	0.486145	0.021370	0.874266
O61	O	0.633156	-0.021206	1.125664
O62	O	0.366750	0.021362	0.874274
O63	O	0.513761	-0.125624	1.021276
O64	O	0.366751	0.125773	0.978671
Cu65	Cu	0.429355	0.000074	0.999974
Cu66	Cu	0.570552	0.000083	0.999964
O67	O	0.513762	-0.021213	1.125673
O68	O	0.513755	-0.492397	0.388081
O69	O	0.366762	-0.388011	0.492487
O70	O	0.513767	-0.388009	0.492500
O71	O	0.366749	-0.492399	0.388068
O72	O	0.633166	-0.507413	0.611891
O73	O	0.486161	-0.507415	0.611878
O74	O	0.633153	-0.611801	0.507471
Cu75	Cu	0.570559	-0.570511	0.570576
Cu76	Cu	0.429356	-0.429302	0.429383
O77	O	0.486148	-0.611803	0.507459
C78	C	0.773956	-0.742905	1.386980
C79	C	0.862556	-0.837599	1.431281
C80	C	0.730960	-0.699301	1.430383
C81	C	0.643958	-0.612913	1.256980
C82	C	0.593564	-0.568619	1.162285
C83	C	0.601160	-0.569506	1.300580
C84	C	0.643954	-0.612905	1.386978
C85	C	0.593555	-0.568602	1.431275
C86	C	0.730964	-0.699309	1.300583
C87	C	0.643928	-0.256955	0.612964
C88	C	0.593528	-0.162262	0.568659
C89	C	0.601131	-0.300563	0.569565
C90	C	0.773937	-0.386943	0.742968
C91	C	0.862541	-0.431232	0.837664
C92	C	0.730942	-0.430353	0.699371
C93	C	0.643932	-0.386958	0.612974
C94	C	0.593536	-0.431265	0.568680
C95	C	0.730938	-0.300547	0.699361
C96	C	1.355974	-0.612886	1.386957
C97	C	1.406373	-0.568582	1.431254
C98	C	1.398773	-0.699281	1.430363
C99	C	1.225968	-0.612897	1.256960
C100	C	1.137363	-0.568604	1.162264
C101	C	1.268964	-0.699292	1.300563
C102	C	1.355973	-0.742887	1.386961
C103	C	1.406371	-0.837580	1.431263
C104	C	1.268964	-0.569489	1.300559
C105	C	0.356007	0.031057	0.613064
C106	C	0.406402	0.024965	0.568765
C107	C	0.398810	0.031658	0.699467
C108	C	0.226003	0.031054	0.613055
C109	C	0.137397	0.024960	0.568748
C110	C	0.269003	0.031655	0.699458
C111	C	0.356014	0.031046	0.743066
C112	C	0.406417	0.024943	0.837767
C113	C	0.268996	0.031666	0.569653
O114	O	0.366699	0.125727	0.388059
O115	O	0.513723	-0.125669	0.492458
O116	O	0.366726	0.021320	0.492469
O117	O	0.513696	-0.021261	0.388047
O118	O	0.486131	0.021334	0.611865
O119	O	0.633129	-0.125654	0.611853
O120	O	0.486104	0.125741	0.507454
Cu121	Cu	0.570519	0.000045	0.570556
Cu122	Cu	0.429308	0.000028	0.429356
O123	O	0.633102	-0.021247	0.507443
C124	C	-0.356046	-0.030914	0.256996
C125	C	-0.406449	-0.024811	0.162295
C126	C	-0.398841	-0.031526	0.300596
C127	C	-0.226034	-0.030922	0.387006
C128	C	-0.137428	-0.024828	0.431313
C129	C	-0.269027	-0.031534	0.430409
C130	C	-0.356038	-0.030925	0.387000
C131	C	-0.406432	-0.024833	0.431299
C132	C	-0.269035	-0.031524	0.300603
H133	H	0.468770	-0.501319	0.734385
O134	O	-0.221371	-0.032803	0.254242
H135	H	-0.142256	-0.092716	0.291233
O136	O	0.778626	-0.524353	1.032868
H137	H	0.846468	-0.547333	1.033180
H138	H	0.233009	0.032642	0.734455
O139	O	0.221289	-0.745697	0.967066
H140	H	0.153450	-0.700846	0.966762
H141	H	0.468771	-0.734331	0.967397
H142	H	0.232975	-0.265512	0.498606
H143	H	1.232969	-0.734294	1.265560
O144	O	0.221301	-0.254164	0.745763
H145	H	0.265840	-0.299022	0.813290
O146	O	1.221289	-0.475459	1.254182
H147	H	1.265831	-0.452463	1.299035
O148	O	0.491557	0.032943	0.745852
H149	H	0.514242	0.033248	0.701003
H150	H	0.766944	-0.734306	1.501370
H151	H	0.766948	-0.734323	1.265580
O152	O	0.778610	-0.524382	0.745741
H153	H	0.722798	-0.528235	0.749212
O154	O	1.491510	-0.745656	1.524395
H155	H	1.554659	-0.749148	1.528254
O156	O	0.778610	-0.254137	1.032858
H157	H	0.846454	-0.298989	1.033169
O158	O	0.508427	-0.254147	1.032876
H159	H	0.485744	-0.298999	1.033181
H160	H	0.766918	-0.265533	0.734359
O161	O	0.221297	-0.475489	0.967067
H162	H	0.153447	-0.452495	0.966747
H163	H	0.233014	0.032646	0.498662
H164	H	-0.233035	-0.032516	0.501402
H165	H	0.531145	-0.498521	1.265569
H166	H	0.531116	-0.265562	0.498577
H167	H	-0.468855	-0.032503	0.265583
