data_functionalizedCrystal
_audit_creation_method	'MofGen! by Chris Wilmer'
_symmetry_space_group_name_H-M	'P1'
_symmetry_Int_Tables_number	1
_symmetry_cell_setting	triclinic
loop_
_symmetry_equiv_pos_as_xyz
  x,y,z
_cell_length_a	15.944551
_cell_length_b	17.699083
_cell_length_c	16.176319
_cell_angle_alpha	90.001389
_cell_angle_beta	89.992246
_cell_angle_gamma	96.609123
loop_
_atom_site_label
_atom_site_type_symbol
_atom_site_fract_x
_atom_site_fract_y
_atom_site_fract_z
O1	O	0.106222	-1.004260	-0.068632
O2	O	0.606222	-0.504260	0.431368
O3	O	0.120042	-0.783905	-0.068660
O4	O	0.620042	-0.283905	0.431340
O5	O	-0.009156	-0.900100	-0.068638
O6	O	0.490844	-0.400100	0.431362
O7	O	0.235419	-0.888065	-0.068654
O8	O	0.735419	-0.388065	0.431346
O9	O	-0.009164	-0.900084	0.068855
O10	O	0.490836	-0.400084	0.568855
O11	O	0.120033	-0.783889	0.068833
O12	O	0.620033	-0.283889	0.568833
O13	O	0.106214	-1.004244	0.068861
O14	O	0.606214	-0.504244	0.568861
Cu15	Cu	0.113123	-0.894065	0.081401
Cu16	Cu	0.613123	-0.394065	0.581401
Cu17	Cu	0.113133	-0.894084	-0.081200
Cu18	Cu	0.613133	-0.394084	0.418800
O19	O	0.235411	-0.888049	0.068839
O20	O	0.735411	-0.388049	0.568839
C21	C	0.119542	-0.755700	0.000083
C22	C	0.619542	-0.255700	0.500083
C23	C	0.118057	-0.671679	0.000073
C24	C	0.618057	-0.171679	0.500073
C25	C	-0.040453	-0.899593	0.000109
C26	C	0.459547	-0.399593	0.500109
C27	C	-0.133696	-0.898095	0.000109
C28	C	0.366304	-0.398095	0.500109
N29	N	0.113116	-0.894058	0.195767
N30	N	0.613116	-0.394058	0.695767
C31	C	-0.348393	-0.822492	0.000088
C32	C	0.151607	-0.322492	0.500088
C33	C	-0.409488	-0.857591	0.067885
C34	C	0.090512	-0.357591	0.567885
C35	C	-0.304416	-0.895385	0.000102
C36	C	0.195584	-0.395385	0.500102
C37	C	-0.409464	-0.857624	-0.067672
C38	C	0.090536	-0.357624	0.432328
C39	C	-0.469323	-0.892762	0.000092
C40	C	0.030677	-0.392762	0.500092
C41	C	-0.364283	-0.930505	0.067955
C42	C	0.135717	-0.430505	0.567955
C43	C	-0.364252	-0.930527	-0.067663
C44	C	0.135748	-0.430527	0.432337
C45	C	-0.425329	-0.965680	0.000150
C46	C	0.074671	-0.465680	0.500150
C47	C	-0.209417	-0.896894	0.000109
C48	C	0.290583	-0.396894	0.500109
C49	C	-0.564321	-0.891259	0.000092
C50	C	-0.064321	-0.391259	0.500092
C51	C	0.266708	-0.888557	0.000090
C52	C	0.766708	-0.388557	0.500090
C53	C	0.359951	-0.890055	0.000085
C54	C	0.859951	-0.390055	0.500085
C55	C	0.106713	-1.032450	0.000116
C56	C	0.606713	-0.532450	0.500116
C57	C	0.108199	-1.116471	0.000121
C58	C	0.608199	-0.616471	0.500121
C59	C	0.193893	-0.623187	0.000068
C60	C	0.693893	-0.123187	0.500068
C61	C	0.192492	-0.544242	0.000079
C62	C	0.692492	-0.044242	0.500079
C63	C	0.115254	-0.513789	0.000089
C64	C	0.615254	-0.013789	0.500089
C65	C	0.039412	-0.562287	0.000096
C66	C	0.539412	-0.062287	0.500096
C67	C	0.040814	-0.641231	0.000091
C68	C	0.540814	-0.141231	0.500091
C69	C	0.033758	-0.243914	0.000117
C70	C	0.533758	0.256086	0.500117
C71	C	0.032362	-0.164964	0.000119
C72	C	0.532362	0.335036	0.500119
C73	C	0.185436	-0.146925	0.000105
C74	C	0.685436	0.353075	0.500105
C75	C	0.186837	-0.225869	0.000100
C76	C	0.686837	0.274131	0.500100
C77	C	0.110996	-0.274360	0.000112
C78	C	0.610996	0.225640	0.500112
C79	C	0.112516	-0.359962	0.000102
C80	C	0.612516	0.140038	0.500102
C81	C	0.113733	-0.428189	0.000093
C82	C	0.613733	0.071811	0.500093
N83	N	0.113133	-0.894098	-0.195565
N84	N	0.613133	-0.394098	0.304435
C85	C	0.055930	-0.945524	0.239040
C86	C	0.555930	-0.445524	0.739040
C87	C	0.055929	-0.945528	0.325588
C88	C	0.555929	-0.445528	0.825588
C89	C	0.113118	-0.894068	0.368859
C90	C	0.613118	-0.394068	0.868859
C91	C	0.170306	-0.842596	0.325579
C92	C	0.670306	-0.342596	0.825579
C93	C	0.170303	-0.842589	0.239034
C94	C	0.670303	-0.342589	0.739034
C95	C	0.170322	-0.842622	0.674608
C96	C	0.670322	-0.342622	1.174608
C97	C	0.170323	-0.842634	0.761159
C98	C	0.670323	-0.342634	1.261159
C99	C	0.055949	-0.945561	0.761161
C100	C	0.555949	-0.445561	1.261161
C101	C	0.055945	-0.945554	0.674616
C102	C	0.555945	-0.445554	1.174616
C103	C	0.113130	-0.894080	0.631343
C104	C	0.613130	-0.394080	1.131343
C105	C	0.113129	-0.894075	0.537499
C106	C	0.613129	-0.394075	1.037499
C107	C	0.113124	-0.894076	0.462702
C108	C	0.613124	-0.394076	0.962702
H109	H	-0.314958	-0.761987	0.000149
H110	H	0.185042	-0.261987	0.500149
O111	O	-0.435981	-0.816776	-0.143591
O112	O	0.064019	-0.316776	0.356409
H113	H	-0.505558	-0.816507	-0.143196
H114	H	-0.005558	-0.316507	0.356804
H115	H	-0.429535	-0.826754	0.125194
H116	H	0.070465	-0.326754	0.625194
O117	O	0.232009	-0.787113	0.627944
O118	O	0.732009	-0.287113	1.127944
H119	H	0.196704	-0.750318	0.588531
H120	H	0.696704	-0.250318	1.088531
H121	H	0.216895	-0.800727	0.796389
H122	H	0.716895	-0.300727	1.296389
H123	H	0.256789	-0.647975	0.000060
H124	H	0.756789	-0.147975	0.500060
O125	O	-0.005752	-1.001040	0.372258
O126	O	0.494248	-0.501040	0.872258
H127	H	0.003848	-0.992395	0.439708
H128	H	0.503848	-0.492395	0.939708
H129	H	0.216868	-0.800679	0.203801
H130	H	0.716868	-0.300679	0.703801
O131	O	-0.469431	-1.045892	0.000160
O132	O	0.030569	-0.545892	0.500160
H133	H	-0.509952	-1.054702	0.055919
H134	H	-0.009952	-0.554702	0.555919
O135	O	0.270147	-0.258710	0.000089
O136	O	0.770147	0.241290	0.500089
H137	H	0.258380	-0.321752	0.000079
H138	H	0.758380	0.178248	0.500079
O139	O	0.274286	-0.491937	0.000074
O140	O	0.774286	0.008063	0.500074
H141	H	0.328229	-0.526376	0.000057
H142	H	0.828229	-0.026376	0.500057
O143	O	0.231995	-0.787094	0.372244
O144	O	0.731995	-0.287094	0.872244
H145	H	0.222399	-0.795750	0.439696
H146	H	0.722399	-0.295750	0.939696
H147	H	-0.023476	-0.537486	0.000116
H148	H	0.476524	-0.037486	0.500116
O149	O	-0.337905	-0.971298	0.143967
O150	O	0.162095	-0.471298	0.643967
H151	H	-0.268397	-0.972059	0.143392
H152	H	0.231603	-0.472059	0.643392
H153	H	0.247189	-0.107434	0.000100
H154	H	0.747189	0.392566	0.500100
O155	O	-0.050948	-0.132114	0.000144
O156	O	0.449052	0.367886	0.500144
H157	H	-0.103451	-0.179094	0.000163
H158	H	0.396549	0.320906	0.500163
O159	O	-0.048038	-0.296211	0.000129
O160	O	0.451962	0.203789	0.500129
H161	H	-0.101979	-0.261769	0.000130
H162	H	0.398021	0.238231	0.500130
O163	O	-0.337654	-0.971342	-0.143574
O164	O	0.162346	-0.471342	0.356426
H165	H	-0.355532	-0.940972	-0.199772
H166	H	0.144468	-0.440972	0.300228
O167	O	-0.040980	-0.693538	0.000094
O168	O	0.459020	-0.193538	0.500094
H169	H	-0.094924	-0.659102	0.000094
H170	H	0.405076	-0.159102	0.500094
H171	H	0.009364	-0.987432	0.203814
H172	H	0.509364	-0.487432	0.703814
H173	H	0.009379	-0.987460	0.639387
H174	H	0.509379	-0.487460	1.139387
O175	O	-0.005741	-1.001076	0.807832
O176	O	0.494259	-0.501076	1.307832
H177	H	0.003859	-0.992433	0.875282
H178	H	0.503859	-0.492433	1.375282
