data_functionalizedCrystal
_audit_creation_method	'MofGen! by Chris Wilmer'
_symmetry_space_group_name_H-M	'P1'
_symmetry_Int_Tables_number	1
_symmetry_cell_setting	triclinic
loop_
_symmetry_equiv_pos_as_xyz
  x,y,z
_cell_length_a	6.817900
_cell_length_b	12.200875
_cell_length_c	17.982959
_cell_angle_alpha	94.640534
_cell_angle_beta	102.451857
_cell_angle_gamma	107.143593
loop_
_atom_site_label
_atom_site_type_symbol
_atom_site_fract_x
_atom_site_fract_y
_atom_site_fract_z
V1	V	-4.063264	-0.358141	-0.105586
V2	V	-3.563264	0.141859	0.394414
O3	O	-4.055274	-0.350830	0.004896
O4	O	-3.555274	0.149170	0.504896
O5	O	-4.009540	-0.356165	-0.209188
O6	O	-3.509540	0.143835	0.290812
O7	O	-4.033062	-0.514122	-0.104040
O8	O	-3.533062	-0.014122	0.395960
O9	O	-4.031589	-0.191780	-0.100980
O10	O	-3.531589	0.308220	0.399020
V11	V	-4.545224	-0.338185	-0.092362
V12	V	-4.045224	0.161815	0.407638
O13	O	-4.327951	-0.401915	-0.134594
O14	O	-3.827951	0.098085	0.365406
O15	O	-4.730735	-0.294411	-0.063354
O16	O	-4.230735	0.205589	0.436646
O17	O	-4.375743	-0.340160	0.011240
O18	O	-3.875743	0.159840	0.511240
O19	O	-4.670612	-0.345496	-0.202843
O20	O	-4.170612	0.154504	0.297157
O21	O	-4.694297	-0.504546	-0.096968
O22	O	-4.194297	-0.004546	0.403032
O23	O	-4.352221	-0.182204	-0.093908
O24	O	-3.852221	0.317796	0.406092
C25	C	-3.852656	-0.350638	-0.234441
C26	C	-3.352656	0.149362	0.265559
C27	C	-3.890138	-0.350063	-0.319137
C28	C	-3.390138	0.149937	0.180863
C29	C	-4.090333	-0.355532	-0.362811
C30	C	-3.590333	0.144468	0.137189
C31	C	-4.125543	-0.354998	-0.442393
C32	C	-3.625543	0.145002	0.057607
C33	C	-3.960550	-0.348987	-0.478299
C34	C	-3.460550	0.151013	0.021701
C35	C	-3.760340	-0.343520	-0.434619
C36	C	-3.260340	0.156480	0.065381
C37	C	-3.725137	-0.344063	-0.355040
C38	C	-3.225137	0.155937	0.144960
C39	C	-3.902305	-0.341335	-0.755554
C40	C	-3.402305	0.158665	-0.255554
C41	C	-3.937523	-0.340790	-0.835139
C42	C	-3.437523	0.159210	-0.335139
C43	C	-4.302711	-0.352271	-0.842907
C44	C	-3.802711	0.147729	-0.342907
C45	C	-4.267508	-0.352813	-0.763328
C46	C	-3.767508	0.147187	-0.263328
C47	C	-4.067305	-0.347353	-0.719656
C48	C	-3.567305	0.152647	-0.219656
C49	C	-4.029130	-0.347934	-0.633365
C50	C	-3.529130	0.152066	-0.133365
C51	C	-3.998718	-0.348397	-0.564587
C52	C	-3.498718	0.151603	-0.064587
C53	C	-3.882660	-0.552126	-0.100314
C54	C	-3.382660	-0.052126	0.399686
C55	C	-3.939214	-0.679644	-0.099735
C56	C	-3.439214	-0.179644	0.400265
C57	C	-4.042716	-0.913114	-0.098677
C58	C	-3.542716	-0.413114	0.401323
C59	C	-3.985112	-0.783195	-0.099265
C60	C	-3.485112	-0.283195	0.400735
C61	C	-4.195968	-0.345685	0.036490
C62	C	-3.695968	0.154315	0.536490
C63	C	-4.137725	-0.346268	0.121185
C64	C	-3.637725	0.153732	0.621185
C65	C	-4.165964	-0.144194	-0.097636
C66	C	-3.665964	0.355806	0.402364
C67	C	-4.088648	-0.016674	-0.098211
C68	C	-3.588648	0.483326	0.401789
H69	H	-4.401863	-0.357702	-0.734097
H70	H	-3.901863	0.142298	-0.234097
O71	O	-4.518657	-0.358171	-0.890014
O72	O	-4.018657	0.141829	-0.390014
H73	H	-4.560602	-0.282431	-0.868432
H74	H	-4.060602	0.217569	-0.368432
O75	O	-3.509215	-0.338173	-0.307931
O76	O	-3.009215	0.161827	0.192069
H77	H	-3.445609	-0.259570	-0.263307
H78	H	-2.945609	0.240430	0.236693
H79	H	-4.224689	-0.360416	-0.333582
H80	H	-3.724689	0.139584	0.166418
O81	O	-3.759570	-0.334324	-0.873872
O82	O	-3.259570	0.165676	-0.373872
H83	H	-3.614448	-0.330634	-0.830137
H84	H	-3.114448	0.169366	-0.330137
O85	O	-3.686382	-0.335442	-0.708454
O86	O	-3.186382	0.164558	-0.208454
H87	H	-3.577569	-0.331159	-0.746792
H88	H	-3.077569	0.168841	-0.246792
O89	O	-3.582385	-0.337052	-0.473344
O90	O	-3.082385	0.162948	0.026656
H91	H	-3.550834	-0.257942	-0.501237
H92	H	-3.050834	0.242058	-0.001237
O93	O	-4.341459	-0.360880	-0.489500
O94	O	-3.841459	0.139120	0.010500
H95	H	-4.450263	-0.365130	-0.451161
H96	H	-3.950263	0.134870	0.048839
