data_functionalizedCrystal
_audit_creation_method	'MofGen! by Chris Wilmer'
_symmetry_space_group_name_H-M	'P1'
_symmetry_Int_Tables_number	1
_symmetry_cell_setting	triclinic
loop_
_symmetry_equiv_pos_as_xyz
  x,y,z
_cell_length_a	12.837942
_cell_length_b	17.699097
_cell_length_c	16.176319
_cell_angle_alpha	89.988988
_cell_angle_beta	89.994101
_cell_angle_gamma	89.058685
loop_
_atom_site_label
_atom_site_type_symbol
_atom_site_fract_x
_atom_site_fract_y
_atom_site_fract_z
O1	O	0.131133	1.013706	-0.068815
O2	O	0.631133	1.513706	0.431185
O3	O	0.148171	0.794581	-0.068802
O4	O	0.648171	1.294581	0.431198
O5	O	-0.011239	0.899285	-0.068803
O6	O	0.488761	1.399285	0.431197
O7	O	0.290543	0.909002	-0.068814
O8	O	0.790543	1.409002	0.431186
O9	O	-0.011249	0.899268	0.068690
O10	O	0.488751	1.399268	0.568690
O11	O	0.148161	0.794564	0.068691
O12	O	0.648161	1.294564	0.568691
O13	O	0.131123	1.013689	0.068678
O14	O	0.631123	1.513689	0.568678
Cu15	Cu	0.139641	0.904125	0.081239
Cu16	Cu	0.639641	1.404125	0.581239
Cu17	Cu	0.139653	0.904145	-0.081363
Cu18	Cu	0.639653	1.404145	0.418637
O19	O	0.290533	0.908985	0.068679
O20	O	0.790533	1.408985	0.568679
C21	C	0.147553	0.766330	-0.000054
C22	C	0.647553	1.266330	0.499946
C23	C	0.145715	0.682178	-0.000049
C24	C	0.645715	1.182178	0.499951
C25	C	0.134451	0.165641	-0.075029
C26	C	0.634451	0.665641	0.424971
C27	C	0.136172	0.244711	-0.075025
C28	C	0.636172	0.744711	0.424975
C29	C	0.137028	0.284231	-0.000074
C30	C	0.637028	0.784231	0.499926
C31	C	0.136153	0.244677	0.074878
C32	C	0.636153	0.744677	0.574878
C33	C	0.134425	0.165608	0.074873
C34	C	0.634425	0.665608	0.574873
C35	C	0.143120	0.563553	0.074899
C36	C	0.643120	1.063553	0.574899
C37	C	0.144851	0.642628	0.074898
C38	C	0.644851	1.142628	0.574898
C39	C	0.144866	0.642656	-0.074999
C40	C	0.644866	1.142656	0.425001
C41	C	0.143138	0.563587	-0.075003
C42	C	0.643138	1.063587	0.424997
C43	C	0.142258	0.524040	-0.000052
C44	C	0.642258	1.024040	0.499948
C45	C	0.140391	0.438303	-0.000058
C46	C	0.640391	0.938303	0.499942
C47	C	0.138903	0.369967	-0.000068
C48	C	0.638903	0.869967	0.499932
C49	C	-0.049856	0.895993	-0.000057
C50	C	0.450144	1.395993	0.499943
C51	C	-0.164909	0.886202	-0.000058
C52	C	0.335091	1.386202	0.499942
C53	C	-0.406156	1.003906	-0.000082
C54	C	0.093844	1.503906	0.499918
C55	C	-0.514260	0.994711	-0.000083
C56	C	-0.014260	1.494711	0.499917
C57	C	-0.489221	0.858616	-0.000066
C58	C	0.010779	1.358616	0.499934
C59	C	-0.381118	0.867811	-0.000065
C60	C	0.118882	1.367811	0.499935
C61	C	-0.339590	0.940459	-0.000072
C62	C	0.160410	1.440459	0.499928
C63	C	-0.231484	0.949654	-0.000065
C64	C	0.268516	1.449654	0.499935
C65	C	-0.206448	0.813560	-0.000054
C66	C	0.293552	1.313560	0.499946
C67	C	-0.314551	0.804364	-0.000055
C68	C	0.185449	1.304364	0.499945
C69	C	0.329151	0.912277	-0.000069
C70	C	0.829151	1.412277	0.499931
C71	C	0.444204	0.922068	-0.000074
C72	C	0.944204	1.422068	0.499926
C73	C	0.131741	1.041940	-0.000072
C74	C	0.631741	1.541940	0.499928
C75	C	0.133580	1.126092	-0.000083
C76	C	0.633580	1.626092	0.499917
N77	N	0.139632	0.904117	0.195604
N78	N	0.639632	1.404117	0.695604
N79	N	0.139654	0.904159	-0.195728
N80	N	0.639654	1.404159	0.304272
C81	C	0.069074	0.950497	0.238867
C82	C	0.569074	1.450497	0.738867
C83	C	0.069073	0.950501	0.325415
C84	C	0.569073	1.450501	0.825415
C85	C	0.139636	0.904128	0.368696
C86	C	0.639636	1.404128	0.868696
C87	C	0.210197	0.857742	0.325427
C88	C	0.710197	1.357742	0.825427
C89	C	0.210192	0.857735	0.238881
C90	C	0.710192	1.357735	0.738881
C91	C	0.210216	0.857769	0.674455
C92	C	0.710216	1.357769	1.174455
C93	C	0.210218	0.857782	0.761007
C94	C	0.710218	1.357782	1.261007
C95	C	0.069097	0.950535	0.760988
C96	C	0.569097	1.450535	1.260988
C97	C	0.069093	0.950528	0.674443
C98	C	0.569093	1.450528	1.174443
C99	C	0.139650	0.904140	0.631181
C100	C	0.639650	1.404140	1.131181
C101	C	0.139649	0.904135	0.537337
C102	C	0.639649	1.404135	1.037337
C103	C	0.139643	0.904136	0.462539
C104	C	0.639643	1.404136	0.962539
H105	H	0.142388	0.531364	0.135929
H106	H	0.642388	1.031364	0.635929
H107	H	0.136844	0.276861	0.135904
H108	H	0.636844	0.776861	0.635904
C109	C	0.287806	0.806720	0.191287
C110	C	0.787806	1.306720	0.691287
H111	H	0.277691	0.813351	0.133546
H112	H	0.777691	1.313351	0.633546
H113	H	0.356967	0.819922	0.205457
H114	H	0.856967	1.319922	0.705457
H115	H	0.276625	0.755403	0.205489
H116	H	0.776625	1.255403	0.705489
C117	C	-0.008547	1.001507	0.191265
C118	C	0.491453	1.501507	0.691265
H119	H	-0.050575	1.029124	0.229430
H120	H	0.449425	1.529124	0.729430
H121	H	0.028679	1.035693	0.157487
H122	H	0.528679	1.535693	0.657487
H123	H	-0.051652	0.971167	0.157520
H124	H	0.448348	1.471167	0.657520
C125	C	-0.008526	1.001554	0.808579
C126	C	0.491474	1.501554	1.308579
H127	H	0.001571	0.994913	0.866321
H128	H	0.501571	1.494913	1.366321
H129	H	0.002647	1.052868	0.794379
H130	H	0.502647	1.552868	1.294379
H131	H	-0.077688	0.988344	0.794403
H132	H	0.422312	1.488344	1.294403
C133	C	0.142192	0.520119	-0.157449
C134	C	0.642192	1.020119	0.342551
H135	H	0.142948	0.554998	-0.202085
H136	H	0.642948	1.054998	0.297915
H137	H	0.201932	0.487859	-0.160571
H138	H	0.701932	0.987859	0.339429
H139	H	0.081093	0.490692	-0.160560
H140	H	0.581093	0.990692	0.339440
C141	C	-0.360234	0.724457	-0.000051
C142	C	0.139766	1.224457	0.499949
H143	H	-0.305103	0.687987	-0.000051
H144	H	0.194897	1.187987	0.499949
H145	H	-0.401897	0.718035	0.047892
H146	H	0.098103	1.218035	0.547892
H147	H	-0.401871	0.718046	-0.048008
H148	H	0.098129	1.218046	0.451992
H149	H	0.133761	0.133469	-0.136063
H150	H	0.633761	0.633469	0.363937
C151	C	0.287816	0.806734	0.373034
C152	C	0.787816	1.306734	0.873034
H153	H	0.277722	0.813386	0.430774
H154	H	0.777722	1.313386	0.930774
H155	H	0.276645	0.755417	0.358871
H156	H	0.776645	1.255417	0.858871
H157	H	0.356977	0.819943	0.358836
H158	H	0.856977	1.319943	0.858836
H159	H	0.267668	0.820000	0.639238
H160	H	0.767668	1.320000	1.139238
C161	C	-0.008531	1.001527	0.373001
C162	C	0.491469	1.501527	0.873001
H163	H	-0.050544	1.029153	0.334829
H164	H	0.449456	1.529153	0.834829
H165	H	-0.051636	0.971206	0.406779
H166	H	0.448364	1.471206	0.906779
H167	H	0.028719	1.035717	0.406745
H168	H	0.528719	1.535717	0.906745
C169	C	-0.008529	1.001536	0.626837
C170	C	0.491471	1.501536	1.126837
H171	H	-0.050559	1.029154	0.664999
H172	H	0.449441	1.529154	1.164999
H173	H	0.028697	1.035721	0.593058
H174	H	0.528697	1.535721	1.093058
H175	H	-0.051632	0.971193	0.593093
H176	H	0.448368	1.471193	1.093093
H177	H	0.136875	0.276909	-0.136054
H178	H	0.636875	0.776909	0.363946
C179	C	0.145825	0.686157	-0.157447
C180	C	0.645825	1.186157	0.342553
H181	H	0.145081	0.651294	-0.202084
H182	H	0.645081	1.151294	0.297916
H183	H	0.086085	0.718416	-0.160566
H184	H	0.586085	1.218416	0.339434
H185	H	0.206923	0.715587	-0.160559
H186	H	0.706923	1.215587	0.339441
C187	C	0.145771	0.686099	0.157348
C188	C	0.645771	1.186099	0.657348
H189	H	0.144986	0.651223	0.201986
H190	H	0.644986	1.151223	0.701986
H191	H	0.206857	0.715532	0.160474
H192	H	0.706857	1.215532	0.660474
H193	H	0.086018	0.718354	0.160452
H194	H	0.586018	1.218354	0.660452
C195	C	-0.587484	1.064500	-0.000095
C196	C	-0.087484	1.564500	0.499905
H197	H	-0.657815	1.048621	-0.000102
H198	H	-0.157815	1.548621	0.499898
H199	H	-0.574921	1.093966	0.047846
H200	H	-0.074921	1.593966	0.547846
H201	H	-0.574901	1.093965	-0.048054
H202	H	-0.074901	1.593965	0.451946
H203	H	0.133727	0.133409	0.135901
H204	H	0.633727	0.633409	0.635901
C205	C	-0.133222	0.743765	-0.000050
C206	C	0.366778	1.243765	0.499950
H207	H	-0.062891	0.759644	-0.000056
H208	H	0.437109	1.259644	0.499944
H209	H	-0.145803	0.714292	0.047897
H210	H	0.354197	1.214292	0.547897
H211	H	-0.145788	0.714307	-0.048003
H212	H	0.354212	1.214307	0.451997
C213	C	0.287821	0.806754	0.808615
C214	C	0.787821	1.306754	1.308615
H215	H	0.329832	0.779117	0.770456
H216	H	0.829832	1.279117	1.270456
H217	H	0.330931	0.837077	0.842368
H218	H	0.830931	1.337077	1.342368
H219	H	0.250564	0.772574	0.842386
H220	H	0.750564	1.272574	1.342386
H221	H	-0.197674	1.008808	-0.000068
H222	H	0.302326	1.508808	0.499932
H223	H	-0.372344	1.063059	-0.000080
H224	H	0.127656	1.563059	0.499920
C225	C	-0.534916	0.778712	-0.000059
C226	C	-0.034916	1.278712	0.499941
H227	H	-0.608832	0.782326	-0.000058
H228	H	-0.108832	1.282326	0.499942
H229	H	-0.512048	0.752260	-0.048000
H230	H	-0.012048	1.252260	0.452000
H231	H	-0.512069	0.752258	0.047900
H232	H	-0.012069	1.252258	0.547900
