data_functionalizedCrystal
_audit_creation_method	'MofGen! by Chris Wilmer'
_symmetry_space_group_name_H-M	'P1'
_symmetry_Int_Tables_number	1
_symmetry_cell_setting	triclinic
loop_
_symmetry_equiv_pos_as_xyz
  x,y,z
_cell_length_a	11.792254
_cell_length_b	12.811438
_cell_length_c	11.295483
_cell_angle_alpha	91.289945
_cell_angle_beta	85.872165
_cell_angle_gamma	95.878452
loop_
_atom_site_label
_atom_site_type_symbol
_atom_site_fract_x
_atom_site_fract_y
_atom_site_fract_z
O1	O	-0.156822	1.389909	0.051107
O2	O	-0.170925	1.086747	0.018363
O3	O	0.001250	1.245678	0.035523
O4	O	-0.328997	1.230977	0.033947
O5	O	-0.013849	1.231719	0.232067
O6	O	-0.186023	1.072787	0.214906
O7	O	-0.171921	1.375950	0.247651
Cu8	Cu	-0.180351	1.223094	0.249224
Cu9	Cu	-0.162495	1.239602	0.016789
O10	O	-0.344096	1.217018	0.230490
C11	C	-0.177220	1.040956	0.112442
C12	C	-0.173469	0.925309	0.099950
C13	C	-0.159952	0.769917	-0.024778
C14	C	-0.163475	0.878577	-0.013051
C15	C	-0.179937	0.863373	0.201233
C16	C	-0.176414	0.754712	0.189506
C17	C	-0.166423	0.707988	0.076496
C18	C	-0.162908	0.599324	0.064770
C19	C	-0.179362	0.584123	0.279053
C20	C	-0.182885	0.692783	0.290780
C21	C	-0.378843	1.224924	0.132320
C22	C	-0.504874	1.227695	0.132623
C23	C	-0.607224	1.229947	0.132860
C24	C	-0.735628	1.232764	0.133150
C25	C	0.035997	1.237773	0.133691
C26	C	0.162029	1.235002	0.133380
C27	C	-0.165626	1.421741	0.153569
C28	C	-0.169376	1.537388	0.166053
N29	N	-0.192909	1.211490	0.412708
N30	N	-0.149927	1.251214	-0.146694
C31	C	-0.059461	1.334744	0.675306
C32	C	-0.068960	1.325982	0.799023
C33	C	-0.221399	1.185201	0.783862
C34	C	-0.211901	1.193963	0.660145
C35	C	-0.130930	1.268738	0.605871
C36	C	-0.121438	1.277503	0.482152
C37	C	-0.273871	1.136718	0.466993
C38	C	-0.283369	1.127956	0.590710
H39	H	-0.158206	0.928996	-0.095520
H40	H	-0.151830	0.731872	-0.116795
H41	H	-0.154779	0.561283	-0.027248
O42	O	-0.343346	1.072748	0.399432
C43	C	-0.408661	1.134004	0.333961
H44	H	-0.363134	1.216563	0.324176
H45	H	-0.496301	1.138188	0.382472
C46	C	-0.479035	0.982342	0.222150
C47	C	-0.423113	1.083739	0.210123
H48	H	-0.487956	0.951335	0.145763
H49	H	-0.435035	0.941071	0.266262
H50	H	-0.552063	0.985842	0.262580
H51	H	-0.350082	1.080236	0.169707
H52	H	-0.467101	1.125008	0.166002
H53	H	-0.010762	1.379730	0.855554
O54	O	-0.189482	0.908913	0.310937
C55	C	-0.093905	0.982525	0.325340
H56	H	-0.054585	1.009136	0.234473
H57	H	-0.027928	0.944767	0.374547
C58	C	-0.180037	1.045312	0.508955
C59	C	-0.131748	1.078002	0.397350
H60	H	-0.203377	1.104205	0.553378
H61	H	-0.244427	0.995715	0.499255
H62	H	-0.125048	1.013846	0.549946
H63	H	-0.186741	1.109455	0.356356
H64	H	-0.067367	1.127606	0.407045
O65	O	-0.042683	1.349977	0.429305
C66	C	0.033605	1.298819	0.351740
H67	H	-0.009112	1.218908	0.324428
H68	H	0.113891	1.287830	0.398643
C69	C	0.118655	1.463877	0.274094
C70	C	0.066185	1.365731	0.240540
H71	H	0.138757	1.505152	0.205503
H72	H	0.067262	1.498344	0.326354
H73	H	0.185553	1.454705	0.313181
H74	H	-0.000719	1.374903	0.201468
H75	H	0.117568	1.331267	0.188271
O76	O	-0.299916	1.112422	0.836533
C77	C	-0.277743	1.011354	0.795153
H78	H	-0.184253	1.012750	0.761005
H79	H	-0.334741	0.986192	0.720100
C80	C	-0.417646	0.931341	0.939403
C81	C	-0.302817	0.933054	0.897472
H82	H	-0.433116	0.883040	1.002515
H83	H	-0.432587	0.999433	0.967279
H84	H	-0.465130	0.910376	0.876849
H85	H	-0.255335	0.954031	0.960021
H86	H	-0.287868	0.864964	0.869608
H87	H	-0.191014	0.730842	0.382789
H88	H	0.006461	1.395635	0.631116
O89	O	-0.185433	0.523948	0.377411
C90	C	-0.085814	0.471857	0.378234
H91	H	-0.013650	0.516766	0.321806
H92	H	-0.103112	0.389003	0.340298
C93	C	-0.139741	0.411054	0.575909
C94	C	-0.051106	0.466217	0.506611
H95	H	-0.118333	0.407570	0.655097
H96	H	-0.206859	0.446145	0.575353
H97	H	-0.154147	0.342015	0.544281
H98	H	-0.036710	0.535258	0.538229
H99	H	0.016016	0.431136	0.507174
O100	O	-0.362044	1.055234	0.643243
C101	C	-0.423109	0.998873	0.555425
H102	H	-0.369788	1.003682	0.467075
H103	H	-0.506881	1.034105	0.545975
C104	C	-0.514165	0.877313	0.700125
C105	C	-0.448672	0.883212	0.591614
H106	H	-0.529939	0.805969	0.722448
H107	H	-0.473029	0.915287	0.759290
H108	H	-0.583968	0.906679	0.692235
H109	H	-0.378865	0.853859	0.599509
H110	H	-0.489797	0.845231	0.532450
