data_functionalizedCrystal
_audit_creation_method	'MofGen! by Chris Wilmer'
_symmetry_space_group_name_H-M	'P1'
_symmetry_Int_Tables_number	1
_symmetry_cell_setting	triclinic
loop_
_symmetry_equiv_pos_as_xyz
  x,y,z
_cell_length_a	23.532407
_cell_length_b	17.038272
_cell_length_c	15.500227
_cell_angle_alpha	86.952609
_cell_angle_beta	92.805592
_cell_angle_gamma	86.980117
loop_
_atom_site_label
_atom_site_type_symbol
_atom_site_fract_x
_atom_site_fract_y
_atom_site_fract_z
O1	O	0.121157	1.040106	-0.071925
O2	O	0.119194	0.812491	-0.071934
O3	O	0.037605	0.933161	-0.071913
O4	O	0.202746	0.919435	-0.071945
O5	O	0.042535	0.925839	0.071974
O6	O	0.124124	0.805168	0.071954
O7	O	0.126087	1.032784	0.071963
Cu8	Cu	0.125556	0.918307	0.085096
Cu9	Cu	0.119725	0.926967	-0.085067
O10	O	0.207676	0.912113	0.071942
C11	C	0.119873	0.779714	0.000009
C12	C	0.114547	0.692961	0.000006
C13	C	0.018836	0.929150	0.000033
C14	C	-0.044436	0.928099	0.000040
N15	N	0.129656	0.912222	0.204780
C16	C	-0.440133	0.992920	-0.000005
C17	C	-0.499585	0.991944	-0.000012
O18	O	-0.533172	1.052034	-0.000042
N19	N	-0.525983	0.920205	-0.000014
C20	C	-0.492926	0.849438	-0.000019
O21	O	-0.520838	0.788328	-0.000022
C22	C	-0.433475	0.850415	-0.000018
C23	C	-0.407081	0.922158	-0.000007
C24	C	-0.413738	1.064658	0.000005
C25	C	-0.354291	1.065634	0.000013
C26	C	-0.321238	0.994872	0.000011
C27	C	-0.347633	0.923134	0.000001
C28	C	-0.400420	0.779649	-0.000029
C29	C	-0.340965	0.780632	-0.000029
C30	C	-0.314571	0.852375	-0.000018
C31	C	-0.255132	0.853347	0.000007
N32	N	-0.228735	0.925087	0.000010
C33	C	-0.261787	0.995849	0.000011
C34	C	-0.617776	0.847391	-0.000021
C35	C	-0.677225	0.846413	-0.000015
C36	C	-0.683880	0.988920	-0.000010
C37	C	-0.624430	0.989897	-0.000010
C38	C	-0.591378	0.919130	-0.000019
C39	C	-0.136943	0.997892	0.000030
C40	C	-0.077489	0.998861	0.000041
C41	C	-0.070839	0.856355	0.000032
C42	C	-0.130287	0.855385	0.000025
C43	C	-0.163338	0.926160	0.000020
O44	O	-0.221510	0.793290	0.000033
O45	O	-0.233868	1.056949	0.000003
C46	C	0.226445	0.916124	-0.000006
C47	C	0.289717	0.917176	-0.000018
C48	C	0.125407	1.065560	0.000018
C49	C	0.130734	1.152314	0.000015
C50	C	0.081829	1.202790	0.000022
C51	C	0.086838	1.284303	0.000024
C52	C	0.140751	1.315339	0.000013
C53	C	0.189659	1.264857	0.000009
C54	C	0.184650	1.183344	0.000013
C55	C	0.158446	1.560966	0.000006
C56	C	0.163451	1.642485	-0.000000
C57	C	0.060629	1.661926	0.000016
C58	C	0.055625	1.580412	0.000015
C59	C	0.104533	1.529936	0.000015
C60	C	0.145872	1.398659	0.000013
C61	C	0.099413	1.446618	0.000022
N62	N	0.115620	0.933058	-0.204751
C63	C	0.095099	0.963372	0.250066
C64	C	0.098206	0.958777	0.340638
C65	C	0.135874	0.903036	0.385923
C66	C	0.170432	0.851880	0.340631
C67	C	0.167322	0.856472	0.250061
C68	C	0.147069	0.886495	0.659387
C69	C	0.150178	0.881908	0.749964
C70	C	0.077950	0.988805	0.749964
C71	C	0.074845	0.993395	0.659392
C72	C	0.109402	0.942237	0.614108
C73	C	0.139052	0.898339	0.478502
C74	C	0.106221	0.946930	0.521530
H75	H	-0.056002	1.057286	0.000052
H76	H	0.055516	1.421345	0.000021
H77	H	0.011723	1.555149	0.000024
H78	H	0.037927	1.177528	0.000025
H79	H	0.075549	0.992312	0.484657
H80	H	0.180853	0.836514	0.786830
O81	O	0.184344	0.831327	0.610549
H82	H	0.211064	0.791804	0.657257
H83	H	0.201100	0.806490	0.377507
H84	H	0.207356	1.667750	0.000004
O85	O	-0.035185	0.780034	0.000029
H86	H	0.010588	0.792773	0.000026
H87	H	0.195462	0.814819	0.213190
H88	H	0.049815	1.030455	0.786842
H89	H	0.169723	0.852955	0.515380
O90	O	-0.158761	0.778007	0.000030
H91	H	-0.187691	0.777138	-0.058618
H92	H	-0.314057	0.723004	-0.000038
H93	H	0.047014	1.325398	0.000033
H94	H	-0.163846	1.055524	0.000023
O95	O	-0.428879	0.702267	-0.000040
H96	H	-0.417873	0.671284	-0.058694
O97	O	-0.595966	1.067279	-0.000015
H98	H	-0.606973	1.098279	0.058627
O99	O	-0.582127	0.771059	-0.000008
H100	H	-0.610475	0.721015	0.000002
H101	H	0.198271	1.519878	0.000002
O102	O	-0.325831	1.143019	0.000000
H103	H	-0.336841	1.174024	0.058638
O104	O	-0.449384	1.140986	0.000019
H105	H	-0.421032	1.191025	0.000035
H106	H	0.020811	1.703031	0.000017
O107	O	0.247811	1.298325	-0.000002
H108	H	0.243078	1.363486	-0.000013
H109	H	-0.710803	1.046539	-0.000012
H110	H	0.224474	1.142247	0.000011
H111	H	0.189768	1.423938	0.000002
H112	H	0.070066	1.000427	0.377509
H113	H	0.044173	1.038784	0.622523
O114	O	-0.705692	0.769033	-0.000016
H115	H	-0.672715	0.719996	-0.000020
O116	O	0.054469	1.023491	0.201223
H117	H	0.030957	1.058280	0.247933
