data_functionalizedCrystal
_audit_creation_method	'MofGen! by Chris Wilmer'
_symmetry_space_group_name_H-M	'P1'
_symmetry_Int_Tables_number	1
_symmetry_cell_setting	triclinic
loop_
_symmetry_equiv_pos_as_xyz
  x,y,z
_cell_length_a	12.759395
_cell_length_b	12.759394
_cell_length_c	11.169409
_cell_angle_alpha	89.965476
_cell_angle_beta	89.978697
_cell_angle_gamma	90.015598
loop_
_atom_site_label
_atom_site_type_symbol
_atom_site_fract_x
_atom_site_fract_y
_atom_site_fract_z
Zn1	Zn	1.606271	-0.418160	-0.678572
Zn2	Zn	1.606160	-0.593886	-0.477881
Zn3	Zn	1.430568	-0.418224	-0.477901
Zn4	Zn	1.430561	-0.593800	-0.678521
O5	O	1.518390	-0.506017	-0.578219
O6	O	1.753277	-0.441480	-0.651963
O7	O	1.582824	-0.570646	-0.309934
O8	O	1.453925	-0.271194	-0.504550
O9	O	1.753196	-0.570585	-0.504516
O10	O	1.583013	-0.271147	-0.651982
O11	O	1.453817	-0.441588	-0.309949
O12	O	1.283546	-0.441505	-0.504501
O13	O	1.453912	-0.570438	-0.846477
O14	O	1.283541	-0.570500	-0.651895
O15	O	1.583006	-0.441396	-0.846515
O16	O	1.582817	-0.740896	-0.504467
O17	O	1.453805	-0.740832	-0.651876
C18	C	1.245422	-0.506001	-0.578195
C19	C	1.128646	-0.506019	-0.578214
C20	C	0.909295	-0.371822	-0.732038
C21	C	0.964204	-0.304702	-0.808916
C22	C	1.073926	-0.304684	-0.808895
C23	C	1.128741	-0.371796	-0.731990
C24	C	1.073833	-0.438917	-0.655112
C25	C	0.964108	-0.438925	-0.655139
C26	C	1.073737	-0.573140	-0.501336
C27	C	0.964015	-0.573154	-0.501349
C28	C	1.128553	-0.640252	-0.424431
C29	C	1.073644	-0.707369	-0.347546
C30	C	0.963916	-0.707384	-0.347569
C31	C	0.909107	-0.640275	-0.424471
C32	C	1.518327	-0.778985	-0.578190
C33	C	1.518396	-0.895762	-0.578217
C34	C	1.652837	-0.895774	-0.424835
C35	C	1.720085	-0.950641	-0.348158
C36	C	1.720146	-1.060362	-0.348191
C37	C	1.652955	-1.115220	-0.424911
C38	C	1.585707	-1.060353	-0.501588
C39	C	1.585651	-0.950629	-0.501545
C40	C	1.451273	-1.060340	-0.654975
C41	C	1.451204	-0.950619	-0.654938
C42	C	1.384082	-1.115197	-0.731695
C43	C	1.316827	-1.060330	-0.808368
C44	C	1.316767	-0.950602	-0.808331
C45	C	1.383957	-0.895752	-0.731615
C46	C	1.792423	-0.506035	-0.578243
C47	C	1.909200	-0.506042	-0.578253
C48	C	1.518470	-0.505901	-0.891261
C49	C	1.518505	-0.505851	-1.024661
C50	C	1.518482	-0.231984	-0.578274
C51	C	1.518521	-0.115207	-0.578298
C52	C	1.518370	-0.506058	-0.266394
C53	C	1.518539	-0.505812	-0.132995
H54	H	0.819766	-0.640267	-0.424482
H55	H	1.218082	-0.371785	-0.731991
C56	C	1.242927	-1.120672	-0.892756
C57	C	1.243002	-1.241362	-0.892804
C58	C	1.169101	-1.301708	-0.977193
C59	C	1.095124	-1.241365	-1.061535
C60	C	1.095046	-1.120668	-1.061489
C61	C	1.168948	-1.060322	-0.977100
H62	H	1.297767	-1.286038	-0.830367
H63	H	1.169159	-1.391056	-0.977226
H64	H	1.040418	-1.286037	-1.124005
H65	H	1.040282	-1.075992	-1.123927
H66	H	1.168889	-0.970974	-0.977067
C67	C	0.903520	-0.781219	-0.263000
C68	C	0.963819	-0.855033	-0.178415
C69	C	0.903428	-0.928869	-0.093844
C70	C	0.782738	-0.928892	-0.093858
C71	C	0.722432	-0.855076	-0.178445
C72	C	0.782823	-0.781239	-0.263016
H73	H	1.053167	-0.855018	-0.178403
H74	H	0.948071	-0.983513	-0.031227
H75	H	0.738033	-0.983551	-0.031253
H76	H	0.633084	-0.855091	-0.178458
H77	H	0.738180	-0.726595	-0.325633
H78	H	1.217894	-0.640239	-0.424427
H79	H	1.652780	-0.806433	-0.424785
C80	C	1.242792	-0.890252	-0.892678
C81	C	1.123368	-0.905449	-0.882783
C82	C	1.049391	-0.845102	-0.967132
C83	C	1.094837	-0.769559	-1.061375
C84	C	1.214267	-0.754359	-1.071274
C85	C	1.288244	-0.814705	-0.986925
H86	H	1.089720	-0.961373	-0.813016
H87	H	0.960981	-0.856355	-0.959804
H88	H	1.040075	-0.724888	-1.123815
H89	H	1.247915	-0.698435	-1.141041
H90	H	1.376654	-0.803453	-0.994253
H91	H	0.819954	-0.371807	-0.732036
H92	H	0.919561	-0.250063	-0.871532
H93	H	1.118632	-0.250030	-0.871497
H94	H	1.653020	-1.204561	-0.424941
H95	H	1.118283	-0.762012	-0.284942
H96	H	1.774794	-0.905967	-0.285695
C97	C	1.794115	-1.120723	-0.263845
C98	C	1.868023	-1.060393	-0.179457
C99	C	1.941990	-1.120754	-0.095110
C100	C	1.942049	-1.241444	-0.095152
C101	C	1.868139	-1.301780	-0.179543
C102	C	1.794172	-1.241420	-0.263890
H103	H	1.867981	-0.971045	-0.179423
H104	H	1.996703	-1.076088	-0.032638
H105	H	1.996804	-1.286126	-0.032714
H106	H	1.868181	-1.391128	-0.179577
H107	H	1.739459	-1.286085	-0.326362
H108	H	1.384141	-1.204539	-0.731721
H109	H	1.383908	-0.806411	-0.731570
