data_functionalizedCrystal
_audit_creation_method	'MofGen! by Chris Wilmer'
_symmetry_space_group_name_H-M	'P1'
_symmetry_Int_Tables_number	1
_symmetry_cell_setting	triclinic
loop_
_symmetry_equiv_pos_as_xyz
  x,y,z
_cell_length_a	16.109301
_cell_length_b	9.730223
_cell_length_c	16.109296
_cell_angle_alpha	89.994600
_cell_angle_beta	96.539474
_cell_angle_gamma	90.002516
loop_
_atom_site_label
_atom_site_type_symbol
_atom_site_fract_x
_atom_site_fract_y
_atom_site_fract_z
O1	O	1.103125	-0.114182	-0.106864
O2	O	0.861063	-0.114201	-0.120163
O3	O	0.988746	-0.114206	0.007518
O4	O	0.975443	-0.114178	-0.234545
O5	O	0.988744	0.114374	0.007515
O6	O	0.861062	0.114378	-0.120166
O7	O	1.103124	0.114398	-0.106867
Zn8	Zn	0.982092	0.150680	-0.113517
Zn9	Zn	0.982094	-0.150484	-0.113513
O10	O	0.975441	0.114402	-0.234548
C11	C	0.830088	0.000086	-0.119626
C12	C	0.737792	0.000077	-0.118011
N13	N	0.982097	0.356216	-0.113520
C14	C	0.988207	0.000078	0.038491
C15	C	0.986593	0.000058	0.130787
C16	C	0.515519	0.000101	-0.190019
C17	C	0.428798	0.000110	-0.188495
C18	C	0.448675	0.000087	-0.037006
C19	C	0.535394	0.000088	-0.038531
C20	C	0.568813	0.000088	-0.115040
C21	C	0.395374	0.000096	-0.111991
C22	C	0.301348	0.000105	-0.110338
C23	C	0.662845	0.000082	-0.116693
C24	C	1.134099	0.000108	-0.107404
C25	C	1.226395	0.000107	-0.109019
N26	N	0.982096	-0.356020	-0.113504
C27	C	1.038650	0.428141	-0.057001
C28	C	1.038647	0.572024	-0.056991
C29	C	0.925538	0.572046	-0.170025
C30	C	0.925537	0.428165	-0.170030
C31	C	1.103955	0.428129	0.008255
C32	C	1.103953	0.572012	0.008265
C33	C	0.981328	-0.124524	0.429857
C34	C	0.982856	-0.124531	0.343137
C35	C	0.982866	0.124680	0.343120
C36	C	0.981345	0.124685	0.429839
C37	C	0.980572	0.000078	0.473205
C38	C	0.983621	0.000067	0.299766
C39	C	0.985277	0.000061	0.205740
C40	C	0.978917	0.000084	0.567237
C41	C	0.975981	0.000106	0.734479
C42	C	0.977599	0.000088	0.642184
H43	H	0.542725	0.000112	-0.252317
F44	F	1.182616	0.369802	-0.017514
F45	F	0.983685	0.257287	0.296959
H46	H	0.980731	0.226157	0.465133
H47	H	0.879480	0.369606	-0.216044
H48	H	0.879487	0.630642	-0.216034
F49	F	1.078253	0.630324	0.086962
H50	H	1.167719	0.611070	-0.005407
F51	F	0.592118	0.000083	0.041277
H52	H	1.090334	0.389066	0.072036
F53	F	0.980509	-0.257141	0.476008
F54	F	0.413100	0.000081	0.044416
F55	F	0.372082	0.000126	-0.268298
F56	F	0.983664	-0.257150	0.297008
