data_functionalizedCrystal
_audit_creation_method	'MofGen! by Chris Wilmer'
_symmetry_space_group_name_H-M	'P1'
_symmetry_Int_Tables_number	1
_symmetry_cell_setting	triclinic
loop_
_symmetry_equiv_pos_as_xyz
  x,y,z
_cell_length_a	11.792241
_cell_length_b	14.971486
_cell_length_c	14.048226
_cell_angle_alpha	89.998499
_cell_angle_beta	90.001436
_cell_angle_gamma	96.096228
loop_
_atom_site_label
_atom_site_type_symbol
_atom_site_fract_x
_atom_site_fract_y
_atom_site_fract_z
O1	O	-0.147909	1.187540	-0.079040
O2	O	0.352091	1.687540	0.420960
O3	O	-0.165622	0.927210	-0.079065
O4	O	0.334378	1.427210	0.420935
O5	O	0.008446	1.063692	-0.079058
O6	O	0.508446	1.563692	0.420942
O7	O	-0.321977	1.051058	-0.079048
O8	O	0.178023	1.551058	0.420952
O9	O	0.008456	1.063676	0.079264
O10	O	0.508456	1.563676	0.579264
O11	O	-0.165611	0.927194	0.079256
O12	O	0.334389	1.427194	0.579256
O13	O	-0.147899	1.187523	0.079281
O14	O	0.352101	1.687523	0.579281
Zn15	Zn	-0.156753	1.057356	0.104406
Zn16	Zn	0.343247	1.557356	0.604406
Zn17	Zn	-0.156767	1.057378	-0.104190
Zn18	Zn	0.343233	1.557378	0.395810
O19	O	-0.321966	1.051041	0.079274
O20	O	0.178034	1.551041	0.579274
C21	C	-0.164824	0.893874	0.000092
C22	C	0.335176	1.393874	0.500092
C23	C	-0.162451	0.794568	0.000082
C24	C	0.337549	1.294568	0.500082
C25	C	-0.264710	0.737752	0.000087
C26	C	0.235290	1.237752	0.500087
C27	C	-0.262473	0.644444	0.000101
C28	C	0.237527	1.144444	0.500101
C29	C	-0.157975	0.607953	0.000104
C30	C	0.342025	1.107953	0.500104
C31	C	-0.055707	0.664776	0.000102
C32	C	0.444293	1.164776	0.500102
C33	C	-0.057946	0.758082	0.000095
C34	C	0.442054	1.258082	0.500095
C35	C	-0.051049	0.470294	0.000115
C36	C	0.448951	0.970294	0.500115
C37	C	-0.048810	0.376981	0.000121
C38	C	0.451190	0.876981	0.500121
C39	C	-0.255577	0.356656	0.000121
C40	C	0.244423	0.856656	0.500121
C41	C	-0.257815	0.449962	0.000114
C42	C	0.242185	0.949962	0.500114
C43	C	-0.155547	0.506779	0.000111
C44	C	0.344453	1.006779	0.500111
C45	C	-0.364257	1.051843	0.000115
C46	C	0.135743	1.551843	0.500115
C47	C	-0.490256	1.054218	0.000119
C48	C	0.009744	1.554218	0.500119
C49	C	-0.720940	1.058587	0.000095
C50	C	-0.220940	1.558587	0.500095
C51	C	-0.592570	1.056160	0.000108
C52	C	-0.092570	1.556160	0.500108
C53	C	0.050737	1.062891	0.000099
C54	C	0.550737	1.562891	0.500099
C55	C	0.176735	1.060515	0.000089
C56	C	0.676735	1.560515	0.500089
C57	C	-0.148696	1.220859	0.000122
C58	C	0.351304	1.720859	0.500122
C59	C	-0.151070	1.320166	0.000125
C60	C	0.348930	1.820166	0.500125
N61	N	-0.156744	1.057347	0.246766
N62	N	0.343256	1.557347	0.746766
N63	N	-0.156768	1.057393	-0.246550
N64	N	0.343232	1.557393	0.253450
C65	C	-0.079698	1.117801	0.296588
C66	C	0.420302	1.617801	0.796588
C67	C	-0.079698	1.117807	0.396245
C68	C	0.420302	1.617807	0.896245
C69	C	-0.156749	1.057363	0.446080
C70	C	0.343251	1.557363	0.946080
C71	C	-0.233797	0.996903	0.396252
C72	C	0.266203	1.496903	0.896252
C73	C	-0.233792	0.996894	0.296596
C74	C	0.266208	1.496894	0.796596
C75	C	-0.233806	0.996929	0.603966
C76	C	0.266194	1.496929	1.103966
C77	C	-0.233813	0.996940	0.703629
C78	C	0.266187	1.496940	1.203629
C79	C	-0.079712	1.117843	0.703615
C80	C	0.420288	1.617843	1.203615
C81	C	-0.079706	1.117833	0.603959
C82	C	0.420294	1.617833	1.103959
C83	C	-0.156757	1.057374	0.554138
C84	C	0.343243	1.557374	1.054138
H85	H	0.032229	0.516553	0.000114
H86	H	0.532229	1.016553	0.500114
F87	F	-0.315791	0.932548	0.243574
F88	F	0.184209	1.432548	0.743574
H89	H	-0.016959	1.167025	0.256019
H90	H	0.483041	1.667025	0.756019
H91	H	-0.349805	0.767455	0.000084
H92	H	0.150195	1.267455	0.500084
H93	H	-0.296545	0.947694	0.563405
H94	H	0.203455	1.447694	1.063405
H95	H	0.025325	0.804341	0.000091
H96	H	0.525325	1.304341	0.500091
H97	H	-0.016971	1.167055	0.563384
H98	H	0.483029	1.667055	1.063384
F99	F	0.002303	1.182147	0.449269
F100	F	0.502303	1.682147	0.949269
H101	H	-0.345744	0.598187	0.000104
H102	H	0.154256	1.098187	0.500104
H103	H	-0.342907	0.479670	0.000103
H104	H	0.157093	0.979670	0.500103
H105	H	-0.296555	0.947719	0.744199
H106	H	0.203445	1.447719	1.244199
F107	F	-0.364419	0.296187	0.000127
F108	F	0.135581	0.796187	0.500127
F109	F	0.062408	0.338147	0.000148
F110	F	0.562408	0.838147	0.500148
F111	F	0.055508	0.625937	0.000111
F112	F	0.555508	1.125937	0.500111
H113	H	-0.016974	1.167070	0.744186
H114	H	0.483026	1.667070	1.244186
H115	H	-0.296530	0.947684	0.436833
H116	H	0.203470	1.447684	0.936833
