data_functionalizedCrystal
_audit_creation_method	'MofGen! by Chris Wilmer'
_symmetry_space_group_name_H-M	'P1'
_symmetry_Int_Tables_number	1
_symmetry_cell_setting	triclinic
loop_
_symmetry_equiv_pos_as_xyz
  x,y,z
_cell_length_a	18.101398
_cell_length_b	18.101395
_cell_length_c	18.101389
_cell_angle_alpha	89.983159
_cell_angle_beta	90.009745
_cell_angle_gamma	89.973339
loop_
_atom_site_label
_atom_site_type_symbol
_atom_site_fract_x
_atom_site_fract_y
_atom_site_fract_z
Zn1	Zn	1.132121	0.294995	0.418559
Zn2	Zn	1.632121	0.794995	0.918559
Zn3	Zn	1.132017	0.418821	0.294721
Zn4	Zn	1.632017	0.918821	0.794721
Zn5	Zn	1.008280	0.294988	0.294751
Zn6	Zn	1.508280	0.794988	0.794751
Zn7	Zn	1.008231	0.418790	0.418541
Zn8	Zn	1.508231	0.918790	0.918541
O9	O	1.070162	0.356898	0.356643
O10	O	1.570162	0.856898	0.856643
O11	O	1.235740	0.311437	0.402126
O12	O	1.735740	0.811437	0.902126
O13	O	1.115580	0.402404	0.191092
O14	O	1.615580	0.902404	0.691092
O15	O	1.024772	0.191356	0.311195
O16	O	1.524772	0.691356	0.811195
O17	O	1.235663	0.402411	0.311143
O18	O	1.735663	0.902411	0.811143
O19	O	1.115757	0.191361	0.402156
O20	O	1.615757	0.691361	0.902156
O21	O	1.024671	0.311425	0.191114
O22	O	1.524671	0.811425	0.691114
O23	O	0.904640	0.311395	0.311178
O24	O	1.404640	0.811395	0.811178
O25	O	1.024688	0.402358	0.522176
O26	O	1.524688	0.902358	1.022176
O27	O	0.904604	0.402351	0.402125
O28	O	1.404604	0.902351	0.902125
O29	O	1.115710	0.311407	0.522189
O30	O	1.615710	0.811407	1.022189
O31	O	1.115532	0.522450	0.311125
O32	O	1.615532	1.022450	0.811125
O33	O	1.024587	0.522427	0.402095
O34	O	1.524587	1.022427	0.902095
C35	C	0.877751	0.356869	0.356653
C36	C	1.377751	0.856869	0.856653
C37	C	0.795437	0.356875	0.356675
C38	C	1.295437	0.856875	0.856675
C39	C	0.496346	0.356918	0.356644
C40	C	0.996346	0.856918	0.856644
C41	C	0.527674	0.414422	0.413583
C42	C	1.027674	0.914422	0.913583
C43	C	0.613292	0.414242	0.413817
C44	C	1.113292	0.914242	0.913817
C45	C	0.644729	0.356897	0.356660
C46	C	1.144729	0.856897	0.856660
C47	C	0.613675	0.278899	0.377985
C48	C	1.113675	0.778899	0.877985
C49	C	0.528029	0.279244	0.378390
C50	C	1.028029	0.779244	0.878390
C51	C	0.527894	0.376725	0.278242
C52	C	1.027894	0.876725	0.778242
C53	C	0.613544	0.378437	0.278661
C54	C	1.113544	0.878437	0.778661
C55	C	0.728588	0.356881	0.356667
C56	C	1.228588	0.856881	0.856667
C57	C	0.412487	0.356930	0.356639
C58	C	0.912487	0.856930	0.856639
C59	C	1.070063	0.549309	0.356621
C60	C	1.570063	1.049309	0.856621
C61	C	1.070088	0.631623	0.356637
C62	C	1.570088	1.131623	0.856637
C63	C	1.070205	0.356880	0.549805
C64	C	1.570205	0.856880	1.049805
C65	C	1.070223	0.356872	0.632119
C66	C	1.570223	0.856872	1.132119
C67	C	1.263324	0.356928	0.356633
C68	C	1.763324	0.856928	0.856633
C69	C	1.345638	0.356941	0.356629
C70	C	1.845638	0.856941	0.856629
C71	C	1.070282	0.163736	0.356681
C72	C	1.570282	0.663736	0.856681
C73	C	1.070333	0.081422	0.356697
C74	C	1.570333	0.581422	0.856697
C75	C	1.070251	0.930714	0.356676
C76	C	1.570251	1.430714	0.856676
C77	C	1.013163	0.899405	0.414054
C78	C	1.513163	1.399405	0.914054
C79	C	1.012892	0.813787	0.413875
C80	C	1.512892	1.313787	0.913875
C81	C	1.070170	0.782331	0.356657
C82	C	1.570170	1.282331	0.856657
C83	C	1.049041	0.813467	0.278611
C84	C	1.549041	1.313467	0.778611
C85	C	1.048673	0.899112	0.278955
C86	C	1.548673	1.399112	0.778955
C87	C	1.148592	0.899067	0.376658
C88	C	1.648592	1.399067	0.876658
C89	C	1.148132	0.813417	0.378369
C90	C	1.648132	1.313417	0.878369
C91	C	1.070126	0.698472	0.356642
C92	C	1.570126	1.198472	0.856642
C93	C	1.070293	1.014573	0.356687
C94	C	1.570293	1.514573	0.856687
C95	C	1.070162	0.356864	0.164232
C96	C	1.570162	0.856864	0.664232
C97	C	1.070287	0.356663	0.081919
C98	C	1.570287	0.856663	0.581919
C99	C	1.070266	0.356733	0.931210
C100	C	1.570266	0.856733	1.431210
C101	C	1.012801	0.413775	0.899877
C102	C	1.512801	0.913775	1.399877
C103	C	1.012956	0.414040	0.814258
C104	C	1.512956	0.914040	1.314258
C105	C	1.070244	0.356802	0.782827
C106	C	1.570244	0.856802	1.282827
C107	C	1.148270	0.377992	0.813914
C108	C	1.648270	0.877992	1.313914
C109	C	1.147949	0.378366	0.899559
C110	C	1.647949	0.878366	1.399559
C111	C	1.050385	0.278374	0.899637
C112	C	1.550385	0.778374	1.399637
C113	C	1.048649	0.278826	0.813987
C114	C	1.548649	0.778826	1.313987
C115	C	1.070236	0.356839	0.698968
C116	C	1.570236	0.856839	1.198968
C117	C	1.070279	0.356697	1.015070
C118	C	1.570279	0.856697	1.515070
H119	H	0.634944	0.339594	0.233959
H120	H	1.134944	0.839594	0.733959
H121	H	1.165415	0.434665	0.792469
H122	H	1.665415	0.934665	1.292469
O123	O	1.206513	0.324699	0.786937
O124	O	1.706513	0.824699	1.286937
H125	H	1.192549	0.268010	0.805672
H126	H	1.692549	0.768010	1.305672
O127	O	1.205008	0.925878	0.321376
O128	O	1.705008	1.425878	0.821376
H129	H	1.248367	0.957984	0.350490
H130	H	1.748367	1.457984	0.850490
H131	H	0.633794	0.401138	0.471908
H132	H	1.133794	0.901138	0.971908
H133	H	0.955448	0.920985	0.400987
H134	H	1.455448	1.420985	0.900987
O135	O	0.640475	0.454451	0.257356
O136	O	1.140475	0.954451	0.757356
H137	H	0.621214	0.495286	0.298840
H138	H	1.121214	0.995286	0.798840
O139	O	0.935924	0.396386	0.927152
O140	O	1.435924	0.896386	1.427152
H141	H	0.914245	0.444159	0.958894
H142	H	1.414245	0.944159	1.458894
O143	O	0.973986	0.785135	0.255785
O144	O	1.473986	1.285135	0.755785
H145	H	0.959662	0.807527	0.200516
H146	H	1.459662	1.307527	0.700516
H147	H	1.192915	0.792001	0.339623
H148	H	1.692915	1.292001	0.839623
O149	O	1.169249	0.786461	0.454450
O150	O	1.669249	1.286461	0.954450
H151	H	1.221150	0.753976	0.450922
H152	H	1.721150	1.253976	0.950922
O153	O	0.936323	0.396451	0.786407
O154	O	1.436323	0.896451	1.286407
H155	H	0.898817	0.387685	0.834111
H156	H	1.398817	0.887685	1.334111
H157	H	1.025796	0.471503	0.921400
H158	H	1.525796	0.971503	1.421400
H159	H	1.026082	0.472122	0.793774
H160	H	1.526082	0.972122	1.293774
O161	O	0.641107	0.490859	0.396117
O162	O	1.141107	0.990859	0.896117
H163	H	0.675060	0.511491	0.442816
H164	H	1.175060	1.011491	0.942816
H165	H	1.167856	0.920627	0.432598
H166	H	1.667856	1.420627	0.932598
O167	O	1.170262	0.454243	0.926035
O168	O	1.670262	0.954243	1.426035
H169	H	1.181176	0.490324	0.877668
H170	H	1.681176	0.990324	1.377668
H171	H	1.026111	0.792735	0.471746
H172	H	1.526111	1.292735	0.971746
O173	O	1.206595	0.325739	0.927026
O174	O	1.706595	0.825739	1.427026
H175	H	1.235063	0.300138	0.879134
H176	H	1.735063	0.800138	1.379134
H177	H	0.994478	0.259069	0.921237
H178	H	1.494478	0.759069	1.421237
O179	O	1.030225	0.926993	0.490895
O180	O	1.530225	1.426993	0.990895
H181	H	1.079610	0.963269	0.489024
H182	H	1.579610	1.463269	0.989024
H183	H	1.089313	0.793092	0.234695
H184	H	1.589313	1.293092	0.734695
O185	O	0.499258	0.450768	0.252556
O186	O	0.999258	0.950768	0.752556
H187	H	0.516426	0.494157	0.292319
H188	H	1.016426	0.994157	0.792319
O189	O	0.972597	0.257643	0.787065
O190	O	1.472597	0.757643	1.287065
H191	H	0.950266	0.302456	0.751636
H192	H	1.450266	0.802456	1.251636
H193	H	0.954823	0.793357	0.400641
H194	H	1.454823	1.293357	0.900641
H195	H	0.508068	0.262443	0.435705
H196	H	1.008068	0.762443	0.935705
H197	H	0.507635	0.334839	0.235817
H198	H	1.007635	0.834839	0.735817
O199	O	1.101360	0.926562	0.220402
O200	O	1.601360	1.426562	0.720402
H201	H	1.070638	0.960584	0.179650
H202	H	1.570638	1.460584	0.679650
H203	H	0.507058	0.472452	0.400367
H204	H	1.007058	0.972452	0.900367
O205	O	0.972817	0.925661	0.256540
O206	O	1.472817	1.425661	0.756540
H207	H	0.936741	0.877328	0.245560
H208	H	1.436741	1.377328	0.745560
O209	O	1.100046	0.219535	0.785659
O210	O	1.600046	0.719535	1.285659
H211	H	1.141976	0.244832	0.748768
H212	H	1.641976	0.744832	1.248768
O213	O	1.105819	0.222071	0.926479
O214	O	1.605819	0.722071	1.426479
H215	H	1.147331	0.249716	0.962134
H216	H	1.647331	0.749716	1.462134
O217	O	0.499197	0.397286	0.490093
O218	O	0.999197	0.897286	0.990093
H219	H	0.462830	0.347989	0.487742
H220	H	0.962830	0.847989	0.987742
H221	H	0.634039	0.234893	0.337807
H222	H	1.134039	0.734893	0.837807
O223	O	0.500558	0.220573	0.325860
O224	O	1.000558	0.720573	0.825860
H225	H	0.521201	0.165728	0.343957
H226	H	1.021201	0.665728	0.843957
O227	O	0.642124	0.256219	0.453067
O228	O	1.142124	0.756219	0.953067
H229	H	0.678368	0.300372	0.475317
H230	H	1.178368	0.800372	0.975317
