data_functionalizedCrystal
_audit_creation_method	'MofGen! by Chris Wilmer'
_symmetry_space_group_name_H-M	'P1'
_symmetry_Int_Tables_number	1
_symmetry_cell_setting	triclinic
loop_
_symmetry_equiv_pos_as_xyz
  x,y,z
_cell_length_a	10.686285
_cell_length_b	17.077404
_cell_length_c	17.077396
_cell_angle_alpha	90.017060
_cell_angle_beta	85.606706
_cell_angle_gamma	94.368190
loop_
_atom_site_label
_atom_site_type_symbol
_atom_site_fract_x
_atom_site_fract_y
_atom_site_fract_z
Zn1	Zn	-0.502320	-1.224096	-0.419936
Zn2	Zn	-0.002320	-0.724096	0.080064
Zn3	Zn	-0.713346	-1.234116	-0.278626
Zn4	Zn	-0.213346	-0.734116	0.221374
Zn5	Zn	-0.502370	-1.092836	-0.288681
Zn6	Zn	-0.002370	-0.592836	0.211319
Zn7	Zn	-0.713266	-1.102899	-0.409854
Zn8	Zn	-0.213266	-0.602899	0.090146
O9	O	-0.607826	-1.163487	-0.349274
O10	O	-0.107826	-0.663487	0.150726
O11	O	-0.530326	-1.335272	-0.401202
O12	O	-0.030326	-0.835272	0.098798
O13	O	-0.685415	-1.215357	-0.170110
O14	O	-0.185415	-0.715357	0.329890
O15	O	-0.325788	-1.101842	-0.314520
O16	O	0.174212	-0.601842	0.185480
O17	O	-0.685366	-1.342634	-0.297382
O18	O	-0.185366	-0.842634	0.202618
O19	O	-0.325751	-1.198278	-0.410952
O20	O	0.174249	-0.698278	0.089048
O21	O	-0.530411	-1.111559	-0.177498
O22	O	-0.030411	-0.611559	0.322502
O23	O	-0.530333	-0.984323	-0.304744
O24	O	-0.030333	-0.484323	0.195256
O25	O	-0.685228	-1.118994	-0.521041
O26	O	-0.185228	-0.618994	-0.021041
O27	O	-0.685277	-0.991717	-0.393768
O28	O	-0.185277	-0.491717	0.106232
O29	O	-0.530248	-1.208037	-0.528448
O30	O	-0.030248	-0.708037	-0.028448
O31	O	-0.889911	-1.225115	-0.287606
O32	O	-0.389911	-0.725115	0.212394
O33	O	-0.889852	-1.128711	-0.384018
O34	O	-0.389852	-0.628711	0.115982
C35	C	-0.935666	-1.179114	-0.333644
C36	C	-0.435666	-0.679114	0.166356
C37	C	-1.075917	-1.185871	-0.326984
C38	C	-0.575917	-0.685871	0.173016
C39	C	-0.607803	-0.959538	-0.349253
C40	C	-0.107803	-0.459538	0.150747
C41	C	-0.607823	-0.872289	-0.349262
C42	C	-0.107823	-0.372289	0.150738
C43	C	-0.607723	-1.163521	-0.554023
C44	C	-0.107723	-0.663521	-0.054023
C45	C	-0.607680	-1.163535	-0.641275
C46	C	-0.107680	-0.663535	-0.141275
C47	C	-0.278705	-1.147820	-0.364982
C48	C	0.221295	-0.647820	0.135018
C49	C	-0.138454	-1.141144	-0.371676
C50	C	0.361546	-0.641144	0.128324
C51	C	-0.607849	-1.368232	-0.349295
C52	C	-0.107849	-0.868232	0.150705
C53	C	-0.607860	-1.455482	-0.349304
C54	C	-0.107860	-0.955482	0.150696
C55	C	-0.688624	-0.835175	-0.395531
C56	C	-0.188624	-0.335175	0.104469
C57	C	-0.688627	-0.753195	-0.395543
C58	C	-0.188627	-0.253195	0.104457
C59	C	-0.607834	-0.708330	-0.349282
C60	C	-0.107834	-0.208330	0.150718
C61	C	-0.527024	-0.745449	-0.303011
C62	C	-0.027024	-0.245449	0.196989
C63	C	-0.527016	-0.827428	-0.303004
C64	C	-0.027016	-0.327428	0.196996
C65	C	-0.527049	-0.574580	-0.303029
C66	C	-0.027049	-0.074580	0.196971
C67	C	-0.527059	-0.492596	-0.303035
C68	C	-0.027059	0.007404	0.196965
C69	C	-0.688660	-0.500347	-0.395569
C70	C	-0.188660	-0.000347	0.104431
C71	C	-0.688652	-0.582326	-0.395561
C72	C	-0.188652	-0.082326	0.104439
C73	C	-0.607843	-0.619439	-0.349289
C74	C	-0.107843	-0.119439	0.150711
C75	C	-0.688243	-1.217647	-1.013253
C76	C	-0.188243	-0.717647	-0.513253
C77	C	-0.688280	-1.217629	-0.931270
C78	C	-0.188280	-0.717629	-0.431270
C79	C	-0.607591	-1.163581	-0.894129
C80	C	-0.107591	-0.663581	-0.394129
C81	C	-0.526869	-1.109543	-0.938973
C82	C	-0.026869	-0.609543	-0.438973
C83	C	-0.526839	-1.109558	-1.020953
C84	C	-0.026839	-0.609558	-0.520953
C85	C	-0.526934	-1.109517	-0.768100
C86	C	-0.026934	-0.609517	-0.268100
C87	C	-0.526961	-1.109502	-0.686114
C88	C	-0.026961	-0.609502	-0.186114
C89	C	-0.688375	-1.217588	-0.678417
C90	C	-0.188375	-0.717588	-0.178417
C91	C	-0.688345	-1.217603	-0.760397
C92	C	-0.188345	-0.717603	-0.260397
C93	C	-0.607621	-1.163565	-0.805236
C94	C	-0.107621	-0.663565	-0.305236
C95	C	-0.607836	-1.163494	-0.145326
C96	C	-0.107836	-0.663494	0.354674
C97	C	-0.607524	-1.163614	-0.058091
C98	C	-0.107524	-0.663614	0.441909
H99	H	-1.084699	-1.097682	-0.415035
H100	H	-0.584699	-0.597682	0.084965
H101	H	-0.461176	-1.065533	-0.908725
H102	H	0.038824	-0.565533	-0.408725
N103	N	-0.439902	-0.614616	-0.253119
N104	N	0.060098	-0.114616	0.246881
H105	H	-0.381486	-0.645856	-0.287859
H106	H	0.118514	-0.145856	0.212141
H107	H	-0.388808	-0.573713	-0.223816
H108	H	0.111192	-0.073713	0.276184
N109	N	-1.147117	-1.243434	-0.269533
N110	N	-0.647117	-0.743434	0.230467
H111	H	-1.240577	-1.240260	-0.272750
H112	H	-0.740577	-0.740260	0.227250
H113	H	-1.124065	-1.298393	-0.282882
H114	H	-0.624065	-0.798393	0.217118
H115	H	-0.754420	-0.871699	-0.433199
H116	H	-0.254420	-0.371699	0.066801
H117	H	-0.754425	-0.722981	-0.433219
H118	H	-0.254425	-0.222981	0.066781
N119	N	-0.775802	-0.630719	-0.445448
N120	N	-0.275802	-0.130719	0.054552
H121	H	-0.826994	-0.594770	-0.474763
H122	H	-0.326994	-0.094770	0.025237
H123	H	-0.724509	-0.662303	-0.484268
H124	H	-0.224509	-0.162303	0.015732
H125	H	-0.754454	-0.470126	-0.433247
H126	H	-0.254454	0.029874	0.066753
N127	N	-0.439875	-1.051231	-0.816464
N128	N	0.060125	-0.551231	-0.316464
H129	H	-0.388759	-1.016991	-0.780497
H130	H	0.111241	-0.516991	-0.280497
H131	H	-0.381476	-1.080414	-0.853271
H132	H	0.118524	-0.580414	-0.353271
H133	H	-0.461255	-0.456068	-0.265375
H134	H	0.038745	0.043932	0.234625
H135	H	-0.461236	-0.708913	-0.265348
H136	H	0.038764	-0.208913	0.234652
H137	H	-0.461213	-0.857644	-0.265331
H138	H	0.038787	-0.357644	0.234669
H139	H	-0.753944	-1.261662	-1.043487
H140	H	-0.253944	-0.761662	-0.543487
H141	H	-0.754024	-1.261619	-0.894765
H142	H	-0.254024	-0.761619	-0.394765
H143	H	-0.754043	-1.261617	-0.790636
H144	H	-0.254043	-0.761617	-0.290636
H145	H	-0.461108	-1.065560	-1.057460
H146	H	0.038892	-0.565560	-0.557460
N147	N	-0.775438	-1.275873	-0.630057
N148	N	-0.275438	-0.775873	-0.130057
H149	H	-0.763339	-1.267587	-0.572482
H150	H	-0.263339	-0.767587	-0.072482
H151	H	-0.865542	-1.268022	-0.640162
H152	H	-0.365542	-0.768022	-0.140162
N153	N	-0.439946	-1.051204	-0.646050
N154	N	0.060054	-0.551204	-0.146050
H155	H	-0.388813	-1.016968	-0.686893
H156	H	0.111187	-0.516968	-0.186893
H157	H	-0.491333	-1.017324	-0.609579
H158	H	0.008667	-0.517324	-0.109579
