data_functionalizedCrystal
_audit_creation_method	'MofGen! by Chris Wilmer'
_symmetry_space_group_name_H-M	'P1'
_symmetry_Int_Tables_number	1
_symmetry_cell_setting	triclinic
loop_
_symmetry_equiv_pos_as_xyz
  x,y,z
_cell_length_a	27.780835
_cell_length_b	27.780884
_cell_length_c	27.780936
_cell_angle_alpha	90.002261
_cell_angle_beta	59.997040
_cell_angle_gamma	119.999906
loop_
_atom_site_label
_atom_site_type_symbol
_atom_site_fract_x
_atom_site_fract_y
_atom_site_fract_z
O1	O	0.424598	-0.330210	-0.014329
O2	O	0.326027	-0.260212	0.014245
O3	O	0.424595	-0.260211	-0.084326
O4	O	0.326031	-0.330210	0.084242
O5	O	0.344534	-0.340271	-0.084324
O6	O	0.245966	-0.340272	0.014247
O7	O	0.344537	-0.410270	-0.014327
Zn8	Zn	0.282540	-0.387982	-0.000040
Zn9	Zn	0.388024	-0.282499	-0.000042
O10	O	0.245969	-0.410271	0.084243
C11	C	0.177736	-0.120428	0.029859
C12	C	0.211530	-0.056933	0.025769
C13	C	0.119399	-0.149663	0.030265
C14	C	0.177733	-0.207596	0.029864
C15	C	0.211522	-0.237301	0.025779
C16	C	0.119395	-0.236699	0.030270
C17	C	0.090569	-0.207595	0.029860
C18	C	0.031163	-0.237298	0.025771
C19	C	0.206430	-0.149665	0.030269
C20	C	-0.016831	-0.261295	0.022467
C21	C	0.238832	-0.005634	0.022463
C22	C	0.238822	-0.261299	0.022478
C23	C	-0.077042	-0.291401	0.018322
C24	C	0.273084	0.058722	0.018317
C25	C	0.273069	-0.291407	0.018338
O26	O	-0.094711	-0.340266	0.014230
O27	O	-0.234695	-0.410259	-0.014354
O28	O	-0.234717	-0.410264	0.084220
O29	O	-0.094690	-0.340261	-0.084345
O30	O	-0.234715	-0.330203	0.084218
O31	O	-0.234693	-0.330199	-0.014357
O32	O	-0.094710	-0.260205	0.014227
Zn33	Zn	-0.164701	-0.282491	-0.000065
Zn34	Zn	-0.164703	-0.387974	-0.000062
O35	O	-0.094688	-0.260200	-0.084347
C36	C	0.492835	-0.207599	-0.372403
C37	C	0.459044	-0.237303	-0.402106
C38	C	0.551174	-0.149668	-0.401506
C39	C	0.492835	-0.207599	-0.285237
C40	C	0.459043	-0.237303	-0.221741
C41	C	0.551174	-0.149668	-0.314473
C42	C	0.580002	-0.120433	-0.372404
C43	C	0.639410	-0.056938	-0.402107
C44	C	0.464139	-0.236702	-0.314472
C45	C	0.687404	-0.005640	-0.426105
C46	C	0.431742	-0.261300	-0.426103
C47	C	0.431742	-0.261300	-0.170443
C48	C	0.747616	0.058715	-0.456211
C49	C	0.397492	-0.291406	-0.456208
C50	C	0.397492	-0.291406	-0.106087
C51	C	0.580017	-0.462874	-0.029975
C52	C	0.639426	-0.433169	-0.025890
C53	C	0.551190	-0.520805	-0.030383
C54	C	0.492846	-0.462876	-0.029969
C55	C	0.459052	-0.433174	-0.025877
C56	C	0.464151	-0.520807	-0.030377
C57	C	0.492850	-0.550041	-0.029973
C58	C	0.459059	-0.613536	-0.025886
C59	C	0.551186	-0.433772	-0.030379
C60	C	0.431759	-0.664833	-0.022583
C61	C	0.687422	-0.409171	-0.022589
C62	C	0.431749	-0.409178	-0.022570
C63	C	0.397510	-0.729188	-0.018440
C64	C	0.747636	-0.379064	-0.018448
C65	C	0.397496	-0.379074	-0.018422
O66	O	0.344554	0.249050	-0.014349
O67	O	0.245983	0.080485	0.014221
O68	O	0.344556	0.179045	-0.084348
O69	O	0.245982	0.150490	0.084220
O70	O	0.424613	0.179043	-0.084344
O71	O	0.326041	0.080483	0.014225
O72	O	0.424611	0.249049	-0.014345
Zn73	Zn	0.388037	0.164766	-0.000060
Zn74	Zn	0.282558	0.164768	-0.000064
O75	O	0.326039	0.150488	0.084224
O76	O	0.905286	0.249041	-0.495012
O77	O	0.765285	0.080476	-0.425015
O78	O	0.765281	0.179039	-0.425008
O79	O	0.905290	0.150478	-0.495019
O80	O	0.765283	0.179041	-0.505068
O81	O	0.765287	0.080478	-0.505076
O82	O	0.905288	0.249043	-0.575073
Zn83	Zn	0.835288	0.164761	-0.552785
Zn84	Zn	0.835285	0.164758	-0.447302
O85	O	0.905292	0.150480	-0.575080
O86	O	0.326025	-0.330215	-0.575068
O87	O	0.424594	-0.260211	-0.505073
O88	O	0.326024	-0.260214	-0.505065
O89	O	0.424595	-0.330212	-0.575076
O90	O	0.245965	-0.340273	-0.425004
O91	O	0.344535	-0.340270	-0.425012
O92	O	0.245966	-0.410274	-0.495007
Zn93	Zn	0.282539	-0.387983	-0.447298
Zn94	Zn	0.388021	-0.282502	-0.552782
O95	O	0.344536	-0.410271	-0.495015
C96	C	0.090560	-0.550051	0.372321
C97	C	0.031153	-0.613546	0.402024
C98	C	0.119388	-0.520816	0.401424
C99	C	0.177728	-0.462884	0.285155
C100	C	0.211520	-0.433180	0.221659
C101	C	0.206423	-0.433781	0.314390
C102	C	0.177727	-0.462885	0.372321
C103	C	0.211518	-0.433182	0.402025
C104	C	0.119389	-0.520815	0.314390
C105	C	0.238819	-0.409185	0.426022
C106	C	-0.016842	-0.664843	0.426021
C107	C	0.238822	-0.409182	0.170361
C108	C	0.273068	-0.379079	0.456128
C109	C	-0.077054	-0.729199	0.456127
C110	C	0.273072	-0.379076	0.106005
C111	C	-0.507205	-0.462883	0.372292
C112	C	-0.541001	-0.433180	0.401995
C113	C	-0.535905	-0.520815	0.401395
C114	C	-0.420027	-0.462881	0.285128
C115	C	-0.360611	-0.433175	0.221634
C116	C	-0.448859	-0.520812	0.314363
C117	C	-0.507205	-0.550049	0.372293
C118	C	-0.541000	-0.613545	0.401995
C119	C	-0.448859	-0.433779	0.314362
C120	C	-0.568303	-0.664843	0.425992
C121	C	-0.568305	-0.409184	0.425991
C122	C	-0.312609	-0.409177	0.170336
C123	C	-0.602556	-0.729199	0.456097
C124	C	-0.602558	-0.379078	0.456095
C125	C	-0.252389	-0.379069	0.105982
C126	C	0.177801	-0.120417	-0.372420
C127	C	0.211596	-0.056922	-0.402123
C128	C	0.206500	-0.149652	-0.401522
C129	C	0.090622	-0.207585	-0.285255
C130	C	0.031206	-0.237290	-0.221761
C131	C	0.119454	-0.236688	-0.314489
C132	C	0.177800	-0.207584	-0.372419
C133	C	0.211595	-0.237287	-0.402121
C134	C	0.119454	-0.149654	-0.314490
C135	C	0.238899	-0.261284	-0.426116
C136	C	0.238900	-0.005623	-0.426120
C137	C	-0.016795	-0.261288	-0.170463
C138	C	0.273152	-0.291390	-0.456220
C139	C	0.273153	0.058732	-0.456225
C140	C	-0.077016	-0.291395	-0.106109
C141	C	0.580014	0.194624	-0.372415
C142	C	0.639419	0.190530	-0.402116
C143	C	0.551187	0.195027	-0.401520
C144	C	0.492851	0.194639	-0.285253
C145	C	0.459060	0.190562	-0.221760
C146	C	0.464156	0.195043	-0.314490
C147	C	0.492850	0.194626	-0.372419
C148	C	0.459059	0.190533	-0.402124
C149	C	0.551187	0.195041	-0.314486
C150	C	0.431758	0.187226	-0.426121
C151	C	0.687411	0.187222	-0.426110
C152	C	0.431760	0.187267	-0.170462
C153	C	0.397509	0.183078	-0.456227
C154	C	0.747620	0.183072	-0.456212
C155	C	0.397512	0.183133	-0.106108
O156	O	-0.674023	-0.919526	0.494901
O157	O	-0.575450	-0.750961	0.424902
O158	O	-0.674007	-0.849521	0.424891
O159	O	-0.575466	-0.820966	0.494912
O160	O	-0.754077	-0.849521	0.504948
O161	O	-0.655520	-0.750961	0.504959
O162	O	-0.754093	-0.919526	0.574959
Zn163	Zn	-0.717519	-0.835244	0.552670
Zn164	Zn	-0.612024	-0.835244	0.447191
O165	O	-0.655536	-0.820966	0.574970
C166	C	0.177744	0.134907	0.372295
C167	C	0.211535	0.138999	0.402000
C168	C	0.119408	0.134506	0.401395
C169	C	0.177744	0.134894	0.285129
C170	C	0.211534	0.138971	0.221635
C171	C	0.119408	0.134493	0.314362
C172	C	0.090581	0.134910	0.372291
C173	C	0.031176	0.139004	0.401991
C174	C	0.206439	0.134490	0.314366
C175	C	-0.016816	0.142313	0.425985
C176	C	0.238836	0.142306	0.425997
C177	C	0.238834	0.142267	0.170338
C178	C	-0.077024	0.146463	0.456088
C179	C	0.273085	0.146454	0.456104
C180	C	0.273083	0.146400	0.105984
H181	H	0.095272	-0.126190	0.030923
H182	H	0.417183	-0.284295	-0.290996
H183	H	0.095316	-0.284290	-0.291018
O184	O	0.087487	-0.118567	-0.283401
H185	H	0.087218	-0.116245	-0.243389
H186	H	0.095285	0.133837	0.290886
O187	O	0.087453	0.133648	0.464443
H188	H	0.034406	0.093473	0.492690
H189	H	0.417204	-0.544278	-0.031026
H190	H	0.575293	-0.126196	-0.290996
H191	H	0.575312	-0.386175	-0.031029
H192	H	0.575300	-0.126199	-0.449106
H193	H	0.575321	-0.544273	-0.031040
O194	O	0.268693	-0.118564	-0.464568
H195	H	0.283907	-0.073280	-0.479982
O196	O	0.268602	-0.370731	0.283306
H197	H	0.283807	-0.355314	0.238026
O198	O	0.268616	0.133614	0.283274
H199	H	0.283821	0.133407	0.313350
O200	O	0.583138	0.195883	-0.464566
H201	H	0.628622	0.196083	-0.479978
H202	H	0.253371	-0.126192	0.030928
H203	H	-0.424726	-0.544281	0.290889
H204	H	0.575314	0.195697	-0.291015
H205	H	0.417210	0.195697	-0.291016
H206	H	-0.582854	-0.544285	0.448993
O207	O	-0.416888	-0.370727	0.283269
H208	H	-0.446756	-0.355312	0.313344
H209	H	0.095251	-0.544286	0.449027
H210	H	0.095270	-0.284298	0.030927
H211	H	0.095258	-0.544288	0.290921
