data_functionalizedCrystal
_audit_creation_method	'MofGen! by Chris Wilmer'
_symmetry_space_group_name_H-M	'P1'
_symmetry_Int_Tables_number	1
_symmetry_cell_setting	triclinic
loop_
_symmetry_equiv_pos_as_xyz
  x,y,z
_cell_length_a	17.699083
_cell_length_b	19.188930
_cell_length_c	16.176319
_cell_angle_alpha	89.988074
_cell_angle_beta	89.998611
_cell_angle_gamma	83.213899
loop_
_atom_site_label
_atom_site_type_symbol
_atom_site_fract_x
_atom_site_fract_y
_atom_site_fract_z
O1	O	1.003963	0.088294	-0.068640
O2	O	0.783569	0.099782	-0.068668
O3	O	0.900126	-0.007610	-0.068637
O4	O	0.887406	0.195687	-0.068671
O5	O	0.900110	-0.007617	0.068856
O6	O	0.783553	0.099775	0.068825
O7	O	1.003947	0.088288	0.068853
Cu8	Cu	0.893748	0.094031	0.081393
Cu9	Cu	0.893767	0.094039	-0.081208
O10	O	0.887390	0.195680	0.068822
C11	C	0.755365	0.099367	0.000075
C12	C	0.671348	0.098132	0.000065
C13	C	0.899706	-0.033625	0.000112
C14	C	0.898469	-0.111131	0.000119
C15	C	0.622644	0.161169	0.000055
C16	C	0.543702	0.160004	0.000065
C17	C	0.513466	0.095802	0.000081
C18	C	0.562176	0.032761	0.000093
C19	C	0.641117	0.033926	0.000088
C20	C	0.243819	0.028060	0.000115
C21	C	0.164873	0.026900	0.000117
C22	C	0.146405	0.154139	0.000092
C23	C	0.225345	0.155304	0.000087
C24	C	0.274049	0.092263	0.000104
C25	C	0.359646	0.093526	0.000094
C26	C	0.427870	0.094538	0.000085
C27	C	0.966861	-0.155978	0.000131
C28	C	0.965699	-0.228804	0.000118
C29	C	0.896142	-0.256778	0.000108
C30	C	0.827741	-0.211921	0.000091
C31	C	0.828905	-0.139098	0.000096
N32	N	0.842968	-0.364845	0.046893
N33	N	0.841868	-0.434025	0.046890
C34	C	0.892632	-0.476191	0.000091
N35	N	0.944550	-0.446565	-0.046694
N36	N	0.945653	-0.377379	-0.046687
C37	C	0.894873	-0.335742	0.000102
C38	C	0.959769	-0.600004	0.000088
C39	C	0.958604	-0.672830	0.000070
C40	C	0.820644	-0.655946	0.000051
C41	C	0.821811	-0.583121	0.000061
C42	C	0.891375	-0.555155	0.000084
C43	C	1.032151	0.088703	0.000108
C44	C	1.116167	0.089938	0.000113
C45	C	0.887810	0.221695	0.000071
C46	C	0.889046	0.299201	0.000059
N47	N	0.893741	0.094025	0.195758
N48	N	0.893781	0.094039	-0.195574
C49	C	0.945367	0.046491	0.239036
C50	C	0.945371	0.046490	0.325584
C51	C	0.893751	0.094027	0.368851
C52	C	0.842119	0.141563	0.325567
C53	C	0.842112	0.141560	0.239022
C54	C	0.842145	0.141576	0.674595
C55	C	0.842157	0.141577	0.761147
C56	C	0.945404	0.046506	0.761157
C57	C	0.945397	0.046503	0.674612
C58	C	0.893763	0.094036	0.631335
C59	C	0.893758	0.094036	0.537491
C60	C	0.893759	0.094031	0.462694
H61	H	0.504050	0.211335	0.000056
C62	C	0.131611	-0.043724	0.000137
H63	H	0.077621	-0.035386	0.000127
H64	H	0.148339	-0.069676	0.048089
H65	H	0.148342	-0.069673	-0.047810
H66	H	0.773210	-0.102582	0.000086
C67	C	0.785326	0.193850	0.191416
H68	H	0.754588	0.222167	0.229578
H69	H	0.753904	0.168769	0.157665
H70	H	0.812455	0.222884	0.157643
C71	C	0.694691	-0.035415	0.000091
H72	H	0.665379	-0.073819	0.000092
H73	H	0.725873	-0.037610	0.048035
H74	H	0.725865	-0.037600	-0.047864
C75	C	0.258602	0.225926	0.000073
H76	H	0.218288	0.263303	0.000077
H77	H	0.289013	0.229030	-0.047874
H78	H	0.289011	0.229019	0.048026
H79	H	0.987409	0.007784	0.360820
C80	C	1.002149	-0.005802	0.191450
H81	H	1.032891	-0.034116	0.229623
H82	H	1.033568	0.019274	0.157675
H83	H	0.975014	-0.034839	0.157703
H84	H	0.766119	-0.546605	0.000056
H85	H	0.771107	-0.234702	0.000081
H86	H	0.987446	0.007800	0.796402
H87	H	0.647256	0.213450	0.000042
C88	C	0.785356	0.193866	0.627002
H89	H	0.754622	0.222182	0.665168
H90	H	0.753930	0.168789	0.593252
H91	H	0.812484	0.222901	0.593229
H92	H	0.106741	0.205470	0.000082
C93	C	0.785371	0.193866	0.808744
H94	H	0.792778	0.187063	0.866485
H95	H	0.734885	0.186338	0.794574
H96	H	0.793431	0.240458	0.794545
C97	C	0.297383	-0.041282	0.000128
H98	H	0.268067	-0.079683	0.000129
H99	H	0.328562	-0.043477	0.048074
H100	H	0.328560	-0.043472	-0.047826
C101	C	0.528918	-0.037860	0.000109
H102	H	0.474929	-0.029527	0.000101
H103	H	0.545651	-0.063814	0.048059
H104	H	0.545651	-0.063805	-0.047841
H105	H	1.023506	-0.133213	0.000147
C106	C	0.785339	0.193854	0.373159
H107	H	0.792742	0.187054	0.430901
H108	H	0.734853	0.186331	0.358987
H109	H	0.793407	0.240444	0.358957
C110	C	1.040933	-0.278144	0.000138
H111	H	1.082529	-0.251058	0.000157
H112	H	1.043357	-0.306897	-0.047808
H113	H	1.043332	-0.306910	0.048092
H114	H	1.016412	-0.577233	0.000103
C115	C	1.033837	-0.722166	0.000074
H116	H	1.023183	-0.769543	0.000056
H117	H	1.062365	-0.713715	0.048027
H118	H	1.062373	-0.713684	-0.047873
C119	C	0.744132	-0.686709	0.000038
H120	H	0.753233	-0.736504	0.000040
H121	H	0.715987	-0.671294	-0.047911
H122	H	0.715976	-0.671318	0.047988
C123	C	1.002176	-0.005789	0.627022
H124	H	1.032920	-0.034105	0.665193
H125	H	1.033594	0.019287	0.593246
H126	H	0.975038	-0.034825	0.593276
