data_functionalizedCrystal
_audit_creation_method	'MofGen! by Chris Wilmer'
_symmetry_space_group_name_H-M	'P1'
_symmetry_Int_Tables_number	1
_symmetry_cell_setting	triclinic
loop_
_symmetry_equiv_pos_as_xyz
  x,y,z
_cell_length_a	22.010155
_cell_length_b	10.654541
_cell_length_c	10.654555
_cell_angle_alpha	95.513259
_cell_angle_beta	90.001847
_cell_angle_gamma	89.985632
loop_
_atom_site_label
_atom_site_type_symbol
_atom_site_fract_x
_atom_site_fract_y
_atom_site_fract_z
O1	O	0.050503	-1.667872	0.176381
O2	O	0.050508	-1.302393	0.193190
O3	O	0.050505	-1.493528	0.002047
O4	O	0.050506	-1.476737	0.367524
O5	O	-0.050545	-1.493470	0.002046
O6	O	-0.050543	-1.302335	0.193189
O7	O	-0.050548	-1.667814	0.176380
Cu8	Cu	-0.059772	-1.485069	0.184785
Cu9	Cu	0.059732	-1.485138	0.184786
O10	O	-0.050545	-1.476679	0.367523
C11	C	-0.000017	-1.255566	0.191956
C12	C	-0.000015	-1.116123	0.188265
C13	C	-0.000019	-1.492263	-0.044751
C14	C	-0.000015	-1.488566	-0.184194
N15	N	-0.143824	-1.485030	0.184783
C16	C	-0.563605	-1.561975	0.261651
C17	C	-0.627212	-1.561990	0.261648
O18	O	-0.660105	-1.627367	0.326996
N19	N	-0.659031	-1.485162	0.184772
C20	C	-0.627240	-1.408324	0.107883
O21	O	-0.660145	-1.342978	0.042492
C22	C	-0.563633	-1.408317	0.107880
C23	C	-0.531817	-1.485140	0.184772
C24	C	-0.531789	-1.638794	0.338536
C25	C	-0.468186	-1.638777	0.338540
C26	C	-0.436398	-1.561942	0.261660
C27	C	-0.468214	-1.485124	0.184776
C28	C	-0.531842	-1.331486	0.030986
C29	C	-0.468232	-1.331486	0.030989
C30	C	-0.436416	-1.408310	0.107880
C31	C	-0.372823	-1.408272	0.107901
N32	N	-0.341004	-1.485100	0.184778
C33	C	-0.372792	-1.561935	0.261657
C34	C	-0.760817	-1.408347	0.107893
C35	C	-0.824423	-1.408346	0.107902
C36	C	-0.824391	-1.562015	0.261666
C37	C	-0.760785	-1.562007	0.261663
C38	C	-0.728998	-1.485175	0.184770
C39	C	-0.239220	-1.561893	0.261662
C40	C	-0.175612	-1.561865	0.261663
C41	C	-0.175649	-1.408202	0.107895
C42	C	-0.239252	-1.408224	0.107898
C43	C	-0.271036	-1.485080	0.184785
O44	O	-0.339891	-1.342932	0.042583
O45	O	-0.339879	-1.627282	0.327025
N46	N	0.143784	-1.485187	0.184777
C47	C	-0.000022	-1.714641	0.177614
C48	C	-0.000020	-1.854084	0.181305
C49	C	-0.000007	-1.088161	0.416829
C50	C	-0.000000	-1.008671	0.529372
C51	C	0.000000	-0.877653	0.525896
C52	C	-0.000007	-0.826123	0.409865
C53	C	-0.000014	-0.905613	0.297323
C54	C	-0.000013	-1.036633	0.300811
C55	C	-0.000026	-0.933574	0.068762
C56	C	-0.000022	-1.064593	0.072235
C57	C	-0.000034	-0.882044	-0.047268
C58	C	-0.000036	-0.961534	-0.159814
C59	C	-0.000036	-1.092560	-0.156333
C60	C	-0.000029	-1.144082	-0.040308
C61	C	-0.110188	-1.481563	-0.446225
C62	C	-0.165271	-1.483262	-0.380711
C63	C	-0.165271	-1.486731	-0.249693
C64	C	-0.110182	-1.488496	-0.184184
C65	C	-0.055098	-1.486797	-0.249698
C66	C	-0.055104	-1.483332	-0.380721
C67	C	0.055068	-1.486866	-0.249708
C68	C	0.055070	-1.483407	-0.380728
C69	C	0.110158	-1.488631	-0.184200
C70	C	0.165243	-1.486941	-0.249715
C71	C	0.165241	-1.483474	-0.380742
C72	C	0.110153	-1.481707	-0.446242
C73	C	-0.000020	-1.477944	0.414321
C74	C	-0.000019	-1.481641	0.553764
H75	H	-0.265092	-1.624476	0.324270
H76	H	-0.442354	-1.268919	-0.031629
H77	H	-0.210125	-1.488092	-0.196348
H78	H	-0.149710	-1.624424	0.324283
O79	O	-0.855298	-1.333852	0.033035
C80	C	-0.839736	-1.367516	-0.094118
H81	H	-0.822236	-1.468685	-0.105318
H82	H	-0.881565	-1.359664	-0.155982
H83	H	-0.802823	-1.301421	-0.123873
O84	O	-0.144696	-1.333506	0.033389
C85	C	-0.107923	-1.248451	0.109168
H86	H	-0.098394	-1.288327	0.202730
H87	H	-0.063195	-1.234040	0.058554
H88	H	-0.132444	-1.154210	0.127496
H89	H	-0.734884	-1.624563	0.324276
O90	O	0.000079	-1.215412	0.420365
C91	C	0.052429	-1.251539	0.484170
H92	H	0.069879	-1.167881	0.548891
H93	H	0.040667	-1.332317	0.542682
H94	H	0.089071	-1.283634	0.412533
H95	H	-0.000043	-1.157274	-0.247980
H96	H	-0.000042	-0.919567	-0.254277
H97	H	-0.110187	-1.491305	-0.077500
H98	H	0.110154	-1.491449	-0.077516
O99	O	-0.437260	-1.713224	0.413374
C100	C	-0.400468	-1.637401	0.498353
H101	H	-0.419644	-1.537582	0.510904
H102	H	-0.399750	-1.678358	0.593334
H103	H	-0.352259	-1.634952	0.459542
O104	O	-0.218822	-1.481724	-0.444226
C105	C	-0.252326	-1.591145	-0.425500
H106	H	-0.236660	-1.629869	-0.334797
H107	H	-0.302718	-1.566815	-0.418024
H108	H	-0.244694	-1.665230	-0.508533
O109	O	0.218767	-1.488428	-0.186113
C110	C	0.252288	-1.379044	-0.204895
H111	H	0.220061	-1.302182	-0.231644
H112	H	0.277276	-1.344887	-0.114280
H113	H	0.286634	-1.401611	-0.283946
O114	O	0.218732	-1.481592	-0.444415
C115	C	0.222016	-1.371025	-0.506958
H116	H	0.190758	-1.296165	-0.458192
H117	H	0.270734	-1.334561	-0.503999
H118	H	0.207212	-1.392939	-0.609252
H119	H	-0.000022	-1.250762	-0.037463
O120	O	-0.000140	-0.754783	-0.050716
C121	C	-0.052469	-0.718648	-0.114582
H122	H	-0.089051	-0.793877	-0.110547
H123	H	-0.070029	-0.624957	-0.067672
H124	H	-0.040642	-0.707889	-0.217169
H125	H	0.110146	-1.478889	-0.552925
H126	H	-0.850284	-1.624576	0.324267
O127	O	-0.562567	-1.713469	0.413344
C128	C	-0.520834	-1.781283	0.481166
H129	H	-0.475503	-1.729342	0.487987
H130	H	-0.539197	-1.789928	0.580009
H131	H	-0.514055	-1.879412	0.430348
H132	H	-0.557736	-1.268930	-0.031629
O133	O	-0.110110	-1.478040	-0.573477
C134	C	-0.079907	-1.368308	-0.603991
H135	H	-0.047743	-1.334114	-0.524067
H136	H	-0.052828	-1.390434	-0.694628
H137	H	-0.114728	-1.291647	-0.617955
O138	O	-0.729972	-1.333500	0.033352
C139	C	-0.745555	-1.206342	0.066963
H140	H	-0.763034	-1.195100	0.168138
H141	H	-0.703741	-1.144471	0.059067
H142	H	-0.782489	-1.176632	0.000865
O143	O	0.000070	-0.698873	0.406329
C144	C	0.052410	-0.662785	0.342503
H145	H	0.069858	-0.746456	0.277774
H146	H	0.040635	-0.581998	0.283996
H147	H	0.089058	-0.630718	0.414125
O148	O	-0.270066	-1.333556	0.033098
C149	C	-0.228365	-1.265709	-0.034723
H150	H	-0.183014	-1.317620	-0.041555
H151	H	-0.246739	-1.257066	-0.133562
H152	H	-0.221621	-1.167578	0.016102
O153	O	0.000089	-1.058583	0.642154
C154	C	0.052436	-1.018118	0.710804
H155	H	0.069881	-0.926973	0.675780
H156	H	0.040671	-1.000842	0.815235
H157	H	0.089082	-1.093814	0.696909
H158	H	0.000001	-0.812932	0.617538
