data_functionalizedCrystal
_audit_creation_method	'MofGen! by Chris Wilmer'
_symmetry_space_group_name_H-M	'P1'
_symmetry_Int_Tables_number	1
_symmetry_cell_setting	triclinic
loop_
_symmetry_equiv_pos_as_xyz
  x,y,z
_cell_length_a	15.995300
_cell_length_b	15.995350
_cell_length_c	14.472310
_cell_angle_alpha	89.998838
_cell_angle_beta	89.985388
_cell_angle_gamma	96.517909
loop_
_atom_site_label
_atom_site_type_symbol
_atom_site_fract_x
_atom_site_fract_y
_atom_site_fract_z
O1	O	1.111023	-0.107720	-0.076870
O2	O	0.867242	-0.121092	-0.076864
O3	O	0.995796	0.007483	-0.076866
O4	O	0.982468	-0.236295	-0.076868
O5	O	0.995763	0.007475	0.076816
O6	O	0.867209	-0.121099	0.076818
O7	O	1.110990	-0.107728	0.076812
Cu8	Cu	0.989096	-0.114414	0.090847
Cu9	Cu	0.989135	-0.114405	-0.090899
O10	O	0.982435	-0.236302	0.076814
C11	C	0.836030	-0.120550	-0.000022
C12	C	0.743077	-0.118915	-0.000020
C13	C	0.572894	-0.115896	-0.000027
C14	C	0.525428	-0.207443	-0.000026
C15	C	0.428741	-0.205773	-0.000377
C16	C	0.405337	-0.112924	-0.000033
C17	C	0.446489	-0.067499	-0.087620
C18	C	0.543122	-0.069816	-0.087691
C19	C	0.543364	-0.068469	0.087080
C20	C	0.446419	-0.068477	0.088229
C21	C	0.310642	-0.111239	-0.000040
C22	C	0.667590	-0.117577	-0.000027
C23	C	0.995229	0.038674	-0.000027
C24	C	0.993577	0.131624	-0.000032
C25	C	1.142202	-0.108269	-0.000032
C26	C	1.235154	-0.109904	-0.000040
C27	C	0.983003	-0.267493	-0.000027
C28	C	0.984655	-0.360443	-0.000028
N29	N	0.989075	-0.114420	0.218678
C30	C	0.987644	0.469370	-0.000029
C31	C	0.896090	0.421920	-0.000371
C32	C	0.897743	0.325230	-0.000025
C33	C	0.990587	0.301810	-0.000031
C34	C	1.035726	0.342892	0.087726
C35	C	1.033426	0.439527	0.087800
C36	C	1.035355	0.439894	-0.086966
C37	C	1.035333	0.342949	-0.088126
C38	C	0.992255	0.207113	-0.000029
C39	C	0.985979	0.564068	-0.000025
N40	N	0.989163	-0.114393	-0.218730
C41	C	0.989134	-0.114402	0.592769
C42	C	0.920117	-0.182969	0.553605
C43	C	0.920276	-0.183219	0.446517
C44	C	0.989104	-0.114411	0.407178
C45	C	1.076471	-0.133477	0.446013
C46	C	1.076083	-0.133964	0.553135
C47	C	0.971565	-0.026565	0.553300
C48	C	0.969561	-0.027152	0.446172
C49	C	0.989092	-0.114414	0.302290
C50	C	0.989152	-0.114400	0.697658
H51	H	0.575396	-0.002591	-0.091433
H52	H	0.432390	0.000724	-0.090631
H53	H	1.100643	0.471787	0.091777
C54	C	1.147516	-0.067814	0.411588
H55	H	1.199776	-0.080530	0.435890
H56	H	1.149517	-0.068997	0.346005
H57	H	1.137089	-0.013403	0.431648
C58	C	0.846665	0.446957	-0.085377
H59	H	0.881417	0.486576	-0.121420
H60	H	0.829834	0.398380	-0.121517
H61	H	0.798253	0.471382	-0.065633
C62	C	0.551923	-0.256400	-0.084752
H63	H	0.591783	-0.221290	-0.120128
H64	H	0.576436	-0.304668	-0.064754
H65	H	0.503888	-0.273431	-0.121657
C66	C	0.849797	0.286823	-0.084997
H67	H	0.829129	0.330310	-0.120038
H68	H	0.886699	0.258541	-0.122132
H69	H	0.803964	0.247936	-0.065237
H70	H	0.859646	0.441504	0.062212
H71	H	0.854965	-0.171799	0.579394
C72	C	0.408207	-0.109587	-0.176012
H73	H	0.433516	-0.081650	-0.228646
H74	H	0.418159	-0.167009	-0.177010
H75	H	0.349325	-0.106056	-0.176916
H76	H	0.400264	-0.241466	0.062395
C77	C	0.409468	-0.113277	0.175771
H78	H	0.434570	-0.086102	0.228929
H79	H	0.350395	-0.111025	0.177392
H80	H	0.420653	-0.170347	0.175004
C81	C	0.882745	-0.007594	0.411888
H82	H	0.871283	0.045267	0.435711
H83	H	0.882654	-0.005715	0.346283
H84	H	0.840732	-0.050267	0.432531
C85	C	1.126809	0.322241	-0.095283
H86	H	1.152275	0.347886	-0.149094
H87	H	1.157319	0.343067	-0.042210
H88	H	1.127270	0.262997	-0.098968
H89	H	0.431080	-0.000784	0.093777
H90	H	0.861993	0.297356	0.062992
H91	H	0.575145	-0.000972	0.087923
C92	C	0.990827	0.306058	-0.175835
H93	H	1.018185	0.331192	-0.228891
H94	H	0.993081	0.246987	-0.177447
H95	H	0.933756	0.317247	-0.175284
H96	H	1.000483	0.457819	0.153404
C97	C	1.127868	0.323823	0.092140
H98	H	1.139655	0.290555	0.040379
H99	H	1.164175	0.375116	0.091325
H100	H	1.136615	0.294015	0.147435
C101	C	0.993332	0.304554	0.175956
H102	H	0.948130	0.263523	0.159500
H103	H	1.033312	0.278821	0.211464
H104	H	0.972378	0.347673	0.211329
H105	H	0.855335	-0.171862	0.420262
C106	C	0.935062	-0.270531	0.589946
H107	H	0.983183	-0.265484	0.628881
H108	H	0.887264	-0.293852	0.624052
H109	H	0.943979	-0.306273	0.539319
H110	H	1.091565	-0.198022	0.578109
H111	H	1.005436	0.460431	-0.153481
C112	C	1.147541	-0.069065	0.588136
H113	H	1.176684	-0.042524	0.536884
H114	H	1.124519	-0.027924	0.624619
H115	H	1.185518	-0.096717	0.624484
H116	H	0.931495	-0.248401	0.420882
C117	C	1.097888	-0.219028	0.409767
H118	H	1.053706	-0.243236	0.370979
H119	H	1.148849	-0.211128	0.375527
H120	H	1.104303	-0.255509	0.460443
H121	H	1.102857	0.471667	-0.087560
C122	C	1.033063	0.045008	0.410016
H123	H	1.072505	0.022763	0.370494
H124	H	1.004010	0.083874	0.376575
H125	H	1.061872	0.072895	0.460683
H126	H	0.909240	-0.008228	0.580369
H127	H	1.021896	0.024460	0.578625
H128	H	0.400906	-0.241306	-0.063529
C129	C	0.550373	-0.257153	0.084814
H130	H	0.521039	-0.312221	0.083527
H131	H	0.609251	-0.260668	0.083656
H132	H	0.536203	-0.229238	0.139609
C133	C	0.567893	-0.114038	-0.176467
H134	H	0.518919	-0.130425	-0.212146
H135	H	0.605900	-0.076528	-0.211412
H136	H	0.594127	-0.162461	-0.160606
H137	H	0.563850	-0.098612	0.153488
