data_functionalizedCrystal
_audit_creation_method	'MofGen! by Chris Wilmer'
_symmetry_space_group_name_H-M	'P1'
_symmetry_Int_Tables_number	1
_symmetry_cell_setting	triclinic
loop_
_symmetry_equiv_pos_as_xyz
  x,y,z
_cell_length_a	11.792241
_cell_length_b	17.666332
_cell_length_c	11.792254
_cell_angle_alpha	90.006615
_cell_angle_beta	84.196007
_cell_angle_gamma	90.005137
loop_
_atom_site_label
_atom_site_type_symbol
_atom_site_fract_x
_atom_site_fract_y
_atom_site_fract_z
O1	O	1.506924	0.062875	0.155569
O2	O	2.006924	0.562875	0.655569
O3	O	1.176583	0.062893	0.171602
O4	O	1.676583	0.562893	0.671602
O5	O	1.349762	0.062878	-0.001584
O6	O	1.849762	0.562878	0.498416
O7	O	1.333744	0.062890	0.328755
O8	O	1.833744	0.562890	0.828755
O9	O	1.349732	-0.063019	-0.001594
O10	O	1.849732	0.436981	0.498406
O11	O	1.176553	-0.063004	0.171592
O12	O	1.676553	0.436996	0.671592
O13	O	1.506893	-0.063022	0.155559
O14	O	2.006893	0.436978	0.655559
Cu15	Cu	1.341720	-0.074508	0.163575
Cu16	Cu	1.841720	0.425492	0.663575
Cu17	Cu	1.341756	0.074379	0.163586
Cu18	Cu	1.841756	0.574379	0.663586
O19	O	1.333714	-0.063007	0.328745
O20	O	1.833714	0.436993	0.828745
C21	C	1.134277	-0.000053	0.170590
C22	C	1.634277	0.499947	0.670590
C23	C	1.008263	-0.000047	0.167576
C24	C	1.508263	0.499953	0.667576
N25	N	1.341703	-0.179228	0.163566
N26	N	1.841703	0.320772	0.663566
C27	C	0.777551	-0.000069	0.162033
C28	C	1.277551	0.499931	0.662033
C29	C	0.905936	-0.000057	0.165112
C30	C	1.405936	0.499943	0.665112
C31	C	1.418412	-0.218844	0.086918
C32	C	1.918412	0.281156	0.586918
C33	C	1.418418	-0.298091	0.086912
C34	C	1.918418	0.201909	0.586912
C35	C	1.341727	-0.337720	0.163575
C36	C	1.841727	0.162280	0.663575
C37	C	1.265003	-0.298094	0.240230
C38	C	1.765003	0.201906	0.740230
C39	C	1.264991	-0.218848	0.240225
C40	C	1.764991	0.281152	0.740225
N41	N	1.327902	-0.462134	0.263917
N42	N	1.827902	0.037866	0.763917
N43	N	1.327920	-0.537415	0.263918
N44	N	1.827920	-0.037415	0.763918
C45	C	1.341757	-0.576484	0.163591
C46	C	1.841757	-0.076484	0.663591
N47	N	1.355597	-0.537428	0.063261
N48	N	1.855597	-0.037428	0.563261
N49	N	1.355585	-0.462141	0.063262
N50	N	1.855585	0.037859	0.563262
C51	C	1.341731	-0.423649	0.163588
C52	C	1.841731	0.076351	0.663588
C53	C	1.418477	-0.702029	0.086930
C54	C	1.918477	-0.202029	0.586930
C55	C	1.418476	-0.781278	0.086923
C56	C	1.918476	-0.281278	0.586923
C57	C	1.265066	-0.781279	0.240251
C58	C	1.765066	-0.281279	0.740251
C59	C	1.265062	-0.702032	0.240248
C60	C	1.765062	-0.202032	0.740248
C61	C	1.341774	-0.662412	0.163589
C62	C	1.841774	-0.162412	0.663589
C63	C	1.549199	-0.000074	0.156571
C64	C	2.049199	0.499926	0.656571
C65	C	1.675213	-0.000075	0.159586
C66	C	2.175213	0.499925	0.659586
C67	C	1.348738	-0.000070	-0.043880
C68	C	1.848738	0.499930	0.456120
C69	C	1.345718	-0.000069	-0.169893
C70	C	1.845718	0.499931	0.330107
N71	N	1.341782	0.179099	0.163586
N72	N	1.841782	0.679099	0.663586
C73	C	1.343264	-0.000066	-0.272229
C74	C	1.843264	0.499934	0.227771
C75	C	1.340196	-0.000059	-0.400616
C76	C	1.840196	0.499941	0.099384
C77	C	1.334738	-0.000057	0.371041
C78	C	1.834738	0.499943	0.871041
C79	C	1.337758	-0.000053	0.497054
C80	C	1.837758	0.499947	0.997054
H81	H	1.480886	-0.330353	0.024493
H82	H	1.980886	0.169647	0.524493
O83	O	1.190459	-0.336670	0.314545
O84	O	1.690459	0.163330	0.814545
C85	C	1.120060	-0.382513	0.253287
C86	C	1.620060	0.117487	0.753287
H87	H	1.164723	-0.394387	0.164777
H88	H	1.664723	0.105613	0.664777
H89	H	1.102407	-0.438236	0.300544
H90	H	1.602407	0.061764	0.800544
H91	H	1.036125	-0.351986	0.245006
H92	H	1.536125	0.148014	0.745006
H93	H	1.202524	-0.186592	0.302643
H94	H	1.702524	0.313408	0.802643
O95	O	1.493023	-0.663654	0.012350
O96	O	1.993023	-0.163654	0.512350
C97	C	1.560744	-0.715618	-0.055295
C98	C	2.060744	-0.215618	0.444705
H99	H	1.514209	-0.772113	-0.056890
H100	H	2.014209	-0.272113	0.443110
H101	H	1.577497	-0.692727	-0.145823
H102	H	2.077497	-0.192727	0.354177
H103	H	1.645285	-0.724035	-0.017875
H104	H	2.145285	-0.224035	0.482125
O105	O	1.493042	-0.819849	0.012618
O106	O	1.993042	-0.319849	0.512618
C107	C	1.563449	-0.865662	0.073885
C108	C	2.063449	-0.365662	0.573885
H109	H	1.518783	-0.877529	0.162394
H110	H	2.018783	-0.377529	0.662394
H111	H	1.581120	-0.921391	0.026634
H112	H	2.081120	-0.421391	0.526634
H113	H	1.647374	-0.835113	0.082170
H114	H	2.147374	-0.335113	0.582170
H115	H	1.202618	-0.813544	0.302667
H116	H	1.702618	-0.313544	0.802667
O117	O	1.190513	-0.663662	0.314824
O118	O	1.690513	-0.163662	0.814824
C119	C	1.122803	-0.715628	0.382471
C120	C	1.622803	-0.215628	0.882471
H121	H	1.169350	-0.772112	0.384069
H122	H	1.669350	-0.272112	0.884069
H123	H	1.106043	-0.692724	0.472997
H124	H	1.606043	-0.192724	0.972997
H125	H	1.038265	-0.724070	0.345049
H126	H	1.538265	-0.224070	0.845049
H127	H	1.480872	-0.186587	0.024495
H128	H	1.980872	0.313413	0.524495
