data_functionalizedCrystal
_audit_creation_method	'MofGen! by Chris Wilmer'
_symmetry_space_group_name_H-M	'P1'
_symmetry_Int_Tables_number	1
_symmetry_cell_setting	triclinic
loop_
_symmetry_equiv_pos_as_xyz
  x,y,z
_cell_length_a	21.295420
_cell_length_b	21.295417
_cell_length_c	12.759387
_cell_angle_alpha	90.037489
_cell_angle_beta	90.023050
_cell_angle_gamma	90.027953
loop_
_atom_site_label
_atom_site_type_symbol
_atom_site_fract_x
_atom_site_fract_y
_atom_site_fract_z
Zn1	Zn	0.962349	-0.250605	0.594027
Zn2	Zn	1.462349	0.249395	1.094027
Zn3	Zn	0.962256	-0.355888	0.418327
Zn4	Zn	1.462256	0.144112	0.918327
Zn5	Zn	0.857075	-0.250634	0.418356
Zn6	Zn	1.357075	0.249366	0.918356
Zn7	Zn	0.857043	-0.355837	0.593959
Zn8	Zn	1.357043	0.144163	1.093959
O9	O	0.909680	-0.303241	0.506167
O10	O	1.409680	0.196759	1.006167
O11	O	1.050426	-0.264581	0.570737
O12	O	1.550426	0.235419	1.070737
O13	O	0.948278	-0.341959	0.271310
O14	O	1.448278	0.158041	0.771310
O15	O	0.871092	-0.162541	0.441701
O16	O	1.371092	0.337459	0.941701
O17	O	1.050357	-0.341932	0.441651
O18	O	1.550357	0.158068	0.941651
O19	O	0.948436	-0.162520	0.570765
O20	O	1.448436	0.337480	1.070765
O21	O	0.871002	-0.264629	0.271331
O22	O	1.371002	0.235371	0.771331
O23	O	0.768981	-0.264580	0.441634
O24	O	1.268981	0.235420	0.941634
O25	O	0.871037	-0.341845	0.740989
O26	O	1.371037	0.158155	1.240989
O27	O	0.768958	-0.341873	0.570648
O28	O	1.268958	0.158127	1.070648
O29	O	0.948405	-0.264532	0.741039
O30	O	1.448405	0.235468	1.241039
O31	O	0.948246	-0.443971	0.441584
O32	O	1.448246	0.056029	0.941584
O33	O	0.870947	-0.443934	0.570620
O34	O	1.370947	0.056066	1.070620
C35	C	0.746129	-0.303224	0.506137
C36	C	1.246129	0.196776	1.006137
C37	C	0.676161	-0.303232	0.506149
C38	C	1.176161	0.196768	1.006149
C39	C	0.176707	-0.343562	0.573280
C40	C	0.676707	0.156438	1.073280
C41	C	0.242450	-0.343562	0.573269
C42	C	0.742450	0.156438	1.073269
C43	C	0.275321	-0.303255	0.506200
C44	C	0.775321	0.196745	1.006200
C45	C	0.242445	-0.262957	0.439119
C46	C	0.742445	0.237043	0.939119
C47	C	0.176704	-0.262963	0.439125
C48	C	0.676704	0.237037	0.939125
N49	N	0.378561	-0.248139	0.498300
N50	N	0.878561	0.251861	0.998300
N51	N	0.441013	-0.248136	0.498301
N52	N	0.941013	0.251864	0.998301
C53	C	0.473396	-0.303238	0.506178
C54	C	0.973396	0.196762	1.006178
N55	N	0.440969	-0.358344	0.514075
N56	N	0.940969	0.141656	1.014075
N57	N	0.378511	-0.358347	0.514079
N58	N	0.878511	0.141653	1.014079
C59	C	0.346607	-0.303245	0.506187
C60	C	0.846607	0.196755	1.006187
C61	C	0.577550	-0.343537	0.573238
C62	C	1.077550	0.156463	1.073238
C63	C	0.643294	-0.343538	0.573220
C64	C	1.143294	0.156462	1.073220
C65	C	0.643288	-0.262928	0.439075
C66	C	1.143288	0.237072	0.939075
C67	C	0.577545	-0.262932	0.439088
C68	C	1.077545	0.237068	0.939088
C69	C	0.544680	-0.303236	0.506175
C70	C	1.044680	0.196764	1.006175
C71	C	0.909600	-0.466793	0.506114
C72	C	1.409600	0.033207	1.006114
C73	C	0.909624	-0.536761	0.506127
C74	C	1.409624	-0.036761	1.006127
C75	C	0.949874	-0.569560	0.573379
C76	C	1.449874	-0.069560	1.073379
C77	C	0.949896	-0.635302	0.573405
C78	C	1.449896	-0.135302	1.073405
C79	C	0.909675	-0.668243	0.506160
C80	C	1.409675	-0.168243	1.006160
C81	C	0.869417	-0.635437	0.438903
C82	C	1.369417	-0.135437	0.938903
C83	C	0.869391	-0.569696	0.438886
C84	C	1.369391	-0.069696	0.938886
N85	N	0.904917	-0.771512	0.414213
N86	N	1.404917	-0.271512	0.914213
N87	N	0.904945	-0.833963	0.414232
N88	N	1.404945	-0.333963	0.914232
C89	C	0.909748	-0.866318	0.506207
C90	C	1.409748	-0.366318	1.006207
N91	N	0.914535	-0.833862	0.598165
N92	N	1.414535	-0.333862	1.098165
N93	N	0.914510	-0.771405	0.598146
N94	N	1.414510	-0.271405	1.098146
C95	C	0.909697	-0.739529	0.506171
C96	C	1.409697	-0.239529	1.006171
C97	C	0.950024	-0.970402	0.573493
C98	C	1.450024	-0.470402	1.073493
C99	C	0.950042	-1.036146	0.573521
C100	C	1.450042	-0.536146	1.073521
C101	C	0.869566	-1.036279	0.439010
C102	C	1.369566	-0.536279	0.939010
C103	C	0.869545	-0.970537	0.438991
C104	C	1.369545	-0.470537	0.938991
C105	C	0.909778	-0.937602	0.506232
C106	C	1.409778	-0.437602	1.006232
C107	C	1.073871	-0.303259	0.506198
C108	C	1.573871	0.196741	1.006198
C109	C	1.143839	-0.303266	0.506212
C110	C	1.643839	0.196734	1.006212
C111	C	0.909728	-0.303179	0.780201
C112	C	1.409728	0.196821	1.280201
C113	C	0.909748	-0.303153	0.896978
C114	C	1.409748	0.196847	1.396978
C115	C	0.909778	-0.139051	0.506244
C116	C	1.409778	0.360949	1.006244
C117	C	0.909820	-0.069083	0.506276
C118	C	1.409820	0.430917	1.006276
C119	C	0.909669	-0.303257	0.233200
C120	C	1.409669	0.196743	0.733200
C121	C	0.909771	-0.303106	0.116424
C122	C	1.409771	0.196894	0.616424
C123	C	0.990317	-0.222652	0.897050
C124	C	1.490317	0.277348	1.397050
C125	C	1.030610	-0.182392	0.951947
C126	C	1.530610	0.317608	1.451947
C127	C	1.030625	-0.182369	1.061669
C128	C	1.530625	0.317631	1.561669
C129	C	0.990342	-0.222609	1.116496
C130	C	1.490342	0.277391	1.616496
C131	C	0.950049	-0.262869	1.061599
C132	C	1.450049	0.237131	1.561599
C133	C	0.950039	-0.262889	0.951875
C134	C	1.450039	0.237111	1.451875
C135	C	0.869478	-0.343366	1.061527
C136	C	1.369478	0.156634	1.561527
C137	C	0.869465	-0.343393	0.951805
C138	C	1.369465	0.156607	1.451805
C139	C	0.829195	-0.383606	1.116354
C140	C	1.329195	0.116394	1.616354
C141	C	0.788904	-0.423871	1.061457
C142	C	1.288904	0.076129	1.561457
C143	C	0.788891	-0.423892	0.951729
C144	C	1.288891	0.076108	1.451729
C145	C	0.829172	-0.383653	0.896908
C146	C	1.329172	0.116347	1.396908
H147	H	0.269214	-0.230140	0.384510
H148	H	0.769214	0.269860	0.884510
H149	H	0.982632	-0.542746	0.628132
H150	H	1.482632	-0.042746	1.128132
Cl151	Cl	1.000504	-0.676543	0.657950
Cl152	Cl	1.500504	-0.176543	1.157950
H153	H	0.149943	-0.230147	0.384509
H154	H	0.649943	0.269853	0.884509
H155	H	0.550790	-0.376355	0.627863
H156	H	1.050790	0.123645	1.127863
H157	H	0.149952	-0.376382	0.627904
H158	H	0.649952	0.123618	1.127904
Cl159	Cl	0.818849	-0.676848	0.354373
Cl160	Cl	1.318849	-0.176848	0.854373
H161	H	0.990314	-0.222672	0.807709
H162	H	1.490314	0.277328	1.307709
Cl163	Cl	1.081234	-0.131792	0.883017
Cl164	Cl	1.581234	0.368208	1.383017
H165	H	0.670054	-0.376356	0.627832
H166	H	1.170054	0.123644	1.127832
H167	H	0.670052	-0.230112	0.384463
H168	H	1.170052	0.269888	0.884463
Cl169	Cl	0.738264	-0.474449	1.130387
Cl170	Cl	1.238264	0.025551	1.630387
Cl171	Cl	0.283778	-0.394222	0.657591
Cl172	Cl	0.783778	0.105778	1.157591
Cl173	Cl	0.536223	-0.212267	0.354777
Cl174	Cl	1.036223	0.287733	0.854777
Cl175	Cl	0.818942	-0.929302	0.354441
Cl176	Cl	1.318942	-0.429302	0.854441
Cl177	Cl	0.819000	-1.077685	0.354475
Cl178	Cl	1.319000	-0.577685	0.854475
Cl179	Cl	0.738230	-0.474505	0.882725
Cl180	Cl	1.238230	0.025495	1.382725
H181	H	0.982782	-0.943586	0.628247
H182	H	1.482782	-0.443586	1.128247
H183	H	0.836614	-0.542990	0.384121
H184	H	1.336614	-0.042990	0.884121
H185	H	0.982818	-1.062850	0.628290
H186	H	1.482818	-0.562850	1.128290
H187	H	1.063431	-0.149582	1.106366
H188	H	1.563431	0.350418	1.606366
Cl189	Cl	0.990357	-0.222573	1.254433
Cl190	Cl	1.490357	0.277427	1.754433
Cl191	Cl	0.829214	-0.383578	1.254291
Cl192	Cl	1.329214	0.116422	1.754291
H193	H	0.829168	-0.383670	0.807567
H194	H	1.329168	0.116330	1.307567
