data_functionalizedCrystal
_audit_creation_method	'MofGen! by Chris Wilmer'
_symmetry_space_group_name_H-M	'P1'
_symmetry_Int_Tables_number	1
_symmetry_cell_setting	triclinic
loop_
_symmetry_equiv_pos_as_xyz
  x,y,z
_cell_length_a	12.759401
_cell_length_b	12.759393
_cell_length_c	12.759400
_cell_angle_alpha	89.976116
_cell_angle_beta	90.004970
_cell_angle_gamma	89.979062
loop_
_atom_site_label
_atom_site_type_symbol
_atom_site_fract_x
_atom_site_fract_y
_atom_site_fract_z
Zn1	Zn	1.606349	-0.594068	-0.418173
Zn2	Zn	1.606274	-0.418409	-0.593888
Zn3	Zn	1.430647	-0.418404	-0.418229
Zn4	Zn	1.430674	-0.594046	-0.593815
O5	O	1.518486	-0.506232	-0.506026
O6	O	1.753360	-0.570778	-0.441489
O7	O	1.582935	-0.271387	-0.570641
O8	O	1.453975	-0.441713	-0.271200
O9	O	1.753305	-0.441722	-0.570586
O10	O	1.583061	-0.570773	-0.271159
O11	O	1.453902	-0.271383	-0.441584
O12	O	1.283630	-0.441691	-0.441513
O13	O	1.454019	-0.741070	-0.570461
O14	O	1.283649	-0.570735	-0.570516
O15	O	1.583087	-0.741087	-0.441418
O16	O	1.582960	-0.441700	-0.740899
O17	O	1.453947	-0.570740	-0.740846
C18	C	1.245519	-0.506211	-0.506013
C19	C	1.128742	-0.506227	-0.506033
C20	C	1.518564	-0.780265	-0.505925
C21	C	1.518598	-0.897042	-0.505882
C22	C	1.073918	-0.573314	-0.573307
C23	C	0.964194	-0.573335	-0.573311
C24	C	0.964128	-0.439172	-0.438764
C25	C	1.073850	-0.439157	-0.438756
C26	C	1.585808	-0.951914	-0.438678
C27	C	1.585826	-1.061638	-0.438633
C28	C	1.451420	-1.061608	-0.573004
C29	C	1.451398	-0.951886	-0.573044
C30	C	1.792519	-0.506253	-0.506040
C31	C	1.909296	-0.506262	-0.506046
C32	C	1.518477	-0.506241	-0.778993
C33	C	1.518569	-0.506281	-0.895770
C34	C	1.518468	-0.233264	-0.506051
C35	C	1.518638	-0.116488	-0.505798
C36	C	1.518523	-0.506245	-0.231993
C37	C	1.518539	-0.506251	-0.115216
C38	C	1.451342	-0.439062	-0.060374
C39	C	1.451354	-0.439079	0.049350
C40	C	1.585770	-0.573477	0.049380
C41	C	1.585752	-0.573465	-0.060342
H42	H	1.118607	-0.627929	-0.628086
O43	O	1.386114	-0.373908	0.102786
C44	C	1.400554	-0.388311	0.211397
H45	H	1.434983	-0.469398	0.226406
H46	H	1.456491	-0.326005	0.242515
C47	C	1.251969	-0.279084	0.249296
C48	C	1.294247	-0.378680	0.267730
H49	H	1.186397	-0.273139	0.284047
H50	H	1.242243	-0.269376	0.176123
H51	H	1.298594	-0.227173	0.275228
H52	H	1.247629	-0.430588	0.241787
H53	H	1.303964	-0.388396	0.340901
O54	O	1.386074	-0.898739	-0.638431
C55	C	1.326755	-0.970671	-0.697689
H56	H	1.369800	-1.048893	-0.701306
H57	H	1.246970	-0.982329	-0.659206
C58	C	1.258718	-0.831760	-0.805076
C59	C	1.311591	-0.927831	-0.809526
H60	H	1.249359	-0.805333	-0.874060
H61	H	1.298679	-0.783296	-0.765150
H62	H	1.192236	-0.841487	-0.773001
H63	H	1.378076	-0.918100	-0.841587
H64	H	1.271640	-0.976292	-0.849459
H65	H	1.640472	-0.628185	-0.104996
H66	H	0.919421	-0.384565	-0.383991
O67	O	1.651216	-1.114778	-0.373320
C68	C	1.710499	-1.042838	-0.314035
H69	H	1.714113	-0.964625	-0.357100
H70	H	1.672039	-1.031163	-0.234243
C71	C	1.817889	-1.181743	-0.245994
C72	C	1.822335	-1.085683	-0.298892
H73	H	1.886873	-1.208173	-0.236648
H74	H	1.777946	-1.230212	-0.285932
H75	H	1.785834	-1.172001	-0.179506
H76	H	1.854377	-1.095429	-0.365383
H77	H	1.862285	-1.037217	-0.258964
O78	O	1.385948	-0.373747	-0.113517
C79	C	1.326658	-0.314432	-0.041577
H80	H	1.323048	-0.357475	0.036649
H81	H	1.365109	-0.234643	-0.029935
C82	C	1.219262	-0.246411	-0.180472
C83	C	1.214820	-0.299281	-0.084395
H84	H	1.150276	-0.237060	-0.206885
H85	H	1.259209	-0.286369	-0.228940
H86	H	1.251309	-0.179926	-0.170757
H87	H	1.182786	-0.365770	-0.094114
H88	H	1.174865	-0.259334	-0.035929
O89	O	1.651030	-0.638659	0.102849
C90	C	1.636623	-0.624281	0.211454
H91	H	1.602194	-0.543199	0.226417
H92	H	1.580698	-0.686597	0.242617
C93	C	1.785225	-0.733507	0.249400
C94	C	1.742947	-0.633918	0.267779
H95	H	1.850809	-0.739457	0.284146
H96	H	1.794930	-0.743198	0.176231
H97	H	1.738611	-0.785427	0.275369
H98	H	1.789554	-0.582002	0.241798
H99	H	1.733252	-0.624219	0.340945
H100	H	1.640524	-0.907263	-0.383988
H101	H	0.919560	-0.627966	-0.628090
H102	H	1.118489	-0.384527	-0.383967
H103	H	1.396710	-1.106276	-0.627687
