data_functionalizedCrystal
_audit_creation_method	'MofGen! by Chris Wilmer'
_symmetry_space_group_name_H-M	'P1'
_symmetry_Int_Tables_number	1
_symmetry_cell_setting	triclinic
loop_
_symmetry_equiv_pos_as_xyz
  x,y,z
_cell_length_a	17.699077
_cell_length_b	23.532407
_cell_length_c	16.176319
_cell_angle_alpha	89.984703
_cell_angle_beta	89.993140
_cell_angle_gamma	83.064661
loop_
_atom_site_label
_atom_site_type_symbol
_atom_site_fract_x
_atom_site_fract_y
_atom_site_fract_z
O1	O	1.003716	0.072004	-0.068751
O2	O	0.783290	0.081377	-0.068757
O3	O	0.900150	-0.006222	-0.068731
O4	O	0.886856	0.159603	-0.068777
O5	O	0.900134	-0.006228	0.068762
O6	O	0.783274	0.081372	0.068736
O7	O	1.003700	0.071998	0.068742
Cu8	Cu	0.893486	0.076684	0.081293
Cu9	Cu	0.893504	0.076691	-0.081308
O10	O	0.886840	0.159598	0.068716
C11	C	0.755086	0.081039	-0.000011
C12	C	0.671073	0.080033	-0.000012
C13	C	0.631600	0.079556	0.074936
C14	C	0.552662	0.078602	0.074938
C15	C	0.513198	0.078129	-0.000011
C16	C	0.552678	0.078604	-0.074965
C17	C	0.631615	0.079554	-0.074965
C18	C	0.234334	0.074772	-0.074966
C19	C	0.155391	0.073823	-0.074960
C20	C	0.155381	0.073819	0.074937
C21	C	0.234318	0.074770	0.074937
C22	C	0.273791	0.075242	-0.000017
C23	C	0.359385	0.076275	-0.000017
C24	C	0.427606	0.077099	-0.000011
C25	C	0.899803	-0.027442	0.000020
C26	C	0.898786	-0.090662	0.000033
C27	C	0.825433	-0.357039	-0.000021
C28	C	0.826378	-0.297636	-0.000015
O29	O	0.768188	-0.261058	-0.000042
N30	N	0.895852	-0.274811	-0.000003
C31	C	0.964384	-0.311393	-0.000007
O32	O	1.023563	-0.286524	0.000003
C33	C	0.963438	-0.370795	-0.000019
C34	C	0.893960	-0.393616	-0.000022
C35	C	0.755961	-0.379861	-0.000025
C36	C	0.755015	-0.439260	-0.000030
C37	C	0.823543	-0.475837	-0.000031
C38	C	0.893015	-0.453015	-0.000027
C39	C	1.031969	-0.407375	-0.000028
C40	C	1.031017	-0.466781	-0.000041
C41	C	0.961539	-0.489602	-0.000044
C42	C	0.960597	-0.548991	-0.000032
N43	N	0.891123	-0.571815	-0.000044
C44	C	0.822596	-0.535238	-0.000043
C45	C	0.966366	-0.186645	0.000018
C46	C	0.967313	-0.127244	0.000036
C47	C	0.829307	-0.113491	0.000026
C48	C	0.828361	-0.172893	0.000014
C49	C	0.896893	-0.209470	0.000006
C50	C	0.820617	-0.659981	-0.000052
C51	C	0.819677	-0.719386	-0.000054
C52	C	0.957683	-0.733133	-0.000049
C53	C	0.958623	-0.673734	-0.000043
C54	C	0.890083	-0.637158	-0.000048
O55	O	1.018756	-0.585604	-0.000008
O56	O	0.763427	-0.560115	-0.000063
C57	C	1.031904	0.072336	-0.000006
C58	C	1.115917	0.073342	-0.000010
C59	C	0.887187	0.180817	-0.000037
C60	C	0.888205	0.244037	-0.000055
N61	N	0.893478	0.076679	0.195659
N62	N	0.893518	0.076691	-0.195674
C63	C	0.945239	0.037906	0.238934
C64	C	0.945243	0.037906	0.325482
C65	C	0.893489	0.076681	0.368751
C66	C	0.841722	0.115456	0.325469
C67	C	0.841715	0.115454	0.238924
C68	C	0.841748	0.115467	0.674497
C69	C	0.841760	0.115468	0.761049
C70	C	0.945275	0.037919	0.761055
C71	C	0.945269	0.037916	0.674510
C72	C	0.893500	0.076689	0.631235
C73	C	0.893495	0.076689	0.537391
C74	C	0.893496	0.076685	0.462594
H75	H	0.266445	0.075158	0.135968
H76	H	0.123233	0.073432	0.135968
N77	N	0.512356	0.078125	0.151507
N78	N	0.513892	0.118363	0.201671
H79	H	0.485430	0.118027	0.255754
H80	H	0.520541	0.078215	-0.135989
N81	N	1.101030	-0.504134	-0.000054
N82	N	1.163053	-0.483745	-0.000052
H83	H	1.212500	-0.510124	-0.000060
N84	N	0.671905	0.080029	0.151498
N85	N	0.723230	0.040429	0.168238
H86	H	0.751693	0.040761	0.222313
N87	N	0.788887	0.155083	0.805237
N88	N	0.742668	0.189698	0.766590
H89	H	0.705328	0.217675	0.797797
H90	H	0.763098	-0.737963	-0.000053
H91	H	1.013476	-0.762925	-0.000045
N92	N	0.115091	0.073341	-0.151529
N93	N	0.150342	0.073763	-0.218446
H94	H	0.121880	0.073423	-0.272521
H95	H	1.015197	-0.655152	-0.000029
H96	H	0.266464	0.075154	-0.135998
N97	N	0.788843	0.155062	0.369655
N98	N	0.718895	0.154344	0.360004
H99	H	0.681547	0.182317	0.391209
N100	N	0.750599	-0.622634	-0.000064
N101	N	0.688581	-0.643028	-0.000070
H102	H	0.639130	-0.616653	-0.000076
H103	H	0.663753	0.079944	-0.135996
N104	N	0.998071	-0.001737	0.194752
N105	N	1.044251	-0.036376	0.233406
H106	H	1.081547	-0.064390	0.202205
N107	N	0.684038	-0.462557	-0.000038
N108	N	0.622864	-0.429883	-0.000042
H109	H	0.572732	-0.446332	-0.000052
H110	H	0.799597	0.147038	0.639270
H111	H	0.987390	0.006333	0.360716
N112	N	0.685948	-0.342512	-0.000029
N113	N	0.623931	-0.362908	-0.000036
H114	H	0.574479	-0.336534	-0.000034
N115	N	0.998149	-0.001688	0.630325
N116	N	1.044365	-0.036303	0.668975
H117	H	1.081715	-0.064275	0.637771
N118	N	0.788834	0.155061	0.194728
N119	N	0.742628	0.189680	0.233369
H120	H	0.705276	0.217653	0.202158
N121	N	0.757392	-0.196203	0.000024
N122	N	0.711294	-0.184977	0.057984
H123	H	0.661170	-0.201438	0.057992
N124	N	0.759313	-0.076114	0.000028
N125	N	0.760176	-0.023079	0.000035
H126	H	0.710746	0.003321	0.000037
N127	N	1.038283	-0.103937	0.000067
N128	N	1.084367	-0.115193	0.058029
H129	H	1.134492	-0.098734	0.058049
N130	N	1.036382	-0.223997	0.000014
N131	N	1.098402	-0.203604	0.000024
H132	H	1.147851	-0.229981	0.000021
N133	N	0.998141	-0.001702	0.805259
N134	N	0.997501	-0.054341	0.795611
H135	H	1.034837	-0.082323	0.826828
H136	H	1.088546	-0.388805	-0.000026
