data_functionalizedCrystal
_audit_creation_method	'MofGen! by Chris Wilmer'
_symmetry_space_group_name_H-M	'P1'
_symmetry_Int_Tables_number	1
_symmetry_cell_setting	triclinic
loop_
_symmetry_equiv_pos_as_xyz
  x,y,z
_cell_length_a	12.759395
_cell_length_b	12.759394
_cell_length_c	12.759393
_cell_angle_alpha	89.968780
_cell_angle_beta	89.978726
_cell_angle_gamma	90.015525
loop_
_atom_site_label
_atom_site_type_symbol
_atom_site_fract_x
_atom_site_fract_y
_atom_site_fract_z
Zn1	Zn	1.606266	-0.418196	-0.594024
Zn2	Zn	1.606157	-0.593912	-0.418342
Zn3	Zn	1.430565	-0.418250	-0.418358
Zn4	Zn	1.430556	-0.593836	-0.593978
O5	O	1.518386	-0.506049	-0.506176
O6	O	1.753273	-0.441515	-0.570732
O7	O	1.582822	-0.570664	-0.271323
O8	O	1.453921	-0.271222	-0.441687
O9	O	1.753192	-0.570612	-0.441659
O10	O	1.583008	-0.271182	-0.570748
O11	O	1.453815	-0.441606	-0.271335
O12	O	1.283543	-0.441532	-0.441642
O13	O	1.453907	-0.570483	-0.741006
O14	O	1.283536	-0.570535	-0.570670
O15	O	1.583000	-0.441441	-0.741039
O16	O	1.582814	-0.740923	-0.441615
O17	O	1.453801	-0.740867	-0.570654
C18	C	1.245418	-0.506032	-0.506153
C19	C	1.128642	-0.506050	-0.506169
C20	C	0.909250	-0.640621	-0.640347
C21	C	0.964138	-0.707885	-0.707412
C22	C	1.073860	-0.707873	-0.707398
C23	C	1.128696	-0.640591	-0.640311
C24	C	1.073808	-0.573327	-0.573247
C25	C	0.964084	-0.573345	-0.573270
C26	C	1.073754	-0.438786	-0.439104
C27	C	0.964032	-0.438792	-0.439121
C28	C	1.128590	-0.371504	-0.372017
C29	C	1.073702	-0.304233	-0.304956
C30	C	0.963974	-0.304248	-0.304973
C31	C	0.909144	-0.371528	-0.372057
C32	C	1.518323	-0.779016	-0.506150
C33	C	1.518392	-0.895793	-0.506175
C34	C	1.652834	-0.895797	-0.371907
C35	C	1.720082	-0.950661	-0.304785
C36	C	1.720144	-1.060382	-0.304814
C37	C	1.652952	-1.115243	-0.371973
C38	C	1.585704	-1.060380	-0.439095
C39	C	1.585647	-0.950656	-0.439057
C40	C	1.451269	-1.060375	-0.573366
C41	C	1.451200	-0.950654	-0.573334
C42	C	1.384077	-1.115236	-0.640526
C43	C	1.316822	-1.060373	-0.707644
C44	C	1.316762	-0.950645	-0.707612
C45	C	1.383952	-0.895790	-0.640456
C46	C	1.792419	-0.506066	-0.506199
C47	C	1.909196	-0.506074	-0.506209
C48	C	1.518465	-0.505948	-0.780209
C49	C	1.518498	-0.505905	-0.896986
C50	C	1.518478	-0.232015	-0.506224
C51	C	1.518517	-0.115238	-0.506245
C52	C	1.585722	-0.438702	-0.951867
C53	C	1.585740	-0.438657	-1.061591
C54	C	1.451307	-0.573026	-1.061543
C55	C	1.451285	-0.573065	-0.951821
C56	C	1.518368	-0.506073	-0.233208
C57	C	1.518538	-0.505820	-0.116432
H58	H	0.819909	-0.640628	-0.640376
H59	H	0.819803	-0.371542	-0.372082
Cl60	Cl	1.142865	-0.792439	-0.791703
Cl61	Cl	0.895197	-0.792479	-0.791731
H62	H	1.218037	-0.640595	-0.640297
H63	H	1.217931	-0.371503	-0.372006
H64	H	1.640449	-0.384013	-0.907224
Cl65	Cl	1.232369	-1.129345	-0.792070
Cl66	Cl	1.804690	-1.129356	-0.220437
H67	H	1.383903	-0.806449	-0.640416
Cl68	Cl	1.232222	-0.881683	-0.792004
Cl69	Cl	1.670263	-0.354178	-1.130580
H70	H	1.653017	-1.204584	-0.372000
H71	H	1.396586	-0.627708	-1.106204
Cl72	Cl	1.366761	-0.657550	-0.882822
H73	H	1.118358	-0.249462	-0.250334
H74	H	0.919291	-0.249474	-0.250360
Cl75	Cl	1.383710	-1.253172	-0.640117
H76	H	1.774792	-0.905983	-0.250106
Cl77	Cl	1.653057	-0.757861	-0.372161
