data_functionalizedCrystal
_audit_creation_method	'MofGen! by Chris Wilmer'
_symmetry_space_group_name_H-M	'P1'
_symmetry_Int_Tables_number	1
_symmetry_cell_setting	triclinic
loop_
_symmetry_equiv_pos_as_xyz
  x,y,z
_cell_length_a	14.044220
_cell_length_b	14.044220
_cell_length_c	13.101039
_cell_angle_alpha	93.671451
_cell_angle_beta	86.328313
_cell_angle_gamma	93.188878
loop_
_atom_site_label
_atom_site_type_symbol
_atom_site_fract_x
_atom_site_fract_y
_atom_site_fract_z
O1	O	1.272352	0.234978	0.085101
O2	O	1.772352	0.734978	0.585101
O3	O	0.995679	0.226674	0.085127
O4	O	1.495679	0.726674	0.585127
O5	O	1.129863	0.092490	0.085110
O6	O	1.629863	0.592490	0.585110
O7	O	1.138169	0.369162	0.085118
O8	O	1.638169	0.869162	0.585118
O9	O	1.139494	0.082850	-0.085321
O10	O	1.639494	0.582850	0.414679
O11	O	1.005310	0.217034	-0.085304
O12	O	1.505310	0.717034	0.414696
O13	O	1.281983	0.225338	-0.085330
O14	O	1.781983	0.725338	0.414670
Zn15	Zn	1.145176	0.219656	-0.112376
Zn16	Zn	1.645176	0.719656	0.387624
Zn17	Zn	1.132487	0.232357	0.112174
Zn18	Zn	1.632487	0.732357	0.612174
O19	O	1.147800	0.359522	-0.085313
O20	O	1.647800	0.859522	0.414687
C21	C	0.964873	0.218219	-0.000085
C22	C	1.464873	0.718219	0.499915
C23	C	0.858730	0.207375	-0.000075
C24	C	1.358730	0.707375	0.499925
C25	C	1.131043	0.052048	-0.000104
C26	C	1.631043	0.552048	0.499896
C27	C	1.120198	-0.054094	-0.000100
C28	C	1.620198	0.445906	0.499900
N29	N	1.123827	0.241018	0.265424
N30	N	1.623827	0.741018	0.765424
C31	C	0.664393	0.187547	-0.000096
C32	C	1.164393	0.687547	0.499904
C33	C	0.613263	0.264461	-0.000098
C34	C	1.113263	0.764461	0.499902
C35	C	0.505128	0.253429	-0.000109
C36	C	1.005128	0.753429	0.499891
C37	C	0.772538	0.198578	-0.000084
C38	C	1.272538	0.698578	0.499916
C39	C	1.312790	0.233794	-0.000115
C40	C	1.812790	0.733794	0.499885
C41	C	1.418933	0.244638	-0.000119
C42	C	1.918933	0.744638	0.499881
C43	C	1.146620	0.399964	-0.000096
C44	C	1.646620	0.899964	0.499904
C45	C	1.157464	0.506107	-0.000093
C46	C	1.657464	1.006107	0.499907
C47	C	1.177291	0.700444	-0.000100
C48	C	1.677291	1.200444	0.499900
C49	C	1.100376	0.751574	-0.000094
C50	C	1.600376	1.251574	0.499906
C51	C	1.111408	0.859710	-0.000097
C52	C	1.611408	1.359710	0.499903
C53	C	1.166260	0.592298	-0.000096
C54	C	1.666260	1.092298	0.499904
N55	N	1.153843	0.210987	-0.265626
N56	N	1.653843	0.710987	0.234374
C57	C	1.112036	0.252801	0.474468
C58	C	1.612036	0.752801	0.974468
C59	C	1.165631	0.199207	0.525336
C60	C	1.665631	0.699207	1.025336
C61	C	1.159071	0.205763	0.641656
C62	C	1.659071	0.705763	1.141656
C63	C	1.118595	0.246246	0.358138
C64	C	1.618595	0.746246	0.858138
H65	H	0.650702	0.338595	-0.000091
H66	H	1.150702	0.838595	0.499909
C67	C	1.000228	0.701004	-0.000092
C68	C	1.500228	1.201004	0.499908
H69	H	1.005853	0.633904	-0.000101
H70	H	1.505853	1.133904	0.499899
H71	H	0.963160	0.722311	0.059339
H72	H	1.463160	1.222311	0.559339
H73	H	0.969894	0.715585	-0.059534
H74	H	1.469894	1.215585	0.440466
H75	H	0.626957	0.113419	-0.000104
H76	H	1.126957	0.613419	0.499896
H77	H	1.251419	0.737881	-0.000111
H78	H	1.751419	1.237881	0.499889
H79	H	1.216442	0.148399	0.481528
H80	H	1.716442	0.648399	0.981528
C81	C	1.043389	0.321425	0.533642
C82	C	1.543389	0.821425	1.033642
H83	H	1.047923	0.316874	0.605191
H84	H	1.547923	0.816874	1.105191
H85	H	1.060119	0.385054	0.516135
H86	H	1.560119	0.885054	1.016135
H87	H	0.979763	0.304664	0.516125
H88	H	1.479763	0.804664	1.016125
