data_functionalizedCrystal
_audit_creation_method	'MofGen! by Chris Wilmer'
_symmetry_space_group_name_H-M	'P1'
_symmetry_Int_Tables_number	1
_symmetry_cell_setting	triclinic
loop_
_symmetry_equiv_pos_as_xyz
  x,y,z
_cell_length_a	21.295418
_cell_length_b	17.077402
_cell_length_c	17.077396
_cell_angle_alpha	90.030619
_cell_angle_beta	89.963466
_cell_angle_gamma	89.961304
loop_
_atom_site_label
_atom_site_type_symbol
_atom_site_fract_x
_atom_site_fract_y
_atom_site_fract_z
Zn1	Zn	0.962344	0.312170	-0.444240
Zn2	Zn	1.295678	0.645504	-0.110906
Zn3	Zn	1.629011	0.978837	0.222427
Zn4	Zn	0.962274	0.443447	-0.312971
Zn5	Zn	1.295607	0.776780	0.020363
Zn6	Zn	1.628941	1.110114	0.353696
Zn7	Zn	0.857081	0.312235	-0.312944
Zn8	Zn	1.190414	0.645569	0.020390
Zn9	Zn	1.523747	0.978902	0.353723
Zn10	Zn	0.857051	0.443434	-0.444150
Zn11	Zn	1.190384	0.776768	-0.110817
Zn12	Zn	1.523718	1.110101	0.222516
O13	O	0.909688	0.377822	-0.378576
O14	O	1.243021	0.711155	-0.045243
O15	O	1.576354	1.044488	0.288091
O16	O	1.050424	0.329562	-0.426876
O17	O	1.383758	0.662896	-0.093542
O18	O	1.717091	0.996229	0.239791
O19	O	0.948303	0.426074	-0.203120
O20	O	1.281636	0.759408	0.130213
O21	O	1.614970	1.092741	0.463546
O22	O	0.871086	0.202380	-0.330386
O23	O	1.204419	0.535713	0.002947
O24	O	1.537753	0.869047	0.336280
O25	O	1.050373	0.426011	-0.330433
O26	O	1.383706	0.759344	0.002901
O27	O	1.717039	1.092678	0.336234
O28	O	0.948423	0.202332	-0.426849
O29	O	1.281756	0.535665	-0.093516
O30	O	1.615090	0.868999	0.239817
O31	O	0.871018	0.329674	-0.203100
O32	O	1.204351	0.663007	0.130233
O33	O	1.537685	0.996340	0.463567
O34	O	0.768987	0.329661	-0.330299
O35	O	1.102321	0.662995	0.003034
O36	O	1.435654	0.996328	0.336367
O37	O	0.871035	0.425989	-0.554009
O38	O	1.204369	0.759323	-0.220676
O39	O	1.537702	1.092656	0.112658
O40	O	0.768966	0.426052	-0.426696
O41	O	1.102299	0.759386	-0.093363
O42	O	1.435632	1.092719	0.239970
O43	O	0.948394	0.329550	-0.554075
O44	O	1.281727	0.662883	-0.220742
O45	O	1.615061	0.996217	0.112592
O46	O	0.948274	0.553292	-0.330346
O47	O	1.281607	0.886626	0.002987
O48	O	1.614941	1.219959	0.336321
O49	O	0.870967	0.553283	-0.426723
O50	O	1.204300	0.886616	-0.093390
O51	O	1.537634	1.219950	0.239944
C52	C	0.746136	0.377863	-0.378486
C53	C	1.079469	0.711196	-0.045152
C54	C	1.412803	1.044530	0.288181
C55	C	0.676168	0.377900	-0.378466
C56	C	1.009501	0.711233	-0.045132
C57	C	1.342834	1.044566	0.288201
C58	C	0.909627	0.581770	-0.378545
C59	C	1.242960	0.915103	-0.045211
C60	C	1.576293	1.248436	0.288122
C61	C	0.909658	0.669019	-0.378558
C62	C	1.242992	1.002353	-0.045224
C63	C	1.576325	1.335686	0.288109
C64	C	0.909719	0.377761	-0.583320
C65	C	1.243052	0.711094	-0.249987
C66	C	1.576386	1.044428	0.083346
C67	C	0.909733	0.377735	-0.670570
C68	C	1.243066	0.711068	-0.337237
C69	C	1.576399	1.044402	-0.003904
C70	C	0.643306	0.428157	-0.428585
C71	C	0.976640	0.761490	-0.095251
C72	C	1.309973	1.094824	0.238082
C73	C	0.577564	0.428138	-0.428620
C74	C	0.910897	0.761471	-0.095286
C75	C	1.244230	1.094804	0.238047
C76	C	0.544685	0.377869	-0.378522
C77	C	0.878019	0.711203	-0.045189
C78	C	1.211352	1.044536	0.288145
C79	C	0.577555	0.327602	-0.328400
C80	C	0.910888	0.660935	0.004934
C81	C	1.244221	0.994269	0.338267
C82	C	0.643296	0.327617	-0.328372
C83	C	0.976629	0.660951	0.004962
C84	C	1.309963	0.994284	0.338295
N85	N	0.441416	0.371740	-0.309865
N86	N	0.774749	0.705073	0.023468
N87	N	1.108082	1.038407	0.356801
N88	N	0.378964	0.371730	-0.309894
N89	N	0.712297	0.705063	0.023439
N90	N	1.045631	1.038397	0.356772
C91	C	0.346611	0.377819	-0.378605
C92	C	0.679944	0.711152	-0.045272
C93	C	1.013277	1.044486	0.288061
N94	N	0.379068	0.383934	-0.447288
N95	N	0.712401	0.717267	-0.113955
N96	N	1.045734	1.050600	0.219379
N97	N	0.441525	0.383948	-0.447258
N98	N	0.774858	0.717281	-0.113925
N99	N	1.108192	1.050614	0.219409
C100	C	0.473400	0.377847	-0.378548
C101	C	0.806733	0.711180	-0.045214
C102	C	1.140067	1.044513	0.288119
C103	C	0.242464	0.428058	-0.428767
C104	C	0.575797	0.761392	-0.095433
C105	C	0.909130	1.094725	0.237900
C106	C	0.176720	0.428033	-0.428803
C107	C	0.510053	0.761367	-0.095470
C108	C	0.843386	1.094700	0.237863
C109	C	0.176712	0.327502	-0.328576
C110	C	0.510046	0.660835	0.004757
C111	C	0.843379	0.994169	0.338090
C112	C	0.242455	0.327523	-0.328547
C113	C	0.575788	0.660856	0.004787
C114	C	0.909121	0.994189	0.338120
C115	C	0.275326	0.377805	-0.378641
C116	C	0.608660	0.711138	-0.045308
C117	C	0.941993	1.044472	0.288026
C118	C	1.073878	0.377781	-0.378667
C119	C	1.407211	0.711114	-0.045334
C120	C	1.740544	1.044448	0.287999
C121	C	1.143846	0.377763	-0.378706
C122	C	1.477179	0.711097	-0.045373
C123	C	1.810513	1.044430	0.287961
C124	C	0.909766	0.173077	-0.378625
C125	C	1.243099	0.506411	-0.045291
C126	C	1.576432	0.839744	0.288042
C127	C	0.909799	0.085828	-0.378645
C128	C	1.243132	0.419161	-0.045312
C129	C	1.576466	0.752494	0.288021
C130	C	0.949953	0.709988	-0.328428
C131	C	1.283287	1.043322	0.004905
C132	C	1.616620	1.376655	0.338239
C133	C	0.949984	0.791969	-0.328448
C134	C	1.283317	1.125302	0.004885
C135	C	1.616651	1.458635	0.338219
C136	C	0.909716	0.832979	-0.378594
C137	C	1.243050	1.166312	-0.045261
C138	C	1.576383	1.499645	0.288072
C139	C	0.869420	0.792004	-0.428729
C140	C	1.202753	1.125337	-0.095396
C141	C	1.536086	1.458671	0.237937
C142	C	0.869393	0.710025	-0.428713
C143	C	1.202726	1.043359	-0.095379
C144	C	1.536059	1.376692	0.237954
C145	C	0.869478	0.962874	-0.428759
C146	C	1.202811	1.296207	-0.095426
C147	C	1.536145	1.629541	0.237907
C148	C	0.869504	1.044859	-0.428775
C149	C	1.202837	1.378192	-0.095442
C150	C	1.536171	1.711525	0.237892
C151	C	0.950069	1.044818	-0.328495
C152	C	1.283403	1.378151	0.004839
C153	C	1.616736	1.711484	0.338172
C154	C	0.950042	0.962839	-0.328478
C155	C	1.283376	1.296172	0.004855
C156	C	1.616709	1.629505	0.338189
C157	C	0.909745	0.921870	-0.378612
C158	C	1.243078	1.255203	-0.045279
C159	C	1.576411	1.588536	0.288055
C160	C	0.869503	0.327533	-0.711549
C161	C	1.202836	0.660867	-0.378216
C162	C	1.536169	0.994200	-0.044883
C163	C	0.869513	0.327515	-0.793530
C164	C	1.202846	0.660849	-0.460197
C165	C	1.536180	0.994182	-0.126863
C166	C	0.909757	0.377696	-0.834530
C167	C	1.243090	0.711029	-0.501196
C168	C	1.576423	1.044363	-0.167863
C169	C	0.949989	0.427903	-0.793545
C170	C	1.283322	0.761237	-0.460212
C171	C	1.616655	1.094570	-0.126878
C172	C	0.949975	0.427925	-0.711566
C173	C	1.283308	0.761258	-0.378233
C174	C	1.616641	1.094591	-0.044899
C175	C	0.950016	0.427854	-0.964415
C176	C	1.283349	0.761188	-0.631082
C177	C	1.616683	1.094521	-0.297748
C178	C	0.950031	0.427832	-1.046400
C179	C	1.283364	0.761166	-0.713066
C180	C	1.616697	1.094499	-0.379733
C181	C	0.869554	0.327445	-1.046379
C182	C	1.202887	0.660778	-0.713046
C183	C	1.536221	0.994112	-0.379712
C184	C	0.869540	0.327466	-0.964400
C185	C	1.202873	0.660800	-0.631067
C186	C	1.536207	0.994133	-0.297733
C187	C	0.909773	0.377673	-0.923421
C188	C	1.243106	0.711006	-0.590088
C189	C	1.576440	1.044340	-0.256754
C190	C	0.909692	0.377826	-0.174628
C191	C	1.243026	0.711159	0.158705
C192	C	1.576359	1.044492	0.492038
C193	C	0.909801	0.377630	-0.087379
C194	C	1.243134	0.710964	0.245954
C195	C	1.576467	1.044297	0.579288
H196	H	0.670066	0.469100	-0.469376
H197	H	1.003400	0.802433	-0.136043
H198	H	1.336733	1.135766	0.197290
H199	H	0.836581	0.676669	-0.469534
H200	H	1.169915	1.010002	-0.136201
H201	H	1.503248	1.343336	0.197132
N202	N	0.543974	0.276243	-0.277237
N203	N	0.877307	0.609576	0.056096
N204	N	1.210640	0.942910	0.389430
N205	N	0.507346	0.226249	-0.304964
N206	N	0.840680	0.559583	0.028370
N207	N	1.174013	0.892916	0.361703
H208	H	0.483630	0.189971	-0.268832
H209	H	0.816963	0.523305	0.064502
H210	H	1.150297	0.856638	0.397835
N211	N	0.991228	1.086659	-0.277273
N212	N	1.324561	1.419992	0.056060
N213	N	1.657895	1.753325	0.389393
N214	N	0.969120	1.132469	-0.227226
N215	N	1.302453	1.465803	0.106107
N216	N	1.635787	1.799136	0.439441
H217	H	0.998185	1.162021	-0.191048
H218	H	1.331518	1.495355	0.142285
H219	H	1.664852	1.828688	0.475618
H220	H	0.982801	0.468694	-1.079780
H221	H	1.316134	0.802027	-0.746446
H222	H	1.649468	1.135360	-0.413113
H223	H	0.982796	0.825322	-0.287627
H224	H	1.316129	1.158655	0.045706
H225	H	1.649462	1.491989	0.379040
H226	H	0.149943	0.286569	-0.287789
H227	H	0.483277	0.619902	0.045544
H228	H	0.816610	0.953235	0.378877
H229	H	0.550803	0.469063	-0.469436
H230	H	0.884136	0.802396	-0.136102
H231	H	1.217469	1.135730	0.197231
N232	N	0.143141	0.479378	-0.479987
N233	N	0.476474	0.812711	-0.146654
N234	N	0.809807	1.146045	0.186680
N235	N	0.084444	0.479359	-0.480005
N236	N	0.417777	0.812693	-0.146671
N237	N	0.751110	1.146026	0.186662
H238	H	0.060726	0.515624	-0.516151
H239	H	0.394060	0.848958	-0.182818
H240	H	0.727393	1.182291	0.150515
H241	H	0.670052	0.286689	-0.287559
H242	H	1.003385	0.620023	0.045775
H243	H	1.336718	0.953356	0.379108
N244	N	0.828467	0.276156	-1.088246
N245	N	1.161800	0.609490	-0.754913
N246	N	1.495134	0.942823	-0.421579
N247	N	0.828485	0.276140	-1.161441
N248	N	1.161818	0.609473	-0.828107
N249	N	1.495152	0.942806	-0.494774
H250	H	0.799472	0.239914	-1.191014
H251	H	1.132806	0.573247	-0.857680
H252	H	1.466139	0.906580	-0.524347
H253	H	0.269211	0.286601	-0.287731
H254	H	0.602544	0.619935	0.045603
H255	H	0.935878	0.953268	0.378936
H256	H	0.269229	0.468997	-0.469560
H257	H	0.602562	0.802330	-0.136227
H258	H	0.935896	1.135664	0.197106
N259	N	0.991085	0.668114	-0.277192
N260	N	1.324419	1.001447	0.056141
N261	N	1.657752	1.334780	0.389474
N262	N	1.027060	0.704707	-0.232438
N263	N	1.360393	1.038040	0.100896
N264	N	1.693726	1.371374	0.434229
H265	H	1.056112	0.675136	-0.196251
H266	H	1.389445	1.008469	0.137082
H267	H	1.722778	1.341802	0.470416
N268	N	0.991113	0.479148	-0.922567
N269	N	1.324446	0.812481	-0.589233
N270	N	1.657779	1.145815	-0.255900
N271	N	1.027043	0.523948	-0.959181
N272	N	1.360376	0.857281	-0.625847
N273	N	1.693710	1.190615	-0.292514
H274	H	1.056069	0.560172	-0.929626
H275	H	1.389402	0.893505	-0.596292
H276	H	1.722736	1.226839	-0.262959
N277	N	0.991172	0.920959	-0.277244
N278	N	1.324506	1.254292	0.056090
N279	N	1.657839	1.587625	0.389423
N280	N	1.027148	0.957545	-0.232485
N281	N	1.360481	1.290878	0.100848
N282	N	1.693815	1.624211	0.434182
H283	H	1.056197	0.927968	-0.196300
H284	H	1.389531	1.261301	0.137033
H285	H	1.722864	1.594634	0.470366
N286	N	0.828365	1.086739	-0.479998
N287	N	1.161698	1.420072	-0.146664
N288	N	1.495032	1.753406	0.186669
N289	N	0.792390	1.050153	-0.524757
N290	N	1.125723	1.383486	-0.191424
N291	N	1.459057	1.716819	0.141909
H292	H	0.763333	1.079730	-0.560933
H293	H	1.096667	1.413063	-0.227600
H294	H	1.430000	1.746397	0.105733
H295	H	0.836636	0.825401	-0.469563
H296	H	1.169969	1.158734	-0.136229
H297	H	1.503302	1.492068	0.197104
N298	N	0.991098	0.479147	-0.835440
N299	N	1.324431	0.812481	-0.502107
N300	N	1.657764	1.145814	-0.168774
N301	N	1.031225	0.451497	-0.881213
N302	N	1.364559	0.784830	-0.547880
N303	N	1.697892	1.118164	-0.214547
H304	H	1.060261	0.487686	-0.910804
H305	H	1.393595	0.821019	-0.577471
H306	H	1.726928	1.154352	-0.244138
N307	N	0.828316	0.921036	-0.479980
N308	N	1.161649	1.254369	-0.146647
N309	N	1.494983	1.587703	0.186686
N310	N	0.792365	0.957659	-0.524750
N311	N	1.125698	1.290992	-0.191417
N312	N	1.459032	1.624326	0.141917
H313	H	0.763293	0.928111	-0.560923
H314	H	1.096627	1.261445	-0.227590
H315	H	1.429960	1.594778	0.105743
H316	H	0.836735	0.286666	-0.678173
H317	H	1.170068	0.619999	-0.344840
H318	H	1.503401	0.953332	-0.011507
H319	H	0.836751	0.286639	-0.826892
H320	H	1.170084	0.619972	-0.493558
H321	H	1.503418	0.953306	-0.160225
N322	N	0.991069	0.479214	-0.669716
N323	N	1.324403	0.812547	-0.336383
N324	N	1.657736	1.145881	-0.003049
N325	N	1.026998	0.524016	-0.706330
N326	N	1.360331	0.857349	-0.372997
N327	N	1.693665	1.190683	-0.039663
H328	H	1.056021	0.560244	-0.676775
H329	H	1.389354	0.893578	-0.343442
H330	H	1.722687	1.226911	-0.010108
H331	H	0.836773	0.286601	-0.931020
H332	H	1.170106	0.619935	-0.597687
H333	H	1.503439	0.953268	-0.264354
