data_functionalizedCrystal
_audit_creation_method	'MofGen! by Chris Wilmer'
_symmetry_space_group_name_H-M	'P1'
_symmetry_Int_Tables_number	1
_symmetry_cell_setting	triclinic
loop_
_symmetry_equiv_pos_as_xyz
  x,y,z
_cell_length_a	8.140239
_cell_length_b	14.971486
_cell_length_c	14.971486
_cell_angle_alpha	83.614129
_cell_angle_beta	89.996272
_cell_angle_gamma	90.002234
loop_
_atom_site_label
_atom_site_type_symbol
_atom_site_fract_x
_atom_site_fract_y
_atom_site_fract_z
O1	O	0.136425	-1.186943	-0.116561
O2	O	0.469759	-0.853609	0.216772
O3	O	0.803092	-0.520276	0.550105
O4	O	0.136470	-0.926542	-0.130520
O5	O	0.469804	-0.593209	0.202813
O6	O	0.803137	-0.259876	0.536147
O7	O	0.136435	-1.063722	0.006659
O8	O	0.469768	-0.730389	0.339993
O9	O	0.803102	-0.397055	0.673326
O10	O	0.136461	-1.049763	-0.253741
O11	O	0.469794	-0.716430	0.079593
O12	O	0.803127	-0.383096	0.412926
O13	O	-0.136792	-1.063714	0.006661
O14	O	0.196541	-0.730381	0.339994
O15	O	0.529874	-0.397048	0.673328
O16	O	-0.136757	-0.926535	-0.130519
O17	O	0.196576	-0.593201	0.202815
O18	O	0.529910	-0.259868	0.536148
O19	O	-0.136802	-1.186935	-0.116560
O20	O	0.196532	-0.853602	0.216774
O21	O	0.529865	-0.520268	0.550107
Zn22	Zn	-0.180160	-1.056734	-0.123539
Zn23	Zn	0.153173	-0.723400	0.209794
Zn24	Zn	0.486507	-0.390067	0.543128
Zn25	Zn	0.179828	-1.056744	-0.123541
Zn26	Zn	0.513162	-0.723410	0.209792
Zn27	Zn	0.846495	-0.390077	0.543126
O28	O	-0.136766	-1.049756	-0.253739
O29	O	0.196567	-0.716422	0.079594
O30	O	0.529900	-0.383089	0.412927
C31	C	-0.000138	-0.893214	-0.129895
C32	C	0.333196	-0.559881	0.203438
C33	C	0.666529	-0.226547	0.536772
C34	C	-0.000121	-0.793917	-0.128024
C35	C	0.333212	-0.460583	0.205309
C36	C	0.666546	-0.127250	0.538642
C37	C	-0.000178	-1.063094	0.039985
C38	C	0.333155	-0.729761	0.373318
C39	C	0.666489	-0.396427	0.706652
C40	C	-0.000176	-1.061223	0.139282
C41	C	0.333157	-0.727890	0.472615
C42	C	0.666490	-0.394556	0.805949
N43	N	-0.425843	-1.056733	-0.123537
N44	N	-0.092509	-0.723400	0.209796
N45	N	0.240824	-0.390067	0.543130
N46	N	0.425511	-1.056751	-0.123536
N47	N	0.758844	-0.723418	0.209798
N48	N	1.092178	-0.390084	0.543131
C49	C	-0.000190	-1.220263	-0.117185
C50	C	0.333143	-0.886930	0.216149
C51	C	0.666476	-0.553597	0.549482
C52	C	-0.000196	-1.319561	-0.119056
C53	C	0.333137	-0.986227	0.214278
C54	C	0.666470	-0.652894	0.547611
C55	C	-0.000115	-0.736692	-0.208614
C56	C	0.333218	-0.403358	0.124720
C57	C	0.666551	-0.070025	0.458053
C58	C	-0.000140	-0.643392	-0.206850
C59	C	0.333193	-0.310059	0.126483
C60	C	0.666527	0.023275	0.459816
C61	C	-0.000159	-0.607320	-0.124497
C62	C	0.333175	-0.273986	0.208836
C63	C	0.666508	0.059347	0.542169
C64	C	-0.000169	-0.664552	-0.043902
C65	C	0.333164	-0.331219	0.289431
C66	C	0.666498	0.002114	0.622765
C67	C	-0.000156	-0.757850	-0.045666
C68	C	0.333177	-0.424517	0.287667
C69	C	0.666510	-0.091183	0.621001
C70	C	-0.000192	-0.470090	-0.040231
C71	C	0.333141	-0.136757	0.293103
C72	C	0.666475	0.196577	0.626436
C73	C	-0.000202	-0.376786	-0.038466
C74	C	0.333131	-0.043453	0.294867
C75	C	0.666465	0.289881	0.628200
C76	C	-0.000176	-0.355632	-0.201415
C77	C	0.333157	-0.022299	0.131918
C78	C	0.666491	0.311035	0.465251
C79	C	-0.000163	-0.448930	-0.203179
C80	C	0.333170	-0.115596	0.130154
C81	C	0.666504	0.217737	0.463487
C82	C	-0.000170	-0.506156	-0.122584
C83	C	0.333163	-0.172822	0.210750
C84	C	0.666496	0.160511	0.544083
C85	C	-0.000150	-1.050384	-0.287065
C86	C	0.333183	-0.717050	0.046269
C87	C	0.666517	-0.383717	0.379602
C88	C	-0.000141	-1.052254	-0.386362
C89	C	0.333192	-0.718921	-0.053028
C90	C	0.666526	-0.385588	0.280305
C91	C	-0.000191	-1.141812	0.196507
C92	C	0.333142	-0.808479	0.529841
C93	C	0.666475	-0.475146	0.863174
C94	C	-0.000175	-1.140049	0.289807
C95	C	0.333159	-0.806716	0.623140
C96	C	0.666492	-0.473383	0.956473
C97	C	-0.000154	-1.057696	0.325879
C98	C	0.333179	-0.724363	0.659212
C99	C	0.666512	-0.391029	0.992546
C100	C	-0.000134	-0.977101	0.268646
C101	C	0.333199	-0.643767	0.601980
C102	C	0.666532	-0.310434	0.935313
C103	C	-0.000139	-0.978865	0.175349
C104	C	0.333194	-0.645531	0.508682
C105	C	0.666527	-0.312198	0.842015
C106	C	-0.000128	-0.973430	0.463109
C107	C	0.333206	-0.640096	0.796442
C108	C	0.666539	-0.306763	1.129776
C109	C	-0.000126	-0.971665	0.556413
C110	C	0.333208	-0.638332	0.889746
C111	C	0.666541	-0.304998	1.223080
C112	C	-0.000163	-1.134614	0.577567
C113	C	0.333170	-0.801281	0.910900
C114	C	0.666504	-0.467947	1.244233
C115	C	-0.000168	-1.136378	0.484269
C116	C	0.333165	-0.803045	0.817603
C117	C	0.666499	-0.469712	1.150936
C118	C	-0.000151	-1.055782	0.427043
C119	C	0.333182	-0.722449	0.760376
C120	C	0.666516	-0.389116	1.093710
H121	H	-0.000099	-0.766054	-0.275675
H122	H	0.333234	-0.432720	0.057658
H123	H	0.666568	-0.099387	0.390992
H124	H	-0.000133	-0.596802	-0.272474
H125	H	0.333200	-0.263469	0.060859
H126	H	0.666533	0.069864	0.394192
Cl127	Cl	-0.000234	-1.245348	0.151169
Cl128	Cl	0.333100	-0.912015	0.484503
Cl129	Cl	0.666433	-0.578682	0.817836
Cl130	Cl	-0.000106	-0.872107	0.391168
Cl131	Cl	0.333228	-0.538774	0.724502
Cl132	Cl	0.666561	-0.205441	1.057835
H133	H	-0.000177	-0.309033	-0.267039
H134	H	0.333156	0.024300	0.066294
H135	H	0.666490	0.357633	0.399627
Cl136	Cl	-0.000198	-1.241366	0.361744
Cl137	Cl	0.333135	-0.908033	0.695077
Cl138	Cl	0.666468	-0.574700	1.028411
Cl139	Cl	-0.000185	-1.239909	0.438922
Cl140	Cl	0.333148	-0.906576	0.772256
Cl141	Cl	0.666482	-0.573243	1.105589
Cl142	Cl	-0.000203	-0.619204	0.059629
Cl143	Cl	0.333131	-0.285871	0.392962
Cl144	Cl	0.666464	0.047462	0.726295
Cl145	Cl	-0.000089	-0.873570	0.313995
Cl146	Cl	0.333245	-0.540237	0.647328
Cl147	Cl	0.666578	-0.206903	0.980661
Cl148	Cl	-0.000122	-0.494276	-0.306711
Cl149	Cl	0.333212	-0.160943	0.026623
Cl150	Cl	0.666545	0.172390	0.359956
Cl151	Cl	-0.000114	-0.877548	0.103407
Cl152	Cl	0.333219	-0.544215	0.436741
Cl153	Cl	0.666552	-0.210881	0.770074
H154	H	-0.000219	-0.347419	0.028593
H155	H	0.333114	-0.014086	0.361926
H156	H	0.666447	0.319247	0.695260
Cl157	Cl	-0.000175	-1.235935	0.649508
Cl158	Cl	0.333158	-0.902601	0.982841
Cl159	Cl	0.666491	-0.569268	1.316174
Cl160	Cl	-0.000102	-0.868134	0.601760
Cl161	Cl	0.333231	-0.534800	0.935093
Cl162	Cl	0.666565	-0.201467	1.268426
H163	H	-0.000201	-0.516682	0.025399
H164	H	0.333133	-0.183348	0.358732
H165	H	0.666466	0.149985	0.692066
H166	H	-0.000160	-0.804443	0.019958
H167	H	0.333173	-0.471109	0.353292
H168	H	0.666507	-0.137776	0.686625
