data_functionalizedCrystal
_audit_creation_method	'MofGen! by Chris Wilmer'
_symmetry_space_group_name_H-M	'P1'
_symmetry_Int_Tables_number	1
_symmetry_cell_setting	triclinic
loop_
_symmetry_equiv_pos_as_xyz
  x,y,z
_cell_length_a	29.839131
_cell_length_b	10.686220
_cell_length_c	10.686551
_cell_angle_alpha	90.308082
_cell_angle_beta	85.589901
_cell_angle_gamma	94.423467
loop_
_atom_site_label
_atom_site_type_symbol
_atom_site_fract_x
_atom_site_fract_y
_atom_site_fract_z
Zn1	Zn	-0.109531	1.972144	-0.562362
Zn2	Zn	0.390469	2.472144	-0.062362
Zn3	Zn	-0.190848	1.955808	-0.352586
Zn4	Zn	0.309152	2.455808	0.147414
Zn5	Zn	-0.121024	1.746247	-0.368677
Zn6	Zn	0.378976	2.246247	0.131323
Zn7	Zn	-0.189937	1.762239	-0.578364
Zn8	Zn	0.310063	2.262239	-0.078364
O9	O	-0.152835	1.859109	-0.465497
O10	O	0.347165	2.359109	0.034503
O11	O	-0.115889	2.145524	-0.521104
O12	O	0.384111	2.645524	-0.021104
O13	O	-0.186776	1.914480	-0.179174
O14	O	0.313224	2.414480	0.320826
O15	O	-0.056627	1.776357	-0.394408
O16	O	0.443373	2.276357	0.105592
O17	O	-0.175632	2.133522	-0.366982
O18	O	0.324368	2.633522	0.133018
O19	O	-0.048183	1.942322	-0.536707
O20	O	0.451817	2.442322	-0.036707
O21	O	-0.135477	1.760516	-0.190996
O22	O	0.364523	2.260516	0.309004
O23	O	-0.134594	1.572821	-0.409924
O24	O	0.365406	2.072821	0.090076
O25	O	-0.174081	1.803613	-0.751788
O26	O	0.325919	2.303613	-0.251788
O27	O	-0.185225	1.584570	-0.563980
O28	O	0.314775	2.084570	-0.063980
O29	O	-0.115006	1.957829	-0.740032
O30	O	0.384994	2.457829	-0.240032
O31	O	-0.253599	1.929986	-0.382499
O32	O	0.246401	2.429986	0.117501
O33	O	-0.252930	1.787772	-0.548377
O34	O	0.247070	2.287772	-0.048377
C35	C	-0.161058	1.533178	-0.490435
C36	C	0.338942	2.033178	0.009565
C37	C	-0.164586	1.393745	-0.501133
C38	C	0.335414	1.893745	-0.001133
C39	C	-0.269565	1.858878	-0.465453
C40	C	0.230435	2.358878	0.034547
C41	C	-0.319499	1.858897	-0.465467
C42	C	0.180501	2.358897	0.034533
C43	C	-0.629464	1.933315	-0.379231
C44	C	-0.129464	2.433315	0.120769
C45	C	-0.817132	1.933474	-0.379268
C46	C	-0.317132	2.433474	0.120732
O47	O	-0.841676	1.996563	-0.305913
O48	O	-0.341676	2.496563	0.194087
N49	N	-0.840268	1.859377	-0.465572
N50	N	-0.340268	2.359377	0.034428
C51	C	-0.816484	1.785241	-0.551879
C52	C	-0.316484	2.285241	-0.051879
O53	O	-0.840468	1.722231	-0.625295
O54	O	-0.340468	2.222231	-0.125295
C55	C	-0.628816	1.785090	-0.551847
C56	C	-0.128816	2.285090	-0.051847
C57	C	-0.605683	1.859182	-0.465528
C58	C	-0.105683	2.359182	0.034472
C59	C	-0.606331	2.007402	-0.292920
C60	C	-0.106331	2.507402	0.207080
C61	C	-0.559417	2.007357	-0.292908
C62	C	-0.059417	2.507357	0.207092
C63	C	-0.535636	1.933224	-0.379205
C64	C	-0.035636	2.433224	0.120795
C65	C	-0.558769	1.859137	-0.465516
C66	C	-0.058769	2.359137	0.034484
C67	C	-0.605033	1.710962	-0.638159
C68	C	-0.105033	2.210962	-0.138159
C69	C	-0.558113	1.710934	-0.638145
C70	C	-0.058113	2.210934	-0.138145
C71	C	-0.534980	1.785026	-0.551827
C72	C	-0.034980	2.285026	-0.051827
C73	C	-0.488075	1.784958	-0.551801
C74	C	0.011925	2.284958	-0.051801
N75	N	-0.464939	1.859055	-0.465496
N76	N	0.035061	2.359055	0.034504
C77	C	-0.488720	1.933188	-0.379198
C78	C	0.011280	2.433188	0.120802
C79	C	-0.915012	1.785324	-0.551888
C80	C	-0.415012	2.285324	-0.051888
C81	C	-0.961928	1.785360	-0.551895
C82	C	-0.461928	2.285360	-0.051895
C83	C	-0.962573	1.933594	-0.379285
C84	C	-0.462573	2.433594	0.120715
C85	C	-0.915656	1.933551	-0.379273
C86	C	-0.415656	2.433551	0.120727
C87	C	-0.891876	1.859421	-0.465583
C88	C	-0.391876	2.359421	0.034417
C89	C	-0.390197	1.933086	-0.379177
C90	C	0.109803	2.433086	0.120823
C91	C	-0.343279	1.933030	-0.379169
C92	C	0.156721	2.433030	0.120831
C93	C	-0.342638	1.784801	-0.551783
C94	C	0.157362	2.284801	-0.051783
C95	C	-0.389552	1.784851	-0.551787
C96	C	0.110448	2.284851	-0.051787
C97	C	-0.413330	1.859004	-0.465480
C98	C	0.086670	2.359004	0.034520
O99	O	-0.463501	1.721913	-0.625126
O100	O	0.036499	2.221913	-0.125126
O101	O	-0.464726	1.996210	-0.305811
O102	O	0.035274	2.496210	0.194189
C103	C	-0.676378	1.933361	-0.379244
C104	C	-0.176378	2.433361	0.120756
C105	C	-0.699511	1.859273	-0.465554
C106	C	-0.199511	2.359273	0.034446
C107	C	-0.675730	1.785141	-0.551852
C108	C	-0.175730	2.285141	-0.051852
C109	C	-0.746428	1.859309	-0.465561
C110	C	-0.246428	2.359309	0.034439
C111	C	-0.770208	1.933442	-0.379263
C112	C	-0.270208	2.433442	0.120737
C113	C	-0.747072	2.007539	-0.292959
C114	C	-0.247072	2.507539	0.207041
C115	C	-0.700158	2.007493	-0.292946
C116	C	-0.200158	2.507493	0.207054
C117	C	-0.698867	1.711044	-0.638156
C118	C	-0.198867	2.211044	-0.138156
C119	C	-0.745781	1.711094	-0.638161
C120	C	-0.245781	2.211094	-0.138161
C121	C	-0.769561	1.785227	-0.551863
C122	C	-0.269561	2.285227	-0.051863
C123	C	-0.035647	1.859378	-0.465567
C124	C	0.464353	2.359378	0.034433
C125	C	0.014291	1.859492	-0.465597
C126	C	0.514291	2.359492	0.034403
C127	C	-0.143160	1.884327	-0.792700
C128	C	0.356840	2.384327	-0.292700
C129	C	-0.139037	1.895073	-0.932134
C130	C	0.360963	2.395073	-0.432134
C131	C	-0.144580	2.186314	-0.440463
C132	C	0.355420	2.686314	0.059537
C133	C	-0.141063	2.325749	-0.429795
C134	C	0.358937	2.825749	0.070205
C135	C	-0.162438	1.834062	-0.139563
C136	C	0.337562	2.334062	0.360437
C137	C	-0.166429	1.823559	-0.000111
C138	C	0.333571	2.323559	0.499889
H139	H	-0.118225	1.374204	-0.360535
H140	H	0.381775	1.874204	0.139465
H141	H	-0.540584	2.067693	-0.222623
H142	H	-0.040584	2.567693	0.277377
H143	H	-0.112431	1.964530	-0.980613
H144	H	0.387569	2.464530	-0.480613
H145	H	-0.187428	1.345283	-0.570390
H146	H	0.312572	1.845283	-0.070390
H147	H	-0.324446	1.993364	-0.308874
H148	H	0.175554	2.493364	0.191126
H149	H	-0.193035	1.754116	-0.951637
H150	H	0.306965	2.254116	-0.451637
H151	H	-0.679508	1.650678	-0.708432
H152	H	-0.179508	2.150678	-0.208432
H153	H	-0.409551	1.993471	-0.308900
H154	H	0.090449	2.493471	0.191100
H155	H	-0.625688	2.067777	-0.222645
H156	H	-0.125688	2.567777	0.277355
H157	H	-0.323269	1.724438	-0.622042
H158	H	0.176731	2.224438	-0.122042
H159	H	-0.896824	1.993883	-0.308986
H160	H	-0.396824	2.493883	0.191014
H161	H	-0.895653	1.724955	-0.622174
H162	H	-0.395653	2.224955	-0.122174
H163	H	-0.981943	1.993956	-0.309018
H164	H	-0.481943	2.493956	0.190982
H165	H	-0.980760	1.725014	-0.622173
H166	H	-0.480760	2.225014	-0.122173
H167	H	-0.623860	1.650622	-0.708443
H168	H	-0.123860	2.150622	-0.208443
H169	H	-0.538753	1.650570	-0.708433
H170	H	-0.038753	2.150570	-0.208433
H171	H	-0.408388	1.724524	-0.622078
H172	H	0.091612	2.224524	-0.122078
H173	H	-0.681327	2.067826	-0.222658
H174	H	-0.181327	2.567826	0.277342
H175	H	-0.764612	1.650749	-0.708452
H176	H	-0.264612	2.150749	-0.208452
H177	H	-0.766443	2.067897	-0.222689
H178	H	-0.266443	2.567897	0.277311
