data_functionalizedCrystal
_audit_creation_method	'MofGen! by Chris Wilmer'
_symmetry_space_group_name_H-M	'P1'
_symmetry_Int_Tables_number	1
_symmetry_cell_setting	triclinic
loop_
_symmetry_equiv_pos_as_xyz
  x,y,z
_cell_length_a	6.817900
_cell_length_b	9.582889
_cell_length_c	10.773894
_cell_angle_alpha	94.946176
_cell_angle_beta	96.645922
_cell_angle_gamma	111.207298
loop_
_atom_site_label
_atom_site_type_symbol
_atom_site_fract_x
_atom_site_fract_y
_atom_site_fract_z
V1	V	-3.987872	-0.201560	-0.388722
V2	V	-3.487872	0.298440	0.111278
O3	O	-3.934976	0.015345	-0.381557
O4	O	-3.434976	0.515345	0.118443
O5	O	-3.979231	-0.405101	-0.385837
O6	O	-3.479231	0.094899	0.114163
O7	O	-3.904454	-0.195976	-0.558360
O8	O	-3.404454	0.304024	-0.058360
O9	O	-4.010270	-0.195228	-0.207840
O10	O	-3.510270	0.304772	0.292160
V11	V	-4.470885	-0.175909	-0.367114
V12	V	-3.970885	0.324091	0.132886
O13	O	-4.250248	-0.257827	-0.436119
O14	O	-3.750248	0.242173	0.063881
O15	O	-4.658707	-0.119641	-0.319717
O16	O	-4.158707	0.380359	0.180283
O17	O	-4.256319	0.027633	-0.369999
O18	O	-3.756319	0.527633	0.130001
O19	O	-4.641179	-0.392813	-0.374279
O20	O	-4.141179	0.107187	0.125721
O21	O	-4.565884	-0.182240	-0.547996
O22	O	-4.065884	0.317760	-0.047996
O23	O	-4.331097	-0.181492	-0.197476
O24	O	-3.831097	0.318508	0.302524
C25	C	-3.835038	-0.454798	-0.379647
C26	C	-3.335038	0.045202	0.120353
C27	C	-3.909026	-0.621180	-0.378419
C28	C	-3.409026	-0.121180	0.121581
C29	C	-3.739651	-0.188036	-0.599715
C30	C	-3.239651	0.311964	-0.099715
C31	C	-3.752994	-0.184818	-0.738393
C32	C	-3.252994	0.315182	-0.238393
C33	C	-3.932159	-0.190395	-0.806250
C34	C	-3.432159	0.309605	-0.306250
C35	C	-3.945954	-0.187069	-0.949581
C36	C	-3.445954	0.312931	-0.449581
C37	C	-4.063857	0.077322	-0.376186
C38	C	-3.563857	0.577322	0.123814
C39	C	-3.969105	0.243703	-0.377422
C40	C	-3.469105	0.743703	0.122578
C41	C	-4.159244	-0.189437	-0.156115
C42	C	-3.659244	0.310563	0.343885
C43	C	-4.125138	-0.192648	-0.017435
C44	C	-3.625138	0.307352	0.482565
H45	H	-4.075330	-0.197623	-0.758230
H46	H	-3.575330	0.302377	-0.258230
H47	H	-3.802760	-0.179821	-0.997593
H48	H	-3.302760	0.320179	-0.497593
H49	H	-4.268332	-0.199892	-0.969424
H50	H	-3.768332	0.300108	-0.469424
H51	H	-3.609814	-0.177570	-0.786411
H52	H	-3.109814	0.322430	-0.286411
