data_functionalizedCrystal
_audit_creation_method	'MofGen! by Chris Wilmer'
_symmetry_space_group_name_H-M	'P1'
_symmetry_Int_Tables_number	1
_symmetry_cell_setting	triclinic
loop_
_symmetry_equiv_pos_as_xyz
  x,y,z
_cell_length_a	10.654538
_cell_length_b	9.130313
_cell_length_c	17.019448
_cell_angle_alpha	93.874988
_cell_angle_beta	83.940400
_cell_angle_gamma	89.994532
loop_
_atom_site_label
_atom_site_type_symbol
_atom_site_fract_x
_atom_site_fract_y
_atom_site_fract_z
O1	O	-1.666126	0.107932	-0.110742
O2	O	-1.300481	0.106586	-0.121307
O3	O	-1.493492	0.121708	-0.001250
O4	O	-1.473116	0.092810	-0.230799
O5	O	-1.493478	-0.121892	-0.001257
O6	O	-1.300468	-0.137014	-0.121314
O7	O	-1.666113	-0.135668	-0.110749
Cu8	Cu	-1.483289	-0.158583	-0.116032
Cu9	Cu	-1.483305	0.129502	-0.116024
O10	O	-1.473103	-0.150789	-0.230806
C11	C	-1.253689	-0.015118	-0.120537
C12	C	-1.114281	-0.014833	-0.118222
N13	N	-1.483287	-0.361207	-0.116038
C14	C	-1.048810	0.118096	-0.117122
C15	C	-0.917823	0.118378	-0.114941
C16	C	-0.917789	-0.147208	-0.114955
C17	C	-1.048773	-0.147490	-0.117142
C18	C	-1.114318	0.250753	-0.118202
C19	C	-1.048847	0.383693	-0.117102
C20	C	-0.917860	0.383975	-0.114920
C21	C	-0.852343	0.251318	-0.113839
C22	C	-1.559367	-0.443947	-0.164319
C23	C	-1.559385	-0.597282	-0.164304
C24	C	-1.407235	-0.585122	-0.067726
C25	C	-1.407224	-0.431790	-0.067737
C26	C	-1.635430	-0.373364	-0.212620
C27	C	-1.711514	-0.456105	-0.260906
C28	C	-1.711533	-0.609440	-0.260891
C29	C	-1.635467	-0.680034	-0.212591
C30	C	-0.712905	-0.013968	-0.111524
C31	C	-0.852310	-0.014269	-0.113853
C32	C	-1.492708	0.003611	0.028139
C33	C	-1.490378	0.014645	0.115719
N34	N	-1.483317	0.332126	-0.116012
C35	C	-1.473886	-0.032689	-0.260195
C36	C	-1.476217	-0.043714	-0.347776
C37	C	-1.477313	0.083872	0.611067
C38	C	-1.479491	0.073475	0.528775
C39	C	-1.480562	-0.064511	0.487640
C40	C	-1.479469	-0.192106	0.528804
C41	C	-1.477301	-0.181707	0.611095
C42	C	-1.487116	-0.102552	0.239174
C43	C	-1.489281	-0.112941	0.156877
C44	C	-1.489305	0.152641	0.156854
C45	C	-1.487129	0.163028	0.239146
C46	C	-1.486043	0.035432	0.280303
C47	C	-1.482784	-0.075142	0.403524
C48	C	-1.483830	0.046065	0.364418
H49	H	-1.220975	0.250538	-0.119977
Cl50	Cl	-1.311606	-0.327764	-0.007023
H51	H	-1.773451	-0.398617	-0.300226
Cl52	Cl	-1.131207	0.550451	-0.118469
H53	H	-0.864435	-0.255211	-0.114074
Cl54	Cl	-1.807189	-0.713453	-0.321586
H55	H	-1.483653	-0.187490	0.370023
H56	H	-0.864556	0.492220	-0.114032
Cl57	Cl	-1.475957	0.257349	0.662770
H58	H	-0.745683	0.251558	-0.112071
Cl59	Cl	-1.311610	-0.673871	-0.007014
H60	H	-1.480386	0.177369	0.495268
Cl61	Cl	-1.131085	-0.314604	-0.118526
H62	H	-1.635420	-0.248512	-0.212640
Cl63	Cl	-1.635508	-0.872799	-0.212565
Cl64	Cl	-1.480824	-0.365575	0.477092
H65	H	-1.490116	-0.225311	0.123384
Cl66	Cl	-1.485785	0.336503	0.290852
H67	H	-1.486234	-0.206450	0.272674
H68	H	-1.490190	0.256522	0.123335
H69	H	-1.476407	-0.285602	0.644604
Cl70	Cl	-1.482492	0.219526	0.416132
