data_functionalizedCrystal
_audit_creation_method	'MofGen! by Chris Wilmer'
_symmetry_space_group_name_H-M	'P1'
_symmetry_Int_Tables_number	1
_symmetry_cell_setting	triclinic
loop_
_symmetry_equiv_pos_as_xyz
  x,y,z
_cell_length_a	10.540539
_cell_length_b	14.519709
_cell_length_c	12.996460
_cell_angle_alpha	89.999966
_cell_angle_beta	89.996006
_cell_angle_gamma	95.897182
loop_
_atom_site_label
_atom_site_type_symbol
_atom_site_fract_x
_atom_site_fract_y
_atom_site_fract_z
O1	O	0.166400	-1.224765	-0.085428
O2	O	0.185995	-0.956394	-0.085459
O3	O	-0.008571	-1.096702	-0.085441
O4	O	0.360967	-1.084457	-0.085445
O5	O	-0.008582	-1.096688	0.085693
O6	O	0.185985	-0.956379	0.085675
O7	O	0.166389	-1.224751	0.085706
Cu8	Cu	0.176186	-1.090563	0.101316
Cu9	Cu	0.176199	-1.090581	-0.101069
O10	O	0.360956	-1.084442	0.085689
C11	C	0.185077	-0.922022	0.000104
C12	C	0.182340	-0.819626	0.000092
C13	C	0.167308	-1.259123	0.000141
C14	C	0.170044	-1.361519	0.000146
C15	C	-0.055870	-1.095777	0.000124
C16	C	-0.196790	-1.093029	0.000118
C17	C	-0.379142	-0.987750	-0.000278
C18	C	-0.232553	-0.990535	0.000107
C19	C	-0.258958	-1.142346	0.097849
C20	C	-0.405467	-1.138848	0.097931
C21	C	-0.405994	-1.140949	-0.096680
C22	C	-0.259021	-1.141893	-0.097972
C23	C	0.408255	-1.085368	0.000121
C24	C	0.549175	-1.088115	0.000120
N25	N	0.176176	-1.090558	0.243664
C26	C	0.172265	-0.444676	0.000139
C27	C	0.175063	-0.548999	0.000126
C28	C	0.177303	-0.632148	0.000115
C29	C	0.180101	-0.736477	0.000103
N30	N	0.176198	-1.090594	-0.243416
C31	C	0.176200	-1.090580	0.663478
C32	C	0.176198	-1.090571	0.546673
C33	C	0.176189	-1.090569	0.453574
C34	C	0.176185	-1.090560	0.336762
H35	H	-0.407325	-0.947268	-0.070364
N36	N	-0.442339	-1.090539	0.194680
H37	H	-0.537687	-1.087785	0.195700
H38	H	-0.416252	-1.125910	0.256789
N39	N	-0.470016	-1.236481	0.103822
H40	H	-0.403260	-1.281599	0.106360
H41	H	-0.524406	-1.243496	0.167877
N42	N	-0.204291	-1.094161	-0.193739
H43	H	-0.161665	-1.139793	-0.237135
H44	H	-0.275131	-1.069596	-0.234488
H45	H	-0.235562	-1.216620	-0.103864
N46	N	-0.418603	-0.934329	0.092028
H47	H	-0.341234	-0.914720	0.135663
H48	H	-0.458328	-0.877660	0.068084
H49	H	-0.190402	-0.951445	0.070273
H50	H	-0.237372	-1.217614	0.101491
H51	H	-0.216013	-1.108076	0.170570
H52	H	-0.437203	-1.107783	-0.170753
N53	N	-0.469542	-1.239012	-0.097547
H54	H	-0.527097	-1.249205	-0.035575
H55	H	-0.521731	-1.249690	-0.162419
N56	N	-0.175586	-0.939133	-0.092691
H57	H	-0.212712	-0.969434	-0.157467
H58	H	-0.195866	-0.872688	-0.090066
