data_functionalizedCrystal
_audit_creation_method	'MofGen! by Chris Wilmer'
_symmetry_space_group_name_H-M	'P1'
_symmetry_Int_Tables_number	1
_symmetry_cell_setting	triclinic
loop_
_symmetry_equiv_pos_as_xyz
  x,y,z
_cell_length_a	16.109301
_cell_length_b	14.472310
_cell_length_c	16.109304
_cell_angle_alpha	89.998261
_cell_angle_beta	83.462059
_cell_angle_gamma	90.010306
loop_
_atom_site_label
_atom_site_type_symbol
_atom_site_fract_x
_atom_site_fract_y
_atom_site_fract_z
O1	O	1.103144	0.076777	0.106861
O2	O	1.603144	0.576777	0.606861
O3	O	0.861082	0.076791	0.120161
O4	O	1.361082	0.576791	0.620161
O5	O	0.988761	0.076784	-0.007520
O6	O	1.488761	0.576784	0.492480
O7	O	0.975465	0.076784	0.234542
O8	O	1.475465	0.576784	0.734542
O9	O	0.988729	-0.076898	-0.007512
O10	O	1.488729	0.423102	0.492488
O11	O	0.861049	-0.076891	0.120168
O12	O	1.361049	0.423109	0.620168
O13	O	1.103111	-0.076905	0.106869
O14	O	1.603111	0.423095	0.606869
Cu15	Cu	0.982077	-0.090931	0.113519
Cu16	Cu	1.482077	0.409069	0.613519
Cu17	Cu	0.982116	0.090816	0.113510
Cu18	Cu	1.482116	0.590816	0.613510
O19	O	0.975432	-0.076898	0.234549
O20	O	1.475432	0.423102	0.734549
C21	C	0.830091	-0.000048	0.119626
C22	C	1.330091	0.499952	0.619626
C23	C	0.737795	-0.000043	0.118010
C24	C	1.237795	0.499957	0.618010
N25	N	0.982056	-0.218762	0.113525
N26	N	1.482056	0.281238	0.613525
C27	C	0.515524	-0.000054	0.190018
C28	C	1.015524	0.499946	0.690018
C29	C	0.428803	-0.000060	0.188494
C30	C	0.928803	0.499940	0.688494
C31	C	0.448676	-0.000056	0.037005
C32	C	0.948676	0.499944	0.537005
C33	C	0.535395	-0.000056	0.038530
C34	C	1.035395	0.499944	0.538530
C35	C	0.568816	-0.000051	0.115039
C36	C	1.068816	0.499949	0.615039
C37	C	0.395377	-0.000056	0.111990
C38	C	0.895377	0.499944	0.611990
C39	C	0.301351	-0.000062	0.110337
C40	C	0.801351	0.499938	0.610337
C41	C	0.662848	-0.000046	0.116693
C42	C	1.162848	0.499954	0.616693
C43	C	0.982115	-0.592853	0.113507
C44	C	1.482115	-0.092853	0.613507
C45	C	0.913567	-0.553683	0.181597
C46	C	1.413567	-0.053683	0.681597
C47	C	0.913725	-0.446595	0.181845
C48	C	1.413725	0.053405	0.681845
C49	C	0.982085	-0.407262	0.113516
C50	C	1.482085	0.092738	0.613516
C51	C	1.068829	-0.446104	0.132440
C52	C	1.568829	0.053896	0.632440
C53	C	1.068444	-0.553226	0.132924
C54	C	1.568444	-0.053226	0.632924
C55	C	0.964692	-0.553381	0.026291
C56	C	1.464692	-0.053381	0.526291
C57	C	0.962702	-0.446253	0.026873
C58	C	1.462702	0.053747	0.526873
C59	C	0.982073	-0.302374	0.113519
C60	C	1.482073	0.197626	0.613519
C61	C	0.982132	-0.697741	0.113505
C62	C	1.482132	-0.197741	0.613505
C63	C	1.134102	-0.000064	0.107404
C64	C	1.634102	0.499936	0.607404
C65	C	1.226398	-0.000064	0.109019
C66	C	1.726398	0.499936	0.609019
C67	C	0.988206	-0.000055	-0.038491
C68	C	1.488206	0.499945	0.461509
C69	C	0.986590	-0.000049	-0.130786
C70	C	1.486590	0.499951	0.369214
N71	N	0.982144	0.218647	0.113498
N72	N	1.482144	0.718647	0.613498
C73	C	0.982874	0.083720	-0.343128
C74	C	1.482874	0.583720	0.156872
C75	C	0.981348	0.083719	-0.429848
C76	C	1.481348	0.583719	0.070152
C77	C	0.981316	-0.083833	-0.429837
C78	C	1.481316	0.416167	0.070163
C79	C	0.982837	-0.083831	-0.343117
C80	C	1.482837	0.416169	0.156883
C81	C	0.983620	-0.000052	-0.299766
C82	C	1.483620	0.499948	0.200234
C83	C	0.980573	-0.000055	-0.473205
C84	C	1.480573	0.499945	0.026795
C85	C	0.978919	-0.000056	-0.567231
C86	C	1.478919	0.499944	-0.067231
C87	C	0.985273	-0.000050	-0.205734
C88	C	1.485273	0.499950	0.294266
C89	C	0.975987	-0.000058	0.265520
C90	C	1.475987	0.499942	0.765520
C91	C	0.977603	-0.000058	0.357816
C92	C	1.477603	0.499942	0.857816
H93	H	0.542732	-0.000056	0.252316
H94	H	1.042732	0.499944	0.752316
C95	C	0.928768	-0.411955	0.269271
C96	C	1.428768	0.088045	0.769271
H97	H	0.928913	-0.346312	0.269723
H98	H	1.428913	0.153688	0.769723
H99	H	0.981132	-0.434142	0.282626
H100	H	1.481132	0.065858	0.782626
H101	H	0.885532	-0.434031	0.309402
H102	H	1.385532	0.065969	0.809402
C103	C	0.980530	0.175866	-0.477547
C104	C	1.480530	0.675866	0.022453
H105	H	0.979504	0.163870	-0.535402
H106	H	1.479504	0.663870	-0.035402
H107	H	1.029241	0.210287	-0.469693
H108	H	1.529241	0.710287	0.030307
H109	H	0.932326	0.210288	-0.456979
H110	H	1.432326	0.710288	0.043021
H111	H	0.385416	-0.000064	0.249550
H112	H	0.885416	0.499936	0.749550
C113	C	0.983659	-0.175985	-0.295416
C114	C	1.483659	0.324015	0.204584
H115	H	0.982987	-0.225881	-0.333655
H116	H	1.482987	0.274119	0.166345
H117	H	0.935798	-0.179465	-0.255232
H118	H	1.435798	0.320535	0.244768
H119	H	1.032712	-0.179464	-0.267942
H120	H	1.532712	0.320536	0.232058
H121	H	1.084553	-0.419268	0.195320
H122	H	1.584553	0.080732	0.695320
C123	C	1.089178	-0.586972	0.218850
C124	C	1.589178	-0.086972	0.718850
H125	H	1.097753	-0.535214	0.253134
H126	H	1.597753	-0.035214	0.753134
H127	H	1.138458	-0.623513	0.211831
H128	H	1.638458	-0.123513	0.711831
H129	H	1.044100	-0.622995	0.244605
H130	H	1.544100	-0.122995	0.744605
C131	C	0.411909	-0.000050	-0.047147
C132	C	0.911909	0.499950	0.452853
H133	H	0.352630	-0.000040	-0.037318
H134	H	0.852630	0.499960	0.462682
H135	H	0.430193	-0.053639	-0.078021
H136	H	0.930193	0.446361	0.421979
H137	H	0.430215	0.053552	-0.078015
H138	H	0.930215	0.553552	0.421985
C139	C	1.139414	-0.588232	0.068475
C140	C	1.639414	-0.088232	0.568475
H141	H	1.168358	-0.536982	0.042119
H142	H	1.668358	-0.036982	0.542119
H143	H	1.116565	-0.624713	0.027626
H144	H	1.616565	-0.124713	0.527626
H145	H	1.177115	-0.624584	0.095929
H146	H	1.677115	-0.124584	0.595929
H147	H	0.980681	-0.152043	-0.465144
H148	H	1.480681	0.347957	0.034856
H149	H	0.578788	-0.000056	-0.022530
H150	H	1.078788	0.499944	0.477470
C151	C	0.826617	-0.411115	0.166635
C152	C	1.326617	0.088885	0.666635
H153	H	0.790813	-0.462171	0.160252
H154	H	1.290813	0.037829	0.660252
H155	H	0.831192	-0.374521	0.117371
H156	H	1.331192	0.125479	0.617371
H157	H	0.804096	-0.374779	0.212916
H158	H	1.304096	0.125221	0.712916
C159	C	0.826178	-0.588524	0.166634
C160	C	1.326178	-0.088524	0.666634
H161	H	0.830711	-0.627276	0.118731
H162	H	1.330711	-0.127276	0.618731
H163	H	0.791341	-0.537286	0.157955
H164	H	1.291341	-0.037286	0.657955
H165	H	0.802573	-0.622527	0.213987
H166	H	1.302573	-0.122527	0.713987
H167	H	1.121056	-0.420624	0.084164
H168	H	1.621056	0.079376	0.584164
C169	C	0.928385	-0.590027	0.268541
C170	C	1.428385	-0.090027	0.768541
H171	H	0.976166	-0.628965	0.263525
H172	H	1.476166	-0.128965	0.763525
H173	H	0.880918	-0.624129	0.291703
H174	H	1.380918	-0.124129	0.791703
H175	H	0.937229	-0.539401	0.304031
H176	H	1.437229	-0.039401	0.804031
H177	H	0.902813	-0.580445	0.008088
H178	H	1.402813	-0.080445	0.508088
H179	H	0.898892	-0.420867	0.012511
H180	H	1.398892	0.079133	0.512511
H181	H	1.009388	-0.419482	-0.026169
H182	H	1.509388	0.080518	0.473831
H183	H	1.014681	-0.578710	-0.024379
H184	H	1.514681	-0.078710	0.475621
H185	H	0.983509	0.151939	-0.307833
H186	H	1.483509	0.651939	0.192167
