data_functionalizedCrystal
_audit_creation_method	'MofGen! by Chris Wilmer'
_symmetry_space_group_name_H-M	'P1'
_symmetry_Int_Tables_number	1
_symmetry_cell_setting	triclinic
loop_
_symmetry_equiv_pos_as_xyz
  x,y,z
_cell_length_a	6.817900
_cell_length_b	15.185311
_cell_length_c	17.110486
_cell_angle_alpha	96.140669
_cell_angle_beta	99.060439
_cell_angle_gamma	104.261569
loop_
_atom_site_label
_atom_site_type_symbol
_atom_site_fract_x
_atom_site_fract_y
_atom_site_fract_z
V1	V	-3.980747	-0.125485	-0.246952
O2	O	-3.965180	0.006309	-0.242012
O3	O	-3.936383	-0.249083	-0.245493
O4	O	-3.910542	-0.123432	-0.354551
O5	O	-3.991201	-0.120212	-0.132198
V6	V	-4.466677	-0.109735	-0.233198
O7	O	-4.236725	-0.160033	-0.277121
O8	O	-4.660897	-0.075187	-0.203029
O9	O	-4.287834	0.013863	-0.234658
O10	O	-4.599641	-0.241528	-0.238138
O11	O	-4.573620	-0.115008	-0.347952
O12	O	-4.313676	-0.111787	-0.125599
C13	C	-3.783072	-0.279217	-0.241656
C14	C	-3.827941	-0.380259	-0.241180
C15	C	-3.991769	-0.794601	-0.166702
C16	C	-4.043761	-0.820386	-0.311685
C17	C	-4.001577	-0.725450	-0.312127
C18	C	-3.954490	-0.665085	-0.239856
C19	C	-3.949586	-0.699656	-0.167142
C20	C	-4.006498	-0.690873	-0.384840
C21	C	-3.964314	-0.595931	-0.385286
C22	C	-3.917212	-0.535564	-0.313014
C23	C	-3.912307	-0.570140	-0.240297
C24	C	-3.865220	-0.509775	-0.168026
C25	C	-3.860300	-0.544349	-0.095308
C26	C	-3.902483	-0.639289	-0.094870
C27	C	-3.875028	-0.440624	-0.313451
C28	C	-3.823037	-0.414830	-0.168466
C29	C	-3.750107	-0.118936	-0.380770
C30	C	-3.774017	-0.118076	-0.468735
C31	C	-3.966685	-0.122208	-0.514100
C32	C	-3.989139	-0.121399	-0.596752
C33	C	-3.818925	-0.116465	-0.634038
C34	C	-3.626240	-0.112329	-0.588666
C35	C	-3.603786	-0.113132	-0.506015
C36	C	-3.877643	-0.113809	-0.883388
C37	C	-3.900114	-0.113010	-0.966045
C38	C	-4.263011	-0.122078	-0.974125
C39	C	-4.240542	-0.122885	-0.891473
C40	C	-4.047858	-0.118745	-0.846108
C41	C	-3.841873	-0.115641	-0.718521
C42	C	-4.024909	-0.119563	-0.761625
C43	C	-4.104488	0.043993	-0.238492
C44	C	-4.038856	0.145034	-0.238973
C45	C	-4.137453	-0.116286	-0.099376
C46	C	-4.092782	-0.117142	-0.011411
H47	H	-4.082119	-0.869541	-0.370525
H48	H	-3.487649	-0.108306	-0.619029
Cl49	Cl	-3.801148	-0.468452	-0.004457
H50	H	-3.987758	-0.822755	-0.107496
Cl51	Cl	-3.635426	-0.108630	-0.826371
Cl52	Cl	-3.896321	-0.682760	-0.003463
H53	H	-4.419887	-0.125447	-1.011070
Cl54	Cl	-3.970488	-0.552475	-0.476701
Cl55	Cl	-4.065710	-0.766763	-0.475689
H56	H	-4.146023	-0.124759	-0.633685
Cl57	Cl	-3.881233	-0.397164	-0.404861
Cl58	Cl	-4.180687	-0.128418	-0.467236
H59	H	-4.379151	-0.126903	-0.861121
H60	H	-3.761494	-0.108989	-0.996400
H61	H	-3.446886	-0.109745	-0.469075
H62	H	-4.163493	-0.123578	-0.731263
Cl63	Cl	-3.627908	-0.109452	-0.765404
H64	H	-3.784684	-0.365686	-0.109613
