data_functionalizedCrystal
_audit_creation_method	'MofGen! by Chris Wilmer'
_symmetry_space_group_name_H-M	'P1'
_symmetry_Int_Tables_number	1
_symmetry_cell_setting	triclinic
loop_
_symmetry_equiv_pos_as_xyz
  x,y,z
_cell_length_a	11.792254
_cell_length_b	11.792254
_cell_length_c	12.376457
_cell_angle_alpha	101.355083
_cell_angle_beta	78.628102
_cell_angle_gamma	84.198598
loop_
_atom_site_label
_atom_site_type_symbol
_atom_site_fract_x
_atom_site_fract_y
_atom_site_fract_z
O1	O	1.528539	0.134015	-0.094004
O2	O	1.198201	0.150033	-0.094007
O3	O	1.371377	-0.023143	-0.093998
O4	O	1.355363	0.307191	-0.094014
O5	O	1.328098	0.020091	0.094012
O6	O	1.154922	0.193267	0.094003
O7	O	1.485260	0.177250	0.094005
Zn8	Zn	1.313220	0.192123	0.123855
Zn9	Zn	1.370242	0.135160	-0.123856
O10	O	1.312084	0.350426	0.093996
C11	C	1.134271	0.170641	-0.000002
C12	C	1.008258	0.167621	-0.000003
C13	C	0.905922	0.165166	-0.000008
C14	C	0.777536	0.162097	-0.000008
C15	C	1.348729	-0.043817	0.000007
C16	C	1.345709	-0.169830	0.000006
C17	C	1.343256	-0.272168	0.000002
C18	C	1.340190	-0.400557	-0.000009
C19	C	1.549191	0.156641	-0.000002
C20	C	1.675206	0.159660	-0.000008
C21	C	1.334733	0.371099	-0.000011
C22	C	1.337755	0.497111	-0.000017
N23	N	1.274312	0.230999	0.292911
N24	N	1.409158	0.096275	-0.292912
C25	C	1.499475	0.006010	0.647908
C26	C	1.526700	-0.021199	0.529570
C27	C	1.463605	0.041848	0.470399
C28	C	1.373281	0.132109	0.529579
C29	C	1.346059	0.159327	0.647929
C30	C	1.310189	0.195165	0.470420
C31	C	1.219865	0.285426	0.529599
C32	C	1.192648	0.312639	0.647938
C33	C	1.255742	0.249592	0.707108
C34	C	1.337411	0.167947	0.352070
C35	C	1.183995	0.321264	0.352090
C36	C	1.156770	0.348473	0.470429
H37	H	1.410953	0.094456	0.303896
C38	C	1.493543	0.011911	0.340230
H39	H	1.556365	-0.050882	0.313459
H40	H	1.515673	0.078400	0.313442
H41	H	1.427058	-0.010284	0.313480
C42	C	1.626040	-0.120484	0.464480
H43	H	1.659711	-0.154142	0.516666
H44	H	1.684157	-0.089954	0.418301
H45	H	1.595531	-0.178627	0.418328
C46	C	1.114592	0.390625	0.287015
H47	H	1.143733	0.361482	0.208059
H48	H	1.122926	0.470917	0.306402
H49	H	1.034300	0.382244	0.306421
C50	C	1.568869	-0.063327	0.712995
H51	H	1.539715	-0.034192	0.791951
H52	H	1.649155	-0.054950	0.693587
H53	H	1.560532	-0.143626	0.693615
C54	C	1.093312	0.411940	0.713032
H55	H	1.059630	0.445589	0.660848
H56	H	1.123824	0.470075	0.759182
H57	H	1.035188	0.381412	0.759214
H58	H	1.233573	0.271742	0.803469
C59	C	1.057398	0.447735	0.535529
H60	H	1.023702	0.481377	0.483348
H61	H	1.087868	0.505887	0.581701
H62	H	0.999295	0.417161	0.581688
