data_functionalizedCrystal
_audit_creation_method	'MofGen! by Chris Wilmer'
_symmetry_space_group_name_H-M	'P1'
_symmetry_Int_Tables_number	1
_symmetry_cell_setting	triclinic
loop_
_symmetry_equiv_pos_as_xyz
  x,y,z
_cell_length_a	13.032831
_cell_length_b	25.639240
_cell_length_c	13.032268
_cell_angle_alpha	82.864661
_cell_angle_beta	89.113023
_cell_angle_gamma	82.835975
loop_
_atom_site_label
_atom_site_type_symbol
_atom_site_fract_x
_atom_site_fract_y
_atom_site_fract_z
Zn1	Zn	1.498317	-0.353075	0.780663
Zn2	Zn	1.520023	-0.430970	0.608645
Zn3	Zn	1.348185	-0.331235	0.586915
Zn4	Zn	1.326273	-0.428143	0.758772
O5	O	1.423200	-0.385856	0.683749
O6	O	1.645112	-0.373732	0.776101
O7	O	1.515483	-0.409783	0.461850
O8	O	1.368187	-0.260977	0.612683
O9	O	1.661060	-0.430960	0.649720
O10	O	1.478488	-0.277023	0.755029
O11	O	1.389235	-0.336508	0.445884
O12	O	1.201363	-0.333767	0.591456
O13	O	1.330840	-0.426143	0.905589
O14	O	1.185264	-0.404965	0.717719
O15	O	1.457240	-0.370991	0.921672
O16	O	1.494236	-0.503750	0.628493
O17	O	1.351888	-0.501674	0.738790
C18	C	1.155997	-0.366690	0.649854
C19	C	1.041684	-0.358504	0.635379
C20	C	0.982793	-0.390128	0.691304
C21	C	0.864644	-0.381669	0.676344
C22	C	1.423064	-0.521684	0.683650
C23	C	1.423096	-0.579800	0.683654
C24	C	1.480651	-0.948501	0.757991
C25	C	1.480679	-1.003109	0.758016
O26	O	1.529451	-1.038418	0.821116
N27	N	1.423330	-1.022111	0.683866
C28	C	1.365941	-0.986502	0.609693
O29	O	1.317163	-1.007678	0.546626
C30	C	1.365908	-0.931895	0.609674
C31	C	1.423269	-0.912896	0.683822
C32	C	1.538006	-0.929502	0.832134
C33	C	1.537980	-0.874898	0.832108
C34	C	1.480598	-0.839293	0.757939
C35	C	1.423243	-0.858293	0.683796
C36	C	1.308514	-0.896287	0.535507
C37	C	1.308486	-0.841677	0.535494
C38	C	1.365847	-0.822679	0.609642
C39	C	1.365835	-0.768084	0.609601
N40	N	1.423184	-0.749082	0.683750
C41	C	1.480565	-0.784687	0.757919
C42	C	1.366013	-1.101180	0.609741
C43	C	1.366051	-1.155785	0.609755
C44	C	1.480787	-1.172389	0.758079
C45	C	1.480754	-1.117782	0.758059
C46	C	1.423362	-1.082178	0.683890
C47	C	1.480506	-0.670014	0.757858
C48	C	1.480478	-0.615405	0.757823
C49	C	1.365738	-0.598806	0.609503
C50	C	1.365770	-0.653411	0.609534
C51	C	1.423156	-0.689014	0.683721
O52	O	1.317084	-0.732744	0.546536
O53	O	1.529324	-0.763502	0.820984
C54	C	1.691445	-0.405097	0.717776
C55	C	1.805755	-0.413297	0.732276
C56	C	1.389174	-0.400687	0.951989
C57	C	1.374675	-0.407008	1.066297
C58	C	1.423360	-0.249501	0.683874
C59	C	1.423429	-0.191395	0.683928
C60	C	1.457151	-0.371049	0.416560
C61	C	1.471850	-0.364595	0.302278
C62	C	1.430751	-0.382537	1.125216
C63	C	1.415766	-0.389069	1.243360
H64	H	1.527228	-0.698997	0.818274
C65	C	0.855785	-0.458336	0.811929
H66	H	0.803514	-0.477076	0.845079
H67	H	0.902671	-0.481883	0.777771
H68	H	0.892023	-0.443829	0.862090
C69	C	1.245402	-0.917176	0.453957
H70	H	1.253630	-0.954797	0.464577
H71	H	1.174389	-0.904121	0.460200
H72	H	1.269261	-0.905501	0.386776
H73	H	1.019844	-0.423463	0.750262
C74	C	1.294836	-0.441845	1.116300
H75	H	1.295246	-0.441669	1.189147
H76	H	1.227954	-0.428278	1.089989
H77	H	1.312069	-0.477088	1.100623
C78	C	1.302618	-0.559635	0.527927
H79	H	1.310812	-0.524393	0.538546
H80	H	1.326481	-0.565855	0.460755
H81	H	1.231604	-0.564484	0.534173
H82	H	1.261746	-0.812689	0.475097
C83	C	1.302961	-1.176678	0.528187
H84	H	1.268780	-1.147648	0.484019
H85	H	1.348022	-1.198324	0.488410
H86	H	1.253136	-1.196944	0.561815
H87	H	1.319281	-1.072192	0.549335
H88	H	0.827597	-0.348328	0.617389
H89	H	1.004633	-0.325166	0.576428
C90	C	1.543568	-0.594509	0.839397
H91	H	1.577734	-0.623538	0.883579
H92	H	1.593388	-0.574240	0.805782
H93	H	1.498489	-0.572866	0.879171
C94	C	1.551698	-0.329758	1.252282
H95	H	1.551301	-0.329940	1.179436
H96	H	1.534480	-0.294518	1.267962
H97	H	1.618582	-0.343334	1.278595
H98	H	1.584685	-0.859433	0.892488
C99	C	1.601139	-0.968660	0.913722
H100	H	1.635293	-0.949516	0.957863
H101	H	1.556110	-0.989625	0.953523
H102	H	1.650988	-0.990990	0.880107
C103	C	1.543830	-1.096888	0.839637
H104	H	1.577998	-1.125918	0.883814
H105	H	1.593648	-1.076614	0.806032
H106	H	1.498744	-1.075250	0.879415
H107	H	1.319071	-0.668880	0.549150
C108	C	1.510596	-0.347704	1.075214
H109	H	1.510198	-0.347887	1.002369
H110	H	1.493381	-0.312463	1.090892
H111	H	1.577480	-0.361280	1.101527
C112	C	1.335923	-0.423908	1.293358
H113	H	1.336333	-0.423732	1.366205
H114	H	1.269041	-0.410341	1.267047
H115	H	1.353157	-0.459151	1.277682
H116	H	1.527509	-1.201389	0.818473
