data_functionalizedCrystal
_audit_creation_method	'MofGen! by Chris Wilmer'
_symmetry_space_group_name_H-M	'P1'
_symmetry_Int_Tables_number	1
_symmetry_cell_setting	triclinic
loop_
_symmetry_equiv_pos_as_xyz
  x,y,z
_cell_length_a	12.759401
_cell_length_b	12.827892
_cell_length_c	12.759401
_cell_angle_alpha	90.007196
_cell_angle_beta	90.006940
_cell_angle_gamma	90.016917
loop_
_atom_site_label
_atom_site_type_symbol
_atom_site_fract_x
_atom_site_fract_y
_atom_site_fract_z
Zn1	Zn	1.606116	-0.416173	0.594025
Zn2	Zn	2.106116	0.083827	1.094025
Zn3	Zn	1.606048	-0.590881	0.418347
Zn4	Zn	2.106048	-0.090881	0.918347
Zn5	Zn	1.430458	-0.416160	0.418360
Zn6	Zn	1.930458	0.083840	0.918360
Zn7	Zn	1.430405	-0.590877	0.593984
Zn8	Zn	1.930405	-0.090877	1.093984
O9	O	1.518257	-0.503523	0.506179
O10	O	2.018257	-0.003523	1.006179
O11	O	1.753128	-0.439356	0.570732
O12	O	2.253128	0.060644	1.070732
O13	O	1.582749	-0.567700	0.271328
O14	O	2.082749	-0.067700	0.771328
O15	O	1.453810	-0.269925	0.441685
O16	O	1.953810	0.230075	0.941685
O17	O	1.753078	-0.567713	0.441663
O18	O	2.253078	-0.067713	0.941663
O19	O	1.582865	-0.269935	0.570745
O20	O	2.082865	0.230065	1.070745
O21	O	1.453744	-0.439333	0.271337
O22	O	1.953744	0.060667	0.771337
O23	O	1.283430	-0.439329	0.441646
O24	O	1.783430	0.060671	0.941646
O25	O	1.453719	-0.567706	0.741011
O26	O	1.953719	-0.067706	1.241011
O27	O	1.283391	-0.567693	0.570676
O28	O	1.783391	-0.067693	1.070676
O29	O	1.582814	-0.439352	0.741040
O30	O	2.082814	0.060648	1.241040
O31	O	1.582698	-0.737117	0.441624
O32	O	2.082698	-0.237117	0.941624
O33	O	1.453653	-0.737114	0.570663
O34	O	1.953653	-0.237114	1.070663
C35	C	1.245289	-0.503510	0.506158
C36	C	1.745289	-0.003510	1.006158
C37	C	1.128513	-0.503530	0.506174
C38	C	1.628513	-0.003530	1.006174
C39	C	1.518191	-0.775033	0.506161
C40	C	2.018191	-0.275033	1.006161
C41	C	1.518259	-0.891186	0.506188
C42	C	2.018259	-0.391186	1.006188
C43	C	1.073658	-0.570471	0.573255
C44	C	1.573658	-0.070471	1.073255
C45	C	0.963934	-0.570475	0.573276
C46	C	1.463934	-0.070475	1.073276
C47	C	0.963929	-0.436594	0.439127
C48	C	1.463929	0.063406	0.939127
C49	C	1.073651	-0.436585	0.439112
C50	C	1.573651	0.063415	0.939112
C51	C	1.582190	-0.942937	0.442406
C52	C	2.082190	-0.442937	0.942406
C53	C	1.582262	-1.062988	0.442432
C54	C	2.082262	-0.562988	0.942432
C55	C	1.792290	-0.503536	0.506201
C56	C	2.292290	-0.003536	1.006201
C57	C	1.909067	-0.503542	0.506210
C58	C	2.409067	-0.003542	1.006210
C59	C	1.518268	-0.503530	0.780212
C60	C	2.018268	-0.003530	1.280212
C61	C	1.518273	-0.503533	0.896989
C62	C	2.018273	-0.003533	1.396989
C63	C	1.518351	-0.230953	0.506221
C64	C	2.018351	0.269047	1.006221
C65	C	1.518392	-0.114799	0.506239
C66	C	2.018392	0.385201	1.006239
C67	C	1.585484	-0.436710	0.951868
C68	C	2.085484	0.063290	1.451868
C69	C	1.585475	-0.436708	1.061592
C70	C	2.085475	0.063292	1.561592
C71	C	1.451041	-0.570361	1.061548
C72	C	1.951041	-0.070361	1.561548
C73	C	1.451046	-0.570357	0.951826
C74	C	1.951046	-0.070357	1.451826
C75	C	1.518244	-0.503539	1.233212
C76	C	2.018244	-0.003539	1.733212
C77	C	1.518260	-0.503535	1.116435
C78	C	2.018260	-0.003535	1.616435
H79	H	1.118323	-0.624978	0.627864
H80	H	1.618323	-0.124978	1.127864
N81	N	1.657994	-0.364638	0.892726
N82	N	2.157994	0.135362	1.392726
H83	H	1.706670	-0.407115	0.847212
H84	H	2.206670	0.092885	1.347212
H85	H	1.700498	-0.322326	0.944217
H86	H	2.200498	0.177674	1.444217
H87	H	0.919276	-0.624983	0.627901
H88	H	1.419276	-0.124983	1.127901
H89	H	1.640204	-0.382292	1.106270
H90	H	2.140204	0.117708	1.606270
N91	N	1.132825	-0.364368	0.366771
N92	N	1.632825	0.135632	0.866771
H93	H	1.081423	-0.321963	0.324287
H94	H	1.581423	0.178037	0.824287
H95	H	1.178336	-0.406815	0.318069
H96	H	1.678336	0.093185	0.818069
H97	H	0.919247	-0.382092	0.384525
H98	H	1.419247	0.117908	0.884525
N99	N	1.654617	-0.883909	0.370037
N100	N	2.154617	-0.383909	0.870037
H101	H	1.697291	-0.934939	0.327475
H102	H	2.197291	-0.434939	0.827475
H103	H	1.703138	-0.838565	0.412876
H104	H	2.203138	-0.338565	0.912876
H105	H	1.463583	-0.935756	0.560818
H106	H	1.963583	-0.435756	1.060818
H107	H	1.396309	-0.624770	1.106210
H108	H	1.896309	-0.124770	1.606210
H109	H	1.636993	-1.107493	0.387823
H110	H	2.136993	-0.607493	0.887823
H111	H	1.463650	-1.070302	0.560844
H112	H	1.963650	-0.570302	1.060844
N113	N	1.378529	-0.642413	0.892626
N114	N	1.878529	-0.142413	1.392626
H115	H	1.335940	-0.684746	0.944012
H116	H	1.835940	-0.184746	1.444012
H117	H	1.421262	-0.690780	0.847088
H118	H	1.921262	-0.190780	1.347088
