data_functionalizedCrystal
_audit_creation_method	'MofGen! by Chris Wilmer'
_symmetry_space_group_name_H-M	'P1'
_symmetry_Int_Tables_number	1
_symmetry_cell_setting	triclinic
loop_
_symmetry_equiv_pos_as_xyz
  x,y,z
_cell_length_a	15.995343
_cell_length_b	15.995350
_cell_length_c	13.330367
_cell_angle_alpha	89.992805
_cell_angle_beta	90.002584
_cell_angle_gamma	83.490779
loop_
_atom_site_label
_atom_site_type_symbol
_atom_site_fract_x
_atom_site_fract_y
_atom_site_fract_z
O1	O	1.110994	0.107883	0.083318
O2	O	0.867218	0.121218	0.083341
O3	O	0.995770	-0.007337	0.083328
O4	O	0.982442	0.236438	0.083331
O5	O	0.995750	-0.007317	-0.083519
O6	O	0.867198	0.121238	-0.083506
O7	O	1.110974	0.107904	-0.083529
Cu8	Cu	0.989084	0.114573	-0.098752
Cu9	Cu	0.989108	0.114548	0.098564
O10	O	0.982422	0.236459	-0.083516
C11	C	0.836013	0.120678	-0.000079
C12	C	0.743062	0.119028	-0.000070
C13	C	0.572876	0.116035	-0.000084
C14	C	0.549530	0.023238	-0.000084
C15	C	0.452852	0.021492	-0.000469
C16	C	0.405316	0.113086	-0.000096
C17	C	0.434396	0.159758	-0.095183
C18	C	0.531189	0.160859	-0.095257
C19	C	0.531122	0.162194	0.094486
C20	C	0.434627	0.158768	0.095730
C21	C	0.310618	0.111425	-0.000106
C22	C	0.667574	0.117699	-0.000080
C23	C	0.995209	-0.038522	-0.000094
C24	C	0.993557	-0.131472	-0.000088
C25	C	0.987625	-0.469220	-0.000091
C26	C	0.896072	-0.421783	0.000292
C27	C	0.897725	-0.325093	-0.000084
C28	C	0.990567	-0.301659	-0.000089
C29	C	1.035713	-0.342726	-0.095369
C30	C	1.033413	-0.439362	-0.095449
C31	C	1.035327	-0.439743	0.094288
C32	C	1.035305	-0.342798	0.095547
C33	C	0.992235	-0.206962	-0.000091
C34	C	0.985960	-0.563917	-0.000095
C35	C	1.142179	0.108444	-0.000107
C36	C	1.235130	0.110093	-0.000109
C37	C	0.982983	0.267643	-0.000092
C38	C	0.984635	0.360594	-0.000091
N39	N	0.989074	0.114589	-0.237534
C40	C	1.039898	0.165345	-0.710150
C41	C	0.938342	0.063719	-0.710130
C42	C	0.938330	0.063732	-0.605112
C43	C	0.989104	0.114551	-0.552608
C44	C	1.039889	0.165357	-0.605122
C45	C	0.887552	0.012920	-0.552590
C46	C	0.887538	0.012930	-0.447565
C47	C	0.938308	0.063755	-0.395059
C48	C	0.989095	0.114564	-0.447580
C49	C	1.039869	0.165383	-0.395076
C50	C	1.090652	0.216197	-0.447595
C51	C	1.090659	0.216182	-0.552616
C52	C	0.938300	0.063770	-0.290038
C53	C	1.039860	0.165396	-0.290048
N54	N	0.989125	0.114525	0.237346
H55	H	0.577546	-0.012739	0.068093
H56	H	0.859488	-0.440322	0.068620
F57	F	0.833518	-0.041161	-0.608473
H58	H	1.132006	0.257550	-0.595386
F59	F	1.093937	0.219427	-0.766044
F60	F	1.144692	0.270276	-0.391704
H61	H	1.081202	0.206784	-0.247306
F62	F	0.851003	-0.288655	-0.089500
F63	F	0.884270	0.009681	-0.234148
H64	H	0.846187	-0.028446	-0.404813
F65	F	0.428000	-0.026259	0.088607
H66	H	1.005402	-0.460291	0.166504
H67	H	0.578507	-0.012137	-0.068172
F68	F	0.884311	0.009634	-0.766012
H69	H	0.557966	0.128931	-0.166608
F70	F	0.428738	-0.026000	-0.090096
H71	H	1.000476	-0.457654	-0.166669
F72	F	0.550240	0.249805	-0.100560
H73	H	1.102828	-0.471506	0.094924
H74	H	1.100629	-0.471611	-0.099775
H75	H	0.414296	0.127752	-0.166217
F76	F	0.392773	0.247870	-0.099459
F77	F	1.124867	-0.324266	-0.100009
H78	H	0.559400	0.132907	0.166582
F79	F	0.410405	0.114330	0.187680
F80	F	0.994708	-0.305620	-0.188044
F81	F	0.391558	0.246127	0.103617
H82	H	0.545135	0.230498	0.095403
H83	H	1.002298	-0.315557	0.166033
F84	F	1.123800	-0.322719	0.103068
H85	H	0.859634	-0.441368	-0.067648
F86	F	0.851339	-0.287950	0.089190
