data_functionalizedCrystal
_audit_creation_method	'MofGen! by Chris Wilmer'
_symmetry_space_group_name_H-M	'P1'
_symmetry_Int_Tables_number	1
_symmetry_cell_setting	triclinic
loop_
_symmetry_equiv_pos_as_xyz
  x,y,z
_cell_length_a	16.120484
_cell_length_b	10.686154
_cell_length_c	10.686551
_cell_angle_alpha	90.304699
_cell_angle_beta	91.292191
_cell_angle_gamma	82.930173
loop_
_atom_site_label
_atom_site_type_symbol
_atom_site_fract_x
_atom_site_fract_y
_atom_site_fract_z
Zn1	Zn	-0.203161	-1.957928	0.579160
Zn2	Zn	-0.353972	-1.931032	0.381768
Zn3	Zn	-0.224473	-1.730538	0.387213
Zn4	Zn	-0.352281	-1.737581	0.607396
O5	O	-0.283472	-1.839270	0.488884
O6	O	-0.214955	-2.130483	0.538881
O7	O	-0.346421	-1.890233	0.207734
O8	O	-0.105043	-1.769010	0.403136
O9	O	-0.325755	-2.110723	0.393858
O10	O	-0.089385	-1.936072	0.544160
O11	O	-0.251278	-1.742930	0.211733
O12	O	-0.249639	-1.555349	0.430516
O13	O	-0.322873	-1.781014	0.778407
O14	O	-0.343539	-1.560523	0.592283
O15	O	-0.213316	-1.942902	0.757663
O16	O	-0.470351	-1.897062	0.421237
O17	O	-0.469109	-1.754935	0.587004
C18	C	-0.298718	-1.512269	0.515055
C19	C	-0.305259	-1.372378	0.526282
C20	C	-0.499961	-1.823881	0.506618
C21	C	-0.592568	-1.817416	0.514237
C22	C	-0.762120	-1.805622	0.528173
C23	C	-0.803972	-1.873145	0.449598
C24	C	-0.898317	-1.866583	0.457352
C25	C	-0.667767	-1.812182	0.520421
C26	C	-0.066135	-1.854756	0.471106
C27	C	0.026481	-1.861355	0.463529
C28	C	-0.265529	-1.865744	0.814615
C29	C	-0.257882	-1.877025	0.953421
C30	C	-0.268163	-1.167546	0.462598
C31	C	-0.261630	-1.307436	0.451361
C32	C	-0.301282	-1.812975	0.164411
C33	C	-0.308682	-1.801954	0.025566
H34	H	-0.347617	-1.320956	0.599013
H35	H	-0.219275	-1.358863	0.378617
O36	O	-0.192503	-1.973584	1.012258
H37	H	-0.196542	-1.967580	1.115706
O38	O	-0.374029	-1.705368	0.966714
H39	H	-0.362972	-1.609622	0.998428
O40	O	-0.757588	-1.956247	0.352767
H41	H	-0.689692	-1.948418	0.361786
H42	H	-0.797143	-1.742888	0.601260
