data_functionalizedCrystal
_audit_creation_method	'MofGen! by Chris Wilmer'
_symmetry_space_group_name_H-M	'P1'
_symmetry_Int_Tables_number	1
_symmetry_cell_setting	triclinic
loop_
_symmetry_equiv_pos_as_xyz
  x,y,z
_cell_length_a	15.995292
_cell_length_b	19.188930
_cell_length_c	15.072220
_cell_angle_alpha	89.993728
_cell_angle_beta	89.986330
_cell_angle_gamma	83.306699
loop_
_atom_site_label
_atom_site_type_symbol
_atom_site_fract_x
_atom_site_fract_y
_atom_site_fract_z
O1	O	1.110697	0.089798	-0.073817
O2	O	0.866875	0.100954	-0.073814
O3	O	0.995822	-0.006263	-0.073798
O4	O	0.981750	0.197015	-0.073833
O5	O	0.995790	-0.006257	0.073767
O6	O	0.866843	0.100960	0.073751
O7	O	1.110666	0.089804	0.073748
Zn8	Zn	0.988749	0.095383	0.097179
Zn9	Zn	0.988791	0.095375	-0.097245
O10	O	0.981718	0.197021	0.073732
C11	C	0.835665	0.100503	-0.000031
C12	C	0.742717	0.099142	-0.000030
C13	C	0.404997	0.094138	-0.000039
C14	C	0.428026	0.171524	-0.000382
C15	C	0.524696	0.172995	-0.000045
C16	C	0.572543	0.096621	-0.000035
C17	C	0.543565	0.057935	0.084236
C18	C	0.446778	0.057003	0.084303
C19	C	0.446965	0.055416	-0.083506
C20	C	0.543447	0.058284	-0.084617
C21	C	0.667234	0.098020	-0.000030
C22	C	0.310306	0.092736	-0.000038
C23	C	0.995351	-0.032272	-0.000013
C24	C	0.993983	-0.109780	-0.000006
C25	C	1.069645	-0.154524	-0.000002
C26	C	1.068360	-0.227351	-0.000016
C27	C	0.991408	-0.255430	-0.000016
C28	C	0.915736	-0.210676	-0.000025
C29	C	0.917023	-0.137851	-0.000019
N30	N	0.932577	-0.363573	0.050204
N31	N	0.931359	-0.432754	0.050200
C32	C	0.987524	-0.474848	-0.000034
N33	N	1.044967	-0.445148	-0.050254
N34	N	1.046187	-0.375961	-0.050247
C35	C	0.990003	-0.334396	-0.000022
C36	C	1.061798	-0.598560	-0.000047
C37	C	1.060510	-0.671388	-0.000067
C38	C	0.907884	-0.654711	-0.000066
C39	C	0.909174	-0.581885	-0.000056
C40	C	0.986134	-0.553814	-0.000042
C41	C	1.141875	0.090255	-0.000037
C42	C	1.234823	0.091616	-0.000044
C43	C	0.982190	0.223030	-0.000055
C44	C	0.983558	0.300538	-0.000068
N45	N	0.988727	0.095388	0.229867
N46	N	0.988820	0.095365	-0.229934
C47	C	0.988789	0.095372	0.589069
C48	C	0.919562	0.152550	0.551453
C49	C	0.919719	0.152758	0.448628
C50	C	0.988757	0.095380	0.410865
C51	C	1.076067	0.111276	0.448152
C52	C	1.075678	0.111683	0.551010
C53	C	0.971488	0.022129	0.551182
C54	C	0.969481	0.022618	0.448319
C55	C	0.988745	0.095383	0.310152
C56	C	0.988808	0.095371	0.689782
H57	H	0.575639	0.001734	0.087377
Cl58	Cl	0.819018	0.138163	0.589666
Cl59	Cl	1.166394	-0.119239	-0.000010
Cl60	Cl	0.384653	0.217577	-0.093688
Cl61	Cl	0.818996	-0.245974	-0.000032
H62	H	0.576622	0.002538	-0.089699
H63	H	0.845228	-0.677572	-0.000071
H64	H	1.090965	0.165098	0.574982
Cl65	Cl	0.821897	-0.081597	-0.000023
H66	H	1.124463	-0.575704	-0.000040
H67	H	1.128787	0.071679	0.575891
Cl68	Cl	0.383035	0.217329	0.092383
Cl69	Cl	0.552924	0.220056	0.093369
Cl70	Cl	1.157487	0.048690	0.410389
H71	H	0.419849	0.083800	0.147289
H72	H	1.122126	-0.707819	-0.000069
Cl73	Cl	0.424628	-0.030594	0.090277
Cl74	Cl	0.574357	0.099419	0.181052
Cl75	Cl	0.814050	-0.525632	-0.000056
Cl76	Cl	1.049434	-0.043564	0.588738
Cl77	Cl	1.100247	0.192806	0.408356
H78	H	0.418563	0.079602	-0.147378
Cl79	Cl	0.819492	0.138185	0.409704
Cl80	Cl	0.875332	-0.001463	0.591283
H81	H	0.930429	0.206597	0.577282
H82	H	0.543624	0.203288	-0.060456
H83	H	0.930740	0.207111	0.424004
Cl84	Cl	0.870324	0.003989	0.410696
Cl85	Cl	1.163485	-0.283612	-0.000013
Cl86	Cl	1.042312	-0.046152	0.408652
Cl87	Cl	0.572017	0.101748	-0.180873
H88	H	0.433180	-0.001546	-0.084068
