data_functionalizedCrystal
_audit_creation_method	'MofGen! by Chris Wilmer'
_symmetry_space_group_name_H-M	'P1'
_symmetry_Int_Tables_number	1
_symmetry_cell_setting	triclinic
loop_
_symmetry_equiv_pos_as_xyz
  x,y,z
_cell_length_a	19.077105
_cell_length_b	10.686285
_cell_length_c	19.077299
_cell_angle_alpha	92.255450
_cell_angle_beta	94.502159
_cell_angle_gamma	83.162422
loop_
_atom_site_label
_atom_site_type_symbol
_atom_site_fract_x
_atom_site_fract_y
_atom_site_fract_z
Zn1	Zn	1.118945	-0.613275	0.416683
Zn2	Zn	1.122511	-0.815406	0.290507
Zn3	Zn	0.995628	-0.595587	0.294808
Zn4	Zn	1.009377	-0.815368	0.403624
O5	O	1.061615	-0.709909	0.351405
O6	O	1.218374	-0.647506	0.403610
O7	O	1.101418	-0.778860	0.192732
O8	O	1.004740	-0.421362	0.318240
O9	O	1.220994	-0.796011	0.310909
O10	O	1.095341	-0.434357	0.407781
O11	O	1.008198	-0.617360	0.195892
O12	O	0.898496	-0.617324	0.305577
O13	O	1.028172	-0.795947	0.503702
O14	O	0.908597	-0.778796	0.385524
O15	O	1.108672	-0.647470	0.513296
O16	O	1.114750	-0.991972	0.298247
O17	O	1.031630	-0.991945	0.381354
C18	C	0.877889	-0.696137	0.344601
C19	C	0.799291	-0.690277	0.341706
C20	C	0.767646	-0.771710	0.381894
C21	C	0.693795	-0.766188	0.379177
C22	C	0.651591	-0.679238	0.336268
C23	C	0.683242	-0.597796	0.296079
C24	C	0.757091	-0.603313	0.298799
C25	C	0.430158	-0.653703	0.323679
C26	C	0.356304	-0.648195	0.320960
C27	C	0.366862	-0.816586	0.404059
C28	C	0.440713	-0.822100	0.406773
C29	C	0.472357	-0.740654	0.366587
N30	N	0.576104	-0.673593	0.333489
N31	N	0.547843	-0.746293	0.369370
C32	C	1.075089	-1.037744	0.337933
C33	C	1.080918	-1.178000	0.332195
C34	C	1.246059	-0.723736	0.358237
C35	C	1.324658	-0.729628	0.361148
C36	C	1.069558	-0.723677	0.534711
C37	C	1.072943	-0.729544	0.612826
C38	C	1.048109	-0.380797	0.364947
C39	C	1.042353	-0.240548	0.370717
C40	C	1.097248	-0.771663	1.052347
C41	C	1.094057	-0.766142	0.978951
C42	C	1.043930	-0.679291	0.943906
C43	C	0.996987	-0.597965	0.982261
C44	C	1.000175	-0.603494	1.055656
C45	C	1.029188	-0.653746	0.724576
C46	C	1.026004	-0.648222	0.651176
C47	C	1.123073	-0.816400	0.647870
C48	C	1.126260	-0.821916	0.721267
C49	C	1.079315	-0.740595	0.759615
N50	N	1.040669	-0.673643	0.868883
N51	N	1.082573	-0.746250	0.834637
C52	C	1.053698	-0.696219	1.168811
C53	C	1.050309	-0.690341	1.090697
H54	H	0.475071	-0.892907	0.441713
C55	C	0.971497	-0.553890	0.613250
C56	C	0.931051	-0.483882	0.662540
C57	C	0.880829	-0.396991	0.627628
H58	H	0.994961	-0.498663	0.587882
H59	H	0.941390	-0.597674	0.581507
H60	H	0.961154	-0.440101	0.694271
H61	H	0.907571	-0.539075	0.687911
H62	H	0.850722	-0.440775	0.595885
H63	H	0.904299	-0.341773	0.602261
H64	H	0.853376	-0.349488	0.661066
C65	C	0.637509	-0.503461	0.249379
C66	C	0.653578	-0.526834	0.179362
C67	C	0.611471	-0.439950	0.136322
H68	H	0.588976	-0.511753	0.253421
H69	H	0.646589	-0.420369	0.263631
H70	H	0.644493	-0.609906	0.165114
H71	H	0.702103	-0.518533	0.175298
H72	H	0.620551	-0.356857	0.150574
H73	H	0.562941	-0.448248	0.140370
H74	H	0.622373	-0.455789	0.088812
H75	H	1.161293	-0.882609	0.616639
C76	C	1.131009	-1.249724	0.282488
C77	C	1.181139	-1.331633	0.320957
C78	C	1.227309	-1.397703	0.275201
H79	H	1.104880	-1.296996	0.248733
H80	H	1.154465	-1.191702	0.259117
H81	H	1.157685	-1.389648	0.344317
H82	H	1.207284	-1.284394	0.354710
H83	H	1.250764	-1.339681	0.251830
H84	H	1.201174	-1.444967	0.241448
H85	H	1.261331	-1.453277	0.301296
H86	H	1.138069	-0.842380	1.080876
H87	H	0.990960	-0.587531	0.755790
C88	C	1.145110	-0.854486	0.937442
C89	C	1.189709	-0.931696	0.983844
C90	C	1.236758	-1.013084	0.945633
H91	H	1.119161	-0.905404	0.905540
H92	H	1.172734	-0.806396	0.911955
H93	H	1.162088	-0.979783	1.009319
H94	H	1.215674	-0.880813	1.015746
H95	H	1.264382	-0.964993	0.920146
H96	H	1.210803	-1.063992	0.913732
H97	H	1.267028	-1.065472	0.977111
H98	H	0.802003	-0.842519	0.416832
C99	C	1.180708	-0.916348	0.759182
C100	C	1.221120	-0.986411	0.709885
C101	C	1.271280	-1.073423	0.744785
H102	H	1.210852	-0.872697	0.790940
H103	H	1.157171	-0.971518	0.784531
H104	H	1.244656	-0.931249	0.684548
H105	H	1.190996	-1.030090	0.678125
H106	H	1.247743	-1.128592	0.770134
H107	H	1.301419	-1.029760	0.776542
H108	H	1.298701	-1.120978	0.711342
C109	C	0.942637	-0.503712	0.944089
C110	C	0.949903	-0.516249	0.871605
C111	C	0.899855	-0.429428	0.836422
H112	H	0.896368	-0.519428	0.953517
H113	H	0.950037	-0.420588	0.959956
H114	H	0.942498	-0.599354	0.855744
H115	H	0.996162	-0.500521	0.862156
H116	H	0.907256	-0.346303	0.852289
H117	H	0.853589	-0.445151	0.845856
H118	H	0.904783	-0.437914	0.787239
H119	H	0.961954	-0.537271	1.086880
C120	C	0.659571	-0.854769	0.422826
C121	C	0.712338	-0.932131	0.460964
C122	C	0.680840	-1.013766	0.501172
H123	H	0.630121	-0.806900	0.454471
H124	H	0.631868	-0.905558	0.392579
H125	H	0.740030	-0.881348	0.491208
H126	H	0.741792	-0.980026	0.429336
H127	H	0.653136	-1.064555	0.470926
H128	H	0.651390	-0.965888	0.532813
H129	H	0.716637	-1.066274	0.527049
C130	C	0.332371	-0.904850	0.447669
C131	C	0.258663	-0.881391	0.436119
C132	C	0.226867	-0.962664	0.476291
H133	H	0.347426	-0.989776	0.434310
H134	H	0.345737	-0.890949	0.496118
H135	H	0.245303	-0.895303	0.387680
H136	H	0.243588	-0.796481	0.449481
H137	H	0.240233	-0.948763	0.524740
H138	H	0.241928	-1.047586	0.462929
H139	H	0.176854	-0.946751	0.468465
H140	H	0.782855	-0.536995	0.266078
H141	H	0.321943	-0.577375	0.286023
H142	H	1.004877	-1.186800	0.408089
C143	C	0.464376	-0.565214	0.279970
C144	C	0.411607	-0.487912	0.241797
C145	C	0.443104	-0.406386	0.201518
H146	H	0.492090	-0.514367	0.310151
H147	H	0.493815	-0.613202	0.248347
H148	H	0.382179	-0.439928	0.273417
H149	H	0.383889	-0.538725	0.211603
H150	H	0.472544	-0.454374	0.169895
H151	H	0.470818	-0.355547	0.231704
H152	H	0.407306	-0.353935	0.175608
