data_functionalizedCrystal
_audit_creation_method	'MofGen! by Chris Wilmer'
_symmetry_space_group_name_H-M	'P1'
_symmetry_Int_Tables_number	1
_symmetry_cell_setting	triclinic
loop_
_symmetry_equiv_pos_as_xyz
  x,y,z
_cell_length_a	42.795305
_cell_length_b	42.779610
_cell_length_c	42.784893
_cell_angle_alpha	90.009300
_cell_angle_beta	120.002131
_cell_angle_gamma	59.987999
loop_
_atom_site_label
_atom_site_type_symbol
_atom_site_fract_x
_atom_site_fract_y
_atom_site_fract_z
O1	O	-0.275576	-0.214463	-0.009300
O2	O	-0.211600	-0.169001	0.009253
O3	O	-0.275585	-0.169001	-0.054750
O4	O	-0.211591	-0.214463	0.054702
O5	O	-0.223601	-0.220998	-0.054749
O6	O	-0.159616	-0.220998	0.009253
O7	O	-0.223592	-0.266460	-0.009300
Zn8	Zn	-0.183350	-0.251985	-0.000023
Zn9	Zn	-0.251842	-0.183476	-0.000024
O10	O	-0.159607	-0.266460	0.054703
C11	C	-0.051003	-0.022784	0.028112
C12	C	-0.013128	-0.041771	0.028375
C13	C	-0.050987	-0.079397	0.028116
C14	C	-0.013113	-0.098298	0.028379
C15	C	0.005595	-0.079396	0.028112
C16	C	-0.069625	-0.041772	0.028379
C17	C	-0.152938	0.113736	0.017864
C18	C	-0.173781	0.152398	0.014965
C19	C	-0.155906	0.171793	0.013509
C20	C	-0.178507	0.213714	0.010359
C21	C	-0.117185	0.152523	0.014954
C22	C	-0.096343	0.113863	0.017857
C23	C	-0.114221	0.094470	0.019312
C24	C	0.131808	-0.113964	0.017859
C25	C	0.167558	-0.131783	0.014961
C26	C	0.185498	-0.169066	0.013506
C27	C	0.224255	-0.188387	0.010358
C28	C	0.167689	-0.188532	0.014954
C29	C	0.131947	-0.170717	0.017859
C30	C	0.114006	-0.133429	0.019309
C31	C	-0.152875	-0.113970	0.017877
C32	C	-0.173704	-0.131788	0.014977
C33	C	-0.155814	-0.169073	0.013523
C34	C	-0.178398	-0.188393	0.010377
C35	C	-0.117096	-0.188536	0.014967
C36	C	-0.096270	-0.170716	0.017865
C37	C	-0.114160	-0.133433	0.019323
C38	C	-0.091620	0.052550	0.022456
C39	C	-0.073604	0.019136	0.024964
C40	C	-0.073571	-0.098716	0.024971
C41	C	-0.091573	-0.114116	0.022466
C42	C	0.044352	-0.098714	0.024964
C43	C	0.075246	-0.114112	0.022456
C44	C	-0.384278	-0.079159	-0.361606
C45	C	-0.422157	-0.041534	-0.380503
C46	C	-0.384278	-0.079159	-0.305008
C47	C	-0.422158	-0.041534	-0.323990
C48	C	-0.440876	-0.022547	-0.361605
C49	C	-0.365645	-0.098060	-0.323991
C50	C	-0.282355	-0.170859	-0.396168
C51	C	-0.261519	-0.188804	-0.413982
C52	C	-0.279404	-0.169459	-0.451257
C53	C	-0.256810	-0.188911	-0.470572
C54	C	-0.318130	-0.132170	-0.470717
C55	C	-0.338966	-0.114231	-0.452905
C56	C	-0.321078	-0.133577	-0.415628
C57	C	-0.567117	0.113973	-0.453282
C58	C	-0.602872	0.152634	-0.471221
C59	C	-0.620807	0.172029	-0.451883
C60	C	-0.659570	0.213949	-0.471328
C61	C	-0.602987	0.152759	-0.414603
C62	C	-0.567239	0.114098	-0.396667
C63	C	-0.549304	0.094707	-0.416011
C64	C	-0.282356	-0.170859	-0.168522
C65	C	-0.261516	-0.188802	-0.129868
C66	C	-0.279402	-0.169457	-0.110479
C67	C	-0.256807	-0.188909	-0.068568
C68	C	-0.318124	-0.132170	-0.129742
C69	C	-0.338960	-0.114229	-0.168394
C70	C	-0.321074	-0.133579	-0.187782
C71	C	-0.343672	-0.114120	-0.396315
C72	C	-0.361683	-0.098612	-0.380920
C73	C	-0.361683	-0.098612	-0.263099
C74	C	-0.343673	-0.114120	-0.229693
C75	C	-0.479639	0.019373	-0.381054
C76	C	-0.510538	0.052787	-0.396557
C77	C	-0.384210	-0.412666	-0.028193
C78	C	-0.365585	-0.393679	-0.028455
C79	C	-0.440808	-0.356054	-0.028193
C80	C	-0.422098	-0.337153	-0.028456
C81	C	-0.384222	-0.356055	-0.028190
C82	C	-0.422086	-0.393678	-0.028459
C83	C	-0.339382	-0.549185	-0.017951
C84	C	-0.318667	-0.587846	-0.015055
C85	C	-0.279941	-0.607240	-0.013599
C86	C	-0.257474	-0.649161	-0.010452
C87	C	-0.261935	-0.587970	-0.015043
C88	C	-0.282654	-0.549311	-0.017944
C89	C	-0.321379	-0.529918	-0.019398
C90	C	-0.282325	-0.321487	-0.017936
C91	C	-0.261496	-0.303669	-0.015037
C92	C	-0.279382	-0.266386	-0.013580
C93	C	-0.256799	-0.247065	-0.010431
C94	C	-0.318105	-0.246921	-0.015027
C95	C	-0.338937	-0.264736	-0.017933
C96	C	-0.321041	-0.302023	-0.019385
C97	C	-0.567030	-0.321483	-0.017952
C98	C	-0.602777	-0.303665	-0.015051
C99	C	-0.620717	-0.266381	-0.013596
C100	C	-0.659475	-0.247061	-0.010449
C101	C	-0.602905	-0.246918	-0.015038
C102	C	-0.567157	-0.264737	-0.017938
C103	C	-0.549225	-0.302020	-0.019398
C104	C	-0.343840	-0.487999	-0.022541
C105	C	-0.361745	-0.454585	-0.025047
C106	C	-0.479567	-0.336735	-0.025048
C107	C	-0.510463	-0.321337	-0.022542
C108	C	-0.361635	-0.336737	-0.025041
C109	C	-0.343631	-0.321339	-0.022532
O110	O	0.327840	-0.266454	-0.009322
O111	O	0.236949	-0.220990	0.009228
O112	O	0.236945	-0.220993	-0.054773
O113	O	0.327845	-0.266451	0.054679
O114	O	0.236931	-0.168996	-0.054776
O115	O	0.236935	-0.168992	0.009225
O116	O	0.327826	-0.214457	-0.009325
Zn117	Zn	0.282378	-0.183469	-0.000050
Zn118	Zn	0.282397	-0.251978	-0.000046
O119	O	0.327830	-0.214453	0.054676
O120	O	-0.223755	0.337017	-0.009323
O121	O	-0.159742	0.227538	0.009227
O122	O	-0.223745	0.291550	-0.054774
O123	O	-0.159751	0.273005	0.054678
O124	O	-0.275714	0.291548	-0.054771
O125	O	-0.211711	0.227537	0.009230
O126	O	-0.275724	0.337015	-0.009320
Zn127	Zn	-0.251969	0.282276	-0.000044
Zn128	Zn	-0.183497	0.282277	-0.000049
O129	O	-0.211721	0.273003	0.054681
O130	O	-0.763167	0.337249	-0.496871
O131	O	-0.672259	0.227771	-0.451422
O132	O	-0.672272	0.291785	-0.451417
O133	O	-0.763154	0.273235	-0.496875
O134	O	-0.672273	0.291786	-0.503402
O135	O	-0.672260	0.227772	-0.503407
O136	O	-0.763168	0.337250	-0.548855
Zn137	Zn	-0.717714	0.282511	-0.534385
Zn138	Zn	-0.717713	0.282510	-0.465893
O139	O	-0.763155	0.273236	-0.548860
O140	O	-0.211587	-0.214468	-0.548617
O141	O	-0.275584	-0.169002	-0.503167
O142	O	-0.211597	-0.169004	-0.503163
O143	O	-0.275573	-0.214466	-0.548621
O144	O	-0.159614	-0.220999	-0.451179
O145	O	-0.223601	-0.220998	-0.451183
O146	O	-0.159604	-0.266463	-0.496633
Zn147	Zn	-0.183349	-0.251986	-0.465654
Zn148	Zn	-0.251839	-0.183479	-0.534146
O149	O	-0.223591	-0.266462	-0.496637
C150	C	0.005441	-0.412672	0.361558
C151	C	-0.013277	-0.393685	0.380456
C152	C	-0.051157	-0.356060	0.304961
C153	C	-0.069789	-0.337159	0.323944
C154	C	-0.051157	-0.356060	0.361559
C155	C	-0.013278	-0.393684	0.323943
C156	C	0.131682	-0.549191	0.396116
C157	C	0.167437	-0.587852	0.413930
C158	C	0.185372	-0.607246	0.451205
C159	C	0.224135	-0.649167	0.470519
C160	C	0.167553	-0.587976	0.470666
C161	C	0.131805	-0.549317	0.452854
C162	C	0.113869	-0.529924	0.415577
C163	C	-0.095961	-0.321492	0.453239
C164	C	-0.116672	-0.303673	0.471179
C165	C	-0.155400	-0.266391	0.451842
C166	C	-0.177863	-0.247070	0.471288
C167	C	-0.173415	-0.246925	0.414562
C168	C	-0.152701	-0.264741	0.396625
C169	C	-0.113973	-0.302028	0.415967
C170	C	-0.095964	-0.321489	0.168474
C171	C	-0.116678	-0.303672	0.129820
C172	C	-0.155407	-0.266388	0.110432
C173	C	-0.177870	-0.247068	0.068521
C174	C	-0.173421	-0.246924	0.129696
C175	C	-0.152707	-0.264743	0.168348
C176	C	-0.113975	-0.302026	0.187735
C177	C	0.075103	-0.488005	0.396265
C178	C	0.044204	-0.454591	0.380871
C179	C	-0.073617	-0.336741	0.263052
C180	C	-0.091518	-0.321343	0.229646
C181	C	-0.073616	-0.336742	0.381009
C182	C	-0.091517	-0.321344	0.396513
C183	C	-0.051028	-0.022799	-0.361634
C184	C	-0.069652	-0.041787	-0.380530
C185	C	0.005573	-0.079409	-0.305034
C186	C	-0.013137	-0.098312	-0.324016
C187	C	-0.051014	-0.079412	-0.361631
C188	C	-0.013151	-0.041785	-0.324018
C189	C	-0.095862	0.113721	-0.396200
C190	C	-0.116579	0.152381	-0.414015
C191	C	-0.155305	0.171774	-0.451290
C192	C	-0.177775	0.213694	-0.470607
C193	C	-0.173311	0.152503	-0.470750
C194	C	-0.152591	0.113844	-0.452936
C195	C	-0.113864	0.094453	-0.415659
C196	C	-0.152908	-0.113986	-0.453306
C197	C	-0.173736	-0.131806	-0.471245
C198	C	-0.155848	-0.169088	-0.451906
C199	C	-0.178430	-0.188411	-0.471350
C200	C	-0.117125	-0.188552	-0.414626
C201	C	-0.096293	-0.170735	-0.396690
C202	C	-0.114192	-0.133448	-0.416035
C203	C	0.131797	-0.113972	-0.168548
C204	C	0.167545	-0.131788	-0.129895
C205	C	0.185486	-0.169071	-0.110504
C206	C	0.224246	-0.188389	-0.068593
C207	C	0.167676	-0.188536	-0.129767
C208	C	0.131927	-0.170719	-0.168419
C209	C	0.113992	-0.133437	-0.187808
C210	C	-0.091401	0.052534	-0.396344
C211	C	-0.073494	0.019120	-0.380949
C212	C	0.044333	-0.098725	-0.263125
C213	C	0.075230	-0.114122	-0.229719
C214	C	-0.073599	-0.098731	-0.381079
C215	C	-0.091603	-0.114131	-0.396582
C216	C	0.615789	-0.356282	0.361535
C217	C	0.634428	-0.393906	0.380433
C218	C	0.559202	-0.356284	0.304937
C219	C	0.577926	-0.393908	0.323921
C220	C	0.615803	-0.412895	0.361537
C221	C	0.577912	-0.337382	0.323919
C222	C	0.660565	-0.264579	0.396092
C223	C	0.681267	-0.246634	0.413906
C224	C	0.719994	-0.265977	0.451181
C225	C	0.742448	-0.246524	0.470495
C226	C	0.738014	-0.303266	0.470642
C227	C	0.717308	-0.321206	0.452831
C228	C	0.678582	-0.301861	0.415554
C229	C	0.717742	-0.549412	0.453218
C230	C	0.738584	-0.588072	0.471159
C231	C	0.720710	-0.607469	0.451821
C232	C	0.743309	-0.649388	0.471268
C233	C	0.681987	-0.588200	0.414541
C234	C	0.661142	-0.549539	0.396604
C235	C	0.679025	-0.530148	0.415946
C236	C	0.432964	-0.264588	0.168449
C237	C	0.397216	-0.246647	0.129796
C238	C	0.379289	-0.265992	0.110407
C239	C	0.340529	-0.246542	0.068496
C240	C	0.397114	-0.303279	0.129672
C241	C	0.432863	-0.321219	0.168324
C242	C	0.450783	-0.301868	0.187711
C243	C	0.656134	-0.321319	0.396241
C244	C	0.638240	-0.336827	0.380847
C245	C	0.520443	-0.336832	0.263028
C246	C	0.489546	-0.321326	0.229622
C247	C	0.638405	-0.454813	0.380987
C248	C	0.656421	-0.488227	0.396491
C249	C	-0.440723	0.310379	-0.361620
C250	C	-0.422010	0.310641	-0.380518
C251	C	-0.384141	0.310389	-0.305025
C252	C	-0.365514	0.310651	-0.324009
C253	C	-0.384141	0.310380	-0.361624
C254	C	-0.422010	0.310650	-0.324006
C255	C	-0.566923	0.300121	-0.396172
C256	C	-0.602667	0.297219	-0.413984
C257	C	-0.620596	0.295758	-0.451257
C258	C	-0.659346	0.292605	-0.470569
C259	C	-0.602782	0.297202	-0.470719
C260	C	-0.567045	0.300109	-0.452909
C261	C	-0.549116	0.301568	-0.415634
C262	C	-0.339341	0.300116	-0.453303
C263	C	-0.318634	0.297216	-0.471243
C264	C	-0.279915	0.295763	-0.451907
C265	C	-0.257456	0.292613	-0.471354
C266	C	-0.261906	0.297216	-0.414629
C267	C	-0.282617	0.300123	-0.396691
C268	C	-0.321336	0.301571	-0.416033
C269	C	-0.339344	0.300162	-0.168540
C270	C	-0.318634	0.297266	-0.129888
C271	C	-0.279915	0.295815	-0.110501
C272	C	-0.257457	0.292673	-0.068591
C273	C	-0.261906	0.297257	-0.129766
C274	C	-0.282616	0.300152	-0.168417
C275	C	-0.321338	0.301608	-0.187802
C276	C	-0.510362	0.304716	-0.396323
C277	C	-0.479473	0.307227	-0.380931
C278	C	-0.361687	0.307249	-0.263117
C279	C	-0.343789	0.304746	-0.229712
C280	C	-0.361685	0.307230	-0.381073
C281	C	-0.343787	0.304720	-0.396578
O282	O	-0.275517	0.336996	-0.548650
O283	O	-0.211497	0.227517	-0.503200
O284	O	-0.275493	0.291527	-0.503192
O285	O	-0.211521	0.272986	-0.548659
O286	O	-0.223518	0.291529	-0.451210
O287	O	-0.159522	0.227518	-0.451219
O288	O	-0.223542	0.336998	-0.496669
Zn289	Zn	-0.183280	0.282258	-0.465691
Zn290	Zn	-0.251760	0.282256	-0.534179
O291	O	-0.159546	0.272988	-0.496677
C292	C	-0.051080	0.254173	0.361531
C293	C	-0.013211	0.253913	0.380425
C294	C	-0.051080	0.254164	0.304932
C295	C	-0.013211	0.253904	0.323913
C296	C	0.005502	0.254175	0.361527
C297	C	-0.069707	0.253902	0.323916
C298	C	-0.152980	0.264425	0.396096
C299	C	-0.173813	0.267325	0.413912
C300	C	-0.155933	0.268786	0.451185
C301	C	-0.178523	0.271938	0.470501
C302	C	-0.117218	0.267344	0.470643
C303	C	-0.096385	0.264439	0.452830
C304	C	-0.114268	0.262979	0.415555
C305	C	0.131701	0.264443	0.453195
C306	C	0.167444	0.267345	0.471133
C307	C	0.185373	0.268799	0.451793
C308	C	0.224123	0.271951	0.471236
C309	C	0.167560	0.267346	0.414515
C310	C	0.131823	0.264437	0.396581
C311	C	0.113894	0.262988	0.415925
C312	C	-0.152978	0.264390	0.168451
C313	C	-0.173814	0.267286	0.129798
C314	C	-0.155934	0.268738	0.110408
C315	C	-0.178524	0.271881	0.068498
C316	C	-0.117222	0.267298	0.129669
C317	C	-0.096390	0.264403	0.168320
C318	C	-0.114270	0.262946	0.187709
C319	C	-0.091678	0.259833	0.396240
C320	C	-0.073671	0.257323	0.380845
C321	C	-0.073670	0.257305	0.263024
C322	C	-0.091676	0.259807	0.229619
C323	C	0.044252	0.257327	0.380973
C324	C	0.075141	0.259838	0.396474
H325	H	0.182301	-0.218891	0.013775
O326	O	-0.058625	-0.189603	0.019324
C327	C	0.018554	-0.214529	0.055501
C328	C	-0.024050	-0.193127	0.053895
H329	H	0.046521	-0.217393	0.083453
H330	H	0.012942	-0.197838	0.030303
H331	H	0.027744	-0.244229	0.053947
H332	H	-0.033263	-0.163427	0.055461
H333	H	-0.018416	-0.209848	0.079090
O334	O	0.379936	-0.210453	0.111049
C335	C	0.363784	-0.169417	0.058753
C336	C	0.383378	-0.210427	0.079952
H337	H	0.366552	-0.169382	0.033602
H338	H	0.382737	-0.158660	0.079227
H339	H	0.327525	-0.149842	0.047722
H340	H	0.419634	-0.230031	0.090985
H341	H	0.364392	-0.221153	0.059463
H342	H	-0.437818	-0.026289	-0.308746
H343	H	0.629032	-0.248824	0.365741
O344	O	-0.376968	0.301593	-0.187432
C345	C	-0.433996	0.306032	-0.247023
C346	C	-0.391398	0.304426	-0.225676
H347	H	-0.445670	0.308315	-0.277945
H348	H	-0.460747	0.332052	-0.246526
H349	H	-0.427089	0.278886	-0.232391
H350	H	-0.398262	0.331553	-0.240292
H351	H	-0.364660	0.278388	-0.226170
H352	H	-0.267788	-0.186616	-0.184305
O353	O	-0.549512	0.301596	-0.359985
C354	C	-0.533306	0.337801	-0.319048
C355	C	-0.553030	0.336177	-0.360045
H356	H	-0.536151	0.365761	-0.319084
H357	H	-0.497023	0.312600	-0.299510
H358	H	-0.552171	0.336253	-0.308203
H359	H	-0.534199	0.337737	-0.370926
H360	H	-0.589316	0.361376	-0.379558
O361	O	0.114223	0.263042	0.471926
C362	C	0.059130	0.258544	0.469399
C363	C	0.078876	0.260134	0.448142
H364	H	0.030554	0.256184	0.450181
H365	H	0.046561	0.285699	0.477105
H366	H	0.085683	0.232541	0.496662
H367	H	0.052347	0.286120	0.420865
H368	H	0.091456	0.232961	0.440465
H369	H	-0.230405	-0.603765	-0.013858
H370	H	-0.552518	0.098186	-0.469035
O371	O	-0.058795	0.263060	0.471777
C372	C	-0.004848	0.263365	0.529932
C373	C	-0.047425	0.264937	0.508516
H374	H	0.004363	0.264874	0.559642
H375	H	-0.010483	0.288595	0.513262
H376	H	0.023117	0.235432	0.532756
H377	H	-0.075410	0.292854	0.505687
H378	H	-0.041753	0.239687	0.525195
H379	H	0.002395	-0.408928	0.411364
H380	H	-0.552735	0.098411	-0.366315
O381	O	-0.376591	-0.078018	-0.471756
C382	C	-0.433755	-0.025269	-0.469440
C383	C	-0.391155	-0.066286	-0.448051
H384	H	-0.445537	-0.015768	-0.450281
H385	H	-0.460445	-0.024581	-0.496695
H386	H	-0.426800	-0.005080	-0.477172
H387	H	-0.398068	-0.086498	-0.440293
H388	H	-0.364478	-0.066943	-0.420813
O389	O	-0.265100	-0.530632	-0.019276
C390	C	-0.202132	-0.527650	0.012741
C391	C	-0.221965	-0.548832	0.014300
H392	H	-0.167252	-0.542361	0.039880
H393	H	-0.223557	-0.496689	0.010445
H394	H	-0.200898	-0.528233	-0.013272
H395	H	-0.223202	-0.548279	0.040311
H396	H	-0.200534	-0.579782	0.016576
H397	H	0.770113	-0.603758	0.501511
O398	O	0.005603	-0.023655	-0.305816
C399	C	0.070519	-0.023525	-0.274633
C400	C	0.049338	-0.044099	-0.295232
H401	H	0.105878	-0.040041	-0.266077
H402	H	0.070747	-0.021973	-0.247925
H403	H	0.050595	0.006689	-0.294673
H404	H	0.069244	-0.074323	-0.275222
H405	H	0.049103	-0.045621	-0.321944
H406	H	-0.335102	-0.408928	-0.028873
H407	H	-0.617512	-0.216559	-0.013852
H408	H	-0.204946	-0.216566	0.398819
H409	H	-0.102529	-0.218896	0.013783
O410	O	-0.170424	0.263057	0.359870
C411	C	-0.233221	0.295065	0.293834
C412	C	-0.213526	0.296658	0.334842
H413	H	-0.268068	0.322231	0.273585
H414	H	-0.234493	0.269067	0.293096
H415	H	-0.211665	0.292725	0.284457
H416	H	-0.235064	0.299012	0.344244
H417	H	-0.212245	0.322651	0.335556
H418	H	-0.167499	0.097950	0.019049
H419	H	-0.267753	-0.351845	-0.019121
O420	O	0.114388	-0.077768	0.019329
C421	C	0.098166	-0.036817	0.055523
C422	C	0.117899	-0.077824	0.053902
H423	H	0.101006	-0.036850	0.083476
H424	H	0.061884	-0.017275	0.030327
H425	H	0.117029	-0.025970	0.053973
H426	H	0.099070	-0.088706	0.055463
H427	H	0.154184	-0.097341	0.079096
H428	H	-0.229966	-0.319522	-0.013854
O429	O	0.005624	-0.135196	-0.305785
C430	C	0.064312	-0.189668	-0.247821
C431	C	0.043118	-0.147902	-0.268423
H432	H	0.094624	-0.199951	-0.217608
H433	H	0.074610	-0.208552	-0.264317
H434	H	0.039367	-0.191413	-0.246280
H435	H	0.068040	-0.146120	-0.269969
H436	H	0.032810	-0.129037	-0.251920
H437	H	-0.064329	0.097936	-0.365848
O438	O	-0.099923	0.268788	0.506839
C439	C	-0.106928	0.273258	0.559430
C440	C	-0.126567	0.271631	0.518435
H441	H	-0.128455	0.275548	0.568821
H442	H	-0.105707	0.299282	0.560155
H443	H	-0.072058	0.246117	0.579677
H444	H	-0.161444	0.298753	0.498164
H445	H	-0.127753	0.245589	0.517741
O446	O	0.005428	0.253379	0.305681
C447	C	0.001923	0.252654	0.247716
C448	C	-0.019223	0.253238	0.268320
H449	H	-0.018003	0.252548	0.217504
H450	H	0.037298	0.225858	0.264212
H451	H	0.002116	0.279156	0.246173
H452	H	-0.019447	0.226755	0.269868
H453	H	-0.054586	0.280051	0.251817
O454	O	-0.170129	-0.245853	0.187115
C455	C	-0.158876	-0.220920	0.239382
C456	C	-0.139088	-0.242327	0.218170
H457	H	-0.133792	-0.218055	0.264490
H458	H	-0.167381	-0.237608	0.250465
H459	H	-0.190122	-0.191220	0.218873
H460	H	-0.107830	-0.272027	0.238656
H461	H	-0.130615	-0.225610	0.207081
O462	O	-0.335415	-0.210712	-0.013594
C463	C	-0.328430	-0.158104	-0.009142
C464	C	-0.308774	-0.199114	-0.010754
H465	H	-0.306905	-0.148712	-0.006853
H466	H	-0.329664	-0.157370	0.016873
H467	H	-0.363296	-0.137859	-0.036281
H468	H	-0.273901	-0.219383	0.016366
H469	H	-0.307574	-0.199818	-0.036786
H470	H	0.182043	-0.115935	-0.114213
O471	O	0.005477	-0.411918	0.305821
C472	C	0.064161	-0.469895	0.310044
C473	C	0.042975	-0.449289	0.330615
H474	H	0.094477	-0.500116	0.330078
H475	H	0.074453	-0.453396	0.301465
H476	H	0.039214	-0.471434	0.283346
H477	H	0.067899	-0.447745	0.357326
H478	H	0.032673	-0.465796	0.339166
H479	H	-0.064868	0.263228	0.184001
O480	O	-0.224329	0.295903	-0.110990
C481	C	-0.190332	0.327929	-0.107772
C482	C	-0.232914	0.329508	-0.129074
H483	H	-0.197260	0.355099	-0.122379
H484	H	-0.163599	0.301934	-0.108310
H485	H	-0.178618	0.325595	-0.076835
H486	H	-0.244667	0.331856	-0.160019
H487	H	-0.259619	0.355498	-0.128504
O488	O	0.184806	-0.112823	0.013563
C489	C	0.180958	-0.054683	0.013949
C490	C	0.161364	-0.076103	0.015511
H491	H	0.162020	-0.024994	0.015532
H492	H	0.178161	-0.051802	-0.013980
H493	H	0.217225	-0.071410	0.039170
H494	H	0.125092	-0.059395	-0.009690
H495	H	0.164196	-0.078988	0.043457
H496	H	0.181943	0.268528	0.501484
O497	O	-0.376517	-0.245887	-0.019290
C498	C	-0.412069	-0.245157	0.010353
C499	C	-0.369486	-0.266546	0.011929
H500	H	-0.406396	-0.261846	0.035594
H501	H	-0.440049	-0.242325	-0.017564
H502	H	-0.421282	-0.215444	0.011874
H503	H	-0.360233	-0.296269	0.010423
H504	H	-0.341532	-0.269347	0.039843
H505	H	-0.370489	-0.083869	-0.184076
O506	O	0.664630	-0.607066	0.395815
C507	C	0.634493	-0.642053	0.395296
C508	C	0.654151	-0.620704	0.416547
H509	H	0.626006	-0.653078	0.412045
H510	H	0.659638	-0.667219	0.392524
H511	H	0.603251	-0.621642	0.365568
H512	H	0.685387	-0.641085	0.446286
H513	H	0.628977	-0.595533	0.419288
H514	H	0.447555	-0.248830	0.184232
H515	H	-0.100134	-0.026541	-0.411435
H516	H	-0.101916	0.168069	-0.398169
O517	O	-0.105994	-0.023638	0.028871
C518	C	-0.159673	-0.027894	0.029652
C519	C	-0.118493	-0.048470	0.029086
H520	H	-0.169785	-0.047964	0.029834
H521	H	-0.187952	-0.001213	0.003142
H522	H	-0.151748	-0.019277	0.056427
H523	H	-0.126376	-0.057113	0.002328
H524	H	-0.090226	-0.075134	0.055614
O525	O	-0.170242	-0.077765	-0.472036
C526	C	-0.163233	-0.025171	-0.469506
C527	C	-0.143562	-0.066189	-0.448250
H528	H	-0.141665	-0.015803	-0.450287
H529	H	-0.198084	-0.004895	-0.477214
H530	H	-0.164496	-0.024461	-0.496768
H531	H	-0.142268	-0.066937	-0.420975
H532	H	-0.108721	-0.086447	-0.440571
H533	H	-0.204958	-0.216565	0.113907
O534	O	-0.619903	0.295803	-0.395019
C535	C	-0.616032	0.296148	-0.336875
C536	C	-0.596463	0.297746	-0.358306
H537	H	-0.597096	0.297726	-0.307192
H538	H	-0.613209	0.268202	-0.333998
H539	H	-0.652305	0.321362	-0.353585
H540	H	-0.560185	0.272551	-0.341614
H541	H	-0.599321	0.325708	-0.361187
H542	H	0.181941	-0.603538	0.398082
O543	O	0.114410	-0.077747	-0.187320
C544	C	0.118062	-0.023345	-0.183372
C545	C	0.137791	-0.064365	-0.162065
H546	H	0.136963	-0.012516	-0.162965
H547	H	0.081795	-0.003799	-0.194418
H548	H	0.120839	-0.023362	-0.208521
H549	H	0.135046	-0.064385	-0.136901
H550	H	0.174049	-0.083893	-0.151047
O551	O	-0.210940	0.171401	-0.506948
C552	C	-0.267990	0.231008	-0.559545
C553	C	-0.225381	0.209655	-0.518545
H554	H	-0.279673	0.261937	-0.568936
H555	H	-0.294731	0.230508	-0.560277
H556	H	-0.261092	0.216375	-0.579786
H557	H	-0.232236	0.224271	-0.498280
H558	H	-0.198654	0.210152	-0.517844
H559	H	-0.332685	-0.116418	-0.113952
H560	H	0.002530	-0.026526	0.028802
O561	O	-0.440853	-0.300270	-0.028975
C562	C	-0.499530	-0.245799	-0.029685
C563	C	-0.478345	-0.287563	-0.029110
H564	H	-0.529840	-0.235516	-0.029787
H565	H	-0.509830	-0.226912	-0.056476
H566	H	-0.474579	-0.244061	-0.003190
H567	H	-0.503272	-0.289338	-0.055587
H568	H	-0.468035	-0.306432	-0.002303
O569	O	-0.336075	0.295813	-0.507455
C570	C	-0.329290	0.291308	-0.560168
C571	C	-0.309497	0.292904	-0.519160
H572	H	-0.307805	0.288948	-0.569641
H573	H	-0.364155	0.318462	-0.580393
H574	H	-0.330549	0.265304	-0.560817
H575	H	-0.308208	0.318891	-0.518474
H576	H	-0.274643	0.265732	-0.498953
H577	H	0.002451	0.253489	0.411332
O578	O	-0.170267	-0.245785	0.360409
C579	C	-0.228714	-0.187609	0.306155
C580	C	-0.208874	-0.209036	0.347165
H581	H	-0.259926	-0.157890	0.295438
H582	H	-0.237268	-0.204276	0.286553
H583	H	-0.203611	-0.184789	0.306124
H584	H	-0.233955	-0.211860	0.347233
H585	H	-0.200309	-0.192360	0.366750
O586	O	-0.106105	0.253458	0.305695
C587	C	-0.182191	0.285674	0.252069
C588	C	-0.141009	0.286229	0.272672
H589	H	-0.210419	0.312162	0.225362
H590	H	-0.192395	0.285563	0.272080
H591	H	-0.174236	0.258866	0.243500
H592	H	-0.148930	0.313033	0.281243
H593	H	-0.130816	0.286320	0.252648
O594	O	-0.211387	0.268638	0.111062
C595	C	-0.246927	0.238979	0.076240
C596	C	-0.204350	0.237409	0.097439
H597	H	-0.241249	0.213729	0.065227
H598	H	-0.274915	0.266899	0.051084
H599	H	-0.256128	0.237459	0.096740
H600	H	-0.195108	0.238913	0.076969
H601	H	-0.176388	0.209491	0.122600
O602	O	-0.440725	-0.411912	-0.028986
C603	C	-0.437211	-0.469888	-0.029712
C604	C	-0.416064	-0.449283	-0.029123
H605	H	-0.417277	-0.500109	-0.029815
H606	H	-0.472581	-0.453389	-0.056506
H607	H	-0.437416	-0.471428	-0.003220
H608	H	-0.415827	-0.447738	-0.055596
H609	H	-0.380706	-0.465790	-0.002312
H610	H	-0.552658	-0.248887	-0.019113
H611	H	0.447373	-0.351578	0.184007
H612	H	-0.437822	-0.026292	-0.411409
H613	H	-0.064765	-0.186585	-0.366338
H614	H	0.666594	-0.216275	0.398057
H615	H	-0.617275	-0.319517	-0.013874
O616	O	-0.170419	0.263000	0.187223
C617	C	-0.228737	0.263277	0.183278
C618	C	-0.209041	0.264861	0.161969
H619	H	-0.259961	0.264773	0.162872
H620	H	-0.237239	0.288509	0.194322
H621	H	-0.203569	0.235345	0.208428
H622	H	-0.234187	0.292777	0.136804
H623	H	-0.200528	0.239610	0.150953
H624	H	-0.552429	-0.351841	-0.019139
O625	O	-0.058350	-0.357710	0.187246
C626	C	-0.004229	-0.412101	0.183303
C627	C	-0.046835	-0.371088	0.161992
H628	H	0.005099	-0.422926	0.162896
H629	H	-0.009890	-0.431657	0.194356
H630	H	0.023667	-0.412071	0.208447
H631	H	-0.074752	-0.371081	0.136832
H632	H	-0.041137	-0.351550	0.150967
O633	O	-0.211358	0.171061	0.013612
C634	C	-0.245303	0.174085	0.045635
C635	C	-0.202717	0.152909	0.047214
H636	H	-0.238329	0.159423	0.072803
H637	H	-0.271969	0.173481	0.019651
H638	H	-0.257132	0.205052	0.043292
H639	H	-0.190848	0.121934	0.049571
H640	H	-0.176078	0.153545	0.073194
O641	O	-0.106124	-0.300266	0.305824
C642	C	-0.137466	-0.235192	0.305702
C643	C	-0.096286	-0.276954	0.326264
H644	H	-0.129524	-0.216332	0.322214
H645	H	-0.165707	-0.233429	0.304158
H646	H	-0.147647	-0.224893	0.275491
H647	H	-0.086066	-0.287279	0.356484
H648	H	-0.068071	-0.278693	0.327777
O649	O	-0.440739	0.311129	-0.417383
C650	C	-0.499444	0.311897	-0.471858
C651	C	-0.478273	0.311333	-0.430108
H652	H	-0.529799	0.312070	-0.482161
H653	H	-0.474533	0.285386	-0.473628
H654	H	-0.509689	0.338683	-0.490705
H655	H	-0.468029	0.284565	-0.411236
H656	H	-0.503198	0.337862	-0.428368
O657	O	-0.058764	0.095119	0.019211
C658	C	-0.023208	0.060279	-0.010435
C659	C	-0.065790	0.081488	-0.012008
H660	H	-0.028876	0.049260	-0.035677
H661	H	0.004778	0.035120	0.017481
H662	H	-0.014008	0.080781	-0.011957
H663	H	-0.075030	0.061016	-0.010502
H664	H	-0.093750	0.106652	-0.039922
O665	O	0.005656	-0.135195	0.028939
C666	C	0.070590	-0.200268	0.062687
C667	C	0.049393	-0.158499	0.062095
H668	H	0.105951	-0.219123	0.089496
H669	H	0.070816	-0.202049	0.036207
H670	H	0.050679	-0.210560	0.062809
H671	H	0.069287	-0.148181	0.061987
H672	H	0.049160	-0.156743	0.088574
O673	O	-0.377009	-0.530400	-0.019380
C674	C	-0.431080	-0.534360	-0.019066
C675	C	-0.388473	-0.555679	-0.017454
H676	H	-0.440356	-0.554791	-0.017502
H677	H	-0.459022	-0.509224	-0.047004
H678	H	-0.425386	-0.523288	0.006144
H679	H	-0.394124	-0.566776	-0.042646
H680	H	-0.360545	-0.580796	0.010499
O681	O	-0.170150	0.095187	-0.471884
C682	C	-0.228595	0.099382	-0.530040
C683	C	-0.208759	0.120557	-0.508623
H684	H	-0.259809	0.119882	-0.559750
H685	H	-0.237147	0.088342	-0.513371
H686	H	-0.203491	0.074233	-0.532861
H687	H	-0.233842	0.145722	-0.505796
H688	H	-0.200197	0.131569	-0.525301
H689	H	-0.102008	-0.319523	0.114137
H690	H	-0.102664	0.268481	0.113879
H691	H	0.117083	-0.533405	0.365765
H692	H	-0.437672	0.311076	-0.308766
H693	H	-0.335157	-0.128970	-0.308748
H694	H	0.629613	-0.533853	0.366252
O695	O	0.114694	-0.189688	-0.187078
C696	C	0.118582	-0.247848	-0.182868
C697	C	0.138147	-0.226412	-0.161693
H698	H	0.137528	-0.277539	-0.162352
H699	H	0.121395	-0.250722	-0.207992
H700	H	0.082313	-0.231136	-0.193931
H701	H	0.174421	-0.243104	-0.150605
H702	H	0.135300	-0.223533	-0.136587
H703	H	-0.229983	-0.219160	-0.114184
H704	H	-0.205266	-0.115955	-0.501596
H705	H	-0.102001	-0.319524	0.501532
H706	H	-0.333299	0.296089	-0.114204
H707	H	-0.102556	-0.218910	-0.398880
O708	O	-0.620238	0.295762	-0.506916
C709	C	-0.675365	0.291303	-0.559508
C710	C	-0.655633	0.292921	-0.518509
H711	H	-0.703991	0.289013	-0.568896
H712	H	-0.648849	0.265281	-0.560239
H713	H	-0.687881	0.318446	-0.579752
H714	H	-0.643120	0.265796	-0.498241
H715	H	-0.682163	0.318960	-0.517808
H716	H	0.182161	-0.603770	0.501015
H717	H	0.769543	-0.319011	0.500992
H718	H	-0.267787	-0.186616	-0.365817
O719	O	-0.211454	0.268785	0.395029
C720	C	-0.288637	0.304976	0.370104
C721	C	-0.246036	0.303367	0.391501
H722	H	-0.316609	0.332937	0.367238
H723	H	-0.283027	0.279776	0.386794
H724	H	-0.297818	0.303417	0.340412
H725	H	-0.236831	0.304938	0.421193
H726	H	-0.251668	0.328565	0.374782
O727	O	-0.336179	-0.606563	-0.013715
C728	C	-0.366484	-0.641447	-0.043327
C729	C	-0.346668	-0.620253	-0.044896
H730	H	-0.374962	-0.652528	-0.068529
H731	H	-0.397739	-0.620958	-0.044886
H732	H	-0.341391	-0.666572	-0.015383
H733	H	-0.371729	-0.595129	-0.072835
H734	H	-0.315406	-0.640767	-0.043314
H735	H	0.117301	-0.533630	0.468702
H736	H	-0.064426	-0.351850	0.468991
O737	O	0.185016	0.268776	0.395775
C738	C	0.240142	0.273229	0.398319
C739	C	0.220411	0.271620	0.419583
H740	H	0.268768	0.275521	0.417562
H741	H	0.213626	0.299247	0.371068
H742	H	0.252658	0.246081	0.390592
H743	H	0.207897	0.298748	0.427336
H744	H	0.246941	0.245585	0.446817
O745	O	-0.223894	-0.225016	-0.395018
C746	C	-0.169954	-0.279299	-0.336872
C747	C	-0.212561	-0.238287	-0.358303
H748	H	-0.160784	-0.290044	-0.307187
H749	H	-0.141965	-0.279355	-0.333999
H750	H	-0.175590	-0.298872	-0.353580
H751	H	-0.206969	-0.218691	-0.341614
H752	H	-0.240536	-0.238261	-0.361180
H753	H	0.182288	-0.218896	-0.113977
O754	O	0.559173	-0.412031	0.305696
C755	C	0.500482	-0.407800	0.247742
C756	C	0.521672	-0.387230	0.268336
H757	H	0.470164	-0.387760	0.217530
H758	H	0.490193	-0.416375	0.264246
H759	H	0.525426	-0.434507	0.246198
H760	H	0.496752	-0.360510	0.269884
H761	H	0.531971	-0.378683	0.251824
H762	H	0.664906	-0.409148	0.411340
H763	H	-0.552545	0.301286	-0.468757
H764	H	0.562263	-0.306478	0.308669
O765	O	-0.224312	0.295831	-0.395796
C766	C	-0.170220	0.296118	-0.337743
C767	C	-0.212805	0.297701	-0.359030
H768	H	-0.160899	0.297622	-0.308010
H769	H	-0.175907	0.321347	-0.354473
H770	H	-0.142309	0.268183	-0.334978
H771	H	-0.240737	0.325620	-0.361800
H772	H	-0.207081	0.272454	-0.342291
O773	O	-0.376961	0.301540	-0.472151
C774	C	-0.431027	0.301212	-0.530190
C775	C	-0.388428	0.299606	-0.508894
H776	H	-0.440306	0.299641	-0.559898
H777	H	-0.458972	0.329158	-0.533006
H778	H	-0.425321	0.275997	-0.513418
H779	H	-0.394091	0.324802	-0.525648
H780	H	-0.360497	0.271645	-0.506075
O781	O	0.734880	-0.357432	0.471781
C782	C	0.793334	-0.411701	0.529941
C783	C	0.773485	-0.370679	0.508521
H784	H	0.824545	-0.422420	0.559652
H785	H	0.801895	-0.431304	0.513275
H786	H	0.768235	-0.411737	0.532763
H787	H	0.798563	-0.370606	0.505694
H788	H	0.764914	-0.351093	0.525196
O789	O	0.735157	-0.530627	0.472068
C790	C	0.793506	-0.534585	0.530109
C791	C	0.773827	-0.555904	0.508812
H792	H	0.824779	-0.555015	0.559818
H793	H	0.768382	-0.509448	0.532922
H794	H	0.801942	-0.523514	0.513340
H795	H	0.765393	-0.567001	0.525564
H796	H	0.798964	-0.581023	0.505995
H797	H	0.382516	-0.319031	0.113883
H798	H	0.117324	0.263253	0.366230
H799	H	-0.332690	-0.116424	-0.501067
H800	H	-0.335040	0.311076	-0.308768
O801	O	-0.211298	-0.112834	0.013597
C802	C	-0.265257	-0.054663	0.013900
C803	C	-0.222676	-0.076087	0.015471
H804	H	-0.274474	-0.024947	0.015406
H805	H	-0.259623	-0.071335	0.039126
H806	H	-0.293217	-0.051841	-0.014026
H807	H	-0.194696	-0.078915	0.043380
H808	H	-0.228347	-0.059407	-0.009775
H809	H	-0.267953	0.301307	-0.366340
O810	O	-0.265173	0.301544	-0.187184
C811	C	-0.271955	0.306028	-0.246680
C812	C	-0.291750	0.304445	-0.225471
H813	H	-0.293439	0.308381	-0.277641
H814	H	-0.237090	0.278872	-0.232035
H815	H	-0.270695	0.332031	-0.246071
H816	H	-0.293041	0.278458	-0.226074
H817	H	-0.326604	0.331618	-0.240123
O818	O	-0.099830	0.171388	0.013589
C819	C	-0.069685	0.206371	0.043221
C820	C	-0.089345	0.185027	0.044807
H821	H	-0.061194	0.217398	0.068462
H822	H	-0.094829	0.231535	0.015304
H823	H	-0.038445	0.185956	0.044736
H824	H	-0.120580	0.205412	0.043307
H825	H	-0.064172	0.159858	0.072722
O826	O	0.114689	-0.189672	0.019244
C827	C	0.118606	-0.247846	0.018954
C828	C	0.138187	-0.226420	0.017375
H829	H	0.137601	-0.277564	0.017451
H830	H	0.082346	-0.231178	-0.006270
H831	H	0.121392	-0.250666	0.046881
H832	H	0.135433	-0.223596	-0.010536
H833	H	0.174439	-0.243098	0.042619
O834	O	-0.620109	0.171351	-0.507405
C835	C	-0.606752	0.191767	-0.549184
C836	C	-0.587180	0.170567	-0.508189
H837	H	-0.580136	0.191133	-0.549833
H838	H	-0.635370	0.222741	-0.558695
H839	H	-0.619235	0.177096	-0.569382
H840	H	-0.574672	0.185206	-0.487962
H841	H	-0.558581	0.139593	-0.498710
O842	O	-0.620376	0.171633	-0.395809
C843	C	-0.636656	0.224089	-0.371134
C844	C	-0.616942	0.202742	-0.392414
H845	H	-0.633895	0.249250	-0.368390
H846	H	-0.617780	0.203703	-0.341396
H847	H	-0.672920	0.235133	-0.387887
H848	H	-0.580680	0.191697	-0.375693
H849	H	-0.635850	0.223143	-0.422154
H850	H	-0.167445	-0.083612	0.019063
