data_functionalizedCrystal
_audit_creation_method	'MofGen! by Chris Wilmer'
_symmetry_space_group_name_H-M	'P1'
_symmetry_Int_Tables_number	1
_symmetry_cell_setting	triclinic
loop_
_symmetry_equiv_pos_as_xyz
  x,y,z
_cell_length_a	21.395362
_cell_length_b	16.959454
_cell_length_c	21.395355
_cell_angle_alpha	89.987004
_cell_angle_beta	89.956060
_cell_angle_gamma	90.035955
loop_
_atom_site_label
_atom_site_type_symbol
_atom_site_fract_x
_atom_site_fract_y
_atom_site_fract_z
Zn1	Zn	0.957906	-0.314438	-0.354610
Zn2	Zn	0.957828	-0.446599	-0.249842
Zn3	Zn	0.853121	-0.314475	-0.249811
Zn4	Zn	0.853109	-0.446615	-0.354547
O5	O	0.905491	-0.380532	-0.302202
O6	O	1.045573	-0.331947	-0.340751
O7	O	0.943910	-0.429081	-0.162160
O8	O	0.867058	-0.203859	-0.263726
O9	O	1.045516	-0.429045	-0.263779
O10	O	0.944043	-0.203832	-0.340721
O11	O	0.866982	-0.332010	-0.162137
O12	O	0.765441	-0.332026	-0.263665
O13	O	0.867039	-0.429073	-0.442233
O14	O	0.765433	-0.429109	-0.340614
O15	O	0.944032	-0.331963	-0.442279
O16	O	0.943899	-0.557212	-0.263718
O17	O	0.866963	-0.557224	-0.340645
C18	C	0.742703	-0.380574	-0.302130
C19	C	0.673062	-0.380610	-0.302114
C20	C	0.640361	-0.431228	-0.342121
C21	C	0.574925	-0.431209	-0.342149
C22	C	0.542194	-0.380580	-0.302158
C23	C	0.574903	-0.329952	-0.262148
C24	C	0.640337	-0.329967	-0.262126
C25	C	0.438468	-0.374212	-0.245752
C26	C	0.373035	-0.374203	-0.245774
C27	C	0.340373	-0.380528	-0.302227
C28	C	0.373152	-0.386881	-0.358661
C29	C	0.438586	-0.386896	-0.358639
C30	C	0.471241	-0.380557	-0.302178
C31	C	0.236719	-0.431128	-0.342268
C32	C	0.171283	-0.431103	-0.342297
C33	C	0.171261	-0.329850	-0.262291
C34	C	0.236697	-0.329871	-0.262267
C35	C	0.269422	-0.380514	-0.302255
C36	C	0.905438	-0.585898	-0.302192
C37	C	0.905473	-0.673755	-0.302208
C38	C	0.865488	-1.045266	-0.342254
C39	C	0.945668	-1.045194	-0.262215
C40	C	0.945646	-0.962648	-0.262209
C41	C	0.905544	-0.921407	-0.302226
C42	C	0.865464	-0.962713	-0.342248
C43	C	0.985721	-0.921337	-0.222184
C44	C	0.985700	-0.838786	-0.222176
C45	C	0.945601	-0.797544	-0.262196
C46	C	0.905520	-0.838854	-0.302220
C47	C	0.865418	-0.797613	-0.342236
C48	C	0.825339	-0.838922	-0.382264
C49	C	0.825365	-0.921471	-0.382268
C50	C	0.945575	-0.714995	-0.262192
C51	C	0.865393	-0.715060	-0.342230
C52	C	1.068914	-0.380490	-0.302276
C53	C	1.138555	-0.380473	-0.302307
C54	C	0.905543	-0.380516	-0.465626
C55	C	0.905565	-0.380509	-0.535267
C56	C	0.905561	-0.174363	-0.302227
C57	C	0.905590	-0.086507	-0.302237
C58	C	0.945654	-0.329942	-0.568005
C59	C	0.945653	-0.329908	-0.633441
C60	C	0.905570	-0.380455	-0.666135
C61	C	0.865473	-0.431026	-0.633389
C62	C	0.865471	-0.431053	-0.567955
C63	C	0.900604	-0.451628	-0.769805
C64	C	0.900611	-0.451602	-0.835238
C65	C	0.905574	-0.380371	-0.867956
C66	C	0.910543	-0.309164	-0.835234
C67	C	0.910540	-0.309191	-0.769800
C68	C	0.905568	-0.380431	-0.737088
C69	C	0.945664	-0.329763	-0.971647
C70	C	0.945659	-0.329728	-1.037084
C71	C	0.865482	-0.430853	-1.037031
C72	C	0.865484	-0.430881	-0.971596
C73	C	0.905578	-0.380337	-0.938908
C74	C	0.905475	-0.380491	-0.139415
C75	C	0.905574	-0.380275	-0.069774
H76	H	0.667002	-0.472465	-0.374683
C77	C	0.821887	-0.485939	-0.668771
C78	C	0.786766	-0.530218	-0.626091
C79	C	0.746598	-0.580803	-0.658660
H80	H	0.845774	-0.520433	-0.694318
H81	H	0.794566	-0.455716	-0.694262
H82	H	0.814083	-0.560438	-0.600610
H83	H	0.762866	-0.495744	-0.600542
H84	H	0.719277	-0.550580	-0.684151
H85	H	0.770490	-0.615292	-0.684206
H86	H	0.722760	-0.610847	-0.629707
H87	H	1.018365	-0.954921	-0.189600
C88	C	0.337534	-0.367426	-0.184448
C89	C	0.353386	-0.430796	-0.145628
C90	C	0.320705	-0.424575	-0.089124
H91	H	0.293876	-0.368358	-0.192449
H92	H	0.348281	-0.319289	-0.164443
H93	H	0.342635	-0.478921	-0.165629
H94	H	0.397038	-0.429876	-0.137609
H95	H	0.331451	-0.376437	-0.069120
H96	H	0.277048	-0.425505	-0.097132
H97	H	0.331460	-0.467565	-0.062776
H98	H	0.263366	-0.472361	-0.374832
H99	H	0.896396	-0.509618	-0.743171
H100	H	0.978301	-0.288784	-0.541395
H101	H	0.548248	-0.288728	-0.229588
C102	C	0.821860	-0.485636	-1.072491
C103	C	0.759871	-0.468437	-1.056542
C104	C	0.719667	-0.518878	-1.089206
H105	H	0.830929	-0.538776	-1.061807
H106	H	0.827562	-0.478368	-1.116156
H107	H	0.754172	-0.475712	-1.012887
H108	H	0.750783	-0.415306	-1.067227
H109	H	0.725369	-0.511610	-1.132870
H110	H	0.728742	-0.572015	-1.078519
H111	H	0.677604	-0.507211	-1.078393
C112	C	0.821874	-1.090008	-0.385675
C113	C	0.759884	-1.069998	-0.371964
C114	C	0.719690	-1.111191	-0.411957
H115	H	0.827545	-1.145091	-0.379992
H116	H	0.830983	-1.076429	-0.427792
H117	H	0.750778	-1.083583	-0.329856
H118	H	0.754193	-1.014923	-0.377650
H119	H	0.728799	-1.097611	-0.454074
H120	H	0.725367	-1.166271	-0.406271
H121	H	0.677625	-1.097614	-0.402663
H122	H	0.896569	-0.509584	-0.861875
H123	H	0.978204	-0.681365	-0.229599
H124	H	0.978297	-0.288725	-0.660101
H125	H	0.914584	-0.251211	-0.743160
H126	H	0.914585	-0.251161	-0.861872
C127	C	0.675732	-0.274982	-0.218614
C128	C	0.633065	-0.230649	-0.183586
C129	C	0.665649	-0.179998	-0.143489
H130	H	0.701312	-0.240525	-0.242548
H131	H	0.701191	-0.305160	-0.191231
H132	H	0.607616	-0.200474	-0.210966
H133	H	0.607484	-0.265086	-0.159640
H134	H	0.691109	-0.210176	-0.116106
H135	H	0.691228	-0.145546	-0.167428
H136	H	0.636705	-0.149917	-0.119714
C137	C	0.781839	-0.794241	-0.425812
C138	C	0.795451	-0.814283	-0.487823
C139	C	0.755389	-0.773142	-0.527955
H140	H	0.787527	-0.739151	-0.420156
H141	H	0.739738	-0.807840	-0.416633
H142	H	0.837542	-0.800678	-0.496999
H143	H	0.789759	-0.869366	-0.493499
H144	H	0.713287	-0.786742	-0.518776
H145	H	0.761080	-0.718055	-0.522293
H146	H	0.764615	-0.786741	-0.570034
C147	C	0.989268	-0.275016	-0.936121
C148	C	1.029424	-0.319781	-0.898606
C149	C	1.069607	-0.269377	-0.865881
H150	H	0.965388	-0.240577	-0.910520
H151	H	1.013177	-0.244906	-0.964976
H152	H	1.005517	-0.349878	-0.869755
H153	H	1.053318	-0.354218	-0.924192
H154	H	1.093516	-0.239267	-0.894735
H155	H	1.045722	-0.234940	-0.840283
H156	H	1.096861	-0.299743	-0.840427
H157	H	0.978303	-0.288545	-1.063738
C158	C	0.822039	-0.485922	-0.936082
C159	C	0.835666	-0.564120	-0.952003
C160	C	0.795658	-0.614846	-0.919294
H161	H	0.779924	-0.474464	-0.946748
H162	H	0.827782	-0.478754	-0.892423
H163	H	0.829918	-0.571285	-0.995651
H164	H	0.877774	-0.575603	-0.941335
H165	H	0.801401	-0.607677	-0.875636
H166	H	0.753545	-0.603380	-0.929963
H167	H	0.804902	-0.667909	-0.930088
C168	C	1.029286	-0.794082	-0.178700
C169	C	1.064420	-0.847869	-0.143669
C170	C	1.104585	-0.806716	-0.103622
H171	H	1.005396	-0.761914	-0.151313
H172	H	1.056598	-0.761857	-0.202690
H173	H	1.037111	-0.880080	-0.119682
H174	H	1.088323	-0.880039	-0.171040
H175	H	1.131898	-0.774491	-0.127611
H176	H	1.080691	-0.774549	-0.076238
H177	H	1.128433	-0.843203	-0.079852
H178	H	0.465056	-0.369058	-0.199778
H179	H	0.832823	-0.472230	-0.541300
H180	H	0.548295	-0.472428	-0.374730
H181	H	0.978313	-1.078777	-0.229632
C182	C	0.781749	-0.966218	-0.425684
C183	C	0.719759	-0.946203	-0.411972
C184	C	0.679563	-0.987403	-0.451958
H185	H	0.787419	-1.021299	-0.419995
H186	H	0.790856	-0.952647	-0.467804
H187	H	0.710655	-0.959780	-0.369863
H188	H	0.714069	-0.891129	-0.417666
H189	H	0.688670	-0.973832	-0.494078
H190	H	0.685239	-1.042482	-0.446266
H191	H	0.637499	-0.973823	-0.442664
H192	H	0.144659	-0.472321	-0.374880
H193	H	0.465272	-0.392066	-0.404590
H194	H	0.346560	-0.392030	-0.404632
H195	H	0.263322	-0.288656	-0.229686
C196	C	0.135619	-0.274989	-0.218877
C197	C	0.071314	-0.285831	-0.227440
C198	C	0.038458	-0.235320	-0.187445
H199	H	0.146303	-0.221860	-0.228056
H200	H	0.146262	-0.286512	-0.176753
H201	H	0.060676	-0.274302	-0.269555
H202	H	0.060612	-0.338949	-0.218256
H203	H	0.049101	-0.246843	-0.145321
H204	H	0.049147	-0.182194	-0.196628
H205	H	-0.005175	-0.242674	-0.193246
H206	H	0.832739	-0.681487	-0.374819
