data_functionalizedCrystal
_audit_creation_method	'MofGen! by Chris Wilmer'
_symmetry_space_group_name_H-M	'P1'
_symmetry_Int_Tables_number	1
_symmetry_cell_setting	triclinic
loop_
_symmetry_equiv_pos_as_xyz
  x,y,z
_cell_length_a	16.120530
_cell_length_b	16.120484
_cell_length_c	19.076919
_cell_angle_alpha	84.953390
_cell_angle_beta	90.500157
_cell_angle_gamma	90.167327
loop_
_atom_site_label
_atom_site_type_symbol
_atom_site_fract_x
_atom_site_fract_y
_atom_site_fract_z
Zn1	Zn	1.231083	-0.416729	0.468408
Zn2	Zn	1.564416	-0.083395	0.801741
Zn3	Zn	1.897750	0.249938	1.135075
Zn4	Zn	1.229520	-0.550737	0.356379
Zn5	Zn	1.562854	-0.217403	0.689712
Zn6	Zn	1.896187	0.115930	1.023045
Zn7	Zn	1.098210	-0.404109	0.344506
Zn8	Zn	1.431543	-0.070775	0.677840
Zn9	Zn	1.764876	0.262558	1.011173
Zn10	Zn	1.084967	-0.548653	0.467764
Zn11	Zn	1.418301	-0.215319	0.801098
Zn12	Zn	1.751634	0.118014	1.134431
O13	O	1.160945	-0.480057	0.409264
O14	O	1.494278	-0.146723	0.742598
O15	O	1.827612	0.186610	1.075931
O16	O	1.346980	-0.440659	0.458785
O17	O	1.680313	-0.107325	0.792119
O18	O	2.013646	0.226008	1.125452
O19	O	1.216990	-0.526877	0.256335
O20	O	1.550323	-0.193543	0.589668
O21	O	1.883657	0.139790	0.923002
O22	O	1.122031	-0.289208	0.356243
O23	O	1.455365	0.044126	0.689576
O24	O	1.788698	0.377459	1.022910
O25	O	1.345832	-0.539114	0.376478
O26	O	1.679165	-0.205780	0.709811
O27	O	2.012498	0.127553	1.043144
O28	O	1.219653	-0.298479	0.447273
O29	O	1.552986	0.034854	0.780606
O30	O	1.886320	0.368187	1.113940
O31	O	1.120516	-0.419150	0.247613
O32	O	1.453850	-0.085816	0.580946
O33	O	1.787183	0.247517	0.914279
O34	O	0.980349	-0.417129	0.355619
O35	O	1.313682	-0.083796	0.688952
O36	O	1.647016	0.249538	1.022285
O37	O	1.099462	-0.535562	0.566318
O38	O	1.432795	-0.202229	0.899652
O39	O	1.766128	0.131105	1.232985
O40	O	0.970620	-0.523325	0.446176
O41	O	1.303953	-0.189992	0.779509
O42	O	1.637287	0.143342	1.112842
O43	O	1.206812	-0.438638	0.566791
O44	O	1.540145	-0.105305	0.900125
O45	O	1.873479	0.228029	1.233458
O46	O	1.204149	-0.667035	0.375853
O47	O	1.537483	-0.333702	0.709187
O48	O	1.870816	-0.000369	1.042520
O49	O	1.097947	-0.665504	0.457688
O50	O	1.431280	-0.332171	0.791021
O51	O	1.764613	0.001163	1.124355
C52	C	0.945380	-0.468632	0.399540
C53	C	1.278713	-0.135299	0.732873
C54	C	1.612047	0.198035	1.066206
C55	C	0.853158	-0.463765	0.395397
C56	C	1.186492	-0.130432	0.728730
C57	C	1.519825	0.202901	1.062063
C58	C	0.684309	-0.454861	0.387838
C59	C	1.017642	-0.121528	0.721172
C60	C	1.350975	0.211806	1.054505
C61	C	0.638416	-0.505316	0.430744
C62	C	0.971749	-0.171983	0.764078
C63	C	1.305083	0.161351	1.097411
C64	C	0.544462	-0.500362	0.426539
C65	C	0.877796	-0.167028	0.759872
C66	C	1.211129	0.166305	1.093205
C67	C	0.778271	-0.459814	0.392043
C68	C	1.111604	-0.126481	0.725376
C69	C	1.444938	0.206852	1.058710
C70	C	1.149463	-0.696498	0.418005
C71	C	1.482796	-0.363165	0.751339
C72	C	1.816130	-0.029831	1.084672
C73	C	1.144626	-0.789098	0.421772
C74	C	1.477959	-0.455765	0.755105
C75	C	1.811293	-0.122431	1.088438
C76	C	1.135798	-0.958640	0.428663
C77	C	1.469132	-0.625306	0.761996
C78	C	1.802465	-0.291973	1.095330
C79	C	1.186240	-1.000641	0.389884
C80	C	1.519573	-0.667308	0.723217
C81	C	1.852906	-0.333975	1.056551
C82	C	1.181328	-1.094980	0.393718
C83	C	1.514661	-0.761647	0.727052
C84	C	1.847995	-0.428314	1.060385
C85	C	1.140709	-0.864292	0.424830
C86	C	1.474042	-0.530959	0.758163
C87	C	1.807376	-0.197626	1.091496
C88	C	1.377352	-0.491526	0.419028
C89	C	1.710685	-0.158193	0.752361
C90	C	2.044018	0.175140	1.085694
C91	C	1.469571	-0.496414	0.423188
C92	C	1.802905	-0.163081	0.756521
C93	C	2.136238	0.170253	1.089855
C94	C	1.151834	-0.488275	0.592801
C95	C	1.485167	-0.154942	0.926134
C96	C	1.818501	0.178391	1.259467
C97	C	1.147951	-0.491777	0.671013
C98	C	1.481285	-0.158444	1.004346
C99	C	1.814618	0.174889	1.337679
C100	C	1.172494	-0.262772	0.400506
C101	C	1.505827	0.070562	0.733839
C102	C	1.839160	0.403895	1.067172
C103	C	1.177415	-0.170178	0.396773
C104	C	1.510748	0.163155	0.730106
C105	C	1.844082	0.496489	1.063440
C106	C	1.170072	-0.471812	0.226442
C107	C	1.503405	-0.138479	0.559775
C108	C	1.836738	0.194854	0.893109
C109	C	1.174127	-0.468084	0.148228
C110	C	1.507461	-0.134751	0.481561
C111	C	1.840794	0.198583	0.814895
C112	C	1.202016	-0.442962	0.708004
C113	C	1.535350	-0.109629	1.041338
C114	C	1.868683	0.223705	1.374671
C115	C	1.198358	-0.446249	0.781492
C116	C	1.531691	-0.112916	1.114826
C117	C	1.865025	0.220418	1.448159
C118	C	1.140639	-0.498357	0.817988
C119	C	1.473972	-0.165023	1.151321
C120	C	1.807305	0.168310	1.484655
C121	C	1.086568	-0.547174	0.780991
C122	C	1.419901	-0.213841	1.114324
C123	C	1.753235	0.119493	1.447658
C124	C	1.090223	-0.543882	0.707504
C125	C	1.423556	-0.210549	1.040837
C126	C	1.756890	0.122785	1.374170
C127	C	1.123711	-0.513609	1.037744
C128	C	1.457045	-0.180276	1.371077
C129	C	1.790378	0.153057	1.704411
C130	C	1.120062	-0.516899	1.111236
C131	C	1.453396	-0.183566	1.444570
C132	C	1.786729	0.149767	1.777903
C133	C	1.231852	-0.415973	1.111733
C134	C	1.565185	-0.082640	1.445066
C135	C	1.898519	0.250694	1.778399
C136	C	1.235505	-0.412689	1.038244
C137	C	1.568838	-0.079356	1.371578
C138	C	1.902171	0.253977	1.704911
C139	C	1.181431	-0.461503	1.001254
C140	C	1.514765	-0.128170	1.334587
C141	C	1.848098	0.205163	1.667920
N142	N	1.136900	-0.501720	0.893105
N143	N	1.470233	-0.168386	1.226438
N144	N	1.803567	0.164947	1.559771
N145	N	1.185167	-0.458135	0.926138
N146	N	1.518500	-0.124802	1.259471
N147	N	1.851833	0.208531	1.592804
H148	H	0.669688	-0.552232	0.470636
H149	H	1.003021	-0.218899	0.803970
H150	H	1.336354	0.114435	1.137303
H151	H	0.653039	-0.407948	0.347950
H152	H	0.986372	-0.074615	0.681283
H153	H	1.319706	0.258718	1.014616
H154	H	1.233112	-0.965749	0.353804
H155	H	1.566446	-0.632416	0.687138
H156	H	1.899779	-0.299083	1.020471
C157	C	1.072474	-1.005768	0.477393
C158	C	1.405807	-0.672435	0.810726
C159	C	1.739141	-0.339102	1.144060
H160	H	1.077435	-1.063910	0.473601
H161	H	1.410769	-0.730576	0.806934
H162	H	1.744102	-0.397243	1.140267
H163	H	1.082940	-0.994285	0.524661
H164	H	1.416273	-0.660951	0.857994
H165	H	1.749606	-0.327618	1.191327
H166	H	1.017972	-0.988201	0.463967
H167	H	1.351305	-0.654868	0.797300
H168	H	1.684639	-0.321534	1.130633
H169	H	1.249020	-0.400533	0.678295
H170	H	1.582353	-0.067200	1.011629
H171	H	1.915687	0.266134	1.344962
C172	C	1.257833	-0.392556	0.822181
C173	C	1.591167	-0.059223	1.155514
C174	C	1.924500	0.274111	1.488847
H175	H	1.292739	-0.361060	0.789921
H176	H	1.626073	-0.027727	1.123254
H177	H	1.959406	0.305607	1.456588
H178	H	1.226604	-0.355857	0.847951
H179	H	1.559937	-0.022524	1.181285
H180	H	1.893271	0.310809	1.514618
H181	H	1.290864	-0.427631	0.853765
H182	H	1.624198	-0.094298	1.187098
H183	H	1.957531	0.239035	1.520432
H184	H	1.282508	-0.370260	1.008535
H185	H	1.615842	-0.036927	1.341868
H186	H	1.949175	0.296406	1.675202
H187	H	1.275874	-0.376230	1.141858
H188	H	1.609208	-0.042897	1.475192
H189	H	1.942541	0.290436	1.808525
H190	H	1.073058	-0.559334	1.140949
H191	H	1.406391	-0.226000	1.474282
H192	H	1.739724	0.107333	1.807615
C193	C	1.064241	-0.567307	0.997060
C194	C	1.397574	-0.233974	1.330394
C195	C	1.730907	0.099360	1.663727
H196	H	1.074674	-0.557881	0.948066
H197	H	1.408007	-0.224548	1.281400
H198	H	1.741340	0.108786	1.614733
H199	H	1.072810	-0.624462	1.011909
H200	H	1.406143	-0.291128	1.345242
H201	H	1.739476	0.042205	1.678575
H202	H	1.008542	-0.552695	1.006097
H203	H	1.341875	-0.219361	1.339430
H204	H	1.675208	0.113972	1.672764
C205	C	1.023079	-0.604492	0.821134
C206	C	1.356412	-0.271159	1.154467
C207	C	1.689746	0.062175	1.487801
H208	H	1.028650	-0.599469	0.870199
H209	H	1.361984	-0.266135	1.203532
H210	H	1.695317	0.067198	1.536866
H211	H	0.968579	-0.588808	0.806083
H212	H	1.301913	-0.255475	1.139416
H213	H	1.635246	0.077859	1.472749
H214	H	1.032852	-0.660571	0.811893
H215	H	1.366185	-0.327237	1.145226
H216	H	1.699518	0.006096	1.478560
C217	C	1.030771	-0.597600	0.666815
C218	C	1.364104	-0.264267	1.000148
C219	C	1.697438	0.069066	1.333481
H220	H	0.995882	-0.629117	0.699075
H221	H	1.329215	-0.295784	1.032408
H222	H	1.662549	0.037550	1.365741
H223	H	0.997734	-0.562550	0.635222
H224	H	1.331068	-0.229216	0.968556
H225	H	1.664401	0.104117	1.301889
H226	H	1.062027	-0.634294	0.641054
H227	H	1.395361	-0.300961	0.974387
H228	H	1.728694	0.032372	1.307720
