data_functionalizedCrystal
_audit_creation_method	'MofGen! by Chris Wilmer'
_symmetry_space_group_name_H-M	'P1'
_symmetry_Int_Tables_number	1
_symmetry_cell_setting	triclinic
loop_
_symmetry_equiv_pos_as_xyz
  x,y,z
_cell_length_a	19.288867
_cell_length_b	14.853559
_cell_length_c	17.766277
_cell_angle_alpha	89.995835
_cell_angle_beta	89.992126
_cell_angle_gamma	83.384261
loop_
_atom_site_label
_atom_site_type_symbol
_atom_site_fract_x
_atom_site_fract_y
_atom_site_fract_z
O1	O	0.921729	0.112473	-0.062564
O2	O	0.719519	0.127643	-0.062571
O3	O	0.826029	-0.011203	-0.062567
O4	O	0.815220	0.251319	-0.062569
O5	O	0.826010	-0.011210	0.062622
O6	O	0.719501	0.127636	0.062617
O7	O	0.921710	0.112466	0.062624
Cu8	Cu	0.820604	0.120050	0.074052
Cu9	Cu	0.820626	0.120059	-0.073998
O10	O	0.815201	0.251312	0.062620
C11	C	0.693632	0.127151	0.000022
C12	C	0.616524	0.125685	0.000020
C13	C	0.825531	-0.044792	0.000026
C14	C	0.824066	-0.144868	0.000022
C15	C	0.060933	0.115128	-0.068212
C16	C	0.133385	0.116500	-0.068215
C17	C	0.169606	0.117187	0.000025
C18	C	0.133371	0.116478	0.068273
C19	C	0.060921	0.115097	0.068274
C20	C	0.279110	0.172175	0.052306
C21	C	0.351558	0.173561	0.052302
C22	C	0.393066	0.121443	0.000025
C23	C	0.362116	0.067949	-0.052260
C24	C	0.289666	0.066568	-0.052259
C25	C	0.248166	0.118684	0.000032
C26	C	0.507854	0.123633	-0.068221
C27	C	0.580308	0.125000	-0.068221
C28	C	0.580291	0.124986	0.068269
C29	C	0.507839	0.123611	0.068267
C30	C	0.471625	0.122939	0.000020
C31	C	0.817864	-0.568004	-0.068219
C32	C	0.817843	-0.568007	0.068267
C33	C	0.819225	-0.473981	0.068267
C34	C	0.819925	-0.426963	0.000024
C35	C	0.819243	-0.473970	-0.068220
C36	C	0.819900	-0.426966	0.136510
C37	C	0.821281	-0.332934	0.136514
C38	C	0.821986	-0.285915	0.068269
C39	C	0.821305	-0.332928	0.000023
C40	C	0.822005	-0.285910	-0.068221
C41	C	0.821329	-0.332922	-0.136468
C42	C	0.819949	-0.426950	-0.136464
C43	C	0.823366	-0.191887	0.068265
C44	C	0.823385	-0.191875	-0.068222
C45	C	0.947598	0.112958	0.000029
C46	C	1.024706	0.114424	0.000027
C47	C	0.815699	0.284902	0.000025
C48	C	0.817164	0.384977	0.000025
N49	N	0.820593	0.120044	0.178182
N50	N	0.820642	0.120058	-0.178129
C51	C	0.867771	0.058593	0.217571
C52	C	0.867775	0.058589	0.296373
C53	C	0.820608	0.120051	0.335782
C54	C	0.773421	0.181507	0.296384
C55	C	0.773414	0.181503	0.217584
C56	C	0.811585	0.202195	0.460620
C57	C	0.811597	0.202199	0.539418
C58	C	0.820627	0.120062	0.578829
C59	C	0.829659	0.037916	0.539431
C60	C	0.829652	0.037913	0.460630
C61	C	0.820610	0.120062	0.421228
C62	C	0.867811	0.058602	0.703664
C63	C	0.867810	0.058596	0.782467
C64	C	0.773460	0.181522	0.782477
C65	C	0.773458	0.181519	0.703675
C66	C	0.820637	0.120060	0.664273
H67	H	0.031452	0.114577	-0.123784
H68	H	0.837004	-0.028973	0.428555
H69	H	0.395910	0.025512	-0.094831
H70	H	0.906194	0.008546	0.328449
H71	H	0.837012	-0.028968	0.571517
H72	H	0.162886	0.117078	-0.123785
Cl73	Cl	0.250760	-0.000682	-0.117983
H74	H	0.819326	-0.465254	0.192070
Cl75	Cl	0.714123	0.258770	0.345926
Cl76	Cl	0.800247	0.305467	0.588940
H77	H	0.162866	0.117035	0.123835
H78	H	0.478366	0.123083	-0.123792
H79	H	0.734996	0.231545	0.185513
Cl80	Cl	0.817021	-0.627103	-0.154011
H81	H	0.821834	-0.294666	0.192085
Cl82	Cl	0.625852	0.125875	-0.154016
H83	H	0.804219	0.269085	0.428538
Cl84	Cl	0.824214	-0.132790	0.154055
Cl85	Cl	0.822212	-0.273802	-0.222256
H86	H	0.478343	0.123041	0.123834
Cl87	Cl	0.625820	0.125835	0.154058
Cl88	Cl	0.819102	-0.486057	-0.222253
H89	H	0.376749	0.217141	0.094860
H90	H	0.245320	0.214611	0.094884
H91	H	0.906225	0.008555	0.671581
Cl92	Cl	0.816951	-0.627114	0.154053
Cl93	Cl	0.015376	0.114216	0.154068
Cl94	Cl	0.927120	-0.018668	0.831987
H95	H	0.823958	-0.153600	-0.123795
Cl96	Cl	0.927077	-0.018672	0.168037
H97	H	0.735044	0.231562	0.671603
Cl98	Cl	0.714159	0.258782	0.832015
