data_functionalizedCrystal
_audit_creation_method	'MofGen! by Chris Wilmer'
_symmetry_space_group_name_H-M	'P1'
_symmetry_Int_Tables_number	1
_symmetry_cell_setting	triclinic
loop_
_symmetry_equiv_pos_as_xyz
  x,y,z
_cell_length_a	13.262846
_cell_length_b	10.967916
_cell_length_c	9.482900
_cell_angle_alpha	87.450335
_cell_angle_beta	64.996159
_cell_angle_gamma	81.253458
loop_
_atom_site_label
_atom_site_type_symbol
_atom_site_fract_x
_atom_site_fract_y
_atom_site_fract_z
O1	O	-0.195297	-1.599261	0.356958
O2	O	-0.197724	-1.249911	0.270393
O3	O	-0.035869	-1.443136	0.254836
O4	O	-0.357152	-1.406036	0.372515
O5	O	-0.068884	-1.403880	0.499841
O6	O	-0.230739	-1.210655	0.515398
O7	O	-0.228312	-1.560005	0.601964
Cu8	Cu	-0.232540	-1.381745	0.581052
Cu9	Cu	-0.193496	-1.428170	0.291305
O10	O	-0.390167	-1.366780	0.617521
C11	C	-0.211560	-1.185746	0.380682
C12	C	-0.203588	-1.053039	0.344283
C13	C	-0.217136	-0.973538	0.454975
C14	C	-0.208897	-0.836378	0.417358
C15	C	-0.011122	-1.425032	0.361413
C16	C	0.111802	-1.429557	0.313956
C17	C	0.187524	-1.453098	0.158101
C18	C	0.303024	-1.457370	0.113482
C19	C	0.342812	-1.438109	0.224717
C20	C	0.267090	-1.414576	0.380577
C21	C	0.151579	-1.410295	0.425198
C22	C	0.306867	-1.395305	0.491814
C23	C	0.231144	-1.371772	0.647675
C24	C	0.115645	-1.367493	0.692288
C25	C	0.075856	-1.386753	0.581054
C26	C	0.422378	-1.399586	0.447193
C27	C	0.386432	-1.356783	0.714291
C28	C	0.270933	-1.352512	0.758909
C29	C	0.585085	-1.384875	0.510952
C30	C	0.462155	-1.380324	0.558435
N31	N	-0.260001	-1.349101	0.784846
C32	C	-0.214476	-0.624171	0.491673
C33	C	-0.222448	-0.756878	0.528066
N34	N	-0.166026	-1.460824	0.087509
C35	C	-0.201589	-1.418534	0.851356
C36	C	-0.224446	-1.391382	1.021004
H37	H	-0.185886	-1.019560	0.221665
H38	H	0.155116	-1.468771	0.067549
H39	H	-0.234829	-1.007019	0.577590
H40	H	0.364669	-1.476534	-0.013419
O41	O	0.425182	-1.337916	0.822186
C42	C	0.482891	-1.234824	0.781411
H43	H	0.513137	-1.219304	0.651117
H44	H	0.423901	-1.149601	0.848409
C45	C	0.547609	-1.277364	0.982399
C46	C	0.584766	-1.258308	0.822368
H47	H	0.610447	-1.291846	1.007669
H48	H	0.508726	-1.346816	1.009875
H49	H	0.498450	-1.206340	1.038212
H50	H	0.633912	-1.329337	0.766559
H51	H	0.623660	-1.188868	0.794884
O52	O	0.454995	-1.442396	0.181601
C53	C	0.491731	-1.536378	0.262874
H54	H	0.417343	-1.556177	0.374223
H55	H	0.529180	-1.623673	0.186614
C56	C	0.673123	-1.470055	0.167497
C57	C	0.581760	-1.494365	0.304263
H58	H	0.728660	-1.444144	0.193022
H59	H	0.648375	-1.406740	0.112736
H60	H	0.704316	-1.542806	0.103959
H61	H	0.550559	-1.421612	0.367789
H62	H	0.606504	-1.557667	0.359036
H63	H	-0.191194	-0.802905	0.294732
O64	O	-0.085946	-1.555588	1.005716
C65	C	0.019220	-1.535791	0.996531
H66	H	0.017920	-1.433178	1.013203
H67	H	0.036891	-1.589500	1.091363
C68	C	0.113581	-1.706259	0.815399
C69	C	0.111987	-1.580226	0.835862
H70	H	0.170806	-1.733673	0.716295
H71	H	0.042729	-1.719600	0.821591
H72	H	0.128303	-1.751001	0.894436
H73	H	0.097252	-1.535485	0.756838
H74	H	0.182840	-1.566878	0.829653
H75	H	-0.018191	-1.383283	0.617376
O76	O	-0.121609	-1.513317	0.769419
C77	C	-0.016320	-1.493741	0.759979
H78	H	-0.017472	-1.391174	0.776721
H79	H	0.001446	-1.547604	0.854644
C80	C	0.077662	-1.664124	0.578611
C81	C	0.076250	-1.538147	0.599161
H82	H	0.134766	-1.691520	0.479415
H83	H	0.006727	-1.677316	0.584975
H84	H	0.092464	-1.708994	0.657509
H85	H	0.061435	-1.493278	0.520276
H86	H	0.147185	-1.524948	0.592780
O87	O	0.042188	-1.344461	0.843701
C88	C	0.051460	-1.228214	0.891079
H89	H	0.137763	-1.202638	0.813053
H90	H	-0.016663	-1.155762	0.881613
C91	C	-0.068971	-1.265063	1.156853
C92	C	0.037032	-1.233656	1.061028
H93	H	-0.077875	-1.268417	1.261688
H94	H	-0.075222	-1.343379	1.124934
H95	H	-0.125728	-1.204682	1.148947
H96	H	0.093787	-1.294044	1.068921
H97	H	0.043292	-1.155349	1.092953
H98	H	0.209264	-1.333350	0.885814
O99	O	-0.304173	-1.296327	1.102737
C100	C	-0.276250	-1.184775	1.026665
H101	H	-0.181966	-1.195659	0.950188
H102	H	-0.324121	-1.160600	0.951301
C103	C	-0.424247	-1.067509	1.242614
C104	C	-0.308443	-1.080873	1.148693
H105	H	-0.444109	-1.003415	1.317884
H106	H	-0.443062	-1.142663	1.293864
H107	H	-0.464125	-1.047368	1.179793
H108	H	-0.268567	-1.101028	1.211511
H109	H	-0.289622	-1.005719	1.097456
H110	H	-0.240144	-0.790351	0.650690
O111	O	-0.339723	-1.254052	0.866585
C112	C	-0.311800	-1.142500	0.790513
H113	H	-0.217516	-1.153383	0.714035
H114	H	-0.359671	-1.118324	0.715148
C115	C	-0.459797	-1.025234	1.006462
C116	C	-0.343993	-1.038598	0.912540
H117	H	-0.479659	-0.961140	1.081732
H118	H	-0.478612	-1.100388	1.057711
H119	H	-0.499675	-1.005093	0.943641
H120	H	-0.304117	-1.058753	0.975358
H121	H	-0.325172	-0.963444	0.861304
H122	H	0.484020	-1.418744	0.320290
