data_functionalizedCrystal
_audit_creation_method	'MofGen! by Chris Wilmer'
_symmetry_space_group_name_H-M	'P1'
_symmetry_Int_Tables_number	1
_symmetry_cell_setting	triclinic
loop_
_symmetry_equiv_pos_as_xyz
  x,y,z
_cell_length_a	10.654550
_cell_length_b	14.044220
_cell_length_c	9.730223
_cell_angle_alpha	89.995123
_cell_angle_beta	89.999019
_cell_angle_gamma	88.836890
loop_
_atom_site_label
_atom_site_type_symbol
_atom_site_fract_x
_atom_site_fract_y
_atom_site_fract_z
O1	O	1.681217	0.133231	-0.114408
O2	O	1.317014	0.145924	-0.114387
O3	O	1.493649	0.001557	-0.114384
O4	O	1.504582	0.277598	-0.114411
O5	O	1.493657	0.001554	0.114196
O6	O	1.317022	0.145921	0.114193
O7	O	1.681225	0.133228	0.114172
Zn8	Zn	1.499125	0.139574	0.150474
Zn9	Zn	1.499114	0.139578	-0.150689
O10	O	1.504591	0.277595	0.114169
C11	C	1.270127	0.144991	-0.000094
C12	C	1.130403	0.142202	-0.000085
C13	C	1.488867	-0.033790	-0.000093
C14	C	1.474592	-0.139110	-0.000090
C15	C	1.059459	0.227203	-0.000114
C16	C	0.928175	0.224578	-0.000137
C17	C	0.938790	0.051942	-0.000109
C18	C	1.070072	0.054569	-0.000076
C19	C	1.053329	0.326873	-0.000136
C20	C	0.922045	0.324247	-0.000159
C21	C	1.448493	-0.331943	-0.000108
C22	C	1.549741	-0.388911	-0.000119
C23	C	1.535219	-0.496210	-0.000129
C24	C	1.463013	-0.224634	-0.000098
C25	C	1.728113	0.134161	-0.000124
C26	C	1.867836	0.136950	-0.000142
C27	C	1.509372	0.312942	-0.000125
C28	C	1.523648	0.418262	-0.000137
N29	N	1.499107	0.139573	-0.356226
C30	C	1.577526	0.075780	-0.572035
C31	C	1.577505	0.075779	-0.428152
C32	C	1.420714	0.203367	-0.428190
C33	C	1.420729	0.203363	-0.572071
C34	C	1.668052	0.002121	-0.572011
C35	C	1.668032	0.002119	-0.428128
N36	N	1.499142	0.139571	0.356011
H37	H	0.889652	-0.019406	-0.000123
O38	O	1.666100	-0.350856	-0.000293
C39	C	1.812496	-0.251239	-0.118729
C40	C	1.680679	-0.294259	-0.118693
H41	H	1.824334	-0.205487	-0.214460
H42	H	1.824362	-0.205372	-0.023126
H43	H	1.886417	-0.311076	-0.118665
H44	H	1.606678	-0.234483	-0.118805
H45	H	1.668920	-0.340150	-0.214288
O46	O	0.871123	0.360006	0.117647
C47	C	0.743290	0.329738	0.316599
C48	C	0.800902	0.289126	0.183233
H49	H	0.686482	0.272457	0.369649
H50	H	0.821471	0.353615	0.387949
H51	H	0.679193	0.393239	0.290875
H52	H	0.864987	0.225597	0.208828
H53	H	0.722658	0.265314	0.111921
H54	H	1.092171	0.358611	-0.098826
O55	O	0.876881	0.369179	-0.114247
C56	C	0.863843	0.515485	-0.243318
C57	C	0.915096	0.464711	-0.114086
H58	H	0.894697	0.592736	-0.243216
H59	H	0.901857	0.478018	-0.339033
H60	H	0.756942	0.513297	-0.243331
H61	H	1.021993	0.466884	-0.113939
H62	H	0.876986	0.502192	-0.018429
O63	O	1.332169	-0.370043	-0.000035
C64	C	1.211462	-0.513293	-0.000103
C65	C	1.343268	-0.470256	-0.000162
H66	H	1.220391	-0.594321	-0.000235
H67	H	1.158200	-0.488776	0.095590
H68	H	1.158208	-0.488633	-0.095730
H69	H	1.396627	-0.494897	0.095400
H70	H	1.396435	-0.494770	-0.095919
O71	O	1.138798	-0.028090	-0.000092
C72	C	1.135468	-0.199598	0.000048
C73	C	1.057484	-0.106055	0.000030
H74	H	1.069758	-0.262657	0.000176
H75	H	1.197191	-0.202761	-0.095615
H76	H	1.197202	-0.202621	0.095705
H77	H	0.995678	-0.102970	-0.095563
H78	H	0.995842	-0.102930	0.095756
O79	O	1.344540	0.265414	-0.641755
C80	C	1.188950	0.391912	-0.626604
C81	C	1.275197	0.321705	-0.547516
H82	H	1.132844	0.437428	-0.550447
H83	H	1.248331	0.439838	-0.693932
H84	H	1.121757	0.350391	-0.694001
H85	H	1.342406	0.363148	-0.480046
H86	H	1.215738	0.273779	-0.480276
O87	O	1.633871	-0.084950	-0.618362
C88	C	1.571739	-0.243634	-0.558258
C89	C	1.610403	-0.145069	-0.505580
H90	H	1.552780	-0.292274	-0.467102
H91	H	1.483137	-0.235786	-0.623307
H92	H	1.650770	-0.275833	-0.623383
H93	H	1.531456	-0.112815	-0.440399
H94	H	1.699041	-0.152978	-0.440606
O95	O	1.779633	0.029812	-0.625030
C96	C	1.989231	0.081988	-0.577267
C97	C	1.862944	0.050620	-0.517039
H98	H	2.056614	0.098839	-0.489986
H99	H	2.031061	0.022191	-0.643146
H100	H	1.973472	0.148227	-0.643274
H101	H	1.878596	-0.015597	-0.450971
H102	H	1.821154	0.110474	-0.451239
H103	H	1.356871	0.255304	-0.369619
O104	O	1.784964	0.021793	-0.381359
C105	C	1.912292	0.127491	-0.248135
C106	C	1.779803	0.105310	-0.300977
H107	H	1.908168	0.195025	-0.183159
H108	H	1.949119	0.065524	-0.182950
H109	H	1.977696	0.138377	-0.339272
H110	H	1.714305	0.094442	-0.209922
H111	H	1.743079	0.167288	-0.366203
O112	O	1.623384	-0.080060	-0.374822
C113	C	1.466503	-0.152574	-0.232910
C114	C	1.516915	-0.059439	-0.293204
H115	H	1.380431	-0.135932	-0.166886
H116	H	1.439527	-0.202358	-0.320114
H117	H	1.542300	-0.188380	-0.167015
H118	H	1.441178	-0.023552	-0.359083
H119	H	1.543926	-0.009722	-0.205935
H120	H	1.086581	0.365853	0.095526
