data_functionalizedCrystal
_audit_creation_method	'MofGen! by Chris Wilmer'
_symmetry_space_group_name_H-M	'P1'
_symmetry_Int_Tables_number	1
_symmetry_cell_setting	triclinic
loop_
_symmetry_equiv_pos_as_xyz
  x,y,z
_cell_length_a	18.215405
_cell_length_b	21.395364
_cell_length_c	21.395355
_cell_angle_alpha	90.025600
_cell_angle_beta	89.983159
_cell_angle_gamma	89.979767
loop_
_atom_site_label
_atom_site_type_symbol
_atom_site_fract_x
_atom_site_fract_y
_atom_site_fract_z
Zn1	Zn	-0.293119	-0.957894	-0.354286
Zn2	Zn	0.206881	-0.457894	0.145714
Zn3	Zn	-0.416167	-0.957811	-0.249512
Zn4	Zn	0.083833	-0.457811	0.250488
Zn5	Zn	-0.293113	-0.853109	-0.249521
Zn6	Zn	0.206887	-0.353109	0.250479
Zn7	Zn	-0.416143	-0.853093	-0.354250
Zn8	Zn	0.083857	-0.353093	0.145750
O9	O	-0.354635	-0.905476	-0.301892
O10	O	0.145365	-0.405476	0.198108
O11	O	-0.309454	-1.045561	-0.340399
O12	O	0.190546	-0.545561	0.159601
O13	O	-0.399852	-0.943894	-0.161835
O14	O	0.100148	-0.443894	0.338165
O15	O	-0.190130	-0.867050	-0.263437
O16	O	0.309870	-0.367050	0.236563
O17	O	-0.399857	-1.045500	-0.263422
O18	O	0.100143	-0.545500	0.236578
O19	O	-0.190134	-0.944035	-0.340408
O20	O	0.309866	-0.444035	0.159592
O21	O	-0.309445	-0.866970	-0.161842
O22	O	0.190555	-0.366970	0.338158
O23	O	-0.309421	-0.765429	-0.263402
O24	O	0.190579	-0.265429	0.236598
O25	O	-0.399815	-0.867023	-0.441933
O26	O	0.100185	-0.367023	0.058067
O27	O	-0.399810	-0.765417	-0.340346
O28	O	0.100190	-0.265417	0.159654
O29	O	-0.309430	-0.944020	-0.441959
O30	O	0.190570	-0.444020	0.058041
O31	O	-0.519148	-0.943878	-0.263387
O32	O	-0.019148	-0.443878	0.236613
O33	O	-0.519130	-0.866942	-0.340337
O34	O	-0.019130	-0.366942	0.159663
C35	C	-0.354613	-0.742689	-0.301872
C36	C	0.145387	-0.242689	0.198128
C37	C	-0.354621	-0.673048	-0.301878
C38	C	0.145379	-0.173048	0.198122
C39	C	-0.401775	-0.171262	-0.341907
C40	C	0.098225	0.328738	0.158093
C41	C	-0.401776	-0.236697	-0.341902
C42	C	0.098224	0.263303	0.158098
C43	C	-0.354641	-0.269409	-0.301902
C44	C	0.145359	0.230591	0.198098
C45	C	-0.307514	-0.236681	-0.261895
C46	C	0.192486	0.263319	0.238105
C47	C	-0.307519	-0.171247	-0.261897
C48	C	0.192481	0.328753	0.238103
C49	C	-0.288320	-0.373090	-0.297051
C50	C	0.211680	0.126910	0.202949
C51	C	-0.288313	-0.438523	-0.297053
C52	C	0.211687	0.061477	0.202947
C53	C	-0.354625	-0.471230	-0.301892
C54	C	0.145375	0.028770	0.198108
C55	C	-0.420945	-0.438496	-0.306741
C56	C	0.079055	0.061504	0.193259
C57	C	-0.420950	-0.373062	-0.306744
C58	C	0.079050	0.126938	0.193256
C59	C	-0.354630	-0.340362	-0.301895
C60	C	0.145370	0.159638	0.198105
C61	C	-0.401753	-0.574903	-0.341888
C62	C	0.098247	-0.074903	0.158112
C63	C	-0.401756	-0.640340	-0.341878
C64	C	0.098244	-0.140340	0.158122
C65	C	-0.307487	-0.640322	-0.261874
C66	C	0.192513	-0.140322	0.238126
C67	C	-0.307491	-0.574887	-0.261881
C68	C	0.192509	-0.074887	0.238119
C69	C	-0.354623	-0.542181	-0.301891
C70	C	0.145377	-0.042181	0.198109
C71	C	-0.545842	-0.905416	-0.301871
C72	C	-0.045842	-0.405416	0.198129
C73	C	-0.627640	-0.905448	-0.301882
C74	C	-0.127640	-0.405448	0.198118
C75	C	-0.815775	-0.945553	-0.342015
C76	C	-0.315775	-0.445553	0.157985
C77	C	-0.892634	-0.945576	-0.342027
C78	C	-0.392634	-0.445576	0.157973
C79	C	-0.892743	-0.865477	-0.261808
C80	C	-0.392743	-0.365477	0.238192
C81	C	-0.815886	-0.865452	-0.261800
C82	C	-0.315886	-0.365452	0.238200
C83	C	-0.777404	-0.905493	-0.301903
C84	C	-0.277404	-0.405493	0.198097
C85	C	-0.931120	-0.905541	-0.301923
C86	C	-0.431120	-0.405541	0.198077
C87	C	-1.014454	-0.905566	-0.301935
C88	C	-0.514454	-0.405566	0.198065
C89	C	-0.694065	-0.905468	-0.301891
C90	C	-0.194065	-0.405468	0.198109
C91	C	-0.162682	-0.905554	-0.301928
C92	C	0.337318	-0.405554	0.198072
C93	C	-0.080883	-0.905587	-0.301943
C94	C	0.419117	-0.405587	0.198057
C95	C	-0.354620	-0.905528	-0.465316
C96	C	0.145380	-0.405528	0.034684
C97	C	-0.354614	-0.905551	-0.534957
C98	C	0.145386	-0.405551	-0.034957
C99	C	-0.354654	-0.068900	-0.301909
C100	C	0.145346	0.431100	0.198091
C101	C	-0.354651	-0.138541	-0.301907
C102	C	0.145349	0.361459	0.198093
C103	C	-0.307549	-0.945641	-0.567685
C104	C	0.192451	-0.445641	-0.067685
C105	C	-0.307517	-0.945640	-0.633120
C106	C	0.192483	-0.445640	-0.133120
C107	C	-0.354564	-0.905556	-0.665825
C108	C	0.145436	-0.405556	-0.165825
C109	C	-0.401633	-0.865457	-0.633089
C110	C	0.098367	-0.365457	-0.133089
C111	C	-0.401658	-0.865455	-0.567655
C112	C	0.098342	-0.365455	-0.067655
C113	C	-0.420828	-0.900587	-0.769492
C114	C	0.079172	-0.400587	-0.269492
C115	C	-0.420804	-0.900594	-0.834925
C116	C	0.079196	-0.400594	-0.334925
C117	C	-0.354486	-0.905559	-0.867646
C118	C	0.145514	-0.405559	-0.367646
C119	C	-0.288190	-0.910531	-0.834926
C120	C	0.211810	-0.410531	-0.334926
C121	C	-0.288215	-0.910528	-0.769492
C122	C	0.211785	-0.410528	-0.269492
C123	C	-0.354542	-0.905553	-0.736778
C124	C	0.145458	-0.405553	-0.236778
C125	C	-0.307382	-0.945651	-0.971327
C126	C	0.192618	-0.445651	-0.471327
C127	C	-0.307349	-0.945646	-1.036763
C128	C	0.192651	-0.445646	-0.536763
C129	C	-0.401472	-0.865466	-1.036731
C130	C	0.098528	-0.365466	-0.536731
C131	C	-0.401498	-0.865468	-0.971296
C132	C	0.098502	-0.365468	-0.471296
C133	C	-0.354454	-0.905564	-0.938597
C134	C	0.145546	-0.405564	-0.438597
C135	C	-0.354597	-0.905461	-0.139105
C136	C	0.145403	-0.405461	0.360895
C137	C	-0.354396	-0.905560	-0.069464
C138	C	0.145604	-0.405560	0.430536
H139	H	-0.269116	-0.548245	-0.229311
H140	H	0.230884	-0.048245	0.270689
H141	H	-0.474941	-0.465124	-0.310686
H142	H	0.025059	0.034876	0.189314
H143	H	-0.923873	-0.978195	-0.374692
H144	H	-0.423873	-0.478195	0.125308
Br145	Br	-0.944973	-0.811135	-0.207388
Br146	Br	-0.444973	-0.311135	0.292612
Br147	Br	-0.198318	-0.328709	-0.290474
Br148	Br	0.301682	0.171291	0.209526
Br149	Br	-0.243537	-1.000064	-0.926947
Br150	Br	0.256463	-0.500064	-0.426947
Br151	Br	-0.465478	-0.811051	-0.677473
Br152	Br	0.034522	-0.311051	-0.177473
H153	H	-0.474786	-0.896550	-0.861561
H154	H	0.025214	-0.396550	-0.361561
Br155	Br	-0.465314	-0.811056	-1.081109
Br156	Br	0.034686	-0.311056	-0.581109
H157	H	-0.269111	-0.666956	-0.229304
H158	H	0.230889	-0.166956	0.270696
H159	H	-0.784642	-0.832827	-0.229135
H160	H	-0.284642	-0.332827	0.270865
Br161	Br	-0.510951	-0.328638	-0.313323
Br162	Br	-0.010951	0.171362	0.186677
H163	H	-0.234188	-0.914575	-0.861566
H164	H	0.265812	-0.414575	-0.361566
H165	H	-0.234311	-0.465170	-0.293112
H166	H	0.265689	0.034830	0.206888
H167	H	-0.234235	-0.914575	-0.742854
H168	H	0.265765	-0.414575	-0.242854
H169	H	-0.440135	-0.666980	-0.374449
H170	H	0.059865	-0.166980	0.125551
H171	H	-0.269137	-0.263319	-0.229326
H172	H	0.230863	0.236681	0.270674
Br173	Br	-0.465734	-0.281114	-0.396191
Br174	Br	0.034266	0.218886	0.103809
Br175	Br	-0.763552	-0.999894	-0.396441
Br176	Br	-0.263552	-0.499894	0.103559
Br177	Br	-0.243561	-0.126837	-0.207607
Br178	Br	0.256439	0.373163	0.292393
Br179	Br	-0.243701	-1.000054	-0.523311
Br180	Br	0.256299	-0.500054	-0.023311
Br181	Br	-0.243480	-1.000069	-1.081182
Br182	Br	0.256520	-0.500069	-0.581182
H183	H	-0.474818	-0.896377	-0.742857
H184	H	0.025182	-0.396377	-0.242857
Br185	Br	-0.465378	-0.811057	-0.926876
Br186	Br	0.034622	-0.311057	-0.426876
Br187	Br	-0.465536	-0.811041	-0.523235
Br188	Br	0.034464	-0.311041	-0.023235
Br189	Br	-0.465742	-0.126878	-0.396203
Br190	Br	0.034258	0.373122	0.103797
Br191	Br	-0.465719	-0.530513	-0.396184
Br192	Br	0.034281	-0.030513	0.103816
H193	H	-0.269186	-0.978286	-0.659773
H194	H	0.230814	-0.478286	-0.159773
