data_functionalizedCrystal
_audit_creation_method	'MofGen! by Chris Wilmer'
_symmetry_space_group_name_H-M	'P1'
_symmetry_Int_Tables_number	1
_symmetry_cell_setting	triclinic
loop_
_symmetry_equiv_pos_as_xyz
  x,y,z
_cell_length_a	14.044220
_cell_length_b	15.944564
_cell_length_c	12.503552
_cell_angle_alpha	93.518927
_cell_angle_beta	93.844387
_cell_angle_gamma	91.653594
loop_
_atom_site_label
_atom_site_type_symbol
_atom_site_fract_x
_atom_site_fract_y
_atom_site_fract_z
O1	O	1.263202	-0.198060	0.089324
O2	O	1.763202	0.301940	0.589324
O3	O	0.987232	-0.190752	0.089326
O4	O	1.487232	0.309248	0.589326
O5	O	1.132746	-0.072696	0.089315
O6	O	1.632746	0.427304	0.589315
O7	O	1.117688	-0.316116	0.089335
O8	O	1.617688	0.183884	0.589335
O9	O	1.121790	-0.081582	-0.089327
O10	O	1.621790	0.418418	0.410673
O11	O	0.976276	-0.199638	-0.089315
O12	O	1.476276	0.300362	0.410685
O13	O	1.252246	-0.206946	-0.089318
O14	O	1.752246	0.293054	0.410682
Cu15	Cu	1.113260	-0.204104	-0.105628
Cu16	Cu	1.613260	0.295896	0.394372
Cu17	Cu	1.126217	-0.193595	0.105636
Cu18	Cu	1.626217	0.306405	0.605636
O19	O	1.106732	-0.325002	-0.089306
O20	O	1.606732	0.174998	0.410694
C21	C	0.946439	-0.191997	0.000006
C22	C	1.446439	0.308003	0.500006
C23	C	0.841212	-0.182455	0.000006
C24	C	1.341212	0.317545	0.500006
C25	C	1.126641	-0.045799	-0.000007
C26	C	1.626641	0.454201	0.499993
C27	C	1.124760	0.047588	-0.000008
C28	C	1.624760	0.547588	0.499992
N29	N	1.104154	-0.211495	-0.254220
N30	N	1.604154	0.288505	0.245780
C31	C	1.293039	-0.205702	0.000005
C32	C	1.793039	0.294298	0.500005
C33	C	1.398266	-0.215242	0.000011
C34	C	1.898266	0.284758	0.500011
C35	C	1.590929	-0.232686	0.000012
C36	C	2.090929	0.267314	0.500012
C37	C	1.648554	-0.165016	0.000006
C38	C	2.148554	0.334984	0.500006
C39	C	1.755759	-0.174721	0.000006
C40	C	2.255759	0.325279	0.500006
C41	C	1.483715	-0.222981	0.000012
C42	C	1.983715	0.277019	0.500012
C43	C	1.030065	0.269534	0.000007
C44	C	1.530065	0.769534	0.500007
C45	C	1.068628	0.322878	-0.088075
C46	C	1.568628	0.822878	0.411925
C47	C	1.121358	0.218568	-0.000000
C48	C	1.621358	0.718568	0.500000
C49	C	1.079452	0.331621	0.088052
C50	C	1.579452	0.831621	0.588052
C51	C	1.118065	0.383726	0.000012
C52	C	1.618065	0.883726	0.500012
C53	C	1.159942	0.270677	-0.088155
C54	C	1.659942	0.770677	0.411845
C55	C	1.170757	0.279419	0.088051
C56	C	1.670757	0.779419	0.588051
C57	C	1.209386	0.332739	-0.000052
C58	C	1.709386	0.832739	0.499948
C59	C	1.123252	0.123424	-0.000008
C60	C	1.623252	0.623424	0.499992
C61	C	1.116178	0.478868	0.000012
C62	C	1.616178	0.978868	0.500012
C63	C	1.112824	0.648100	0.000016
C64	C	1.612824	1.148100	0.500016
C65	C	1.114667	0.554712	0.000020
C66	C	1.614667	1.054712	0.500020
C67	C	1.148722	-0.175321	-0.526657
C68	C	1.648722	0.324679	-0.026657
C69	C	1.090767	-0.222368	-0.473328
C70	C	1.590767	0.277632	0.026672
C71	C	1.098217	-0.216317	-0.351405
C72	C	1.598217	0.283683	0.148595
C73	C	1.141272	-0.181372	-0.648591
C74	C	1.641272	0.318628	-0.148591
N75	N	1.135331	-0.186197	0.254228
N76	N	1.635331	0.313803	0.754228
H77	H	1.617380	-0.099788	0.000078
H78	H	2.117380	0.400212	0.500078
H79	H	1.285223	0.360216	-0.000103
H80	H	1.785223	0.860216	0.499897
Cl81	Cl	1.212452	0.229634	-0.203250
Cl82	Cl	1.712452	0.729634	0.296750
Cl83	Cl	1.237375	0.249594	0.203026
Cl84	Cl	1.737375	0.749594	0.703026
H85	H	1.203932	-0.130502	-0.480751
H86	H	1.703932	0.369498	0.019249
H87	H	1.622107	-0.297904	0.000018
H88	H	2.122107	0.202096	0.500018
Cl89	Cl	0.913069	0.226863	-0.000120
Cl90	Cl	1.413069	0.726863	0.499880
H91	H	1.025448	0.342173	-0.162540
H92	H	1.525448	0.842173	0.337460
H93	H	1.045394	0.358294	0.162523
H94	H	1.545394	0.858294	0.662523
Cl95	Cl	1.005525	-0.291575	-0.544209
Cl96	Cl	1.505525	0.208425	-0.044209
