data_functionalizedCrystal
_audit_creation_method	'MofGen! by Chris Wilmer'
_symmetry_space_group_name_H-M	'P1'
_symmetry_Int_Tables_number	1
_symmetry_cell_setting	triclinic
loop_
_symmetry_equiv_pos_as_xyz
  x,y,z
_cell_length_a	18.215407
_cell_length_b	18.215404
_cell_length_c	18.215399
_cell_angle_alpha	90.027515
_cell_angle_beta	89.980167
_cell_angle_gamma	89.975729
loop_
_atom_site_label
_atom_site_type_symbol
_atom_site_fract_x
_atom_site_fract_y
_atom_site_fract_z
Zn1	Zn	1.125077	0.292983	-0.416118
Zn2	Zn	1.124988	0.416054	-0.293053
Zn3	Zn	1.002010	0.293007	-0.293065
Zn4	Zn	1.001978	0.416013	-0.416078
O5	O	1.063513	0.354514	-0.354578
O6	O	1.228050	0.309316	-0.399805
O7	O	1.108651	0.399759	-0.190070
O8	O	1.018386	0.190020	-0.309411
O9	O	1.227984	0.399736	-0.309389
O10	O	1.108803	0.190002	-0.399817
O11	O	1.018299	0.309357	-0.190079
O12	O	0.899021	0.309317	-0.309372
O13	O	1.018332	0.399666	-0.519067
O14	O	0.898998	0.399689	-0.399748
O15	O	1.108772	0.309276	-0.519097
O16	O	1.108620	0.519033	-0.309350
O17	O	1.018245	0.519003	-0.399736
C18	C	0.872307	0.354502	-0.354557
C19	C	0.790508	0.354514	-0.354566
C20	C	0.602321	0.401645	-0.401566
C21	C	0.525463	0.401647	-0.401575
C22	C	0.525457	0.307397	-0.307607
C23	C	0.602315	0.307392	-0.307602
C24	C	0.640745	0.354520	-0.354581
C25	C	0.487029	0.354528	-0.354595
C26	C	0.403695	0.354530	-0.354604
C27	C	0.724084	0.354517	-0.354572
C28	C	1.063439	0.545721	-0.354553
C29	C	1.063475	0.627520	-0.354567
C30	C	1.110647	0.815705	-0.307600
C31	C	1.110681	0.892563	-0.307622
C32	C	1.016492	0.892572	-0.401663
C33	C	1.016462	0.815715	-0.401644
C34	C	1.063539	0.777283	-0.354609
C35	C	1.063603	0.930999	-0.354649
C36	C	1.063640	1.014333	-0.354673
C37	C	1.063503	0.693944	-0.354585
C38	C	1.255466	0.354528	-0.354600
C39	C	1.337265	0.354533	-0.354609
C40	C	1.063558	0.354464	-0.546531
C41	C	1.063577	0.354442	-0.628330
C42	C	1.063613	1.162561	-0.354633
C43	C	1.063667	1.080763	-0.354691
C44	C	1.110687	0.307332	-0.816541
C45	C	1.110695	0.307311	-0.893400
C46	C	1.016520	0.401438	-0.893358
C47	C	1.016508	0.401455	-0.816500
C48	C	1.063596	0.354403	-0.778094
C49	C	1.063616	0.354365	-0.931810
C50	C	1.063625	0.354342	-1.015144
C51	C	1.063586	0.354425	-0.694755
C52	C	1.063511	0.354512	-0.163372
C53	C	1.063635	0.354326	-0.081574
H54	H	0.633600	0.269012	-0.269341
C55	C	0.438995	0.500654	-0.411633
C56	C	0.483225	0.453449	-0.453220
H57	H	0.412917	0.532631	-0.443521
H58	H	0.468953	0.528760	-0.379524
H59	H	0.405110	0.472582	-0.383660
H60	H	0.517115	0.481522	-0.481190
H61	H	0.453265	0.425340	-0.485343
C62	C	0.980617	0.526047	-0.916979
C63	C	0.964768	0.453162	-0.935576
H64	H	0.948664	0.557980	-0.943039
H65	H	1.030055	0.536810	-0.929584
H66	H	0.973867	0.532784	-0.865701
H67	H	0.971523	0.446425	-0.986852
H68	H	0.915319	0.442395	-0.922975
C69	C	0.501756	0.271391	-0.183056
C70	C	0.483212	0.255601	-0.255966
H71	H	0.475679	0.239410	-0.151175
H72	H	0.489136	0.320819	-0.172206
H73	H	0.553030	0.264640	-0.176338
H74	H	0.431939	0.262357	-0.262685
H75	H	0.495827	0.206161	-0.266819
C76	C	1.146579	0.182721	-0.792918
C77	C	1.162436	0.255605	-0.774324
H78	H	1.178525	0.150786	-0.766852
H79	H	1.153327	0.175981	-0.844188
H80	H	1.097133	0.171965	-0.780310
H81	H	1.211881	0.266364	-0.786937
H82	H	1.155695	0.262349	-0.723043
H83	H	1.149040	0.268979	-0.924700
C84	C	0.980581	0.916183	-0.526252
C85	C	0.964745	0.934821	-0.453359
H86	H	0.948635	0.942269	-0.558165
H87	H	0.973817	0.864917	-0.532965
H88	H	1.030027	0.928734	-0.537063
H89	H	0.915300	0.922264	-0.442547
H90	H	0.971503	0.986098	-0.446642
H91	H	0.978156	0.439786	-0.785196
H92	H	0.633609	0.440018	-0.439820
H93	H	1.148980	0.784415	-0.269301
H94	H	1.149043	0.923843	-0.269343
H95	H	0.978101	0.784430	-0.439928
