data_functionalizedCrystal
_audit_creation_method	'MofGen! by Chris Wilmer'
_symmetry_space_group_name_H-M	'P1'
_symmetry_Int_Tables_number	1
_symmetry_cell_setting	triclinic
loop_
_symmetry_equiv_pos_as_xyz
  x,y,z
_cell_length_a	12.827893
_cell_length_b	13.032721
_cell_length_c	12.827885
_cell_angle_alpha	97.149059
_cell_angle_beta	89.980538
_cell_angle_gamma	97.204267
loop_
_atom_site_label
_atom_site_type_symbol
_atom_site_fract_x
_atom_site_fract_y
_atom_site_fract_z
Zn1	Zn	1.544800	-0.415987	-0.643644
Zn2	Zn	2.044800	0.084013	-0.143644
Zn3	Zn	1.522480	-0.590766	-0.491086
Zn4	Zn	2.022480	-0.090766	0.008914
Zn5	Zn	1.370035	-0.416038	-0.468924
Zn6	Zn	1.870035	0.083962	0.031076
Zn7	Zn	1.347823	-0.590688	-0.665776
Zn8	Zn	1.847823	-0.090688	-0.165776
O9	O	1.446284	-0.503370	-0.567357
O10	O	1.946284	-0.003370	-0.067357
O11	O	1.688074	-0.439183	-0.623419
O12	O	2.188074	0.060817	-0.123419
O13	O	1.502212	-0.567642	-0.341917
O14	O	2.002212	-0.067642	0.158083
O15	O	1.411855	-0.269794	-0.473563
O16	O	1.911855	0.230206	0.026437
O17	O	1.671675	-0.567593	-0.511336
O18	O	2.171675	-0.067593	-0.011336
O19	O	1.540254	-0.269756	-0.601929
O20	O	2.040254	0.230244	-0.101929
O21	O	1.390211	-0.439270	-0.325634
O22	O	1.890211	0.060730	0.174366
O23	O	1.220854	-0.439194	-0.495024
O24	O	1.720854	0.060806	0.004976
O25	O	1.373998	-0.567460	-0.809070
O26	O	1.873998	-0.067460	-0.309070
O27	O	1.204535	-0.567509	-0.639651
O28	O	1.704535	-0.067509	-0.139651
O29	O	1.518716	-0.439108	-0.792809
O30	O	2.018716	0.060892	-0.292809
O31	O	1.480674	-0.736993	-0.532797
O32	O	1.980674	-0.236993	-0.032797
O33	O	1.352354	-0.736936	-0.661141
O34	O	1.852354	-0.236936	-0.161141
C35	C	1.174777	-0.503350	-0.567335
C36	C	1.674777	-0.003350	-0.067335
C37	C	1.058622	-0.503366	-0.567353
C38	C	1.558622	-0.003366	-0.067353
C39	C	0.998777	-0.566960	-0.638834
C40	C	1.498777	-0.066960	-0.138834
C41	C	0.878724	-0.566978	-0.638854
C42	C	1.378724	-0.066978	-0.138854
C43	C	1.411710	-0.774882	-0.601798
C44	C	1.911710	-0.274882	-0.101798
C45	C	1.397015	-0.891037	-0.616567
C46	C	1.897015	-0.391037	-0.116567
C47	C	1.454009	-0.942815	-0.559696
C48	C	1.954009	-0.442815	-0.059696
C49	C	1.438823	-1.062867	-0.574959
C50	C	1.938823	-0.562867	-0.074959
C51	C	1.718852	-0.503391	-0.567381
C52	C	2.218852	-0.003391	-0.067381
C53	C	1.835004	-0.503400	-0.567391
C54	C	2.335004	-0.003400	-0.067391
C55	C	1.446369	-0.503270	-0.839915
C56	C	1.946369	-0.003270	-0.339915
C57	C	1.446405	-0.503227	-0.956063
C58	C	1.946405	-0.003227	-0.456063
C59	C	1.481022	-0.230797	-0.532805
C60	C	1.981022	0.269203	-0.032805
C61	C	1.495825	-0.114643	-0.518081
C62	C	1.995825	0.385357	-0.018081
C63	C	1.391006	-0.439692	-0.999789
C64	C	1.891006	0.060308	-0.499789
C65	C	1.391042	-0.439646	-1.119833
C66	C	1.891042	0.060354	-0.619833
C67	C	1.446270	-0.503394	-0.295851
C68	C	1.946270	-0.003394	0.204149
C69	C	1.446473	-0.503143	-0.179666
C70	C	1.946473	-0.003143	0.320334
H71	H	0.886431	-0.448956	-0.506187
H72	H	1.386431	0.051044	-0.006187
Br73	Br	1.525497	-0.593846	-1.041785
Br74	Br	2.025497	-0.093846	-0.541785
Br75	Br	0.995894	-0.412630	-0.465381
Br76	Br	1.495894	0.087370	0.034619
Br77	Br	1.061506	-0.657690	-0.740812
Br78	Br	1.561506	-0.157690	-0.240812
Br79	Br	1.311994	-0.348970	-1.182550
Br80	Br	1.811994	0.151030	-0.682550
H81	H	1.378784	-1.107411	-0.634956
H82	H	1.878784	-0.607411	-0.134956
H83	H	1.514053	-0.898270	-0.499712
H84	H	2.014053	-0.398270	0.000288
Br85	Br	1.595910	-1.040412	-0.418095
Br86	Br	2.095910	-0.540412	0.081905
H87	H	1.336981	-0.935584	-0.676559
H88	H	1.836981	-0.435584	-0.176559
Br89	Br	1.311919	-0.349067	-0.914066
Br90	Br	1.811919	0.150933	-0.414066
H91	H	0.827290	-0.621426	-0.700049
H92	H	1.327290	-0.121426	-0.200049
H93	H	1.493910	-0.557536	-1.142038
H94	H	1.993910	-0.057536	-0.642038
