data_functionalizedCrystal
_audit_creation_method	'MofGen! by Chris Wilmer'
_symmetry_space_group_name_H-M	'P1'
_symmetry_Int_Tables_number	1
_symmetry_cell_setting	triclinic
loop_
_symmetry_equiv_pos_as_xyz
  x,y,z
_cell_length_a	19.188905
_cell_length_b	19.188924
_cell_length_c	12.376457
_cell_angle_alpha	101.235232
_cell_angle_beta	78.739884
_cell_angle_gamma	83.138260
loop_
_atom_site_label
_atom_site_type_symbol
_atom_site_fract_x
_atom_site_fract_y
_atom_site_fract_z
O1	O	0.939613	0.073632	-0.094198
O2	O	1.439613	0.573632	0.405802
O3	O	0.736293	0.085390	-0.094160
O4	O	1.236293	0.585390	0.405840
O5	O	0.843821	-0.022144	-0.094167
O6	O	1.343821	0.477856	0.405833
O7	O	0.832085	0.181166	-0.094191
O8	O	1.332085	0.681166	0.405809
O9	O	0.816949	0.004703	0.093847
O10	O	1.316949	0.504703	0.593847
O11	O	0.709421	0.112237	0.093854
O12	O	1.209421	0.612237	0.593854
O13	O	0.912740	0.100479	0.093816
O14	O	1.412740	0.600479	0.593816
Zn15	Zn	0.806814	0.110621	0.123686
Zn16	Zn	1.306814	0.610621	0.623686
Zn17	Zn	0.842219	0.075249	-0.124030
Zn18	Zn	1.342219	0.575249	0.375970
O19	O	0.805213	0.208013	0.093822
O20	O	1.305213	0.708013	0.593822
C21	C	0.696845	0.098437	-0.000148
C22	C	1.196845	0.598437	0.499852
C23	C	0.619337	0.097305	-0.000133
C24	C	1.119337	0.597305	0.499867
C25	C	0.597594	0.082126	-0.102623
C26	C	1.097594	0.582126	0.397377
C27	C	0.524773	0.081051	-0.102637
C28	C	1.024773	0.581051	0.397363
C29	C	0.473698	0.095142	-0.000155
C30	C	0.973698	0.595142	0.499845
C31	C	0.495448	0.110327	0.102347
C32	C	0.995448	0.610327	0.602347
C33	C	0.568267	0.111409	0.102358
C34	C	1.068267	0.611409	0.602358
N35	N	0.353777	0.064604	0.076116
N36	N	0.853777	0.564604	0.576116
N37	N	0.284603	0.063574	0.076099
N38	N	0.784603	0.563574	0.576099
C39	C	0.254295	0.091885	-0.000182
C40	C	0.754295	0.591885	0.499818
N41	N	0.295779	0.121254	-0.076463
N42	N	0.795779	0.621254	0.423537
N43	N	0.364961	0.122281	-0.076449
N44	N	0.864961	0.622281	0.423551
C45	C	0.394736	0.093971	-0.000156
C46	C	0.894736	0.593971	0.499844
C47	C	0.153591	0.075541	-0.102694
C48	C	0.653591	0.575541	0.397306
C49	C	0.080767	0.074470	-0.102703
C50	C	0.580767	0.574470	0.397297
C51	C	0.051444	0.103740	0.102284
C52	C	0.551444	0.603740	0.602284
C53	C	0.124267	0.104817	0.102290
C54	C	0.624267	0.604817	0.602290
C55	C	0.175337	0.090713	-0.000202
C56	C	0.675337	0.590713	0.499798
C57	C	0.830005	-0.034731	-0.000159
C58	C	1.330005	0.465269	0.499841
C59	C	0.828866	-0.112235	-0.000156
C60	C	1.328866	0.387765	0.499844
C61	C	0.842983	-0.163268	-0.102642
C62	C	1.342983	0.336732	0.397358
C63	C	0.841904	-0.236092	-0.102651
C64	C	1.341904	0.263908	0.397349
C65	C	0.826722	-0.257881	-0.000167
C66	C	1.326722	0.242119	0.499833
C67	C	0.812599	-0.206837	0.102333
C68	C	1.312599	0.293163	0.602333
C69	C	0.813671	-0.134014	0.102339
C70	C	1.313671	0.365986	0.602339
N71	N	0.853869	-0.366657	0.076103
N72	N	1.353869	0.133343	0.576103
N73	N	0.852853	-0.435837	0.076090
N74	N	1.352853	0.064163	0.576090
C75	C	0.823489	-0.477291	-0.000177
C76	C	1.323489	0.022709	0.499823
N77	N	0.795191	-0.446956	-0.076449
N78	N	1.295191	0.053044	0.423551
N79	N	0.796210	-0.377771	-0.076440
N80	N	1.296210	0.122229	0.423560
C81	C	0.825557	-0.336844	-0.000161
C82	C	1.325557	0.163156	0.499839
C83	C	0.836436	-0.607289	-0.102680
C84	C	1.336436	-0.107289	0.397320
C85	C	0.835352	-0.680113	-0.102684
C86	C	1.335352	-0.180113	0.397316
C87	C	0.806054	-0.650857	0.102303
C88	C	1.306054	-0.150857	0.602303
C89	C	0.807132	-0.578034	0.102304
C90	C	1.307132	-0.078034	0.602304
C91	C	0.822326	-0.556255	-0.000190
C92	C	1.322326	-0.056255	0.499810
C93	C	0.952189	0.087432	-0.000199
C94	C	1.452189	0.587432	0.499801
C95	C	1.029697	0.088563	-0.000221
C96	C	1.529697	0.588563	0.499779
C97	C	0.819029	0.220600	-0.000188
C98	C	1.319029	0.720600	0.499812
C99	C	0.820169	0.298103	-0.000199
C100	C	1.320169	0.798103	0.499801
N101	N	0.782656	0.134761	0.292746
N102	N	1.282656	0.634761	0.792746
N103	N	0.866383	0.051103	-0.293090
N104	N	1.366383	0.551103	0.206910
C105	C	0.922462	-0.004947	0.647722
C106	C	1.422462	0.495053	1.147722
C107	C	0.939366	-0.021843	0.529381
C108	C	1.439366	0.478157	1.029381
C109	C	0.900190	0.017306	0.470216
C110	C	1.400190	0.517306	0.970216
C111	C	0.844107	0.073355	0.529404
C112	C	1.344107	0.573355	1.029404
C113	C	0.827204	0.090256	0.647757
C114	C	1.327204	0.590256	1.147757
C115	C	0.804932	0.112509	0.470251
C116	C	1.304932	0.612509	0.970251
C117	C	0.748849	0.168557	0.529439
C118	C	1.248849	0.668557	1.029439
C119	C	0.731949	0.185455	0.647780
C120	C	1.231949	0.685455	1.147780
C121	C	0.771126	0.146306	0.706945
C122	C	1.271126	0.646306	1.206945
C123	C	0.821835	0.095608	0.351899
C124	C	1.321835	0.595608	0.851899
C125	C	0.726577	0.190811	0.351933
C126	C	1.226577	0.690811	0.851933
C127	C	0.709673	0.207707	0.470274
C128	C	1.209673	0.707707	0.970274
H129	H	0.453858	0.121802	0.185788
H130	H	0.953858	0.621802	0.685788
C131	C	0.802306	-0.009393	0.193361
C132	C	1.302306	0.490607	0.693361
C133	C	0.798157	-0.077912	0.214999
C134	C	1.298157	0.422088	0.714999
H135	H	0.792725	0.025242	0.262915
H136	H	1.292725	0.525242	0.762915
H137	H	0.849206	-0.008929	0.151253
H138	H	1.349206	0.491071	0.651253
H139	H	0.767792	0.001980	0.151254
H140	H	1.267792	0.501980	0.651254
H141	H	0.832675	-0.089287	0.257099
H142	H	1.332675	0.410713	0.757099
H143	H	0.751250	-0.078378	0.257125
H144	H	1.251250	0.421622	0.757125
C145	C	0.801735	-0.601732	-0.277386
C146	C	1.301735	-0.101732	0.222614
C147	C	0.853131	-0.583330	-0.215327
C148	C	1.353131	-0.083330	0.284673
H149	H	0.812042	-0.586935	-0.346923
H150	H	1.312042	-0.086935	0.153077
H151	H	0.803119	-0.652401	-0.292073
H152	H	1.303119	-0.152401	0.207927
H153	H	0.755187	-0.578329	-0.235254
H154	H	1.255187	-0.078329	0.264746
H155	H	0.899679	-0.606737	-0.257456
H156	H	1.399679	-0.106737	0.242544
H157	H	0.851755	-0.532652	-0.200643
H158	H	1.351755	-0.032652	0.299357
H159	H	0.639172	0.070642	-0.186080
H160	H	1.139172	0.570642	0.313920
H161	H	0.009859	0.115218	0.185726
H162	H	0.509859	0.615218	0.685726
H163	H	0.507065	0.068691	-0.186098
H164	H	1.007065	0.568691	0.313902
H165	H	0.585968	0.123771	0.185820
H166	H	1.085968	0.623771	0.685820
H167	H	0.855353	-0.145542	-0.186101
H168	H	1.355353	0.354458	0.313899
H169	H	0.195174	0.064064	-0.186149
H170	H	0.695174	0.564064	0.313851
C171	C	0.798777	0.118681	0.876455
C172	C	1.298777	0.618681	1.376455
C173	C	0.752548	0.164883	0.837032
C174	C	1.252548	0.664883	1.337032
H175	H	0.787312	0.130153	0.956766
H176	H	1.287312	0.630153	1.456766
H177	H	0.793178	0.070266	0.849699
H178	H	1.293178	0.570266	1.349699
H179	H	0.847195	0.124301	0.849649
H180	H	1.347195	0.624301	1.349649
H181	H	0.704130	0.159259	0.863831
H182	H	1.204130	0.659259	1.363831
H183	H	0.758141	0.213309	0.863799
H184	H	1.258141	0.713309	1.363799
H185	H	0.686288	0.231098	0.695971
H186	H	1.186288	0.731098	1.195971
C187	C	0.641474	0.275882	0.651709
C188	C	1.141474	0.775882	1.151709
C189	C	0.648032	0.269319	0.535342
C190	C	1.148032	0.769319	1.035342
H191	H	0.603423	0.313922	0.691877
H192	H	1.103423	0.813922	1.191877
H193	H	0.631267	0.232077	0.671106
H194	H	1.131267	0.732077	1.171106
H195	H	0.685285	0.286111	0.671065
H196	H	1.185285	0.786111	1.171065
H197	H	0.604223	0.259085	0.515985
H198	H	1.104223	0.759085	1.015985
H199	H	0.658234	0.313134	0.515938
H200	H	1.158234	0.813134	1.015938
C201	C	0.730132	0.266866	0.218837
C202	C	1.230132	0.766866	0.718837
C203	C	0.683510	0.233850	0.286912
C204	C	1.183510	0.733850	0.786912
H205	H	0.703547	0.293431	0.178686
H206	H	1.203547	0.793431	0.678686
H207	H	0.752518	0.298496	0.264987
H208	H	1.252518	0.798496	0.764987
H209	H	0.765945	0.231057	0.166655
H210	H	1.265945	0.731057	0.666655
H211	H	0.647700	0.269659	0.339099
H212	H	1.147700	0.769659	0.839099
H213	H	0.661113	0.202217	0.240758
H214	H	1.161113	0.702217	0.740758
C215	C	0.117073	0.045627	-0.305320
C216	C	0.617073	0.545627	0.194680
C217	C	0.056866	0.057781	-0.215369
C218	C	0.556866	0.557781	0.284631
H219	H	0.102316	0.035319	-0.374874
H220	H	0.602316	0.535319	0.125126
H221	H	0.139410	0.087359	-0.301067
H222	H	0.639410	0.587359	0.198933
H223	H	0.150320	0.005951	-0.301030
H224	H	0.650320	0.505951	0.198970
H225	H	0.023621	0.097461	-0.219655
H226	H	0.523621	0.597461	0.280345
H227	H	0.034518	0.016045	-0.219624
H228	H	0.534518	0.516045	0.280376
H229	H	0.141969	0.117173	0.185748
H230	H	0.641969	0.617173	0.685748
H231	H	0.846845	-0.721665	-0.186144
H232	H	1.346845	-0.221665	0.313856
H233	H	0.793688	-0.668596	0.185748
H234	H	1.293688	-0.168596	0.685748
H235	H	0.853395	-0.277651	-0.186110
H236	H	1.353395	0.222349	0.313890
C237	C	0.734393	-0.263725	0.221246
C238	C	1.234393	0.236275	0.721246
C239	C	0.795910	-0.230784	0.214986
C240	C	1.295910	0.269216	0.714986
H241	H	0.724090	-0.278511	0.290794
H242	H	1.224090	0.221489	0.790794
H243	H	0.694720	-0.230471	0.216996
H244	H	1.194720	0.269529	0.716996
H245	H	0.742656	-0.304544	0.160201
H246	H	1.242656	0.195456	0.660201
H247	H	0.787645	-0.189962	0.276027
H248	H	1.287645	0.310038	0.776027
H249	H	0.835592	-0.264041	0.219248
H250	H	1.335592	0.235959	0.719248
C251	C	0.778080	-0.556435	0.304917
C252	C	1.278080	-0.056435	0.804917
C253	C	0.791629	-0.521935	0.214963
C254	C	1.291629	-0.021935	0.714963
H255	H	0.768513	-0.521801	0.374470
H256	H	1.268513	-0.021801	0.874470
H257	H	0.737563	-0.579988	0.300666
H258	H	1.237563	-0.079988	0.800666
H259	H	0.818981	-0.590908	0.300630
H260	H	1.318981	-0.090908	0.800630
H261	H	0.750725	-0.487466	0.219245
H262	H	1.250725	0.012534	0.719245
H263	H	0.832150	-0.498371	0.219216
H264	H	1.332150	0.001629	0.719216
H265	H	0.867498	0.049974	0.303718
H266	H	1.367498	0.549974	0.803718
C267	C	0.976260	-0.058734	0.300676
C268	C	1.476260	0.441266	0.800676
C269	C	0.918765	-0.001270	0.340134
C270	C	1.418765	0.498730	0.840134
H271	H	0.987723	-0.070208	0.220365
H272	H	1.487723	0.429792	0.720365
H273	H	1.017027	-0.045465	0.327416
H274	H	1.517027	0.454535	0.827416
H275	H	0.963017	-0.099507	0.327475
H276	H	1.463017	0.400493	0.827475
H277	H	0.932010	0.039504	0.313342
H278	H	1.432010	0.539504	0.813342
H279	H	0.877990	-0.014536	0.313382
H280	H	1.377990	0.485464	0.813382
H281	H	0.954358	-0.036814	0.695901
H282	H	1.454358	0.463186	1.195901
H283	H	0.985029	-0.067476	0.481195
H284	H	1.485029	0.432524	0.981195
