data_functionalizedCrystal
_audit_creation_method	'MofGen! by Chris Wilmer'
_symmetry_space_group_name_H-M	'P1'
_symmetry_Int_Tables_number	1
_symmetry_cell_setting	triclinic
loop_
_symmetry_equiv_pos_as_xyz
  x,y,z
_cell_length_a	16.974959
_cell_length_b	16.109301
_cell_length_c	16.053934
_cell_angle_alpha	92.567699
_cell_angle_beta	88.925772
_cell_angle_gamma	96.567540
loop_
_atom_site_label
_atom_site_type_symbol
_atom_site_fract_x
_atom_site_fract_y
_atom_site_fract_z
O1	O	0.104619	-1.099908	0.062316
O2	O	0.354619	-0.849908	0.312316
O3	O	0.604619	-0.599908	0.562316
O4	O	0.854619	-0.349908	0.812316
O5	O	0.117227	-0.857878	0.061479
O6	O	0.367227	-0.607878	0.311479
O7	O	0.617227	-0.357878	0.561479
O8	O	0.867227	-0.107878	0.811479
O9	O	-0.003808	-0.985243	0.069633
O10	O	0.246192	-0.735243	0.319633
O11	O	0.496192	-0.485243	0.569633
O12	O	0.746192	-0.235243	0.819633
O13	O	0.225654	-0.972543	0.054162
O14	O	0.475654	-0.722543	0.304162
O15	O	0.725654	-0.472543	0.554162
O16	O	0.975654	-0.222543	0.804162
O17	O	-0.010447	-0.992215	-0.068776
O18	O	0.239553	-0.742215	0.181224
O19	O	0.489553	-0.492215	0.431224
O20	O	0.739553	-0.242215	0.681224
O21	O	0.110588	-0.864851	-0.076930
O22	O	0.360588	-0.614851	0.173070
O23	O	0.610588	-0.364851	0.423070
O24	O	0.860588	-0.114851	0.673070
O25	O	0.097980	-1.106880	-0.076093
O26	O	0.347980	-0.856880	0.173907
O27	O	0.597980	-0.606880	0.423907
O28	O	0.847980	-0.356880	0.673907
Zn29	Zn	0.103230	-0.986972	-0.098487
Zn30	Zn	0.353230	-0.736972	0.151513
Zn31	Zn	0.603230	-0.486972	0.401513
Zn32	Zn	0.853230	-0.236972	0.651513
Zn33	Zn	0.111977	-0.977786	0.083873
Zn34	Zn	0.361977	-0.727786	0.333873
Zn35	Zn	0.611977	-0.477786	0.583873
Zn36	Zn	0.861977	-0.227786	0.833873
O37	O	0.219015	-0.979516	-0.084247
O38	O	0.469015	-0.729516	0.165753
O39	O	0.719015	-0.479516	0.415753
O40	O	0.969015	-0.229516	0.665753
C41	C	0.113397	-0.830388	-0.007689
C42	C	0.363397	-0.580388	0.242311
C43	C	0.613397	-0.330388	0.492311
C44	C	0.863397	-0.080388	0.742311
C45	C	0.111866	-0.738089	-0.007581
C46	C	0.361866	-0.488089	0.242419
C47	C	0.611866	-0.238089	0.492419
C48	C	0.861866	0.011911	0.742419
N49	N	0.097259	-0.993248	-0.222942
N50	N	0.347259	-0.743248	0.027058
N51	N	0.597259	-0.493248	0.277058
N52	N	0.847259	-0.243248	0.527058
C53	C	-0.036490	-0.988113	0.002410
C54	C	0.213510	-0.738113	0.252410
C55	C	0.463510	-0.488113	0.502410
C56	C	0.713510	-0.238113	0.752410
C57	C	-0.123980	-0.986269	0.008315
C58	C	0.126020	-0.736269	0.258315
C59	C	0.376020	-0.486269	0.508315
C60	C	0.626020	-0.236269	0.758315
C61	C	-0.616075	-0.975552	0.049742
C62	C	-0.366075	-0.725552	0.299742
C63	C	-0.116075	-0.475552	0.549742
C64	C	0.133925	-0.225552	0.799742
C65	C	-0.533868	-0.977277	0.044177
C66	C	-0.283868	-0.727277	0.294177
C67	C	-0.033868	-0.477277	0.544177
C68	C	0.216132	-0.227277	0.794177
C69	C	-0.496399	-0.981934	-0.034052
C70	C	-0.246399	-0.731934	0.215948
C71	C	0.003601	-0.481934	0.465948
C72	C	0.253601	-0.231934	0.715948
C73	C	-0.541143	-0.984874	-0.106721
C74	C	-0.291143	-0.734874	0.143279
C75	C	-0.041143	-0.484874	0.393279
C76	C	0.208857	-0.234874	0.643279
C77	C	-0.623349	-0.983154	-0.101155
C78	C	-0.373349	-0.733154	0.148845
C79	C	-0.123349	-0.483154	0.398845
C80	C	0.126651	-0.233154	0.648845
C81	C	-0.250930	-0.987490	-0.058788
C82	C	-0.000930	-0.737490	0.191212
C83	C	0.249070	-0.487490	0.441212
C84	C	0.499070	-0.237490	0.691212
C85	C	-0.168718	-0.989207	-0.064349
C86	C	0.081282	-0.739207	0.185651
C87	C	0.331282	-0.489207	0.435651
C88	C	0.581282	-0.239207	0.685651
C89	C	-0.161449	-0.981611	0.086551
C90	C	0.088551	-0.731611	0.336551
C91	C	0.338551	-0.481611	0.586551
C92	C	0.588551	-0.231611	0.836551
C93	C	-0.243656	-0.979887	0.092110
C94	C	0.006344	-0.729887	0.342110
C95	C	0.256344	-0.479887	0.592110
C96	C	0.506344	-0.229887	0.842110
C97	C	-0.288393	-0.982831	0.019441
C98	C	-0.038393	-0.732831	0.269441
C99	C	0.211607	-0.482831	0.519441
C100	C	0.461607	-0.232831	0.769441
N101	N	-0.412371	-0.983695	-0.039742
N102	N	-0.162371	-0.733695	0.210258
N103	N	0.087629	-0.483695	0.460258
N104	N	0.337629	-0.233695	0.710258
N105	N	-0.372421	-0.981076	0.025132
N106	N	-0.122421	-0.731076	0.275132
N107	N	0.127579	-0.481076	0.525132
N108	N	0.377579	-0.231076	0.775132
C109	C	0.251697	-0.976645	-0.017022
C110	C	0.501697	-0.726645	0.232978
C111	C	0.751697	-0.476645	0.482978
C112	C	1.001697	-0.226645	0.732978
C113	C	0.339187	-0.978489	-0.022921
C114	C	0.589187	-0.728489	0.227079
C115	C	0.839187	-0.478489	0.477079
C116	C	1.089187	-0.228489	0.727079
C117	C	0.101810	-1.134370	-0.006922
C118	C	0.351810	-0.884370	0.243078
C119	C	0.601810	-0.634370	0.493078
C120	C	0.851810	-0.384370	0.743078
C121	C	0.103341	-1.226670	-0.007025
C122	C	0.353341	-0.976670	0.242975
C123	C	0.603341	-0.726670	0.492975
C124	C	0.853341	-0.476670	0.742975
C125	C	0.180125	-0.515995	-0.012193
C126	C	0.430125	-0.265995	0.237807
C127	C	0.680125	-0.015995	0.487807
C128	C	0.930125	0.234005	0.737807
C129	C	0.178680	-0.429271	-0.012101
C130	C	0.428680	-0.179271	0.237899
C131	C	0.678680	0.070729	0.487899
C132	C	0.928680	0.320729	0.737899
C133	C	0.035077	-0.448770	-0.002415
C134	C	0.285077	-0.198770	0.247585
C135	C	0.535077	0.051230	0.497585
C136	C	0.785077	0.301230	0.747585
C137	C	0.036522	-0.535493	-0.002513
C138	C	0.286522	-0.285493	0.247487
C139	C	0.536522	-0.035493	0.497487
C140	C	0.786522	0.214507	0.747487
C141	C	0.109049	-0.569102	-0.007398
C142	C	0.359049	-0.319102	0.242602
C143	C	0.609049	-0.069102	0.492602
C144	C	0.859049	0.180898	0.742602
C145	C	0.106158	-0.395656	-0.007208
C146	C	0.356158	-0.145656	0.242792
C147	C	0.606158	0.104344	0.492792
C148	C	0.856158	0.354344	0.742792
C149	C	0.104591	-0.301626	-0.007108
C150	C	0.354591	-0.051626	0.242892
C151	C	0.604591	0.198374	0.492892
C152	C	0.854591	0.448374	0.742892
C153	C	0.110616	-0.663138	-0.007500
C154	C	0.360616	-0.413138	0.242500
C155	C	0.610616	-0.163138	0.492500
C156	C	0.860616	0.086862	0.742500
C157	C	0.148741	-0.939044	-0.270125
C158	C	0.398741	-0.689044	-0.020125
C159	C	0.648741	-0.439044	0.229875
C160	C	0.898741	-0.189044	0.479875
C161	C	0.144561	-0.943458	-0.357249
C162	C	0.394561	-0.693458	-0.107249
C163	C	0.644561	-0.443458	0.142751
C164	C	0.894561	-0.193458	0.392751
C165	C	0.088896	-1.002073	-0.397187
C166	C	0.338896	-0.752073	-0.147187
C167	C	0.588896	-0.502073	0.102813
C168	C	0.838896	-0.252073	0.352813
C169	C	0.037412	-1.056283	-0.349998
C170	C	0.287412	-0.806283	-0.099998
C171	C	0.537412	-0.556283	0.150002
C172	C	0.787412	-0.306283	0.400002
C173	C	0.041596	-1.051872	-0.262877
C174	C	0.291596	-0.801872	-0.012877
C175	C	0.541596	-0.551872	0.237123
C176	C	0.791596	-0.301872	0.487123
C177	C	0.070641	-1.021317	-0.657360
C178	C	0.320641	-0.771317	-0.407360
C179	C	0.570641	-0.521317	-0.157360
C180	C	0.820641	-0.271317	0.092640
C181	C	0.066460	-1.025721	-0.744488
C182	C	0.316460	-0.775721	-0.494488
C183	C	0.566460	-0.525721	-0.244488
C184	C	0.816460	-0.275721	0.005512
C185	C	0.173610	-0.912897	-0.751732
C186	C	0.423610	-0.662897	-0.501732
C187	C	0.673610	-0.412897	-0.251732
C188	C	0.923610	-0.162897	-0.001732
C189	C	0.177786	-0.908488	-0.664609
C190	C	0.427786	-0.658488	-0.414609
C191	C	0.677786	-0.408488	-0.164609
C192	C	0.927786	-0.158488	0.085391
C193	C	0.126305	-0.962701	-0.617427
C194	C	0.376305	-0.712701	-0.367427
C195	C	0.626305	-0.462701	-0.117427
C196	C	0.876305	-0.212701	0.132573
N197	N	0.084621	-1.006584	-0.486242
N198	N	0.334621	-0.756584	-0.236242
N199	N	0.584621	-0.506584	0.013758
N200	N	0.834621	-0.256584	0.263758
N201	N	0.130585	-0.958193	-0.528375
N202	N	0.380585	-0.708193	-0.278375
N203	N	0.630585	-0.458193	-0.028375
N204	N	0.880585	-0.208193	0.221625
N205	N	0.117941	-0.971517	0.208329
N206	N	0.367941	-0.721517	0.458329
N207	N	0.617941	-0.471517	0.708329
N208	N	0.867941	-0.221517	0.958329
H209	H	-0.646575	-0.971752	0.113445
H210	H	-0.396575	-0.721752	0.363445
H211	H	-0.146575	-0.471752	0.613445
H212	H	0.103425	-0.221752	0.863445
H213	H	-0.510630	-0.988671	-0.170417
H214	H	-0.260630	-0.738671	0.079583
H215	H	-0.010630	-0.488671	0.329583
H216	H	0.239370	-0.238671	0.579583
Cl217	Cl	-0.290754	-0.974035	0.190459
Cl218	Cl	-0.040754	-0.724035	0.440459
Cl219	Cl	0.209246	-0.474035	0.690459
Cl220	Cl	0.459246	-0.224035	0.940459
Cl221	Cl	0.271300	-0.558245	-0.018339
Cl222	Cl	0.521300	-0.308245	0.231661
Cl223	Cl	0.771300	-0.058245	0.481661
Cl224	Cl	1.021300	0.191755	0.731661
H225	H	-0.497447	-0.974887	0.103348
H226	H	-0.247447	-0.724887	0.353348
H227	H	0.002553	-0.474887	0.603348
H228	H	0.252553	-0.224887	0.853348
H229	H	-0.138210	-0.992974	-0.128056
H230	H	0.111790	-0.742974	0.121944
H231	H	0.361790	-0.492974	0.371944
H232	H	0.611790	-0.242974	0.621944
H233	H	-0.659774	-0.985546	-0.160326
H234	H	-0.409774	-0.735546	0.089674
H235	H	-0.159774	-0.485546	0.339674
H236	H	0.090226	-0.235546	0.589674
H237	H	-0.021360	-0.578735	0.001389
H238	H	0.228640	-0.328735	0.251389
H239	H	0.478640	-0.078735	0.501389
H240	H	0.728640	0.171265	0.751389
H241	H	0.215524	-0.868760	-0.790155
H242	H	0.465524	-0.618760	-0.540155
H243	H	0.715524	-0.368760	-0.290155
H244	H	0.965524	-0.118760	-0.040155
H245	H	-0.000324	-1.096012	-0.224461
H246	H	0.249676	-0.846012	0.025539
H247	H	0.499676	-0.596012	0.275539
H248	H	0.749676	-0.346012	0.525539
H249	H	0.236557	-0.386034	-0.016007
H250	H	0.486557	-0.136034	0.233993
H251	H	0.736557	0.113966	0.483993
H252	H	0.986557	0.363966	0.733993
Cl253	Cl	-0.056094	-0.406511	0.003731
Cl254	Cl	0.193906	-0.156511	0.253731
Cl255	Cl	0.443906	0.093489	0.503731
Cl256	Cl	0.693906	0.343489	0.753731
H257	H	-0.007909	-1.104013	-0.382522
H258	H	0.242091	-0.854013	-0.132522
H259	H	0.492091	-0.604013	0.117478
H260	H	0.742091	-0.354013	0.367478
Cl261	Cl	-0.105206	-0.977928	0.177900
Cl262	Cl	0.144794	-0.727928	0.427900
Cl263	Cl	0.394794	-0.477928	0.677900
Cl264	Cl	0.644794	-0.227928	0.927900
H265	H	0.028722	-1.065458	-0.618952
H266	H	0.278722	-0.815458	-0.368952
H267	H	0.528722	-0.565458	-0.118952
H268	H	0.778722	-0.315458	0.131048
Cl269	Cl	0.218720	-0.865348	-0.219926
Cl270	Cl	0.468720	-0.615348	0.030074
Cl271	Cl	0.718720	-0.365348	0.280074
Cl272	Cl	0.968720	-0.115348	0.530074
H273	H	0.021127	-1.073455	-0.777001
H274	H	0.271127	-0.823455	-0.527001
H275	H	0.521127	-0.573455	-0.277001
H276	H	0.771127	-0.323455	-0.027001
Cl277	Cl	-0.307159	-0.991183	-0.150145
Cl278	Cl	-0.057159	-0.741183	0.099855
Cl279	Cl	0.192841	-0.491183	0.349855
Cl280	Cl	0.442841	-0.241183	0.599855
H281	H	0.186482	-0.899321	-0.395665
H282	H	0.436482	-0.649321	-0.145665
H283	H	0.686482	-0.399321	0.104335
H284	H	0.936482	-0.149321	0.354335
Cl285	Cl	0.247765	-0.834799	-0.614400
Cl286	Cl	0.497765	-0.584799	-0.364400
Cl287	Cl	0.747765	-0.334799	-0.114400
Cl288	Cl	0.997765	-0.084799	0.135600
