data_functionalizedCrystal
_audit_creation_method	'MofGen! by Chris Wilmer'
_symmetry_space_group_name_H-M	'P1'
_symmetry_Int_Tables_number	1
_symmetry_cell_setting	triclinic
loop_
_symmetry_equiv_pos_as_xyz
  x,y,z
_cell_length_a	6.817900
_cell_length_b	16.417823
_cell_length_c	16.417824
_cell_angle_alpha	95.404945
_cell_angle_beta	103.385545
_cell_angle_gamma	103.385419
loop_
_atom_site_label
_atom_site_type_symbol
_atom_site_fract_x
_atom_site_fract_y
_atom_site_fract_z
V1	V	-4.025027	-0.116568	-0.261445
V2	V	-3.525027	0.383432	0.238555
O3	O	-4.013072	0.004899	-0.256170
O4	O	-3.513072	0.504899	0.243830
O5	O	-3.976078	-0.230460	-0.259943
O6	O	-3.476078	0.269540	0.240057
O7	O	-3.976089	-0.115084	-0.375339
O8	O	-3.476089	0.384916	0.124661
O9	O	-4.013060	-0.111276	-0.139975
O10	O	-3.513060	0.388724	0.360025
V11	V	-4.508796	-0.102003	-0.246881
V12	V	-4.008796	0.397997	0.253119
O13	O	-4.285746	-0.148519	-0.293391
O14	O	-3.785746	0.351481	0.206609
O15	O	-4.698275	-0.070053	-0.214935
O16	O	-4.198275	0.429947	0.285065
O17	O	-4.334540	0.011888	-0.248382
O18	O	-3.834540	0.511888	0.251618
O19	O	-4.638149	-0.223470	-0.252156
O20	O	-4.138149	0.276530	0.247844
O21	O	-4.638161	-0.107296	-0.368350
O22	O	-4.138161	0.392704	0.131650
O23	O	-4.334528	-0.103488	-0.132987
O24	O	-3.834528	0.396512	0.367013
C25	C	-3.820962	-0.258214	-0.255893
C26	C	-3.320962	0.241786	0.244107
C27	C	-3.862223	-0.351324	-0.255424
C28	C	-3.362223	0.148676	0.244576
C29	C	-3.956184	-0.640885	-0.177216
C30	C	-3.456184	-0.140885	0.322784
C31	C	-3.917388	-0.553396	-0.177642
C32	C	-3.417388	-0.053396	0.322358
C33	C	-3.997013	-0.577699	-0.331119
C34	C	-3.497013	-0.077699	0.168881
C35	C	-4.035794	-0.665185	-0.330691
C36	C	-3.535794	-0.165185	0.169309
C37	C	-4.015387	-0.696776	-0.253737
C38	C	-3.515387	-0.196776	0.246263
C39	C	-3.937810	-0.521800	-0.254592
C40	C	-3.437810	-0.021800	0.245408
C41	C	-3.895746	-0.426941	-0.255055
C42	C	-3.395746	0.073059	0.244945
C43	C	-4.057450	-0.791641	-0.253274
C44	C	-3.557450	-0.291641	0.246726
C45	C	-3.820976	-0.111040	-0.403090
C46	C	-3.320976	0.388960	0.096910
C47	C	-3.862243	-0.110579	-0.496201
C48	C	-3.362243	0.389421	0.003799
C49	C	-3.997038	-0.186240	-0.722575
C50	C	-3.497038	0.313760	-0.222575
C51	C	-4.035828	-0.185802	-0.810062
C52	C	-3.535828	0.314198	-0.310062
C53	C	-3.956160	-0.032324	-0.785739
C54	C	-3.456160	0.467676	-0.285739
C55	C	-3.917386	-0.032764	-0.698254
C56	C	-3.417386	0.467236	-0.198254
C57	C	-3.937817	-0.109724	-0.666674
C58	C	-3.437817	0.390276	-0.166674
C59	C	-4.015381	-0.108846	-0.841646
C60	C	-3.515381	0.391154	-0.341646
C61	C	-4.057438	-0.108371	-0.936504
C62	C	-3.557438	0.391629	-0.436504
C63	C	-3.895761	-0.110200	-0.571811
C64	C	-3.395761	0.389800	-0.071811
C65	C	-4.152997	0.039639	-0.252430
C66	C	-3.652997	0.539639	0.247570
C67	C	-4.090975	0.132747	-0.252904
C68	C	-3.590975	0.632747	0.247096
C69	C	-4.152984	-0.107535	-0.105231
C70	C	-3.652984	0.392465	0.394769
C71	C	-4.090955	-0.107991	-0.012119
C72	C	-3.590955	0.392009	0.487881
H73	H	-3.869178	-0.507892	-0.115331
H74	H	-3.369178	-0.007892	0.384669
H75	H	-3.939559	-0.666603	-0.114555
H76	H	-3.439559	-0.166603	0.385445
H77	H	-4.013625	-0.551966	-0.393772
H78	H	-3.513625	-0.051966	0.106228
O79	O	-4.019078	-0.269241	-0.688509
O80	O	-3.519078	0.230759	-0.188509
H81	H	-4.181767	-0.309083	-0.714319
H82	H	-3.681767	0.190917	-0.214319
H83	H	-3.939527	0.030334	-0.811462
H84	H	-3.439527	0.530334	-0.311462
O85	O	-4.099672	-0.725479	-0.413229
O86	O	-3.599672	-0.225479	0.086771
H87	H	-4.107384	-0.688817	-0.466812
H88	H	-3.607384	-0.188817	0.033188
O89	O	-4.099653	-0.268327	-0.870357
O90	O	-3.599653	0.231673	-0.370357
H91	H	-4.107314	-0.321911	-0.833695
H92	H	-3.607314	0.178089	-0.333695
H93	H	-3.869167	0.029548	-0.652737
H94	H	-3.369167	0.529548	-0.152737
