data_functionalizedCrystal
_audit_creation_method	'MofGen! by Chris Wilmer'
_symmetry_space_group_name_H-M	'P1'
_symmetry_Int_Tables_number	1
_symmetry_cell_setting	triclinic
loop_
_symmetry_equiv_pos_as_xyz
  x,y,z
_cell_length_a	23.532407
_cell_length_b	23.532407
_cell_length_c	22.610064
_cell_angle_alpha	89.999397
_cell_angle_beta	89.997161
_cell_angle_gamma	82.848678
loop_
_atom_site_label
_atom_site_type_symbol
_atom_site_fract_x
_atom_site_fract_y
_atom_site_fract_z
O1	O	0.755263	0.069127	-0.049117
O2	O	1.255263	0.569127	0.450883
O3	O	0.589400	0.079130	-0.049135
O4	O	1.089400	0.579130	0.450865
O5	O	0.677333	-0.008803	-0.049114
O6	O	1.177333	0.491197	0.450886
O7	O	0.667330	0.157060	-0.049137
O8	O	1.167330	0.657060	0.450863
O9	O	0.677318	-0.008790	0.049255
O10	O	1.177318	0.491210	0.549255
O11	O	0.589385	0.079143	0.049234
O12	O	1.089385	0.579143	0.549234
O13	O	0.755248	0.069140	0.049252
O14	O	1.255248	0.569140	0.549252
Zn15	Zn	0.672314	0.074144	0.064862
Zn16	Zn	1.172314	0.574144	0.564862
Zn17	Zn	0.672334	0.074127	-0.064744
Zn18	Zn	1.172334	0.574127	0.435256
O19	O	0.667315	0.157073	0.049232
O20	O	1.167315	0.657073	0.549232
C21	C	0.568176	0.078882	0.000048
C22	C	1.068176	0.578882	0.500048
C23	C	0.504959	0.078116	0.000041
C24	C	1.004959	0.578116	0.500041
C25	C	0.105856	0.125350	0.000061
C26	C	0.605856	0.625350	0.500061
C27	C	0.046456	0.124638	0.000065
C28	C	0.546456	0.624638	0.500065
O29	O	0.009711	0.168424	0.000081
O30	O	0.509711	0.668424	0.500081
N31	N	0.023830	0.072362	0.000071
N32	N	0.523830	0.572362	0.500071
C33	C	0.060607	0.020794	0.000080
C34	C	0.560607	0.520794	0.500080
O35	O	0.035908	-0.023737	0.000086
O36	O	0.535908	0.476263	0.500086
C37	C	0.120006	0.021506	0.000080
C38	C	0.620006	0.521506	0.500080
C39	C	0.142629	0.073785	0.000068
C40	C	0.642629	0.573785	0.500068
C41	C	0.128479	0.177625	0.000050
C42	C	0.628479	0.677625	0.500050
C43	C	0.187876	0.178336	0.000045
C44	C	0.687876	0.678336	0.500045
C45	C	0.224649	0.126772	0.000052
C46	C	0.724649	0.626772	0.500052
C47	C	0.202025	0.074497	0.000063
C48	C	0.702025	0.574497	0.500063
C49	C	0.156783	-0.030062	0.000093
C50	C	0.656783	0.469938	0.500093
C51	C	0.216185	-0.029345	0.000094
C52	C	0.716185	0.470655	0.500094
C53	C	0.238808	0.022934	0.000082
C54	C	0.738808	0.522934	0.500082
C55	C	0.298194	0.023643	0.000065
C56	C	0.798194	0.523643	0.500065
N57	N	0.320820	0.075920	0.000059
N58	N	0.820820	0.575920	0.500059
C59	C	0.284048	0.127484	0.000052
C60	C	0.784048	0.627484	0.500052
C61	C	-0.064135	0.019302	0.000080
C62	C	0.435865	0.519302	0.500080
C63	C	-0.123533	0.018589	0.000075
C64	C	0.376467	0.518589	0.500075
C65	C	-0.137680	0.122434	0.000061
C66	C	0.362320	0.622434	0.500061
C67	C	-0.078281	0.123146	0.000062
C68	C	0.421719	0.623146	0.500062
C69	C	-0.041509	0.071578	0.000074
C70	C	0.458491	0.571578	0.500074
C71	C	0.408784	0.128974	0.000042
C72	C	0.908784	0.628974	0.500042
C73	C	0.468186	0.129680	0.000034
C74	C	0.968186	0.629680	0.500034
C75	C	0.482329	0.025836	0.000051
C76	C	0.982329	0.525836	0.500051
C77	C	0.422932	0.025129	0.000055
C78	C	0.922932	0.525129	0.500055
C79	C	0.386160	0.076702	0.000052
C80	C	0.886160	0.576702	0.500052
O81	O	0.334974	-0.020119	0.000052
O82	O	0.834974	0.479881	0.500052
O83	O	0.308755	0.172007	0.000054
O84	O	0.808755	0.672007	0.500054
C85	C	0.677071	-0.030013	0.000072
C86	C	1.177071	0.469987	0.500072
C87	C	0.676305	-0.093230	0.000076
C88	C	1.176305	0.406770	0.500076
C89	C	0.723539	-0.492333	0.000049
C90	C	1.223539	0.007667	0.500049
C91	C	0.722827	-0.551733	0.000044
C92	C	1.222827	-0.051733	0.500044
O93	O	0.766613	-0.588478	0.000027
O94	O	1.266613	-0.088478	0.500027
N95	N	0.670551	-0.574359	0.000039
N96	N	1.170551	-0.074359	0.500039
C97	C	0.618983	-0.537582	0.000032
C98	C	1.118983	-0.037582	0.500032
O99	O	0.574452	-0.562281	0.000027
O100	O	1.074452	-0.062281	0.500027
C101	C	0.619695	-0.478182	0.000033
C102	C	1.119695	0.021818	0.500033
C103	C	0.671974	-0.455560	0.000044
C104	C	1.171974	0.044440	0.500044
C105	C	0.775814	-0.469710	0.000060
C106	C	1.275814	0.030290	0.500060
C107	C	0.776525	-0.410313	0.000065
C108	C	1.276525	0.089687	0.500065
C109	C	0.724961	-0.373540	0.000060
C110	C	1.224961	0.126460	0.500060
C111	C	0.672685	-0.396164	0.000050
C112	C	1.172685	0.103836	0.500050
C113	C	0.568127	-0.441406	0.000022
C114	C	1.068127	0.058594	0.500022
C115	C	0.568844	-0.382004	0.000021
C116	C	1.068844	0.117996	0.500021
C117	C	0.621123	-0.359381	0.000033
C118	C	1.121123	0.140619	0.500033
C119	C	0.621832	-0.299995	0.000050
C120	C	1.121832	0.200005	0.500050
N121	N	0.674109	-0.277368	0.000056
N122	N	1.174109	0.222632	0.500056
C123	C	0.725673	-0.314141	0.000061
C124	C	1.225673	0.185859	0.500061
C125	C	0.617491	-0.662324	0.000031
C126	C	1.117491	-0.162324	0.500031
C127	C	0.616778	-0.721722	0.000034
C128	C	1.116778	-0.221722	0.500034
C129	C	0.720623	-0.735869	0.000045
C130	C	1.220623	-0.235869	0.500045
C131	C	0.721335	-0.676470	0.000046
C132	C	1.221335	-0.176470	0.500046
C133	C	0.669767	-0.639698	0.000036
C134	C	1.169767	-0.139698	0.500036
C135	C	0.727163	-0.189405	0.000073
C136	C	1.227163	0.310595	0.500073
C137	C	0.727869	-0.130003	0.000081
C138	C	1.227869	0.369997	0.500081
C139	C	0.624025	-0.115860	0.000067
C140	C	1.124025	0.384140	0.500067
C141	C	0.623318	-0.175257	0.000062
C142	C	1.123318	0.324743	0.500062
C143	C	0.674891	-0.212029	0.000063
C144	C	1.174891	0.287971	0.500063
O145	O	0.578070	-0.263215	0.000065
O146	O	1.078070	0.236785	0.500065
O147	O	0.770196	-0.289433	0.000058
O148	O	1.270196	0.210567	0.500058
C149	C	0.776472	0.069388	0.000069
C150	C	1.276472	0.569388	0.500069
C151	C	0.839689	0.070154	0.000071
C152	C	1.339689	0.570154	0.500071
C153	C	0.667577	0.178283	0.000045
C154	C	1.167577	0.678283	0.500045
C155	C	0.668343	0.241500	0.000036
C156	C	1.168343	0.741500	0.500036
N157	N	0.672304	0.074155	0.153314
N158	N	1.172304	0.574155	0.653314
N159	N	0.672349	0.074111	-0.153196
N160	N	1.172349	0.574111	0.346804
C161	C	0.711273	0.035196	0.561965
C162	C	1.211273	0.535196	1.061965
C163	C	0.711276	0.035192	0.623884
C164	C	1.211276	0.535192	1.123884
O165	O	0.744384	0.002076	0.655911
O166	O	1.244384	0.502076	1.155911
N167	N	0.672334	0.074115	0.654851
N168	N	1.172334	0.574115	1.154851
C169	C	0.633383	0.113041	0.623895
C170	C	1.133383	0.613041	1.123895
O171	O	0.600259	0.146147	0.655920
O172	O	1.100259	0.646147	1.155920
C173	C	0.633377	0.113042	0.561976
C174	C	1.133377	0.613042	1.061976
C175	C	0.672326	0.074120	0.531013
C176	C	1.172326	0.574120	1.031013
C177	C	0.750218	-0.003724	0.531001
C178	C	1.250218	0.496276	1.031001
C179	C	0.750215	-0.003719	0.469085
C180	C	1.250215	0.496281	0.969085
C181	C	0.711268	0.035206	0.438133
C182	C	1.211268	0.535206	0.938133
C183	C	0.672323	0.074125	0.469097
C184	C	1.172323	0.574125	0.969097
C185	C	0.594424	0.151965	0.531021
C186	C	1.094424	0.651965	1.031021
C187	C	0.594422	0.151962	0.469098
C188	C	1.094422	0.651962	0.969098
C189	C	0.633370	0.113040	0.438134
C190	C	1.133370	0.613040	0.938134
C191	C	0.633374	0.113054	0.376229
C192	C	1.133374	0.613054	0.876229
N193	N	0.672316	0.074131	0.345262
N194	N	1.172316	0.574131	0.845262
C195	C	0.711263	0.035207	0.376214
C196	C	1.211263	0.535207	0.876214
C197	C	0.633396	0.113035	0.753928
C198	C	1.133396	0.613035	1.253928
C199	C	0.633403	0.113037	0.815846
C200	C	1.133403	0.613037	1.315846
C201	C	0.711296	0.035187	0.815831
C202	C	1.211296	0.535187	1.315831
C203	C	0.711291	0.035188	0.753913
C204	C	1.211291	0.535188	1.253913
C205	C	0.672338	0.074112	0.722962
C206	C	1.172338	0.574112	1.222962
C207	C	0.711255	0.035220	0.246187
C208	C	1.211255	0.535220	0.746187
C209	C	0.711251	0.035230	0.184266
C210	C	1.211251	0.535230	0.684266
C211	C	0.633357	0.113078	0.184286
C212	C	1.133357	0.613078	0.684286
C213	C	0.633363	0.113071	0.246202
C214	C	1.133363	0.613071	0.746202
C215	C	0.672314	0.074137	0.277151
C216	C	1.172314	0.574137	0.777151
O217	O	0.600281	0.146152	0.344163
O218	O	1.100281	0.646152	0.844163
O219	O	0.744376	0.002101	0.344182
O220	O	1.244376	0.502101	0.844182
H221	H	-0.059867	0.165717	0.000055
H222	H	0.440133	0.665717	0.500055
C223	C	0.556363	0.190016	0.239994
C224	C	1.056363	0.690016	0.739994
C225	C	0.590549	0.155851	0.280241
C226	C	1.090549	0.655851	0.780241
H227	H	0.529925	0.216420	0.261006
H228	H	1.029925	0.716420	0.761006
H229	H	0.579949	0.210390	0.215850
H230	H	1.079949	0.710390	0.715850
H231	H	0.536022	0.166406	0.215836
H232	H	1.036022	0.666406	0.715836
H233	H	0.610893	0.179461	0.304396
H234	H	1.110893	0.679461	0.804396
H235	H	0.566959	0.135476	0.304394
H236	H	1.066959	0.635476	0.804394
C237	C	0.724045	-0.042419	0.684328
C238	C	1.224045	0.457581	1.184328
C239	C	0.754081	-0.007634	0.719900
C240	C	1.254081	0.492366	1.219900
H241	H	0.750458	-0.068865	0.663336
H242	H	1.250458	0.431135	1.163336
H243	H	0.700443	-0.062745	0.708503
H244	H	1.200443	0.437255	1.208503
H245	H	0.700870	-0.019236	0.657013
H246	H	1.200870	0.480764	1.157013
H247	H	0.777253	-0.030817	0.747218
H248	H	1.277253	0.469183	1.247218
H249	H	0.777693	0.012694	0.695723
H250	H	1.277693	0.512694	1.195723
H251	H	0.486602	0.172255	0.000024
H252	H	0.986602	0.672255	0.500024
H253	H	0.781929	-0.035414	0.443878
H254	H	1.281929	0.464586	0.943878
C255	C	0.291194	-0.088802	-0.050465
C256	C	0.791194	0.411198	0.449535
C257	C	0.256607	-0.086031	0.000104
C258	C	0.756607	0.413969	0.500104
H259	H	0.316150	-0.123795	-0.050457
H260	H	0.816150	0.376205	0.449543
H261	H	0.267728	-0.086928	-0.084760
H262	H	0.767728	0.413072	0.415240
H263	H	0.313168	-0.057564	-0.050466
H264	H	0.813168	0.442436	0.449534
H265	H	0.234630	-0.117266	0.000103
H266	H	0.734630	0.382734	0.500103
H267	H	0.280076	-0.087910	0.034408
H268	H	0.780076	0.412090	0.534408
C269	C	0.333785	0.188445	0.050603
C270	C	0.833785	0.688445	0.550603
C271	C	0.368372	0.185664	0.000035
C272	C	0.868372	0.685664	0.500035
H273	H	0.308840	0.223445	0.050596
H274	H	0.808840	0.723445	0.550596
H275	H	0.311805	0.157219	0.050607
H276	H	0.811805	0.657219	0.550607
H277	H	0.357257	0.186567	0.084902
H278	H	0.857257	0.686567	0.584902
H279	H	0.344901	0.187538	-0.034265
H280	H	0.844901	0.687538	0.465735
H281	H	0.390354	0.216899	0.000025
H282	H	0.890354	0.716899	0.500025
H283	H	0.743008	0.003492	0.841044
H284	H	1.243008	0.503492	1.341044
H285	H	0.582043	-0.085909	0.000065
H286	H	1.082043	0.414091	0.500065
C287	C	-0.235021	0.167445	0.000065
C288	C	0.264979	0.667445	0.500065
C289	C	-0.178110	0.179116	0.000059
C290	C	0.321890	0.679116	0.500059
H291	H	-0.259980	0.202436	0.000066
H292	H	0.240020	0.702436	0.500066
H293	H	-0.241842	0.145995	-0.034234
H294	H	0.258158	0.645995	0.465766
H295	H	-0.241840	0.145996	0.034373
H296	H	0.258160	0.645996	0.534373
H297	H	-0.171290	0.200562	-0.034252
H298	H	0.328710	0.700562	0.465748
H299	H	-0.171286	0.200576	0.034361
H300	H	0.328714	0.700576	0.534361
C301	C	0.788244	-0.041726	0.190481
C302	C	1.288244	0.458274	0.690481
C303	C	0.754063	-0.007558	0.150232
C304	C	1.254063	0.492442	0.650232
H305	H	0.814670	-0.068143	0.169469
H306	H	1.314670	0.431857	0.669469
H307	H	0.808594	-0.018124	0.214629
H308	H	1.308594	0.481876	0.714629
H309	H	0.764649	-0.062090	0.214633
H310	H	1.264649	0.437910	0.714633
H311	H	0.777659	0.012809	0.126082
H312	H	1.277659	0.512809	0.626082
H313	H	0.733713	-0.031163	0.126073
H314	H	1.233713	0.468837	0.626073
H315	H	0.580748	-0.193677	0.000069
H316	H	1.080748	0.306323	0.500069
C317	C	0.620549	0.190646	0.114645
C318	C	1.120549	0.690646	0.614645
C319	C	0.590546	0.155859	0.150253
C320	C	1.090546	0.655859	0.650253
H321	H	0.594116	0.217052	0.093631
H322	H	1.094116	0.717052	0.593631
H323	H	0.644127	0.211018	0.138797
H324	H	1.144127	0.711018	0.638797
H325	H	0.643746	0.167458	0.087350
H326	H	1.143746	0.667458	0.587350
H327	H	0.567352	0.179047	0.177551
H328	H	1.067352	0.679047	0.677551
H329	H	0.566958	0.135486	0.126099
H330	H	1.066958	0.635486	0.626099
C331	C	0.528057	-0.727938	-0.050545
C332	C	1.028057	-0.227938	0.449455
C333	C	0.559312	-0.746586	0.000027
C334	C	1.059312	-0.246586	0.500027
H335	H	0.492579	-0.743290	-0.050552
H336	H	0.992579	-0.243290	0.449448
H337	H	0.521107	-0.687304	-0.050537
H338	H	1.021107	-0.187304	0.449463
H339	H	0.549284	-0.740584	-0.084842
H340	H	1.049284	-0.240584	0.415158
H341	H	0.538085	-0.733936	0.034324
H342	H	1.038085	-0.233936	0.534324
H343	H	0.566260	-0.787228	0.000025
H344	H	1.066260	-0.287228	0.500025
C345	C	0.724072	-0.042370	0.315802
C346	C	1.224072	0.457630	0.815802
C347	C	0.754072	-0.007574	0.280201
C348	C	1.254072	0.492426	0.780201
H349	H	0.750507	-0.068789	0.336798
H350	H	1.250507	0.431211	0.836798
H351	H	0.700887	-0.019194	0.343108
H352	H	1.200887	0.480806	0.843108
H353	H	0.700483	-0.062732	0.291642
H354	H	1.200483	0.437268	0.791642
H355	H	0.777657	0.012791	0.304362
H356	H	1.277657	0.512791	0.804362
H357	H	0.777267	-0.030752	0.252893
H358	H	1.277267	0.469248	0.752893
C359	C	0.556410	0.189987	0.809626
C360	C	1.056410	0.689987	1.309626
C361	C	0.590593	0.155825	0.849877
C362	C	1.090593	0.655825	1.349877
H363	H	0.529976	0.216398	0.830635
H364	H	1.029976	0.716398	1.330635
H365	H	0.579999	0.210353	0.785477
H366	H	1.079999	0.710353	1.285477
H367	H	0.536064	0.166376	0.785474
H368	H	1.036064	0.666376	1.285474
H369	H	0.610942	0.179435	0.874026
H370	H	1.110942	0.679435	1.374026
H371	H	0.567001	0.135457	0.874036
H372	H	1.067001	0.635457	1.374036
C373	C	-0.182121	-0.042454	0.050648
C374	C	0.317879	0.457546	0.550648
C375	C	-0.148398	-0.038877	0.000080
C376	C	0.351602	0.461123	0.500080
H377	H	-0.197472	-0.077931	0.050650
H378	H	0.302528	0.422069	0.550650
H379	H	-0.159243	-0.040016	0.084944
H380	H	0.340757	0.459984	0.584944
H381	H	-0.212524	-0.011846	0.050640
H382	H	0.287476	0.488154	0.550640
H383	H	-0.117992	-0.069483	0.000090
H384	H	0.382008	0.430517	0.500090
H385	H	-0.171277	-0.041321	-0.034225
H386	H	0.328723	0.458679	0.465775
C387	C	0.167907	0.280907	0.000042
C388	C	0.667907	0.780907	0.500042
C389	C	0.212737	0.235804	0.000042
C390	C	0.712737	0.735804	0.500042
H391	H	0.183254	0.316387	0.000046
H392	H	0.683254	0.816387	0.500046
H393	H	0.145039	0.278465	-0.034260
H394	H	0.645039	0.778465	0.465740
H395	H	0.145031	0.278461	0.034347
H396	H	0.645031	0.778461	0.534347
H397	H	0.235611	0.238247	-0.034265
H398	H	0.735611	0.738247	0.465735
H399	H	0.235615	0.238247	0.034348
H400	H	0.735615	0.738247	0.534348
C401	C	0.523816	-0.284667	0.000015
C402	C	1.023816	0.215333	0.500015
C403	C	0.512157	-0.341583	0.000011
C404	C	1.012157	0.158417	0.500011
H405	H	0.488820	-0.259716	0.000006
H406	H	0.988820	0.240284	0.500006
H407	H	0.545253	-0.277842	0.034322
H408	H	1.045253	0.222158	0.534322
H409	H	0.545273	-0.277843	-0.034286
H410	H	1.045273	0.222157	0.465714
H411	H	0.490703	-0.348409	0.034315
H412	H	0.990703	0.151591	0.534315
H413	H	0.490711	-0.348411	-0.034299
H414	H	0.990711	0.151589	0.465701
C415	C	0.442885	-0.077445	0.000064
C416	C	0.942885	0.422555	0.500064
C417	C	0.398061	-0.032337	0.000062
C418	C	0.898061	0.467663	0.500062
H419	H	0.427533	-0.112922	0.000075
H420	H	0.927533	0.387078	0.500075
H421	H	0.465755	-0.075012	-0.034241
H422	H	0.965755	0.424988	0.465759
H423	H	0.465762	-0.074999	0.034366
H424	H	0.965762	0.425001	0.534366
H425	H	0.375187	-0.034781	-0.034242
H426	H	0.875187	0.465219	0.465758
H427	H	0.375183	-0.034772	0.034371
H428	H	0.875183	0.465228	0.534371
H429	H	0.817806	-0.499645	0.000061
H430	H	1.317806	0.000355	0.500061
H431	H	0.763906	-0.658056	0.000054
H432	H	1.263906	-0.158056	0.500054
H433	H	0.819097	-0.391900	0.000072
H434	H	1.319097	0.108100	0.500072
H435	H	0.769159	-0.219337	0.000071
H436	H	1.269159	0.280663	0.500071
C437	C	0.053485	0.237066	-0.050533
C438	C	0.553485	0.737066	0.449467
C439	C	0.088064	0.234311	0.000038
C440	C	0.588064	0.734311	0.500038
H441	H	0.028535	0.272063	-0.050541
H442	H	0.528535	0.772063	0.449459
H443	H	0.076957	0.235174	-0.084827
H444	H	0.576957	0.735174	0.415173
H445	H	0.031504	0.205834	-0.050520
H446	H	0.531504	0.705834	0.449480
H447	H	0.110047	0.265541	0.000022
H448	H	0.610047	0.765541	0.500022
H449	H	0.064589	0.236209	0.034341
H450	H	0.564589	0.736209	0.534341
C451	C	-0.056127	-0.083416	0.000081
C452	C	0.443873	0.416584	0.500081
C453	C	-0.023717	-0.037387	0.000080
C454	C	0.476283	0.462613	0.500080
H455	H	-0.031175	-0.118412	0.000078
H456	H	0.468825	0.381588	0.500078
H457	H	-0.079588	-0.081530	0.034384
H458	H	0.420412	0.418470	0.534384
H459	H	-0.079591	-0.081527	-0.034223
H460	H	0.420409	0.418473	0.465777
H461	H	-0.000256	-0.039273	0.034387
H462	H	0.499744	0.460727	0.534387
H463	H	-0.000246	-0.039274	-0.034226
H464	H	0.499754	0.460726	0.465774
H465	H	0.512280	-0.016146	0.000054
H466	H	1.012280	0.483854	0.500054
C467	C	0.816609	-0.123774	-0.050478
C468	C	1.316609	0.376226	0.449522
C469	C	0.785338	-0.105136	0.000089
C470	C	1.285338	0.394864	0.500089
H471	H	0.852085	-0.108420	-0.050475
H472	H	1.352085	0.391580	0.449525
H473	H	0.823562	-0.164408	-0.050476
H474	H	1.323562	0.335592	0.449524
H475	H	0.795391	-0.111125	-0.084779
H476	H	1.295391	0.388875	0.415221
H477	H	0.806555	-0.117789	0.034389
H478	H	1.306555	0.382211	0.534389
H479	H	0.778388	-0.064493	0.000092
H480	H	1.278388	0.435507	0.500092
H481	H	0.601677	0.144736	0.728731
H482	H	1.101677	0.644736	1.228731
C483	C	0.827214	-0.080665	0.524751
C484	C	1.327214	0.419335	1.024751
C485	C	0.793037	-0.046511	0.565016
C486	C	1.293037	0.453489	1.065016
H487	H	0.853655	-0.107077	0.545748
H488	H	1.353655	0.392923	1.045748
H489	H	0.803621	-0.101030	0.500608
H490	H	1.303621	0.398970	1.000608
H491	H	0.847551	-0.057049	0.500594
H492	H	1.347551	0.442951	1.000594
H493	H	0.772696	-0.070127	0.589170
H494	H	1.272696	0.429873	1.089170
H495	H	0.816632	-0.026144	0.589169
H496	H	1.316632	0.473856	1.089169
H497	H	0.138375	-0.072634	0.000103
H498	H	0.638375	0.427366	0.500103
H499	H	0.562709	0.183658	0.556223
H500	H	1.062709	0.683658	1.056223
H501	H	0.562700	0.183658	0.443901
H502	H	1.062700	0.683658	0.943901
H503	H	0.525555	-0.459814	0.000009
H504	H	1.025555	0.040186	0.500009
C505	C	0.823346	-0.743902	0.000054
C506	C	1.323346	-0.243902	0.500054
C507	C	0.777306	-0.776298	0.000047
C508	C	1.277306	-0.276298	0.500047
H509	H	0.858336	-0.768863	0.000059
H510	H	1.358336	-0.268863	0.500059
H511	H	0.821471	-0.720440	-0.034246
H512	H	1.321471	-0.220440	0.465754
H513	H	0.821459	-0.720441	0.034362
H514	H	1.321459	-0.220441	0.534362
H515	H	0.779190	-0.799757	-0.034263
H516	H	1.279190	-0.299757	0.465737
H517	H	0.779182	-0.799770	0.034350
H518	H	1.279182	-0.299770	0.534350
C519	C	0.558039	-0.587321	-0.050540
C520	C	1.058039	-0.087321	0.449460
C521	C	0.560802	-0.621907	0.000028
C522	C	1.060802	-0.121907	0.500028
H523	H	0.523040	-0.562375	-0.050543
H524	H	1.023040	-0.062375	0.449457
H525	H	0.589267	-0.565342	-0.050533
H526	H	1.089267	-0.065342	0.449467
H527	H	0.559928	-0.610794	-0.084840
H528	H	1.059928	-0.110794	0.415160
H529	H	0.558917	-0.598434	0.034328
H530	H	1.058917	-0.098434	0.534328
H531	H	0.529566	-0.643888	0.000025
H532	H	1.029566	-0.143888	0.500025
