data_functionalizedCrystal
_audit_creation_method	'MofGen! by Chris Wilmer'
_symmetry_space_group_name_H-M	'P1'
_symmetry_Int_Tables_number	1
_symmetry_cell_setting	triclinic
loop_
_symmetry_equiv_pos_as_xyz
  x,y,z
_cell_length_a	12.759401
_cell_length_b	18.215405
_cell_length_c	12.759393
_cell_angle_alpha	89.963224
_cell_angle_beta	89.978896
_cell_angle_gamma	90.023507
loop_
_atom_site_label
_atom_site_type_symbol
_atom_site_fract_x
_atom_site_fract_y
_atom_site_fract_z
Zn1	Zn	-1.606183	0.292974	0.594005
Zn2	Zn	-1.606046	0.416058	0.418306
Zn3	Zn	-1.430485	0.293007	0.418337
Zn4	Zn	-1.430443	0.416000	0.593941
O5	O	-1.518289	0.354510	0.506147
O6	O	-1.753186	0.309311	0.570712
O7	O	-1.582717	0.399774	0.271289
O8	O	-1.453866	0.190018	0.441679
O9	O	-1.753085	0.399741	0.441627
O10	O	-1.582951	0.189994	0.570742
O11	O	-1.453733	0.309369	0.271312
O12	O	-1.283458	0.309312	0.441617
O13	O	-1.453795	0.399642	0.740970
O14	O	-1.283427	0.399674	0.570632
O15	O	-1.582911	0.309255	0.741017
O16	O	-1.582676	0.519035	0.441565
O17	O	-1.453662	0.518992	0.570603
C18	C	-1.245322	0.354491	0.506121
C19	C	-1.128545	0.354501	0.506135
C20	C	-0.963907	0.401529	0.438845
C21	C	-1.073631	0.401515	0.438830
C22	C	-1.073729	0.307492	0.573453
C23	C	-0.964007	0.307502	0.573462
C24	C	-0.908999	0.448551	0.371543
C25	C	-0.963807	0.495560	0.304223
C26	C	-1.073531	0.495546	0.304208
C27	C	-1.128447	0.448524	0.371512
C28	C	-0.792322	0.354526	0.506167
C29	C	-0.909099	0.354525	0.506160
C30	C	-1.518178	0.545716	0.506097
C31	C	-1.518227	0.627515	0.506110
C32	C	-1.518364	0.354438	0.780181
C33	C	-1.518395	0.354408	0.896957
C34	C	-1.518429	0.162557	0.506221
C35	C	-1.518489	0.080758	0.506252
C36	C	-1.585562	0.815707	0.439044
C37	C	-1.585609	0.892565	0.439069
C38	C	-1.451150	0.892561	0.573326
C39	C	-1.451109	0.815704	0.573305
C40	C	-1.518314	0.777278	0.506158
C41	C	-1.518402	0.930994	0.506204
C42	C	-1.518452	1.014328	0.506232
C43	C	-1.518265	0.693940	0.506131
C44	C	-1.518275	0.354528	0.233180
C45	C	-1.518447	0.354351	0.116404
C46	C	-1.451278	0.307298	1.061555
C47	C	-1.451254	0.307324	0.951831
C48	C	-1.585572	0.401463	0.951813
C49	C	-1.585600	0.401432	1.061535
C50	C	-1.384124	0.260217	1.116424
C51	C	-1.316949	0.213161	1.061575
C52	C	-1.316925	0.213187	0.951851
C53	C	-1.384077	0.260270	0.896975
H54	H	-1.118450	0.269209	0.628249
H55	H	-1.640372	0.923850	0.384420
O56	O	-1.385897	0.930002	0.638443
C57	C	-1.400368	1.006079	0.624088
H58	H	-1.434831	1.016604	0.543044
H59	H	-1.456289	1.027825	0.686466
C60	C	-1.251750	1.032663	0.733160
C61	C	-1.294071	1.045590	0.633617
H62	H	-1.186183	1.057036	0.739042
H63	H	-1.242003	0.981408	0.742835
H64	H	-1.298361	1.050784	0.785130
H65	H	-1.247466	1.027460	0.581649
H66	H	-1.303808	1.096843	0.623933
O67	O	-0.910305	0.541209	0.238945
C68	C	-0.801708	0.531131	0.253372
H69	H	-0.786770	0.507096	0.334516
H70	H	-0.770553	0.491894	0.191159
C71	C	-0.763693	0.635112	0.143898
C72	C	-0.745346	0.605598	0.243564
H73	H	-0.728925	0.681045	0.137843
H74	H	-0.836857	0.641900	0.134174
H75	H	-0.737731	0.602407	0.092065
H76	H	-0.771320	0.638298	0.295394
H77	H	-0.672185	0.598816	0.253296
H78	H	-1.384059	0.260282	0.807630
H79	H	-1.384135	0.260192	1.205766
H80	H	-1.396347	0.784413	0.627962
O81	O	-1.126611	0.541274	0.238782
C82	C	-1.054615	0.582762	0.179365
H83	H	-0.976421	0.585352	0.222402
H84	H	-1.042916	0.555751	0.099642
C85	C	-1.193438	0.657891	0.111161
C86	C	-1.097402	0.661077	0.164025
H87	H	-1.219831	0.706198	0.101694
H88	H	-1.241944	0.629938	0.151188
H89	H	-1.183676	0.635378	0.044731
H90	H	-1.107167	0.683580	0.230458
H91	H	-1.048898	0.689035	0.124009
O92	O	-1.251756	0.167497	1.115039
C93	C	-1.266194	0.177549	1.223644
H94	H	-1.300568	0.234341	1.238612
H95	H	-1.322178	0.133892	1.254810
C96	C	-1.117690	0.101034	1.261578
C97	C	-1.159900	0.170790	1.279962
H98	H	-1.052124	0.096861	1.296319
H99	H	-1.107964	0.094259	1.188409
H100	H	-1.164353	0.064661	1.287549
H101	H	-1.113243	0.207161	1.253979
H102	H	-1.169615	0.177571	1.353129
O103	O	-1.251579	0.167454	0.898732
C104	C	-1.192339	0.125882	0.970693
H105	H	-1.188701	0.156006	1.048894
H106	H	-1.230851	0.069988	0.982391
C107	C	-1.084986	0.078283	0.831814
C108	C	-1.080510	0.115285	0.927859
H109	H	-1.016006	0.071743	0.805392
H110	H	-1.124899	0.106288	0.783332
H111	H	-1.117084	0.031708	0.841575
H112	H	-1.048424	0.161862	0.918095
H113	H	-1.040588	0.087287	0.976340
O114	O	-0.910922	0.261823	0.638955
C115	C	-0.982911	0.220311	0.698346
H116	H	-1.061117	0.250447	0.701900
H117	H	-0.994581	0.164384	0.660019
C118	C	-0.844085	0.172790	0.805828
C119	C	-0.940136	0.209807	0.810201
H120	H	-0.817699	0.166307	0.874824
H121	H	-0.795584	0.200755	0.765813
H122	H	-0.853824	0.126188	0.773884
H123	H	-0.930394	0.256411	0.842132
H124	H	-0.988635	0.181849	0.850223
H125	H	-1.640243	0.439795	0.907125
H126	H	-1.640297	0.439746	1.106194
H127	H	-1.217792	0.448512	0.371487
O128	O	-1.650946	0.778494	0.373791
C129	C	-1.710292	0.828897	0.314542
H130	H	-1.713934	0.883655	0.357597
H131	H	-1.671869	0.837141	0.234716
C132	C	-1.817629	0.731594	0.246616
C133	C	-1.822110	0.798847	0.299500
H134	H	-1.886602	0.713057	0.237332
H135	H	-1.777644	0.697635	0.286530
H136	H	-1.785605	0.738472	0.180099
H137	H	-1.854121	0.791966	0.366020
H138	H	-1.862102	0.832804	0.259597
H139	H	-0.819656	0.448569	0.371550
