data_functionalizedCrystal
_audit_creation_method	'MofGen! by Chris Wilmer'
_symmetry_space_group_name_H-M	'P1'
_symmetry_Int_Tables_number	1
_symmetry_cell_setting	triclinic
loop_
_symmetry_equiv_pos_as_xyz
  x,y,z
_cell_length_a	18.050591
_cell_length_b	21.295417
_cell_length_c	18.050582
_cell_angle_alpha	89.974292
_cell_angle_beta	89.979078
_cell_angle_gamma	90.025707
loop_
_atom_site_label
_atom_site_type_symbol
_atom_site_fract_x
_atom_site_fract_y
_atom_site_fract_z
Zn1	Zn	1.135285	-0.250716	-0.420015
Zn2	Zn	1.635285	0.249284	0.079985
Zn3	Zn	1.135192	-0.355977	-0.295818
Zn4	Zn	1.635192	0.144023	0.204182
Zn5	Zn	1.011104	-0.250719	-0.295826
Zn6	Zn	1.511104	0.249281	0.204174
Zn7	Zn	1.011049	-0.355944	-0.419954
Zn8	Zn	1.511049	0.144056	0.080046
O9	O	1.073158	-0.303339	-0.357903
O10	O	1.573158	0.196661	0.142097
O11	O	1.239197	-0.264692	-0.403563
O12	O	1.739197	0.235308	0.096437
O13	O	1.118716	-0.342030	-0.191895
O14	O	1.618716	0.157970	0.308105
O15	O	1.027639	-0.162629	-0.312329
O16	O	1.527639	0.337371	0.187671
O17	O	1.239129	-0.342027	-0.312316
O18	O	1.739129	0.157973	0.187684
O19	O	1.118874	-0.162627	-0.403570
O20	O	1.618874	0.337373	0.096430
O21	O	1.027549	-0.264697	-0.191901
O22	O	1.527549	0.235303	0.308099
O23	O	0.907172	-0.264664	-0.312270
O24	O	1.407172	0.235336	0.187730
O25	O	1.027545	-0.341970	-0.523887
O26	O	1.527545	0.158030	-0.023887
O27	O	0.907132	-0.341973	-0.403466
O28	O	1.407132	0.158027	0.096534
O29	O	1.118820	-0.264660	-0.523932
O30	O	1.618820	0.235340	-0.023932
O31	O	1.118663	-0.444062	-0.312256
O32	O	1.618663	0.055938	0.187744
O33	O	1.027455	-0.444038	-0.403458
O34	O	1.527455	0.055962	0.096542
C35	C	0.880205	-0.303316	-0.357862
C36	C	1.380205	0.196684	0.142138
C37	C	0.797660	-0.303321	-0.357862
C38	C	1.297660	0.196679	0.142138
C39	C	0.598210	-0.261232	-0.308384
C40	C	1.098210	0.238768	0.191616
C41	C	0.548788	-0.318646	-0.290105
C42	C	1.048788	0.181354	0.209895
C43	C	0.646529	-0.303340	-0.357896
C44	C	1.146529	0.196660	0.142104
C45	C	0.548869	-0.245945	-0.376174
C46	C	1.048869	0.254055	0.123826
C47	C	0.500544	-0.303353	-0.357927
C48	C	1.000544	0.196647	0.142073
C49	C	0.598195	-0.360785	-0.339581
C50	C	1.098195	0.139215	0.160419
C51	C	0.598280	-0.288045	-0.425682
C52	C	1.098280	0.211955	0.074318
C53	C	0.548881	-0.345499	-0.407428
C54	C	1.048881	0.154501	0.092572
C55	C	0.730628	-0.303331	-0.357876
C56	C	1.230628	0.196669	0.142124
C57	C	0.416448	-0.303368	-0.357947
C58	C	0.916448	0.196632	0.142053
C59	C	1.073063	-0.466891	-0.357866
C60	C	1.573063	0.033109	0.142134
C61	C	1.073090	-0.536859	-0.357875
C62	C	1.573090	-0.036859	0.142125
C63	C	1.120569	-0.569667	-0.405418
C64	C	1.620569	-0.069667	0.094582
C65	C	1.120595	-0.635410	-0.405436
C66	C	1.620595	-0.135410	0.094564
C67	C	1.073151	-0.668341	-0.357898
C68	C	1.573151	-0.168341	0.142102
C69	C	1.025662	-0.635525	-0.310352
C70	C	1.525662	-0.135525	0.189648
C71	C	1.025632	-0.569784	-0.310340
C72	C	1.525632	-0.069784	0.189660
N73	N	1.067546	-0.771598	-0.292903
N74	N	1.567546	-0.271598	0.207097
N75	N	1.067579	-0.834050	-0.292916
N76	N	1.567579	-0.334050	0.207084
C77	C	1.073237	-0.866416	-0.357932
C78	C	1.573237	-0.366416	0.142068
N79	N	1.078876	-0.833972	-0.422935
N80	N	1.578876	-0.333972	0.077065
N81	N	1.078846	-0.771515	-0.422920
N82	N	1.578846	-0.271515	0.077080
C83	C	1.073178	-0.739627	-0.357906
C84	C	1.573178	-0.239627	0.142094
C85	C	1.120747	-0.970510	-0.405499
C86	C	1.620747	-0.470510	0.094501
C87	C	1.120768	-1.036254	-0.405518
C88	C	1.620768	-0.536254	0.094482
C89	C	1.025839	-1.036368	-0.310427
C90	C	1.525839	-0.536368	0.189573
C91	C	1.025814	-0.970625	-0.310414
C92	C	1.525814	-0.470625	0.189586
C93	C	1.073272	-0.937700	-0.357949
C94	C	1.573272	-0.437700	0.142051
C95	C	1.266863	-0.303363	-0.357945
C96	C	1.766863	0.196637	0.142055
C97	C	1.349409	-0.303373	-0.357963
C98	C	1.849409	0.196627	0.142037
C99	C	1.073187	-0.303311	-0.551609
C100	C	1.573187	0.196689	-0.051609
C101	C	1.073199	-0.303299	-0.634155
C102	C	1.573199	0.196701	-0.134155
C103	C	1.073273	-0.139149	-0.357957
C104	C	1.573273	0.360851	0.142043
C105	C	1.073322	-0.069181	-0.357980
C106	C	1.573322	0.430819	0.142020
C107	C	1.023601	-0.345283	-0.833581
C108	C	1.523601	0.154717	-0.333581
C109	C	1.091356	-0.360675	-0.882979
C110	C	1.591356	0.139325	-0.382979
C111	C	1.073236	-0.303251	-0.785285
C112	C	1.573236	0.196749	-0.285285
C113	C	1.005518	-0.287842	-0.882970
C114	C	1.505518	0.212158	-0.382970
C115	C	1.073265	-0.303206	-0.931271
C116	C	1.573265	0.196794	-0.431271
C117	C	1.141026	-0.318673	-0.833596
C118	C	1.641026	0.181327	-0.333596
C119	C	1.055142	-0.245814	-0.833582
C120	C	1.555142	0.254186	-0.333582
C121	C	1.122944	-0.261183	-0.882958
C122	C	1.622944	0.238817	-0.382958
C123	C	1.073218	-0.303279	-0.701187
C124	C	1.573218	0.196721	-0.201187
C125	C	1.073291	-0.303178	-1.015367
C126	C	1.573291	0.196822	-0.515367
C127	C	1.073171	-0.303322	-0.164951
C128	C	1.573171	0.196678	0.335049
C129	C	1.073303	-0.303156	-0.082406
C130	C	1.573303	0.196844	0.417594
H131	H	0.527163	-0.197408	-0.391595
H132	H	1.027163	0.302592	0.108405
H133	H	1.106677	-0.409229	-0.904676
H134	H	1.606677	0.090771	-0.404676
H135	H	0.620036	-0.275080	-0.482976
H136	H	1.120036	0.224920	0.017024
O137	O	1.216922	-0.335987	-0.804992
O138	O	1.716922	0.164013	-0.304992
H139	H	1.254647	-0.344547	-0.852494
H140	H	1.754647	0.155453	-0.352494
H141	H	1.159210	-0.542862	-0.444125
H142	H	1.659210	-0.042862	0.055875
O143	O	0.968064	-0.392429	-0.804847
O144	O	1.468064	0.107571	-0.304847
H145	H	0.940799	-0.416195	-0.852283
H146	H	1.440799	0.083805	-0.352283
H147	H	0.527359	-0.381156	-0.449311
H148	H	1.027359	0.118844	0.050689
O149	O	0.974661	-1.071877	-0.259155
O150	O	1.474661	-0.571877	0.240845
H151	H	0.987428	-1.059276	-0.200880
H152	H	1.487428	-0.559276	0.299120
H153	H	1.164979	-0.225619	-0.904500
H154	H	1.664979	0.274381	-0.404500
O155	O	1.171812	-0.670809	-0.456710
O156	O	1.671812	-0.170809	0.043290
H157	H	1.204811	-0.636869	-0.489758
H158	H	1.704811	-0.136869	0.010242
O159	O	1.034818	-0.181526	-0.804791
O160	O	1.534818	0.318474	-0.304791
H161	H	0.978539	-0.168862	-0.824521
H162	H	1.478539	0.331138	-0.324521
H163	H	0.619772	-0.409343	-0.324071
H164	H	1.119772	0.090657	0.175929
H165	H	0.948238	-0.274828	-0.904659
H166	H	1.448238	0.225172	-0.404659
O167	O	0.519991	-0.335794	-0.214189
O168	O	1.019991	0.164206	0.285811
H169	H	0.540607	-0.383103	-0.198679
H170	H	1.040607	0.116897	0.301321
H171	H	0.619868	-0.225660	-0.266468
H172	H	1.119868	0.274340	0.233532
H173	H	0.987031	-0.662342	-0.271647
H174	H	1.487031	-0.162342	0.228353
H175	H	0.986968	-0.543070	-0.271624
H176	H	1.486968	-0.043070	0.228376
O177	O	1.171927	-0.934991	-0.456768
O178	O	1.671927	-0.434991	0.043232
H179	H	1.159152	-0.947580	-0.515045
H180	H	1.659152	-0.447580	-0.015045
O181	O	1.171979	-1.071645	-0.456800
O182	O	1.671979	-0.571645	0.043200
H183	H	1.204976	-1.037703	-0.489845
H184	H	1.704976	-0.537703	0.010155
O185	O	0.974619	-0.935232	-0.259121
O186	O	1.474619	-0.435232	0.240879
H187	H	0.941637	-0.969174	-0.226060
H188	H	1.441637	-0.469174	0.273940
