data_functionalizedCrystal
_audit_creation_method	'MofGen! by Chris Wilmer'
_symmetry_space_group_name_H-M	'P1'
_symmetry_Int_Tables_number	1
_symmetry_cell_setting	triclinic
loop_
_symmetry_equiv_pos_as_xyz
  x,y,z
_cell_length_a	16.959453
_cell_length_b	16.959455
_cell_length_c	16.959447
_cell_angle_alpha	89.985678
_cell_angle_beta	90.031571
_cell_angle_gamma	89.980327
loop_
_atom_site_label
_atom_site_type_symbol
_atom_site_fract_x
_atom_site_fract_y
_atom_site_fract_z
Zn1	Zn	-0.314730	-1.208369	0.446902
Zn2	Zn	0.185270	-0.708369	0.946902
Zn3	Zn	-0.446923	-1.208286	0.314720
Zn4	Zn	0.053077	-0.708286	0.814720
Zn5	Zn	-0.314755	-1.076198	0.314739
Zn6	Zn	0.185245	-0.576198	0.814739
Zn7	Zn	-0.446864	-1.076156	0.446859
Zn8	Zn	0.053136	-0.576156	0.946859
O9	O	-0.380818	-1.142252	0.380805
O10	O	0.119182	-0.642252	0.880805
O11	O	-0.332280	-1.318969	0.429378
O12	O	0.167720	-0.818969	0.929378
O13	O	-0.429426	-1.190746	0.204112
O14	O	0.070574	-0.690746	0.704112
O15	O	-0.204141	-1.093783	0.332297
O16	O	0.295859	-0.593783	0.832297
O17	O	-0.429402	-1.318908	0.332265
O18	O	0.070598	-0.818908	0.832265
O19	O	-0.204123	-1.190889	0.429396
O20	O	0.295877	-0.690889	0.929396
O21	O	-0.332323	-1.093702	0.204126
O22	O	0.167677	-0.593702	0.704126
O23	O	-0.332265	-0.965581	0.332255
O24	O	0.167735	-0.465581	0.832255
O25	O	-0.429301	-1.093712	0.557476
O26	O	0.070699	-0.593712	1.057476
O27	O	-0.429325	-0.965551	0.429323
O28	O	0.070675	-0.465551	0.929323
O29	O	-0.332223	-1.190849	0.557507
O30	O	0.167777	-0.690849	1.057507
O31	O	-0.557526	-1.190706	0.332223
O32	O	-0.057526	-0.690706	0.832223
O33	O	-0.557482	-1.093631	0.429305
O34	O	-0.057482	-0.593631	0.929305
C35	C	-0.380792	-0.936886	0.380787
C36	C	0.119208	-0.436886	0.880787
C37	C	-0.380800	-0.849029	0.380798
C38	C	0.119200	-0.349029	0.880798
C39	C	-0.586184	-1.142176	0.380774
C40	C	-0.086184	-0.642176	0.880774
C41	C	-0.674041	-1.142216	0.380788
C42	C	-0.174041	-0.642216	0.880788
C43	C	-0.715393	-1.091719	0.330197
C44	C	-0.215393	-0.591719	0.830197
C45	C	-0.715243	-1.192747	0.431396
C46	C	-0.215243	-0.692747	0.931396
C47	C	-0.797789	-1.192784	0.431413
C48	C	-0.297789	-0.692784	0.931413
C49	C	-0.839140	-1.142287	0.380822
C50	C	-0.339140	-0.642287	0.880822
C51	C	-0.797946	-1.091753	0.330214
C52	C	-0.297946	-0.591753	0.830214
C53	C	-0.838989	-1.243312	0.482026
C54	C	-0.338989	-0.743312	0.982026
C55	C	-0.921540	-1.243350	0.482046
C56	C	-0.421540	-0.743350	0.982046
C57	C	-0.962893	-1.192856	0.431450
C58	C	-0.462893	-0.692856	0.931450
C59	C	-0.921694	-1.142321	0.380839
C60	C	-0.421694	-0.642321	0.880839
C61	C	-0.963045	-1.091823	0.330248
C62	C	-0.463045	-0.591823	0.830248
C63	C	-0.921848	-1.041291	0.279633
C64	C	-0.421848	-0.541291	0.779633
C65	C	-0.839299	-1.041259	0.279618
C66	C	-0.339299	-0.541259	0.779618
C67	C	-1.045441	-1.192888	0.431465
C68	C	-0.545441	-0.692888	0.931465
C69	C	-1.045599	-1.091857	0.330266
C70	C	-0.545599	-0.591857	0.830266
C71	C	-0.380753	-1.142285	0.586973
C72	C	0.119247	-0.642285	1.086973
C73	C	-0.380725	-1.142299	0.674830
C74	C	0.119275	-0.642299	1.174830
C75	C	-0.174650	-1.142350	0.380853
C76	C	0.325350	-0.642350	0.880853
C77	C	-0.086793	-1.142391	0.380874
C78	C	0.413207	-0.642391	0.880874
C79	C	-0.380845	-1.348420	0.380824
C80	C	0.119155	-0.848420	0.880824
C81	C	-0.380856	-1.436277	0.380832
C82	C	0.119144	-0.936277	0.880832
C83	C	-0.330238	-0.477545	0.330367
C84	C	0.169762	0.022455	0.830367
C85	C	-0.431463	-0.477562	0.431288
C86	C	0.068537	0.022438	0.931288
C87	C	-0.431452	-0.560108	0.431283
C88	C	0.068548	-0.060108	0.931283
C89	C	-0.380834	-0.601376	0.380819
C90	C	0.119166	-0.101376	0.880819
C91	C	-0.330226	-0.560099	0.330359
C92	C	0.169774	-0.060099	0.830359
C93	C	-0.482064	-0.601392	0.481736
C94	C	0.017936	-0.101392	0.981736
C95	C	-0.482055	-0.683943	0.481733
C96	C	0.017945	-0.183943	0.981733
C97	C	-0.431432	-0.725213	0.431272
C98	C	0.068568	-0.225213	0.931272
C99	C	-0.380822	-0.683930	0.380811
C100	C	0.119178	-0.183930	0.880811
C101	C	-0.330204	-0.725198	0.330347
C102	C	0.169796	-0.225198	0.830347
C103	C	-0.279589	-0.683917	0.279889
C104	C	0.220411	-0.183917	0.779889
C105	C	-0.279603	-0.601368	0.279899
C106	C	0.220397	-0.101368	0.779899
C107	C	-0.431418	-0.807761	0.431262
C108	C	0.068582	-0.307761	0.931262
C109	C	-0.330193	-0.807752	0.330339
C110	C	0.169807	-0.307752	0.830339
C111	C	-0.380826	-1.142265	0.175439
C112	C	0.119174	-0.642265	0.675439
C113	C	-0.380631	-1.142404	0.087583
C114	C	0.119369	-0.642404	0.587583
C115	C	-0.431185	-1.091819	1.046292
C116	C	0.068815	-0.591819	1.546292
C117	C	-0.330097	-1.192968	1.046320
C118	C	0.169903	-0.692968	1.546320
C119	C	-0.330114	-1.192947	0.963774
C120	C	0.169886	-0.692947	1.463774
C121	C	-0.380668	-1.142362	0.922483
C122	C	0.119332	-0.642362	1.422483
C123	C	-0.431205	-1.091798	0.963738
C124	C	0.068795	-0.591798	1.463738
C125	C	-0.279584	-1.243516	0.922513
C126	C	0.220416	-0.743516	1.422513
C127	C	-0.279599	-1.243497	0.839962
C128	C	0.220401	-0.743497	1.339962
C129	C	-0.330149	-1.192908	0.798669
C130	C	0.169851	-0.692908	1.298669
C131	C	-0.380688	-1.142341	0.839930
C132	C	0.119312	-0.642341	1.339930
C133	C	-0.431242	-1.091756	0.798639
C134	C	0.068758	-0.591756	1.298639
C135	C	-0.481777	-1.041185	0.839898
C136	C	0.018223	-0.541185	1.339898
C137	C	-0.481756	-1.041209	0.922446
C138	C	0.018244	-0.541209	1.422446
C139	C	-0.330171	-1.192884	0.716121
C140	C	0.169829	-0.692884	1.216121
C141	C	-0.431262	-1.091735	0.716085
C142	C	0.068738	-0.591735	1.216085
H143	H	-1.079262	-1.050738	0.289065
H144	H	-0.579262	-0.550738	0.789065
Br145	Br	-0.550786	-0.545383	0.550189
Br146	Br	-0.050786	-0.045383	1.050189
H147	H	-0.238397	-0.567750	0.238818
H148	H	0.261603	-0.067750	0.738818
H149	H	-0.681847	-1.050579	0.288984
H150	H	-0.181847	-0.550579	0.788984
H151	H	-0.681572	-1.233857	0.472590
H152	H	-0.181572	-0.733857	0.972590
Br153	Br	-0.977978	-0.972752	0.210986
Br154	Br	-0.477978	-0.472752	0.710986
Br155	Br	-0.261486	-0.863752	0.261854
Br156	Br	0.238514	-0.363752	0.761854
H157	H	-0.805318	-1.284421	0.523220
H158	H	-0.305318	-0.784421	1.023220
H159	H	-0.289026	-0.443930	0.289288
H160	H	0.210974	0.056070	0.789288
Br161	Br	-0.550390	-0.972543	0.783851
Br162	Br	-0.050390	-0.472543	1.283851
Br163	Br	-0.210987	-1.312170	0.978552
Br164	Br	0.289013	-0.812170	1.478552
Br165	Br	-0.500177	-0.421555	0.499751
Br166	Br	-0.000177	0.078445	0.999751
H167	H	-0.522901	-1.000039	0.956046
H168	H	-0.022901	-0.500039	1.456046
Br169	Br	-0.550743	-0.739960	0.550209
Br170	Br	-0.050743	-0.239960	1.050209
Br171	Br	-0.977444	-1.311924	0.550740
Br172	Br	-0.477444	-0.811924	1.050740
H173	H	-0.472630	-0.841369	0.472341
H174	H	0.027370	-0.341369	0.972341
Br175	Br	-0.499868	-1.023074	0.660054
Br176	Br	0.000132	-0.523074	1.160054
Br177	Br	-0.210903	-0.739933	0.211397
Br178	Br	0.289097	-0.239933	0.711397
Br179	Br	-1.101350	-1.261458	0.500154
Br180	Br	-0.601350	-0.761458	1.000154
H181	H	-0.472328	-1.050643	1.079889
H182	H	0.027672	-0.550643	1.579889
Br183	Br	-0.783384	-0.972684	0.210935
Br184	Br	-0.283384	-0.472684	0.710935
Br185	Br	-0.261500	-1.261624	1.102357
Br186	Br	0.238500	-0.761624	1.602357
H187	H	-0.238450	-1.284675	0.806376
H188	H	0.261550	-0.784675	1.306376
Br189	Br	-0.261601	-1.261518	0.660130
Br190	Br	0.238399	-0.761518	1.160130
