data_functionalizedCrystal
_audit_creation_method	'MofGen! by Chris Wilmer'
_symmetry_space_group_name_H-M	'P1'
_symmetry_Int_Tables_number	1
_symmetry_cell_setting	triclinic
loop_
_symmetry_equiv_pos_as_xyz
  x,y,z
_cell_length_a	17.699077
_cell_length_b	27.732025
_cell_length_c	16.776229
_cell_angle_alpha	90.007871
_cell_angle_beta	89.993415
_cell_angle_gamma	82.957023
loop_
_atom_site_label
_atom_site_type_symbol
_atom_site_fract_x
_atom_site_fract_y
_atom_site_fract_z
O1	O	1.003535	0.061114	-0.066252
O2	O	1.503535	0.561114	0.433748
O3	O	0.783085	0.069070	-0.066253
O4	O	1.283085	0.569070	0.433747
O5	O	0.900165	-0.005281	-0.066276
O6	O	1.400165	0.494719	0.433724
O7	O	0.886454	0.135465	-0.066228
O8	O	1.386454	0.635465	0.433772
O9	O	0.900150	-0.005286	0.066300
O10	O	1.400150	0.494714	0.566300
O11	O	0.783069	0.069065	0.066324
O12	O	1.283069	0.569065	0.566324
O13	O	1.003519	0.061109	0.066325
O14	O	1.503519	0.561109	0.566325
Zn15	Zn	0.893292	0.065086	0.087374
Zn16	Zn	1.393292	0.565086	0.587374
Zn17	Zn	0.893312	0.065092	-0.087302
Zn18	Zn	1.393312	0.565092	0.412698
O19	O	0.886439	0.135460	0.066348
O20	O	1.386439	0.635460	0.566348
C21	C	0.754882	0.068783	0.000035
C22	C	1.254882	0.568783	0.500035
C23	C	0.670872	0.067929	0.000033
C24	C	1.170872	0.567929	0.500033
C25	C	0.631400	0.067524	0.072302
C26	C	1.131400	0.567524	0.572302
C27	C	0.552464	0.066714	0.072302
C28	C	1.052464	0.566714	0.572302
C29	C	0.513002	0.066313	0.000034
C30	C	1.013002	0.566313	0.500034
C31	C	0.552480	0.066716	-0.072240
C32	C	1.052480	0.566716	0.427760
C33	C	0.631414	0.067523	-0.072240
C34	C	1.131414	0.567523	0.427760
C35	C	0.234146	0.063463	-0.072243
C36	C	0.734146	0.563463	0.427757
C37	C	0.155205	0.062658	-0.072237
C38	C	0.655205	0.562658	0.427763
C39	C	0.155195	0.062655	0.072299
C40	C	0.655195	0.562655	0.572299
C41	C	0.234130	0.063461	0.072300
C42	C	0.734130	0.563461	0.572300
C43	C	0.273602	0.063862	0.000026
C44	C	0.773602	0.563862	0.500026
C45	C	0.359193	0.064739	0.000027
C46	C	0.859193	0.564739	0.500027
C47	C	0.427412	0.065439	0.000033
C48	C	0.927412	0.565439	0.500033
C49	C	0.899872	-0.023292	0.000004
C50	C	1.399872	0.476708	0.500004
C51	C	0.899014	-0.076950	-0.000020
C52	C	1.399014	0.423050	0.499980
C53	C	0.892921	-0.460135	-0.072241
C54	C	1.392921	0.039865	0.427759
C55	C	0.896135	-0.258464	-0.072266
C56	C	1.396135	0.241536	0.427734
O57	O	0.896588	-0.232393	-0.133729
O58	O	1.396588	0.267607	0.366271
N59	N	0.896528	-0.233244	-0.000001
N60	N	1.396528	0.266756	0.499999
C61	C	0.896123	-0.258445	0.072276
C62	C	1.396123	0.241555	0.572276
O63	O	0.896539	-0.232367	0.133741
O64	O	1.396539	0.267633	0.633741
C65	C	0.892915	-0.460115	0.072301
C66	C	1.392915	0.039885	0.572301
C67	C	0.892513	-0.485332	0.000030
C68	C	1.392513	0.014668	0.500030
C69	C	0.892521	-0.485352	-0.144505
C70	C	1.392521	0.014648	0.355495
C71	C	0.891713	-0.535766	-0.144498
C72	C	1.391713	-0.035766	0.355502
C73	C	0.891306	-0.560964	-0.072227
C74	C	1.391306	-0.060964	0.427773
C75	C	0.891706	-0.535747	0.000038
C76	C	1.391706	-0.035747	0.500038
C77	C	0.892515	-0.485316	0.144577
C78	C	1.392515	0.014684	0.644577
C79	C	0.891715	-0.535737	0.144576
C80	C	1.391715	-0.035737	0.644576
C81	C	0.891314	-0.560954	0.072306
C82	C	1.391314	-0.060954	0.572306
C83	C	0.890491	-0.611358	0.072316
C84	C	1.390491	-0.111358	0.572316
N85	N	0.890098	-0.636579	0.000051
N86	N	1.390098	-0.136579	0.500051
C87	C	0.890505	-0.611381	-0.072221
C88	C	1.390505	-0.111381	0.427779
C89	C	0.897806	-0.152565	0.072258
C90	C	1.397806	0.347435	0.572258
C91	C	0.898606	-0.102148	0.072252
C92	C	1.398606	0.397852	0.572252
C93	C	0.898620	-0.102170	-0.072291
C94	C	1.398620	0.397830	0.427709
C95	C	0.897813	-0.152588	-0.072284
C96	C	1.397813	0.347412	0.427716
C97	C	0.897412	-0.177785	-0.000008
C98	C	1.397412	0.322215	0.499992
C99	C	0.888808	-0.717255	-0.072200
C100	C	1.388808	-0.217255	0.427800
C101	C	0.887998	-0.767674	-0.072187
C102	C	1.387998	-0.267674	0.427813
C103	C	0.887989	-0.767647	0.072355
C104	C	1.387989	-0.267647	0.572355
C105	C	0.888795	-0.717232	0.072342
C106	C	1.388795	-0.217232	0.572342
C107	C	0.889208	-0.692038	0.000058
C108	C	1.389208	-0.192038	0.500058
O109	O	0.890046	-0.637461	0.133747
O110	O	1.390046	-0.137461	0.633747
O111	O	0.890106	-0.637469	-0.133677
O112	O	1.390106	-0.137469	0.366323
C113	C	0.893728	-0.409721	-0.072248
C114	C	1.393728	0.090279	0.427752
C115	C	0.894129	-0.384504	0.000016
C116	C	1.394129	0.115496	0.500016
C117	C	0.893721	-0.409701	0.072287
C118	C	1.393721	0.090299	0.572287
C119	C	0.894929	-0.334086	0.000010
C120	C	1.394929	0.165914	0.500010
C121	C	0.895337	-0.308889	-0.072261
C122	C	1.395337	0.191111	0.427739
C123	C	0.894943	-0.334109	-0.144526
C124	C	1.394943	0.165891	0.355474
C125	C	0.894136	-0.384523	-0.144519
C126	C	1.394136	0.115477	0.355481
C127	C	0.894115	-0.384481	0.144553
C128	C	1.394115	0.115519	0.644553
C129	C	0.894921	-0.334066	0.144540
C130	C	1.394921	0.165934	0.644540
C131	C	0.895329	-0.308869	0.072268
C132	C	1.395329	0.191131	0.572268
C133	C	1.031722	0.061396	0.000035
C134	C	1.531722	0.561396	0.500035
C135	C	1.115732	0.062250	0.000032
C136	C	1.615732	0.562250	0.500032
C137	C	0.886732	0.153471	0.000066
C138	C	1.386732	0.653471	0.500066
C139	C	0.887590	0.207129	0.000085
C140	C	1.387590	0.707129	0.500085
N141	N	0.893284	0.065082	0.206585
N142	N	1.393284	0.565082	0.706585
N143	N	0.893327	0.065093	-0.206513
N144	N	1.393327	0.565093	0.293487
C145	C	0.945142	0.032173	0.248291
C146	C	1.445142	0.532173	0.748291
C147	C	0.945147	0.032173	0.331744
C148	C	1.445147	0.532173	0.831744
C149	C	0.893295	0.065084	0.373488
C150	C	1.393295	0.565084	0.873488
C151	C	0.841431	0.097995	0.331775
C152	C	1.341431	0.597995	0.831775
C153	C	0.841423	0.097992	0.248325
C154	C	1.341423	0.597992	0.748325
C155	C	0.841458	0.098004	0.668323
C156	C	1.341458	0.598004	1.168323
C157	C	0.841471	0.098005	0.751779
C158	C	1.341471	0.598005	1.251779
C159	C	0.945181	0.032184	0.751741
C160	C	1.445181	0.532184	1.251741
C161	C	0.945174	0.032182	0.668291
C162	C	1.445174	0.532182	1.168291
C163	C	0.893307	0.065091	0.626586
C164	C	1.393307	0.565091	1.126586
C165	C	0.893302	0.065090	0.536097
C166	C	1.393302	0.565090	1.036097
C167	C	0.893303	0.065087	0.463975
C168	C	1.393303	0.565087	0.963975
H169	H	0.887668	-0.788203	-0.131040
H170	H	1.387668	-0.288203	0.368960
H171	H	0.266274	0.063788	-0.131092
H172	H	0.766274	0.563788	0.368908
H173	H	0.799228	0.124800	0.634373
H174	H	1.299228	0.624800	1.134373
C175	C	0.895396	-0.306383	-0.224025
C176	C	1.395396	0.193617	0.275975
N177	N	0.895743	-0.285497	-0.283900
N178	N	1.395743	0.214503	0.216100
H179	H	0.520344	0.066386	-0.131082
H180	H	1.020344	0.566386	0.368918
H181	H	0.889145	-0.696748	-0.131061
H182	H	1.389145	-0.196748	0.368939
H183	H	0.799244	0.124806	0.785766
H184	H	1.299244	0.624806	1.285766
C185	C	0.674833	0.067969	-0.151740
C186	C	1.174833	0.567969	0.348260
N187	N	0.707535	0.068304	-0.211623
N188	N	1.207535	0.568304	0.288377
H189	H	0.799208	0.124790	0.365768
H190	H	1.299208	0.624790	0.865768
H191	H	0.893785	-0.404992	0.203406
H192	H	1.393785	0.095008	0.703406
H193	H	0.987399	0.005384	0.634305
H194	H	1.487399	0.505384	1.134305
H195	H	0.799194	0.124790	0.214368
H196	H	1.299194	0.624790	0.714368
C197	C	1.002230	-0.004021	0.797624
C198	C	1.502230	0.495979	1.297624
N199	N	1.045198	-0.031289	0.832182
N200	N	1.545198	0.468711	1.332182
H201	H	0.891392	-0.556294	-0.203348
H202	H	1.391392	-0.056294	0.296652
C203	C	0.899074	-0.074444	-0.151790
C204	C	1.399074	0.425556	0.348210
N205	N	0.899423	-0.053559	-0.211665
N206	N	1.399423	0.446441	0.288335
H207	H	0.663523	0.067855	0.131151
H208	H	1.163523	0.567855	0.631151
H209	H	0.520331	0.066377	0.131150
H210	H	1.020331	0.566377	0.631150
H211	H	0.895241	-0.313538	0.203395
H212	H	1.395241	0.186462	0.703395
C213	C	0.277535	0.063902	0.151800
C214	C	0.777535	0.563902	0.651800
N215	N	0.310226	0.064231	0.211682
N216	N	0.810226	0.564231	0.711682
H217	H	0.887654	-0.788171	0.131197
H218	H	1.387654	-0.288171	0.631197
H219	H	0.987374	0.005375	0.365701
H220	H	1.487374	0.505375	0.865701
C221	C	0.111771	0.062209	0.151802
C222	C	0.611771	0.562209	0.651802
N223	N	0.079064	0.061873	0.211682
N224	N	0.579064	0.561873	0.711682
C225	C	0.111799	0.062211	-0.151742
C226	C	0.611799	0.562211	0.348258
N227	N	0.079106	0.061873	-0.211622
N228	N	0.579106	0.561873	0.288378
H229	H	0.897485	-0.173116	-0.131133
H230	H	1.397485	0.326884	0.368867
C231	C	0.892965	-0.457643	-0.224016
C232	C	1.392965	0.042357	0.275984
N233	N	0.893294	-0.436775	-0.283910
N234	N	1.393294	0.063225	0.216090
H235	H	0.898919	-0.081619	0.131101
H236	H	1.398919	0.418381	0.631101
H237	H	0.897479	-0.173076	0.131117
H238	H	1.397479	0.326924	0.631117
C239	C	0.892959	-0.457589	0.224081
C240	C	1.392959	0.042411	0.724081
N241	N	0.893296	-0.436706	0.283968
N242	N	1.393296	0.063294	0.783968
C243	C	0.891270	-0.563450	0.224088
C244	C	1.391270	-0.063450	0.724088
N245	N	0.890932	-0.584323	0.283977
N246	N	1.390932	-0.084323	0.783977
H247	H	0.889092	-0.696697	0.131191
H248	H	1.389092	-0.196697	0.631191
H249	H	0.893809	-0.405051	-0.203369
H250	H	1.393809	0.094949	0.296631
C251	C	1.002184	-0.004033	0.202380
C252	C	1.502184	0.495967	0.702380
N253	N	1.045147	-0.031306	0.167803
N254	N	1.545147	0.468694	0.667803
