data_functionalizedCrystal
_audit_creation_method	'MofGen! by Chris Wilmer'
_symmetry_space_group_name_H-M	'P1'
_symmetry_Int_Tables_number	1
_symmetry_cell_setting	triclinic
loop_
_symmetry_equiv_pos_as_xyz
  x,y,z
_cell_length_a	6.817900
_cell_length_b	10.992723
_cell_length_c	10.992410
_cell_angle_alpha	91.830958
_cell_angle_beta	108.764651
_cell_angle_gamma	108.770285
loop_
_atom_site_label
_atom_site_type_symbol
_atom_site_fract_x
_atom_site_fract_y
_atom_site_fract_z
V1	V	-4.114281	-0.177763	-0.400582
O2	O	-4.072374	0.008542	-0.392968
O3	O	-4.091893	-0.352473	-0.397831
O4	O	-4.091873	-0.175028	-0.575295
O5	O	-4.072394	-0.170131	-0.214276
V6	V	-4.591171	-0.155478	-0.378300
O7	O	-4.390091	-0.226645	-0.449460
O8	O	-4.765559	-0.106596	-0.329421
O9	O	-4.390353	0.019232	-0.381050
O10	O	-4.750475	-0.341783	-0.385913
O11	O	-4.750455	-0.163110	-0.564605
O12	O	-4.390373	-0.158213	-0.203587
C13	C	-3.942380	-0.395064	-0.391509
C14	C	-4.005535	-0.537892	-0.390424
C15	C	-3.942354	-0.168714	-0.617879
C16	C	-4.005488	-0.167634	-0.760708
C17	C	-4.317466	-0.748833	-0.396136
C18	C	-4.252189	-0.600354	-0.397761
C19	C	-3.982608	-0.607105	-0.509425
C20	C	-4.049772	-0.755778	-0.508444
C21	C	-3.918395	-0.717504	-0.262824
C22	C	-3.856042	-0.568782	-0.262474
C23	C	-3.872609	-0.157797	-0.955832
C24	C	-3.807059	-0.159452	-0.807348
C25	C	-4.203527	-0.294316	-0.837804
C26	C	-4.267841	-0.293195	-0.986371
C27	C	-4.145561	-0.047894	-0.948354
C28	C	-4.074852	-0.047293	-0.799341
C29	C	-4.203208	0.061816	-0.387369
C30	C	-4.119293	0.204643	-0.388462
C31	C	-4.203234	-0.164532	-0.160995
C32	C	-4.119337	-0.165605	-0.018165
H33	H	-4.277091	-0.553204	-0.312705
C34	C	-3.606466	-0.036413	-0.735292
H35	H	-3.564389	0.015034	-0.796712
H36	H	-3.644686	0.012286	-0.679490
H37	H	-3.486536	-0.060656	-0.685238
C38	C	-3.880108	-0.505825	-0.143438
H39	H	-3.980826	-0.460894	-0.171584
H40	H	-3.934309	-0.571392	-0.096150
H41	H	-3.740023	-0.446318	-0.089153
C42	C	-4.395066	-0.782702	-0.280475
H43	H	-4.307318	-0.825527	-0.226471
H44	H	-4.380006	-0.705204	-0.231747
H45	H	-4.545758	-0.838300	-0.311857
H46	H	-4.216965	-0.045806	-0.766830
H47	H	-3.931581	0.046420	-0.746989
C48	C	-4.387341	-0.054102	-1.003528
H49	H	-4.471952	-0.128025	-1.068789
H50	H	-4.446448	-0.060482	-0.935665
H51	H	-4.392784	0.022362	-1.040200
C52	C	-3.743675	-0.552476	-0.508296
H53	H	-3.655571	-0.486811	-0.435068
H54	H	-3.685023	-0.620456	-0.503489
H55	H	-3.743027	-0.516432	-0.585631
H56	H	-3.905367	-0.786810	-0.508115
H57	H	-4.466284	-0.802970	-0.486778
C58	C	-4.513712	-0.308094	-1.043971
H59	H	-4.573888	-0.314812	-0.976555
H60	H	-4.526958	-0.234400	-1.084006
H61	H	-4.591987	-0.384296	-1.106875
C62	C	-4.406674	-0.308599	-0.798890
H63	H	-4.372429	-0.237262	-0.735122
H64	H	-4.527214	-0.310015	-0.873235
H65	H	-4.445678	-0.387328	-0.764278
C66	C	-4.128084	-0.579852	-0.637339
H67	H	-4.113075	-0.622147	-0.708793
H68	H	-4.278335	-0.611727	-0.643042
H69	H	-4.082561	-0.488861	-0.639100
C70	C	-4.410570	-0.575155	-0.521800
H71	H	-4.515090	-0.655729	-0.571399
H72	H	-4.486005	-0.524297	-0.498607
H73	H	-4.328316	-0.529910	-0.571939
H74	H	-4.191229	-0.807600	-0.603052
C75	C	-3.838921	-0.272053	-1.020637
H76	H	-3.689423	-0.266597	-0.982410
H77	H	-3.933822	-0.351771	-1.008516
H78	H	-3.872706	-0.268264	-1.110972
C79	C	-3.729845	-0.275296	-0.773810
H80	H	-3.738484	-0.321535	-0.850986
H81	H	-3.581306	-0.244312	-0.714986
H82	H	-3.822152	-0.331531	-0.734784
C83	C	-3.971698	-0.751901	-0.139580
H84	H	-4.116994	-0.814067	-0.163599
H85	H	-3.868485	-0.787166	-0.087677
H86	H	-3.962551	-0.675691	-0.091444
H87	H	-3.755388	-0.066081	-0.974667
C88	C	-4.141739	-0.415019	-0.803220
H89	H	-3.995414	-0.388476	-0.741855
H90	H	-4.241729	-0.468578	-0.766917
H91	H	-4.149910	-0.462456	-0.879561
H92	H	-3.673420	-0.524703	-0.249649
C93	C	-3.717432	-0.756953	-0.253617
H94	H	-3.755667	-0.820550	-0.325938
H95	H	-3.597939	-0.682744	-0.253755
H96	H	-3.674750	-0.791936	-0.175487
C97	C	-4.246830	-0.413591	-1.048876
H98	H	-4.199136	-0.462720	-0.983410
H99	H	-4.386409	-0.465666	-1.110537
H100	H	-4.141933	-0.386657	-1.091220
H101	H	-4.042629	0.048305	-0.968719
