data_functionalizedCrystal
_audit_creation_method	'MofGen! by Chris Wilmer'
_symmetry_space_group_name_H-M	'P1'
_symmetry_Int_Tables_number	1
_symmetry_cell_setting	triclinic
loop_
_symmetry_equiv_pos_as_xyz
  x,y,z
_cell_length_a	27.731993
_cell_length_b	27.732048
_cell_length_c	17.666332
_cell_angle_alpha	89.988553
_cell_angle_beta	90.002180
_cell_angle_gamma	82.631525
loop_
_atom_site_label
_atom_site_type_symbol
_atom_site_fract_x
_atom_site_fract_y
_atom_site_fract_z
O1	O	0.640948	0.057392	-0.062753
O2	O	0.500151	0.066165	-0.062800
O3	O	0.574922	-0.008619	-0.062761
O4	O	0.566176	0.132176	-0.062792
O5	O	0.574909	-0.008623	0.063136
O6	O	0.500138	0.066161	0.063097
O7	O	0.640935	0.057388	0.063144
Cu8	Cu	0.570535	0.061775	0.074616
Cu9	Cu	0.570550	0.061779	-0.074272
O10	O	0.566163	0.132172	0.063104
C11	C	0.482137	0.065983	0.000142
C12	C	0.428480	0.065441	0.000125
C13	C	0.045327	0.061512	-0.068464
C14	C	0.246985	0.063580	-0.068485
O15	O	0.273064	0.063829	-0.126850
N16	N	0.272198	0.063836	0.000140
C17	C	0.246994	0.063573	0.068775
O18	O	0.273067	0.063833	0.127144
C19	C	0.045338	0.061502	0.068795
C20	C	0.020127	0.061251	0.000166
C21	C	0.020116	0.061260	-0.137087
C22	C	-0.030296	0.060746	-0.137081
C23	C	-0.055496	0.060484	-0.068452
C24	C	-0.030285	0.060736	0.000172
C25	C	0.020136	0.061235	0.137429
C26	C	-0.030281	0.060716	0.137428
C27	C	-0.055493	0.060465	0.068799
C28	C	-0.105897	0.059960	0.068807
N29	N	-0.131110	0.059704	0.000183
C30	C	-0.105910	0.059966	-0.068447
C31	C	0.352866	0.064661	0.068759
C32	C	0.403280	0.065179	0.068755
C33	C	0.403267	0.065185	-0.068505
C34	C	0.352852	0.064670	-0.068500
C35	C	0.327653	0.064404	0.000135
C36	C	-0.211778	0.058887	-0.068429
C37	C	-0.262195	0.058375	-0.068417
C38	C	-0.262177	0.058366	0.068842
C39	C	-0.211765	0.058881	0.068831
C40	C	-0.186567	0.059139	0.000189
O41	O	-0.132007	0.059705	0.127142
O42	O	-0.131990	0.059694	-0.126807
C43	C	0.095739	0.062027	-0.068470
C44	C	0.120950	0.062279	0.000154
C45	C	0.095750	0.062017	0.068784
C46	C	0.171364	0.062797	0.000149
C47	C	0.196564	0.063059	-0.068480
C48	C	0.171351	0.062803	-0.137105
C49	C	0.120939	0.062289	-0.137099
C50	C	0.120963	0.062273	0.137408
C51	C	0.171375	0.062788	0.137397
C52	C	0.196575	0.063050	0.068767
C53	C	0.574732	-0.026628	0.000190
C54	C	0.574179	-0.080282	0.000196
C55	C	0.614884	-0.419105	0.000171
C56	C	0.612833	-0.620765	0.000159
O57	O	0.650055	-0.652028	0.000139
N58	N	0.568497	-0.639880	0.000145
C59	C	0.524670	-0.608576	0.000129
O60	O	0.486912	-0.629462	0.000109
C61	C	0.526721	-0.406918	0.000135
C62	C	0.571061	-0.387806	0.000157
C63	C	0.659220	-0.399993	0.000192
C64	C	0.659732	-0.349581	0.000199
C65	C	0.615909	-0.318282	0.000185
C66	C	0.571573	-0.337394	0.000164
C67	C	0.482895	-0.375616	0.000113
C68	C	0.483412	-0.325199	0.000113
C69	C	0.527751	-0.306087	0.000134
C70	C	0.528262	-0.255683	0.000156
N71	N	0.572598	-0.236568	0.000171
C72	C	0.616422	-0.267867	0.000185
C73	C	0.523596	-0.714450	0.000127
C74	C	0.523083	-0.764865	0.000127
C75	C	0.611246	-0.777049	0.000156
C76	C	0.611759	-0.726634	0.000162
C77	C	0.567932	-0.695335	0.000142
C78	C	0.617494	-0.161998	0.000200
C79	C	0.618003	-0.111582	0.000210
C80	C	0.529839	-0.099401	0.000177
C81	C	0.529331	-0.149814	0.000171
C82	C	0.573162	-0.181112	0.000180
O83	O	0.491060	-0.224392	0.000169
O84	O	0.654174	-0.246972	0.000188
C85	C	0.614372	-0.469517	0.000164
C86	C	0.570036	-0.488630	0.000143
C87	C	0.526213	-0.457331	0.000129
C88	C	0.569523	-0.539044	0.000143
C89	C	0.613346	-0.570343	0.000157
C90	C	0.657683	-0.551228	0.000171
C91	C	0.658195	-0.500817	0.000178
C92	C	0.481876	-0.476446	0.000114
C93	C	0.481368	-0.526858	0.000108
C94	C	0.525191	-0.558157	0.000122
C95	C	0.658949	0.057570	0.000200
C96	C	0.712605	0.058113	0.000212
C97	C	0.566353	0.150181	0.000152
C98	C	0.566906	0.203836	0.000141
N99	N	0.570528	0.061771	0.179335
N100	N	0.570561	0.061779	-0.178991
C101	C	0.603647	0.028673	0.218962
C102	C	0.603650	0.028670	0.298210
C103	C	0.570538	0.061775	0.337827
C104	C	0.537412	0.094876	0.298190
C105	C	0.537407	0.094874	0.218944
N106	N	0.564065	0.104594	0.462235
N107	N	0.564073	0.104595	0.537515
C108	C	0.570551	0.061781	0.576591
N109	N	0.577030	0.018966	0.537543
N110	N	0.577025	0.018967	0.462255
C111	C	0.570540	0.061780	0.423756
C112	C	0.603675	0.028678	0.702148
C113	C	0.603674	0.028675	0.781397
C114	C	0.537439	0.094884	0.781376
C115	C	0.537437	0.094883	0.702128
C116	C	0.570558	0.061780	0.662519
H117	H	0.423802	0.065392	0.124639
F118	F	0.430096	0.065465	-0.141546
H119	H	0.510451	0.121829	0.330451
F120	F	0.326053	0.064383	0.141814
H121	H	0.510477	0.121836	0.813632
F122	F	0.482140	-0.170155	0.000161
H123	H	0.040654	0.061439	0.193314
H124	H	0.510437	0.121827	0.186679
H125	H	0.630620	0.001717	0.330480
F126	F	0.483202	-0.066082	0.000162
H127	H	0.695838	-0.334025	0.000213
F128	F	0.658950	-0.706298	0.000185
H129	H	-0.050796	0.060504	0.193320
H130	H	0.510470	0.121837	0.669862
H131	H	0.694301	-0.485261	0.000195
H132	H	0.630642	0.001722	0.669897
F133	F	0.638923	-0.006557	0.823573
F134	F	0.704323	-0.584548	0.000190
H135	H	-0.282719	0.058171	-0.124306
H136	H	-0.191239	0.059095	0.124714
F137	F	-0.184967	0.059162	-0.141486
F138	F	0.435702	-0.395945	0.000086
F139	F	0.434172	-0.547192	0.000090
H140	H	-0.050818	0.060539	-0.192966
H141	H	0.630614	0.001717	0.186715
F142	F	0.435231	-0.443141	0.000097
H143	H	0.332328	0.064465	-0.124384
F144	F	-0.289006	0.058089	0.141879
F145	F	0.705867	-0.433297	0.000206
F146	F	0.198180	0.063083	-0.210146
F147	F	0.046929	0.061538	-0.210139
H148	H	0.100450	0.062057	0.193296
H149	H	0.646929	-0.802542	0.000168
H150	H	0.191897	0.062997	0.193287
F151	F	0.665196	-0.091245	0.000233
F152	F	0.094114	0.062020	-0.210144
H153	H	0.653186	-0.187476	0.000204
H154	H	0.486977	-0.780421	0.000123
H155	H	0.487905	-0.688970	0.000111
H156	H	0.447722	-0.299717	0.000095
