data_functionalizedCrystal
_audit_creation_method	'MofGen! by Chris Wilmer'
_symmetry_space_group_name_H-M	'P1'
_symmetry_Int_Tables_number	1
_symmetry_cell_setting	triclinic
loop_
_symmetry_equiv_pos_as_xyz
  x,y,z
_cell_length_a	16.109301
_cell_length_b	16.109301
_cell_length_c	14.586319
_cell_angle_alpha	89.999213
_cell_angle_beta	89.994786
_cell_angle_gamma	83.461481
loop_
_atom_site_label
_atom_site_type_symbol
_atom_site_fract_x
_atom_site_fract_y
_atom_site_fract_z
O1	O	-0.106866	-1.103131	0.076185
O2	O	0.393134	-0.603131	0.576185
O3	O	-0.120165	-0.861069	0.076200
O4	O	0.379835	-0.361069	0.576200
O5	O	0.007515	-0.988749	0.076183
O6	O	0.507515	-0.488749	0.576183
O7	O	-0.234547	-0.975450	0.076203
O8	O	0.265453	-0.475450	0.576203
O9	O	0.007517	-0.988741	-0.076298
O10	O	0.507517	-0.488741	0.423702
O11	O	-0.120164	-0.861060	-0.076281
O12	O	0.379836	-0.361060	0.423719
O13	O	-0.106864	-1.103122	-0.076295
O14	O	0.393136	-0.603122	0.423705
Cu15	Cu	-0.113514	-0.982090	-0.090211
Cu16	Cu	0.386486	-0.482090	0.409789
Cu17	Cu	-0.113516	-0.982101	0.090115
Cu18	Cu	0.386484	-0.482101	0.590115
O19	O	-0.234545	-0.975441	-0.076278
O20	O	0.265455	-0.475441	0.423722
C21	C	-0.119626	-0.830090	-0.000038
C22	C	0.380374	-0.330090	0.499962
C23	C	-0.118011	-0.737794	-0.000033
C24	C	0.381989	-0.237794	0.499967
C25	C	0.038491	-0.988206	-0.000058
C26	C	0.538491	-0.488206	0.499942
C27	C	0.130786	-0.986591	-0.000059
C28	C	0.630786	-0.486591	0.499941
C29	C	-0.107404	-1.134101	-0.000055
C30	C	0.392596	-0.634101	0.499945
C31	C	-0.109019	-1.226397	-0.000054
C32	C	0.390981	-0.726397	0.499946
C33	C	-0.265521	-0.975984	-0.000035
C34	C	0.234479	-0.475984	0.499965
C35	C	-0.357816	-0.977600	-0.000028
C36	C	0.142184	-0.477600	0.499972
C37	C	0.353059	-1.058599	-0.000049
C38	C	0.853059	-0.558599	0.499951
C39	C	0.439779	-1.057075	-0.000041
C40	C	0.939779	-0.557075	0.499959
C41	C	0.419905	-0.905586	-0.000036
C42	C	0.919905	-0.405586	0.499964
C43	C	0.333186	-0.907111	-0.000037
C44	C	0.833186	-0.407111	0.499963
C45	C	0.299766	-0.983620	-0.000048
C46	C	0.799766	-0.483620	0.499952
C47	C	0.473205	-0.980571	-0.000039
C48	C	0.973205	-0.480571	0.499961
C49	C	0.567231	-0.978918	-0.000031
C50	C	1.067231	-0.478918	0.499969
C51	C	0.205734	-0.985273	-0.000055
C52	C	0.705734	-0.485273	0.499945
N53	N	-0.113512	-0.982089	-0.217042
N54	N	0.386488	-0.482089	0.282958
C55	C	-0.190018	-0.515522	-0.000038
C56	C	0.309982	-0.015522	0.499962
C57	C	-0.188494	-0.428801	-0.000044
C58	C	0.311506	0.071199	0.499956
C59	C	-0.037006	-0.448676	-0.000052
C60	C	0.462994	0.051324	0.499948
C61	C	-0.038530	-0.535394	-0.000053
C62	C	0.461470	-0.035394	0.499947
C63	C	-0.115039	-0.568815	-0.000041
C64	C	0.384961	-0.068815	0.499959
C65	C	-0.111990	-0.395376	-0.000046
C66	C	0.388010	0.104624	0.499954
C67	C	-0.110337	-0.301350	-0.000053
C68	C	0.389663	0.198650	0.499947
C69	C	-0.116693	-0.662847	-0.000036
C70	C	0.383307	-0.162847	0.499964
C71	C	-0.056994	-1.038644	-0.452057
C72	C	0.443006	-0.538644	0.047943
C73	C	-0.056992	-1.038647	-0.548038
C74	C	0.443008	-0.538647	-0.048038
C75	C	-0.170032	-0.925547	-0.548032
C76	C	0.329968	-0.425547	-0.048032
C77	C	-0.170030	-0.925541	-0.452052
C78	C	0.329970	-0.425541	0.047948
C79	C	-0.113511	-0.982095	-0.404067
C80	C	0.386489	-0.482095	0.095933
C81	C	-0.113512	-0.982103	-0.596028
C82	C	0.386488	-0.482103	-0.096028
C83	C	-0.113510	-0.982105	-0.700095
C84	C	0.386490	-0.482105	-0.200095
C85	C	-0.113512	-0.982092	-0.299993
C86	C	0.386488	-0.482092	0.200007
N87	N	-0.113511	-0.982109	0.216947
N88	N	0.386489	-0.482109	0.716947
H89	H	0.483168	-1.118130	-0.000040
H90	H	0.983168	-0.618130	0.499960
H91	H	-0.010969	-1.084694	-0.587108
H92	H	0.489031	-0.584694	-0.087108
H93	H	-0.216049	-0.879503	-0.587111
H94	H	0.283951	-0.379503	-0.087111
O95	O	-0.261352	-0.377068	0.000126
O96	O	0.238648	0.122932	0.500126
C97	C	-0.307811	-0.392229	0.079091
C98	C	0.192189	0.107771	0.579091
H99	H	-0.263911	-0.421879	0.134284
H100	H	0.236089	0.078121	0.634284
H101	H	-0.341169	-0.330692	0.105600
H102	H	0.158831	0.169308	0.605600
H103	H	-0.355922	-0.436372	0.061243
H104	H	0.144078	0.063628	0.561243
H105	H	0.025285	-0.421454	-0.000067
H106	H	0.525285	0.078546	0.499933
H107	H	0.022530	-0.578788	-0.000058
H108	H	0.522530	-0.078788	0.499942
O109	O	0.452272	-0.831217	-0.000153
O110	O	0.952272	-0.331217	0.499847
C111	C	0.425058	-0.785517	-0.079133
C112	C	0.925058	-0.285517	0.420867
H113	H	0.364923	-0.808162	-0.105463
H114	H	0.864923	-0.308162	0.394537
H115	H	0.412997	-0.716279	-0.061369
H116	H	0.912997	-0.216279	0.438631
H117	H	0.475246	-0.795155	-0.134432
H118	H	0.975246	-0.295155	0.365568
H119	H	0.325851	-1.120897	-0.000056
H120	H	0.825851	-0.620897	0.499944
O121	O	0.281496	-0.834217	0.000086
O122	O	0.781496	-0.334217	0.500086
C123	C	0.296619	-0.787777	0.079070
C124	C	0.796619	-0.287777	0.579070
H125	H	0.362407	-0.808205	0.105397
H126	H	0.862407	-0.308205	0.605397
H127	H	0.290493	-0.718433	0.061313
H128	H	0.790493	-0.218433	0.561313
H129	H	0.249188	-0.799140	0.134369
H130	H	0.749188	-0.299140	0.634369
H131	H	-0.252317	-0.542730	-0.000035
H132	H	0.247683	-0.042730	0.499965
O133	O	-0.002009	-1.093604	-0.405585
O134	O	0.497991	-0.593604	0.094415
C135	C	0.047862	-1.143529	-0.468528
C136	C	0.547862	-0.643529	0.031472
H137	H	0.048806	-1.109447	-0.536949
H138	H	0.548806	-0.609447	-0.036949
H139	H	0.114257	-1.156228	-0.440806
H140	H	0.614257	-0.656228	0.059194
H141	H	0.020851	-1.205282	-0.478728
H142	H	0.520851	-0.705282	0.021272
H143	H	-0.216053	-0.879487	-0.412977
H144	H	0.283947	-0.379487	0.087023
