data_functionalizedCrystal
_audit_creation_method	'MofGen! by Chris Wilmer'
_symmetry_space_group_name_H-M	'P1'
_symmetry_Int_Tables_number	1
_symmetry_cell_setting	triclinic
loop_
_symmetry_equiv_pos_as_xyz
  x,y,z
_cell_length_a	18.215407
_cell_length_b	12.827892
_cell_length_c	18.215399
_cell_angle_alpha	89.976162
_cell_angle_beta	89.980167
_cell_angle_gamma	90.015840
loop_
_atom_site_label
_atom_site_type_symbol
_atom_site_fract_x
_atom_site_fract_y
_atom_site_fract_z
Zn1	Zn	1.125121	-0.416031	-0.416137
Zn2	Zn	1.125049	-0.590790	-0.293079
Zn3	Zn	1.002053	-0.416065	-0.293084
Zn4	Zn	1.002039	-0.590732	-0.416104
O5	O	1.063566	-0.503405	-0.354601
O6	O	1.228095	-0.439223	-0.399825
O7	O	1.108710	-0.567651	-0.190096
O8	O	1.018414	-0.269825	-0.309423
O9	O	1.228043	-0.567618	-0.309415
O10	O	1.108831	-0.269800	-0.399829
O11	O	1.018345	-0.439282	-0.190099
O12	O	0.899067	-0.439225	-0.309392
O13	O	1.018390	-0.567519	-0.519093
O14	O	0.899057	-0.567552	-0.399774
O15	O	1.108818	-0.439167	-0.519117
O16	O	1.108696	-0.737019	-0.309383
O17	O	1.018321	-0.736976	-0.399769
C18	C	0.872359	-0.503387	-0.354580
C19	C	0.790560	-0.503405	-0.354589
C20	C	0.602380	-0.570329	-0.401592
C21	C	0.525522	-0.570333	-0.401601
C22	C	0.525503	-0.436499	-0.307627
C23	C	0.602360	-0.436491	-0.307622
C24	C	0.640797	-0.503413	-0.354603
C25	C	0.487081	-0.503424	-0.354617
C26	C	0.403747	-0.503427	-0.354627
C27	C	0.724136	-0.503408	-0.354595
C28	C	1.063520	-0.774915	-0.354588
C29	C	1.063567	-0.891068	-0.354607
C30	C	1.108341	-0.942839	-0.309931
C31	C	1.108391	-1.062889	-0.309950
C32	C	1.255518	-0.503424	-0.354623
C33	C	1.337317	-0.503432	-0.354632
C34	C	1.063610	-0.503333	-0.546554
C35	C	1.063629	-0.503302	-0.628353
C36	C	1.063632	-0.230835	-0.354630
C37	C	1.063660	-0.114682	-0.354643
C38	C	1.110732	-0.436407	-0.816561
C39	C	1.110741	-0.436376	-0.893420
C40	C	1.016579	-0.570036	-0.893383
C41	C	1.016567	-0.570060	-0.816526
C42	C	1.063648	-0.503247	-0.778117
C43	C	1.063668	-0.503192	-0.931833
C44	C	1.063678	-0.503160	-1.015167
C45	C	1.063638	-0.503278	-0.694778
C46	C	1.063563	-0.503401	-0.163395
C47	C	1.063687	-0.503138	-0.081597
H48	H	0.494246	-0.624822	-0.439864
H49	H	1.149066	-0.382000	-0.785290
H50	H	1.149080	-0.381946	-0.924717
C51	C	0.965593	-0.642708	-0.935127
C52	C	1.007257	-0.709694	-0.979234
C53	C	0.960315	-0.776666	-1.017689
H54	H	0.933527	-0.602845	-0.965169
H55	H	0.937561	-0.682581	-0.901245
H56	H	1.035277	-0.669827	-1.013111
H57	H	1.039321	-0.749581	-0.949209
H58	H	0.932283	-0.816539	-0.983807
H59	H	0.928251	-0.736794	-1.047727
H60	H	0.988577	-0.822130	-1.047615
H61	H	1.025323	-1.070167	-0.392891
C62	C	0.643980	-0.643015	-0.452685
C63	C	0.593882	-0.701596	-0.493852
C64	C	0.632174	-0.768553	-0.540937
H65	H	0.673947	-0.688590	-0.424563
H66	H	0.673965	-0.603113	-0.484834
H67	H	0.563910	-0.741495	-0.461707
H68	H	0.563913	-0.656049	-0.521989
H69	H	0.662159	-0.728652	-0.573086
H70	H	0.662140	-0.814121	-0.512809
H71	H	0.598189	-0.808302	-0.568879
C72	C	0.483728	-0.364024	-0.256528
C73	C	0.439590	-0.423115	-0.209279
C74	C	0.401106	-0.356387	-0.162189
H75	H	0.453704	-0.318527	-0.284652
H76	H	0.517592	-0.324184	-0.228500
H77	H	0.405730	-0.462938	-0.237304
H78	H	0.469596	-0.468609	-0.181139
H79	H	0.434970	-0.316546	-0.134161
H80	H	0.371086	-0.310893	-0.190319
H81	H	0.371159	-0.396470	-0.130121
C82	C	0.643942	-0.363795	-0.256521
C83	C	0.593833	-0.305216	-0.215360
C84	C	0.632112	-0.238249	-0.168277
H85	H	0.673945	-0.318219	-0.284644
H86	H	0.673890	-0.403689	-0.224369
H87	H	0.563897	-0.265326	-0.247508
H88	H	0.563829	-0.350765	-0.187222
H89	H	0.662060	-0.278143	-0.136124
H90	H	0.662113	-0.192680	-0.196405
H91	H	0.598118	-0.198502	-0.140338
C92	C	1.159282	-0.883386	-0.258818
C93	C	1.117571	-0.820837	-0.211630
C94	C	1.164474	-0.766067	-0.164526
H95	H	1.191301	-0.840657	-0.286934
H96	H	1.187367	-0.931400	-0.230746
H97	H	1.089499	-0.772830	-0.239698
H98	H	1.085554	-0.863541	-0.183497
H99	H	1.192558	-0.814081	-0.136454
H100	H	1.196490	-0.723344	-0.192649
H101	H	1.136180	-0.723629	-0.132499
C102	C	1.159504	-1.122433	-0.259052
C103	C	1.149427	-1.229667	-0.269225
C104	C	1.196520	-1.284553	-0.222368
H105	H	1.148840	-1.104801	-0.209542
H106	H	1.208956	-1.104568	-0.269889
H107	H	1.099987	-1.247526	-0.258383
H108	H	1.160097	-1.247331	-0.318725
H109	H	1.245972	-1.266687	-0.233204
H110	H	1.185852	-1.266911	-0.172861
H111	H	1.189694	-1.357316	-0.229268
H112	H	0.978220	-0.624489	-0.785224
H113	H	1.025275	-0.935621	-0.392873
