data_functionalizedCrystal
_audit_creation_method	'MofGen! by Chris Wilmer'
_symmetry_space_group_name_H-M	'P1'
_symmetry_Int_Tables_number	1
_symmetry_cell_setting	triclinic
loop_
_symmetry_equiv_pos_as_xyz
  x,y,z
_cell_length_a	18.215407
_cell_length_b	12.827892
_cell_length_c	18.215399
_cell_angle_alpha	90.023838
_cell_angle_beta	90.019833
_cell_angle_gamma	90.015840
loop_
_atom_site_label
_atom_site_type_symbol
_atom_site_fract_x
_atom_site_fract_y
_atom_site_fract_z
Zn1	Zn	1.125121	-0.416031	0.416137
Zn2	Zn	1.625121	0.083969	0.916137
Zn3	Zn	1.125049	-0.590790	0.293079
Zn4	Zn	1.625049	-0.090790	0.793079
Zn5	Zn	1.002053	-0.416065	0.293084
Zn6	Zn	1.502053	0.083935	0.793084
Zn7	Zn	1.002039	-0.590732	0.416104
Zn8	Zn	1.502039	-0.090732	0.916104
O9	O	1.063566	-0.503405	0.354601
O10	O	1.563566	-0.003405	0.854601
O11	O	1.228095	-0.439223	0.399825
O12	O	1.728095	0.060777	0.899825
O13	O	1.108710	-0.567651	0.190096
O14	O	1.608710	-0.067651	0.690096
O15	O	1.018414	-0.269825	0.309423
O16	O	1.518414	0.230175	0.809423
O17	O	1.228043	-0.567618	0.309415
O18	O	1.728043	-0.067618	0.809415
O19	O	1.108831	-0.269800	0.399829
O20	O	1.608831	0.230200	0.899829
O21	O	1.018345	-0.439282	0.190099
O22	O	1.518345	0.060718	0.690099
O23	O	0.899067	-0.439225	0.309392
O24	O	1.399067	0.060775	0.809392
O25	O	1.018390	-0.567519	0.519093
O26	O	1.518390	-0.067519	1.019093
O27	O	0.899057	-0.567552	0.399774
O28	O	1.399057	-0.067552	0.899774
O29	O	1.108818	-0.439167	0.519117
O30	O	1.608818	0.060833	1.019117
O31	O	1.108696	-0.737019	0.309383
O32	O	1.608696	-0.237019	0.809383
O33	O	1.018321	-0.736976	0.399769
O34	O	1.518321	-0.236976	0.899769
C35	C	0.872359	-0.503387	0.354580
C36	C	1.372359	-0.003387	0.854580
C37	C	0.790560	-0.503405	0.354589
C38	C	1.290560	-0.003405	0.854589
C39	C	0.602380	-0.570329	0.401592
C40	C	1.102380	-0.070329	0.901592
C41	C	0.525522	-0.570333	0.401601
C42	C	1.025522	-0.070333	0.901601
C43	C	0.525503	-0.436499	0.307627
C44	C	1.025503	0.063501	0.807627
C45	C	0.602360	-0.436491	0.307622
C46	C	1.102360	0.063509	0.807622
C47	C	0.640797	-0.503413	0.354603
C48	C	1.140797	-0.003413	0.854603
C49	C	0.487081	-0.503424	0.354617
C50	C	0.987081	-0.003424	0.854617
C51	C	0.403747	-0.503427	0.354627
C52	C	0.903747	-0.003427	0.854627
C53	C	0.724136	-0.503408	0.354595
C54	C	1.224136	-0.003408	0.854595
C55	C	1.063520	-0.774915	0.354588
C56	C	1.563520	-0.274915	0.854588
C57	C	1.063567	-0.891068	0.354607
C58	C	1.563567	-0.391068	0.854607
C59	C	1.108341	-0.942839	0.309931
C60	C	1.608341	-0.442839	0.809931
C61	C	1.108391	-1.062889	0.309950
C62	C	1.608391	-0.562889	0.809950
C63	C	1.255518	-0.503424	0.354623
C64	C	1.755518	-0.003424	0.854623
C65	C	1.337317	-0.503432	0.354632
C66	C	1.837317	-0.003432	0.854632
C67	C	1.063610	-0.503333	0.546554
C68	C	1.563610	-0.003333	1.046554
C69	C	1.063629	-0.503302	0.628353
C70	C	1.563629	-0.003302	1.128353
C71	C	1.063632	-0.230835	0.354630
C72	C	1.563632	0.269165	0.854630
C73	C	1.063660	-0.114682	0.354643
C74	C	1.563660	0.385318	0.854643
C75	C	1.063563	-0.503401	0.163395
C76	C	1.563563	-0.003401	0.663395
C77	C	1.063687	-0.503138	0.081597
C78	C	1.563687	-0.003138	0.581597
C79	C	1.110732	-0.436407	0.816561
C80	C	1.610732	0.063593	1.316561
C81	C	1.110741	-0.436376	0.893420
C82	C	1.610741	0.063624	1.393420
C83	C	1.016579	-0.570036	0.893383
C84	C	1.516579	-0.070036	1.393383
C85	C	1.016567	-0.570060	0.816526
C86	C	1.516567	-0.070060	1.316526
C87	C	1.063648	-0.503247	0.778117
C88	C	1.563648	-0.003247	1.278117
C89	C	1.063668	-0.503192	0.931833
C90	C	1.563668	-0.003192	1.431833
C91	C	1.063678	-0.503160	1.015167
C92	C	1.563678	-0.003160	1.515167
C93	C	1.063638	-0.503278	0.694778
C94	C	1.563638	-0.003278	1.194778
H95	H	0.494198	-0.382016	0.269375
H96	H	0.994198	0.117984	0.769375
C97	C	0.644662	-0.643932	0.453276
C98	C	1.144662	-0.143932	0.953276
C99	C	0.697530	-0.598745	0.511102
C100	C	1.197530	-0.098745	1.011102
C101	C	0.739808	-0.672346	0.562790
C102	C	1.239808	-0.172346	1.062790
C103	C	0.729218	-0.791135	0.556651
C104	C	1.229218	-0.291135	1.056651
C105	C	0.676348	-0.836328	0.498823
C106	C	1.176348	-0.336328	0.998823
C107	C	0.634069	-0.762727	0.447135
C108	C	1.134069	-0.262727	0.947135
H109	H	0.705371	-0.510805	0.515648
H110	H	1.205371	-0.010805	1.015648
H111	H	0.778947	-0.638891	0.605598
H112	H	1.278947	-0.138891	1.105598
H113	H	0.760515	-0.845620	0.594914
H114	H	1.260515	-0.345620	1.094914
H115	H	0.668506	-0.924268	0.494276
H116	H	1.168506	-0.424268	0.994276
H117	H	0.594931	-0.796182	0.404326
H118	H	1.094931	-0.296182	0.904326
H119	H	0.978249	-0.624435	0.924666
H120	H	1.478249	-0.124435	1.424666
H121	H	1.146639	-0.898288	0.271671
H122	H	1.646639	-0.398288	0.771671
H123	H	0.494246	-0.624822	0.439864
H124	H	0.994246	-0.124822	0.939864
C125	C	0.964772	-0.643591	0.774232
C126	C	1.464772	-0.143591	1.274232
C127	C	0.912992	-0.717092	0.816477
C128	C	1.412992	-0.217092	1.316477
C129	C	0.861197	-0.790616	0.774182
C130	C	1.361197	-0.290616	1.274182
C131	C	0.861182	-0.790638	0.689642
C132	C	1.361182	-0.290638	1.189642
C133	C	0.912964	-0.717133	0.647392
C134	C	1.412964	-0.217133	1.147392
C135	C	0.964759	-0.643610	0.689687
C136	C	1.464759	-0.143610	1.189687
H137	H	0.913001	-0.717079	0.879063
H138	H	1.413001	-0.217079	1.379063
H139	H	0.822864	-0.845028	0.805459
H140	H	1.322864	-0.345028	1.305459
H141	H	0.822840	-0.845064	0.658333
H142	H	1.322840	-0.345064	1.158333
H143	H	0.912955	-0.717147	0.584806
H144	H	1.412955	-0.217147	1.084806
H145	H	1.003092	-0.589198	0.658410
H146	H	1.503092	-0.089198	1.158410
H147	H	0.633639	-0.381993	0.269358
H148	H	1.133639	0.118007	0.769358
H149	H	1.146721	-1.107412	0.271699
H150	H	1.646721	-0.607412	0.771699
C151	C	1.011870	-1.054552	0.406320
C152	C	1.511870	-0.554552	0.906320
C153	C	0.954127	-0.979590	0.374318
C154	C	1.454127	-0.479590	0.874318
C155	C	0.902337	-0.919451	0.425996
C156	C	1.402337	-0.419451	0.925996
C157	C	0.908290	-0.934274	0.509675
C158	C	1.408290	-0.434274	1.009675
C159	C	0.966036	-1.009239	0.541681
C160	C	1.466036	-0.509239	1.041681
C161	C	1.017826	-1.069378	0.490004
C162	C	1.517826	-0.569378	0.990004
H163	H	0.949718	-0.968615	0.312370
H164	H	1.449718	-0.468615	0.812370
H165	H	0.859590	-0.863957	0.402302
H166	H	1.359590	-0.363957	0.902302
H167	H	0.869952	-0.889756	0.547929
H168	H	1.369952	-0.389756	1.047929
H169	H	0.970445	-1.020214	0.603629
H170	H	1.470445	-0.520214	1.103629
H171	H	1.060573	-1.124872	0.513697
H172	H	1.560573	-0.624872	1.013697
H173	H	1.025275	-0.935621	0.392873
H174	H	1.525275	-0.435621	0.892873
H175	H	1.149080	-0.381946	0.924717
H176	H	1.649080	0.118054	1.424717
C177	C	1.162513	-0.362906	0.774310
C178	C	1.662513	0.137094	1.274310
C179	C	1.214301	-0.289377	0.816601
C180	C	1.714301	0.210623	1.316601
C181	C	1.266081	-0.215871	0.774353
C182	C	1.766081	0.284129	1.274353
C183	C	1.266073	-0.215894	0.689812
C184	C	1.766073	0.284106	1.189812
C185	C	1.214283	-0.289425	0.647516
C186	C	1.714283	0.210575	1.147516
C187	C	1.162503	-0.362931	0.689765
C188	C	1.662503	0.137069	1.189765
H189	H	1.214308	-0.289358	0.879187
H190	H	1.714308	0.210642	1.379187
H191	H	1.304419	-0.161439	0.805663
H192	H	1.804419	0.338561	1.305663
H193	H	1.304404	-0.161480	0.658537
H194	H	1.804404	0.338520	1.158537
H195	H	1.214276	-0.289444	0.584930
H196	H	1.714276	0.210556	1.084930
H197	H	1.124165	-0.417363	0.658454
H198	H	1.624165	0.082637	1.158454
