data_functionalizedCrystal
_audit_creation_method	'MofGen! by Chris Wilmer'
_symmetry_space_group_name_H-M	'P1'
_symmetry_Int_Tables_number	1
_symmetry_cell_setting	triclinic
loop_
_symmetry_equiv_pos_as_xyz
  x,y,z
_cell_length_a	16.959455
_cell_length_b	16.120444
_cell_length_c	16.959447
_cell_angle_alpha	92.867280
_cell_angle_beta	89.985299
_cell_angle_gamma	92.925987
loop_
_atom_site_label
_atom_site_type_symbol
_atom_site_fract_x
_atom_site_fract_y
_atom_site_fract_z
Zn1	Zn	1.192391	-0.331904	-0.462860
Zn2	Zn	1.692391	0.168096	0.037140
Zn3	Zn	1.185595	-0.471333	-0.337380
Zn4	Zn	1.685595	0.028667	0.162620
Zn5	Zn	1.060218	-0.331937	-0.330699
Zn6	Zn	1.560218	0.168063	0.169301
Zn7	Zn	1.053468	-0.471277	-0.469515
Zn8	Zn	1.553468	0.028723	0.030485
O9	O	1.122918	-0.401613	-0.400113
O10	O	1.622918	0.098387	0.099887
O11	O	1.302100	-0.350410	-0.446226
O12	O	1.802100	0.149590	0.053774
O13	O	1.168944	-0.452879	-0.225884
O14	O	1.668944	0.047121	0.274116
O15	O	1.083420	-0.215266	-0.342649
O16	O	1.583420	0.284734	0.157351
O17	O	1.297107	-0.452848	-0.354036
O18	O	1.797107	0.047152	0.145964
O19	O	1.180527	-0.215243	-0.439748
O20	O	1.680527	0.284757	0.060252
O21	O	1.076830	-0.350465	-0.220976
O22	O	1.576830	0.149535	0.279024
O23	O	0.948712	-0.350410	-0.349102
O24	O	1.448712	0.149590	0.150898
O25	O	1.071916	-0.452752	-0.579241
O26	O	1.571916	0.047248	-0.079241
O27	O	0.943753	-0.452783	-0.451089
O28	O	1.443753	0.047217	0.048911
O29	O	1.173982	-0.350355	-0.574352
O30	O	1.673982	0.149645	-0.074352
O31	O	1.162399	-0.587992	-0.360489
O32	O	1.662399	-0.087992	0.139511
O33	O	1.065326	-0.587951	-0.457568
O34	O	1.565326	-0.087951	0.042432
C35	C	0.917552	-0.401595	-0.400093
C36	C	1.417552	0.098405	0.099907
C37	C	0.829695	-0.401607	-0.400104
C38	C	1.329695	0.098393	0.099896
C39	C	0.785823	-0.454866	-0.352029
C40	C	1.285823	0.045134	0.147971
C41	C	0.791013	-0.348355	-0.448185
C42	C	1.291013	0.151645	0.051815
C43	C	0.708467	-0.348361	-0.448195
C44	C	1.208467	0.151639	0.051805
C45	C	0.664595	-0.401620	-0.400120
C46	C	1.164595	0.098380	0.099880
C47	C	0.703270	-0.454872	-0.352036
C48	C	1.203270	0.045128	0.147964
C49	C	0.669787	-0.295104	-0.496273
C50	C	1.169787	0.204896	0.003727
C51	C	0.587236	-0.295108	-0.496284
C52	C	1.087236	0.204892	0.003716
C53	C	0.543362	-0.348372	-0.448213
C54	C	1.043362	0.151628	0.051787
C55	C	0.582041	-0.401627	-0.400127
C56	C	1.082041	0.098373	0.099873
C57	C	0.538170	-0.454885	-0.352052
C58	C	1.038170	0.045115	0.147948
C59	C	0.576847	-0.508145	-0.303970
C60	C	1.076847	-0.008145	0.196030
C61	C	0.659396	-0.508136	-0.303965
C62	C	1.159396	-0.008136	0.196035
C63	C	0.460813	-0.348381	-0.448218
C64	C	0.960813	0.151619	0.051782
C65	C	0.455616	-0.454892	-0.352059
C66	C	0.955616	0.045108	0.147941
C67	C	1.112414	-0.618221	-0.410492
C68	C	1.612414	-0.118221	0.089508
C69	C	1.107993	-0.710887	-0.414959
C70	C	1.607993	-0.210887	0.085041
C71	C	1.146046	-0.921830	-0.377113
C72	C	1.646046	-0.421830	0.122887
C73	C	1.099936	-0.880544	-0.423122
C74	C	1.599936	-0.380544	0.076878
C75	C	1.104420	-0.786138	-0.418579
C76	C	1.604420	-0.286138	0.081421
C77	C	1.141563	-1.016245	-0.381655
C78	C	1.641563	-0.516245	0.118345
C79	C	1.329085	-0.401632	-0.400134
C80	C	1.829085	0.098368	0.099866
C81	C	1.416941	-0.401640	-0.400143
C82	C	1.916941	0.098360	0.099857
C83	C	1.122954	-0.401544	-0.606278
C84	C	1.622954	0.098456	-0.106278
C85	C	1.122970	-0.401514	-0.694134
C86	C	1.622970	0.098486	-0.194134
C87	C	1.133484	-0.184158	-0.389711
C88	C	1.633484	0.315842	0.110289
C89	C	1.137987	-0.091492	-0.385278
C90	C	1.637987	0.408508	0.114722
C91	C	1.069927	-0.454740	-1.068153
C92	C	1.569927	0.045260	-0.568153
C93	C	1.176209	-0.348113	-1.063057
C94	C	1.676209	0.151887	-0.563057
C95	C	1.176187	-0.348131	-0.980512
C96	C	1.676187	0.151869	-0.480512
C97	C	1.123035	-0.401455	-0.941784
C98	C	1.623035	0.098545	-0.441784
C99	C	1.069905	-0.454761	-0.985601
C100	C	1.569905	0.045239	-0.485601
C101	C	1.229322	-0.294832	-0.936690
C102	C	1.729322	0.205168	-0.436690
C103	C	1.229303	-0.294848	-0.854140
C104	C	1.729303	0.205152	-0.354140
C105	C	1.176146	-0.348168	-0.815409
C106	C	1.676146	0.151832	-0.315409
C107	C	1.123013	-0.401476	-0.859231
C108	C	1.623013	0.098524	-0.359231
C109	C	1.069861	-0.454799	-0.820503
C110	C	1.569861	0.045201	-0.320503
C111	C	1.016724	-0.508103	-0.864323
C112	C	1.516724	-0.008103	-0.364323
C113	C	1.016749	-0.508081	-0.946870
C114	C	1.516749	-0.008081	-0.446870
C115	C	1.176122	-0.348191	-0.732862
C116	C	1.676122	0.151809	-0.232862
C117	C	1.069839	-0.454820	-0.737950
C118	C	1.569839	0.045180	-0.237950
C119	C	1.122930	-0.401621	-0.194748
C120	C	1.622930	0.098379	0.305252
C121	C	1.123079	-0.401416	-0.106882
C122	C	1.623079	0.098584	0.393118
H123	H	0.826739	-0.304990	-0.487322
H124	H	1.326739	0.195010	0.012678
H125	H	0.705513	-0.251741	-0.535409
H126	H	1.205513	0.248259	-0.035409
H127	H	0.973451	-0.551523	-0.832780
H128	H	1.473451	-0.051523	-0.332780
C129	C	0.528587	-0.566726	-0.251088
C130	C	1.028587	-0.066726	0.248912
H131	H	0.563440	-0.598442	-0.222448
H132	H	1.063440	-0.098442	0.277552
H133	H	0.494628	-0.603085	-0.283016
H134	H	0.994628	-0.103085	0.216984
H135	H	0.497925	-0.534785	-0.215165
H136	H	0.997925	-0.034785	0.284835
H137	H	0.555751	-0.251742	-0.535436
H138	H	1.055751	0.248258	-0.035436
H139	H	1.057091	-0.916099	-0.465924
H140	H	1.557091	-0.416099	0.034076
C141	C	0.828364	-0.513444	-0.299140
C142	C	1.328364	-0.013444	0.200860
H143	H	0.883811	-0.505813	-0.306016
H144	H	1.383811	-0.005813	0.193984
H145	H	0.812122	-0.569475	-0.313308
H146	H	1.312122	-0.069475	0.186692
H147	H	0.815412	-0.501171	-0.245461
H148	H	1.315412	-0.001171	0.254539
C149	C	0.958310	-0.566714	-0.995073
C150	C	1.458310	-0.066714	-0.495073
H151	H	0.965943	-0.559070	-1.049782
H152	H	1.465943	-0.059070	-0.549782
H153	H	0.905789	-0.554515	-0.980967
H154	H	1.405789	-0.054515	-0.480967
H155	H	0.967159	-0.622736	-0.984219
H156	H	1.467159	-0.122736	-0.484219
C157	C	0.418271	-0.289807	-0.501105
C158	C	0.918271	0.210193	-0.001105
H159	H	0.456222	-0.258090	-0.529737
H160	H	0.956222	0.241910	-0.029737
H161	H	0.387814	-0.253449	-0.469186
H162	H	0.887814	0.246551	0.030814
H163	H	0.384538	-0.321751	-0.537036
H164	H	0.884538	0.178249	-0.037036
H165	H	1.026662	-0.498136	-1.103835
H166	H	1.526662	0.001864	-0.603835
H167	H	1.188888	-0.886280	-0.334313
H168	H	1.688888	-0.386280	0.165687
C169	C	1.011382	-0.513490	-0.695356
C170	C	1.511382	-0.013490	-0.195356
H171	H	0.979748	-0.545236	-0.733278
H172	H	1.479748	-0.045236	-0.233278
H173	H	0.978481	-0.481616	-0.661621
H174	H	1.478481	0.018384	-0.161621
H175	H	1.039860	-0.549828	-0.664899
H176	H	1.539860	-0.049828	-0.164899
H177	H	0.690895	-0.551495	-0.264817
H178	H	1.190895	-0.051495	0.235183
C179	C	1.234667	-0.289458	-1.105656
C180	C	1.734667	0.210542	-0.605656
H181	H	1.227067	-0.297076	-1.161094
H182	H	1.727067	0.202924	-0.661094
H183	H	1.287182	-0.301658	-1.092712
H184	H	1.787182	0.198342	-0.592712
H185	H	1.225805	-0.233443	-1.089453
H186	H	1.725805	0.266557	-0.589453
H187	H	1.272600	-0.251424	-0.968229
H188	H	1.772600	0.248576	-0.468229
H189	H	1.219387	-0.304794	-0.697188
H190	H	1.719387	0.195206	-0.197188
C191	C	0.407363	-0.513477	-0.299175
C192	C	0.907363	-0.013477	0.200825
H193	H	0.442222	-0.545188	-0.270537
H194	H	0.942222	-0.045188	0.229463
H195	H	0.373405	-0.549840	-0.331100
H196	H	0.873405	-0.049840	0.168900
H197	H	0.376701	-0.481539	-0.263248
H198	H	0.876701	0.018461	0.236752
C199	C	1.287744	-0.236211	-0.805944
C200	C	1.787744	0.263789	-0.305944
H201	H	1.319398	-0.204447	-0.840833
H202	H	1.819398	0.295553	-0.340833
H203	H	1.320625	-0.268108	-0.775261
H204	H	1.820625	0.231892	-0.275261
H205	H	1.259255	-0.199886	-0.772013
H206	H	1.759255	0.300114	-0.272013
