data_functionalizedCrystal
_audit_creation_method	'MofGen! by Chris Wilmer'
_symmetry_space_group_name_H-M	'P1'
_symmetry_Int_Tables_number	1
_symmetry_cell_setting	triclinic
loop_
_symmetry_equiv_pos_as_xyz
  x,y,z
_cell_length_a	27.731993
_cell_length_b	27.732048
_cell_length_c	16.053802
_cell_angle_alpha	92.539157
_cell_angle_beta	87.452272
_cell_angle_gamma	82.631525
loop_
_atom_site_label
_atom_site_type_symbol
_atom_site_fract_x
_atom_site_fract_y
_atom_site_fract_z
O1	O	0.642993	0.055347	-0.069212
O2	O	0.502197	0.064118	-0.069265
O3	O	0.576967	-0.010664	-0.069221
O4	O	0.568222	0.130130	-0.069256
O5	O	0.572852	-0.006565	0.069635
O6	O	0.498081	0.068218	0.069592
O7	O	0.638877	0.059446	0.069644
Zn8	Zn	0.567826	0.064483	0.091664
Zn9	Zn	0.573248	0.059082	-0.091285
O10	O	0.564107	0.134229	0.069600
C11	C	0.482132	0.065988	0.000157
C12	C	0.428476	0.065445	0.000138
C13	C	0.574726	-0.026621	0.000209
C14	C	0.574173	-0.080276	0.000216
C15	C	0.047558	0.059281	-0.075511
C16	C	0.249216	0.061347	-0.075534
O17	O	0.277197	0.059695	-0.139908
N18	N	0.272193	0.063841	0.000154
C19	C	0.244753	0.065814	0.075855
O20	O	0.268924	0.067977	0.140232
C21	C	0.043096	0.063744	0.075877
C22	C	0.020121	0.061256	0.000183
C23	C	0.024583	0.056792	-0.151199
C24	C	-0.025829	0.056278	-0.151192
C25	C	-0.053266	0.058253	-0.075498
C26	C	-0.030291	0.060742	0.000189
C27	C	0.015657	0.065714	0.151576
C28	C	-0.034760	0.065195	0.151575
C29	C	-0.057735	0.062707	0.075881
C30	C	-0.108139	0.062203	0.075890
N31	N	-0.131116	0.059710	0.000201
C32	C	-0.103679	0.057735	-0.075493
C33	C	0.350626	0.066902	0.075837
C34	C	0.401039	0.067420	0.075832
C35	C	0.405499	0.062952	-0.075557
C36	C	0.355084	0.062437	-0.075551
C37	C	0.327649	0.064408	0.000149
C38	C	-0.209548	0.056656	-0.075473
C39	C	-0.259965	0.056145	-0.075460
C40	C	-0.264420	0.060610	0.075929
C41	C	-0.214008	0.061124	0.075916
C42	C	-0.186573	0.059145	0.000208
O43	O	-0.136150	0.063849	0.140230
O44	O	-0.127858	0.055561	-0.139861
C45	C	0.097970	0.059795	-0.075518
C46	C	0.120945	0.062284	0.000170
C47	C	0.093508	0.064259	0.075864
C48	C	0.171359	0.062802	0.000164
C49	C	0.198796	0.060827	-0.075530
C50	C	0.175819	0.058334	-0.151219
C51	C	0.125407	0.057820	-0.151212
C52	C	0.116485	0.066752	0.151553
C53	C	0.166897	0.067266	0.151540
C54	C	0.194334	0.065291	0.075846
C55	C	0.614878	-0.419100	0.000188
C56	C	0.612828	-0.620759	0.000176
O57	O	0.650050	-0.652023	0.000153
N58	N	0.568492	-0.639875	0.000160
C59	C	0.524666	-0.608572	0.000142
O60	O	0.486908	-0.629459	0.000120
C61	C	0.526717	-0.406914	0.000149
C62	C	0.571056	-0.387801	0.000173
C63	C	0.659213	-0.399987	0.000212
C64	C	0.659725	-0.349575	0.000219
C65	C	0.615903	-0.318276	0.000204
C66	C	0.571568	-0.337389	0.000180
C67	C	0.482891	-0.375612	0.000125
C68	C	0.483408	-0.325195	0.000124
C69	C	0.527747	-0.306082	0.000148
C70	C	0.528257	-0.255678	0.000173
N71	N	0.572593	-0.236563	0.000188
C72	C	0.616416	-0.267861	0.000204
C73	C	0.523592	-0.714446	0.000140
C74	C	0.523079	-0.764861	0.000140
C75	C	0.611241	-0.777044	0.000173
C76	C	0.611753	-0.726629	0.000179
C77	C	0.567928	-0.695331	0.000156
C78	C	0.617488	-0.161992	0.000221
C79	C	0.617996	-0.111575	0.000232
C80	C	0.529834	-0.099396	0.000195
C81	C	0.529325	-0.149808	0.000188
C82	C	0.573156	-0.181106	0.000198
O83	O	0.491055	-0.224386	0.000186
O84	O	0.654168	-0.246966	0.000207
C85	C	0.614366	-0.469512	0.000181
C86	C	0.570031	-0.488625	0.000157
C87	C	0.526208	-0.457326	0.000142
C88	C	0.569518	-0.539040	0.000157
C89	C	0.613341	-0.570338	0.000173
C90	C	0.657677	-0.551223	0.000189
C91	C	0.658189	-0.500811	0.000196
C92	C	0.481873	-0.476442	0.000126
C93	C	0.481364	-0.526855	0.000120
C94	C	0.525187	-0.558153	0.000135
C95	C	0.658942	0.057577	0.000220
C96	C	0.712598	0.058120	0.000234
C97	C	0.566348	0.150186	0.000168
C98	C	0.566902	0.203841	0.000156
N99	N	0.564129	0.068169	0.216523
N100	N	0.576949	0.055392	-0.216143
C101	C	0.595955	0.036360	0.260235
C102	C	0.593374	0.038943	0.347640
C103	C	0.558968	0.073337	0.391331
C104	C	0.527138	0.105148	0.347613
C105	C	0.529718	0.102562	0.260209
C106	C	0.547699	0.084617	0.652735
C107	C	0.545123	0.087201	0.740144
C108	C	0.611358	0.020995	0.740166
C109	C	0.613937	0.018415	0.652760
C110	C	0.582105	0.050224	0.609049
N111	N	0.556329	0.075979	0.480674
N112	N	0.584742	0.047579	0.519709
H113	H	-0.278669	0.054120	-0.137102
H114	H	0.694901	-0.425466	0.000221
F115	F	0.664138	-0.195294	0.000231
F116	F	0.425484	0.070078	0.156396
F117	F	0.436761	-0.291888	0.000098
F118	F	0.435700	-0.395942	0.000095
F119	F	0.632577	-0.000246	0.213744
F120	F	-0.180357	0.054551	-0.156050
F121	F	0.658944	-0.706292	0.000204
H122	H	0.695831	-0.334018	0.000235
H123	H	0.641953	-0.009592	0.617189
H124	H	0.517104	0.115211	0.775714
H125	H	0.493220	-0.165370	0.000192
F126	F	0.495842	0.136417	0.213688
F127	F	0.645232	-0.012857	0.786691
H128	H	-0.057096	0.066805	0.213220
F129	F	0.627246	0.005087	0.394163
F130	F	0.513824	0.118471	0.606221
F131	F	0.040098	0.068363	0.232141
H132	H	0.185598	0.069296	0.213184
F133	F	-0.050274	0.053627	-0.231757
F134	F	0.330637	0.059788	-0.156114
F135	F	0.053776	0.054689	-0.231771
F136	F	0.434708	0.060852	-0.156117
H137	H	0.499121	0.133151	0.383191
F138	F	0.476943	-0.681142	0.000116
H139	H	0.328292	0.068505	0.137485
H140	H	0.693359	-0.576715	0.000205
F141	F	-0.189557	0.063779	0.156477
H142	H	-0.286769	0.062220	0.137557
F143	F	0.705381	-0.480476	0.000217
H144	H	0.198166	0.056729	-0.212852
F145	F	0.100962	0.055171	-0.231777
H146	H	0.094151	0.068357	0.213194
F147	F	0.665189	-0.091237	0.000257
F148	F	0.475887	-0.785196	0.000130
F149	F	0.483197	-0.066077	0.000179
F150	F	0.657881	-0.810363	0.000187
H151	H	0.446186	-0.450963	0.000112
F152	F	0.434169	-0.547189	0.000099
