data_functionalizedCrystal
_audit_creation_method	'MofGen! by Chris Wilmer'
_symmetry_space_group_name_H-M	'P1'
_symmetry_Int_Tables_number	1
_symmetry_cell_setting	triclinic
loop_
_symmetry_equiv_pos_as_xyz
  x,y,z
_cell_length_a	14.044190
_cell_length_b	14.044191
_cell_length_c	9.130313
_cell_angle_alpha	89.998938
_cell_angle_beta	89.990619
_cell_angle_gamma	93.191777
loop_
_atom_site_label
_atom_site_type_symbol
_atom_site_fract_x
_atom_site_fract_y
_atom_site_fract_z
O1	O	0.230200	1.277177	-0.121759
O2	O	0.221888	1.000504	-0.121776
O3	O	0.087708	1.134684	-0.121739
O4	O	0.364380	1.142997	-0.121796
O5	O	0.087703	1.134674	0.121860
O6	O	0.221883	1.000494	0.121822
O7	O	0.230195	1.277167	0.121840
Cu8	Cu	0.226039	1.138829	0.144074
Cu9	Cu	0.226045	1.138842	-0.144010
O10	O	0.364375	1.142987	0.121803
C11	C	0.218249	0.964877	0.000021
C12	C	0.207401	0.858734	0.000016
C13	C	0.264502	0.613277	0.000019
C14	C	0.187585	0.664400	0.000032
C15	C	0.198614	0.772537	0.000023
C16	C	0.253475	0.505130	0.000028
C17	C	0.052083	1.131043	0.000064
C18	C	-0.054060	1.120195	0.000076
C19	C	-0.299517	1.177296	0.000023
C20	C	-0.248394	1.100379	0.000028
C21	C	-0.140257	1.111408	0.000055
C22	C	-0.407664	1.166269	-0.000004
C23	C	0.400000	1.146628	-0.000004
C24	C	0.506143	1.157476	-0.000026
C25	C	0.233834	1.312794	0.000039
C26	C	0.244682	1.418937	0.000035
N27	N	0.226034	1.138828	0.346696
N28	N	0.226042	1.138850	-0.346633
C29	C	0.166648	1.198267	0.423365
C30	C	0.166649	1.198276	0.576702
C31	C	0.285430	1.079405	0.576688
C32	C	0.285424	1.079391	0.423354
H33	H	-0.285839	1.026247	0.000015
H34	H	-0.262074	1.251423	0.000042
H35	H	0.118289	1.246662	0.360954
H36	H	0.118291	1.246675	0.639121
O37	O	0.349496	1.015311	0.659366
H38	H	0.339534	1.025314	0.778871
O39	O	0.349482	1.015283	0.340644
H40	H	0.390791	0.973967	0.419707
H41	H	0.338629	0.650720	-0.000001
H42	H	0.113453	0.626955	-0.000056
