data_functionalizedCrystal
_audit_creation_method	'MofGen! by Chris Wilmer'
_symmetry_space_group_name_H-M	'P1'
_symmetry_Int_Tables_number	1
_symmetry_cell_setting	triclinic
loop_
_symmetry_equiv_pos_as_xyz
  x,y,z
_cell_length_a	19.805407
_cell_length_b	19.121063
_cell_length_c	19.805399
_cell_angle_alpha	92.411105
_cell_angle_beta	89.982197
_cell_angle_gamma	92.466276
loop_
_atom_site_label
_atom_site_type_symbol
_atom_site_fract_x
_atom_site_fract_y
_atom_site_fract_z
Zn1	Zn	1.023232	-0.279680	-0.394173
Zn2	Zn	1.273232	-0.029680	-0.144173
Zn3	Zn	1.523232	0.220320	0.105827
Zn4	Zn	1.773232	0.470320	0.355827
Zn5	Zn	1.018315	-0.397133	-0.285808
Zn6	Zn	1.268315	-0.147133	-0.035808
Zn7	Zn	1.518315	0.102867	0.214192
Zn8	Zn	1.768315	0.352867	0.464192
Zn9	Zn	0.910046	-0.279694	-0.281002
Zn10	Zn	1.160046	-0.029694	-0.031002
Zn11	Zn	1.410046	0.220306	0.218998
Zn12	Zn	1.660046	0.470306	0.468998
Zn13	Zn	0.905180	-0.397090	-0.398957
Zn14	Zn	1.155180	-0.147090	-0.148957
Zn15	Zn	1.405180	0.102910	0.101043
Zn16	Zn	1.655180	0.352910	0.351043
O17	O	0.964193	-0.338399	-0.339985
O18	O	1.214193	-0.088399	-0.089985
O19	O	1.464193	0.161601	0.160015
O20	O	1.714193	0.411601	0.410015
O21	O	1.117296	-0.295273	-0.379808
O22	O	1.367296	-0.045273	-0.129808
O23	O	1.617296	0.204727	0.120192
O24	O	1.867296	0.454727	0.370192
O25	O	1.003932	-0.381578	-0.190455
O26	O	1.253932	-0.131578	0.059545
O27	O	1.503932	0.118422	0.309545
O28	O	1.753932	0.368422	0.559545
O29	O	0.929154	-0.181408	-0.292001
O30	O	1.179154	0.068592	-0.042001
O31	O	1.429154	0.318592	0.207999
O32	O	1.679154	0.568592	0.457999
O33	O	1.113684	-0.381564	-0.300193
O34	O	1.363684	-0.131564	-0.050193
O35	O	1.613684	0.118436	0.199807
O36	O	1.863684	0.368436	0.449807
O37	O	1.012311	-0.181398	-0.375147
O38	O	1.262311	0.068602	-0.125147
O39	O	1.512311	0.318602	0.124853
O40	O	1.762311	0.568602	0.374853
O41	O	0.924387	-0.295296	-0.186924
O42	O	1.174387	-0.045296	0.063076
O43	O	1.424387	0.204704	0.313076
O44	O	1.674387	0.454704	0.563076
O45	O	0.814684	-0.295255	-0.296639
O46	O	1.064684	-0.045255	-0.046639
O47	O	1.314684	0.204745	0.203361
O48	O	1.564684	0.454745	0.453361
O49	O	0.920862	-0.381491	-0.493038
O50	O	1.170862	-0.131491	-0.243038
O51	O	1.420862	0.118509	0.006962
O52	O	1.670862	0.368509	0.256962
O53	O	0.811110	-0.381505	-0.383300
O54	O	1.061110	-0.131505	-0.133300
O55	O	1.311110	0.118495	0.116700
O56	O	1.561110	0.368495	0.366700
O57	O	1.007593	-0.295231	-0.489523
O58	O	1.257593	-0.045231	-0.239523
O59	O	1.507593	0.204769	0.010477
O60	O	1.757593	0.454769	0.260477
O61	O	0.999214	-0.495411	-0.304831
O62	O	1.249214	-0.245411	-0.054831
O63	O	1.499214	0.004589	0.195169
O64	O	1.749214	0.254589	0.445169
O65	O	0.916094	-0.495380	-0.387961
O66	O	1.166094	-0.245380	-0.137961
O67	O	1.416094	0.004620	0.112039
O68	O	1.666094	0.254620	0.362039
C69	C	0.788338	-0.338377	-0.339968
C70	C	1.038338	-0.088377	-0.089968
C71	C	1.288338	0.161623	0.160032
C72	C	1.538338	0.411623	0.410032
C73	C	0.713106	-0.338385	-0.339977
C74	C	0.963106	-0.088385	-0.089977
C75	C	1.213106	0.161615	0.160023
C76	C	1.463106	0.411615	0.410023
C77	C	0.679640	-0.293532	-0.381502
C78	C	0.929640	-0.043532	-0.131502
C79	C	1.179640	0.206468	0.118498
C80	C	1.429640	0.456468	0.368498
C81	C	0.608951	-0.293536	-0.381505
C82	C	0.858951	-0.043536	-0.131505
C83	C	1.108951	0.206464	0.118495
C84	C	1.358951	0.456464	0.368495
C85	C	0.571730	-0.338396	-0.339986
C86	C	0.821730	-0.088396	-0.089986
C87	C	1.071730	0.161604	0.160014
C88	C	1.321730	0.411604	0.410014
C89	C	0.605201	-0.383251	-0.298456
C90	C	0.855201	-0.133251	-0.048456
C91	C	1.105201	0.116749	0.201544
C92	C	1.355201	0.366749	0.451544
C93	C	0.675888	-0.383243	-0.298450
C94	C	0.925888	-0.133243	-0.048450
C95	C	1.175888	0.116757	0.201550
C96	C	1.425888	0.366757	0.451550
C97	C	0.320126	-0.383282	-0.298478
C98	C	0.570126	-0.133282	-0.048478
C99	C	0.820126	0.116718	0.201522
C100	C	1.070126	0.366718	0.451522
C101	C	0.249434	-0.383288	-0.298489
C102	C	0.499434	-0.133288	-0.048489
C103	C	0.749434	0.116712	0.201511
C104	C	0.999434	0.366712	0.451511
C105	C	0.253189	-0.293575	-0.381532
C106	C	0.503189	-0.043575	-0.131532
C107	C	0.753189	0.206425	0.118468
C108	C	1.003189	0.456425	0.368468
C109	C	0.323877	-0.293567	-0.381527
C110	C	0.573877	-0.043567	-0.131527
C111	C	0.823877	0.206433	0.118473
C112	C	1.073877	0.456433	0.368473
C113	C	0.357342	-0.338419	-0.339995
C114	C	0.607342	-0.088419	-0.089995
C115	C	0.857342	0.161581	0.160005
C116	C	1.107342	0.411581	0.410005
C117	C	0.433990	-0.338414	-0.339991
C118	C	0.683990	-0.088414	-0.089991
C119	C	0.933990	0.161586	0.160009
C120	C	1.183990	0.411586	0.410009
C121	C	0.495082	-0.338406	-0.339992
C122	C	0.745082	-0.088406	-0.089992
C123	C	0.995082	0.161594	0.160008
C124	C	1.245082	0.411594	0.410008
C125	C	0.956611	-0.520880	-0.347452
C126	C	1.206611	-0.270880	-0.097452
C127	C	1.456611	-0.020880	0.152548
C128	C	1.706611	0.229120	0.402548
C129	C	0.953430	-0.598946	-0.350668
C130	C	1.203430	-0.348946	-0.100668
C131	C	1.453430	-0.098946	0.149332
C132	C	1.703430	0.151054	0.399332
C133	C	0.995244	-0.635614	-0.308934
C134	C	1.245244	-0.385614	-0.058934
C135	C	1.495244	-0.135614	0.191066
C136	C	1.745244	0.114386	0.441066
C137	C	0.992256	-0.708966	-0.311964
C138	C	1.242256	-0.458966	-0.061964
C139	C	1.492256	-0.208966	0.188036
C140	C	1.742256	0.041034	0.438036
C141	C	0.947449	-0.745647	-0.356724
C142	C	1.197449	-0.495647	-0.106724
C143	C	1.447449	-0.245647	0.143276
C144	C	1.697449	0.004353	0.393276
C145	C	0.905632	-0.708973	-0.398463
C146	C	1.155632	-0.458973	-0.148463
C147	C	1.405632	-0.208973	0.101537
C148	C	1.655632	0.041027	0.351537
C149	C	0.908625	-0.635623	-0.395436
C150	C	1.158625	-0.385623	-0.145436
C151	C	1.408625	-0.135623	0.104564
C152	C	1.658625	0.114377	0.354564
C153	C	0.936251	-0.967116	-0.368029
C154	C	1.186251	-0.717116	-0.118029
C155	C	1.436251	-0.467116	0.131971
C156	C	1.686251	-0.217116	0.381971
C157	C	0.933260	-1.040472	-0.371051
C158	C	1.183260	-0.790472	-0.121051
C159	C	1.433260	-0.540472	0.128949
C160	C	1.683260	-0.290472	0.378949
C161	C	1.019885	-1.040459	-0.284552
C162	C	1.269885	-0.790459	-0.034552
C163	C	1.519885	-0.540459	0.215448
C164	C	1.769885	-0.290459	0.465448
C165	C	1.022870	-0.967108	-0.281527
C166	C	1.272870	-0.717108	-0.031527
C167	C	1.522870	-0.467108	0.218473
C168	C	1.772870	-0.217108	0.468473
C169	C	0.981056	-0.930440	-0.323268
C170	C	1.231056	-0.680440	-0.073268
C171	C	1.481056	-0.430440	0.176732
C172	C	1.731056	-0.180440	0.426732
C173	C	0.944392	-0.820624	-0.359820
C174	C	1.194392	-0.570624	-0.109820
C175	C	1.444392	-0.320624	0.140180
C176	C	1.694392	-0.070624	0.390180
C177	C	0.984117	-0.855465	-0.320175
C178	C	1.234117	-0.605465	-0.070175
C179	C	1.484117	-0.355465	0.179825
C180	C	1.734117	-0.105465	0.429825
C181	C	1.140735	-0.338422	-0.340003
C182	C	1.390735	-0.088422	-0.090003
C183	C	1.640735	0.161578	0.159997
C184	C	1.890735	0.411578	0.409997
C185	C	1.215967	-0.338431	-0.340011
C186	C	1.465967	-0.088431	-0.090011
C187	C	1.715967	0.161569	0.159989
C188	C	1.965967	0.411569	0.409989
C189	C	0.964233	-0.338355	-0.516526
C190	C	1.214233	-0.088355	-0.266526
C191	C	1.464233	0.161645	-0.016526
C192	C	1.714233	0.411645	0.233474
C193	C	0.964250	-0.338336	-0.591757
C194	C	1.214250	-0.088336	-0.341757
C195	C	1.464250	0.161664	-0.091757
C196	C	1.714250	0.411664	0.158243
C197	C	0.971823	-0.155206	-0.332504
C198	C	1.221823	0.094794	-0.082504
C199	C	1.471823	0.344794	0.167496
C200	C	1.721823	0.594794	0.417496
C201	C	0.975075	-0.077140	-0.329316
C202	C	1.225075	0.172860	-0.079316
C203	C	1.475075	0.422860	0.170684
C204	C	1.725075	0.672860	0.420684
C205	C	1.009412	-0.293418	-0.625272
C206	C	1.259412	-0.043418	-0.375272
C207	C	1.509412	0.206582	-0.125272
C208	C	1.759412	0.456582	0.124728
C209	C	1.009420	-0.293398	-0.695960
C210	C	1.259420	-0.043398	-0.445960
C211	C	1.509420	0.206602	-0.195960
C212	C	1.759420	0.456602	0.054040
C213	C	0.964268	-0.338299	-0.733131
C214	C	1.214268	-0.088299	-0.483131
C215	C	1.464268	0.161701	-0.233131
C216	C	1.714268	0.411701	0.016869
C217	C	0.919101	-0.383219	-0.699611
C218	C	1.169101	-0.133219	-0.449611
C219	C	1.419101	0.116781	-0.199611
C220	C	1.669101	0.366781	0.050389
C221	C	0.919091	-0.383236	-0.628925
C222	C	1.169091	-0.133236	-0.378925
C223	C	1.419091	0.116764	-0.128925
C224	C	1.669091	0.366764	0.121075
C225	C	0.919142	-0.383154	-0.984682
C226	C	1.169142	-0.133154	-0.734682
C227	C	1.419142	0.116846	-0.484682
C228	C	1.669142	0.366846	-0.234682
C229	C	0.919158	-0.383136	-1.055374
C230	C	1.169158	-0.133136	-0.805374
C231	C	1.419158	0.116864	-0.555374
C232	C	1.669158	0.366864	-0.305374
C233	C	1.009472	-0.293316	-1.051717
C234	C	1.259472	-0.043316	-0.801717
C235	C	1.509472	0.206684	-0.551717
C236	C	1.759472	0.456684	-0.301717
C237	C	1.009461	-0.293332	-0.981031
C238	C	1.259461	-0.043332	-0.731031
C239	C	1.509461	0.206668	-0.481031
C240	C	1.759461	0.456668	-0.231031
C241	C	0.964292	-0.338249	-0.947517
C242	C	1.214292	-0.088249	-0.697517
C243	C	1.464292	0.161751	-0.447517
C244	C	1.714292	0.411751	-0.197517
C245	C	0.964283	-0.338270	-0.870869
C246	C	1.214283	-0.088270	-0.620869
C247	C	1.464283	0.161730	-0.370869
C248	C	1.714283	0.411730	-0.120869
C249	C	0.964280	-0.338283	-0.809778
C250	C	1.214280	-0.088283	-0.559778
C251	C	1.464280	0.161717	-0.309778
C252	C	1.714280	0.411717	-0.059778
C253	C	0.964195	-0.338393	-0.164129
C254	C	1.214195	-0.088393	0.085871
C255	C	1.464195	0.161607	0.335871
C256	C	1.714195	0.411607	0.585871
C257	C	0.964317	-0.338214	-0.088890
C258	C	1.214317	-0.088214	0.161110
C259	C	1.464317	0.161786	0.411110
C260	C	1.714317	0.411786	0.661110
H261	H	0.581706	-0.257014	-0.415320
H262	H	0.831706	-0.007014	-0.165320
H263	H	1.081706	0.242986	0.084680
H264	H	1.331706	0.492986	0.334680
O265	O	1.071200	-0.927555	-0.233244
O266	O	1.321200	-0.677555	0.016756
O267	O	1.571200	-0.427555	0.266756
O268	O	1.821200	-0.177555	0.516756
H269	H	1.042284	-0.894194	-0.197399
H270	H	1.292284	-0.644194	0.052601
H271	H	1.542284	-0.394194	0.302601
H272	H	1.792284	-0.144194	0.552601
O273	O	1.058116	-0.244987	-0.585187
O274	O	1.308116	0.005013	-0.335187
O275	O	1.558116	0.255013	-0.085187
O276	O	1.808116	0.505013	0.164813
H277	H	1.091243	-0.276435	-0.554278
H278	H	1.341243	-0.026435	-0.304278
H279	H	1.591243	0.223565	-0.054278
H280	H	1.841243	0.473565	0.195722
H281	H	1.046248	-0.256740	-1.079013
H282	H	1.296248	-0.006740	-0.829013
H283	H	1.546248	0.243260	-0.579013
H284	H	1.796248	0.493260	-0.329013
H285	H	1.046197	-0.256823	-0.723245
H286	H	1.296197	-0.006823	-0.473245
H287	H	1.546197	0.243177	-0.223245
H288	H	1.796197	0.493177	0.026755
H289	H	0.902203	-0.937268	-0.402015
H290	H	1.152203	-0.687268	-0.152015
H291	H	1.402203	-0.437268	0.097985
H292	H	1.652203	-0.187268	0.347985
O293	O	1.037354	-0.748517	-0.266949
O294	O	1.287354	-0.498517	-0.016949
O295	O	1.537354	-0.248517	0.233051
O296	O	1.787354	0.001483	0.483051
H297	H	1.026340	-0.734491	-0.213238
H298	H	1.276340	-0.484491	0.036762
H299	H	1.526340	-0.234491	0.286762
H300	H	1.776340	0.015509	0.536762
H301	H	0.882387	-0.419701	-1.085637
H302	H	1.132387	-0.169701	-0.835637
H303	H	1.382387	0.080299	-0.585637
H304	H	1.632387	0.330299	-0.335637
H305	H	0.874575	-0.605768	-0.429421
H306	H	1.124575	-0.355768	-0.179421
H307	H	1.374575	-0.105768	0.070579
H308	H	1.624575	0.144232	0.320579
O309	O	0.719786	-0.245143	-0.426279
O310	O	0.969786	0.004857	-0.176279
O311	O	1.219786	0.254857	0.073721
O312	O	1.469786	0.504857	0.323721
H313	H	0.684636	-0.213948	-0.455147
H314	H	0.934636	0.036052	-0.205147
H315	H	1.184636	0.286052	0.044853
H316	H	1.434636	0.536052	0.294853
H317	H	1.046230	-0.256771	-0.950769
H318	H	1.296230	-0.006771	-0.700769
H319	H	1.546230	0.243229	-0.450769
H320	H	1.796230	0.493229	-0.200769
O321	O	1.032448	-0.815899	-0.271906
O322	O	1.282448	-0.565899	-0.021906
O323	O	1.532448	-0.315899	0.228094
O324	O	1.782448	-0.065899	0.478094
H325	H	1.020301	-0.830018	-0.219353
H326	H	1.270301	-0.580018	0.030647
H327	H	1.520301	-0.330018	0.280647
H328	H	1.770301	-0.080018	0.530647
H329	H	0.219130	-0.419821	-0.264677
H330	H	0.469130	-0.169821	-0.014677
H331	H	0.719130	0.080179	0.235323
H332	H	0.969130	0.330179	0.485323
O333	O	0.217091	-0.245193	-0.426323
O334	O	0.467091	0.004807	-0.176323
O335	O	0.717091	0.254807	0.073677
O336	O	0.967091	0.504807	0.323677
H337	H	0.254850	-0.214005	-0.455197
H338	H	0.504850	0.035995	-0.205197
H339	H	0.754850	0.285995	0.044803
H340	H	1.004850	0.535995	0.294803
O341	O	0.884925	-1.080042	-0.419323
O342	O	1.134925	-0.830042	-0.169323
O343	O	1.384925	-0.580042	0.080677
O344	O	1.634925	-0.330042	0.330677
H345	H	0.913835	-1.113424	-0.455154
H346	H	1.163835	-0.863424	-0.205154
H347	H	1.413835	-0.613424	0.044846
H348	H	1.663835	-0.363424	0.294846
O349	O	1.065003	-1.080005	-0.239552
O350	O	1.315003	-0.830005	0.010448
O351	O	1.565003	-0.580005	0.260448
O352	O	1.815003	-0.330005	0.510448
H353	H	1.055406	-1.137172	-0.249183
H354	H	1.305406	-0.887172	0.000817
H355	H	1.555406	-0.637172	0.250817
H356	H	1.805406	-0.387172	0.500817
H357	H	0.354179	-0.257040	-0.415338
H358	H	0.604179	-0.007040	-0.165338
H359	H	0.854179	0.242960	0.084662
H360	H	1.104179	0.492960	0.334662
H361	H	0.869152	-0.738845	-0.434911
H362	H	1.119152	-0.488845	-0.184911
H363	H	1.369152	-0.238845	0.065089
H364	H	1.619152	0.011155	0.315089
H365	H	0.907908	-0.850498	-0.396263
H366	H	1.157908	-0.600498	-0.146263
H367	H	1.407908	-0.350498	0.103737
H368	H	1.657908	-0.100498	0.353737
H369	H	0.882372	-0.419738	-0.957404
H370	H	1.132372	-0.169738	-0.707404
H371	H	1.382372	0.080262	-0.457404
H372	H	1.632372	0.330262	-0.207404
O373	O	0.870396	-0.431647	-0.739698
O374	O	1.120396	-0.181647	-0.489698
O375	O	1.370396	0.068353	-0.239698
O376	O	1.620396	0.318353	0.010302
H377	H	0.877993	-0.424094	-0.794482
H378	H	1.127993	-0.174094	-0.544482
H379	H	1.377993	0.075906	-0.294482
H380	H	1.627993	0.325906	-0.044482
H381	H	0.882308	-0.419805	-0.601638
H382	H	1.132308	-0.169805	-0.351638
H383	H	1.382308	0.080195	-0.101638
H384	H	1.632308	0.330195	0.148362
H385	H	0.703135	-0.419766	-0.264636
H386	H	0.953135	-0.169766	-0.014636
H387	H	1.203135	0.080234	0.235364
H388	H	1.453135	0.330234	0.485364
O389	O	0.356217	-0.431653	-0.253684
O390	O	0.606217	-0.181653	-0.003684
O391	O	0.856217	0.068347	0.246316
O392	O	1.106217	0.318347	0.496316
H393	H	0.318457	-0.462850	-0.224819
H394	H	0.568457	-0.212850	0.025181
H395	H	0.818457	0.037150	0.275181
H396	H	1.068457	0.287150	0.525181
H397	H	0.574890	-0.419773	-0.264647
H398	H	0.824890	-0.169773	-0.014647
H399	H	1.074890	0.080227	0.235353
H400	H	1.324890	0.330227	0.485353
O401	O	1.043575	-0.596051	-0.260659
O402	O	1.293575	-0.346051	-0.010659
O403	O	1.543575	-0.096051	0.239341
O404	O	1.793575	0.153949	0.489341
H405	H	1.072155	-0.633876	-0.232154
H406	H	1.322155	-0.383876	0.017846
H407	H	1.572155	-0.133876	0.267846
H408	H	1.822155	0.116124	0.517846
