data_functionalizedCrystal
_audit_creation_method	'MofGen! by Chris Wilmer'
_symmetry_space_group_name_H-M	'P1'
_symmetry_Int_Tables_number	1
_symmetry_cell_setting	triclinic
loop_
_symmetry_equiv_pos_as_xyz
  x,y,z
_cell_length_a	10.489741
_cell_length_b	11.792241
_cell_length_c	10.868271
_cell_angle_alpha	89.999844
_cell_angle_beta	90.001126
_cell_angle_gamma	95.633705
loop_
_atom_site_label
_atom_site_type_symbol
_atom_site_fract_x
_atom_site_fract_y
_atom_site_fract_z
O1	O	0.174825	-1.507381	0.102202
O2	O	0.674825	-1.007381	0.602202
O3	O	0.192844	-1.177088	0.102231
O4	O	0.692844	-0.677088	0.602231
O5	O	-0.001789	-1.349750	0.102208
O6	O	0.498211	-0.849750	0.602208
O7	O	0.369458	-1.334719	0.102224
O8	O	0.869458	-0.834719	0.602224
O9	O	-0.001783	-1.349734	-0.102436
O10	O	0.498217	-0.849734	0.397564
O11	O	0.192850	-1.177073	-0.102414
O12	O	0.692850	-0.677073	0.397586
O13	O	0.174832	-1.507365	-0.102443
O14	O	0.674832	-1.007365	0.397557
Zn15	Zn	0.183842	-1.342216	-0.134920
Zn16	Zn	0.683842	-0.842216	0.365080
Zn17	Zn	0.183834	-1.342237	0.134708
Zn18	Zn	0.683834	-0.842237	0.634708
O19	O	0.369464	-1.334703	-0.102420
O20	O	0.869464	-0.834703	0.397580
C21	C	0.191715	-1.134786	-0.000088
C22	C	0.691715	-0.634786	0.499912
C23	C	0.188327	-1.008764	-0.000077
C24	C	0.688327	-0.508764	0.499923
C25	C	-0.049314	-1.348607	-0.000113
C26	C	0.450686	-0.848607	0.499887
C27	C	-0.190931	-1.345210	-0.000111
C28	C	0.309069	-0.845210	0.499889
C29	C	0.175960	-1.549667	-0.000121
C30	C	0.675960	-1.049667	0.499879
C31	C	0.179348	-1.675690	-0.000124
C32	C	0.679348	-1.175690	0.499876
C33	C	-0.258697	-1.235351	-0.000092
C34	C	0.241303	-0.735351	0.499908
C35	C	-0.350993	-1.287240	-0.100997
C36	C	0.149007	-0.787240	0.399003
C37	C	-0.350974	-1.287281	0.100767
C38	C	0.149026	-0.787281	0.600767
C39	C	-0.281362	-1.397145	-0.101099
C40	C	0.218638	-0.897145	0.398901
C41	C	-0.281334	-1.397171	0.100755
C42	C	0.218666	-0.897171	0.600755
C43	C	-0.373603	-1.449140	-0.000174
C44	C	0.126397	-0.949140	0.499826
C45	C	0.416989	-1.335846	-0.000096
C46	C	0.916989	-0.835846	0.499904
C47	C	0.558607	-1.339243	-0.000091
C48	C	1.058607	-0.839243	0.499909
N49	N	0.183847	-1.342210	-0.318934
N50	N	0.683847	-0.842210	0.181066
C51	C	0.182098	-0.778035	-0.000113
C52	C	0.682098	-0.278035	0.499887
C53	C	0.185559	-0.906429	-0.000093
C54	C	0.685559	-0.406429	0.499907
C55	C	0.183847	-1.342219	-0.430272
C56	C	0.683847	-0.842219	0.069728
C57	C	0.183835	-1.342234	-0.569949
C58	C	0.683835	-0.842234	-0.069949
N59	N	0.183819	-1.342252	0.318722
N60	N	0.683819	-0.842252	0.818722
H61	H	-0.208738	-1.145025	-0.000186
H62	H	0.291262	-0.645025	0.499814
Br63	Br	-0.230244	-1.474550	-0.243442
Br64	Br	0.269756	-0.974550	0.256558
H65	H	-0.381782	-1.240790	0.186082
H66	H	0.118218	-0.740790	0.686082
H67	H	-0.250450	-1.443622	0.186060
H68	H	0.249550	-0.943622	0.686060
Br69	Br	-0.402412	-1.209758	-0.243173
Br70	Br	0.097588	-0.709758	0.256827
Br71	Br	-0.456498	-1.599822	-0.000272
Br72	Br	0.043502	-1.099822	0.499728
