data_functionalizedCrystal
_audit_creation_method	'MofGen! by Chris Wilmer'
_symmetry_space_group_name_H-M	'P1'
_symmetry_Int_Tables_number	1
_symmetry_cell_setting	triclinic
loop_
_symmetry_equiv_pos_as_xyz
  x,y,z
_cell_length_a	17.000371
_cell_length_b	16.956995
_cell_length_c	16.053802
_cell_angle_alpha	92.373609
_cell_angle_beta	87.622785
_cell_angle_gamma	75.826860
loop_
_atom_site_label
_atom_site_type_symbol
_atom_site_fract_x
_atom_site_fract_y
_atom_site_fract_z
O1	O	1.057799	0.025257	-0.069432
O2	O	0.824153	0.054331	-0.069433
O3	O	0.955012	-0.077268	-0.069429
O4	O	0.926940	0.156857	-0.069436
O5	O	0.947811	-0.070053	0.069430
O6	O	0.816953	0.061547	0.069426
O7	O	1.050598	0.032473	0.069426
Zn8	Zn	0.932632	0.048155	0.091473
Zn9	Zn	0.942120	0.038648	-0.091479
O10	O	0.919739	0.164072	0.069423
C11	C	0.790797	0.059501	-0.000003
C12	C	0.702132	0.064145	-0.000003
C13	C	0.674808	-0.007316	0.000000
C14	C	0.591498	-0.002949	-0.000006
C15	C	0.535513	0.072881	-0.000010
C16	C	0.562843	0.144347	-0.000016
C17	C	0.646152	0.139979	-0.000016
C18	C	0.283258	0.089756	-0.000016
C19	C	0.199944	0.094120	-0.000013
C20	C	0.228605	-0.053177	-0.000005
C21	C	0.311914	-0.057539	-0.000000
C22	C	0.339236	0.013927	-0.000011
C23	C	0.450357	0.077348	-0.000013
C24	C	0.424392	0.009460	-0.000013
C25	C	0.952849	-0.103469	-0.000001
C26	C	0.957122	-0.192290	-0.000004
C27	C	1.083955	0.027303	-0.000005
C28	C	1.172619	0.022659	-0.000010
C29	C	0.989090	-0.693832	-0.000007
C30	C	0.985069	-0.610374	-0.000002
C31	C	0.909586	-0.553994	-0.000006
C32	C	0.838120	-0.581073	-0.000006
C33	C	0.842142	-0.664529	-0.000005
C34	C	0.889678	-0.302825	-0.000003
C35	C	0.885661	-0.219365	-0.000007
C36	C	1.032611	-0.248671	-0.000001
C37	C	1.036627	-0.332128	-0.000005
C38	C	0.965160	-0.359200	-0.000001
N39	N	0.905473	-0.468686	-0.000003
N40	N	0.969273	-0.444505	0.000003
C41	C	0.921903	0.190273	-0.000007
C42	C	0.917630	0.279093	-0.000010
N43	N	0.926163	0.054643	0.216333
N44	N	0.948595	0.032154	-0.216339
C45	C	0.981861	-0.001336	0.260029
C46	C	0.977343	0.003209	0.347435
C47	C	0.917129	0.063737	0.391145
C48	C	0.861425	0.119719	0.347443
C49	C	0.865940	0.115169	0.260038
C50	C	0.897407	0.083586	0.652554
C51	C	0.892897	0.088133	0.739965
C52	C	1.008814	-0.028378	0.739951
C53	C	1.013328	-0.032919	0.652544
C54	C	0.957621	0.023060	0.608850
N55	N	0.912511	0.068386	0.480489
N56	N	0.962236	0.018407	0.519508
H57	H	0.154361	0.155873	-0.000012
H58	H	0.668396	0.198170	-0.000015
Br59	Br	0.500372	-0.093449	-0.000014
Br60	Br	1.082057	-0.573634	-0.000018
H61	H	0.852049	0.129168	0.616985
H62	H	0.305493	0.147949	-0.000030
Br63	Br	0.790341	0.191139	0.200737
Br64	Br	0.783213	-0.142847	-0.000011
Br65	Br	1.139072	-0.408640	0.000001
H66	H	0.569256	-0.061140	-0.000004
Br67	Br	0.374372	0.180257	-0.000022
Br68	Br	1.063590	-0.083480	0.200718
H69	H	1.022696	-0.042373	0.383012
Br70	Br	0.486865	0.247260	-0.000032
H71	H	1.050557	-0.739733	-0.000010
H72	H	0.720386	-0.069065	0.000006
H73	H	0.831486	-0.324857	-0.000010
Br74	Br	0.387888	-0.160454	0.000015
H75	H	1.062358	-0.082205	0.616958
Br76	Br	0.191520	-0.150161	0.000006
H77	H	1.090796	-0.226620	-0.000010
H78	H	0.776659	-0.535161	-0.000005
H79	H	0.783950	-0.686571	-0.000001
Br80	Br	0.779699	0.201860	0.406760
H81	H	1.054167	-0.073954	0.775535
Br82	Br	0.811174	0.170289	0.799280
