data_functionalizedCrystal
_audit_creation_method	'MofGen! by Chris Wilmer'
_symmetry_space_group_name_H-M	'P1'
_symmetry_Int_Tables_number	1
_symmetry_cell_setting	triclinic
loop_
_symmetry_equiv_pos_as_xyz
  x,y,z
_cell_length_a	10.723024
_cell_length_b	10.723024
_cell_length_c	9.798715
_cell_angle_alpha	90.001978
_cell_angle_beta	90.003391
_cell_angle_gamma	84.467869
loop_
_atom_site_label
_atom_site_type_symbol
_atom_site_fract_x
_atom_site_fract_y
_atom_site_fract_z
O1	O	-1.657187	-0.175024	-0.113478
O2	O	-1.294035	-0.191778	-0.113483
O3	O	-1.483988	-0.001825	-0.113475
O4	O	-1.467234	-0.364977	-0.113486
O5	O	-1.483974	-0.001824	0.113507
O6	O	-1.294021	-0.191777	0.113499
O7	O	-1.657173	-0.175024	0.113504
Zn8	Zn	-1.475595	-0.183401	0.149540
Zn9	Zn	-1.475613	-0.183401	-0.149519
O10	O	-1.467220	-0.364977	0.113496
C11	C	-1.482762	0.044675	0.000014
C12	C	-1.479114	0.183229	0.000009
C13	C	-1.247528	-0.190558	0.000008
C14	C	-1.108974	-0.186911	0.000006
C15	C	-1.703680	-0.176243	0.000010
C16	C	-1.842234	-0.179891	0.000003
C17	C	-1.033991	-0.293198	0.000002
C18	C	-0.890788	-0.289431	0.000001
C19	C	-1.468447	-0.411477	0.000004
C20	C	-1.472094	-0.550031	-0.000000
N21	N	-1.475591	-0.183399	0.353640
C22	C	-1.585401	0.258212	0.000009
C23	C	-1.581634	0.401415	0.000004
N24	N	-1.475627	-0.183393	-0.353619
C25	C	-1.555347	-0.103292	0.421420
C26	C	-1.555367	-0.103288	0.578582
H27	H	-0.826355	-0.380421	-0.000008
H28	H	-1.381099	0.385544	0.000010
H29	H	-1.407319	-0.251975	0.411961
C30	C	-0.929260	-0.056955	0.000007
C31	C	-1.022600	-0.028193	0.117875
C32	C	-1.109637	0.094743	0.117880
C33	C	-1.103334	0.188917	0.000017
C34	C	-1.009991	0.160158	-0.117860
C35	C	-0.922954	0.037222	-0.117864
H36	H	-1.027269	-0.097909	0.205132
H37	H	-1.178735	0.116032	0.205140
H38	H	-1.167764	0.279922	0.000020
H39	H	-1.005322	0.229874	-0.205117
H40	H	-0.853855	0.015933	-0.205125
H41	H	-1.067152	-0.093125	-0.000026
C42	C	-1.383372	-0.276054	0.567658
C43	C	-1.241180	-0.272414	0.586375
C44	C	-1.148926	-0.365075	0.507639
C45	C	-1.198863	-0.461375	0.410188
C46	C	-1.341062	-0.465019	0.391467
C47	C	-1.433317	-0.372358	0.470202
H48	H	-1.204207	-0.201124	0.658518
H49	H	-1.043661	-0.362378	0.521499
H50	H	-1.130571	-0.529969	0.351903
H51	H	-1.378036	-0.536309	0.319323
H52	H	-1.538582	-0.375055	0.456343
C53	C	-1.352407	0.239713	0.000005
C54	C	-1.259160	0.210470	0.117870
C55	C	-1.132449	0.266950	0.117866
C56	C	-1.098984	0.352673	-0.000004
C57	C	-1.192233	0.381921	-0.117877
C58	C	-1.318944	0.325441	-0.117873
H59	H	-1.283931	0.147009	0.205132
H60	H	-1.063420	0.245298	0.205124
H61	H	-1.005185	0.394483	-0.000007
H62	H	-1.167462	0.445382	-0.205139
H63	H	-1.387973	0.347092	-0.205132
C64	C	-1.647579	-0.010638	0.342647
C65	C	-1.647312	-0.010653	0.185491
C66	C	-1.739548	0.082005	0.106723
C67	C	-1.832051	0.174678	0.185112
C68	C	-1.832322	0.174697	0.342277
C69	C	-1.740086	0.082039	0.421045
H70	H	-1.578832	-0.079259	0.127455
H71	H	-1.739347	0.081991	-0.009621
H72	H	-1.900329	0.243269	0.126804
H73	H	-1.900801	0.243303	0.400314
H74	H	-1.740286	0.082053	0.537389
C75	C	-1.647618	-0.010630	0.657314
C76	C	-1.789795	-0.013568	0.637722
C77	C	-1.882050	0.079093	0.716457
C78	C	-1.832127	0.174692	0.814785
C79	C	-1.689942	0.177633	0.834381
C80	C	-1.597688	0.084972	0.755646
H81	H	-1.826758	-0.084339	0.564930
H82	H	-1.987304	0.076915	0.701950
H83	H	-1.900419	0.243285	0.873069
H84	H	-1.652980	0.248404	0.907173
H85	H	-1.492433	0.087150	0.770154
H86	H	-1.679187	0.216390	0.000018
H87	H	-1.075814	-0.386984	0.000007
H88	H	-1.672624	0.465848	0.000009
