data_functionalizedCrystal
_audit_creation_method	'MofGen! by Chris Wilmer'
_symmetry_space_group_name_H-M	'P1'
_symmetry_Int_Tables_number	1
_symmetry_cell_setting	triclinic
loop_
_symmetry_equiv_pos_as_xyz
  x,y,z
_cell_length_a	6.817900
_cell_length_b	9.582860
_cell_length_c	14.858572
_cell_angle_alpha	92.654604
_cell_angle_beta	104.524003
_cell_angle_gamma	111.206767
loop_
_atom_site_label
_atom_site_type_symbol
_atom_site_fract_x
_atom_site_fract_y
_atom_site_fract_z
V1	V	-4.078434	-0.207997	-0.289789
O2	O	-4.023872	0.009026	-0.284448
O3	O	-4.069119	-0.411491	-0.287638
O4	O	-4.034539	-0.205223	-0.416253
O5	O	-4.058691	-0.198670	-0.154943
V6	V	-4.556414	-0.181988	-0.273681
O7	O	-4.351852	-0.265049	-0.325124
O8	O	-4.733193	-0.124936	-0.238346
O9	O	-4.342523	0.021506	-0.275831
O10	O	-4.728373	-0.399011	-0.279022
O11	O	-4.693554	-0.191315	-0.408527
O12	O	-4.377102	-0.184762	-0.147217
C13	C	-3.923482	-0.461085	-0.283023
C14	C	-3.997182	-0.627447	-0.282108
C15	C	-3.879371	-0.197968	-0.447083
C16	C	-3.925024	-0.197046	-0.550467
C17	C	-4.092116	-0.193677	-0.929037
C18	C	-4.045618	-0.194615	-0.823707
C19	C	-4.008572	-0.195363	-0.739755
C20	C	-3.962070	-0.196298	-0.634418
C21	C	-4.151503	0.071092	-0.280444
C22	C	-4.057041	0.237452	-0.281365
C23	C	-4.195614	-0.192022	-0.116382
C24	C	-4.129197	-0.192936	-0.012997
