data_functionalizedCrystal
_audit_creation_method	'MofGen! by Chris Wilmer'
_symmetry_space_group_name_H-M	'P1'
_symmetry_Int_Tables_number	1
_symmetry_cell_setting	triclinic
loop_
_symmetry_equiv_pos_as_xyz
  x,y,z
_cell_length_a	15.625950
_cell_length_b	14.971486
_cell_length_c	13.448316
_cell_angle_alpha	89.993189
_cell_angle_beta	108.066650
_cell_angle_gamma	83.945110
loop_
_atom_site_label
_atom_site_type_symbol
_atom_site_fract_x
_atom_site_fract_y
_atom_site_fract_z
O1	O	1.196180	0.116846	0.348495
O2	O	1.696180	0.616846	0.848495
O3	O	0.933755	0.130743	0.253897
O4	O	1.433755	0.630743	0.753897
O5	O	1.072001	-0.006404	0.303739
O6	O	1.572001	0.493596	0.803739
O7	O	1.057934	0.253993	0.298653
O8	O	1.557934	0.753993	0.798653
O9	O	1.071984	-0.006413	0.469116
O10	O	1.571984	0.493587	0.969116
O11	O	0.933737	0.130734	0.419274
O12	O	1.433737	0.630734	0.919274
O13	O	1.196163	0.116837	0.513873
O14	O	1.696163	0.616837	1.013873
Cu15	Cu	1.064949	0.123785	0.481674
Cu16	Cu	1.564949	0.623785	0.981674
Cu17	Cu	1.064969	0.123795	0.286096
Cu18	Cu	1.564969	0.623795	0.786096
O19	O	1.057916	0.253984	0.464031
O20	O	1.557916	0.753984	0.964031
C21	C	1.071363	-0.039733	0.386200
C22	C	1.571363	0.460267	0.886200
C23	C	1.069478	-0.139031	0.385520
C24	C	1.569478	0.360969	0.885520
C25	C	0.900162	0.130106	0.324479
C26	C	1.400162	0.630106	0.824479
C27	C	0.800093	0.128212	0.288406
C28	C	1.300093	0.628212	0.788406
C29	C	1.150694	-0.196237	0.414797
C30	C	1.650694	0.303763	0.914797
C31	C	1.148917	-0.289537	0.414147
C32	C	1.648917	0.210463	0.914147
C33	C	1.065924	-0.325629	0.384226
C34	C	1.565924	0.174371	0.884226
C35	C	0.984701	-0.268415	0.354943
C36	C	1.484701	0.231585	0.854943
C37	C	0.986479	-0.175117	0.355587
C38	C	1.486479	0.324883	0.855587
C39	C	0.981002	-0.462879	0.353606
C40	C	1.481002	0.037121	0.853606
C41	C	0.979223	-0.556183	0.352964
C42	C	1.479223	-0.056183	0.852964
C43	C	1.143440	-0.577298	0.412166
C44	C	1.643440	-0.077298	0.912166
C45	C	1.145218	-0.484000	0.412809
C46	C	1.645218	0.016000	0.912809
C47	C	1.063995	-0.426793	0.383528
C48	C	1.563995	0.073207	0.883528
C49	C	0.470836	0.122008	0.620382
C50	C	0.970836	0.622008	1.120382
C51	C	0.376803	0.120246	0.586440
C52	C	0.876803	0.620246	1.086440
C53	C	0.376869	0.120256	0.406169
C54	C	0.876869	0.620256	0.906169
C55	C	0.470903	0.122023	0.440096
C56	C	0.970903	0.622023	0.940096
C57	C	0.517879	0.122898	0.547204
C58	C	1.017879	0.622898	1.047204
C59	C	0.517946	0.122912	0.366917
C60	C	1.017946	0.622912	0.866917
C61	C	0.611973	0.124674	0.400843
C62	C	1.111973	0.624674	0.900843
C63	C	0.658956	0.125546	0.507946
C64	C	1.158956	0.625546	1.007946
C65	C	0.611906	0.124659	0.581129
C66	C	1.111906	0.624659	1.081129
C67	C	0.470969	0.122031	0.259810
C68	C	0.970969	0.622031	0.759810
C69	C	0.518012	0.122920	0.186632
C70	C	1.018012	0.622920	0.686632
C71	C	0.612039	0.124689	0.220556
C72	C	1.112039	0.624689	0.720556
C73	C	0.659023	0.125561	0.327660
C74	C	1.159023	0.625561	0.827660
C75	C	0.659090	0.125575	0.147373
C76	C	1.159090	0.625575	0.647373
C77	C	0.753116	0.127337	0.181298
C78	C	1.253116	0.627337	0.681298
C79	C	0.753049	0.127323	0.361585
C80	C	1.253049	0.627323	0.861585
C81	C	1.229756	0.117473	0.443288
C82	C	1.729756	0.617473	0.943288
C83	C	1.329825	0.119368	0.479354
C84	C	1.829825	0.619368	0.979354
C85	C	1.058554	0.287313	0.381567
C86	C	1.558554	0.787313	0.881567
C87	C	1.060439	0.386611	0.382241
C88	C	1.560439	0.886611	0.882241
N89	N	1.064941	0.123777	0.619235
N90	N	1.564941	0.623777	1.119235
N91	N	1.064984	0.123795	0.148537
N92	N	1.564984	0.623795	0.648537
C93	C	1.126175	0.063074	0.693352
C94	C	1.626175	0.563074	1.193352
C95	C	1.126181	0.063073	0.797458
C96	C	1.626181	0.563073	1.297458
C97	C	1.064956	0.123781	0.827445
C98	C	1.564956	0.623781	1.327445
C99	C	1.003714	0.184487	0.753318
C100	C	1.503714	0.684487	1.253318
C101	C	1.003705	0.184483	0.649214
C102	C	1.503705	0.684483	1.149214
C103	C	1.003739	0.184493	0.970307
C104	C	1.503739	0.684493	1.470307
C105	C	1.003750	0.184499	1.074420
C106	C	1.503750	0.684499	1.574420
C107	C	1.126215	0.063083	1.118552
C108	C	1.626215	0.563083	1.618552
C109	C	1.126206	0.063079	1.014447
C110	C	1.626206	0.563079	1.514447
C111	C	1.064966	0.123787	0.940327
C112	C	1.564966	0.623787	1.440327
H113	H	1.218277	-0.166859	0.439168
H114	H	1.718277	0.333141	0.939168
H115	H	1.176036	0.013642	0.668947
H116	H	1.676036	0.513642	1.168947
Br117	Br	0.872065	-0.317396	0.314318
Br118	Br	1.372065	0.182604	0.814318
Br119	Br	0.866588	-0.605165	0.312361
Br120	Br	1.366588	-0.105165	0.812361
Br121	Br	0.343364	0.119606	0.213769
Br122	Br	0.843364	0.619606	0.713769
H123	H	0.509085	0.122734	0.707600
H124	H	1.009085	0.622734	1.207600
H125	H	1.209575	-0.623881	0.436004
H126	H	1.709575	-0.123881	0.936004
Br127	Br	0.870770	-0.385240	0.313863
Br128	Br	1.370770	0.114760	0.813863
Br129	Br	0.312963	0.119018	0.685767
Br130	Br	0.812963	0.619018	1.185767
H131	H	1.176042	0.013643	0.857805
H132	H	1.676042	0.513643	1.357805
H133	H	0.953893	0.233933	1.098827
H134	H	1.453893	0.733933	1.598827
H135	H	0.953859	0.233914	0.777738
H136	H	1.453859	0.733914	1.277738
Br137	Br	1.209305	-0.019302	0.973749
Br138	Br	1.709305	0.480698	1.473749
Br139	Br	1.259144	-0.367172	0.453882
Br140	Br	1.759144	0.132828	0.953882
H141	H	1.176079	0.013653	1.178906
H142	H	1.676079	0.513653	1.678906
H143	H	0.953868	0.233926	0.909959
H144	H	1.453868	0.733926	1.409959
Br145	Br	0.920591	0.266865	0.548622
Br146	Br	1.420591	0.766865	1.048622
H147	H	0.920344	-0.128540	0.331746
H148	H	1.420344	0.371460	0.831746
H149	H	1.212799	-0.454618	0.437181
H150	H	1.712799	0.045382	0.937181
Br151	Br	0.595331	0.124344	0.002020
Br152	Br	1.095331	0.624344	0.502020
H153	H	0.791298	0.128049	0.448802
H154	H	1.291298	0.628049	0.948802
Br155	Br	0.786567	0.127926	0.553993
Br156	Br	1.286567	0.627926	1.053993
Br157	Br	0.675666	0.125862	0.726491
Br158	Br	1.175666	0.625862	1.226491
Br159	Br	0.816967	0.128538	0.081986
Br160	Br	1.316967	0.628538	0.581986
H161	H	0.479752	0.122204	0.099424
H162	H	0.979752	0.622204	0.599424
H163	H	0.338608	0.119539	0.318961
H164	H	0.838608	0.619539	0.818961
