data_functionalizedCrystal
_audit_creation_method	'MofGen! by Chris Wilmer'
_symmetry_space_group_name_H-M	'P1'
_symmetry_Int_Tables_number	1
_symmetry_cell_setting	triclinic
loop_
_symmetry_equiv_pos_as_xyz
  x,y,z
_cell_length_a	21.395362
_cell_length_b	13.897447
_cell_length_c	21.395356
_cell_angle_alpha	89.976474
_cell_angle_beta	89.957023
_cell_angle_gamma	90.035409
loop_
_atom_site_label
_atom_site_type_symbol
_atom_site_fract_x
_atom_site_fract_y
_atom_site_fract_z
Zn1	Zn	0.957902	-0.383630	-0.354604
Zn2	Zn	0.957827	-0.544936	-0.249834
Zn3	Zn	0.853119	-0.383701	-0.249805
Zn4	Zn	0.853107	-0.544930	-0.354539
O5	O	0.905489	-0.464299	-0.302195
O6	O	1.045570	-0.405001	-0.340745
O7	O	0.943911	-0.523580	-0.162152
O8	O	0.867055	-0.248710	-0.263722
O9	O	1.045515	-0.523511	-0.263771
O10	O	0.944039	-0.248658	-0.340717
O11	O	0.866982	-0.405121	-0.162131
O12	O	0.765439	-0.405116	-0.263659
O13	O	0.867035	-0.523501	-0.442225
O14	O	0.765430	-0.523570	-0.340606
O15	O	0.944027	-0.404995	-0.442273
O16	O	0.943899	-0.679917	-0.263708
O17	O	0.866962	-0.679912	-0.340634
C18	C	0.742701	-0.464350	-0.302123
C19	C	0.673060	-0.464395	-0.302106
C20	C	0.640358	-0.526156	-0.342113
C21	C	0.574923	-0.526133	-0.342141
C22	C	0.542191	-0.464358	-0.302151
C23	C	0.574901	-0.402585	-0.262142
C24	C	0.640335	-0.402604	-0.262119
C25	C	0.438467	-0.456601	-0.245745
C26	C	0.373034	-0.456590	-0.245767
C27	C	0.340371	-0.464295	-0.302220
C28	C	0.373149	-0.472033	-0.358654
C29	C	0.438583	-0.472052	-0.358632
C30	C	0.471239	-0.464331	-0.302171
C31	C	0.236717	-0.526034	-0.342260
C32	C	0.171280	-0.526003	-0.342289
C33	C	0.171259	-0.402461	-0.262285
C34	C	0.236695	-0.402487	-0.262261
C35	C	0.269419	-0.464278	-0.302248
C36	C	0.905438	-0.714914	-0.302181
C37	C	0.905473	-0.822128	-0.302196
C38	C	0.905504	-0.909197	-0.302210
C39	C	0.905548	-1.018430	-0.302226
C40	C	1.068912	-0.464249	-0.302269
C41	C	1.138553	-0.464227	-0.302300
C42	C	0.905538	-0.464240	-0.465619
C43	C	0.905559	-0.464214	-0.535260
C44	C	0.905557	-0.212706	-0.302224
C45	C	0.905586	-0.105492	-0.302236
C46	C	0.865513	-0.402526	-0.567952
C47	C	0.865511	-0.402508	-0.633388
C48	C	0.905566	-0.464168	-0.666128
C49	C	0.945615	-0.525868	-0.633428
C50	C	0.945611	-0.525891	-0.567994
C51	C	0.962019	-0.471728	-0.769834
C52	C	0.962023	-0.471698	-0.835267
C53	C	0.905576	-0.464103	-0.867949
C54	C	0.849123	-0.456518	-0.835190
C55	C	0.849119	-0.456541	-0.769756
C56	C	0.905574	-0.464151	-0.737081
C57	C	0.865525	-0.402392	-0.971594
C58	C	0.865521	-0.402381	-1.037031
C59	C	0.945631	-0.525736	-1.037070
C60	C	0.945628	-0.525753	-0.971635
C61	C	0.905576	-0.464075	-0.938901
C62	C	0.905476	-0.464289	-0.139408
C63	C	0.905576	-0.464043	-0.069767
H64	H	0.263363	-0.576343	-0.374823
H65	H	0.832911	-0.352172	-0.944940
H66	H	0.832907	-0.352150	-1.063648
N67	N	0.988809	-0.592430	-0.532733
H68	H	1.033580	-0.577431	-0.544156
H69	H	0.982678	-0.583057	-0.486325
N70	N	0.988829	-0.592251	-1.072373
H71	H	0.982754	-0.582879	-1.118787
H72	H	1.033581	-0.577230	-1.060971
N73	N	1.022908	-0.479885	-0.870597
H74	H	1.028808	-0.421112	-0.897756
H75	H	1.058627	-0.484745	-0.839926
H76	H	0.548247	-0.352287	-0.229583
H77	H	0.263320	-0.352199	-0.229680
H78	H	0.666999	-0.576470	-0.374674
N79	N	0.822323	-0.335995	-0.532646
H80	H	0.796956	-0.296909	-0.563290
H81	H	0.793310	-0.375262	-0.505468
N82	N	0.539641	-0.592746	-0.385293
H83	H	0.570302	-0.631891	-0.410622
H84	H	0.512442	-0.637320	-0.359743
N85	N	0.473693	-0.448285	-0.184853
H86	H	0.443001	-0.443390	-0.149107
H87	H	0.500805	-0.507053	-0.178961
H88	H	0.666960	-0.352308	-0.229541
H89	H	1.007989	-0.477904	-0.743230
N90	N	0.337912	-0.480398	-0.419536
H91	H	0.349292	-0.542890	-0.440757
H92	H	0.291501	-0.479182	-0.410917
H93	H	0.832902	-0.352269	-0.660011
N94	N	0.337683	-0.448252	-0.184902
H95	H	0.368302	-0.443361	-0.149136
H96	H	0.310564	-0.388814	-0.185883
H97	H	0.144610	-0.352159	-0.229727
H98	H	0.803158	-0.450326	-0.861799
N99	N	0.473938	-0.480395	-0.419494
H100	H	0.443322	-0.485275	-0.455263
H101	H	0.501124	-0.421642	-0.425366
N102	N	0.788237	-0.448348	-0.734422
H103	H	0.752476	-0.443528	-0.765050
H104	H	0.782398	-0.507127	-0.707258
N105	N	0.988812	-0.592383	-0.668737
H106	H	0.982739	-0.583007	-0.715150
H107	H	1.033564	-0.577367	-0.657332
H108	H	0.978240	-0.575984	-0.945016
N109	N	0.136006	-0.592623	-0.385439
H110	H	0.166669	-0.631772	-0.410762
H111	H	0.108807	-0.637194	-0.359886
