data_functionalizedCrystal
_audit_creation_method	'MofGen! by Chris Wilmer'
_symmetry_space_group_name_H-M	'P1'
_symmetry_Int_Tables_number	1
_symmetry_cell_setting	triclinic
loop_
_symmetry_equiv_pos_as_xyz
  x,y,z
_cell_length_a	21.295419
_cell_length_b	21.295417
_cell_length_c	21.295411
_cell_angle_alpha	90.021644
_cell_angle_beta	90.024539
_cell_angle_gamma	90.045308
loop_
_atom_site_label
_atom_site_type_symbol
_atom_site_fract_x
_atom_site_fract_y
_atom_site_fract_z
Zn1	Zn	0.962356	-0.250432	0.355911
Zn2	Zn	1.212356	-0.000432	0.605911
Zn3	Zn	1.462356	0.249568	0.855911
Zn4	Zn	1.712356	0.499568	1.105911
Zn5	Zn	0.962258	-0.355684	0.250637
Zn6	Zn	1.212258	-0.105684	0.500637
Zn7	Zn	1.462258	0.144316	0.750637
Zn8	Zn	1.712258	0.394316	1.000637
Zn9	Zn	0.857079	-0.250460	0.250656
Zn10	Zn	1.107079	-0.000460	0.500656
Zn11	Zn	1.357079	0.249540	0.750656
Zn12	Zn	1.607079	0.499540	1.000656
Zn13	Zn	0.857048	-0.355695	0.355868
Zn14	Zn	1.107048	-0.105695	0.605868
Zn15	Zn	1.357048	0.144305	0.855868
Zn16	Zn	1.607048	0.394305	1.105868
O17	O	0.909685	-0.303068	0.303268
O18	O	1.159685	-0.053068	0.553268
O19	O	1.409685	0.196932	0.803268
O20	O	1.659685	0.446932	1.053268
O21	O	1.050432	-0.264378	0.341956
O22	O	1.300432	-0.014378	0.591956
O23	O	1.550432	0.235622	0.841956
O24	O	1.800432	0.485622	1.091956
O25	O	0.948278	-0.341733	0.162550
O26	O	1.198278	-0.091733	0.412550
O27	O	1.448278	0.158267	0.662550
O28	O	1.698278	0.408267	0.912550
O29	O	0.871098	-0.162367	0.264645
O30	O	1.121098	0.087633	0.514645
O31	O	1.371098	0.337633	0.764645
O32	O	1.621098	0.587633	1.014645
O33	O	1.050360	-0.341706	0.264611
O34	O	1.300360	-0.091706	0.514611
O35	O	1.550360	0.158294	0.764611
O36	O	1.800360	0.408294	1.014611
O37	O	0.948444	-0.162347	0.341975
O38	O	1.198444	0.087653	0.591975
O39	O	1.448444	0.337653	0.841975
O40	O	1.698444	0.587653	1.091975
O41	O	0.871003	-0.264425	0.162564
O42	O	1.121003	-0.014425	0.412564
O43	O	1.371003	0.235575	0.662564
O44	O	1.621003	0.485575	0.912564
O45	O	0.768985	-0.264436	0.264603
O46	O	1.018985	-0.014436	0.514603
O47	O	1.268985	0.235564	0.764603
O48	O	1.518985	0.485564	1.014603
O49	O	0.871045	-0.341724	0.443963
O50	O	1.121045	-0.091724	0.693963
O51	O	1.371045	0.158276	0.943963
O52	O	1.621045	0.408276	1.193963
O53	O	0.768963	-0.341751	0.341902
O54	O	1.018963	-0.091751	0.591902
O55	O	1.268963	0.158249	0.841902
O56	O	1.518963	0.408249	1.091902
O57	O	0.948414	-0.264388	0.443995
O58	O	1.198414	-0.014388	0.693995
O59	O	1.448414	0.235612	0.943995
O60	O	1.698414	0.485612	1.193995
O61	O	0.948248	-0.443775	0.264570
O62	O	1.198248	-0.193775	0.514570
O63	O	1.448248	0.056225	0.764570
O64	O	1.698248	0.306225	1.014570
O65	O	0.870951	-0.443783	0.341883
O66	O	1.120951	-0.193783	0.591883
O67	O	1.370951	0.056217	0.841883
O68	O	1.620951	0.306217	1.091883
C69	C	0.746133	-0.303098	0.303250
C70	C	0.996133	-0.053098	0.553250
C71	C	1.246133	0.196902	0.803250
C72	C	1.496133	0.446902	1.053250
C73	C	0.676165	-0.303126	0.303258
C74	C	0.926165	-0.053126	0.553258
C75	C	1.176165	0.196874	0.803258
C76	C	1.426165	0.446874	1.053258
C77	C	0.643358	-0.262927	0.343593
C78	C	0.893358	-0.012927	0.593593
C79	C	1.143358	0.237073	0.843593
C80	C	1.393358	0.487073	1.093593
C81	C	0.577616	-0.262910	0.343596
C82	C	0.827616	-0.012910	0.593596
C83	C	1.077616	0.237090	0.843596
C84	C	1.327616	0.487090	1.093596
C85	C	0.544683	-0.303104	0.303269
C86	C	0.794683	-0.053104	0.553269
C87	C	1.044683	0.196896	0.803269
C88	C	1.294683	0.446896	1.053269
C89	C	0.577498	-0.343305	0.262926
C90	C	0.827498	-0.093305	0.512926
C91	C	1.077498	0.156695	0.762926
C92	C	1.327498	0.406695	1.012926
C93	C	0.643239	-0.343317	0.262920
C94	C	0.893239	-0.093317	0.512920
C95	C	1.143239	0.156683	0.762920
C96	C	1.393239	0.406683	1.012920
N97	N	0.441407	-0.358181	0.298349
N98	N	0.691407	-0.108181	0.548349
N99	N	0.941407	0.141819	0.798349
N100	N	1.191407	0.391819	1.048349
N101	N	0.378956	-0.358168	0.298359
N102	N	0.628956	-0.108168	0.548359
N103	N	0.878956	0.141832	0.798359
N104	N	1.128956	0.391832	1.048359
C105	C	0.346608	-0.303071	0.303283
C106	C	0.596608	-0.053071	0.553283
C107	C	0.846608	0.196929	0.803283
C108	C	1.096608	0.446929	1.053283
N109	N	0.379071	-0.247985	0.308210
N110	N	0.629071	0.002015	0.558210
N111	N	0.879071	0.252015	0.808210
N112	N	1.129071	0.502015	1.058210
N113	N	0.441528	-0.247999	0.308205
N114	N	0.691528	0.002001	0.558205
N115	N	0.941528	0.252001	0.808205
N116	N	1.191528	0.502001	1.058205
C117	C	0.473397	-0.303095	0.303271
C118	C	0.723397	-0.053095	0.553271
C119	C	0.973397	0.196905	0.803271
C120	C	1.223397	0.446905	1.053271
C121	C	0.242516	-0.262850	0.343624
C122	C	0.492516	-0.012850	0.593624
C123	C	0.742516	0.237150	0.843624
C124	C	0.992516	0.487150	1.093624
C125	C	0.176772	-0.262832	0.343622
C126	C	0.426772	-0.012832	0.593622
C127	C	0.676772	0.237168	0.843622
C128	C	0.926772	0.487168	1.093622
C129	C	0.176655	-0.343233	0.262955
C130	C	0.426655	-0.093233	0.512955
C131	C	0.676655	0.156767	0.762955
C132	C	0.926655	0.406767	1.012955
C133	C	0.242397	-0.343245	0.262953
C134	C	0.492397	-0.093245	0.512953
C135	C	0.742397	0.156755	0.762953
C136	C	0.992397	0.406755	1.012953
C137	C	0.275324	-0.303055	0.303291
C138	C	0.525324	-0.053055	0.553291
C139	C	0.775324	0.196945	0.803291
C140	C	1.025324	0.446945	1.053291
C141	C	0.909603	-0.466619	0.303233
C142	C	1.159603	-0.216619	0.553233
C143	C	1.409603	0.033381	0.803233
C144	C	1.659603	0.283381	1.053233
C145	C	0.909625	-0.536588	0.303239
C146	C	1.159625	-0.286588	0.553239
C147	C	1.409625	-0.036588	0.803239
C148	C	1.659625	0.213412	1.053239
C149	C	0.949909	-0.569429	0.263024
C150	C	1.199909	-0.319429	0.513024
C151	C	1.449909	-0.069429	0.763024
C152	C	1.699909	0.180571	1.013024
C153	C	0.949939	-0.635172	0.263038
C154	C	1.199939	-0.385172	0.513038
C155	C	1.449939	-0.135172	0.763038
C156	C	1.699939	0.114828	1.013038
C157	C	0.909673	-0.668070	0.303261
C158	C	1.159673	-0.418070	0.553261
C159	C	1.409673	-0.168070	0.803261
C160	C	1.659673	0.081930	1.053261
C161	C	0.869385	-0.635220	0.343485
C162	C	1.119385	-0.385220	0.593485
C163	C	1.369385	-0.135220	0.843485
C164	C	1.619385	0.114780	1.093485
C165	C	0.869361	-0.569479	0.343474
C166	C	1.119361	-0.319479	0.593474
C167	C	1.369361	-0.069479	0.843474
C168	C	1.619361	0.180521	1.093474
N169	N	0.854606	-0.771351	0.308054
N170	N	1.104606	-0.521351	0.558054
N171	N	1.354606	-0.271351	0.808054
N172	N	1.604606	-0.021351	1.058054
N173	N	0.854630	-0.833802	0.308061
N174	N	1.104630	-0.583802	0.558061
N175	N	1.354630	-0.333802	0.808061
N176	N	1.604630	-0.083802	1.058061
C177	C	0.909743	-0.866145	0.303297
C178	C	1.159743	-0.616145	0.553297
C179	C	1.409743	-0.366145	0.803297
C180	C	1.659743	-0.116145	1.053297
N181	N	0.964832	-0.833676	0.298514
N182	N	1.214832	-0.583676	0.548514
N183	N	1.464832	-0.333676	0.798514
N184	N	1.714832	-0.083676	1.048514
N185	N	0.964807	-0.771219	0.298504
N186	N	1.214807	-0.521219	0.548504
N187	N	1.464807	-0.271219	0.798504
N188	N	1.714807	-0.021219	1.048504
C189	C	0.909694	-0.739355	0.303278
C190	C	1.159694	-0.489355	0.553278
C191	C	1.409694	-0.239355	0.803278
C192	C	1.659694	0.010645	1.053278
C193	C	0.950063	-0.970272	0.263095
C194	C	1.200063	-0.720272	0.513095
C195	C	1.450063	-0.470272	0.763095
C196	C	1.700063	-0.220272	1.013095
C197	C	0.950093	-1.036016	0.263113
C198	C	1.200093	-0.786016	0.513113
C199	C	1.450093	-0.536016	0.763113
C200	C	1.700093	-0.286016	1.013113
C201	C	0.869534	-1.036063	0.343557
C202	C	1.119534	-0.786063	0.593557
C203	C	1.369534	-0.536063	0.843557
C204	C	1.619534	-0.286063	1.093557
C205	C	0.869510	-0.970321	0.343541
C206	C	1.119510	-0.720321	0.593541
C207	C	1.369510	-0.470321	0.843541
C208	C	1.619510	-0.220321	1.093541
C209	C	0.909773	-0.937429	0.303307
C210	C	1.159773	-0.687429	0.553307
C211	C	1.409773	-0.437429	0.803307
C212	C	1.659773	-0.187429	1.053307
C213	C	1.073875	-0.303038	0.303286
C214	C	1.323875	-0.053038	0.553286
C215	C	1.573875	0.196962	0.803286
C216	C	1.823875	0.446962	1.053286
C217	C	1.143843	-0.303025	0.303294
C218	C	1.393843	-0.053025	0.553294
C219	C	1.643843	0.196975	0.803294
C220	C	1.893843	0.446975	1.053294
C221	C	0.909737	-0.303055	0.467458
C222	C	1.159737	-0.053055	0.717458
C223	C	1.409737	0.196945	0.967458
C224	C	1.659737	0.446945	1.217458
C225	C	0.909760	-0.303049	0.537426
C226	C	1.159760	-0.053049	0.787426
C227	C	1.409760	0.196951	1.037426
C228	C	1.659760	0.446951	1.287426
C229	C	0.909785	-0.138878	0.303317
C230	C	1.159785	0.111122	0.553317
C231	C	1.409785	0.361122	0.803317
C232	C	1.659785	0.611122	1.053317
C233	C	0.909828	-0.068909	0.303338
C234	C	1.159828	0.181091	0.553338
C235	C	1.409828	0.431091	0.803338
C236	C	1.659828	0.681091	1.053338
C237	C	0.909669	-0.303036	0.139716
C238	C	1.159669	-0.053036	0.389716
C239	C	1.409669	0.196964	0.639716
C240	C	1.659669	0.446964	0.889716
C241	C	0.909769	-0.302864	0.069749
C242	C	1.159769	-0.052864	0.319749
C243	C	1.409769	0.197136	0.569749
C244	C	1.659769	0.447136	0.819749
C245	C	0.950044	-0.262778	0.570311
C246	C	1.200044	-0.012778	0.820311
C247	C	1.450044	0.237222	1.070311
C248	C	1.700044	0.487222	1.320311
C249	C	0.950043	-0.262751	0.636053
C250	C	1.200043	-0.012751	0.886053
C251	C	1.450043	0.237249	1.136053
C252	C	1.700043	0.487249	1.386053
C253	C	0.909764	-0.303006	0.668909
C254	C	1.159764	-0.053006	0.918909
C255	C	1.409764	0.196994	1.168909
C256	C	1.659764	0.446994	1.418909
C257	C	0.869472	-0.343279	0.636017
C258	C	1.119472	-0.093279	0.886017
C259	C	1.369472	0.156721	1.136017
C260	C	1.619472	0.406721	1.386017
C261	C	0.869470	-0.343301	0.570276
C262	C	1.119470	-0.093301	0.820276
C263	C	1.369470	0.156699	1.070276
C264	C	1.619470	0.406699	1.320276
N265	N	0.904908	-0.358075	0.772124
N266	N	1.154908	-0.108075	1.022124
N267	N	1.404908	0.141925	1.272124
N268	N	1.654908	0.391925	1.522124
N269	N	0.904914	-0.358052	0.834576
N270	N	1.154914	-0.108052	1.084576
N271	N	1.404914	0.141948	1.334576
N272	N	1.654914	0.391948	1.584576
C273	C	0.909768	-0.302942	0.866984
C274	C	1.159768	-0.052942	1.116984
C275	C	1.409768	0.197058	1.366984
C276	C	1.659768	0.447058	1.616984
N277	N	0.914629	-0.247853	0.834581
N278	N	1.164629	0.002147	1.084581
N279	N	1.414629	0.252147	1.334581
N280	N	1.664629	0.502147	1.584581
N281	N	0.914626	-0.247876	0.772124
N282	N	1.164626	0.002124	1.022124
N283	N	1.414626	0.252124	1.272124
N284	N	1.664626	0.502124	1.522124
C285	C	0.909762	-0.302986	0.740194
C286	C	1.159762	-0.052986	0.990194
C287	C	1.409762	0.197014	1.240194
C288	C	1.659762	0.447014	1.490194
C289	C	0.950054	-0.262638	0.971154
C290	C	1.200054	-0.012638	1.221154
C291	C	1.450054	0.237362	1.471154
C292	C	1.700054	0.487362	1.721154
C293	C	0.950049	-0.262610	1.036897
C294	C	1.200049	-0.012610	1.286897
C295	C	1.450049	0.237390	1.536897
C296	C	1.700049	0.487390	1.786897
C297	C	0.869481	-0.343143	1.036860
C298	C	1.119481	-0.093143	1.286860
C299	C	1.369481	0.156857	1.536860
C300	C	1.619481	0.406857	1.786860
C301	C	0.869483	-0.343166	0.971118
C302	C	1.119483	-0.093166	1.221118
C303	C	1.369483	0.156834	1.471118
C304	C	1.619483	0.406834	1.721118
C305	C	0.909773	-0.302914	0.938268
C306	C	1.159773	-0.052914	1.188268
C307	C	1.409773	0.197086	1.438268
C308	C	1.659773	0.447086	1.688268
H309	H	0.149841	-0.375959	0.230120
H310	H	0.399841	-0.125959	0.480120
H311	H	0.649841	0.124041	0.730120
H312	H	0.899841	0.374041	0.980120
H313	H	0.836663	-0.376093	0.543502
H314	H	1.086663	-0.126093	0.793502
H315	H	1.336663	0.123907	1.043502
H316	H	1.586663	0.373907	1.293502
O317	O	0.993506	-0.934798	0.219713
O318	O	1.243506	-0.684798	0.469713
O319	O	1.493506	-0.434798	0.719713
O320	O	1.743506	-0.184798	0.969713
H321	H	1.025501	-0.904796	0.247922
H322	H	1.275501	-0.654796	0.497922
H323	H	1.525501	-0.404796	0.747922
H324	H	1.775501	-0.154796	0.997922
O325	O	0.826032	-0.386560	1.072286
O326	O	1.076032	-0.136560	1.322286
O327	O	1.326032	0.113440	1.572286
O328	O	1.576032	0.363440	1.822286
H329	H	0.854185	-0.418577	1.102245
H330	H	1.104185	-0.168577	1.352245
H331	H	1.354185	0.081423	1.602245
H332	H	1.604185	0.331423	1.852245
O333	O	0.993499	-0.219220	0.935716
O334	O	1.243499	0.030780	1.185716
O335	O	1.493499	0.280780	1.435716
O336	O	1.743499	0.530780	1.685716
H337	H	1.021504	-0.191203	0.969630
H338	H	1.271504	0.058797	1.219630
H339	H	1.521504	0.308797	1.469630
H340	H	1.771504	0.558797	1.719630
H341	H	0.982846	-0.229954	0.662833
H342	H	1.232846	0.020046	0.912833
H343	H	1.482846	0.270046	1.162833
H344	H	1.732846	0.520046	1.412833
H345	H	0.269326	-0.230121	0.376465
H346	H	0.519326	0.019879	0.626465
H347	H	0.769326	0.269879	0.876465
H348	H	1.019326	0.519879	1.126465
O349	O	0.993497	-0.219172	1.072373
O350	O	1.243497	0.030828	1.322373
O351	O	1.493497	0.280828	1.572373
O352	O	1.743497	0.530828	1.822373
H353	H	1.042895	-0.229971	1.059783
H354	H	1.292895	0.020029	1.309783
H355	H	1.542895	0.270029	1.559783
H356	H	1.792895	0.520029	1.809783
H357	H	0.836683	-0.375963	0.944343
H358	H	1.086683	-0.125963	1.194343
H359	H	1.336683	0.124037	1.444343
H360	H	1.586683	0.374037	1.694343
O361	O	0.678874	-0.219570	0.387087
O362	O	0.928874	0.030430	0.637087
O363	O	1.178874	0.280430	0.887087
O364	O	1.428874	0.530430	1.137087
H365	H	0.645012	-0.191607	0.415129
H366	H	0.895012	0.058393	0.665129
H367	H	1.145012	0.308393	0.915129
H368	H	1.395012	0.558393	1.165129
O369	O	0.542219	-0.219556	0.387107
O370	O	0.792219	0.030444	0.637107
O371	O	1.042219	0.280444	0.887107
O372	O	1.292219	0.530444	1.137107
H373	H	0.576159	-0.191615	0.415157
H374	H	0.826159	0.058385	0.665157
H375	H	1.076159	0.308385	0.915157
H376	H	1.326159	0.558385	1.165157
H377	H	0.550679	-0.376030	0.230091
H378	H	0.800679	-0.126030	0.480091
H379	H	1.050679	0.123970	0.730091
H380	H	1.300679	0.373970	0.980091
H381	H	0.836675	-0.376052	0.662773
H382	H	1.086675	-0.126052	0.912773
H383	H	1.336675	0.123948	1.162773
H384	H	1.586675	0.373948	1.412773
H385	H	0.982902	-1.062754	0.230366
H386	H	1.232902	-0.812754	0.480366
H387	H	1.482902	-0.562754	0.730366
H388	H	1.732902	-0.312754	0.980366
O389	O	0.678629	-0.386675	0.219412
O390	O	0.928629	-0.136675	0.469412
O391	O	1.178629	0.113325	0.719412
O392	O	1.428629	0.363325	0.969412
H393	H	0.665973	-0.436095	0.230118
H394	H	0.915973	-0.186095	0.480118
H395	H	1.165973	0.063905	0.730118
H396	H	1.415973	0.313905	0.980118
O397	O	0.141383	-0.219469	0.387125
O398	O	0.391383	0.030531	0.637125
O399	O	0.641383	0.280531	0.887125
O400	O	0.891383	0.530531	1.137125
H401	H	0.154007	-0.230346	0.436509
H402	H	0.404007	0.019654	0.686509
H403	H	0.654007	0.269654	0.936509
H404	H	0.904007	0.519654	1.186509
O405	O	0.277789	-0.386605	0.219451
O406	O	0.527789	-0.136605	0.469451
O407	O	0.777789	0.113395	0.719451
O408	O	1.027789	0.363395	0.969451
H409	H	0.243846	-0.414554	0.191411
H410	H	0.493846	-0.164554	0.441411
H411	H	0.743846	0.085446	0.691411
H412	H	0.993846	0.335446	0.941411
O413	O	0.993343	-0.533952	0.219639
O414	O	1.243343	-0.283952	0.469639
O415	O	1.493343	-0.033952	0.719639
O416	O	1.743343	0.216048	0.969639
H417	H	1.021365	-0.567838	0.191681
H418	H	1.271365	-0.317838	0.441681
H419	H	1.521365	-0.067838	0.691681
H420	H	1.771365	0.182162	0.941681
H421	H	0.982745	-0.661917	0.230289
H422	H	1.232745	-0.411917	0.480289
H423	H	1.482745	-0.161917	0.730289
H424	H	1.732745	0.088083	0.980289
H425	H	0.836752	-1.062848	0.376310
H426	H	1.086752	-0.812848	0.626310
H427	H	1.336752	-0.562848	0.876310
H428	H	1.586752	-0.312848	1.126310
H429	H	0.836602	-0.662010	0.376236
H430	H	1.086602	-0.412010	0.626236
H431	H	1.336602	-0.162010	0.876236
H432	H	1.586602	0.087990	1.126236
H433	H	0.836556	-0.542739	0.376223
H434	H	1.086556	-0.292739	0.626223
H435	H	1.336556	-0.042739	0.876223
H436	H	1.586556	0.207261	1.126223
H437	H	0.836703	-0.943579	0.376286
H438	H	1.086703	-0.693579	0.626286
H439	H	1.336703	-0.443579	0.876286
H440	H	1.586703	-0.193579	1.126286
O441	O	0.993495	-0.219364	0.534879
O442	O	1.243495	0.030636	0.784879
O443	O	1.493495	0.280636	1.034879
O444	O	1.743495	0.530636	1.284879
H445	H	1.021504	-0.191353	0.568794
H446	H	1.271504	0.058647	0.818794
H447	H	1.521504	0.308647	1.068794
H448	H	1.771504	0.558647	1.318794
