data_functionalizedCrystal
_audit_creation_method	'MofGen! by Chris Wilmer'
_symmetry_space_group_name_H-M	'P1'
_symmetry_Int_Tables_number	1
_symmetry_cell_setting	triclinic
loop_
_symmetry_equiv_pos_as_xyz
  x,y,z
_cell_length_a	19.188930
_cell_length_b	16.974885
_cell_length_c	15.455313
_cell_angle_alpha	90.969048
_cell_angle_beta	92.650876
_cell_angle_gamma	83.269424
loop_
_atom_site_label
_atom_site_type_symbol
_atom_site_fract_x
_atom_site_fract_y
_atom_site_fract_z
O1	O	0.089022	1.048759	0.001411
O2	O	0.099680	0.819292	-0.014685
O3	O	-0.007272	0.940646	-0.006156
O4	O	0.195975	0.927404	-0.007119
O5	O	-0.001182	0.933707	0.137618
O6	O	0.105771	0.812352	0.129089
O7	O	0.095113	1.041819	0.145185
Cu8	Cu	0.100998	0.926452	0.150265
Cu9	Cu	0.093795	0.934659	-0.019765
O10	O	0.202066	0.920465	0.136656
C11	C	0.102208	0.786464	0.055143
C12	C	0.100657	0.698989	0.049008
C13	C	0.091545	0.207007	0.006001
C14	C	0.093003	0.289199	0.011778
C15	C	0.097057	0.326504	0.093038
C16	C	0.099646	0.281613	0.168527
C17	C	0.098183	0.199423	0.162750
C18	C	0.101784	0.571908	0.118720
C19	C	0.103249	0.654104	0.124491
C20	C	0.096603	0.661685	-0.032259
C21	C	0.095145	0.579493	-0.038029
C22	C	0.097731	0.534609	0.037460
N23	N	0.098549	0.410517	0.098944
N24	N	0.096233	0.450599	0.031553
C25	C	-0.030240	0.936747	0.065704
C26	C	-0.107750	0.935460	0.065621
C27	C	-0.152340	1.006667	0.070620
C28	C	-0.225170	1.005458	0.070521
C29	C	-0.253406	0.933037	0.065441
C30	C	-0.208807	0.861821	0.060436
C31	C	-0.135979	0.863032	0.060526
N32	N	-0.359598	0.875318	0.110487
N33	N	-0.428782	0.874172	0.110403
C34	C	-0.472833	0.929383	0.065167
N35	N	-0.445087	0.985795	0.020028
N36	N	-0.375896	0.986943	0.020116
C37	C	-0.332375	0.931716	0.065342
C38	C	-0.596394	0.999285	0.070058
C39	C	-0.669225	0.998073	0.069953
C40	C	-0.652860	0.854433	0.059877
C41	C	-0.580031	0.855647	0.059973
C42	C	-0.551802	0.928075	0.065067
C43	C	0.225034	0.924363	0.064794
C44	C	0.302544	0.925651	0.064871
C45	C	0.092585	1.074646	0.075355
C46	C	0.094136	1.162122	0.081484
N47	N	0.106064	0.920686	0.269855
N48	N	0.088724	0.940432	-0.139355
C49	C	0.060644	0.972259	0.318874
C50	C	0.064481	0.967905	0.409376
C51	C	0.113743	0.911981	0.450857
C52	C	0.159166	0.860402	0.401832
C53	C	0.155324	0.864753	0.311331
C54	C	0.130305	0.893203	0.721119
C55	C	0.134145	0.888858	0.811626
C56	C	0.039459	0.996361	0.819164
C57	C	0.035625	1.000709	0.728662
C58	C	0.081045	0.949128	0.679644
N59	N	0.117668	0.907531	0.543365
N60	N	0.077115	0.953574	0.587138
H61	H	0.102943	0.311993	0.234691
H62	H	0.002479	1.038355	0.859083
N63	N	-0.087887	0.786221	0.055147
H64	H	-0.055060	0.780951	0.108261
H65	H	-0.059598	0.786137	0.001634
N66	N	0.104989	0.523667	0.200292
H67	H	0.147898	0.483041	0.200749
H68	H	0.061412	0.495779	0.202313
H69	H	0.027496	1.009900	0.449287
H70	H	0.100301	0.162877	0.224216
H71	H	-0.004488	1.046247	0.694890
N72	N	-0.121893	1.084782	0.076113
H73	H	-0.161196	1.129708	0.079264
H74	H	-0.094283	1.090989	0.023071
N75	N	0.212294	0.800078	0.446567
H76	H	0.207838	0.805147	0.511337
H77	H	0.261176	0.809765	0.431355
N78	N	0.179288	0.837567	0.668256
H79	H	0.211077	0.801482	0.708270
H80	H	0.208638	0.869423	0.632792
N81	N	-0.273276	1.082263	0.075911
H82	H	-0.244342	1.128328	0.079151
H83	H	-0.301597	1.082308	0.129393
H84	H	0.192310	0.822755	0.271420
N85	N	-0.239257	0.783709	0.054952
H86	H	-0.292159	0.793745	0.055656
H87	H	-0.220703	0.749985	0.106064
H88	H	-0.573409	1.058260	0.074202
H89	H	0.174262	0.843315	0.845396
N90	N	-0.717323	1.074879	0.075342
H91	H	-0.688386	1.120942	0.078586
H92	H	-0.745647	1.074925	0.128821
N93	N	0.107618	0.694340	0.212142
H94	H	0.108158	0.753216	0.204343
H95	H	0.152055	0.671774	0.244888
H96	H	-0.675849	0.795467	0.055736
H97	H	-0.543724	0.797662	0.055907
H98	H	0.020532	1.017802	0.285106
H99	H	0.088248	0.176640	-0.060170
H100	H	0.090888	0.325742	-0.049689
H101	H	0.094497	0.698237	-0.093718
N102	N	0.090765	0.539259	-0.125674
H103	H	0.089341	0.580167	-0.172617
H104	H	0.046770	0.511867	-0.131007
