data_functionalizedCrystal
_audit_creation_method	'MofGen! by Chris Wilmer'
_symmetry_space_group_name_H-M	'P1'
_symmetry_Int_Tables_number	1
_symmetry_cell_setting	triclinic
loop_
_symmetry_equiv_pos_as_xyz
  x,y,z
_cell_length_a	17.077404
_cell_length_b	12.645330
_cell_length_c	17.077396
_cell_angle_alpha	90.026204
_cell_angle_beta	90.019501
_cell_angle_gamma	90.012871
loop_
_atom_site_label
_atom_site_type_symbol
_atom_site_fract_x
_atom_site_fract_y
_atom_site_fract_z
Zn1	Zn	1.200110	-0.422033	0.443855
Zn2	Zn	1.700110	0.077967	0.943855
Zn3	Zn	1.200041	-0.599318	0.312594
Zn4	Zn	1.700041	-0.099318	0.812594
Zn5	Zn	1.068842	-0.422070	0.312603
Zn6	Zn	1.568842	0.077930	0.812603
Zn7	Zn	1.068834	-0.599256	0.443818
Zn8	Zn	1.568834	-0.099256	0.943818
O9	O	1.134457	-0.510669	0.378218
O10	O	1.634457	-0.010669	0.878218
O11	O	1.309948	-0.445561	0.426455
O12	O	1.809948	0.054439	0.926455
O13	O	1.182612	-0.575848	0.202749
O14	O	1.682612	-0.075848	0.702749
O15	O	1.086288	-0.273718	0.330033
O16	O	1.586288	0.226282	0.830033
O17	O	1.309897	-0.575812	0.330018
O18	O	1.809897	-0.075812	0.830018
O19	O	1.182730	-0.273691	0.426464
O20	O	1.682730	0.226309	0.926464
O21	O	1.086221	-0.445624	0.202755
O22	O	1.586221	0.054376	0.702755
O23	O	0.958994	-0.445563	0.329997
O24	O	1.458994	0.054437	0.829997
O25	O	1.086273	-0.575705	0.553670
O26	O	1.586273	-0.075705	1.053670
O27	O	0.958988	-0.575741	0.426400
O28	O	1.458988	-0.075741	0.926400
O29	O	1.182722	-0.445500	0.553697
O30	O	1.682722	0.054500	1.053697
O31	O	1.182603	-0.747657	0.329982
O32	O	1.682603	-0.247657	0.829982
O33	O	1.086206	-0.747611	0.426392
O34	O	1.586206	-0.247611	0.926392
C35	C	0.930509	-0.510650	0.378196
C36	C	1.430509	-0.010650	0.878196
C37	C	0.843259	-0.510667	0.378205
C38	C	1.343259	-0.010667	0.878205
C39	C	0.802286	-0.578553	0.428322
C40	C	1.302286	-0.078553	0.928322
C41	C	0.720306	-0.578555	0.428334
C42	C	1.220306	-0.078555	0.928334
C43	C	0.679300	-0.510677	0.378226
C44	C	1.179300	-0.010677	0.878226
C45	C	0.720278	-0.442783	0.328107
C46	C	1.220278	0.057217	0.828107
C47	C	0.802257	-0.442777	0.328099
C48	C	1.302257	0.057223	0.828099
C49	C	0.549408	-0.442804	0.328126
C50	C	1.049408	0.057196	0.828126
C51	C	0.467424	-0.442812	0.328133
C52	C	0.967424	0.057188	0.828133
C53	C	0.467457	-0.578583	0.428361
C54	C	0.967457	-0.078583	0.928361
C55	C	0.549436	-0.578576	0.428353
C56	C	1.049436	-0.078576	0.928353
C57	C	0.590409	-0.510684	0.378233
C58	C	1.090409	-0.010684	0.878233
C59	C	1.134418	-0.786099	0.378199
C60	C	1.634418	-0.286099	0.878199
C61	C	1.134473	-0.903929	0.378217
C62	C	1.634473	-0.403929	0.878217
C63	C	1.195019	-1.071478	0.317443
C64	C	1.695019	-0.571478	0.817443
C65	C	1.195216	-0.948918	0.317592
C66	C	1.695216	-0.448918	0.817592
C67	C	1.156905	-0.948313	0.460961
C68	C	1.656905	-0.448313	0.960961
C69	C	1.157385	-1.070911	0.460639
C70	C	1.657385	-0.570911	0.960639
C71	C	1.051470	-1.071256	0.357063
C72	C	1.551470	-0.571256	0.857063
C73	C	1.051868	-0.948652	0.355208
C74	C	1.551868	-0.448652	0.855208
C75	C	1.339201	-0.510689	0.378240
C76	C	1.839201	-0.010689	0.878240
C77	C	1.426451	-0.510698	0.378249
C78	C	1.926451	-0.010698	0.878249
C79	C	1.134504	-0.510591	0.582962
C80	C	1.634504	-0.010591	1.082962
C81	C	1.134525	-0.510558	0.670212
C82	C	1.634525	-0.010558	1.170212
C83	C	1.134518	-0.234164	0.378253
C84	C	1.634518	0.265836	0.878253
C85	C	1.134544	-0.116334	0.378269
C86	C	1.634544	0.383666	0.878269
C87	C	1.134455	-0.510671	0.174270
C88	C	1.634455	-0.010671	0.674270
C89	C	1.134587	-0.510405	0.087020
C90	C	1.634587	-0.010405	0.587020
C91	C	1.184747	-0.442755	0.711218
C92	C	1.684747	0.057245	1.211218
C93	C	1.184757	-0.442719	0.793198
C94	C	1.684757	0.057281	1.293198
C95	C	1.134547	-0.510493	0.834171
C96	C	1.634547	-0.010493	1.334171
C97	C	1.084319	-0.578300	0.793160
C98	C	1.584319	-0.078300	1.293160
C99	C	1.084306	-0.578329	0.711181
C100	C	1.584306	-0.078329	1.211181
C101	C	1.084350	-0.578236	0.964030
C102	C	1.584350	-0.078236	1.464030
C103	C	1.084364	-0.578208	1.046015
C104	C	1.584364	-0.078208	1.546015
C105	C	1.184801	-0.442626	1.046047
C106	C	1.684801	0.057374	1.546047
C107	C	1.184788	-0.442656	0.964068
C108	C	1.684788	0.057344	1.464068
C109	C	1.134561	-0.510464	0.923062
C110	C	1.634561	-0.010464	1.423062
H111	H	0.835668	-0.633831	0.469124
H112	H	1.335668	-0.133831	0.969124
O113	O	1.030177	-0.651371	0.919801
O114	O	1.530177	-0.151371	1.419801
H115	H	0.990241	-0.603928	0.882457
H116	H	1.490241	-0.103928	1.382457
O117	O	1.030156	-0.651392	0.837349
O118	O	1.530156	-0.151392	1.337349
H119	H	1.065279	-0.705327	0.874694
H120	H	1.565279	-0.205327	1.374694
H121	H	1.043402	-0.633530	0.677795
H122	H	1.543402	-0.133530	1.177795
H123	H	0.582766	-0.387510	0.287320
H124	H	1.082766	0.112490	0.787320
H125	H	0.686949	-0.633836	0.469144
H126	H	1.186949	-0.133836	0.969144
O127	O	1.238927	-0.369592	0.837428
O128	O	1.738927	0.130408	1.337428
H129	H	1.300527	-0.387800	0.821707
H130	H	1.800527	0.112200	1.321707
O131	O	0.593669	-0.651782	0.482400
O132	O	1.093669	-0.151782	0.982400
H133	H	0.551407	-0.698984	0.517259
H134	H	1.051407	-0.198984	1.017259
H135	H	0.434039	-0.387527	0.287339
H136	H	0.934039	0.112473	0.787339
H137	H	1.043477	-0.633394	1.079373
H138	H	1.543477	-0.133394	1.579373
H139	H	0.434093	-0.633860	0.469173
H140	H	0.934093	-0.133860	0.969173
O141	O	1.238945	-0.369565	0.919870
O142	O	1.738945	0.130435	1.419870
H143	H	1.273869	-0.322403	0.962155
H144	H	1.773869	0.177597	1.462155
H145	H	0.835616	-0.387492	0.287293
H146	H	1.335616	0.112508	0.787293
O147	O	0.676043	-0.369598	0.274048
O148	O	1.176043	0.130402	0.774048
H149	H	0.638699	-0.315733	0.309242
H150	H	1.138699	0.184267	0.809242
O151	O	1.176643	-0.909160	0.236322
O152	O	1.676643	-0.409160	0.736322
H153	H	1.167440	-0.977501	0.196558
H154	H	1.667440	-0.477501	0.696558
O155	O	1.238976	-0.369488	1.090269
O156	O	1.738976	0.130512	1.590269
H157	H	1.225537	-0.286292	1.074534
H158	H	1.725537	0.213708	1.574534
O159	O	0.988954	-0.908104	0.409581
O160	O	1.488954	-0.408104	0.909581
H161	H	1.015700	-0.855214	0.454056
H162	H	1.515700	-0.355214	0.954056
H163	H	1.115267	-1.100579	0.507520
H164	H	1.615267	-0.600579	1.007520
H165	H	1.181160	-1.101030	0.255910
H166	H	1.681160	-0.601030	0.755910
H167	H	1.256218	-1.102208	0.331312
H168	H	1.756218	-0.602208	0.831312
O169	O	1.276716	-0.909947	0.336171
O170	O	1.776716	-0.409947	0.836171
H171	H	1.316140	-0.978669	0.345093
H172	H	1.816140	-0.478669	0.845093
H173	H	1.218108	-1.099423	0.478601
H174	H	1.718108	-0.599423	0.978601
H175	H	1.114198	-0.919168	0.507495
H176	H	1.614198	-0.419168	1.007495
H177	H	1.031071	-1.102265	0.297778
H178	H	1.531071	-0.602265	0.797778
O179	O	1.236435	-0.907552	0.485155
O180	O	1.736435	-0.407552	0.985155
H181	H	1.260112	-0.855696	0.438386
H182	H	1.760112	-0.355696	0.938386
O183	O	1.029450	-0.910238	0.274553
O184	O	1.529450	-0.410238	0.774553
H185	H	1.076934	-0.859499	0.250947
H186	H	1.576934	-0.359499	0.750947
O187	O	0.991813	-1.109902	0.415694
O188	O	1.491813	-0.609902	0.915694
H189	H	1.008551	-1.082651	0.475183
H190	H	1.508551	-0.582651	0.975183
O191	O	1.238902	-0.369655	0.667025
O192	O	1.738902	0.130345	1.167025
H193	H	1.273821	-0.322495	0.709316
H194	H	1.773821	0.177505	1.209316
