data_functionalizedCrystal
_audit_creation_method	'MofGen! by Chris Wilmer'
_symmetry_space_group_name_H-M	'P1'
_symmetry_Int_Tables_number	1
_symmetry_cell_setting	triclinic
loop_
_symmetry_equiv_pos_as_xyz
  x,y,z
_cell_length_a	19.805399
_cell_length_b	18.215407
_cell_length_c	18.215405
_cell_angle_alpha	89.977671
_cell_angle_beta	90.029242
_cell_angle_gamma	89.983693
loop_
_atom_site_label
_atom_site_type_symbol
_atom_site_fract_x
_atom_site_fract_y
_atom_site_fract_z
Zn1	Zn	-0.382653	1.125064	0.293052
Zn2	Zn	-0.269461	1.124975	0.416120
Zn3	Zn	-0.269484	1.001999	0.293066
Zn4	Zn	-0.382615	1.001963	0.416075
O5	O	-0.326053	1.063500	0.354578
O6	O	-0.367644	1.228037	0.309389
O7	O	-0.174748	1.108640	0.399822
O8	O	-0.284521	1.018377	0.190080
O9	O	-0.284483	1.227971	0.399807
O10	O	-0.367666	1.108792	0.190069
O11	O	-0.174764	1.018290	0.309415
O12	O	-0.284484	0.899010	0.309371
O13	O	-0.477336	1.018314	0.399731
O14	O	-0.367601	0.898983	0.399746
O15	O	-0.477364	1.108757	0.309346
O16	O	-0.284446	1.108604	0.519098
O17	O	-0.367579	1.018228	0.519066
C18	C	-0.326041	0.872294	0.354556
C19	C	-0.326052	0.790495	0.354564
C20	C	-0.369423	0.602334	0.307580
C21	C	-0.369425	0.525476	0.307586
C22	C	-0.282695	0.525418	0.401597
C23	C	-0.282690	0.602275	0.401587
C24	C	-0.326058	0.640732	0.354579
C25	C	-0.326065	0.487015	0.354596
C26	C	-0.326067	0.403682	0.354603
C27	C	-0.326055	0.724071	0.354571
C28	C	-0.502596	1.063541	0.354532
C29	C	-0.577828	1.063559	0.354512
C30	C	-0.613188	1.110653	0.307446
C31	C	-0.683876	1.110661	0.307425
C32	C	-0.719204	1.063577	0.354474
C33	C	-0.683839	1.016478	0.401542
C34	C	-0.613152	1.016467	0.401559
C35	C	-0.968912	1.016519	0.401473
C36	C	-1.039604	1.016535	0.401454
C37	C	-1.039637	1.110713	0.307339
C38	C	-0.968950	1.110702	0.307356
C39	C	-0.933591	1.063601	0.354421
C40	C	-0.856943	1.063592	0.354443
C41	C	-0.795851	1.063589	0.354456
C42	C	-0.150197	1.063501	0.354571
C43	C	-0.074966	1.063626	0.354384
C44	C	-0.326065	1.255453	0.354602
C45	C	-0.326071	1.337252	0.354611
C46	C	-0.326021	1.063422	0.545785
C47	C	-0.326029	1.063457	0.627584
C48	C	-0.326101	1.063598	0.162625
C49	C	-0.326121	1.063640	0.080826
C50	C	-0.282822	1.110626	0.815770
C51	C	-0.282838	1.110659	0.892629
C52	C	-0.369333	1.016468	0.892635
C53	C	-0.369320	1.016440	0.815777
C54	C	-0.326060	1.063518	0.777347
C55	C	-0.326090	1.063579	0.931063
C56	C	-0.326108	1.063614	1.014397
C57	C	-0.326043	1.063483	0.694008
H58	H	-0.404733	0.633643	0.269301
C59	C	-0.234983	0.644515	0.453292
N60	N	-0.199050	0.676330	0.492233
C61	C	-0.722769	1.162470	0.255650
N62	N	-0.752063	1.201494	0.216651
H63	H	-0.247630	1.149021	0.923909
C64	C	-0.574256	0.964661	0.453336
N65	N	-0.544961	0.925638	0.492335
C66	C	-0.235238	1.162417	0.773499
N67	N	-0.199399	1.201429	0.741663
C68	C	-0.574334	1.162449	0.255687
N69	N	-0.545072	1.201461	0.216698
H70	H	-0.404553	0.978138	0.923934
H71	H	-0.404736	0.494216	0.269314
H72	H	-0.940190	1.149045	0.269047
H73	H	-0.247388	0.494098	0.439870
C74	C	-1.078538	1.162518	0.255557
N75	N	-1.107837	1.201536	0.216556
H76	H	-0.940132	0.978177	0.439807
C77	C	-1.078463	0.964732	0.453209
N78	N	-1.107731	0.925715	0.492188
C79	C	-0.722701	0.964678	0.453289
N80	N	-0.751972	0.925661	0.492266
H81	H	-0.404533	0.978078	0.784491
