data_functionalizedCrystal
_audit_creation_method	'MofGen! by Chris Wilmer'
_symmetry_space_group_name_H-M	'P1'
_symmetry_Int_Tables_number	1
_symmetry_cell_setting	triclinic
loop_
_symmetry_equiv_pos_as_xyz
  x,y,z
_cell_length_a	29.839125
_cell_length_b	12.594517
_cell_length_c	12.594516
_cell_angle_alpha	90.011108
_cell_angle_beta	90.008939
_cell_angle_gamma	90.018428
loop_
_atom_site_label
_atom_site_type_symbol
_atom_site_fract_x
_atom_site_fract_y
_atom_site_fract_z
Zn1	Zn	-0.254110	-1.627175	0.424032
Zn2	Zn	0.245890	-1.127175	0.924032
Zn3	Zn	-0.178991	-1.627093	0.601988
Zn4	Zn	0.321009	-1.127093	1.101988
Zn5	Zn	-0.178984	-1.449206	0.424009
Zn6	Zn	0.321016	-0.949206	0.924009
Zn7	Zn	-0.254084	-1.449161	0.601953
Zn8	Zn	0.245916	-0.949161	1.101953
O9	O	-0.216542	-1.538159	0.512996
O10	O	0.283458	-1.038159	1.012996
O11	O	-0.244159	-1.776110	0.447662
O12	O	0.255841	-1.276110	0.947662
O13	O	-0.116123	-1.603480	0.578384
O14	O	0.383877	-1.103480	1.078384
O15	O	-0.188957	-1.472867	0.275066
O16	O	0.311043	-0.972867	0.775066
O17	O	-0.188970	-1.776050	0.578406
O18	O	0.311030	-1.276050	1.078406
O19	O	-0.244152	-1.603620	0.275083
O20	O	0.255848	-1.103620	0.775083
O21	O	-0.116118	-1.472788	0.447623
O22	O	0.383882	-0.972788	0.947623
O23	O	-0.188933	-1.300254	0.447589
O24	O	0.311067	-0.800254	0.947589
O25	O	-0.316955	-1.472790	0.578346
O26	O	0.183045	-0.972790	1.078346
O27	O	-0.244108	-1.300221	0.578324
O28	O	0.255892	-0.800221	1.078324
O29	O	-0.316974	-1.603576	0.447628
O30	O	0.183026	-1.103576	0.947628
O31	O	-0.188945	-1.603437	0.750929
O32	O	0.311055	-1.103437	1.250929
O33	O	-0.244115	-1.472711	0.750904
O34	O	0.255885	-0.972711	1.250904
C35	C	-0.216517	-1.261618	0.512951
C36	C	0.283483	-0.761618	1.012951
C37	C	-0.216517	-1.143312	0.512958
C38	C	0.283483	-0.643312	1.012958
C39	C	-0.186570	-1.003283	0.441763
C40	C	0.313430	-0.503283	0.941763
C41	C	-0.227568	-1.074126	0.415864
C42	C	0.272432	-0.574126	0.915864
C43	C	-0.175524	-1.074040	0.538809
C44	C	0.324476	-0.574040	1.038809
C45	C	-0.257561	-1.003371	0.487035
C46	C	0.242439	-0.503371	0.987035
C47	C	-0.205490	-1.003278	0.610025
C48	C	0.294510	-0.503278	1.110025
C49	C	-0.246516	-1.074090	0.584163
C50	C	0.253484	-0.574090	1.084163
C51	C	-0.333721	-1.538188	0.512986
C52	C	0.166279	-1.038188	1.012986
C53	C	-0.383655	-1.538200	0.512982
C54	C	0.116345	-1.038200	1.012982
C55	C	-0.693312	-1.606372	0.444739
C56	C	-0.193312	-1.106372	0.944739
C57	C	-0.880985	-1.606424	0.444648
C58	C	-0.380985	-1.106424	0.944648
O59	O	-0.905260	-1.664307	0.386726
O60	O	-0.405260	-1.164307	0.886726
N61	N	-0.904441	-1.538341	0.512697
N62	N	-0.404441	-1.038341	1.012697
C63	C	-0.880975	-1.470234	0.580768
C64	C	-0.380975	-0.970234	1.080768
O65	O	-0.905232	-1.412318	0.638638
O66	O	-0.405232	-0.912318	1.138638
C67	C	-0.693303	-1.470177	0.580853
C68	C	-0.193303	-0.970177	1.080853
C69	C	-0.669850	-1.538273	0.512807
C70	C	-0.169850	-1.038273	1.012807
C71	C	-0.669858	-1.674461	0.376698
C72	C	-0.169858	-1.174461	0.876698
C73	C	-0.622943	-1.674451	0.376725
C74	C	-0.122943	-1.174451	0.876725
C75	C	-0.599481	-1.606352	0.444794
C76	C	-0.099481	-1.106352	0.944794
C77	C	-0.622934	-1.538263	0.512835
C78	C	-0.122934	-1.038263	1.012835
C79	C	-0.669839	-1.402066	0.648918
C80	C	-0.169839	-0.902066	1.148918
C81	C	-0.622918	-1.402056	0.648932
C82	C	-0.122918	-0.902056	1.148932
C83	C	-0.599464	-1.470151	0.580886
C84	C	-0.099464	-0.970151	1.080886
C85	C	-0.552557	-1.470154	0.580931
C86	C	-0.052557	-0.970154	1.080931
N87	N	-0.529101	-1.538238	0.512882
N88	N	-0.029101	-1.038238	1.012882
C89	C	-0.552563	-1.606337	0.444813
C90	C	-0.052563	-1.106337	0.944813
C91	C	-0.979506	-1.470271	0.580721
C92	C	-0.479506	-0.970271	1.080721
C93	C	-1.026424	-1.470286	0.580701
C94	C	-0.526424	-0.970286	1.080701
C95	C	-1.026430	-1.606475	0.444579
C96	C	-0.526430	-1.106475	0.944579
C97	C	-0.979511	-1.606464	0.444605
C98	C	-0.479511	-1.106464	0.944605
C99	C	-0.956050	-1.538354	0.512672
C100	C	-0.456050	-1.038354	1.012672
C101	C	-0.454037	-1.606312	0.444877
C102	C	0.045963	-1.106312	0.944877
C103	C	-0.407117	-1.606299	0.444913
C104	C	0.092883	-1.106299	0.944913
C105	C	-0.407115	-1.470106	0.581031
C106	C	0.092885	-0.970106	1.081031
C107	C	-0.454031	-1.470123	0.580999
C108	C	0.045969	-0.970123	1.080999
C109	C	-0.477490	-1.538229	0.512913
C110	C	0.022510	-1.038229	1.012913
O111	O	-0.528252	-1.412293	0.638814
O112	O	-0.028252	-0.912293	1.138814
O113	O	-0.528298	-1.664227	0.386935
O114	O	-0.028298	-1.164227	0.886935
C115	C	-0.740227	-1.606381	0.444711
C116	C	-0.240227	-1.106381	0.944711
C117	C	-0.763680	-1.538292	0.512752
C118	C	-0.263680	-1.038292	1.012752
C119	C	-0.740219	-1.470193	0.580821
C120	C	-0.240219	-0.970193	1.080821
C121	C	-0.810598	-1.538308	0.512733
C122	C	-0.310598	-1.038308	1.012733
C123	C	-0.834060	-1.606407	0.444664
C124	C	-0.334060	-1.106407	0.944664
C125	C	-0.810604	-1.674490	0.376615
C126	C	-0.310604	-1.174490	0.876615
C127	C	-0.763689	-1.674481	0.376643
C128	C	-0.263689	-1.174481	0.876643
C129	C	-0.763674	-1.402110	0.648870
C130	C	-0.263674	-0.902110	1.148870
C131	C	-0.810590	-1.402126	0.648838
C132	C	-0.310590	-0.902126	1.148838
C133	C	-0.834052	-1.470225	0.580769
C134	C	-0.334052	-0.970225	1.080769
C135	C	-0.099820	-1.538191	0.512928
C136	C	0.400180	-1.038191	1.012928
C137	C	-0.049886	-1.538385	0.512633
C138	C	0.450114	-1.038385	1.012633
C139	C	-0.216538	-1.538089	0.789537
C140	C	0.283462	-1.038089	1.289537
C141	C	-0.216551	-1.538157	0.907842
C142	C	0.283449	-1.038157	1.407842
C143	C	-0.216559	-0.815780	0.513022
C144	C	0.283441	-0.315780	1.013022
C145	C	-0.216542	-0.934085	0.512984
C146	C	0.283458	-0.434085	1.012984
C147	C	-0.216557	-1.538258	0.235375
C148	C	0.283443	-1.038258	0.735375
C149	C	-0.216563	-1.538300	0.117069
C150	C	0.283437	-1.038300	0.617069
C151	C	-0.246537	-1.467048	0.977120
C152	C	0.253463	-0.967048	1.477120
C153	C	-0.205542	-1.441129	1.047954
C154	C	0.294458	-0.941129	1.547954
C155	C	-0.257553	-1.564172	1.047807
C156	C	0.242447	-1.064172	1.547807
C157	C	-0.175535	-1.512187	0.977118
C158	C	0.324465	-1.012187	1.477118
C159	C	-0.227573	-1.635275	0.976965
C160	C	0.272427	-1.135275	1.476965
C161	C	-0.186550	-1.609393	1.047767
C162	C	0.313450	-1.109393	1.547767
H163	H	-0.388023	-1.661754	0.389501
H164	H	0.111977	-1.161754	0.889501
H165	H	-0.196230	-1.359065	1.079159
H166	H	0.303770	-0.859065	1.579159
F167	F	-0.153497	-0.962644	0.362996
F168	F	0.346503	-0.462644	0.862996
H169	H	-0.196138	-0.972135	0.692078
H170	H	0.303862	-0.472135	1.192078
F171	F	-0.239779	-1.114795	0.308583
F172	F	0.260221	-0.614795	0.808583
H173	H	-1.045516	-1.414847	0.636122
H174	H	-0.545516	-0.914847	1.136122
F175	F	-0.694821	-1.746957	0.304253
F176	F	-0.194821	-1.246957	0.804253
F177	F	-0.130205	-1.483380	0.936705
F178	F	0.369795	-0.983380	1.436705
F179	F	-0.954542	-1.397774	0.653173
F180	F	-0.454542	-0.897774	1.153173
H181	H	-0.292223	-1.586118	1.078858
H182	H	0.207777	-1.086118	1.578858
H183	H	-0.473132	-1.661767	0.389431
H184	H	0.026868	-1.161767	0.889431
F185	F	-0.597987	-1.746923	0.304295
F186	F	-0.097987	-1.246923	0.804295
H187	H	-0.161167	-1.669589	1.078592
H188	H	0.338833	-1.169589	1.578592
F189	F	-0.130199	-1.114619	0.567375
F190	F	0.369801	-0.614619	1.067375
F191	F	-0.279668	-1.114470	0.662876
F192	F	0.220332	-0.614470	1.162876
F193	F	-0.954554	-1.678939	0.372181
F194	F	-0.454554	-1.178939	0.872181
F195	F	-0.302901	-0.962968	0.458344
F196	F	0.197099	-0.462968	0.958344
H197	H	-1.045541	-1.661925	0.389156
H198	H	-0.545541	-1.161925	0.889156
F199	F	-0.694789	-1.329591	0.721347
F200	F	-0.194789	-0.829591	1.221347
H201	H	-0.236905	-1.717320	0.945762
H202	H	0.263095	-1.217320	1.445762
H203	H	-0.603818	-1.346579	0.704350
H204	H	-0.103818	-0.846579	1.204350
F205	F	-0.478992	-1.397655	0.653427
F206	F	0.021008	-0.897655	1.153427
H207	H	-0.388004	-1.414665	0.636454
H208	H	0.111996	-0.914665	1.136454
F209	F	-0.738734	-1.746957	0.304218
F210	F	-0.238734	-1.246957	0.804218
H211	H	-0.829715	-1.729943	0.321195
H212	H	-0.329715	-1.229943	0.821195
F213	F	-0.835546	-1.329651	0.721274
F214	F	-0.335546	-0.829651	1.221274
F215	F	-0.738711	-1.329624	0.721320
F216	F	-0.238711	-0.829624	1.221320
F217	F	-0.279635	-1.388311	0.936570
F218	F	0.220365	-0.888311	1.436570
