data_functionalizedCrystal
_audit_creation_method	'MofGen! by Chris Wilmer'
_symmetry_space_group_name_H-M	'P1'
_symmetry_Int_Tables_number	1
_symmetry_cell_setting	triclinic
loop_
_symmetry_equiv_pos_as_xyz
  x,y,z
_cell_length_a	18.215407
_cell_length_b	18.101395
_cell_length_c	18.215399
_cell_angle_alpha	89.973573
_cell_angle_beta	89.980167
_cell_angle_gamma	90.031552
loop_
_atom_site_label
_atom_site_type_symbol
_atom_site_fract_x
_atom_site_fract_y
_atom_site_fract_z
Zn1	Zn	1.125040	-0.294828	-0.416124
Zn2	Zn	1.458373	0.038505	-0.082790
Zn3	Zn	1.791707	0.371838	0.250543
Zn4	Zn	1.124935	-0.418675	-0.293061
Zn5	Zn	1.458269	-0.085341	0.040273
Zn6	Zn	1.791602	0.247992	0.373606
Zn7	Zn	1.001973	-0.294853	-0.293071
Zn8	Zn	1.335306	0.038481	0.040262
Zn9	Zn	1.668639	0.371814	0.373596
Zn10	Zn	1.001925	-0.418634	-0.416086
Zn11	Zn	1.335259	-0.085300	-0.082752
Zn12	Zn	1.668592	0.248033	0.250581
O13	O	1.063468	-0.356747	-0.354585
O14	O	1.396802	-0.023414	-0.021252
O15	O	1.730135	0.309919	0.312081
O16	O	1.228010	-0.311264	-0.399811
O17	O	1.561344	0.022069	-0.066477
O18	O	1.894677	0.355403	0.266856
O19	O	1.108600	-0.402277	-0.190078
O20	O	1.441933	-0.068944	0.143256
O21	O	1.775267	0.264390	0.476589
O22	O	1.018362	-0.191216	-0.309415
O23	O	1.351695	0.142117	0.023919
O24	O	1.685028	0.475450	0.357252
O25	O	1.227933	-0.402253	-0.309397
O26	O	1.561267	-0.068920	0.023937
O27	O	1.894600	0.264413	0.357270
O28	O	1.108779	-0.191199	-0.399821
O29	O	1.442112	0.142135	-0.066487
O30	O	1.775445	0.475468	0.266846
O31	O	1.018260	-0.311305	-0.190085
O32	O	1.351593	0.022028	0.143248
O33	O	1.684927	0.355361	0.476581
O34	O	0.898982	-0.311265	-0.309378
O35	O	1.232316	0.022068	0.023956
O36	O	1.565649	0.355401	0.357289
O37	O	1.018281	-0.402183	-0.519075
O38	O	1.351614	-0.068850	-0.185742
O39	O	1.684947	0.264484	0.147592
O40	O	0.898947	-0.402207	-0.399756
O41	O	1.232281	-0.068873	-0.066422
O42	O	1.565614	0.264460	0.266911
O43	O	1.108733	-0.311224	-0.519103
O44	O	1.442066	0.022109	-0.185770
O45	O	1.775399	0.355443	0.147564
O46	O	1.108554	-0.522302	-0.309360
O47	O	1.441887	-0.188969	0.023974
O48	O	1.775221	0.144364	0.357307
O49	O	1.018179	-0.522272	-0.399746
O50	O	1.351512	-0.188939	-0.066412
O51	O	1.684846	0.144395	0.266921
C52	C	0.872262	-0.356735	-0.354564
C53	C	1.205595	-0.023401	-0.021231
C54	C	1.538929	0.309932	0.312103
C55	C	0.790463	-0.356747	-0.354572
C56	C	1.123797	-0.023414	-0.021239
C57	C	1.457130	0.309920	0.312094
C58	C	0.602270	-0.404175	-0.401573
C59	C	0.935604	-0.070841	-0.068240
C60	C	1.268937	0.262492	0.265093
C61	C	0.525412	-0.404177	-0.401583
C62	C	0.858745	-0.070844	-0.068249
C63	C	1.192078	0.262490	0.265084
C64	C	0.525418	-0.309333	-0.307613
C65	C	0.858752	0.024000	0.025720
C66	C	1.192085	0.357333	0.359054
C67	C	0.602276	-0.309328	-0.307608
C68	C	0.935609	0.024005	0.025725
C69	C	1.268942	0.357339	0.359059
C70	C	0.640700	-0.356753	-0.354587
C71	C	0.974033	-0.023419	-0.021254
C72	C	1.307366	0.309914	0.312079
C73	C	0.486984	-0.356761	-0.354601
C74	C	0.820317	-0.023427	-0.021268
C75	C	1.153650	0.309906	0.312065
C76	C	0.403650	-0.356763	-0.354611
C77	C	0.736983	-0.023429	-0.021278
C78	C	1.070317	0.309904	0.312056
C79	C	0.724039	-0.356750	-0.354579
C80	C	1.057372	-0.023416	-0.021245
C81	C	1.390705	0.309917	0.312088
C82	C	1.063370	-0.549158	-0.354564
C83	C	1.396703	-0.215825	-0.021230
C84	C	1.730037	0.117509	0.312103
C85	C	1.063395	-0.631472	-0.354579
C86	C	1.396728	-0.298139	-0.021246
C87	C	1.730062	0.035195	0.312088
C88	C	1.063557	-0.930563	-0.354619
C89	C	1.396890	-0.597230	-0.021285
C90	C	1.730223	-0.263896	0.312048
C91	C	1.006827	-0.899249	-0.411628
C92	C	1.340160	-0.565916	-0.078295
C93	C	1.673494	-0.232583	0.255039
C94	C	1.006557	-0.813632	-0.411450
C95	C	1.339891	-0.480298	-0.078116
C96	C	1.673224	-0.146965	0.255217
C97	C	1.063476	-0.782180	-0.354600
C98	C	1.396810	-0.448847	-0.021266
C99	C	1.730143	-0.115514	0.312067
C100	C	1.042479	-0.813331	-0.277038
C101	C	1.375812	-0.479997	0.056295
C102	C	1.709145	-0.146664	0.389628
C103	C	1.042113	-0.898976	-0.277380
C104	C	1.375446	-0.565643	0.055954
C105	C	1.708780	-0.232309	0.389287
C106	C	1.141408	-0.898906	-0.374487
C107	C	1.474741	-0.565573	-0.041154
C108	C	1.808075	-0.232240	0.292179
C109	C	1.140950	-0.813255	-0.376188
C110	C	1.474284	-0.479922	-0.042855
C111	C	1.807617	-0.146589	0.290478
C112	C	1.063432	-0.698321	-0.354584
C113	C	1.396766	-0.364988	-0.021251
C114	C	1.730099	-0.031654	0.312083
C115	C	1.063599	-1.014422	-0.354629
C116	C	1.396932	-0.681089	-0.021296
C117	C	1.730265	-0.347756	0.312038
C118	C	1.255421	-0.356761	-0.354607
C119	C	1.588755	-0.023427	-0.021273
C120	C	1.922088	0.309906	0.312060
C121	C	1.337220	-0.356766	-0.354616
C122	C	1.670553	-0.023433	-0.021283
C123	C	2.003887	0.309900	0.312051
C124	C	1.063513	-0.356696	-0.546538
C125	C	1.396847	-0.023363	-0.213205
C126	C	1.730180	0.309970	0.120128
C127	C	1.063532	-0.356675	-0.628337
C128	C	1.396866	-0.023341	-0.295004
C129	C	1.730199	0.309992	0.038330
C130	C	1.063587	-0.163585	-0.354623
C131	C	1.396921	0.169748	-0.021290
C132	C	1.730254	0.503081	0.312044
C133	C	1.063638	-0.081271	-0.354639
C134	C	1.396971	0.252062	-0.021306
C135	C	1.730305	0.585395	0.312028
C136	C	1.110648	-0.309268	-0.816547
C137	C	1.443981	0.024066	-0.483214
C138	C	1.777314	0.357399	-0.149880
C139	C	1.110656	-0.309246	-0.893406
C140	C	1.443990	0.024087	-0.560072
C141	C	1.777323	0.357420	-0.226739
C142	C	1.016469	-0.403967	-0.893365
C143	C	1.349802	-0.070633	-0.560032
C144	C	1.683136	0.262700	-0.226699
C145	C	1.016457	-0.403984	-0.816508
C146	C	1.349790	-0.070651	-0.483175
C147	C	1.683124	0.262683	-0.149841
C148	C	1.063551	-0.356636	-0.778101
C149	C	1.396884	-0.023302	-0.444767
C150	C	1.730217	0.310031	-0.111434
C151	C	1.063571	-0.356597	-0.931817
C152	C	1.396905	-0.023263	-0.598484
C153	C	1.730238	0.310070	-0.265150
C154	C	1.063580	-0.356574	-1.015151
C155	C	1.396914	-0.023240	-0.681817
C156	C	1.730247	0.310093	-0.348484
C157	C	1.063541	-0.356657	-0.694762
C158	C	1.396874	-0.023324	-0.361428
C159	C	1.730207	0.310009	-0.028095
C160	C	1.063466	-0.356745	-0.163379
C161	C	1.396799	-0.023411	0.169954
C162	C	1.730133	0.309922	0.503288
C163	C	1.063590	-0.356558	-0.081580
C164	C	1.396923	-0.023225	0.251753
C165	C	1.730256	0.310109	0.585086
H166	H	0.633553	-0.442789	-0.439829
H167	H	0.966886	-0.109456	-0.106495
H168	H	1.300220	0.223877	0.226838
H169	H	0.978100	-0.442556	-0.785204
H170	H	1.311433	-0.109223	-0.451871
H171	H	1.644766	0.224111	-0.118537
H172	H	0.978129	-0.442518	-0.924646
H173	H	1.311462	-0.109184	-0.591312
H174	H	1.644796	0.224149	-0.257979
N175	N	1.092672	-0.787788	-0.222284
N176	N	1.426005	-0.454454	0.111049
N177	N	1.759338	-0.121121	0.444382
N178	N	1.129446	-0.833159	-0.185918
N179	N	1.462779	-0.499826	0.147415
N180	N	1.796112	-0.166493	0.480749
H181	H	1.164895	-0.815119	-0.147247
H182	H	1.498228	-0.481786	0.186086
H183	H	1.831562	-0.148453	0.519420
H184	H	0.494124	-0.270723	-0.269363
H185	H	0.827457	0.062610	0.063970
H186	H	1.160791	0.395944	0.397303
H187	H	0.494126	-0.442792	-0.439845
H188	H	0.827459	-0.109458	-0.106511
H189	H	1.160792	0.223875	0.226822
N190	N	0.641524	-0.260875	-0.259611
N191	N	0.974857	0.072459	0.073723
N192	N	1.308191	0.405792	0.407056
N193	N	0.607210	-0.218538	-0.217667
N194	N	0.940544	0.114795	0.115666
N195	N	1.273877	0.448129	0.449000
H196	H	0.634929	-0.184316	-0.183772
H197	H	0.968262	0.149017	0.149561
H198	H	1.301596	0.482350	0.482895
H199	H	1.019695	-0.792568	-0.468960
H200	H	1.353028	-0.459235	-0.135627
H201	H	1.686361	-0.125902	0.197706
N202	N	1.023187	-0.924979	-0.484016
N203	N	1.356520	-0.591645	-0.150683
N204	N	1.689854	-0.258312	0.182650
N205	N	1.076843	-0.966700	-0.494438
N206	N	1.410176	-0.633367	-0.161104
N207	N	1.743509	-0.300033	0.172229
H208	H	1.088413	-0.984857	-0.545567
H209	H	1.421746	-0.651524	-0.212234
H210	H	1.755079	-0.318191	0.121099
H211	H	1.148992	-0.270712	-0.785278
H212	H	1.482325	0.062622	-0.451945
H213	H	1.815659	0.395955	-0.118611
N214	N	1.194444	-0.924295	-0.322408
N215	N	1.527777	-0.590962	0.010926
N216	N	1.861110	-0.257629	0.344259
N217	N	1.229703	-0.878805	-0.284705
N218	N	1.563036	-0.545472	0.048629
N219	N	1.896370	-0.212139	0.381962
H220	H	1.267156	-0.896738	-0.247922
H221	H	1.600489	-0.563405	0.085412
H222	H	1.933823	-0.230072	0.418745
N223	N	0.934880	-0.926337	-0.395324
N224	N	1.268213	-0.593003	-0.061991
N225	N	1.601546	-0.259670	0.271343
N226	N	0.925203	-0.968603	-0.341900
N227	N	1.258536	-0.635269	-0.008567
N228	N	1.591869	-0.301936	0.324766
H229	H	0.874391	-0.987735	-0.330383
H230	H	1.207724	-0.654402	0.002950
H231	H	1.541057	-0.321069	0.336283
H232	H	0.985204	-0.919019	-0.260549
H233	H	1.318537	-0.585686	0.072785
H234	H	1.651870	-0.252352	0.406118
N235	N	0.934164	-0.788016	-0.394942
N236	N	1.267497	-0.454683	-0.061608
N237	N	1.600830	-0.121350	0.271725
N238	N	0.883682	-0.833392	-0.383510
N239	N	1.217015	-0.500059	-0.050177
N240	N	1.550349	-0.166726	0.283156
H241	H	0.832550	-0.815303	-0.371850
H242	H	1.165884	-0.481970	-0.038516
H243	H	1.499217	-0.148636	0.294817
N244	N	1.091672	-0.924979	-0.222260
N245	N	1.425005	-0.591645	0.111073
N246	N	1.758339	-0.258312	0.444406
N247	N	1.068503	-0.964583	-0.171007
N248	N	1.401836	-0.631250	0.162327
N249	N	1.735170	-0.297916	0.495660
H250	H	1.103497	-0.982948	-0.132074
H251	H	1.436830	-0.649615	0.201259
H252	H	1.770164	-0.316282	0.534592
N253	N	0.971844	-0.786500	-0.255550
N254	N	1.305177	-0.453166	0.077783
N255	N	1.638510	-0.119833	0.411116
N256	N	0.936846	-0.744446	-0.297224
N257	N	1.270180	-0.411112	0.036109
N258	N	1.603513	-0.077779	0.369443
H259	H	0.886959	-0.725495	-0.282052
H260	H	1.220292	-0.392162	0.051281
H261	H	1.553626	-0.058829	0.384615
H262	H	1.160552	-0.920455	-0.430081
H263	H	1.493885	-0.587122	-0.096748
H264	H	1.827219	-0.253788	0.236586
H265	H	1.156785	-0.792893	-0.433269
H266	H	1.490118	-0.459560	-0.099936
H267	H	1.823452	-0.126226	0.233398
H268	H	1.185453	-0.791842	-0.337692
H269	H	1.518786	-0.458508	-0.004359
H270	H	1.852119	-0.125175	0.328975
N271	N	1.158766	-0.260852	-0.932666
N272	N	1.492099	0.072481	-0.599333
N273	N	1.825432	0.405814	-0.265999
N274	N	1.200804	-0.218580	-0.898362
N275	N	1.534137	0.114753	-0.565028
N276	N	1.867470	0.448086	-0.231695
H277	H	1.234783	-0.184398	-0.926088
H278	H	1.568116	0.148935	-0.592755
H279	H	1.901449	0.482268	-0.259422
