data_functionalizedCrystal
_audit_creation_method	'MofGen! by Chris Wilmer'
_symmetry_space_group_name_H-M	'P1'
_symmetry_Int_Tables_number	1
_symmetry_cell_setting	triclinic
loop_
_symmetry_equiv_pos_as_xyz
  x,y,z
_cell_length_a	19.188930
_cell_length_b	23.532357
_cell_length_c	22.010155
_cell_angle_alpha	89.999114
_cell_angle_beta	89.977671
_cell_angle_gamma	82.986534
loop_
_atom_site_label
_atom_site_type_symbol
_atom_site_fract_x
_atom_site_fract_y
_atom_site_fract_z
O1	O	0.925908	0.071094	-0.050728
O2	O	1.259241	0.404428	0.282606
O3	O	1.592574	0.737761	0.615939
O4	O	0.722564	0.080666	-0.050687
O5	O	1.055897	0.413999	0.282646
O6	O	1.389230	0.747333	0.615980
O7	O	0.830386	-0.007040	-0.050696
O8	O	1.163719	0.326293	0.282637
O9	O	1.497052	0.659626	0.615971
O10	O	0.818086	0.158801	-0.050719
O11	O	1.151419	0.492134	0.282615
O12	O	1.484752	0.825468	0.615948
O13	O	0.830366	-0.007027	0.050354
O14	O	1.163699	0.326307	0.383688
O15	O	1.497033	0.659640	0.717021
O16	O	0.722544	0.080680	0.050363
O17	O	1.055877	0.414013	0.383697
O18	O	1.389211	0.747347	0.717030
O19	O	0.925888	0.071108	0.050323
O20	O	1.259221	0.404442	0.383656
O21	O	1.592554	0.737775	0.716989
Cu22	Cu	0.824214	0.075895	0.059570
Cu23	Cu	1.157547	0.409229	0.392903
Cu24	Cu	1.490881	0.742562	0.726236
Cu25	Cu	0.824237	0.075879	-0.059934
Cu26	Cu	1.157571	0.409212	0.273399
Cu27	Cu	1.490904	0.742546	0.606733
O28	O	0.818066	0.158815	0.050332
O29	O	1.151399	0.492148	0.383665
O30	O	1.484732	0.825481	0.716998
C31	C	0.696544	0.080363	-0.000156
C32	C	1.029877	0.413696	0.333177
C33	C	1.363210	0.747030	0.666510
C34	C	0.619042	0.079433	-0.000140
C35	C	0.952376	0.412766	0.333193
C36	C	1.285709	0.746099	0.666526
C37	C	0.830068	-0.028251	-0.000169
C38	C	1.163401	0.305083	0.333164
C39	C	1.496735	0.638416	0.666498
C40	C	0.829143	-0.091471	-0.000163
C41	C	1.162476	0.241862	0.333170
C42	C	1.495810	0.575195	0.666504
C43	C	0.573943	0.130896	-0.000157
C44	C	0.907276	0.464229	0.333176
C45	C	1.240610	0.797563	0.666510
C46	C	0.501122	0.130022	-0.000163
C47	C	0.834455	0.463355	0.333170
C48	C	1.167789	0.796688	0.666503
C49	C	0.473404	0.077681	-0.000166
C50	C	0.806737	0.411015	0.333168
C51	C	1.140071	0.744348	0.666501
C52	C	0.518513	0.026211	-0.000146
C53	C	0.851847	0.359545	0.333188
C54	C	1.185180	0.692878	0.666521
C55	C	0.591333	0.027087	-0.000133
C56	C	0.924666	0.360420	0.333200
C57	C	1.257999	0.693754	0.666534
N58	N	0.365567	0.037669	-0.034577
N59	N	0.698900	0.371002	0.298757
N60	N	1.032234	0.704336	0.632090
N61	N	0.296391	0.036841	-0.034590
N62	N	0.629725	0.370174	0.298743
N63	N	0.963058	0.703507	0.632077
C64	C	0.254004	0.075040	-0.000203
C65	C	0.587338	0.408373	0.333131
C66	C	0.920671	0.741707	0.666464
N67	N	0.283405	0.114108	0.034191
N68	N	0.616739	0.447441	0.367524
N69	N	0.950072	0.780774	0.700858
N70	N	0.352587	0.114938	0.034202
N71	N	0.685920	0.448271	0.367535
N72	N	1.019254	0.781604	0.700868
C73	C	0.394445	0.076726	-0.000179
C74	C	0.727778	0.410059	0.333154
C75	C	1.061111	0.743393	0.666488
C76	C	0.129944	0.125559	-0.000225
C77	C	0.463277	0.458892	0.333108
C78	C	0.796610	0.792226	0.666441
C79	C	0.057122	0.124683	-0.000228
C80	C	0.390455	0.458016	0.333105
C81	C	0.723789	0.791349	0.666439
C82	C	0.074515	0.020871	-0.000216
C83	C	0.407848	0.354204	0.333117
C84	C	0.741182	0.687537	0.666450
C85	C	0.147335	0.021749	-0.000208
C86	C	0.480668	0.355082	0.333126
C87	C	0.814002	0.688415	0.666459
C88	C	0.175045	0.074094	-0.000215
C89	C	0.508378	0.407428	0.333118
C90	C	0.841712	0.740761	0.666452
C91	C	0.823347	-0.483502	-0.055277
C92	C	1.156680	-0.150169	0.278056
C93	C	1.490013	0.183164	0.611389
C94	C	0.822467	-0.542904	-0.055281
C95	C	1.155801	-0.209570	0.278053
C96	C	1.489134	0.123763	0.611386
O97	O	0.821998	-0.573627	-0.102126
O98	O	1.155331	-0.240294	0.231207
O99	O	1.488665	0.093039	0.564541
N100	N	0.822021	-0.572608	-0.000199
N101	N	1.155354	-0.239275	0.333135
N102	N	1.488687	0.094058	0.666468
C103	C	0.822446	-0.542908	0.054890
C104	C	1.155779	-0.209574	0.388223
C105	C	1.489113	0.123759	0.721557
O106	O	0.821985	-0.573628	0.101741
O107	O	1.155318	-0.240295	0.435075
O108	O	1.488651	0.093039	0.768408
C109	C	0.823320	-0.483507	0.054893
C110	C	1.156654	-0.150174	0.388226
C111	C	1.489987	0.183160	0.721559
C112	C	0.823774	-0.453806	-0.000193
C113	C	1.157108	-0.120473	0.333141
C114	C	1.490441	0.212860	0.666474
C115	C	0.823800	-0.453802	-0.110358
C116	C	1.157133	-0.120468	0.222975
C117	C	1.490466	0.212865	0.556308
C118	C	0.824680	-0.394404	-0.110355
C119	C	1.158014	-0.061071	0.222979
C120	C	1.491347	0.272262	0.556312
C121	C	0.825108	-0.364708	-0.055270
C122	C	1.158441	-0.031375	0.278063
C123	C	1.491775	0.301958	0.611396
C124	C	0.824655	-0.394409	-0.000189
C125	C	1.157988	-0.061076	0.333144
C126	C	1.491321	0.272258	0.666477
C127	C	0.823741	-0.453807	0.109981
C128	C	1.157074	-0.120474	0.443314
C129	C	1.490407	0.212860	0.776648
C130	C	0.824615	-0.394402	0.109979
C131	C	1.157948	-0.061069	0.443312
C132	C	1.491281	0.272265	0.776645
C133	C	0.825068	-0.364701	0.054893
C134	C	1.158402	-0.031368	0.388227
C135	C	1.491735	0.301965	0.721560
C136	C	0.825963	-0.305316	0.054899
C137	C	1.159296	0.028017	0.388232
C138	C	1.492630	0.361351	0.721565
N139	N	0.826410	-0.275611	-0.000183
N140	N	1.159743	0.057722	0.333150
N141	N	1.493076	0.391055	0.666484
C142	C	0.825982	-0.305307	-0.055268
C143	C	1.159315	0.028026	0.278066
C144	C	1.492649	0.361359	0.611399
C145	C	0.820609	-0.667653	0.054880
C146	C	1.153942	-0.334320	0.388214
C147	C	1.487276	-0.000986	0.721547
C148	C	0.819740	-0.727053	0.054878
C149	C	1.153073	-0.393720	0.388212
C150	C	1.486406	-0.060387	0.721545
C151	C	0.819760	-0.727045	-0.055293
C152	C	1.153093	-0.393712	0.278041
C153	C	1.486426	-0.060379	0.611374
C154	C	0.820634	-0.667644	-0.055290
C155	C	1.153967	-0.334311	0.278043
C156	C	1.487301	-0.000978	0.611377
C157	C	0.821056	-0.637949	-0.000202
C158	C	1.154389	-0.304615	0.333132
C159	C	1.487722	0.028718	0.666465
C160	C	0.827832	-0.180569	-0.055256
C161	C	1.161165	0.152764	0.278077
C162	C	1.494499	0.486097	0.611411
C163	C	0.828716	-0.121167	-0.055248
C164	C	1.162049	0.212166	0.278086
C165	C	1.495382	0.545499	0.611419
C166	C	0.828692	-0.121180	0.054923
C167	C	1.162025	0.212153	0.388256
C168	C	1.495358	0.545486	0.721590
C169	C	0.827812	-0.180578	0.054915
C170	C	1.161145	0.152756	0.388248
C171	C	1.494479	0.486089	0.721582
C172	C	0.827380	-0.210270	-0.000180
C173	C	1.160713	0.123063	0.333154
C174	C	1.494046	0.456396	0.666487
O175	O	0.826430	-0.274554	0.101720
O176	O	1.159763	0.058779	0.435054
O177	O	1.493097	0.392113	0.768387
O178	O	0.826434	-0.274579	-0.102111
O179	O	1.159768	0.058755	0.231223
O180	O	1.493101	0.392088	0.564556
C181	C	0.951908	0.071411	-0.000209
C182	C	1.285241	0.404745	0.333124
C183	C	1.618574	0.738078	0.666457
C184	C	1.029409	0.072342	-0.000229
C185	C	1.362742	0.405675	0.333104
C186	C	1.696076	0.739008	0.666437
C187	C	0.818383	0.180025	-0.000197
C188	C	1.151717	0.513358	0.333137
C189	C	1.485050	0.846692	0.666470
C190	C	0.819308	0.243246	-0.000207
C191	C	1.152642	0.576579	0.333127
C192	C	1.485975	0.909912	0.666460
N193	N	0.824203	0.075907	0.143622
N194	N	1.157536	0.409240	0.476955
N195	N	1.490869	0.742573	0.810289
C196	C	0.871983	0.037052	0.563398
C197	C	1.205316	0.370386	0.896731
C198	C	1.538649	0.703719	1.230064
C199	C	0.871986	0.037049	0.627005
C200	C	1.205319	0.370382	0.960338
C201	C	1.538653	0.703716	1.293672
O202	O	0.912583	0.004019	0.659893
O203	O	1.245916	0.337352	0.993226
O204	O	1.579249	0.670686	1.326560
N205	N	0.824236	0.075872	0.658829
N206	N	1.157569	0.409205	0.992163
N207	N	1.490903	0.742539	1.325496
C208	C	0.776475	0.114697	0.627043
C209	C	1.109808	0.448031	0.960376
C210	C	1.443142	0.781364	1.293709
O211	O	0.735860	0.147719	0.659952
O212	O	1.069193	0.481052	0.993285
O213	O	1.402527	0.814385	1.326619
C214	C	0.776469	0.114698	0.563436
C215	C	1.109802	0.448031	0.896769
C216	C	1.443136	0.781364	1.230103
C217	C	0.824227	0.075876	0.531615
C218	C	1.157560	0.409209	0.864949
C219	C	1.490894	0.742543	1.198282
C220	C	0.919736	-0.001767	0.531577
C221	C	1.253070	0.331567	0.864910
C222	C	1.586403	0.664900	1.198243
C223	C	0.919734	-0.001762	0.467973
C224	C	1.253067	0.331571	0.801307
C225	C	1.586400	0.664904	1.134640
C226	C	0.871978	0.037061	0.436191
C227	C	1.205311	0.370394	0.769524
C228	C	1.538644	0.703728	1.102858
C229	C	0.824224	0.075880	0.468012
C230	C	1.157558	0.409214	0.801345
C231	C	1.490891	0.742547	1.134679
C232	C	0.728705	0.153520	0.531650
C233	C	1.062039	0.486853	0.864984
C234	C	1.395372	0.820186	1.198317
C235	C	0.728703	0.153516	0.468040
C236	C	1.062037	0.486850	0.801373
C237	C	1.395370	0.820183	1.134706
C238	C	0.776461	0.114695	0.436219
C239	C	1.109794	0.448028	0.769552
C240	C	1.443128	0.781361	1.102886
C241	C	0.776466	0.114708	0.372626
C242	C	1.109799	0.448041	0.705960
C243	C	1.443133	0.781375	1.039293
N244	N	0.824216	0.075885	0.340802
N245	N	1.157549	0.409218	0.674136
N246	N	1.490883	0.742551	1.007469
C247	C	0.871972	0.037061	0.372585
C248	C	1.205305	0.370395	0.705918
C249	C	1.538639	0.703728	1.039251
C250	C	0.776490	0.114693	0.760620
C251	C	1.109824	0.448026	1.093954
C252	C	1.443157	0.781360	1.427287
C253	C	0.776499	0.114696	0.824226
C254	C	1.109832	0.448029	1.157559
C255	C	1.443166	0.781363	1.490892
C256	C	0.872009	0.037047	0.824184
C257	C	1.205343	0.370380	1.157517
C258	C	1.538676	0.703713	1.490850
C259	C	0.872003	0.037047	0.760577
C260	C	1.205337	0.370380	1.093911
C261	C	1.538670	0.703714	1.427244
C262	C	0.824240	0.075870	0.728796
C263	C	1.157574	0.409203	1.062129
C264	C	1.490907	0.742537	1.395463
C265	C	0.871963	0.037074	0.239013
C266	C	1.205297	0.370407	0.572347
C267	C	1.538630	0.703740	0.905680
C268	C	0.871959	0.037083	0.175404
C269	C	1.205292	0.370416	0.508738
C270	C	1.538625	0.703750	0.842071
C271	C	0.776446	0.114730	0.175452
C272	C	1.109780	0.448063	0.508785
C273	C	1.443113	0.781397	0.842118
C274	C	0.776453	0.114723	0.239055
C275	C	1.109787	0.448056	0.572388
C276	C	1.443120	0.781390	0.905722
C277	C	0.824214	0.075890	0.270834
C278	C	1.157548	0.409223	0.604168
C279	C	1.490881	0.742557	0.937501
O280	O	0.735888	0.147720	0.339698
O281	O	1.069222	0.481053	0.673031
O282	O	1.402555	0.814386	1.006365
O283	O	0.912574	0.004040	0.339667
O284	O	1.245907	0.337374	0.673001
O285	O	1.579241	0.670707	1.006334
N286	N	0.824253	0.075870	0.856013
N287	N	1.157586	0.409204	1.189347
N288	N	1.490919	0.742537	1.522680
H289	H	0.596499	0.173520	-0.000164
H290	H	0.929832	0.506853	0.333169
H291	H	1.263166	0.840186	0.666503
F292	F	0.825063	-0.362801	0.168613
F293	F	1.158396	-0.029468	0.501946
F294	F	1.491730	0.303866	0.835280
H295	H	0.820954	-0.643479	0.099743
H296	H	1.154288	-0.310145	0.433076
H297	H	1.487621	0.023188	0.766409
H298	H	0.464395	0.171931	-0.000175
H299	H	0.797728	0.505264	0.333158
H300	H	1.131062	0.838597	0.666491
F301	F	0.677864	0.194837	0.434220
F302	F	1.011197	0.528171	0.767553
F303	F	1.344531	0.861504	1.100887
H304	H	0.829087	-0.096988	-0.100107
H305	H	1.162420	0.236345	0.233227
H306	H	1.495753	0.569679	0.566560
F307	F	0.489013	-0.029493	-0.000145
F308	F	0.822346	0.303840	0.333188
F309	F	1.155680	0.637174	0.666521
F310	F	0.725631	0.156048	0.272920
F311	F	1.058964	0.489381	0.606253
F312	F	1.392297	0.822715	0.939587
F313	F	0.823255	-0.485403	0.168611
F314	F	1.156588	-0.152070	0.501945
F315	F	1.489922	0.181263	0.835278
H316	H	0.825047	-0.370227	-0.155211
H317	H	1.158381	-0.036894	0.178122
H318	H	1.491714	0.296440	0.511456
H319	H	0.827449	-0.204762	0.099770
H320	H	1.160782	0.128571	0.433103
H321	H	1.494116	0.461905	0.766437
F322	F	0.045020	-0.034834	-0.000213
F323	F	0.378354	0.298499	0.333120
F324	F	0.711687	0.631832	0.666454
H325	H	0.823449	-0.477974	-0.155217
H326	H	1.156782	-0.144640	0.178116
H327	H	1.490116	0.188693	0.511449
F328	F	0.639333	-0.027690	-0.000115
F329	F	0.972666	0.305643	0.333218
F330	F	1.306000	0.638977	0.666551
H331	H	0.184056	-0.020159	-0.000197
H332	H	0.517390	0.313175	0.333136
H333	H	0.850723	0.646508	0.666469
H334	H	0.829043	-0.096991	0.099771
H335	H	1.162376	0.236342	0.433105
H336	H	1.495710	0.569675	0.766438
H337	H	0.827477	-0.204738	-0.100119
H338	H	1.160810	0.128595	0.233214
H339	H	1.494143	0.461929	0.566548
H340	H	0.819409	-0.751234	-0.100145
H341	H	1.152743	-0.417901	0.233188
H342	H	1.486076	-0.084568	0.566521
H343	H	0.910851	0.005470	0.149498
H344	H	1.244185	0.338803	0.482831
H345	H	1.577518	0.672136	0.816164
H346	H	0.910854	0.005452	0.264881
H347	H	1.244188	0.338785	0.598214
H348	H	1.577521	0.672118	0.931547
F349	F	0.970560	-0.043084	0.434113
F350	F	1.303894	0.290249	0.767446
F351	F	1.637227	0.623583	1.100780
F352	F	0.159437	0.181269	-0.000228
F353	F	0.492770	0.514602	0.333105
F354	F	0.826104	0.847936	0.666438
H355	H	0.020402	0.166592	-0.000238
H356	H	0.353735	0.499925	0.333095
H357	H	0.687068	0.833259	0.666429
F358	F	0.821116	-0.636040	-0.113919
F359	F	1.154449	-0.302707	0.219415
F360	F	1.487782	0.030627	0.552748
H361	H	0.958625	-0.033384	0.557448
H362	H	1.291958	0.299949	0.890781
H363	H	1.625291	0.633283	1.224115
F364	F	0.819269	-0.758658	0.113508
F365	F	1.152603	-0.425325	0.446841
F366	F	1.485936	-0.091991	0.780174
F367	F	0.922832	-0.004273	0.726717
F368	F	1.256166	0.329061	1.060050
F369	F	1.589499	0.662394	1.393384
F370	F	0.922834	-0.004274	0.858021
F371	F	1.256168	0.329060	1.191354
F372	F	1.589501	0.662393	1.524688
H373	H	0.737618	0.146314	0.850130
H374	H	1.070951	0.479648	1.183463
H375	H	1.404284	0.812981	1.516796
H376	H	0.737598	0.146312	0.734747
H377	H	1.070931	0.479645	1.068080
H378	H	1.404264	0.812979	1.401414
H379	H	0.689816	0.185132	0.557550
H380	H	1.023150	0.518465	0.890884
H381	H	1.356483	0.851798	1.224217
F382	F	0.725624	0.156048	0.141617
F383	F	1.058958	0.489382	0.474950
F384	F	1.392291	0.822715	0.808284
