data_functionalizedCrystal
_audit_creation_method	'MofGen! by Chris Wilmer'
_symmetry_space_group_name_H-M	'P1'
_symmetry_Int_Tables_number	1
_symmetry_cell_setting	triclinic
loop_
_symmetry_equiv_pos_as_xyz
  x,y,z
_cell_length_a	13.897449
_cell_length_b	13.897448
_cell_length_c	16.959447
_cell_angle_alpha	89.970632
_cell_angle_beta	89.983048
_cell_angle_gamma	90.018519
loop_
_atom_site_label
_atom_site_type_symbol
_atom_site_fract_x
_atom_site_fract_y
_atom_site_fract_z
Zn1	Zn	1.474641	-0.383975	-0.446969
Zn2	Zn	1.974641	0.116025	0.053031
Zn3	Zn	1.474553	-0.545293	-0.314793
Zn4	Zn	1.974553	-0.045293	0.185207
Zn5	Zn	1.313349	-0.384016	-0.314801
Zn6	Zn	1.813349	0.115984	0.185199
Zn7	Zn	1.313312	-0.545232	-0.446926
Zn8	Zn	1.813312	-0.045232	0.053074
O9	O	1.393964	-0.464629	-0.380872
O10	O	1.893964	0.035371	0.119128
O11	O	1.609611	-0.405382	-0.429451
O12	O	2.109611	0.094618	0.070549
O13	O	1.453148	-0.523942	-0.204183
O14	O	1.953148	-0.023942	0.295817
O15	O	1.334796	-0.249029	-0.332355
O16	O	1.834796	0.250971	0.167645
O17	O	1.609547	-0.523902	-0.332342
O18	O	2.109547	-0.023902	0.167658
O19	O	1.453297	-0.248998	-0.429459
O20	O	1.953297	0.251002	0.070541
O21	O	1.334711	-0.405452	-0.204189
O22	O	1.834711	0.094548	0.295811
O23	O	1.178362	-0.405393	-0.332312
O24	O	1.678362	0.094607	0.167688
O25	O	1.334734	-0.523798	-0.557542
O26	O	1.834734	-0.023798	-0.057542
O27	O	1.178335	-0.523838	-0.429384
O28	O	1.678335	-0.023838	0.070616
O29	O	1.453262	-0.405323	-0.557575
O30	O	1.953262	0.094677	-0.057575
O31	O	1.453112	-0.680266	-0.332299
O32	O	1.953112	-0.180266	0.167701
O33	O	1.334649	-0.680221	-0.429376
O34	O	1.834649	-0.180221	0.070624
C35	C	1.143350	-0.464614	-0.380845
C36	C	1.643350	0.035386	0.119155
C37	C	1.036136	-0.464631	-0.380852
C38	C	1.536136	0.035369	0.119148
C39	C	0.949066	-0.464634	-0.380865
C40	C	1.449066	0.035366	0.119135
C41	C	0.839833	-0.464641	-0.380889
C42	C	1.339833	0.035359	0.119111
C43	C	1.393893	-0.715243	-0.380849
C44	C	1.893893	-0.215243	0.119151
C45	C	1.393952	-0.822457	-0.380866
C46	C	1.893952	-0.322457	0.119134
C47	C	1.394053	-1.018752	-0.380916
C48	C	1.894053	-0.518752	0.119084
C49	C	1.393994	-0.909520	-0.380890
C50	C	1.893994	-0.409520	0.119110
C51	C	1.645557	-0.464644	-0.380900
C52	C	2.145557	0.035356	0.119100
C53	C	1.752771	-0.464651	-0.380912
C54	C	2.252771	0.035349	0.119088
C55	C	1.394004	-0.464549	-0.587041
C56	C	1.894004	0.035451	-0.087041
C57	C	1.394021	-0.464515	-0.674897
C58	C	1.894021	0.035485	-0.174897
C59	C	1.394061	-0.213036	-0.380913
C60	C	1.894061	0.286964	0.119087
C61	C	1.394102	-0.105822	-0.380930
C62	C	1.894102	0.394178	0.119070
C63	C	1.332424	-0.526097	-1.046359
C64	C	1.832424	-0.026097	-0.546359
C65	C	1.455848	-0.402729	-1.046387
C66	C	1.955848	0.097271	-0.546387
C67	C	1.455823	-0.402749	-0.963841
C68	C	1.955823	0.097251	-0.463841
C69	C	1.394098	-0.464446	-0.922550
C70	C	1.894098	0.035554	-0.422550
C71	C	1.332399	-0.526122	-0.963805
C72	C	1.832399	-0.026122	-0.463805
C73	C	1.517528	-0.341081	-0.922580
C74	C	2.017528	0.158919	-0.422580
C75	C	1.517505	-0.341100	-0.840029
C76	C	2.017505	0.158900	-0.340029
C77	C	1.455775	-0.402792	-0.798737
C78	C	1.955775	0.097208	-0.298737
C79	C	1.394072	-0.464470	-0.839997
C80	C	1.894072	0.035530	-0.339997
C81	C	1.332348	-0.526167	-0.798706
C82	C	1.832348	-0.026167	-0.298706
C83	C	1.270639	-0.587840	-0.839964
C84	C	1.770639	-0.087840	-0.339964
C85	C	1.270668	-0.587814	-0.922513
C86	C	1.770668	-0.087814	-0.422513
C87	C	1.455746	-0.402818	-0.716188
C88	C	1.955746	0.097182	-0.216188
C89	C	1.332322	-0.526191	-0.716152
C90	C	1.832322	-0.026191	-0.216152
C91	C	1.393979	-0.464639	-0.175506
C92	C	1.893979	0.035361	0.324494
C93	C	1.394149	-0.464401	-0.087650
C94	C	1.894149	0.035599	0.412350
H95	H	1.220387	-0.638078	-0.806334
H96	H	1.720387	-0.138078	-0.306334
H97	H	1.282049	-0.576424	-0.682539
H98	H	1.782049	-0.076424	-0.182539
H99	H	1.567787	-0.290857	-0.956206
H100	H	2.067787	0.209143	-0.456206
C101	C	1.469177	-0.273105	-0.623381
C102	C	1.969177	0.226895	-0.123381
C103	C	1.523569	-0.335038	-0.670834
C104	C	2.023569	0.164962	-0.170834
H105	H	1.511053	-0.231263	-0.595378
H106	H	2.011053	0.268737	-0.095378
H107	H	1.427191	-0.236193	-0.655593
H108	H	1.927191	0.263807	-0.155593
H109	H	1.432411	-0.309859	-0.586980
H110	H	1.932411	0.190141	-0.086980
H111	H	1.560330	-0.298284	-0.707238
H112	H	2.060330	0.201716	-0.207238
H113	H	1.565573	-0.371954	-0.638619
H114	H	2.065573	0.128046	-0.138619
H115	H	1.220432	-0.638029	-0.956112
H116	H	1.720432	-0.138029	-0.456112
C117	C	1.510692	-0.347924	-1.172941
C118	C	2.010692	0.152076	-0.672941
C119	C	1.523697	-0.334918	-1.091773
C120	C	2.023697	0.165082	-0.591773
H121	H	1.552578	-0.306053	-1.200960
H122	H	2.052578	0.193947	-0.700960
H123	H	1.524790	-0.412724	-1.186446
H124	H	2.024790	0.087276	-0.686446
H125	H	1.445890	-0.333797	-1.186465
H126	H	1.945890	0.166203	-0.686465
H127	H	1.588498	-0.349051	-1.078248
H128	H	2.088498	0.150949	-0.578248
H129	H	1.509606	-0.270102	-1.078262
H130	H	2.009606	0.229898	-0.578262
C131	C	1.639504	-0.219143	-0.848359
C132	C	2.139504	0.280857	-0.348359
C133	C	1.585323	-0.273301	-0.794682
C134	C	2.085323	0.226699	-0.294682
H135	H	1.681365	-0.177282	-0.820360
H136	H	2.181365	0.322718	-0.320360
H137	H	1.676397	-0.261163	-0.880541
H138	H	2.176397	0.238837	-0.380541
H139	H	1.597491	-0.182242	-0.880568
H140	H	2.097491	0.317758	-0.380568
H141	H	1.627336	-0.310208	-0.762476
H142	H	2.127336	0.189792	-0.262476
H143	H	1.548428	-0.231276	-0.762486
H144	H	2.048428	0.268724	-0.262486
H145	H	1.282180	-0.576308	-1.079955
H146	H	1.782180	-0.076308	-0.579955
