data_functionalizedCrystal
_audit_creation_method	'MofGen! by Chris Wilmer'
_symmetry_space_group_name_H-M	'P1'
_symmetry_Int_Tables_number	1
_symmetry_cell_setting	triclinic
loop_
_symmetry_equiv_pos_as_xyz
  x,y,z
_cell_length_a	8.597340
_cell_length_b	10.654559
_cell_length_c	7.088929
_cell_angle_alpha	83.718297
_cell_angle_beta	103.954719
_cell_angle_gamma	84.911972
loop_
_atom_site_label
_atom_site_type_symbol
_atom_site_fract_x
_atom_site_fract_y
_atom_site_fract_z
O1	O	2.103284	0.172467	0.187499
O2	O	1.638830	0.192967	0.110986
O3	O	1.881728	-0.000106	0.151001
O4	O	1.860386	0.365540	0.147484
O5	O	1.914188	-0.025967	0.474323
O6	O	1.671290	0.167106	0.434309
O7	O	2.135745	0.146606	0.510821
Cu8	Cu	1.906481	0.154495	0.502087
Cu9	Cu	1.868093	0.185078	0.119721
O10	O	1.892846	0.339680	0.470807
C11	C	1.595588	0.179276	0.262850
C12	C	1.418381	0.176993	0.233658
C13	C	1.896388	-0.059822	0.312399
C14	C	1.891689	-0.199226	0.311613
C15	C	1.744258	-0.249593	0.287321
C16	C	1.739855	-0.380581	0.286610
C17	C	2.030326	-0.410825	0.334477
C18	C	2.034729	-0.279840	0.335202
C19	C	1.601218	-0.168979	0.263732
C20	C	1.453776	-0.219344	0.239436
C21	C	1.449373	-0.350333	0.238725
C22	C	1.592413	-0.430955	0.262310
C23	C	2.178986	0.160298	0.358953
C24	C	2.356191	0.162581	0.388133
C25	C	1.878186	0.399395	0.309404
C26	C	1.882884	0.538801	0.310178
N27	N	1.933493	0.132984	0.771025
N28	N	1.841094	0.206580	-0.149215
H29	H	1.336047	0.187587	0.079054
C30	C	1.467398	0.148265	0.596989
C31	C	1.442344	0.245338	0.735895
C32	C	1.553562	0.231022	0.944755
C33	C	1.689834	0.119632	1.014709
C34	C	1.714894	0.022551	0.875801
C35	C	1.603676	0.036867	0.666941
H36	H	1.341462	0.327802	0.684113
H37	H	1.535011	0.302888	1.047583
H38	H	1.772165	0.109034	1.169320
H39	H	1.815776	-0.059914	0.927583
H40	H	1.622227	-0.034999	0.564112
H41	H	1.745333	0.282846	0.753363
H42	H	1.604786	-0.062320	0.264304
H43	H	2.029272	0.056721	0.868459
C44	C	2.187659	-0.499505	0.360400
C45	C	2.324936	-0.507408	0.548132
C46	C	2.482270	-0.596086	0.574046
C47	C	2.502327	-0.676860	0.412229
C48	C	2.365046	-0.668960	0.224484
C49	C	2.207712	-0.580282	0.198569
H50	H	2.310092	-0.447611	0.667930
H51	H	2.583895	-0.601934	0.713028
H52	H	2.618796	-0.742505	0.431412
H53	H	2.379890	-0.728757	0.104685
H54	H	2.106087	-0.574434	0.059587
H55	H	1.337320	-0.153695	0.220251
H56	H	1.329321	-0.391338	0.218963
H57	H	1.588816	-0.537614	0.261728
H58	H	2.154780	-0.238832	0.354985
