data_functionalizedCrystal
_audit_creation_method	'MofGen! by Chris Wilmer'
_symmetry_space_group_name_H-M	'P1'
_symmetry_Int_Tables_number	1
_symmetry_cell_setting	triclinic
loop_
_symmetry_equiv_pos_as_xyz
  x,y,z
_cell_length_a	18.426585
_cell_length_b	23.196402
_cell_length_c	18.426585
_cell_angle_alpha	60.000987
_cell_angle_beta	90.003816
_cell_angle_gamma	59.998426
loop_
_atom_site_label
_atom_site_type_symbol
_atom_site_fract_x
_atom_site_fract_y
_atom_site_fract_z
Zr1	Zr	0.699119	0.631000	-0.095183
O2	O	0.583229	0.751277	-0.211067
O3	O	0.734648	0.510728	-0.059660
O4	O	0.734637	0.631002	-0.211062
O5	O	0.583246	0.630998	0.059765
O6	O	0.854068	0.630998	-0.211055
O7	O	0.583240	0.631002	-0.059666
O8	O	0.854087	0.415849	0.059775
O9	O	0.583226	0.846147	-0.211065
O10	O	0.838928	0.560192	-0.044502
O11	O	0.749802	0.560192	0.044623
O12	O	0.749790	0.701800	-0.133634
O13	O	0.660664	0.701800	-0.044509
Zr14	Zr	0.889608	0.630987	0.095307
Zr15	Zr	0.889598	0.630993	-0.095172
Zr16	Zr	0.699129	0.630993	0.095296
Zr17	Zr	0.699115	0.782307	-0.095179
Zr18	Zr	0.889611	0.479679	0.095303
O19	O	0.854079	0.751259	0.059784
O20	O	0.854065	0.751268	-0.211052
O21	O	0.583243	0.751268	0.059769
O22	O	1.005498	0.510709	0.211191
O23	O	1.005484	0.510719	-0.059645
O24	O	0.734662	0.510719	0.211176
O25	O	1.005481	0.630988	-0.059641
O26	O	0.854090	0.630984	0.211186
O27	O	0.734659	0.630988	0.211179
O28	O	1.005487	0.630984	0.059789
O29	O	0.734631	0.846142	-0.211056
O30	O	0.854095	0.415844	0.211180
O31	O	1.005500	0.415839	0.211189
O32	O	1.005492	0.415844	0.059784
O33	O	0.583234	0.846142	-0.059660
O34	O	0.734639	0.846137	-0.059651
O35	O	0.838937	0.560186	0.133758
O36	O	0.928062	0.560186	0.044633
O37	O	0.838924	0.701794	-0.044499
O38	O	0.749799	0.701794	0.044626
C39	C	0.794368	0.441730	0.000057
C40	C	0.794370	0.377496	0.000055
C41	C	0.840888	-0.085347	-0.046445
C42	C	0.840885	-0.024988	-0.046453
C43	C	0.794364	0.005194	0.000070
C44	C	0.747823	-0.024973	0.046585
C45	C	0.747819	-0.085325	0.046585
C46	C	0.801016	0.067218	0.078001
C47	C	0.801026	0.127566	0.078004
C48	C	0.794371	0.191342	0.000070
C49	C	0.787723	0.194756	-0.077866
C50	C	0.787720	0.134405	-0.077866
C51	C	0.794363	0.070636	0.000075
C52	C	0.840901	0.286954	-0.046456
C53	C	0.840893	0.347317	-0.046466
C54	C	0.747836	0.347325	0.046580
C55	C	0.747839	0.286969	0.046582
C56	C	0.794376	0.256784	0.000066
C57	C	0.556104	0.631001	0.000048
C58	C	0.475241	0.631004	0.000044
C59	C	0.409570	0.631007	0.000044
C60	C	0.327188	0.631004	0.000052
C61	C	0.261531	0.630995	0.000063
C62	C	0.179144	0.630991	0.000070
C63	C	1.032623	0.630985	0.000076
C64	C	1.113486	0.630982	0.000080
C65	C	0.794351	0.631001	-0.238198
C66	C	0.794347	0.631004	-0.319061
C67	C	0.794358	0.820256	0.000067
C68	C	0.794357	0.884490	0.000069
C69	C	0.794380	0.630979	-0.615145
C70	C	0.794373	0.630983	-0.532763
C71	C	0.794363	0.630991	-0.467105
C72	C	0.794357	0.630995	-0.384719
C73	C	0.794376	0.630985	0.238322
C74	C	0.794380	0.630982	0.319185
C75	C	1.032628	0.441722	0.000071
C76	C	1.113493	0.377485	0.000074
C77	C	0.794381	0.441722	0.238317
C78	C	0.794386	0.377485	0.319178
C79	C	1.032640	0.441714	0.238330
C80	C	1.113509	0.377475	0.319196
C81	C	0.556086	0.820272	-0.238206
C82	C	0.475217	0.884512	-0.319072
C83	C	0.556099	0.820264	0.000053
C84	C	0.475234	0.884501	0.000050
C85	C	0.794346	0.820264	-0.238193
C86	C	0.794340	0.884501	-0.319054
C87	C	1.104940	0.347322	-0.046461
C88	C	1.180914	0.286973	-0.046476
C89	C	1.265439	0.256785	0.000049
C90	C	1.273990	0.286954	0.046585
C91	C	1.198017	0.347306	0.046594
C92	C	0.840916	0.347316	0.403687
C93	C	0.840919	0.286967	0.479672
C94	C	0.794395	0.256785	0.471147
C95	C	0.747860	0.286960	0.386629
C96	C	0.747853	0.347312	0.310645
C97	C	1.198017	0.347307	0.310650
C98	C	1.274009	0.286956	0.386625
C99	C	1.265492	0.256769	0.471145
C100	C	1.180975	0.286942	0.479690
C101	C	1.104985	0.347297	0.403716
C102	C	0.390710	0.914686	-0.310526
C103	C	0.314718	0.975057	-0.386501
C104	C	0.323235	1.005247	-0.471022
C105	C	0.407751	0.975069	-0.479567
C106	C	0.483742	0.914704	-0.403592
C107	C	0.483786	0.914670	0.046577
C108	C	0.407813	0.975036	0.046571
C109	C	0.323287	1.005227	0.000043
C110	C	0.314737	0.975055	-0.046489
C111	C	0.390710	0.914695	-0.046488
C112	C	0.840873	0.914664	-0.310500
C113	C	0.840884	0.975013	-0.386471
C114	C	0.794358	1.005202	-0.470995
C115	C	0.747824	0.975033	-0.479547
C116	C	0.747818	0.914681	-0.403577
H117	H	0.782302	0.246686	-0.141328
Br118	Br	0.904038	1.015948	-0.374843
H119	H	0.806447	0.124775	0.141466
Br120	Br	0.794374	1.087111	-0.574089
H121	H	0.709944	0.999622	-0.548377
Br122	Br	0.794413	0.174878	0.574277
H123	H	1.036178	0.371851	0.410688
Br124	Br	0.220095	1.087172	-0.574122
H125	H	1.204993	0.371857	0.084493
H126	H	1.342821	0.262365	0.084463
Br127	Br	0.904080	0.246027	0.594363
H128	H	0.878760	0.890094	-0.241683
Br129	Br	0.598490	0.873713	0.109726
H130	H	0.552549	0.890136	-0.410562
Br131	Br	0.220189	1.087146	0.000051
Br132	Br	0.904068	0.388261	0.415282
H133	H	0.414792	0.999592	0.084466
H134	H	1.342819	0.262395	0.379651
Br135	Br	0.200016	1.016035	-0.109627
H136	H	0.709965	0.371868	0.241837
Br137	Br	0.684725	0.245989	0.375073
H138	H	0.709922	0.890129	-0.410555
Br139	Br	1.368632	0.174858	0.574246
Br140	Br	1.169432	0.245966	0.594405
Br141	Br	0.419295	1.016049	-0.594281
H142	H	1.204968	0.371876	0.241835
Br143	Br	0.379086	0.873754	-0.109632
Br144	Br	0.379126	0.873725	-0.195828
H145	H	0.878779	-0.109920	-0.084323
Br146	Br	0.904039	0.015956	-0.109582
H147	H	0.245908	0.999617	-0.379526
H148	H	0.878792	0.262379	-0.084335
Br149	Br	0.778691	0.139041	-0.183632
H150	H	0.878780	0.371880	-0.084349
H151	H	1.173935	0.262417	-0.084370
H152	H	0.709953	0.371903	0.084455
Br153	Br	0.810041	-0.019330	0.183776
Br154	Br	0.684680	0.015992	0.109716
Br155	Br	0.684664	-0.126263	0.109714
Br156	Br	0.684690	0.246027	0.109715
H157	H	1.036122	0.371901	-0.084358
H158	H	1.327294	0.207641	0.000035
