data_functionalizedCrystal
_audit_creation_method	'MofGen! by Chris Wilmer'
_symmetry_space_group_name_H-M	'P1'
_symmetry_Int_Tables_number	1
_symmetry_cell_setting	triclinic
loop_
_symmetry_equiv_pos_as_xyz
  x,y,z
_cell_length_a	10.540539
_cell_length_b	19.188930
_cell_length_c	9.616153
_cell_angle_alpha	89.992615
_cell_angle_beta	89.995174
_cell_angle_gamma	83.835137
loop_
_atom_site_label
_atom_site_type_symbol
_atom_site_fract_x
_atom_site_fract_y
_atom_site_fract_z
O1	O	1.683724	0.098389	-0.115598
O2	O	1.314107	0.107659	-0.115617
O3	O	1.509582	0.001439	-0.115579
O4	O	1.488249	0.204608	-0.115635
O5	O	1.509555	0.001441	0.115712
O6	O	1.314080	0.107661	0.115675
O7	O	1.683697	0.098391	0.115694
Zn8	Zn	1.498885	0.103026	0.152407
Zn9	Zn	1.498920	0.103023	-0.152330
O10	O	1.488222	0.204610	0.115657
C11	C	1.266806	0.106965	0.000027
C12	C	1.125904	0.104885	0.000021
C13	C	1.508878	-0.024575	0.000070
C14	C	1.506804	-0.102094	0.000082
C15	C	0.944233	0.025184	0.000583
C16	C	1.090805	0.027292	0.000047
C17	C	1.063423	0.142224	-0.132063
C18	C	0.916937	0.139576	-0.132158
C19	C	0.916384	0.141157	0.130863
C20	C	1.063350	0.141872	0.132594
C21	C	1.621502	-0.146253	0.000095
C22	C	1.619554	-0.219090	0.000072
C23	C	1.502901	-0.247764	0.000065
C24	C	1.388187	-0.203595	0.000045
C25	C	1.390139	-0.130760	0.000053
N26	N	1.413724	-0.356363	0.078774
N27	N	1.411878	-0.425554	0.078769
C28	C	1.497014	-0.467212	0.000037
N29	N	1.584085	-0.437067	-0.078672
N30	N	1.585935	-0.367870	-0.078661
C31	C	1.500772	-0.326741	0.000055
C32	C	1.609608	-0.590350	0.000023
C33	C	1.607655	-0.663188	-0.000008
C34	C	1.376285	-0.647691	-0.000021
C35	C	1.378241	-0.574855	-0.000004
C36	C	1.494906	-0.546189	0.000025
C37	C	1.730998	0.099085	0.000047
C38	C	1.871901	0.101165	0.000044
C39	C	1.488927	0.230625	0.000004
C40	C	1.491000	0.308143	-0.000017
N41	N	1.498870	0.103028	0.360381
N42	N	1.498945	0.103016	-0.360304
C43	C	1.393992	0.159658	0.580731
C44	C	1.394216	0.159870	0.419564
C45	C	1.631228	0.119601	0.418832
C46	C	1.630655	0.120002	0.580050
C47	C	1.472715	0.029640	0.580311
C48	C	1.469658	0.030115	0.419084
H49	H	1.134055	-0.002088	0.094731
F50	F	0.853042	0.214412	0.132011
F51	F	1.117535	0.106161	0.260314
F52	F	1.119847	0.108320	-0.260531
F53	F	1.662251	0.188782	0.366024
F54	F	1.091028	0.216699	-0.138533
H55	H	0.885379	0.116047	0.230981
H56	H	1.284841	-0.538899	-0.000006
F57	F	1.729739	-0.710186	-0.000004
H58	H	1.296735	-0.094804	0.000044
H59	H	1.704603	-0.567009	0.000040
F60	F	1.660945	0.189973	0.629167
H61	H	1.281303	-0.671037	-0.000034
H62	H	1.716500	-0.122918	0.000113
F63	F	1.735681	0.068120	0.631034
H64	H	1.295819	0.149898	0.380047
F65	F	1.264965	0.146817	0.631430
F66	F	1.349319	0.009034	0.633517
H67	H	1.086329	0.198442	0.140553
F68	F	1.415536	0.230414	0.633624
H69	H	1.293208	-0.226946	0.000036
H70	H	1.549256	-0.012519	0.618442
F71	F	1.416002	0.231032	0.369113
H72	H	1.712958	-0.255051	0.000077
F73	F	1.735717	0.067150	0.368728
H74	H	1.372296	0.017553	0.380883
H75	H	1.541158	-0.014059	0.378804
H76	H	0.916312	-0.005469	0.095309
H77	H	0.914709	-0.005341	-0.093599
H78	H	0.889346	0.111977	-0.230877
F79	F	0.852628	0.212514	-0.140014
F80	F	1.146203	-0.011227	-0.124101
