data_functionalizedCrystal
_audit_creation_method	'MofGen! by Chris Wilmer'
_symmetry_space_group_name_H-M	'P1'
_symmetry_Int_Tables_number	1
_symmetry_cell_setting	triclinic
loop_
_symmetry_equiv_pos_as_xyz
  x,y,z
_cell_length_a	21.295419
_cell_length_b	25.639234
_cell_length_c	21.295417
_cell_angle_alpha	90.027023
_cell_angle_beta	89.954692
_cell_angle_gamma	89.979419
loop_
_atom_site_label
_atom_site_type_symbol
_atom_site_fract_x
_atom_site_fract_y
_atom_site_fract_z
Zn1	Zn	0.962331	-0.295612	0.250399
Zn2	Zn	1.462331	0.204388	0.750399
Zn3	Zn	0.962241	-0.208173	0.355661
Zn4	Zn	1.462241	0.291827	0.855661
Zn5	Zn	0.857061	-0.208190	0.250436
Zn6	Zn	1.357061	0.291810	0.750436
Zn7	Zn	0.857024	-0.295577	0.355661
Zn8	Zn	1.357024	0.204423	0.855661
O9	O	0.909664	-0.251888	0.303039
O10	O	1.409664	0.248112	0.803039
O11	O	1.050408	-0.284021	0.264346
O12	O	1.550408	0.215979	0.764346
O13	O	0.948266	-0.135010	0.341718
O14	O	1.448266	0.364990	0.841718
O15	O	0.871079	-0.219808	0.162342
O16	O	1.371079	0.280192	0.662342
O17	O	1.050342	-0.219780	0.341681
O18	O	1.550342	0.280220	0.841681
O19	O	0.948420	-0.284037	0.162314
O20	O	1.448420	0.215963	0.662314
O21	O	0.870992	-0.135022	0.264410
O22	O	1.370992	0.364978	0.764410
O23	O	0.768967	-0.219774	0.264411
O24	O	1.268967	0.280226	0.764411
O25	O	0.871015	-0.368747	0.341683
O26	O	1.371015	0.131253	0.841683
O27	O	0.768939	-0.283977	0.341719
O28	O	1.268939	0.216023	0.841719
O29	O	0.948384	-0.368773	0.264347
O30	O	1.448384	0.131227	0.764347
O31	O	0.948230	-0.219746	0.443750
O32	O	1.448230	0.280254	0.943750
O33	O	0.870927	-0.283961	0.443751
O34	O	1.370927	0.216039	0.943751
C35	C	0.746113	-0.251873	0.303070
C36	C	1.246113	0.248127	0.803070
C37	C	0.676144	-0.251880	0.303098
C38	C	1.176144	0.248120	0.803098
C39	C	0.643335	-0.285382	0.262895
C40	C	1.143335	0.214618	0.762895
C41	C	0.577592	-0.285384	0.262878
C42	C	1.077592	0.214616	0.762878
C43	C	0.544662	-0.251889	0.303075
C44	C	1.044662	0.248111	0.803075
C45	C	0.577479	-0.218381	0.343281
C46	C	1.077479	0.281619	0.843281
C47	C	0.643221	-0.218376	0.343292
C48	C	1.143221	0.281624	0.843292
N49	N	0.441387	-0.247803	0.358153
N50	N	0.941387	0.252197	0.858153
N51	N	0.378935	-0.247810	0.358140
N52	N	0.878935	0.252190	0.858140
C53	C	0.346587	-0.251901	0.303043
C54	C	0.846587	0.248099	0.803043
N55	N	0.379050	-0.255993	0.247956
N56	N	0.879050	0.244007	0.747956
N57	N	0.441507	-0.255988	0.247970
N58	N	0.941507	0.244012	0.747970
C59	C	0.473377	-0.251890	0.303067
C60	C	0.973377	0.248110	0.803067
C61	C	0.242492	-0.285407	0.262818
C62	C	0.742492	0.214593	0.762818
C63	C	0.176748	-0.285405	0.262800
C64	C	0.676748	0.214595	0.762800
C65	C	0.176637	-0.218405	0.343208
C66	C	0.676637	0.281595	0.843208
C67	C	0.242379	-0.218404	0.343221
C68	C	0.742379	0.281596	0.843221
C69	C	0.275303	-0.251907	0.303026
C70	C	0.775303	0.248093	0.803026
C71	C	0.909705	-0.388261	0.303011
C72	C	1.409705	0.111739	0.803011
C73	C	0.909722	-0.446375	0.302998
C74	C	1.409722	0.053625	0.802998
C75	C	0.869503	-0.806750	0.262669
C76	C	1.369503	-0.306750	0.762669
C77	C	0.869507	-0.861354	0.262658
C78	C	1.369507	-0.361354	0.762658
O79	O	0.835279	-0.889601	0.228438
O80	O	1.335279	-0.389601	0.728438
N81	N	0.909743	-0.888658	0.302900
N82	N	1.409743	-0.388658	0.802900
C83	C	0.949975	-0.861354	0.343160
C84	C	1.449975	-0.361354	0.843160
O85	O	0.984199	-0.889592	0.377388
O86	O	1.484199	-0.389592	0.877388
C87	C	0.949968	-0.806751	0.343174
C88	C	1.449968	-0.306751	0.843174
C89	C	0.909733	-0.779450	0.302925
C90	C	1.409733	-0.279450	0.802925
C91	C	0.829271	-0.779450	0.222424
C92	C	1.329271	-0.279450	0.722424
C93	C	0.829269	-0.724849	0.222435
C94	C	1.329269	-0.224849	0.722435
C95	C	0.869498	-0.697549	0.262691
C96	C	1.369498	-0.197549	0.762691
C97	C	0.909731	-0.724850	0.302936
C98	C	1.409731	-0.224850	0.802936
C99	C	0.990196	-0.779448	0.383437
C100	C	1.490196	-0.279448	0.883437
C101	C	0.990185	-0.724841	0.383448
C102	C	1.490185	-0.224841	0.883448
C103	C	0.949950	-0.697540	0.343199
C104	C	1.449950	-0.197540	0.843199
C105	C	0.949958	-0.642949	0.343203
C106	C	1.449958	-0.142949	0.843203
N107	N	0.909721	-0.615646	0.302961
N108	N	1.409721	-0.115646	0.802961
C109	C	0.869491	-0.642946	0.262705
C110	C	1.369491	-0.142946	0.762705
C111	C	0.949986	-0.976025	0.343128
C112	C	1.449986	-0.476025	0.843128
C113	C	0.949997	-1.030627	0.343111
C114	C	1.449997	-0.530627	0.843111
C115	C	0.869527	-1.030624	0.262610
C116	C	1.369527	-0.530624	0.762610
C117	C	0.869520	-0.976020	0.262624
C118	C	1.369520	-0.476020	0.762624
C119	C	0.909749	-0.948721	0.302886
C120	C	1.409749	-0.448721	0.802886
C121	C	0.869490	-0.528281	0.262730
C122	C	1.369490	-0.028281	0.762730
C123	C	0.869493	-0.473675	0.262743
C124	C	1.369493	0.026325	0.762743
C125	C	0.949959	-0.473683	0.343246
C126	C	1.449959	0.026317	0.843246
C127	C	0.949959	-0.528284	0.343232
C128	C	1.449959	-0.028284	0.843232
C129	C	0.909719	-0.555581	0.302971
C130	C	1.409719	-0.055581	0.802971
O131	O	0.984166	-0.614668	0.377407
O132	O	1.484166	-0.114668	0.877407
O133	O	0.835267	-0.614701	0.228488
O134	O	1.335267	-0.114701	0.728488
C135	C	1.073854	-0.251903	0.303010
C136	C	1.573854	0.248097	0.803010
C137	C	1.143823	-0.251910	0.302997
C138	C	1.643823	0.248090	0.802997
C139	C	0.909582	-0.251859	0.466591
C140	C	1.409582	0.248141	0.966591
C141	C	0.909604	-0.251864	0.536559
C142	C	1.409604	0.248136	1.036559
C143	C	0.909660	-0.116046	0.303023
C144	C	1.409660	0.383954	0.803023
C145	C	0.909764	-0.057932	0.302857
C146	C	1.409764	0.442068	0.802857
C147	C	0.909764	-0.251929	0.138849
C148	C	1.409764	0.248071	0.638849
C149	C	0.909807	-0.251946	0.068881
C150	C	1.409807	0.248054	0.568881
C151	C	0.949891	-0.218462	0.569405
C152	C	1.449891	0.281538	1.069405
C153	C	0.949921	-0.218474	0.635147
C154	C	1.449921	0.281526	1.135147
C155	C	0.909652	-0.251882	0.668042
C156	C	1.409652	0.248118	1.168042
C157	C	0.869362	-0.285291	0.635188
C158	C	1.369362	0.214709	1.135188
C159	C	0.869338	-0.285282	0.569447
C160	C	1.369338	0.214718	1.069447
N161	N	0.854584	-0.255863	0.771322
N162	N	1.354584	0.244137	1.271322
N163	N	0.854609	-0.255869	0.833773
N164	N	1.354609	0.244131	1.333773
C165	C	0.909722	-0.251912	0.866116
C166	C	1.409722	0.248088	1.366116
N167	N	0.964811	-0.247940	0.833648
N168	N	1.464811	0.252060	1.333648
N169	N	0.964786	-0.247932	0.771191
N170	N	1.464786	0.252068	1.271191
C171	C	0.909673	-0.251896	0.739327
C172	C	1.409673	0.248104	1.239327
C173	C	0.950045	-0.218521	0.970247
C174	C	1.450045	0.281479	1.470247
C175	C	0.950075	-0.218536	1.035991
C176	C	1.450075	0.281464	1.535991
C177	C	0.869511	-0.285351	1.036031
C178	C	1.369511	0.214649	1.536031
C179	C	0.869486	-0.285338	0.970288
C180	C	1.369486	0.214662	1.470288
C181	C	0.909752	-0.251920	0.937401
C182	C	1.409752	0.248080	1.437401
H183	H	0.550663	-0.191109	0.376009
H184	H	1.050663	0.308891	0.876009
H185	H	0.670137	-0.312662	0.230165
H186	H	1.170137	0.187338	0.730165
O187	O	0.141129	-0.182272	0.386560
O188	O	0.641129	0.317728	0.886560
H189	H	0.153706	-0.191157	0.435983
H190	H	0.653706	0.308843	0.935983
O191	O	0.785884	-0.808890	0.178994
O192	O	1.285884	-0.308890	0.678994
H193	H	0.736470	-0.798394	0.189792
H194	H	1.236470	-0.298394	0.689792
H195	H	0.836729	-0.451449	0.229964
H196	H	1.336729	0.048551	0.729964
O197	O	0.826096	-0.557719	0.219302
O198	O	1.326096	-0.057719	0.719302
H199	H	0.798128	-0.529555	0.191318
H200	H	1.298128	-0.029555	0.691318
H201	H	0.550873	-0.312664	0.230137
H202	H	1.050873	0.187336	0.730137
O203	O	0.785876	-0.695406	0.179021
O204	O	1.285876	-0.195406	0.679021
H205	H	0.757904	-0.723570	0.151032
H206	H	1.257904	-0.223570	0.651032
O207	O	0.826124	-0.946575	0.219214
O208	O	1.326124	-0.446575	0.719214
H209	H	0.798153	-0.974738	0.191223
H210	H	1.298153	-0.474738	0.691223
H211	H	0.150036	-0.312685	0.230058
H212	H	0.650036	0.187315	0.730058
O213	O	0.826133	-1.060073	0.219189
O214	O	1.326133	-0.560073	0.719189
H215	H	0.832898	-1.102628	0.225948
H216	H	1.332898	-0.602628	0.725948
O217	O	0.826079	-0.321386	1.071504
O218	O	1.326079	0.178614	1.571504
H219	H	0.798061	-0.344613	1.037616
H220	H	1.298061	0.155387	1.537616
H221	H	0.982730	-0.191273	0.661895
H222	H	1.482730	0.308727	1.161895
O223	O	0.678615	-0.182241	0.386656
O224	O	1.178615	0.317759	0.886656
H225	H	0.644674	-0.158950	0.414607
H226	H	1.144674	0.341050	0.914607
O227	O	1.033582	-0.808879	0.426867
O228	O	1.533582	-0.308879	0.926867
H229	H	1.082994	-0.798408	0.416081
H230	H	1.582994	-0.298408	0.916081
H231	H	0.836678	-0.312536	0.943544
H232	H	1.336678	0.187464	1.443544
H233	H	0.982767	-1.052851	0.375879
H234	H	1.482767	-0.552851	0.875879
O235	O	0.278010	-0.321533	0.219460
O236	O	0.778010	0.178467	0.719460
H237	H	0.244148	-0.344823	0.191492
H238	H	0.744148	0.155177	0.691492
O239	O	0.825927	-0.321321	0.670669
O240	O	1.325927	0.178679	1.170669
H241	H	0.836694	-0.362363	0.658016
H242	H	1.336694	0.137637	1.158016
O243	O	0.993355	-0.557735	0.386639
O244	O	1.493355	-0.057735	0.886639
H245	H	1.021326	-0.529576	0.414635
H246	H	1.521326	-0.029576	0.914635
O247	O	0.993392	-0.946581	0.386542
O248	O	1.493392	-0.446581	0.886542
H249	H	1.021375	-0.974744	0.414513
H250	H	1.521375	-0.474744	0.914513
O251	O	0.277772	-0.182269	0.386584
O252	O	0.777772	0.317731	0.886584
H253	H	0.265117	-0.191162	0.436003
H254	H	0.765117	0.308838	0.936003
O255	O	1.033582	-0.695396	0.426868
O256	O	1.533582	-0.195396	0.926868
H257	H	1.061562	-0.723557	0.454845
H258	H	1.561562	-0.223557	0.954845
H259	H	0.982715	-0.451446	0.376020
H260	H	1.482715	0.048554	0.876020
O261	O	0.993327	-0.182427	0.533931
O262	O	1.493327	0.317573	1.033931
H263	H	1.021352	-0.159206	0.567820
H264	H	1.521352	0.340794	1.067820
H265	H	0.836531	-0.312483	0.542704
H266	H	1.336531	0.187517	1.042704
O267	O	0.993480	-0.182487	0.934768
O268	O	1.493480	0.317513	1.434768
H269	H	1.021508	-0.159268	0.968655
H270	H	1.521508	0.340732	1.468655
H271	H	0.982886	-0.191337	1.062733
H272	H	1.482886	0.308663	1.562733
