data_functionalizedCrystal
_audit_creation_method	'MofGen! by Chris Wilmer'
_symmetry_space_group_name_H-M	'P1'
_symmetry_Int_Tables_number	1
_symmetry_cell_setting	triclinic
loop_
_symmetry_equiv_pos_as_xyz
  x,y,z
_cell_length_a	10.540539
_cell_length_b	10.540539
_cell_length_c	9.616153
_cell_angle_alpha	89.999906
_cell_angle_beta	89.995174
_cell_angle_gamma	84.525492
loop_
_atom_site_label
_atom_site_type_symbol
_atom_site_fract_x
_atom_site_fract_y
_atom_site_fract_z
O1	O	1.685892	0.178895	-0.115573
O2	O	1.316479	0.195751	-0.115589
O3	O	1.509614	0.002617	-0.115579
O4	O	1.492758	0.372030	-0.115583
O5	O	1.509587	0.002621	0.115712
O6	O	1.316452	0.195755	0.115702
O7	O	1.685865	0.178899	0.115718
Zn8	Zn	1.501155	0.187328	0.152433
Zn9	Zn	1.501190	0.187323	-0.152304
O10	O	1.492731	0.372034	0.115708
C11	C	1.269163	0.194489	0.000054
C12	C	1.128215	0.190707	0.000048
C13	C	0.944788	0.045790	0.000589
C14	C	1.091406	0.049624	0.000054
C15	C	1.066557	0.258600	-0.132027
C16	C	0.920013	0.253785	-0.132123
C17	C	0.919494	0.256660	0.130899
C18	C	1.066476	0.257959	0.132630
C19	C	1.508336	-0.044684	0.000064
C20	C	1.504554	-0.185632	0.000056
C21	C	1.359637	-0.369059	-0.000469
C22	C	1.363471	-0.222441	0.000052
C23	C	1.572435	-0.247288	0.132138
C24	C	1.567620	-0.393832	0.132249
C25	C	1.570519	-0.394355	-0.130772
C26	C	1.571819	-0.247373	-0.132518
C27	C	1.733182	0.180161	0.000072
C28	C	1.874130	0.183943	0.000069
C29	C	1.494008	0.419335	0.000062
C30	C	1.497790	0.560283	0.000060
N31	N	1.501140	0.187331	0.360407
N32	N	1.501215	0.187310	-0.360278
C33	C	1.397510	0.290298	0.580772
C34	C	1.397739	0.290684	0.419604
C35	C	1.633864	0.217464	0.418862
C36	C	1.633299	0.218193	0.580080
C37	C	1.473368	0.053892	0.580319
C38	C	1.470321	0.054757	0.419092
H39	H	0.916192	-0.009944	0.095307
N40	N	1.421464	0.421793	0.368489
H41	H	1.421710	0.422589	0.263462
H42	H	1.351892	0.486237	0.403894
H43	H	0.891814	0.203603	-0.230849
N44	N	1.506108	-0.193155	-0.261947
H45	H	1.510564	-0.097893	-0.264586
H46	H	1.549821	-0.233309	-0.346804
N47	N	1.702012	-0.457379	0.140242
H48	H	1.699934	-0.552979	0.140384
H49	H	1.752211	-0.431367	0.057227
H50	H	1.088911	0.362208	-0.136942
N51	N	1.120711	0.192270	0.262064
H52	H	1.185005	0.119251	0.234948
H53	H	1.163724	0.255184	0.320641
N54	N	1.510054	-0.436151	-0.263379
H55	H	1.480107	-0.358778	-0.320757
H56	H	1.574694	-0.492778	-0.318128
N57	N	1.509951	-0.190844	0.262325
H58	H	1.417234	-0.207724	0.263632
H59	H	1.554389	-0.231141	0.346687
H60	H	0.872267	0.358563	0.131790
H61	H	1.415178	0.388722	0.621270
N62	N	1.285811	-0.406949	-0.125921
H63	H	1.259370	-0.328915	-0.183784
H64	H	1.341263	-0.470312	-0.183526
N65	N	1.665559	0.347122	0.629885
H66	H	1.680010	0.402949	0.547112
H67	H	1.592784	0.388182	0.687570
N68	N	1.286090	-0.409057	0.124283
H69	H	1.341874	-0.472748	0.181140
H70	H	1.259104	-0.331817	0.183153
H71	H	1.298585	0.272445	0.619578
H72	H	1.674680	-0.223152	-0.140490
N73	N	1.292211	-0.167110	0.125674
H74	H	1.200798	-0.188179	0.121609
H75	H	1.333785	-0.204579	0.212988
N76	N	1.705503	-0.456902	-0.131953
H77	H	1.719532	-0.514347	-0.048199
H78	H	1.720204	-0.508988	-0.219630
N79	N	1.267113	0.266673	0.367242
H80	H	1.208864	0.255744	0.448889
H81	H	1.231309	0.341450	0.309056
N82	N	0.904765	-0.027755	-0.124142
H83	H	0.841065	0.028030	-0.180986
H84	H	0.981989	-0.054752	-0.183037
H85	H	1.712941	0.146204	0.619073
N86	N	1.709689	-0.217729	0.138634
H87	H	1.729232	-0.163950	0.055826
H88	H	1.724243	-0.169615	0.227145
H89	H	1.310058	-0.179839	-0.094630
H90	H	0.872044	0.355250	-0.138119
H91	H	1.372683	0.031917	0.380887
H92	H	1.517430	-0.422030	0.230979
N93	N	1.738589	0.120819	0.368083
H94	H	1.700915	0.056420	0.306548
H95	H	1.802892	0.165629	0.313399
N96	N	1.122975	0.196134	-0.262233
H97	H	1.188459	0.123870	-0.235969
H98	H	1.053125	0.161807	-0.318823
N99	N	1.146717	-0.021641	-0.125573
H100	H	1.109267	0.019837	-0.212952
H101	H	1.242296	-0.019437	-0.126322
H102	H	1.134009	-0.003797	0.094731
N103	N	1.563747	-0.051641	0.365740
H104	H	1.541571	-0.135555	0.405160
H105	H	1.559378	-0.054482	0.260882
H106	H	1.658761	0.313702	0.378472
H107	H	0.887936	0.211004	0.231010
H108	H	1.378631	0.025213	0.621052
H109	H	1.090701	0.360819	0.140603
N110	N	1.573495	-0.047665	0.630825
H111	H	1.619527	-0.089894	0.548428
H112	H	1.636525	-0.007436	0.691908
