data_functionalizedCrystal
_audit_creation_method	'MofGen! by Chris Wilmer'
_symmetry_space_group_name_H-M	'P1'
_symmetry_Int_Tables_number	1
_symmetry_cell_setting	triclinic
loop_
_symmetry_equiv_pos_as_xyz
  x,y,z
_cell_length_a	17.699083
_cell_length_b	17.699083
_cell_length_c	16.176319
_cell_angle_alpha	89.992304
_cell_angle_beta	89.998611
_cell_angle_gamma	83.283015
loop_
_atom_site_label
_atom_site_type_symbol
_atom_site_fract_x
_atom_site_fract_y
_atom_site_fract_z
O1	O	1.004079	0.095713	-0.068632
O2	O	0.783700	0.108166	-0.068660
O3	O	0.900116	-0.008250	-0.068638
O4	O	0.887663	0.212129	-0.068654
O5	O	0.900100	-0.008257	0.068855
O6	O	0.783684	0.108158	0.068834
O7	O	1.004063	0.095706	0.068861
Cu8	Cu	0.893872	0.101931	0.081401
Cu9	Cu	0.893891	0.101940	-0.081200
O10	O	0.887647	0.212121	0.068839
C11	C	0.755495	0.107716	0.000084
C12	C	0.671477	0.106377	0.000073
C13	C	0.899662	-0.036451	0.000109
C14	C	0.898323	-0.120469	0.000109
C15	C	0.622856	0.174710	0.000069
C16	C	0.543913	0.173448	0.000079
C17	C	0.513592	0.103852	0.000089
C18	C	0.562219	0.035513	0.000096
C19	C	0.641161	0.036776	0.000091
C20	C	0.243856	0.030418	0.000117
C21	C	0.164908	0.029160	0.000120
C22	C	0.146608	0.167090	0.000105
C23	C	0.225550	0.168353	0.000100
C24	C	0.274170	0.100015	0.000112
C25	C	0.359769	0.101384	0.000102
C26	C	0.427995	0.102481	0.000093
C27	C	0.966656	-0.169090	0.000119
C28	C	0.965394	-0.248033	0.000111
C29	C	0.895798	-0.278354	0.000100
C30	C	0.827459	-0.229727	0.000088
C31	C	0.828722	-0.150785	0.000089
C32	C	0.822364	-0.548090	0.000080
C33	C	0.821106	-0.627038	0.000081
C34	C	0.959036	-0.645338	0.000102
C35	C	0.960299	-0.566396	0.000104
C36	C	0.891961	-0.517776	0.000087
C37	C	0.893330	-0.432177	0.000094
C38	C	0.894427	-0.363951	0.000099
C39	C	1.032268	0.096156	0.000116
C40	C	1.116286	0.097494	0.000121
C41	C	0.888102	0.240322	0.000091
C42	C	0.889440	0.324340	0.000085
N43	N	0.893864	0.101925	0.195767
N44	N	0.893905	0.101941	-0.195565
C45	C	0.945429	0.050397	0.239040
C46	C	0.945432	0.050396	0.325588
C47	C	0.893875	0.101927	0.368859
C48	C	0.842305	0.153457	0.325579
C49	C	0.842299	0.153454	0.239034
C50	C	0.842331	0.153472	0.674608
C51	C	0.842344	0.153473	0.761159
C52	C	0.945465	0.050414	0.761161
C53	C	0.945458	0.050410	0.674616
C54	C	0.893886	0.101937	0.631344
C55	C	0.893882	0.101937	0.537499
C56	C	0.893883	0.101932	0.462702
H57	H	0.504328	0.229092	0.000075
C58	C	0.747196	-0.494611	0.000072
C59	C	0.729090	-0.437829	0.071465
C60	C	0.653920	-0.384344	0.071458
C61	C	0.596855	-0.387640	0.000057
C62	C	0.614959	-0.444424	-0.071342
C63	C	0.690130	-0.497909	-0.071335
H64	H	0.771335	-0.435387	0.124325
H65	H	0.640518	-0.342309	0.124312
H66	H	0.541209	-0.348047	0.000051
H67	H	0.572715	-0.446866	-0.124202
H68	H	0.703531	-0.539944	-0.124189
H69	H	0.800323	0.195413	0.360816
C70	C	1.002170	-0.006275	0.627017
C71	C	0.972699	-0.064121	0.567533
C72	C	1.029409	-0.120810	0.519935
C73	C	1.115592	-0.119653	0.531819
C74	C	1.145068	-0.061805	0.591305
C75	C	1.088357	-0.005116	0.638904
H76	H	0.908898	-0.064980	0.558733
H77	H	1.007589	-0.163633	0.475899
H78	H	1.157572	-0.161618	0.496584
H79	H	1.208869	-0.060947	0.600106
H80	H	1.110178	0.037707	0.682940
H81	H	0.800357	0.195437	0.796390
C82	C	1.002144	-0.006290	0.191446
C83	C	1.058860	-0.062972	0.239051
C84	C	1.115575	-0.119662	0.191460
C85	C	1.115574	-0.119670	0.096263
C86	C	1.058856	-0.062986	0.048653
C87	C	1.002141	-0.006295	0.096244
H88	H	1.058862	-0.062968	0.309526
H89	H	1.157561	-0.161624	0.226705
H90	H	1.157558	-0.161636	0.061033
H91	H	1.058853	-0.062989	-0.021822
H92	H	0.960154	0.035666	0.060999
H93	H	0.680748	-0.018868	0.000095
C94	C	0.785611	0.210154	0.627011
C95	C	0.728922	0.266862	0.674604
C96	C	0.672201	0.323548	0.627001
C97	C	0.672169	0.323525	0.531804
C98	C	0.728860	0.266815	0.484206
C99	C	0.785581	0.210129	0.531809
H100	H	0.728944	0.266881	0.745079
H101	H	0.630235	0.365529	0.662237
H102	H	0.630181	0.365488	0.496566
H103	H	0.728838	0.266797	0.413731
H104	H	0.827548	0.168149	0.496573
C105	C	0.785578	0.210137	0.191430
C106	C	0.728892	0.266847	0.239024
C107	C	0.672167	0.323530	0.191422
C108	C	0.672128	0.323502	0.096225
C109	C	0.728816	0.266790	0.048626
C110	C	0.785541	0.210107	0.096228
H111	H	0.728919	0.266870	0.309499
H112	H	0.630202	0.365512	0.226659
H113	H	0.630136	0.365461	0.060987
H114	H	0.728789	0.266767	-0.021849
H115	H	0.827506	0.168125	0.060991
C116	C	0.258902	0.244910	0.000091
C117	C	0.205420	0.320078	0.000092
C118	C	0.238771	0.396636	0.000086
C119	C	0.325603	0.398027	0.000081
C120	C	0.379091	0.322857	0.000080
C121	C	0.345740	0.246298	0.000085
H122	H	0.141137	0.319051	0.000096
H123	H	0.199175	0.452283	0.000086
H124	H	0.350292	0.454700	0.000077
H125	H	0.443374	0.323884	0.000076
H126	H	0.385335	0.190652	0.000085
C127	C	0.297332	-0.044752	0.000115
C128	C	0.263977	-0.121305	0.000115
C129	C	0.317457	-0.196479	0.000109
C130	C	0.404291	-0.195101	0.000104
C131	C	0.437650	-0.118545	0.000104
C132	C	0.384171	-0.043371	0.000110
H133	H	0.199693	-0.122327	0.000119
H134	H	0.292762	-0.253150	0.000109
H135	H	0.443880	-0.250749	0.000099
H136	H	0.501934	-0.117523	0.000100
H137	H	0.408866	0.013300	0.000111
C138	C	1.040562	-0.301516	0.000122
C139	C	1.117117	-0.268166	0.000140
C140	C	1.192289	-0.321649	0.000147
C141	C	1.190906	-0.408483	0.000137
C142	C	1.114348	-0.441838	0.000119
C143	C	1.039177	-0.388354	0.000112
H144	H	1.118143	-0.203882	0.000147
H145	H	1.248962	-0.296958	0.000161
H146	H	1.246552	-0.448075	0.000143
H147	H	1.113322	-0.506121	0.000112
H148	H	0.982504	-0.413046	0.000098
H149	H	0.647537	0.231384	0.000060
H150	H	0.107012	0.222734	0.000100
H151	H	0.140225	-0.027517	0.000128
H152	H	1.023330	-0.144409	0.000133
H153	H	0.537526	-0.021154	0.000116
H154	H	1.016971	-0.541714	0.000117
H155	H	1.014680	-0.684934	0.000111
H156	H	0.764429	-0.651721	0.000074
H157	H	0.770792	-0.254420	0.000073
H158	H	0.773078	-0.111198	0.000081
H159	H	0.987419	0.008438	0.360821
H160	H	0.987456	0.008455	0.796403
