data_functionalizedCrystal
_audit_creation_method	'MofGen! by Chris Wilmer'
_symmetry_space_group_name_H-M	'P1'
_symmetry_Int_Tables_number	1
_symmetry_cell_setting	triclinic
loop_
_symmetry_equiv_pos_as_xyz
  x,y,z
_cell_length_a	10.654550
_cell_length_b	17.699092
_cell_length_c	9.130313
_cell_angle_alpha	90.001219
_cell_angle_beta	89.996274
_cell_angle_gamma	83.885635
loop_
_atom_site_label
_atom_site_type_symbol
_atom_site_fract_x
_atom_site_fract_y
_atom_site_fract_z
O1	O	1.665979	0.106298	-0.121914
O2	O	2.165979	0.606298	0.378086
O3	O	1.300323	0.116426	-0.121890
O4	O	1.800323	0.616426	0.378110
O5	O	1.493476	0.001239	-0.121899
O6	O	1.993476	0.501239	0.378101
O7	O	1.472826	0.221485	-0.121904
O8	O	1.972826	0.721485	0.378096
O9	O	1.493474	0.001243	0.121700
O10	O	1.993474	0.501243	0.621700
O11	O	1.300321	0.116430	0.121709
O12	O	1.800321	0.616430	0.621709
O13	O	1.665976	0.106303	0.121685
O14	O	2.165976	0.606303	0.621685
Cu15	Cu	1.483148	0.111367	0.143940
Cu16	Cu	1.983148	0.611367	0.643940
Cu17	Cu	1.483151	0.111361	-0.144144
Cu18	Cu	1.983151	0.611361	0.355856
O19	O	1.472823	0.221490	0.121695
O20	O	1.972823	0.721490	0.621695
C21	C	1.253537	0.115684	-0.000087
C22	C	1.753537	0.615684	0.499913
C23	C	1.114133	0.113460	-0.000078
C24	C	1.614133	0.613460	0.499922
C25	C	1.033463	0.181280	-0.000101
C26	C	1.533463	0.681280	0.499899
C27	C	0.902479	0.179185	-0.000126
C28	C	1.402479	0.679185	0.499874
C29	C	0.932847	0.041443	-0.000112
C30	C	1.432847	0.541443	0.499888
C31	C	1.063828	0.043539	-0.000076
C32	C	1.563828	0.543539	0.499924
C33	C	1.015930	0.260804	-0.000116
C34	C	1.515930	0.760804	0.499884
C35	C	0.884945	0.258709	-0.000141
C36	C	1.384945	0.758709	0.499859
C37	C	1.492733	-0.026961	-0.000102
C38	C	1.992733	0.473039	0.499898
C39	C	1.490508	-0.110992	-0.000108
C40	C	1.990508	0.389008	0.499892
C41	C	1.489467	-0.150469	-0.132896
C42	C	1.989467	0.349531	0.367104
C43	C	1.487368	-0.229425	-0.132897
C44	C	1.987368	0.270575	0.367103
C45	C	1.486320	-0.268904	-0.000110
C46	C	1.986320	0.231096	0.499890
C47	C	1.487357	-0.229422	0.132688
C48	C	1.987357	0.270578	0.632688
C49	C	1.489447	-0.150466	0.132688
C50	C	1.989447	0.349534	0.632688
C51	C	1.478928	-0.547840	0.132690
C52	C	1.978928	-0.047840	0.632690
C53	C	1.476841	-0.626802	0.132680
C54	C	1.976841	-0.126802	0.632680
C55	C	1.476849	-0.626800	-0.132895
C56	C	1.976849	-0.126800	0.367105
C57	C	1.478939	-0.547844	-0.132895
C58	C	1.978939	-0.047844	0.367105
C59	C	1.479969	-0.508368	-0.000098
C60	C	1.979969	-0.008368	0.499902
C61	C	1.482243	-0.422754	-0.000098
C62	C	1.982243	0.077246	0.499902
C63	C	1.484055	-0.354517	-0.000109
C64	C	1.984055	0.145483	0.499891
C65	C	1.712762	0.107044	-0.000121
C66	C	2.212762	0.607044	0.499879
C67	C	1.852167	0.109269	-0.000139
C68	C	2.352167	0.609269	0.499861
C69	C	1.473566	0.249689	-0.000106
C70	C	1.973566	0.749689	0.499894
C71	C	1.475791	0.333721	-0.000109
C72	C	1.975791	0.833721	0.499891
N73	N	1.483155	0.111371	0.346562
N74	N	1.983155	0.611371	0.846562
C75	C	1.568705	0.060384	0.423210
C76	C	2.068705	0.560384	0.923210
C77	C	1.568702	0.060376	0.576547
C78	C	2.068702	0.560376	1.076547
C79	C	1.397595	0.162348	0.576575
C80	C	1.897595	0.662348	1.076575
C81	C	1.397593	0.162352	0.423241
C82	C	1.897593	0.662352	0.923241
C83	C	1.667496	0.001513	0.423195
C84	C	2.167496	0.501513	0.923195
C85	C	1.667493	0.001505	0.576532
C86	C	2.167493	0.501505	1.076532
N87	N	1.483154	0.111359	0.653233
N88	N	1.983154	0.611359	1.153233
H89	H	0.842691	0.288670	-0.102095
H90	H	1.342691	0.788670	0.397905
Cl91	Cl	1.070309	0.299894	-0.162490
Cl92	Cl	1.570309	0.799894	0.337510
H93	H	1.490277	-0.118324	0.240817
H94	H	1.990277	0.381676	0.740817
H95	H	1.763778	0.014473	0.618142
H96	H	2.263778	0.514473	1.118142
Cl97	Cl	1.490794	-0.100847	-0.299839
Cl98	Cl	1.990794	0.399153	0.200161
Cl99	Cl	0.813772	0.295819	0.162221
Cl100	Cl	1.313772	0.795819	0.662221
H101	H	1.327921	0.203863	0.360835
H102	H	1.827921	0.703863	0.860835
Cl103	Cl	1.486062	-0.279050	-0.299838
Cl104	Cl	1.986062	0.220950	0.200162
H105	H	1.758358	0.019946	0.375630
H106	H	2.258358	0.519946	0.875630
H107	H	1.475984	-0.658943	0.240818
H108	H	1.975984	-0.158943	0.740818
H109	H	1.647069	-0.056660	0.381578
H110	H	2.147069	0.443340	0.881578
H111	H	1.129506	-0.011687	-0.000036
H112	H	1.629506	0.488313	0.499964
H113	H	1.637939	-0.053468	0.624083
H114	H	2.137939	0.446532	1.124083
Cl115	Cl	1.480204	-0.498222	0.299635
Cl116	Cl	1.980204	0.001778	0.799635
H117	H	0.891872	-0.015484	-0.000133
H118	H	1.391872	0.484516	0.499867
H119	H	1.044717	0.291908	0.101835
H120	H	1.544717	0.791908	0.601835
Cl121	Cl	1.480263	-0.498218	-0.299834
Cl122	Cl	1.980263	0.001782	0.200166
H123	H	1.476003	-0.658950	-0.241024
H124	H	1.976003	-0.158950	0.258976
Cl125	Cl	1.486023	-0.279051	0.299622
Cl126	Cl	1.986023	0.220949	0.799622
Cl127	Cl	1.290037	0.226435	0.672979
Cl128	Cl	1.790037	0.726435	1.172979
