data_functionalizedCrystal
_audit_creation_method	'MofGen! by Chris Wilmer'
_symmetry_space_group_name_H-M	'P1'
_symmetry_Int_Tables_number	1
_symmetry_cell_setting	triclinic
loop_
_symmetry_equiv_pos_as_xyz
  x,y,z
_cell_length_a	10.654550
_cell_length_b	10.723024
_cell_length_c	9.730223
_cell_angle_alpha	89.996766
_cell_angle_beta	89.999957
_cell_angle_gamma	84.476400
loop_
_atom_site_label
_atom_site_type_symbol
_atom_site_fract_x
_atom_site_fract_y
_atom_site_fract_z
O1	O	1.667813	0.175275	-0.114183
O2	O	1.302332	0.191974	-0.114208
O3	O	1.493503	0.002049	-0.114190
O4	O	1.476642	0.365199	-0.114202
O5	O	1.493490	0.002044	0.114390
O6	O	1.302319	0.191968	0.114372
O7	O	1.667800	0.175269	0.114396
Zn8	Zn	1.485058	0.183618	0.150676
Zn9	Zn	1.485074	0.183625	-0.150488
O10	O	1.476629	0.365194	0.114378
C11	C	1.255528	0.190745	0.000078
C12	C	1.116085	0.187077	0.000069
C13	C	1.036583	0.298901	0.000069
C14	C	0.905562	0.295447	0.000093
C15	C	0.933560	0.068334	0.000111
C16	C	1.064577	0.071789	0.000097
C17	C	1.492269	-0.044453	0.000098
C18	C	1.488598	-0.183008	0.000093
C19	C	1.595567	-0.257975	0.000098
C20	C	1.591776	-0.401179	0.000093
C21	C	1.714604	0.176498	0.000107
C22	C	1.854047	0.180167	0.000107
C23	C	1.477863	0.411696	0.000087
C24	C	1.481534	0.550251	0.000083
N25	N	1.485056	0.183613	0.356212
N26	N	1.485086	0.183621	-0.356024
C27	C	1.569735	0.099550	0.428146
C28	C	1.569748	0.099550	0.572029
C29	C	1.400397	0.267687	0.572032
C30	C	1.400380	0.267680	0.428151
H31	H	1.078515	0.392775	0.000057
C32	C	1.737120	-0.066655	0.442601
C33	C	1.662798	0.007133	0.349070
H34	H	1.794566	-0.123718	0.393782
H35	H	1.782745	-0.014290	0.498701
H36	H	1.684451	-0.112018	0.498738
H37	H	1.715467	0.052503	0.292940
H38	H	1.617170	-0.045239	0.292946
H39	H	0.840836	0.386506	0.000097
C40	C	1.328472	0.483042	0.383819
C41	C	1.307297	0.360093	0.349070
H42	H	1.271011	0.540087	0.334990
H43	H	1.316359	0.495073	0.479791
H44	H	1.412404	0.497352	0.360218
H45	H	1.223367	0.345780	0.372681
H46	H	1.319399	0.348057	0.253076
C47	C	1.128787	-0.120730	-0.117408
C48	C	1.151980	-0.051137	0.000090
H49	H	1.182752	-0.196611	-0.117410
H50	H	1.043398	-0.139290	-0.117389
H51	H	1.144503	-0.073492	-0.197114
H52	H	1.136254	-0.098372	0.079797
H53	H	1.237388	-0.032581	0.000083
C54	C	1.702086	-0.070577	0.000120
C55	C	1.722995	-0.201511	0.000114
H56	H	1.780759	-0.035724	0.000139
H57	H	1.655680	-0.043597	-0.079590
H58	H	1.655655	-0.043612	0.079832
H59	H	1.769418	-0.228477	-0.079603
H60	H	1.769421	-0.228502	0.079833
C61	C	1.595578	-0.070036	0.733836
C62	C	1.662832	0.007146	0.651098
H63	H	1.653048	-0.127090	0.782641
H64	H	1.545170	-0.019971	0.797271
H65	H	1.542918	-0.115407	0.677702
H66	H	1.715485	0.052525	0.707233
H67	H	1.713262	-0.042925	0.587656
C68	C	1.687720	-0.613164	0.000082
C69	C	1.715406	-0.488132	0.000092
H70	H	1.764048	-0.666844	0.000072
H71	H	1.640180	-0.628732	0.079787
H72	H	1.640171	-0.628712	-0.079636
H73	H	1.762947	-0.472582	0.079816
H74	H	1.762966	-0.472557	-0.079620
H75	H	1.331458	0.336135	0.630619
H76	H	0.891606	-0.025530	0.000142
H77	H	1.389955	-0.385337	0.000088
H78	H	1.394211	-0.224844	0.000078
