data_functionalizedCrystal
_audit_creation_method	'MofGen! by Chris Wilmer'
_symmetry_space_group_name_H-M	'P1'
_symmetry_Int_Tables_number	1
_symmetry_cell_setting	triclinic
loop_
_symmetry_equiv_pos_as_xyz
  x,y,z
_cell_length_a	17.699083
_cell_length_b	16.992695
_cell_length_c	16.776229
_cell_angle_alpha	89.993259
_cell_angle_beta	89.998886
_cell_angle_gamma	86.975619
loop_
_atom_site_label
_atom_site_type_symbol
_atom_site_fract_x
_atom_site_fract_y
_atom_site_fract_z
O1	O	1.010251	0.099146	-0.066177
O2	O	1.510251	0.599146	0.433823
O3	O	0.790676	0.112045	-0.066203
O4	O	1.290676	0.612045	0.433797
O5	O	0.899583	-0.008546	-0.066184
O6	O	1.399583	0.491454	0.433816
O7	O	0.901344	0.219736	-0.066196
O8	O	1.401344	0.719736	0.433804
O9	O	0.899568	-0.008553	0.066393
O10	O	1.399568	0.491447	0.566393
O11	O	0.790660	0.112037	0.066374
O12	O	1.290660	0.612037	0.566374
O13	O	1.010235	0.099138	0.066400
O14	O	1.510235	0.599138	0.566400
Zn15	Zn	0.900445	0.105587	0.087436
Zn16	Zn	1.400445	0.605587	0.587436
Zn17	Zn	0.900466	0.105596	-0.087239
Zn18	Zn	1.400466	0.605596	0.412761
O19	O	0.901328	0.219729	0.066381
O20	O	1.401328	0.719729	0.566381
C21	C	0.762442	0.111579	0.000082
C22	C	1.262442	0.611579	0.500082
C23	C	0.678338	0.110192	0.000072
C24	C	1.178338	0.610192	0.500072
C25	C	0.634124	0.180976	0.000069
C26	C	1.134124	0.680976	0.500069
C27	C	0.555099	0.179669	0.000079
C28	C	1.055099	0.679669	0.500079
C29	C	0.520290	0.107576	0.000087
C30	C	1.020290	0.607576	0.500087
C31	C	0.564510	0.036787	0.000093
C32	C	1.064510	0.536787	0.500093
C33	C	0.643533	0.038095	0.000089
C34	C	1.143533	0.538095	0.500089
C35	C	0.245818	0.031509	0.000113
C36	C	0.745818	0.531509	0.500113
C37	C	0.166789	0.030206	0.000116
C38	C	0.666789	0.530206	0.500116
C39	C	0.157384	0.173082	0.000104
C40	C	0.657384	0.673082	0.500104
C41	C	0.236408	0.174391	0.000099
C42	C	0.736408	0.674391	0.500099
C43	C	0.280621	0.103602	0.000109
C44	C	0.780621	0.603602	0.500109
C45	C	0.366308	0.105020	0.000099
C46	C	0.866308	0.605020	0.500099
C47	C	0.434604	0.106157	0.000091
C48	C	0.934604	0.606157	0.500091
C49	C	0.897311	-0.037758	0.000104
C50	C	1.397311	0.462242	0.500104
C51	C	0.890554	-0.124789	0.000103
C52	C	1.390554	0.375211	0.500103
C53	C	0.955751	-0.175154	0.000112
C54	C	1.455751	0.324846	0.500112
C55	C	0.949398	-0.256928	0.000104
C56	C	1.449398	0.243072	0.500104
C57	C	0.877846	-0.288336	0.000092
C58	C	1.377846	0.211664	0.500092
C59	C	0.812643	-0.237965	0.000081
C60	C	1.312643	0.262035	0.500081
C61	C	0.818998	-0.156192	0.000084
C62	C	1.318998	0.343808	0.500084
C63	C	0.851510	-0.531884	0.000078
C64	C	1.351510	-0.031884	0.500078
C65	C	0.845160	-0.613663	0.000078
C66	C	1.345160	-0.113663	0.500078
C67	C	0.981915	-0.632621	0.000099
C68	C	1.481915	-0.132621	0.500099
C69	C	0.988263	-0.550845	0.000106
C70	C	1.488263	-0.050845	0.500106
C71	C	0.923061	-0.500481	0.000091
C72	C	1.423061	-0.000481	0.500091
N73	N	0.871350	-0.371923	0.000086
N74	N	1.371350	0.128077	0.500086
N75	N	0.929558	-0.416897	0.000091
N76	N	1.429558	0.083103	0.500091
C77	C	1.038469	0.099604	0.000113
C78	C	1.538469	0.599604	0.500113
C79	C	1.122574	0.100991	0.000118
C80	C	1.622574	0.600991	0.500118
C81	C	0.903601	0.248941	0.000091
C82	C	1.403601	0.748941	0.500091
C83	C	0.910358	0.335972	0.000087
C84	C	1.410358	0.835972	0.500087
N85	N	0.900437	0.105579	0.206647
N86	N	1.400437	0.605579	0.706647
N87	N	0.900481	0.105597	-0.206450
N88	N	1.400481	0.605597	0.293550
C89	C	0.948678	0.052204	0.248373
C90	C	1.448678	0.552204	0.748373
C91	C	0.948682	0.052203	0.331825
C92	C	1.448682	0.552203	0.831825
C93	C	0.900448	0.105582	0.373550
C94	C	1.400448	0.605582	0.873550
C95	C	0.852202	0.158961	0.331819
C96	C	1.352202	0.658961	0.831819
C97	C	0.852194	0.158957	0.248368
C98	C	1.352194	0.658957	0.748368
C99	C	0.852230	0.158976	0.668366
C100	C	1.352230	0.658976	1.168366
C101	C	0.852243	0.158977	0.751822
C102	C	1.352243	0.658977	1.251822
C103	C	0.948718	0.052222	0.751823
C104	C	1.448718	0.552222	1.251823
C105	C	0.948710	0.052219	0.668372
C106	C	1.448710	0.552219	1.168372
C107	C	0.900461	0.105594	0.626648
C108	C	1.400461	0.605594	1.126648
C109	C	0.900456	0.105593	0.536160
C110	C	1.400456	0.605593	1.036160
C111	C	0.900456	0.105588	0.464037
C112	C	1.400456	0.605588	0.964037
H113	H	0.519103	0.237308	0.000075
H114	H	1.019103	0.737308	0.500075
O115	O	1.000696	-0.005386	0.203383
O116	O	1.500696	0.494614	0.703383
H117	H	0.966523	-0.043445	0.165377
H118	H	1.466523	0.456555	0.665377
H119	H	0.812910	0.202420	0.214396
H120	H	1.312910	0.702420	0.714396
O121	O	0.273954	0.252146	0.000102
O122	O	0.773954	0.752146	0.500102
H123	H	0.229933	0.301149	0.000112
H124	H	0.729933	0.801149	0.500112
O125	O	0.781183	-0.477574	0.000081
O126	O	1.281183	0.022426	0.500081
H127	H	0.747175	-0.488724	-0.053952
H128	H	1.247175	0.011276	0.446048
O129	O	0.800229	0.216565	0.796831
O130	O	1.300229	0.716565	1.296831
H131	H	0.766678	0.253680	0.753799
H132	H	1.266678	0.753680	1.253799
H133	H	0.765906	-0.115186	0.000077
H134	H	1.265906	0.384814	0.500077
O135	O	1.032927	-0.141280	0.000126
O136	O	1.532927	0.358720	0.500126
H137	H	1.039095	-0.104466	-0.053906
H138	H	1.539095	0.395534	0.446094
H139	H	0.662460	0.239682	0.000061
H140	H	1.162460	0.739682	0.500061
O141	O	1.019721	-0.311247	0.000111
O142	O	1.519721	0.188753	0.500111
H143	H	1.003285	-0.373386	0.000096
H144	H	1.503285	0.126614	0.500096
O145	O	0.526966	-0.040970	0.000104
O146	O	1.026966	0.459030	0.500104
H147	H	0.544385	-0.074973	0.054146
H148	H	1.044385	0.425027	0.554146
O149	O	0.800181	0.216537	0.376823
O150	O	1.300181	0.716537	0.876823
H151	H	0.813516	0.277640	0.360785
H152	H	1.313516	0.777640	0.860785
O153	O	0.691227	-0.038250	0.000090
O154	O	1.191227	0.461750	0.500090
H155	H	0.653748	-0.088601	0.000089
H156	H	1.153748	0.411399	0.500089
O157	O	1.065437	-0.516968	0.000099
O158	O	1.565437	-0.016968	0.500099
H159	H	1.109707	-0.565729	0.000091
H160	H	1.609707	-0.065729	0.500091
O161	O	1.000727	-0.005352	0.376833
O162	O	1.500727	0.494648	0.876833
H163	H	1.034278	-0.042458	0.333799
H164	H	1.534278	0.457542	0.833799
H165	H	0.812945	0.202437	0.634401
H166	H	1.312945	0.702437	1.134401
O167	O	0.129247	-0.047558	0.000137
O168	O	0.629247	0.452442	0.500137
H169	H	0.093473	-0.051579	-0.053900
H170	H	0.593473	0.448421	0.446100
H171	H	0.988002	0.008759	0.785804
H172	H	1.488002	0.508759	1.285804
H173	H	1.034999	-0.673635	0.000110
H174	H	1.534999	-0.173635	0.500110
H175	H	0.121377	0.230722	0.000100
H176	H	0.621377	0.730722	0.500100
O177	O	0.293501	-0.044838	0.000124
O178	O	0.793501	0.455162	0.500124
H179	H	0.256017	-0.095186	0.000124
H180	H	0.756017	0.404814	0.500124
H181	H	0.786891	-0.639232	0.000082
H182	H	1.286891	-0.139232	0.500082
O183	O	0.735467	-0.271836	0.000067
O184	O	1.235467	0.228164	0.500067
H185	H	0.703891	-0.251593	0.054095
H186	H	1.203891	0.248407	0.554095
H187	H	0.987989	0.008755	0.634402
H188	H	1.487989	0.508755	1.134402
