data_functionalizedCrystal
_audit_creation_method	'MofGen! by Chris Wilmer'
_symmetry_space_group_name_H-M	'P1'
_symmetry_Int_Tables_number	1
_symmetry_cell_setting	triclinic
loop_
_symmetry_equiv_pos_as_xyz
  x,y,z
_cell_length_a	27.732064
_cell_length_b	26.210047
_cell_length_c	10.489716
_cell_angle_alpha	90.000442
_cell_angle_beta	83.589280
_cell_angle_gamma	90.008789
loop_
_atom_site_label
_atom_site_type_symbol
_atom_site_fract_x
_atom_site_fract_y
_atom_site_fract_z
O1	O	0.641884	0.042334	0.151856
O2	O	0.501236	0.042354	0.174908
O3	O	0.574767	0.042345	-0.022358
O4	O	0.568353	0.042343	0.349122
O5	O	0.574743	-0.042513	-0.022358
O6	O	0.501213	-0.042504	0.174908
O7	O	0.641860	-0.042524	0.151856
Cu8	Cu	0.571534	-0.050262	0.163382
Cu9	Cu	0.571562	0.050092	0.163382
O10	O	0.568330	-0.042515	0.349122
C11	C	0.483215	-0.000072	0.174421
C12	C	0.429551	-0.000064	0.172954
N13	N	0.571519	-0.120846	0.163381
C14	C	0.051684	-0.000092	0.046393
C15	C	0.253378	-0.000079	0.051792
O16	O	0.284014	-0.000098	-0.046415
N17	N	0.273240	-0.000078	0.168768
C18	C	0.242675	-0.000083	0.284402
O19	O	0.264196	-0.000087	0.384021
C20	C	0.040981	-0.000100	0.279002
C21	C	0.021122	-0.000096	0.162019
C22	C	0.031824	-0.000089	-0.070580
C23	C	-0.018596	-0.000090	-0.071929
C24	C	-0.049158	-0.000093	0.043696
C25	C	-0.029298	-0.000097	0.160670
C26	C	0.010417	-0.000109	0.394634
C27	C	-0.040009	-0.000114	0.393274
C28	C	-0.059868	-0.000111	0.276291
C29	C	-0.110280	-0.000101	0.274947
N30	N	-0.130142	-0.000102	0.157971
C31	C	-0.099581	-0.000099	0.042346
C32	C	0.348567	-0.000073	0.287229
C33	C	0.398990	-0.000068	0.288579
C34	C	0.409690	-0.000065	0.055969
C35	C	0.359266	-0.000067	0.054620
C36	C	0.328705	-0.000075	0.170253
C37	C	-0.205468	-0.000099	0.039523
C38	C	-0.255893	-0.000098	0.038185
C39	C	-0.266589	-0.000103	0.270794
C40	C	-0.216168	-0.000102	0.272133
C41	C	-0.185608	-0.000102	0.156487
O42	O	-0.140945	-0.000088	0.373101
O43	O	-0.121112	-0.000106	-0.057258
C44	C	0.102104	-0.000092	0.047742
C45	C	0.121964	-0.000095	0.164716
C46	C	0.091402	-0.000099	0.280341
C47	C	0.172387	-0.000090	0.166066
C48	C	0.202948	-0.000086	0.050441
C49	C	0.183086	-0.000088	-0.066535
C50	C	0.132665	-0.000088	-0.067883
C51	C	0.111264	-0.000097	0.397316
C52	C	0.161685	-0.000096	0.398655
C53	C	0.192247	-0.000093	0.283030
C54	C	0.601136	-0.473365	0.240195
C55	C	0.601150	-0.687024	0.240194
O56	O	0.626321	-0.714650	0.305490
N57	N	0.571574	-0.713740	0.163369
C58	C	0.541993	-0.687038	0.086532
O59	O	0.516840	-0.714665	0.021178
C60	C	0.541982	-0.473381	0.086528
C61	C	0.571557	-0.446667	0.163367
C62	C	0.630709	-0.446652	0.317027
C63	C	0.630703	-0.393241	0.317032
C64	C	0.601124	-0.366543	0.240205
C65	C	0.571551	-0.393256	0.163372
C66	C	0.512405	-0.446680	0.009685
C67	C	0.512405	-0.393262	0.009688
C68	C	0.541981	-0.366549	0.086528
C69	C	0.541966	-0.313146	0.086549
N70	N	0.571543	-0.286430	0.163374
C71	C	0.601122	-0.313128	0.240202
C72	C	0.542001	-0.799212	0.086542
C73	C	0.542003	-0.852626	0.086545
C74	C	0.601161	-0.852608	0.240205
C75	C	0.601156	-0.799193	0.240208
C76	C	0.571578	-0.772496	0.163367
C77	C	0.601107	-0.200960	0.240207
C78	C	0.601098	-0.147544	0.240209
C79	C	0.541942	-0.147567	0.086544
C80	C	0.541950	-0.200978	0.086547
C81	C	0.571536	-0.227674	0.163382
O82	O	0.516813	-0.285487	0.021277
O83	O	0.626279	-0.285493	0.305525
C84	C	0.601142	-0.526777	0.240190
C85	C	0.571569	-0.553490	0.163358
C86	C	0.541990	-0.526792	0.086530
C87	C	0.571571	-0.606904	0.163361
C88	C	0.601150	-0.633603	0.240188
C89	C	0.630727	-0.606886	0.317013
C90	C	0.630721	-0.553475	0.317018
C91	C	0.512413	-0.553508	0.009705
C92	C	0.512421	-0.606920	0.009708
C93	C	0.542000	-0.633618	0.086535
C94	C	0.659882	-0.000097	0.152343
C95	C	0.713546	-0.000101	0.153810
C96	C	0.574273	-0.000082	-0.069869
C97	C	0.572831	-0.000077	-0.211437
N98	N	0.571582	0.120676	0.163373
C99	C	0.617922	-0.000088	-0.311086
C100	C	0.594107	0.041753	-0.387403
C101	C	0.594073	-0.041910	-0.387367
C102	C	0.549035	0.041799	-0.285890
C103	C	0.549008	-0.041902	-0.285848
C104	C	0.525159	-0.000050	-0.362115
C105	C	0.568824	-0.000087	0.396633
C106	C	0.570265	-0.000088	0.538201
H107	H	-0.272059	-0.000093	-0.057081
H108	H	0.654799	-0.468384	0.379590
H109	H	0.657144	-0.000052	-0.288127
H110	H	0.056703	-0.000088	-0.164741
H111	H	-0.064889	-0.000123	0.487439
H112	H	0.530020	0.077212	-0.241753
H113	H	0.625243	-0.874354	0.302766
H114	H	-0.291480	-0.000104	0.364933
H115	H	0.415154	-0.000064	0.383839
H116	H	0.613151	0.077122	-0.431732
H117	H	0.529980	-0.077272	-0.241497
H118	H	0.625238	-0.777446	0.302779
H119	H	0.116501	-0.000085	-0.163143
H120	H	0.613108	-0.077283	-0.431673
H121	H	-0.180592	-0.000099	-0.054647
H122	H	0.488326	-0.531776	-0.052861
H123	H	0.517914	-0.874371	0.023990
H124	H	0.485908	-0.000022	-0.384826
H125	H	0.323688	-0.000079	0.381397
H126	H	0.654804	-0.531730	0.379589
H127	H	-0.034760	-0.000089	-0.167188
H128	H	0.517858	-0.125820	0.023997
H129	H	0.434581	-0.000060	-0.038177
H130	H	0.343100	-0.000064	-0.040638
H131	H	0.625181	-0.125797	0.302787
H132	H	0.488332	-0.628665	-0.052861
H133	H	0.026577	-0.000110	0.489894
H134	H	0.207978	-0.000082	-0.160681
H135	H	0.177849	-0.000096	0.493924
H136	H	-0.199998	-0.000105	0.367390
H137	H	0.086386	-0.000101	0.491474
H138	H	0.625200	-0.222690	0.302772
H139	H	0.517913	-0.777480	0.023966
H140	H	0.488322	-0.468421	-0.052888
H141	H	0.654789	-0.371495	0.379598
H142	H	0.517861	-0.222730	0.023994
H143	H	0.488319	-0.371528	-0.052887
H144	H	0.654809	-0.628633	0.379575
