data_functionalizedCrystal
_audit_creation_method	'MofGen! by Chris Wilmer'
_symmetry_space_group_name_H-M	'P1'
_symmetry_Int_Tables_number	1
_symmetry_cell_setting	triclinic
loop_
_symmetry_equiv_pos_as_xyz
  x,y,z
_cell_length_a	18.101398
_cell_length_b	18.101395
_cell_length_c	17.077396
_cell_angle_alpha	89.972533
_cell_angle_beta	89.989660
_cell_angle_gamma	90.026661
loop_
_atom_site_label
_atom_site_type_symbol
_atom_site_fract_x
_atom_site_fract_y
_atom_site_fract_z
Zn1	Zn	1.132125	-0.294917	-0.443656
Zn2	Zn	1.465459	0.038416	-0.110323
Zn3	Zn	1.798792	0.371749	0.223010
Zn4	Zn	1.132020	-0.418766	-0.312393
Zn5	Zn	1.465353	-0.085433	0.020941
Zn6	Zn	1.798687	0.247901	0.354274
Zn7	Zn	1.008283	-0.294933	-0.312425
Zn8	Zn	1.341616	0.038400	0.020908
Zn9	Zn	1.674950	0.371733	0.354241
Zn10	Zn	1.008235	-0.418712	-0.443637
Zn11	Zn	1.341568	-0.085379	-0.110304
Zn12	Zn	1.674902	0.247955	0.223029
O13	O	1.070166	-0.356832	-0.378028
O14	O	1.403499	-0.023499	-0.044695
O15	O	1.736832	0.309834	0.288639
O16	O	1.235744	-0.311362	-0.426238
O17	O	1.569077	0.021971	-0.092905
O18	O	1.902411	0.355304	0.240428
O19	O	1.115582	-0.402369	-0.202550
O20	O	1.448915	-0.069035	0.130783
O21	O	1.782249	0.264298	0.464117
O22	O	1.024775	-0.191298	-0.329855
O23	O	1.358108	0.142035	0.003478
O24	O	1.691442	0.475368	0.336812
O25	O	1.235667	-0.402353	-0.329799
O26	O	1.569000	-0.069020	0.003534
O27	O	1.902333	0.264313	0.336867
O28	O	1.115762	-0.191287	-0.426270
O29	O	1.449095	0.142047	-0.092937
O30	O	1.782428	0.475380	0.240397
O31	O	1.024673	-0.311389	-0.202574
O32	O	1.358006	0.021944	0.130759
O33	O	1.691340	0.355277	0.464093
O34	O	0.904644	-0.311337	-0.329836
O35	O	1.237977	0.021996	0.003497
O36	O	1.571310	0.355330	0.336830
O37	O	1.024693	-0.402261	-0.553487
O38	O	1.358027	-0.068928	-0.220153
O39	O	1.691360	0.264405	0.113180
O40	O	0.904608	-0.402277	-0.426237
O41	O	1.237942	-0.068943	-0.092904
O42	O	1.571275	0.264390	0.240429
O43	O	1.115715	-0.311310	-0.553501
O44	O	1.449048	0.022023	-0.220167
O45	O	1.782382	0.355357	0.113166
O46	O	1.115535	-0.522392	-0.329781
O47	O	1.448869	-0.189059	0.003552
O48	O	1.782202	0.144275	0.336886
O49	O	1.024591	-0.522352	-0.426206
O50	O	1.357924	-0.189019	-0.092872
O51	O	1.691258	0.144314	0.240461
C52	C	0.877755	-0.356803	-0.378039
C53	C	1.211089	-0.023470	-0.044705
C54	C	1.544422	0.309863	0.288628
C55	C	0.795441	-0.356809	-0.378062
C56	C	1.128774	-0.023475	-0.044729
C57	C	1.462108	0.309858	0.288605
C58	C	0.496350	-0.356852	-0.378029
C59	C	0.829683	-0.023519	-0.044696
C60	C	1.163017	0.309815	0.288637
C61	C	0.527678	-0.414346	-0.438383
C62	C	0.861011	-0.081012	-0.105049
C63	C	1.194345	0.252321	0.228284
C64	C	0.613296	-0.414166	-0.438631
C65	C	0.946630	-0.080832	-0.105297
C66	C	1.279963	0.252501	0.228036
C67	C	0.644733	-0.356831	-0.378046
C68	C	0.978066	-0.023498	-0.044712
C69	C	1.311399	0.309836	0.288621
C70	C	0.613678	-0.278829	-0.400650
C71	C	0.947012	0.054505	-0.067317
C72	C	1.280345	0.387838	0.266017
C73	C	0.528033	-0.279174	-0.401079
C74	C	0.861367	0.054159	-0.067746
C75	C	1.194700	0.387493	0.265588
C76	C	0.527897	-0.376674	-0.294926
C77	C	0.861230	-0.043340	0.038407
C78	C	1.194563	0.289993	0.371741
C79	C	0.613547	-0.378385	-0.295370
C80	C	0.946880	-0.045052	0.037963
C81	C	1.280213	0.288282	0.371297
C82	C	0.728592	-0.356815	-0.378053
C83	C	1.061926	-0.023481	-0.044720
C84	C	1.395259	0.309852	0.288613
C85	C	0.412491	-0.356864	-0.378023
C86	C	0.745824	-0.023530	-0.044690
C87	C	1.079157	0.309803	0.288643
C88	C	1.070067	-0.549243	-0.378005
C89	C	1.403400	-0.215910	-0.044671
C90	C	1.736733	0.117424	0.288662
C91	C	1.070092	-0.631557	-0.378021
C92	C	1.403425	-0.298224	-0.044688
C93	C	1.736759	0.035110	0.288646
C94	C	1.070255	-0.930648	-0.378063
C95	C	1.403588	-0.597315	-0.044730
C96	C	1.736921	-0.263981	0.288603
C97	C	1.013168	-0.899329	-0.438882
C98	C	1.346501	-0.565995	-0.105549
C99	C	1.679834	-0.232662	0.227785
C100	C	1.012896	-0.813711	-0.438692
C101	C	1.346230	-0.480377	-0.105358
C102	C	1.679563	-0.147044	0.227975
C103	C	1.070174	-0.782265	-0.378043
C104	C	1.403507	-0.448932	-0.044710
C105	C	1.736841	-0.115599	0.288624
C106	C	1.049044	-0.813415	-0.295317
C107	C	1.382377	-0.480082	0.038016
C108	C	1.715711	-0.146749	0.371349
C109	C	1.048676	-0.899060	-0.295681
C110	C	1.382009	-0.565727	0.037652
C111	C	1.715343	-0.232394	0.370985
C112	C	1.148596	-0.898998	-0.399243
C113	C	1.481930	-0.565664	-0.065909
C114	C	1.815263	-0.232331	0.267424
C115	C	1.148136	-0.813346	-0.401057
C116	C	1.481469	-0.480013	-0.067724
C117	C	1.814802	-0.146680	0.265610
C118	C	1.070130	-0.698406	-0.378027
C119	C	1.403463	-0.365073	-0.044693
C120	C	1.736796	-0.031739	0.288640
C121	C	1.070297	-1.014507	-0.378074
C122	C	1.403630	-0.681174	-0.044741
C123	C	1.736964	-0.347841	0.288592
C124	C	1.263328	-0.356862	-0.378017
C125	C	1.596661	-0.023529	-0.044684
C126	C	1.929994	0.309805	0.288649
C127	C	1.345642	-0.356875	-0.378013
C128	C	1.678975	-0.023541	-0.044679
C129	C	2.012308	0.309792	0.288654
C130	C	1.070211	-0.356778	-0.582772
C131	C	1.403544	-0.023444	-0.249439
C132	C	1.736877	0.309889	0.083894
C133	C	1.070230	-0.356754	-0.670022
C134	C	1.403563	-0.023421	-0.336689
C135	C	1.736896	0.309912	-0.003355
C136	C	1.070285	-0.163670	-0.378068
C137	C	1.403619	0.169663	-0.044735
C138	C	1.736952	0.502996	0.288598
C139	C	1.070336	-0.081356	-0.378085
C140	C	1.403670	0.251977	-0.044752
C141	C	1.737003	0.585310	0.288581
C142	C	1.117626	-0.309392	-0.711021
C143	C	1.450960	0.023941	-0.377687
C144	C	1.784293	0.357274	-0.044354
C145	C	1.117635	-0.309368	-0.793001
C146	C	1.450969	0.023966	-0.459668
C147	C	1.784302	0.357299	-0.126335
C148	C	1.070251	-0.356709	-0.833982
C149	C	1.403584	-0.023376	-0.500648
C150	C	1.736917	0.309957	-0.167315
C151	C	1.022849	-0.404074	-0.792977
C152	C	1.356182	-0.070741	-0.459644
C153	C	1.689515	0.262593	-0.126310
C154	C	1.022837	-0.404094	-0.710998
C155	C	1.356170	-0.070761	-0.377665
C156	C	1.689503	0.262572	-0.044331
C157	C	1.022879	-0.404029	-0.963847
C158	C	1.356212	-0.070696	-0.630514
C159	C	1.689545	0.262637	-0.297181
C160	C	1.022891	-0.404010	-1.045832
C161	C	1.356225	-0.070677	-0.712499
C162	C	1.689558	0.262657	-0.379165
C163	C	1.117677	-0.309303	-1.045850
C164	C	1.451011	0.024031	-0.712517
C165	C	1.784344	0.357364	-0.379184
C166	C	1.117665	-0.309323	-0.963871
C167	C	1.450998	0.024010	-0.630538
C168	C	1.784332	0.357344	-0.297205
C169	C	1.070264	-0.356689	-0.922873
C170	C	1.403597	-0.023355	-0.589539
C171	C	1.736931	0.309978	-0.256206
C172	C	1.070164	-0.356833	-0.174080
C173	C	1.403497	-0.023500	0.159253
C174	C	1.736830	0.309833	0.492587
C175	C	1.070288	-0.356648	-0.086831
C176	C	1.403621	-0.023315	0.246503
C177	C	1.736955	0.310019	0.579836
H178	H	0.506283	-0.432580	-0.274383
H179	H	0.839616	-0.099247	0.058950
H180	H	1.172950	0.234087	0.392283
H181	H	1.192919	-0.791938	-0.359988
H182	H	1.526252	-0.458604	-0.026654
H183	H	1.859585	-0.125271	0.306679
F184	F	0.936995	-0.787007	-0.420360
F185	F	1.270329	-0.453673	-0.087026
F186	F	1.603662	-0.120340	0.246307
H187	H	1.167861	-0.920547	-0.458538
H188	H	1.501194	-0.587214	-0.125204
H189	H	1.834527	-0.253880	0.208129
F190	F	0.640074	-0.453415	-0.273090
F191	F	0.973407	-0.120081	0.060243
F192	F	1.306740	0.213252	0.393576
H193	H	0.634291	-0.472009	-0.424464
H194	H	0.967625	-0.138675	-0.091130
H195	H	1.300958	0.194658	0.242203
F196	F	0.937730	-0.927551	-0.420791
F197	F	1.271064	-0.594217	-0.087457
F198	F	1.604397	-0.260884	0.245876
H199	H	0.634946	-0.339550	-0.247987
H200	H	0.968280	-0.006217	0.085346
H201	H	1.301613	0.327116	0.418679
H202	H	0.984268	-0.442588	-0.930469
H203	H	1.317601	-0.109255	-0.597135
H204	H	1.650935	0.224079	-0.263802
F205	F	1.168107	-0.258983	-0.836632
F206	F	1.501440	0.074350	-0.503298
F207	F	1.834774	0.407683	-0.169965
H208	H	0.507638	-0.334796	-0.249957
H209	H	0.840971	-0.001462	0.083376
H210	H	1.174305	0.331871	0.416710
H211	H	0.508073	-0.262362	-0.461831
H212	H	0.841406	0.070971	-0.128498
H213	H	1.174739	0.404305	0.204835
F214	F	0.641733	-0.256456	-0.479195
F215	F	0.975066	0.076878	-0.145861
F216	F	1.308399	0.410211	0.187472
F217	F	1.030272	-0.926188	-0.519320
F218	F	1.363605	-0.592855	-0.185987
F219	F	1.696939	-0.259522	0.147346
H220	H	1.156272	-0.270735	-1.079236
H221	H	1.489605	0.062599	-0.745902
H222	H	1.822938	0.395932	-0.412569
H223	H	0.984234	-0.442654	-0.677618
H224	H	1.317567	-0.109321	-0.344285
H225	H	1.650901	0.224013	-0.010951
H226	H	0.984265	-0.442618	-0.826350
H227	H	1.317598	-0.109284	-0.493016
H228	H	1.650931	0.224049	-0.159683
H229	H	1.156254	-0.270777	-0.930507
H230	H	1.489587	0.062556	-0.597174
H231	H	1.822921	0.395890	-0.263841
F232	F	1.100659	-0.926146	-0.234429
F233	F	1.433992	-0.592813	0.098904
F234	F	1.767326	-0.259479	0.432238
F235	F	1.204192	-0.925481	-0.341354
F236	F	1.537525	-0.592148	-0.008021
F237	F	1.870858	-0.258815	0.325313
F238	F	1.168965	-0.786733	-0.480634
F239	F	1.502298	-0.453400	-0.147301
F240	F	1.835632	-0.120066	0.186033
H241	H	1.089315	-0.793048	-0.248768
H242	H	1.422649	-0.459715	0.084565
H243	H	1.755982	-0.126382	0.417899
H244	H	0.992383	-0.792026	-0.277053
H245	H	1.325716	-0.458693	0.056280
H246	H	1.659050	-0.125359	0.389614
H247	H	0.984305	-0.442559	-1.079196
H248	H	1.317638	-0.109225	-0.745863
H249	H	1.650972	0.224108	-0.412529
F250	F	1.168064	-0.259007	-0.667414
F251	F	1.501398	0.074326	-0.334080
F252	F	1.834731	0.407659	-0.000747
H253	H	0.991408	-0.919099	-0.277739
H254	H	1.324742	-0.585766	0.055595
H255	H	1.658075	-0.252432	0.388928
H256	H	0.634042	-0.234831	-0.358063
H257	H	0.967376	0.098503	-0.024729
H258	H	1.300709	0.431836	0.308604
H259	H	0.506168	-0.401397	-0.499601
H260	H	0.839501	-0.068064	-0.166268
H261	H	1.172835	0.265269	0.167066
F262	F	0.640099	-0.397023	-0.519113
F263	F	0.973432	-0.063690	-0.185779
F264	F	1.306765	0.269644	0.147554
F265	F	0.500728	-0.490199	-0.420078
F266	F	0.834062	-0.156866	-0.086745
F267	F	1.167395	0.176468	0.246588
H268	H	1.026116	-0.792647	-0.500033
H269	H	1.359450	-0.459314	-0.166699
H270	H	1.692783	-0.125981	0.166634
F271	F	0.500945	-0.221286	-0.346130
F272	F	0.834279	0.112048	-0.012796
F273	F	1.167612	0.445381	0.320537
