data_functionalizedCrystal
_audit_creation_method	'MofGen! by Chris Wilmer'
_symmetry_space_group_name_H-M	'P1'
_symmetry_Int_Tables_number	1
_symmetry_cell_setting	triclinic
loop_
_symmetry_equiv_pos_as_xyz
  x,y,z
_cell_length_a	10.723024
_cell_length_b	10.654545
_cell_length_c	9.798715
_cell_angle_alpha	90.000197
_cell_angle_beta	90.005154
_cell_angle_gamma	95.524526
loop_
_atom_site_label
_atom_site_type_symbol
_atom_site_fract_x
_atom_site_fract_y
_atom_site_fract_z
O1	O	0.175252	-1.667810	0.113474
O2	O	0.191957	-1.302328	0.113479
O3	O	0.002029	-1.493500	0.113471
O4	O	0.365179	-1.476639	0.113482
O5	O	0.002016	-1.493499	-0.113511
O6	O	0.191943	-1.302328	-0.113503
O7	O	0.175239	-1.667809	-0.113509
Zn8	Zn	0.183589	-1.485069	-0.149544
Zn9	Zn	0.183606	-1.485069	0.149515
O10	O	0.365166	-1.476638	-0.113501
C11	C	0.190725	-1.255530	-0.000011
C12	C	0.187059	-1.116087	-0.000009
C13	C	-0.044477	-1.492272	-0.000018
C14	C	-0.183032	-1.488601	-0.000013
N15	N	0.183576	-1.485077	-0.353644
C16	C	-0.258000	-1.595571	-0.000013
C17	C	-0.401204	-1.591779	-0.000008
C18	C	0.411672	-1.477866	-0.000008
C19	C	0.550227	-1.481537	-0.000004
C20	C	0.176471	-1.714608	-0.000015
C21	C	0.180137	-1.854051	-0.000008
C22	C	0.185325	-1.050583	-0.123738
C23	C	0.181860	-0.919564	-0.123738
C24	C	0.181866	-0.919565	0.123730
C25	C	0.185323	-1.050583	0.123729
C26	C	0.104148	-0.749508	-0.272391
C27	C	0.102436	-0.683997	-0.396126
C28	C	0.176550	-0.717519	-0.505366
C29	C	0.252406	-0.816546	-0.490876
C30	C	0.254129	-0.882050	-0.367138
C31	C	0.179986	-0.848534	-0.257903
C32	C	0.263045	-1.220639	0.272373
C33	C	0.264777	-1.286144	0.396112
C34	C	0.190671	-1.252623	0.505363
C35	C	0.114834	-1.153589	0.490886
C36	C	0.113102	-1.088084	0.367147
C37	C	0.187206	-1.121614	0.257895
N38	N	0.183609	-1.485071	0.353614
C39	C	0.110839	-1.412228	0.578546
C40	C	0.110856	-1.412224	0.421383
H41	H	-0.216166	-1.689958	-0.000023
O42	O	-0.477868	-1.701151	-0.000066
C43	C	-0.404895	-1.804389	-0.000032
H44	H	-0.308001	-1.773465	-0.043008
H45	H	-0.452322	-1.883274	-0.065929
H46	H	-0.395354	-1.839910	0.108863
O47	O	-0.372886	-1.372311	0.000239
C48	C	-0.296718	-1.367581	0.117774
H49	H	-0.343895	-1.431345	0.199938
H50	H	-0.282829	-1.266548	0.157237
H51	H	-0.201841	-1.401024	0.091190
O52	O	0.338478	-1.382350	0.409931
C53	C	0.403535	-1.397881	0.286977
H54	H	0.350688	-1.357420	0.198853
H55	H	0.411022	-1.502515	0.268412
H56	H	0.501499	-1.346271	0.294243
H57	H	0.245869	-1.547436	0.588059
O58	O	-0.232781	-1.375915	-0.000189
C59	C	-0.192647	-1.307198	-0.117762
H60	H	-0.102022	-1.342075	-0.156963
H61	H	-0.175619	-1.202757	-0.091320
H62	H	-0.267844	-1.321196	-0.200075
H63	H	0.186739	-1.103913	-0.224494
H64	H	0.315894	-0.962672	-0.355338
H65	H	0.312772	-0.843815	-0.579826
H66	H	0.175155	-0.664170	-0.606114
H67	H	0.048558	-1.349857	0.636843
H68	H	0.040666	-0.603369	-0.407915
H69	H	0.043779	-0.722216	-0.183453
H70	H	0.180454	-0.866215	0.224473
O71	O	0.039329	-0.991941	0.353294
C72	C	-0.025680	-0.976367	0.476269
H73	H	-0.032119	-1.068154	0.536767
H74	H	-0.124053	-0.950416	0.452481
H75	H	0.026560	-0.897939	0.539001
H76	H	0.054496	-1.126291	0.579850
H77	H	0.192100	-1.305959	0.606122
O78	O	0.335110	-1.252979	0.166206
C79	C	0.419676	-1.148860	0.129605
H80	H	0.381338	-1.058102	0.164802
H81	H	0.431964	-1.146637	0.014042
H82	H	0.514106	-1.157646	0.180373
H83	H	0.048580	-1.349858	0.363068
H84	H	0.245882	-1.547447	0.411921
