data_functionalizedCrystal
_audit_creation_method	'MofGen! by Chris Wilmer'
_symmetry_space_group_name_H-M	'P1'
_symmetry_Int_Tables_number	1
_symmetry_cell_setting	triclinic
loop_
_symmetry_equiv_pos_as_xyz
  x,y,z
_cell_length_a	14.908571
_cell_length_b	18.101395
_cell_length_c	14.908854
_cell_angle_alpha	86.671533
_cell_angle_beta	89.795614
_cell_angle_gamma	86.727274
loop_
_atom_site_label
_atom_site_type_symbol
_atom_site_fract_x
_atom_site_fract_y
_atom_site_fract_z
Zn1	Zn	1.345241	-0.330798	-0.587590
Zn2	Zn	1.353786	-0.462180	-0.437225
Zn3	Zn	1.203550	-0.331639	-0.428584
Zn4	Zn	1.194822	-0.447879	-0.578880
O5	O	1.274350	-0.393124	-0.508070
O6	O	1.472199	-0.353860	-0.574905
O7	O	1.341086	-0.451200	-0.310251
O8	O	1.222422	-0.227897	-0.449706
O9	O	1.478478	-0.450385	-0.464432
O10	O	1.326522	-0.227279	-0.566527
O11	O	1.230709	-0.355292	-0.303903
O12	O	1.076568	-0.341425	-0.441260
O13	O	1.207546	-0.426012	-0.705863
O14	O	1.070155	-0.426827	-0.551682
O15	O	1.318058	-0.339993	-0.712263
O16	O	1.332623	-0.563914	-0.455986
O17	O	1.215832	-0.553407	-0.560060
C18	C	1.040736	-0.382666	-0.494588
C19	C	0.940794	-0.378209	-0.488842
C20	C	0.746372	-0.458916	-0.592872
C21	C	0.652467	-0.454730	-0.587477
C22	C	0.659078	-0.365647	-0.472660
C23	C	0.752982	-0.369833	-0.478056
C24	C	0.796626	-0.416470	-0.538163
C25	C	0.890533	-0.420659	-0.543554
C26	C	0.897142	-0.331573	-0.428743
C27	C	0.803237	-0.327387	-0.423347
C28	C	1.274231	-0.585531	-0.508036
C29	C	1.274261	-0.667845	-0.508057
C30	C	1.274455	-0.966942	-0.508117
C31	C	1.201125	-0.929036	-0.573779
C32	C	1.200808	-0.843415	-0.573542
C33	C	1.274359	-0.818557	-0.508088
C34	C	1.254170	-0.853313	-0.411846
C35	C	1.253699	-0.938917	-0.412237
C36	C	1.368174	-0.938322	-0.537871
C37	C	1.367494	-0.852542	-0.539917
C38	C	1.274306	-0.734696	-0.508066
C39	C	1.274506	-1.050804	-0.508132
C40	C	1.508876	-0.403624	-0.521604
C41	C	1.608817	-0.408098	-0.527372
C42	C	1.260875	-0.381313	-0.742601
C43	C	1.255133	-0.376280	-0.842544
C44	C	1.274492	-0.199966	-0.508124
C45	C	1.274553	-0.117654	-0.508148
C46	C	1.359300	-0.466690	-1.036961
C47	C	1.353908	-0.461964	-1.130867
C48	C	1.238962	-0.362098	-1.124263
C49	C	1.244354	-0.366824	-1.030358
C50	C	1.304524	-0.419123	-0.986710
C51	C	1.309911	-0.423853	-0.892802
C52	C	1.194970	-0.323983	-0.886200
C53	C	1.189578	-0.319257	-0.980106
C54	C	1.287824	-0.404838	-0.274454
C55	C	1.293740	-0.409670	-0.174521
H56	H	0.611553	-0.489292	-0.632029
H57	H	1.424581	-0.835919	-0.496014
H58	H	0.623526	-0.327673	-0.423730
C59	C	0.938032	-0.471171	-0.608872
C60	C	0.988678	-0.428808	-0.669673
C61	C	1.032453	-0.475314	-0.729853
H62	H	0.894748	-0.495866	-0.640776
H63	H	0.976672	-0.506756	-0.576544
H64	H	0.950042	-0.393237	-0.701998
H65	H	1.031978	-0.404114	-0.637795
H66	H	1.071093	-0.510899	-0.697525
H67	H	0.989163	-0.500007	-0.761750
H68	H	1.066828	-0.446579	-0.771108
H69	H	1.150367	-0.285251	-0.845276
C70	C	1.394010	-0.963794	-0.630320
C71	C	1.329036	-0.936015	-0.692986
C72	C	1.352802	-0.959456	-0.778163
H73	H	1.397483	-1.016412	-0.628859
H74	H	1.450733	-0.945907	-0.647058
H75	H	1.272329	-0.953905	-0.676252
H76	H	1.325554	-0.883399	-0.694475
H77	H	1.409524	-0.941568	-0.794901
H78	H	1.356275	-1.012073	-0.776692
H79	H	1.308726	-0.940605	-0.820693
C80	C	0.793595	-0.509565	-0.658214
C81	C	0.729483	-0.545832	-0.704986
C82	C	0.772950	-0.592489	-0.765196
H83	H	0.832183	-0.545216	-0.625954
H84	H	0.827972	-0.480956	-0.699606
H85	H	0.695121	-0.574440	-0.663600
H86	H	0.690892	-0.510200	-0.737265
H87	H	0.807327	-0.563880	-0.806587
H88	H	0.811537	-0.628135	-0.732928
H89	H	0.729457	-0.617097	-0.796943
H90	H	1.131965	-0.948286	-0.553865
H91	H	0.938069	-0.297012	-0.384192
H92	H	1.358909	-0.466434	-0.857266
H93	H	1.186583	-0.829901	-0.386951
H94	H	1.140592	-0.276675	-1.015657
H95	H	1.185354	-0.956882	-0.387669
H96	H	1.382818	-0.829547	-0.610772
H97	H	1.212806	-0.819545	-0.644733
C98	C	0.755684	-0.276825	-0.358118
C99	C	0.662690	-0.282253	-0.365088
C100	C	0.618858	-0.235693	-0.305004
H101	H	0.770235	-0.227071	-0.372202
H102	H	0.774472	-0.291323	-0.298541
H103	H	0.643909	-0.267750	-0.424653
H104	H	0.648112	-0.331996	-0.350996
H105	H	0.637646	-0.250191	-0.245427
H106	H	0.633417	-0.185942	-0.319094
H107	H	0.555758	-0.239375	-0.309719
H108	H	1.212950	-0.946760	-0.645188
H109	H	1.131232	-0.820645	-0.553401
C110	C	1.413421	-0.513701	-1.185266
C111	C	1.467251	-0.560523	-1.126937
C112	C	1.522080	-0.608201	-1.177017
H113	H	1.450593	-0.485368	-1.224176
H114	H	1.376921	-0.542629	-1.219886
H115	H	1.503747	-0.531599	-1.092333
H116	H	1.430103	-0.588873	-1.088026
H117	H	1.485580	-0.637128	-1.211636
H118	H	1.559245	-0.579861	-1.215925
H119	H	1.558604	-0.639979	-1.137448
H120	H	1.305089	-0.964484	-0.361351
C121	C	1.323521	-0.832519	-0.344634
C122	C	1.385799	-0.788005	-0.388578
C123	C	1.449691	-0.768827	-0.326691
H124	H	1.353784	-0.876224	-0.318857
H125	H	1.294351	-0.805986	-0.298624
H126	H	1.414967	-0.814538	-0.434572
H127	H	1.355563	-0.744291	-0.414351
H128	H	1.420521	-0.742294	-0.280681
H129	H	1.479946	-0.812536	-0.300918
H130	H	1.491949	-0.738617	-0.356496
H131	H	1.189979	-0.319515	-1.159818
H132	H	1.422740	-0.963424	-0.490113
H133	H	1.408297	-0.509271	-1.001423
