data_functionalizedCrystal
_audit_creation_method	'MofGen! by Chris Wilmer'
_symmetry_space_group_name_H-M	'P1'
_symmetry_Int_Tables_number	1
_symmetry_cell_setting	triclinic
loop_
_symmetry_equiv_pos_as_xyz
  x,y,z
_cell_length_a	23.532407
_cell_length_b	22.610064
_cell_length_c	23.532407
_cell_angle_alpha	89.993588
_cell_angle_beta	97.151283
_cell_angle_gamma	90.002839
loop_
_atom_site_label
_atom_site_type_symbol
_atom_site_fract_x
_atom_site_fract_y
_atom_site_fract_z
O1	O	0.755264	0.049124	-0.069127
O2	O	0.589400	0.049143	-0.079130
O3	O	0.677333	0.049113	0.008803
O4	O	0.667330	0.049154	-0.157060
O5	O	0.677318	-0.049256	0.008790
O6	O	0.589385	-0.049226	-0.079143
O7	O	0.755248	-0.049245	-0.069140
Zn8	Zn	0.672314	-0.064854	-0.074144
Zn9	Zn	0.672334	0.064752	-0.074127
O10	O	0.667315	-0.049215	-0.157073
C11	C	0.568176	-0.000039	-0.078882
C12	C	0.504959	-0.000033	-0.078116
C13	C	0.105856	-0.000048	-0.125350
C14	C	0.046456	-0.000052	-0.124638
O15	O	0.009712	-0.000063	-0.168424
N16	N	0.023830	-0.000064	-0.072362
C17	C	0.060607	-0.000078	-0.020794
O18	O	0.035908	-0.000088	0.023737
C19	C	0.120006	-0.000078	-0.021506
C20	C	0.142629	-0.000060	-0.073785
C21	C	0.128480	-0.000031	-0.177625
C22	C	0.187876	-0.000026	-0.178336
C23	C	0.224649	-0.000038	-0.126772
C24	C	0.202025	-0.000055	-0.074497
C25	C	0.156783	-0.000096	0.030062
C26	C	0.216185	-0.000097	0.029345
C27	C	0.238808	-0.000079	-0.022934
C28	C	0.298194	-0.000063	-0.023643
N29	N	0.320821	-0.000051	-0.075920
C30	C	0.284048	-0.000039	-0.127484
C31	C	-0.064135	-0.000078	-0.019302
C32	C	-0.123533	-0.000073	-0.018589
C33	C	-0.137680	-0.000048	-0.122434
C34	C	-0.078281	-0.000049	-0.123146
C35	C	-0.041509	-0.000066	-0.071578
C36	C	0.408784	-0.000028	-0.128974
C37	C	0.468186	-0.000021	-0.129680
C38	C	0.482329	-0.000048	-0.025836
C39	C	0.422932	-0.000053	-0.025129
C40	C	0.386160	-0.000044	-0.076702
O41	O	0.334974	-0.000054	0.020119
O42	O	0.308756	-0.000036	-0.172007
N43	N	0.672304	-0.153306	-0.074155
C44	C	0.711273	-0.561961	-0.035196
C45	C	0.711276	-0.623881	-0.035192
O46	O	0.744384	-0.655911	-0.002076
N47	N	0.672334	-0.654843	-0.074115
C48	C	0.633383	-0.623883	-0.113041
O49	O	0.600260	-0.655905	-0.146147
C50	C	0.633378	-0.561964	-0.113042
C51	C	0.672326	-0.531005	-0.074120
C52	C	0.750218	-0.531001	0.003724
C53	C	0.750215	-0.469086	0.003719
C54	C	0.711268	-0.438130	-0.035206
C55	C	0.672323	-0.469089	-0.074125
C56	C	0.594424	-0.531005	-0.151965
C57	C	0.594422	-0.469082	-0.151962
C58	C	0.633370	-0.438122	-0.113040
C59	C	0.633374	-0.376217	-0.113054
N60	N	0.672316	-0.345255	-0.074131
C61	C	0.711263	-0.376211	-0.035207
C62	C	0.633396	-0.753917	-0.113035
C63	C	0.633403	-0.815834	-0.113037
C64	C	0.711296	-0.815828	-0.035187
C65	C	0.711291	-0.753909	-0.035188
C66	C	0.672338	-0.722954	-0.074112
C67	C	0.711255	-0.246183	-0.035220
C68	C	0.711251	-0.184262	-0.035230
C69	C	0.633357	-0.184274	-0.113078
C70	C	0.633363	-0.246190	-0.113071
C71	C	0.672314	-0.277143	-0.074137
O72	O	0.600281	-0.344148	-0.146151
O73	O	0.744376	-0.344181	-0.002101
C74	C	0.776472	-0.000061	-0.069388
C75	C	0.839689	-0.000064	-0.070154
C76	C	0.677071	-0.000075	0.030013
C77	C	0.676305	-0.000086	0.093230
N78	N	0.672349	0.153204	-0.074111
C79	C	0.621110	-0.000052	0.359397
C80	C	0.621821	-0.000055	0.299997
O81	O	0.578035	-0.000030	0.263252
N82	N	0.674097	-0.000067	0.277371
C83	C	0.725666	-0.000070	0.314148
O84	O	0.770196	-0.000080	0.289449
C85	C	0.724953	-0.000063	0.373547
C86	C	0.672674	-0.000058	0.396170
C87	C	0.568834	-0.000046	0.382020
C88	C	0.568123	-0.000044	0.441417
C89	C	0.619687	-0.000050	0.478189
C90	C	0.671963	-0.000056	0.455566
C91	C	0.776521	-0.000063	0.410324
C92	C	0.775805	-0.000056	0.469726
C93	C	0.723525	-0.000050	0.492349
C94	C	0.722816	-0.000060	0.551735
N95	N	0.670539	-0.000048	0.574361
C96	C	0.618975	-0.000043	0.537589
C97	C	0.727157	-0.000083	0.189406
C98	C	0.727870	-0.000094	0.130008
C99	C	0.624025	-0.000078	0.115860
C100	C	0.623313	-0.000071	0.175260
C101	C	0.674881	-0.000071	0.212032
C102	C	0.617485	-0.000040	0.662325
C103	C	0.616779	-0.000041	0.721727
C104	C	0.720623	-0.000055	0.735869
C105	C	0.721330	-0.000057	0.676473
C106	C	0.669757	-0.000048	0.639701
O107	O	0.766579	-0.000083	0.588514
O108	O	0.574452	-0.000025	0.562296
C109	C	0.667577	-0.000035	0.821717
C110	C	0.668343	-0.000047	0.758500
H111	H	0.512280	-0.000056	0.016146
H112	H	0.526842	-0.000040	0.352085
O113	O	0.572479	-0.000034	0.197138
C114	C	0.527124	-0.000047	0.151937
H115	H	0.542861	0.018566	0.111667
H116	H	0.490608	0.028521	0.164139
H117	H	0.511226	-0.047239	0.143454
H118	H	0.206289	-0.000012	-0.220908
O119	O	-0.028359	-0.000005	0.030758
C120	C	0.006415	0.050949	0.033467
H121	H	0.009178	0.067942	-0.011717
H122	H	0.051176	0.039489	0.054948
H123	H	-0.012989	0.086619	0.059363
H124	H	0.762605	-0.000062	0.765820
H125	H	0.246123	-0.000111	0.071339
H126	H	0.486602	-0.000006	-0.172255
H127	H	0.582038	-0.000074	0.085909
O128	O	0.556664	-0.561097	-0.189826
C129	C	0.586951	-0.596921	-0.224806
H130	H	0.631858	-0.578264	-0.225548
H131	H	0.563450	-0.597616	-0.270189
H132	H	0.590036	-0.643851	-0.206968
O133	O	0.778618	-0.000027	0.107968
C134	C	0.782156	0.050925	0.074040
H135	H	0.737187	0.067916	0.058991
H136	H	0.804635	0.039463	0.035270
H137	H	0.807507	0.086597	0.100423
H138	H	0.742969	-0.159057	-0.003535
O139	O	0.595538	-0.723941	-0.150910
C140	C	0.561164	-0.764553	-0.185251
H141	H	0.584516	-0.808686	-0.185768
H142	H	0.552216	-0.746665	-0.230781
H143	H	0.518964	-0.771146	-0.166975
H144	H	0.781929	-0.443882	0.035414
O145	O	-0.056403	-0.000062	-0.173980
C146	C	-0.101604	-0.000033	-0.219335
H147	H	-0.141871	-0.018659	-0.203604
H148	H	-0.089398	-0.028584	-0.255861
H149	H	-0.110093	0.047164	-0.235217
O150	O	0.373094	0.000089	-0.179086
C151	C	0.383323	0.051039	-0.210839
H152	H	0.403788	0.086638	-0.180644
H153	H	0.341054	0.068147	-0.233926
H154	H	0.413396	0.039533	-0.243623
O155	O	0.092844	0.000009	-0.227771
C156	C	0.125562	0.000008	-0.274056
H157	H	0.169979	0.018623	-0.259328
H158	H	0.103463	0.028581	-0.310161
H159	H	0.129701	-0.047179	-0.290106
H160	H	0.601694	-0.841037	-0.144737
O161	O	0.595474	-0.276176	-0.150900
C162	C	0.561109	-0.235572	-0.185266
H163	H	0.560606	-0.191433	-0.161926
H164	H	0.515577	-0.253460	-0.194176
H165	H	0.579353	-0.228991	-0.227485
O166	O	-0.173489	-0.000066	-0.172473
C167	C	-0.230765	-0.000055	-0.160628
H168	H	-0.232791	-0.018689	-0.115910
H169	H	-0.257863	-0.028608	-0.193518
H170	H	-0.247955	0.047137	-0.162880
O171	O	0.400887	-0.000144	0.025619
C172	C	0.366968	-0.051105	0.029139
H173	H	0.351925	-0.068079	-0.015836
H174	H	0.328194	-0.039660	0.051619
H175	H	0.393357	-0.086782	0.054480
H176	H	0.138374	-0.000111	0.072634
O177	O	0.749147	-0.276154	0.002621
C178	C	0.783505	-0.235540	0.036977
H179	H	0.784008	-0.191405	0.013621
H180	H	0.829037	-0.253421	0.045901
H181	H	0.765254	-0.228955	0.079190
O182	O	0.788111	-0.560975	0.041558
C183	C	0.822467	-0.520359	0.075913
H184	H	0.822962	-0.476221	0.052559
H185	H	0.868002	-0.538234	0.084831
H186	H	0.804220	-0.513780	0.118129
O187	O	0.556528	-0.438987	-0.189698
C188	C	0.521575	-0.403163	-0.159379
H189	H	0.520873	-0.421822	-0.114466
H190	H	0.476177	-0.402467	-0.182844
H191	H	0.539411	-0.356234	-0.156311
H192	H	0.743005	-0.728705	-0.003494
H193	H	0.601648	-0.159060	-0.144772
O194	O	0.517288	-0.000007	0.463293
C195	C	0.471935	-0.000016	0.418090
H196	H	0.487676	0.018599	0.377823
H197	H	0.435420	0.028552	0.430292
H198	H	0.456036	-0.047206	0.409603
H199	H	0.743008	-0.841043	-0.003492
H200	H	0.817798	-0.000053	0.499664
H201	H	0.574205	-0.000039	0.740143
H202	H	0.769152	-0.000088	0.219343
H203	H	0.763901	-0.000070	0.658053
H204	H	0.575489	-0.000033	0.632392
O205	O	0.827356	-0.000040	0.388452
C206	C	0.872708	-0.000055	0.433657
H207	H	0.856971	0.018571	0.473918
H208	H	0.909233	0.028502	0.421447
H209	H	0.888592	-0.047248	0.442160
H210	H	-0.141947	-0.000078	0.023982
