data_functionalizedCrystal
_audit_creation_method	'MofGen! by Chris Wilmer'
_symmetry_space_group_name_H-M	'P1'
_symmetry_Int_Tables_number	1
_symmetry_cell_setting	triclinic
loop_
_symmetry_equiv_pos_as_xyz
  x,y,z
_cell_length_a	13.339070
_cell_length_b	10.540539
_cell_length_c	12.376457
_cell_angle_alpha	101.393660
_cell_angle_beta	75.589755
_cell_angle_gamma	100.077393
loop_
_atom_site_label
_atom_site_type_symbol
_atom_site_fract_x
_atom_site_fract_y
_atom_site_fract_z
O1	O	1.366170	0.620442	-0.094026
O2	O	1.071037	0.536703	-0.094022
O3	O	1.225337	0.396162	-0.094023
O4	O	1.211871	0.760984	-0.094026
O5	O	1.186775	0.431235	0.093989
O6	O	1.032476	0.571777	0.093990
O7	O	1.327609	0.655516	0.093986
Zn8	Zn	1.173920	0.619215	0.123839
Zn9	Zn	1.224726	0.573004	-0.123875
O10	O	1.173309	0.796058	0.093987
C11	C	1.013965	0.540095	-0.000016
C12	C	0.901358	0.497931	-0.000014
C13	C	0.538938	0.825771	-0.000035
C14	C	0.644738	0.865389	-0.000040
C15	C	0.708898	0.773528	-0.000033
C16	C	0.667248	0.642042	-0.000022
C17	C	0.561440	0.602418	-0.000026
C18	C	0.731400	0.550175	-0.000024
C19	C	0.689750	0.418690	-0.000014
C20	C	0.583951	0.379073	-0.000017
C21	C	0.519791	0.470934	-0.000024
C22	C	0.837208	0.589799	-0.000020
C23	C	0.859710	0.366447	-0.000012
C24	C	0.753910	0.326829	-0.000007
C25	C	1.205046	0.366051	-0.000019
C26	C	1.202026	0.224072	-0.000025
C27	C	1.086335	0.001104	-0.000445
C28	C	1.089311	0.148845	-0.000022
C29	C	1.234249	0.200932	0.107338
C30	C	1.230384	0.053093	0.107429
C31	C	1.276528	0.013471	-0.106376
C32	C	1.277857	0.160541	-0.107796
C33	C	1.384681	0.652124	-0.000023
C34	C	1.497290	0.694286	-0.000032
C35	C	1.193600	0.826168	-0.000020
C36	C	1.196622	0.968146	-0.000021
N37	N	1.139253	0.650755	0.292897
N38	N	1.259401	0.541457	-0.292934
C39	C	1.339873	0.468218	0.647881
C40	C	1.364130	0.446141	0.529541
C41	C	1.307913	0.497292	0.470375
C42	C	1.227434	0.570525	0.529559
C43	C	1.203180	0.592613	0.647911
C44	C	1.171220	0.621687	0.470404
C45	C	1.090741	0.694920	0.529589
C46	C	1.066490	0.717003	0.647929
C47	C	1.122707	0.665852	0.707096
C48	C	1.195474	0.599599	0.352053
C49	C	1.058781	0.723994	0.352082
C50	C	1.034523	0.746071	0.470422
H51	H	0.486692	0.900547	-0.000050
C52	C	1.161202	0.261240	0.215276
H53	H	1.111029	0.300551	0.195141
H54	H	1.201009	0.325522	0.258717
H55	H	1.126481	0.194833	0.258549
C56	C	0.403410	0.427357	-0.000018
H57	H	0.371169	0.500899	-0.000025
H58	H	0.370184	0.389379	0.065545
H59	H	0.397079	0.364921	-0.065591
C60	C	0.883016	0.734420	-0.000028
H61	H	0.955219	0.744866	-0.000034
H62	H	0.847601	0.786046	0.065532
H63	H	0.874503	0.761570	-0.065604
C64	C	1.452680	0.365646	0.464441
H65	H	1.459091	0.359845	0.385486
H66	H	1.437126	0.280436	0.483818
H67	H	1.516475	0.407029	0.483844
C68	C	1.009894	0.204907	0.104119
H69	H	1.011434	0.295495	0.104727
H70	H	1.027384	0.192754	0.170906
H71	H	0.941854	0.161069	0.100961
C72	C	1.005215	-0.040808	0.102987
H73	H	1.038268	-0.078301	0.146430
H74	H	0.951627	-0.103280	0.078304
H75	H	0.975720	0.033315	0.148053
H76	H	1.256738	-0.045697	-0.187751
C77	C	0.946009	0.826633	0.535533
H78	H	0.939625	0.832465	0.614487
H79	H	0.882195	0.785312	0.516157
H80	H	0.961614	0.911841	0.516136
C81	C	1.401703	0.411964	0.712965
H82	H	1.375727	0.435604	0.791922
H83	H	1.473464	0.446051	0.693555
H84	H	1.394049	0.319518	0.693581
C85	C	1.052980	0.167365	-0.103988
H86	H	1.054760	0.257889	-0.103872
H87	H	0.983708	0.124717	-0.101337
H88	H	1.098077	0.130924	-0.170905
C89	C	1.386711	-0.013022	-0.107366
H90	H	1.434650	0.014579	-0.171818
H91	H	1.386242	-0.103825	-0.110122
H92	H	1.407218	0.033857	-0.040762
C93	C	1.096029	0.690141	0.837271
H94	H	1.141040	0.649190	0.864026
H95	H	1.025597	0.654849	0.864060
H96	H	1.105016	0.781378	0.864036
H97	H	1.173835	0.026201	0.187687
H98	H	1.000967	0.776645	0.696117
C99	C	1.246329	0.177580	-0.215097
H100	H	1.187205	0.223225	-0.194317
H101	H	1.229583	0.094219	-0.257254
H102	H	1.302750	0.225840	-0.259910
C103	C	0.690544	1.010012	-0.000038
H104	H	0.637180	1.059049	-0.000030
H105	H	0.744801	1.017885	-0.065598
H106	H	0.717895	1.042336	0.065538
C107	C	0.996942	0.780271	0.287011
H108	H	1.022907	0.756620	0.208053
H109	H	1.004595	0.872709	0.306401
H110	H	0.925176	0.746179	0.306418
C111	C	1.283997	0.519059	0.286957
H112	H	1.290402	0.513240	0.208001
H113	H	1.268412	0.433859	0.306355
H114	H	1.347806	0.560411	0.306345
C115	C	0.538139	0.234443	-0.000010
H116	H	0.591498	0.185409	0.000005
H117	H	0.510781	0.202108	-0.065573
H118	H	0.483884	0.226586	0.065563
H119	H	0.795045	0.805792	-0.000039
H120	H	1.361364	0.211563	-0.114280
H121	H	1.310448	0.033663	0.112299
H122	H	0.719985	0.219769	-0.000008
C123	C	0.930274	0.265394	-0.000002
H124	H	0.999248	0.307825	0.000011
H125	H	0.931011	0.200783	-0.065564
H126	H	0.904106	0.225252	0.065572
H127	H	1.327667	0.479314	0.374017
H128	H	1.316205	0.252244	0.111329
C129	C	1.047507	-0.077431	-0.104450
H130	H	0.980845	-0.056127	-0.103128
H131	H	1.042323	-0.168150	-0.103029
H132	H	1.095396	-0.056447	-0.171368
