data_functionalizedCrystal
_audit_creation_method	'MofGen! by Chris Wilmer'
_symmetry_space_group_name_H-M	'P1'
_symmetry_Int_Tables_number	1
_symmetry_cell_setting	triclinic
loop_
_symmetry_equiv_pos_as_xyz
  x,y,z
_cell_length_a	6.394989
_cell_length_b	10.654559
_cell_length_c	9.730223
_cell_angle_alpha	90.000437
_cell_angle_beta	89.998443
_cell_angle_gamma	85.493198
loop_
_atom_site_label
_atom_site_type_symbol
_atom_site_fract_x
_atom_site_fract_y
_atom_site_fract_z
O1	O	-0.293525	-1.670936	-0.114288
O2	O	-0.321462	-1.305755	-0.114288
O3	O	-0.003504	-1.493529	-0.114289
O4	O	-0.611482	-1.483162	-0.114287
O5	O	-0.003512	-1.493527	0.114291
O6	O	-0.321470	-1.305753	0.114292
O7	O	-0.293533	-1.670934	0.114292
Zn8	Zn	-0.307502	-1.488343	0.150584
Zn9	Zn	-0.307492	-1.488346	-0.150580
O10	O	-0.611490	-1.483160	0.114293
C11	C	-0.319410	-1.258934	0.000002
C12	C	-0.313261	-1.119426	0.000001
N13	N	-0.307508	-1.488350	0.356120
C14	C	-0.295584	-1.717754	-0.000001
C15	C	-0.301733	-1.857262	-0.000009
C16	C	0.074343	-1.491478	-0.000004
C17	C	0.310669	-1.485214	-0.000005
N18	N	-0.307469	-1.488348	-0.356116
C19	C	-0.120273	-1.065843	0.000004
C20	C	-0.114508	-0.934759	-0.000006
C21	C	-0.494736	-0.910854	-0.000016
C22	C	-0.500499	-1.041935	-0.000016
C23	C	0.099249	-1.079643	0.000016
C24	C	0.105014	-0.948560	0.000006
C25	C	-0.166765	-1.571519	0.428046
C26	C	-0.166740	-1.571515	0.571929
C27	C	-0.448219	-1.405170	0.571948
C28	C	-0.448233	-1.405169	0.428068
C29	C	-0.004261	-1.667561	0.428036
C30	C	-0.004235	-1.667557	0.571919
H31	H	-0.657648	-1.085557	-0.000041
H32	H	0.190850	-0.918281	0.095667
C33	C	-0.601259	-1.314808	0.350224
C34	C	-0.724526	-1.241989	0.444032
C35	C	-0.865537	-1.158742	0.372373
H36	H	-0.525523	-1.261225	0.294089
H37	H	-0.689064	-1.361326	0.294129
H38	H	-0.636731	-1.195475	0.500103
H39	H	-0.800306	-1.295538	0.500170
H40	H	-0.953343	-1.205260	0.316278
H41	H	-0.789785	-1.105168	0.316240
H42	H	-0.949204	-1.109333	0.436011
H43	H	0.156324	-1.644417	0.388982
H44	H	-0.055150	-1.759283	0.383410
H45	H	-0.647178	-0.847745	-0.000031
H46	H	0.181979	-1.120516	-0.095638
C47	C	0.198414	-0.900304	-0.131654
C48	C	0.254396	-1.001951	-0.218875
C49	C	0.340461	-0.957546	-0.340160
H50	H	0.097869	-0.843803	-0.176129
H51	H	0.319403	-0.857748	-0.110285
H52	H	0.133423	-1.044488	-0.240245
H53	H	0.354960	-1.058462	-0.174443
H54	H	0.461450	-0.914990	-0.318791
H55	H	0.239905	-0.901044	-0.384622
H56	H	0.378472	-1.026507	-0.399349
C57	C	0.198328	-1.624808	0.631159
C58	C	0.332486	-1.596470	0.523740
C59	C	0.519121	-1.557120	0.578261
H60	H	0.167975	-1.551958	0.686104
H61	H	0.264303	-1.690207	0.686049
H62	H	0.266524	-1.531077	0.468872
H63	H	0.362898	-1.669302	0.468786
H64	H	0.585096	-1.622519	0.633152
H65	H	0.488747	-1.484272	0.633206
H66	H	0.610177	-1.537899	0.505387
H67	H	-0.040037	-1.764448	0.610970
H68	H	-0.562792	-1.337445	0.630543
H69	H	0.165565	-1.124581	0.098713
