data_functionalizedCrystal
_audit_creation_method	'MofGen! by Chris Wilmer'
_symmetry_space_group_name_H-M	'P1'
_symmetry_Int_Tables_number	1
_symmetry_cell_setting	triclinic
loop_
_symmetry_equiv_pos_as_xyz
  x,y,z
_cell_length_a	17.038272
_cell_length_b	16.098538
_cell_length_c	27.732025
_cell_angle_alpha	87.285658
_cell_angle_beta	93.127488
_cell_angle_gamma	87.069734
loop_
_atom_site_label
_atom_site_type_symbol
_atom_site_fract_x
_atom_site_fract_y
_atom_site_fract_z
O1	O	-1.039648	0.069107	0.102902
O2	O	-0.706315	0.402440	0.436235
O3	O	-0.372981	0.735774	0.769568
O4	O	-0.812038	0.069132	0.101235
O5	O	-0.478705	0.402465	0.434568
O6	O	-0.145371	0.735799	0.767902
O7	O	-0.932923	0.069144	0.031994
O8	O	-0.599589	0.402477	0.365327
O9	O	-0.266256	0.735811	0.698661
O10	O	-0.918763	0.069095	0.172143
O11	O	-0.585430	0.402428	0.505476
O12	O	-0.252097	0.735762	0.838810
O13	O	-0.925861	-0.069370	0.036022
O14	O	-0.592528	0.263964	0.369355
O15	O	-0.259195	0.597297	0.702688
O16	O	-0.804977	-0.069381	0.105263
O17	O	-0.471643	0.263952	0.438596
O18	O	-0.138310	0.597285	0.771930
O19	O	-1.032587	-0.069407	0.106929
O20	O	-0.699253	0.263927	0.440263
O21	O	-0.365920	0.597260	0.773596
Zn22	Zn	-0.917661	-0.091386	0.106736
Zn23	Zn	-0.584327	0.241947	0.440069
Zn24	Zn	-0.250994	0.575281	0.773402
Zn25	Zn	-0.926964	0.091112	0.101429
Zn26	Zn	-0.593631	0.424445	0.434762
Zn27	Zn	-0.260297	0.757778	0.768096
O28	O	-0.911702	-0.069419	0.176171
O29	O	-0.578369	0.263915	0.509504
O30	O	-0.245036	0.597248	0.842837
C31	C	-0.779397	-0.000121	0.101734
C32	C	-0.446064	0.333212	0.435067
C33	C	-0.112731	0.666546	0.768400
C34	C	-0.692658	-0.000110	0.097213
C35	C	-0.359325	0.333224	0.430546
C36	C	-0.025992	0.666557	0.763880
N37	N	-0.911317	-0.215936	0.110357
N38	N	-0.577984	0.117397	0.443691
N39	N	-0.244650	0.450731	0.777024
C40	C	-0.929098	-0.000104	0.015987
C41	C	-0.595765	0.333229	0.349320
C42	C	-0.262431	0.666562	0.682654
C43	C	-0.928213	-0.000080	-0.037710
C44	C	-0.594879	0.333254	0.295624
C45	C	-0.261546	0.666587	0.628957
C46	C	-1.065228	-0.000152	0.106431
C47	C	-0.731894	0.333182	0.439764
C48	C	-0.398561	0.666515	0.773097
C49	C	-1.151967	-0.000158	0.110951
C50	C	-0.818634	0.333176	0.444285
C51	C	-0.485300	0.666509	0.777618
C52	C	-0.642054	-0.000125	0.138716
C53	C	-0.308721	0.333208	0.472050
C54	C	0.024613	0.666542	0.805383
C55	C	-0.560553	-0.000135	0.134466
C56	C	-0.227220	0.333198	0.467800
C57	C	0.106114	0.666532	0.801133
C58	C	-0.529658	-0.000124	0.088712
C59	C	-0.196325	0.333210	0.422046
C60	C	0.137008	0.666543	0.755379
C61	C	-0.580269	-0.000111	0.047206
C62	C	-0.246935	0.333222	0.380539
C63	C	0.086398	0.666556	0.713873
C64	C	-0.661768	-0.000107	0.051456
C65	C	-0.328434	0.333226	0.384790
C66	C	0.004899	0.666560	0.718123
C67	C	-0.284076	-0.000141	0.073696
C68	C	0.049257	0.333193	0.407029
C69	C	0.382590	0.666526	0.740362
C70	C	-0.202571	-0.000142	0.069448
C71	C	0.130762	0.333191	0.402781
C72	C	0.464096	0.666524	0.736115
C73	C	-0.182861	-0.000168	0.156709
C74	C	0.150472	0.333166	0.490042
C75	C	0.483806	0.666499	0.823376
C76	C	-0.264363	-0.000159	0.160956
C77	C	0.068971	0.333175	0.494289
C78	C	0.402304	0.666508	0.827622
C79	C	-0.314966	-0.000150	0.119449
C80	C	0.018368	0.333183	0.452782
C81	C	0.351701	0.666516	0.786116
C82	C	-0.446352	-0.000131	0.084367
C83	C	-0.113018	0.333202	0.417700
C84	C	0.220315	0.666535	0.751034
C85	C	-0.398271	-0.000149	0.123795
C86	C	-0.064937	0.333185	0.457128
C87	C	0.268396	0.666518	0.790462
C88	C	-0.962644	-0.259516	0.080980
C89	C	-0.629310	0.073817	0.414314
C90	C	-0.295977	0.407151	0.747647
C91	C	-0.958213	-0.346705	0.083519
C92	C	-0.624880	-0.013372	0.416852
C93	C	-0.291546	0.319961	0.750186
C94	C	-0.902459	-0.390313	0.115437
C95	C	-0.569126	-0.056980	0.448770
C96	C	-0.235792	0.276354	0.782103
C97	C	-0.851127	-0.346727	0.144815
C98	C	-0.517794	-0.013394	0.478148
C99	C	-0.184460	0.319940	0.811481
C100	C	-0.855554	-0.259539	0.142274
C101	C	-0.522221	0.073794	0.475607
C102	C	-0.188888	0.407127	0.808940
C103	C	-0.886409	-0.653565	0.124640
C104	C	-0.553076	-0.320231	0.457974
C105	C	-0.219743	0.013102	0.791307
C106	C	-0.881987	-0.740759	0.127181
C107	C	-0.548654	-0.407425	0.460514
C108	C	-0.215321	-0.074092	0.793847
C109	C	-0.989073	-0.740731	0.065884
C110	C	-0.655740	-0.407398	0.399217
C111	C	-0.322406	-0.074064	0.732550
C112	C	-0.993499	-0.653541	0.063347
C113	C	-0.660165	-0.320208	0.396681
C114	C	-0.326832	0.013125	0.730014
C115	C	-0.942164	-0.609963	0.092723
C116	C	-0.608831	-0.276630	0.426057
C117	C	-0.275497	0.056704	0.759390
C118	C	-0.897931	-0.479435	0.118033
C119	C	-0.564597	-0.146101	0.451367
C120	C	-0.231264	0.187232	0.784700
C121	C	-0.946689	-0.520843	0.090124
C122	C	-0.613356	-0.187510	0.423458
C123	C	-0.280022	0.145824	0.756791
N124	N	-0.933314	0.215661	0.097804
N125	N	-0.599981	0.548995	0.431137
N126	N	-0.266647	0.882328	0.764470
C127	C	-0.925760	0.075376	-0.423358
C128	C	-0.592426	0.408710	-0.090024
C129	C	-0.259093	0.742043	0.243309
C130	C	-0.929079	0.075403	-0.221547
C131	C	-0.595746	0.408736	0.111786
C132	C	-0.262413	0.742069	0.445120
O133	O	-0.932813	0.139618	-0.197326
O134	O	-0.599480	0.472951	0.136007
O135	O	-0.266146	0.806285	0.469341
N136	N	-0.925645	-0.000099	-0.194111
N137	N	-0.592312	0.333235	0.139222
N138	N	-0.258978	0.666568	0.472555
C139	C	-0.921386	-0.075612	-0.217132
C140	C	-0.588052	0.257721	0.116202
C141	C	-0.254719	0.591054	0.449535
O142	O	-0.918549	-0.139830	-0.189166
O143	O	-0.585216	0.193503	0.144168
O144	O	-0.251882	0.526836	0.477501
C145	C	-0.918072	-0.075638	-0.418941
C146	C	-0.584739	0.257695	-0.085608
C147	C	-0.251405	0.591029	0.247725
C148	C	-0.921498	-0.000131	-0.446374
C149	C	-0.588165	0.333202	-0.113041
C150	C	-0.254832	0.666535	0.220293
C151	C	-0.929187	0.150877	-0.450790
C152	C	-0.595853	0.484210	-0.117457
C153	C	-0.262520	0.817543	0.215876
C154	C	-0.928353	0.150869	-0.501240
C155	C	-0.595019	0.484203	-0.167906
C156	C	-0.261686	0.817536	0.165427
C157	C	-0.924091	0.075362	-0.524256
C158	C	-0.590758	0.408695	-0.190923
C159	C	-0.257425	0.742028	0.142410
C160	C	-0.920664	-0.000139	-0.496824
C161	C	-0.587331	0.333195	-0.163490
C162	C	-0.253998	0.666528	0.169843
C163	C	-0.913818	-0.151151	-0.441961
C164	C	-0.580485	0.182183	-0.108627
C165	C	-0.247152	0.515516	0.224706
C166	C	-0.912992	-0.151150	-0.492417
C167	C	-0.579659	0.182183	-0.159083
C168	C	-0.246326	0.515516	0.174250
C169	C	-0.916419	-0.075644	-0.519849
C170	C	-0.583085	0.257690	-0.186516
C171	C	-0.249752	0.591023	0.146817
C172	C	-0.915569	-0.075654	-0.570290
C173	C	-0.582236	0.257679	-0.236956
C174	C	-0.248902	0.591013	0.096377
N175	N	-0.919003	-0.000152	-0.597725
N176	N	-0.585670	0.333181	-0.264392
N177	N	-0.252336	0.666514	0.068941
C178	C	-0.923264	0.075355	-0.574709
C179	C	-0.589931	0.408689	-0.241375
C180	C	-0.256598	0.742022	0.091958
C181	C	-0.923124	-0.075594	-0.111179
C182	C	-0.589791	0.257740	0.222155
C183	C	-0.256458	0.591073	0.555488
C184	C	-0.923951	-0.075587	-0.060726
C185	C	-0.590618	0.257746	0.272607
C186	C	-0.257285	0.591079	0.605940
C187	C	-0.931646	0.075428	-0.065145
C188	C	-0.598313	0.408761	0.268188
C189	C	-0.264980	0.742095	0.601521
C190	C	-0.930813	0.075421	-0.115598
C191	C	-0.597480	0.408754	0.217735
C192	C	-0.264147	0.742088	0.551068
C193	C	-0.926558	-0.000092	-0.138614
C194	C	-0.593225	0.333241	0.194719
C195	C	-0.259892	0.666575	0.528052
C196	C	-0.921512	0.075334	-0.680656
C197	C	-0.588178	0.408668	-0.347322
C198	C	-0.254845	0.742001	-0.013989
C199	C	-0.920674	0.075320	-0.731109
C200	C	-0.587340	0.408653	-0.397776
C201	C	-0.254007	0.741987	-0.064443
C202	C	-0.912983	-0.075695	-0.726686
C203	C	-0.579650	0.257639	-0.393353
C204	C	-0.246317	0.590972	-0.060019
C205	C	-0.913817	-0.075681	-0.676237
C206	C	-0.580483	0.257652	-0.342903
C207	C	-0.247150	0.590985	-0.009570
C208	C	-0.918084	-0.000160	-0.653223
C209	C	-0.584751	0.333173	-0.319890
C210	C	-0.251417	0.666507	0.013444
O211	O	-0.911845	-0.139835	-0.594543
O212	O	-0.578512	0.193498	-0.261210
O213	O	-0.245178	0.526831	0.072123
O214	O	-0.926118	0.139564	-0.602684
O215	O	-0.592785	0.472897	-0.269350
O216	O	-0.259451	0.806231	0.063983
C217	C	-0.926594	0.075384	-0.372908
C218	C	-0.593261	0.408717	-0.039575
C219	C	-0.259927	0.742050	0.293759
C220	C	-0.923167	-0.000117	-0.345475
C221	C	-0.589833	0.333217	-0.012142
C222	C	-0.256500	0.666550	0.321191
C223	C	-0.918906	-0.075624	-0.368492
C224	C	-0.585572	0.257709	-0.035159
C225	C	-0.252239	0.591042	0.298175
C226	C	-0.923994	-0.000110	-0.295023
C227	C	-0.590660	0.333223	0.038310
C228	C	-0.257327	0.666556	0.371644
C229	C	-0.928255	0.075397	-0.272006
C230	C	-0.594922	0.408731	0.061327
C231	C	-0.261588	0.742064	0.394660
C232	C	-0.931689	0.150899	-0.299442
C233	C	-0.598356	0.484232	0.033891
C234	C	-0.265023	0.817566	0.367225
C235	C	-0.930855	0.150891	-0.349892
C236	C	-0.597522	0.484225	-0.016558
C237	C	-0.264188	0.817558	0.316775
C238	C	-0.915471	-0.151126	-0.341056
C239	C	-0.582138	0.182207	-0.007723
C240	C	-0.248805	0.515541	0.325610
C241	C	-0.916305	-0.151112	-0.290607
C242	C	-0.582972	0.182221	0.042726
C243	C	-0.249638	0.515554	0.376060
C244	C	-0.920566	-0.075605	-0.267590
C245	C	-0.587233	0.257729	0.065743
C246	C	-0.253899	0.591062	0.399076
C247	C	-0.915527	-0.000168	0.192178
C248	C	-0.582194	0.333165	0.525511
C249	C	-0.248860	0.666498	0.858844
C250	C	-0.916413	-0.000188	0.245874
C251	C	-0.583079	0.333146	0.579207
C252	C	-0.249746	0.666479	0.912541
H253	H	-0.667202	-0.000133	0.175974
H254	H	-0.333868	0.333200	0.509308
H255	H	-0.000535	0.666533	0.842641
H256	H	-0.923461	0.136809	-0.753443
H257	H	-0.590128	0.470143	-0.420110
H258	H	-0.256795	0.803476	-0.086776
Cl259	Cl	-0.919625	-0.170514	-0.026245
Cl260	Cl	-0.586292	0.162819	0.307089
Cl261	Cl	-0.252958	0.496153	0.640422
Cl262	Cl	-0.910111	-0.246060	-0.369983
Cl263	Cl	-0.576778	0.087273	-0.036650
Cl264	Cl	-0.243444	0.420606	0.296683
Cl265	Cl	-0.821879	-0.598786	0.161571
Cl266	Cl	-0.488546	-0.265453	0.494905
Cl267	Cl	-0.155212	0.067881	0.828238
H268	H	-0.935153	0.212380	-0.280693
H269	H	-0.601820	0.545713	0.052640
H270	H	-0.268487	0.879047	0.385974
Cl271	Cl	-0.781031	-0.401546	0.184939
Cl272	Cl	-0.447698	-0.068213	0.518272
Cl273	Cl	-0.114364	0.265120	0.851605
H274	H	-0.519354	-0.000146	0.168263
H275	H	-0.186020	0.333187	0.501596
H276	H	0.147313	0.666520	0.834930
Cl277	Cl	-0.791023	-0.204754	0.179205
Cl278	Cl	-0.457690	0.128580	0.512538
Cl279	Cl	-0.124356	0.461913	0.845871
H280	H	-0.702970	-0.000094	0.017660
H281	H	-0.369636	0.333239	0.350993
H282	H	-0.036303	0.666572	0.684326
H283	H	-1.030867	-0.776220	0.041966
H284	H	-0.697533	-0.442887	0.375300
H285	H	-0.364200	-0.109554	0.708633
Cl286	Cl	-0.119242	-0.000182	0.208885
Cl287	Cl	0.214092	0.333152	0.542218
Cl288	Cl	0.547425	0.666485	0.875552
H289	H	-0.924987	0.136831	-0.661924
H290	H	-0.591654	0.470164	-0.328591
H291	H	-0.258320	0.803497	0.004742
H292	H	-0.289511	-0.000158	0.198213
H293	H	0.043822	0.333175	0.531546
H294	H	0.377156	0.666509	0.864880
H295	H	-0.932660	0.212368	-0.432056
H296	H	-0.599326	0.545701	-0.098723
H297	H	-0.265993	0.879034	0.234611
Cl298	Cl	-0.827842	-0.534260	0.158159
Cl299	Cl	-0.494509	-0.200927	0.491493
Cl300	Cl	-0.161176	0.132407	0.824826
Cl301	Cl	-0.935166	0.245819	-0.384371
Cl302	Cl	-0.601832	0.579153	-0.051038
Cl303	Cl	-0.268499	0.912486	0.282295
Cl304	Cl	-0.163733	-0.000147	0.011925
Cl305	Cl	0.169601	0.333186	0.345258
Cl306	Cl	0.502934	0.666520	0.678591
Cl307	Cl	-0.407505	-0.000114	0.026849
Cl308	Cl	-0.074172	0.333220	0.360182
Cl309	Cl	0.259161	0.666553	0.693516
H310	H	-0.935111	0.136910	-0.046397
H311	H	-0.601777	0.470243	0.286937
H312	H	-0.268444	0.803576	0.620270
Cl313	Cl	-0.541429	-0.000102	-0.010314
Cl314	Cl	-0.208096	0.333231	0.323019
Cl315	Cl	0.125238	0.666564	0.656353
Cl316	Cl	-0.917769	-0.170534	-0.140105
Cl317	Cl	-0.584436	0.162799	0.193228
Cl318	Cl	-0.251102	0.496132	0.526561
H319	H	-0.913507	-0.212604	-0.268275
H320	H	-0.580173	0.120730	0.065059
H321	H	-0.246840	0.454063	0.398392
Cl322	Cl	-0.437111	-0.000165	0.181313
Cl323	Cl	-0.103778	0.333168	0.514646
Cl324	Cl	0.229555	0.666501	0.847979
H325	H	-1.008048	-0.224016	0.054992
H326	H	-0.674714	0.109317	0.388325
H327	H	-0.341381	0.442651	0.721658
H328	H	-1.000007	-0.382188	0.059598
H329	H	-0.666673	-0.048854	0.392931
H330	H	-0.333340	0.284479	0.726264
H331	H	-0.836583	-0.776260	0.153174
H332	H	-0.503250	-0.442927	0.486507
H333	H	-0.169917	-0.109594	0.819841
Cl334	Cl	-0.907645	-0.246087	-0.521348
Cl335	Cl	-0.574312	0.087246	-0.188014
Cl336	Cl	-0.240979	0.420579	0.145319
Cl337	Cl	-1.063591	-0.598720	0.023222
Cl338	Cl	-0.730258	-0.265387	0.356556
Cl339	Cl	-0.396924	0.067947	0.689889
H340	H	-0.992081	-0.485335	0.064135
H341	H	-0.658748	-0.152002	0.397468
H342	H	-0.325415	0.181332	0.730801
H343	H	-0.933602	0.136905	-0.137931
H344	H	-0.600269	0.470238	0.195402
H345	H	-0.266935	0.803572	0.528736
Cl346	Cl	-0.347681	-0.000130	0.021515
Cl347	Cl	-0.014348	0.333204	0.354849
Cl348	Cl	0.318985	0.666537	0.688182
Cl349	Cl	-0.932670	0.245797	-0.535720
Cl350	Cl	-0.599337	0.579131	-0.202386
Cl351	Cl	-0.266004	0.912464	0.130947
Cl352	Cl	-0.909502	-0.246080	-0.407486
Cl353	Cl	-0.576168	0.087254	-0.074152
Cl354	Cl	-0.242835	0.420587	0.259181
H355	H	-0.910995	-0.137165	-0.653898
H356	H	-0.577662	0.196169	-0.320565
H357	H	-0.244329	0.529502	0.012768
Cl358	Cl	-0.907621	-0.170614	-0.755630
Cl359	Cl	-0.574287	0.162720	-0.422297
Cl360	Cl	-0.240954	0.496053	-0.088964
