data_functionalizedCrystal
_audit_creation_method	'MofGen! by Chris Wilmer'
_symmetry_space_group_name_H-M	'P1'
_symmetry_Int_Tables_number	1
_symmetry_cell_setting	triclinic
loop_
_symmetry_equiv_pos_as_xyz
  x,y,z
_cell_length_a	18.050591
_cell_length_b	18.050588
_cell_length_c	17.640968
_cell_angle_alpha	101.229504
_cell_angle_beta	101.220701
_cell_angle_gamma	90.028402
loop_
_atom_site_label
_atom_site_type_symbol
_atom_site_fract_x
_atom_site_fract_y
_atom_site_fract_z
Zn1	Zn	1.220230	-0.210797	0.446857
Zn2	Zn	1.553564	0.122537	0.780190
Zn3	Zn	1.886897	0.455870	1.113524
Zn4	Zn	1.195012	-0.360103	0.314676
Zn5	Zn	1.528345	-0.026770	0.648010
Zn6	Zn	1.861678	0.306564	0.981343
Zn7	Zn	1.070927	-0.235925	0.314698
Zn8	Zn	1.404260	0.097409	0.648032
Zn9	Zn	1.737594	0.430742	0.981365
Zn10	Zn	1.095989	-0.334953	0.446826
Zn11	Zn	1.429322	-0.001619	0.780160
Zn12	Zn	1.762656	0.331714	1.113493
O13	O	1.145540	-0.285444	0.380764
O14	O	1.478873	0.047889	0.714098
O15	O	1.812206	0.381222	1.047431
O16	O	1.320810	-0.230612	0.429327
O17	O	1.654144	0.102722	0.762660
O18	O	1.987477	0.436055	1.095993
O19	O	1.157509	-0.364672	0.204065
O20	O	1.490842	-0.031339	0.537399
O21	O	1.824175	0.301994	0.870732
O22	O	1.090798	-0.128663	0.332251
O23	O	1.424132	0.204671	0.665585
O24	O	1.757465	0.538004	0.998918
O25	O	1.302282	-0.340307	0.332214
O26	O	1.635615	-0.006973	0.665547
O27	O	1.968949	0.326360	0.998881
O28	O	1.200491	-0.110201	0.429348
O29	O	1.533824	0.223132	0.762681
O30	O	1.867157	0.556466	1.096015
O31	O	1.066344	-0.273439	0.204081
O32	O	1.399678	0.059894	0.537415
O33	O	1.733011	0.393227	0.870748
O34	O	0.970326	-0.249052	0.332222
O35	O	1.303660	0.084282	0.665555
O36	O	1.636993	0.417615	0.998888
O37	O	1.133513	-0.297441	0.557444
O38	O	1.466846	0.035892	0.890778
O39	O	1.800179	0.369225	1.224111
O40	O	0.988739	-0.321807	0.429295
O41	O	1.322072	0.011526	0.762629
O42	O	1.655406	0.344860	1.095962
O43	O	1.224792	-0.206224	0.557467
O44	O	1.558126	0.127109	0.890800
O45	O	1.891459	0.460442	1.224134
O46	O	1.181810	-0.460696	0.332184
O47	O	1.515144	-0.127362	0.665518
O48	O	1.848477	0.205971	0.998851
O49	O	1.109059	-0.442218	0.429274
O50	O	1.442392	-0.108884	0.762608
O51	O	1.775725	0.224449	1.095941
C52	C	0.952586	-0.285427	0.380758
C53	C	1.285919	0.047906	0.714091
C54	C	1.619253	0.381239	1.047425
C55	C	0.870043	-0.285435	0.380774
C56	C	1.203377	0.047899	0.714107
C57	C	1.536710	0.381232	1.047441
C58	C	0.631239	-0.325115	0.433491
C59	C	0.964572	0.008218	0.766824
C60	C	1.297905	0.341552	1.100157
C61	C	0.666893	-0.356899	0.361342
C62	C	1.000226	-0.023566	0.694675
C63	C	1.333560	0.309767	1.028009
C64	C	0.572923	-0.285458	0.380772
C65	C	0.906256	0.047875	0.714106
C66	C	1.239589	0.381209	1.047439
C67	C	0.684349	-0.253698	0.452918
C68	C	1.017683	0.079635	0.786251
C69	C	1.351016	0.412969	1.119584
C70	C	0.718909	-0.285448	0.380777
C71	C	1.052242	0.047886	0.714110
C72	C	1.385575	0.381219	1.047444
C73	C	0.607483	-0.317285	0.308586
C74	C	0.940816	0.016049	0.641919
C75	C	1.274149	0.349382	0.975252
C76	C	0.624944	-0.214043	0.400210
C77	C	0.958277	0.119291	0.733543
C78	C	1.291610	0.452624	1.066877
C79	C	0.660567	-0.245811	0.328011
C80	C	0.993900	0.087523	0.661345
C81	C	1.327233	0.420856	0.994678
C82	C	0.488824	-0.285466	0.380771
C83	C	0.822157	0.047868	0.714104
C84	C	1.155491	0.381201	1.047438
C85	C	0.803004	-0.285441	0.380770
C86	C	1.136337	0.047892	0.714104
C87	C	1.469671	0.381225	1.047437
C88	C	1.145441	-0.478401	0.380741
C89	C	1.478774	-0.145068	0.714074
C90	C	1.812108	0.188266	1.047407
C91	C	1.145472	-0.560944	0.380757
C92	C	1.478805	-0.227610	0.714090
C93	C	1.812138	0.105723	1.047424
C94	C	1.105988	-0.799748	0.433555
C95	C	1.439321	-0.466414	0.766888
C96	C	1.772654	-0.133081	1.100222
C97	C	1.177390	-0.746595	0.452947
C98	C	1.510723	-0.413261	0.786280
C99	C	1.844057	-0.079928	1.119613
C100	C	1.145634	-0.858056	0.380801
C101	C	1.478968	-0.524722	0.714134
C102	C	1.812301	-0.191389	1.047468
C103	C	1.074162	-0.764124	0.361425
C104	C	1.407496	-0.430791	0.694758
C105	C	1.740829	-0.097457	1.028091
C106	C	1.145551	-0.712074	0.380781
C107	C	1.478884	-0.378741	0.714115
C108	C	1.812218	-0.045408	1.047448
C109	C	1.217080	-0.805983	0.400230
C110	C	1.550414	-0.472649	0.733564
C111	C	1.883747	-0.139316	1.066897
C112	C	1.113800	-0.823523	0.308675
C113	C	1.447134	-0.490189	0.642008
C114	C	1.780467	-0.156856	0.975342
C115	C	1.185244	-0.770397	0.328039
C116	C	1.518578	-0.437064	0.661373
C117	C	1.851911	-0.103730	0.994706
C118	C	1.145681	-0.942151	0.380814
C119	C	1.479015	-0.608818	0.714148
C120	C	1.812348	-0.275485	1.047481
C121	C	1.145511	-0.627980	0.380768
C122	C	1.478845	-0.294647	0.714101
C123	C	1.812178	0.038686	1.047435
C124	C	1.339246	-0.285462	0.380771
C125	C	1.672580	0.047872	0.714105
C126	C	2.005913	0.381205	1.047438
C127	C	1.421793	-0.285469	0.380774
C128	C	1.755126	0.047864	0.714108
C129	C	2.088459	0.381198	1.047441
C130	C	1.184761	-0.246224	0.586939
C131	C	1.518094	0.087109	0.920272
C132	C	1.851428	0.420442	1.253605
C133	C	1.201475	-0.229511	0.674798
C134	C	1.534808	0.103822	1.008131
C135	C	1.868142	0.437156	1.341464
C136	C	1.145662	-0.091731	0.380805
C137	C	1.478995	0.241602	0.714139
C138	C	1.812329	0.574936	1.047472
C139	C	1.145714	-0.009182	0.380823
C140	C	1.479048	0.324152	0.714156
C141	C	1.812381	0.657485	1.047490
C142	C	1.106513	-0.324458	0.175392
C143	C	1.439847	0.008875	0.508726
C144	C	1.773180	0.342209	0.842059
C145	C	1.089943	-0.340962	0.087534
C146	C	1.423277	-0.007629	0.420867
C147	C	1.756610	0.325705	0.754200
C148	C	1.018851	-0.412009	0.963696
C149	C	1.352184	-0.078675	1.297030
C150	C	1.685518	0.254658	1.630363
C151	C	1.034572	-0.396295	1.046253
C152	C	1.367905	-0.062961	1.379587
C153	C	1.701238	0.270372	1.712920
C154	C	1.129613	-0.301319	1.046267
C155	C	1.462947	0.032015	1.379600
C156	C	1.796280	0.365348	1.712933
C157	C	1.113898	-0.317022	0.963708
C158	C	1.447231	0.016311	1.297041
C159	C	1.780564	0.349645	1.630374
C160	C	1.058516	-0.372369	0.922429
C161	C	1.391850	-0.039035	1.255763
C162	C	1.725183	0.294298	1.589096
C163	C	1.153563	-0.277382	0.922441
C164	C	1.486897	0.055951	1.255774
C165	C	1.820230	0.389285	1.589107
C166	C	1.137852	-0.293087	0.839889
C167	C	1.471185	0.040246	1.173223
C168	C	1.804518	0.373579	1.506556
C169	C	1.082474	-0.348433	0.798605
C170	C	1.415808	-0.015099	1.131938
C171	C	1.749141	0.318234	1.465272
C172	C	1.042805	-0.388074	0.839878
C173	C	1.376138	-0.054740	1.173211
C174	C	1.709471	0.278593	1.506544
C175	C	1.208948	-0.222040	0.963721
C176	C	1.542281	0.111294	1.297054
C177	C	1.875615	0.444627	1.630387
C178	C	1.248614	-0.182399	0.922454
C179	C	1.581947	0.150934	1.255787
C180	C	1.915280	0.484267	1.589120
C181	C	1.232898	-0.198101	0.839901
C182	C	1.566232	0.135233	1.173234
C183	C	1.899565	0.468566	1.506567
C184	C	1.177521	-0.253446	0.798616
C185	C	1.510855	0.079887	1.131950
C186	C	1.844188	0.413221	1.465283
C187	C	1.272568	-0.158459	0.798628
C188	C	1.605901	0.174874	1.131961
C189	C	1.939235	0.508207	1.465294
C190	C	1.256856	-0.174165	0.716076
C191	C	1.590190	0.159169	1.049410
C192	C	1.923523	0.492502	1.382743
C193	C	1.161810	-0.269151	0.716065
C194	C	1.495143	0.064182	1.049398
C195	C	1.828476	0.397515	1.382731
H196	H	0.673626	-0.212279	0.283380
H197	H	1.006960	0.121054	0.616713
H198	H	1.340293	0.454387	0.950046
Cl199	Cl	0.610828	-0.376962	0.502233
Cl200	Cl	0.944162	-0.043629	0.835567
Cl201	Cl	1.277495	0.289705	1.168900
Cl202	Cl	0.556195	-0.358859	0.214362
Cl203	Cl	0.889529	-0.025525	0.547696
Cl204	Cl	1.222862	0.307808	0.881029
H205	H	0.997690	-0.433125	0.806266
H206	H	1.331023	-0.099791	1.139600
H207	H	1.664356	0.233542	1.472933
H208	H	1.204283	-0.713259	0.513934
H209	H	1.537617	-0.379926	0.847267
H210	H	1.870950	-0.046592	1.180601
H211	H	1.013754	-0.745606	0.345045
H212	H	1.347087	-0.412273	0.678379
H213	H	1.680421	-0.078940	1.011712
H214	H	1.116695	-0.314202	0.682453
H215	H	1.450028	0.019131	1.015787
H216	H	1.783361	0.352465	1.349120
H217	H	1.069686	-0.361222	0.731386
H218	H	1.403019	-0.027888	1.064719
H219	H	1.736353	0.305445	1.398053
H220	H	1.221740	-0.209256	1.030940
H221	H	1.555074	0.124077	1.364273
H222	H	1.888407	0.457411	1.697606
H223	H	1.072553	-0.812951	0.478209
H224	H	1.405886	-0.479618	0.811543
H225	H	1.739220	-0.146284	1.144876
Cl226	Cl	1.318235	-0.112826	0.974354
Cl227	Cl	1.651568	0.220508	1.307688
Cl228	Cl	1.984902	0.553841	1.641021
Cl229	Cl	1.342195	-0.088892	0.850531
Cl230	Cl	1.675529	0.244441	1.183864
Cl231	Cl	2.008862	0.577774	1.517197
Cl232	Cl	1.310394	-0.834404	0.425629
Cl233	Cl	1.643727	-0.501070	0.758963
Cl234	Cl	1.977060	-0.167737	1.092296
H235	H	1.086890	-0.856872	0.247705
H236	H	1.420224	-0.523538	0.581039
H237	H	1.753557	-0.190205	0.914372
Cl238	Cl	1.237026	-0.750206	0.259149
Cl239	Cl	1.570359	-0.416872	0.592482
Cl240	Cl	1.903692	-0.083539	0.925815
Cl241	Cl	0.695533	-0.450137	0.335954
Cl242	Cl	1.028866	-0.116804	0.669288
Cl243	Cl	1.362199	0.216530	1.002621
Cl244	Cl	0.984697	-0.446132	1.098130
Cl245	Cl	1.318031	-0.112799	1.431463
Cl246	Cl	1.651364	0.220534	1.764796
Cl247	Cl	0.596285	-0.120822	0.425631
Cl248	Cl	0.929619	0.212512	0.758964
Cl249	Cl	1.262952	0.545845	1.092297
Cl250	Cl	0.735778	-0.212233	0.547111
Cl251	Cl	1.069112	0.121101	0.880445
Cl252	Cl	1.402445	0.454434	1.213778
H253	H	0.973736	-0.457059	0.930085
H254	H	1.307069	-0.123726	1.263418
H255	H	1.640403	0.209607	1.596752
H256	H	1.174707	-0.256258	1.079887
H257	H	1.508040	0.077076	1.413220
H258	H	1.841374	0.410409	1.746553
H259	H	1.289155	-0.141885	0.682476
H260	H	1.622488	0.191449	1.015809
H261	H	1.955822	0.524782	1.349142
