data_functionalizedCrystal
_audit_creation_method	'MofGen! by Chris Wilmer'
_symmetry_space_group_name_H-M	'P1'
_symmetry_Int_Tables_number	1
_symmetry_cell_setting	triclinic
loop_
_symmetry_equiv_pos_as_xyz
  x,y,z
_cell_length_a	21.295420
_cell_length_b	21.295417
_cell_length_c	21.295411
_cell_angle_alpha	89.978356
_cell_angle_beta	90.024592
_cell_angle_gamma	89.973711
loop_
_atom_site_label
_atom_site_type_symbol
_atom_site_fract_x
_atom_site_fract_y
_atom_site_fract_z
Zn1	Zn	0.962355	0.250752	0.355912
Zn2	Zn	0.962258	0.356004	0.250637
Zn3	Zn	0.857079	0.250744	0.250657
Zn4	Zn	0.857048	0.355979	0.355869
O5	O	0.909685	0.303370	0.303269
O6	O	1.050432	0.264727	0.341957
O7	O	0.948277	0.342048	0.162550
O8	O	0.871097	0.162656	0.264645
O9	O	1.050360	0.342055	0.264612
O10	O	0.948444	0.162661	0.341976
O11	O	0.871003	0.264714	0.162565
O12	O	0.768985	0.264691	0.264604
O13	O	0.871045	0.342014	0.443964
O14	O	0.768963	0.342006	0.341903
O15	O	0.948414	0.264703	0.443996
O16	O	0.948248	0.444090	0.264570
O17	O	0.870951	0.444072	0.341884
C18	C	0.746133	0.303346	0.303251
C19	C	0.676165	0.303351	0.303258
C20	C	0.176744	0.263200	0.343617
C21	C	0.242486	0.263195	0.343617
C22	C	0.275326	0.303389	0.303283
C23	C	0.242417	0.343602	0.262958
C24	C	0.176676	0.343610	0.262964
N25	N	0.378516	0.308125	0.248164
N26	N	0.440967	0.308113	0.248160
C27	C	0.473400	0.303368	0.303265
N28	N	0.441023	0.298623	0.358375
N29	N	0.378566	0.298631	0.358377
C30	C	0.346611	0.303385	0.303273
C31	C	0.577587	0.263156	0.343591
C32	C	0.643330	0.263156	0.343592
C33	C	0.643260	0.343559	0.262927
C34	C	0.577517	0.343562	0.262932
C35	C	0.544685	0.303358	0.303263
C36	C	0.909602	0.466921	0.303234
C37	C	0.909625	0.536890	0.303240
C38	C	0.909737	0.303357	0.467459
C39	C	0.909759	0.303351	0.537427
C40	C	1.073875	0.303394	0.303287
C41	C	1.143843	0.303405	0.303295
C42	C	0.909785	0.139180	0.303318
C43	C	0.909827	0.069211	0.303338
C44	C	0.949909	0.569745	0.263024
C45	C	0.949939	0.635487	0.263038
C46	C	0.909672	0.668372	0.303262
C47	C	0.869385	0.635509	0.343485
C48	C	0.869361	0.569768	0.343474
N49	N	0.854605	0.771635	0.308055
N50	N	0.854630	0.834086	0.308061
C51	C	0.909743	0.866447	0.303298
N52	N	0.964832	0.833997	0.298515
N53	N	0.964807	0.771540	0.298505
C54	C	0.909694	0.739657	0.303278
C55	C	0.950063	0.970587	0.263095
C56	C	0.950093	1.036331	0.263114
C57	C	0.869534	1.036352	0.343557
C58	C	0.869509	0.970609	0.343542
C59	C	0.909773	0.937731	0.303308
C60	C	0.909669	0.303338	0.139717
C61	C	0.909769	0.303166	0.069749
C62	C	0.950044	0.263094	0.570311
C63	C	0.950043	0.263066	0.636054
C64	C	0.909764	0.303308	0.668910
C65	C	0.869472	0.343568	0.636018
C66	C	0.869470	0.343589	0.570276
N67	N	0.904908	0.358375	0.772125
N68	N	0.904914	0.358353	0.834577
C69	C	0.909768	0.303244	0.866985
N70	N	0.914629	0.248157	0.834582
N71	N	0.914626	0.248180	0.772125
C72	C	0.909762	0.303288	0.740195
C73	C	0.950054	0.262953	0.971154
C74	C	0.950048	0.262925	1.036898
C75	C	0.869481	0.343432	1.036861
C76	C	0.869483	0.343455	0.971118
C77	C	0.909773	0.303216	0.938269
H78	H	0.269159	0.376329	0.230120
C79	C	0.838828	1.056554	0.450124
C80	C	0.825274	1.072491	0.387775
H81	H	0.811506	1.078870	0.477424
H82	H	0.833045	1.012704	0.455867
H83	H	0.881124	1.067291	0.459369
H84	H	0.782979	1.061750	0.378529
H85	H	0.831052	1.116351	0.382030
H86	H	0.836703	0.943857	0.376287
H87	H	0.982695	0.542977	0.230265
H88	H	0.550853	0.230419	0.376430
C89	C	1.029679	0.183514	0.576957
C90	C	0.994323	0.218857	0.534204
H91	H	1.057011	0.156201	0.554663
H92	H	1.053742	0.210937	0.602603
H93	H	1.002261	0.159426	0.602592
H94	H	1.021740	0.242949	0.508572
H95	H	0.970258	0.191431	0.508548
H96	H	0.982856	0.230185	0.944407
H97	H	0.670117	0.230418	0.376431
C98	C	1.029552	0.628870	0.183509
C99	C	0.994218	0.671612	0.218826
H100	H	1.056883	0.651172	0.156211
H101	H	1.053613	0.603198	0.210949
H102	H	1.002119	0.603260	0.159406
H103	H	1.021650	0.697218	0.242932
H104	H	0.970154	0.697295	0.191382
C105	C	0.833646	0.736296	0.379212
C106	C	0.825122	0.671654	0.387698
H107	H	0.806317	0.758608	0.406508
H108	H	0.875936	0.747028	0.388467
H109	H	0.824457	0.747092	0.336908
H110	H	0.834316	0.660857	0.430001
H111	H	0.782823	0.660917	0.378448
H112	H	0.550729	0.376299	0.230094
C113	C	0.958856	0.178372	0.710000
C114	C	0.994329	0.218816	0.672211
H115	H	0.986198	0.151053	0.732317
H116	H	0.934869	0.202334	0.738969
H117	H	0.931449	0.154293	0.684339
H118	H	1.021733	0.242899	0.697872
H119	H	1.018327	0.194852	0.643238
C120	C	0.833713	0.379289	0.736779
C121	C	0.825201	0.387805	0.672131
H122	H	0.806382	0.406603	0.759072
H123	H	0.824524	0.336995	0.747550
H124	H	0.876006	0.388505	0.747560
H125	H	0.782909	0.378585	0.661349
H126	H	0.834385	0.430109	0.661355
H127	H	0.836683	0.376240	0.944344
H128	H	0.982902	1.063080	0.230367
H129	H	0.836663	0.376371	0.543503
C130	C	0.789736	0.576393	0.422990
C131	C	0.825074	0.533650	0.387679
H132	H	0.762392	0.554093	0.450277
H133	H	0.817161	0.601995	0.447099
H134	H	0.765682	0.602073	0.395541
H135	H	0.849131	0.507973	0.415129
H136	H	0.797645	0.508037	0.363569
C137	C	0.183211	0.423083	0.183231
C138	C	0.140507	0.387802	0.218634
H139	H	0.160880	0.450361	0.155860
H140	H	0.208854	0.447198	0.210612
H141	H	0.208853	0.395613	0.159202
H142	H	0.114868	0.415271	0.242667
H143	H	0.114853	0.363684	0.191249
C144	C	0.744001	0.379247	0.227102
C145	C	0.679349	0.387742	0.218592
H146	H	0.766282	0.406524	0.199729
H147	H	0.754789	0.388519	0.269375
H148	H	0.754780	0.336936	0.217963
H149	H	0.668570	0.430052	0.227736
H150	H	0.668558	0.378474	0.176309
H151	H	0.982850	0.943817	0.230336
H152	H	0.982852	0.230139	1.063671
H153	H	0.836679	0.376191	1.063611
C154	C	0.235959	0.183712	0.423342
C155	C	0.278661	0.218998	0.387941
H156	H	0.258292	0.156425	0.450702
H157	H	0.210323	0.211173	0.447376
H158	H	0.210310	0.159600	0.395954
H159	H	0.304308	0.243114	0.415329
H160	H	0.304308	0.191533	0.363905
H161	H	0.150016	0.230465	0.376460
