data_functionalizedCrystal
_audit_creation_method	'MofGen! by Chris Wilmer'
_symmetry_space_group_name_H-M	'P1'
_symmetry_Int_Tables_number	1
_symmetry_cell_setting	triclinic
loop_
_symmetry_equiv_pos_as_xyz
  x,y,z
_cell_length_a	16.109301
_cell_length_b	16.109301
_cell_length_c	14.586319
_cell_angle_alpha	90.005214
_cell_angle_beta	89.996501
_cell_angle_gamma	96.538519
loop_
_atom_site_label
_atom_site_type_symbol
_atom_site_fract_x
_atom_site_fract_y
_atom_site_fract_z
O1	O	1.103131	-0.106866	-0.076243
O2	O	1.436464	0.226467	0.257090
O3	O	1.769797	0.559801	0.590424
O4	O	0.861069	-0.120165	-0.076245
O5	O	1.194402	0.213168	0.257088
O6	O	1.527735	0.546501	0.590421
O7	O	0.988749	0.007515	-0.076235
O8	O	1.322083	0.340849	0.257099
O9	O	1.655416	0.674182	0.590432
O10	O	0.975450	-0.234547	-0.076254
O11	O	1.308783	0.098787	0.257080
O12	O	1.642117	0.432120	0.590413
O13	O	0.988741	0.007517	0.076246
O14	O	1.322074	0.340850	0.409579
O15	O	1.655407	0.674184	0.742913
O16	O	0.861060	-0.120164	0.076236
O17	O	1.194393	0.213170	0.409569
O18	O	1.527727	0.546503	0.742902
O19	O	1.103122	-0.106864	0.076238
O20	O	1.436455	0.226469	0.409571
O21	O	1.769789	0.559802	0.742904
Cu22	Cu	0.982090	-0.113514	0.090159
Cu23	Cu	1.315423	0.219820	0.423493
Cu24	Cu	1.648757	0.553153	0.756826
Cu25	Cu	0.982101	-0.113516	-0.090167
Cu26	Cu	1.315434	0.219817	0.243167
Cu27	Cu	1.648767	0.553151	0.576500
O28	O	0.975441	-0.234545	0.076227
O29	O	1.308775	0.098788	0.409561
O30	O	1.642108	0.432122	0.742894
C31	C	0.830090	-0.119626	-0.000005
C32	C	1.163423	0.213708	0.333328
C33	C	1.496756	0.547041	0.666662
C34	C	0.737794	-0.118011	-0.000006
C35	C	1.071128	0.215323	0.333328
C36	C	1.404461	0.548656	0.666661
C37	C	1.134101	-0.107404	-0.000004
C38	C	1.467435	0.225929	0.333329
C39	C	1.800768	0.559263	0.666662
C40	C	1.226397	-0.109019	-0.000010
C41	C	1.559730	0.224314	0.333323
C42	C	1.893063	0.557648	0.666657
C43	C	1.448669	-0.037011	0.000000
C44	C	1.782002	0.296322	0.333334
C45	C	2.115336	0.629655	0.666667
C46	C	1.535389	-0.038535	0.000003
C47	C	1.868723	0.294798	0.333337
C48	C	2.202056	0.628131	0.666670
C49	C	1.515515	-0.190024	-0.000013
C50	C	1.848848	0.143309	0.333320
C51	C	2.182182	0.476643	0.666654
C52	C	1.428796	-0.188499	-0.000010
C53	C	1.762130	0.144834	0.333324
C54	C	2.095463	0.478168	0.666657
C55	C	1.395376	-0.111990	-0.000008
C56	C	1.728709	0.221343	0.333326
C57	C	2.062042	0.554676	0.666659
C58	C	1.568815	-0.115039	-0.000008
C59	C	1.902148	0.218294	0.333325
C60	C	2.235482	0.551627	0.666659
C61	C	1.662841	-0.116692	-0.000005
C62	C	1.996174	0.216641	0.333329
C63	C	2.329508	0.549974	0.666662
C64	C	1.301344	-0.110337	-0.000009
C65	C	1.634677	0.222996	0.333324
C66	C	1.968011	0.556330	0.666657
C67	C	0.988206	0.038491	0.000006
C68	C	1.321540	0.371824	0.333339
C69	C	1.654873	0.705158	0.666673
C70	C	0.986591	0.130786	0.000007
C71	C	1.319925	0.464120	0.333341
C72	C	1.653258	0.797453	0.666674
C73	C	0.975984	-0.265521	-0.000016
C74	C	1.309318	0.067813	0.333318
C75	C	1.642651	0.401146	0.666651
C76	C	0.977600	-0.357816	-0.000023
C77	C	1.310933	-0.024483	0.333310
C78	C	1.644266	0.308851	0.666644
N79	N	0.982089	-0.113512	0.216991
N80	N	1.315422	0.219822	0.550324
N81	N	1.648755	0.553155	0.883658
C82	C	1.058599	0.353059	-0.000006
C83	C	1.391932	0.686392	0.333327
C84	C	1.725266	1.019725	0.666660
C85	C	1.057075	0.439779	-0.000014
C86	C	1.390408	0.773112	0.333319
C87	C	1.723742	1.106446	0.666653
C88	C	0.905586	0.419905	-0.000012
C89	C	1.238919	0.753238	0.333322
C90	C	1.572253	1.086571	0.666655
C91	C	0.907111	0.333186	-0.000011
C92	C	1.240444	0.666519	0.333323
C93	C	1.573778	0.999853	0.666656
C94	C	0.983620	0.299766	-0.000003
C95	C	1.316953	0.633099	0.333330
C96	C	1.650287	0.966432	0.666663
C97	C	0.980571	0.473205	-0.000012
C98	C	1.313904	0.806538	0.333321
C99	C	1.647238	1.139871	0.666655
C100	C	0.978918	0.567231	-0.000020
C101	C	1.312251	0.900564	0.333313
C102	C	1.645585	1.233897	0.666646
C103	C	0.985273	0.205734	0.000003
C104	C	1.318607	0.539067	0.333336
C105	C	1.651940	0.872400	0.666670
N106	N	0.982109	-0.113511	-0.216999
N107	N	1.315442	0.219822	0.116335
N108	N	1.648775	0.553155	0.449668
C109	C	1.038645	-0.056994	0.452002
C110	C	1.371978	0.276340	0.785336
C111	C	1.705311	0.609673	1.118669
C112	C	1.038647	-0.056992	0.547983
C113	C	1.371980	0.276342	0.881317
C114	C	1.705314	0.609675	1.214650
C115	C	0.925547	-0.170032	0.547984
C116	C	1.258880	0.163301	0.881317
C117	C	1.592213	0.496634	1.214650
C118	C	0.925541	-0.170030	0.452004
C119	C	1.258874	0.163304	0.785337
C120	C	1.592208	0.496637	1.118671
C121	C	0.982095	-0.113511	0.404016
C122	C	1.315428	0.219822	0.737349
C123	C	1.648761	0.553155	1.070683
C124	C	0.982103	-0.113512	0.595977
C125	C	1.315436	0.219822	0.929310
C126	C	1.648769	0.553155	1.262643
C127	C	0.982105	-0.113510	0.700044
C128	C	1.315438	0.219823	1.033377
C129	C	1.648772	0.553157	1.366710
C130	C	0.982092	-0.113512	0.299942
C131	C	1.315425	0.219822	0.633275
C132	C	1.648758	0.553155	0.966609
H133	H	1.421461	0.025287	0.000004
H134	H	1.754795	0.358620	0.333337
H135	H	2.088128	0.691954	0.666670
H136	H	0.846050	0.289792	-0.000011
H137	H	1.179384	0.623126	0.333322
H138	H	1.512717	0.956459	0.666656
H139	H	1.578778	0.022520	0.000011
H140	H	1.912111	0.355854	0.333344
H141	H	2.245444	0.689187	0.666678
H142	H	1.118130	0.483168	-0.000018
H143	H	1.451464	0.816501	0.333315
H144	H	1.784797	1.149834	0.666648
O145	O	1.551560	-0.272543	-0.000025
O146	O	1.884893	0.060791	0.333308
O147	O	2.218227	0.394124	0.666642
H148	H	1.620815	-0.261008	-0.000036
H149	H	1.954148	0.072325	0.333297
H150	H	2.287481	0.405658	0.666631
H151	H	1.084693	-0.010972	0.412932
H152	H	1.418026	0.322362	0.746266
H153	H	1.751359	0.655695	1.079599
O154	O	0.823071	0.455957	-0.000012
O155	O	1.156405	0.789291	0.333321
O156	O	1.489738	1.122624	0.666655
H157	H	0.771189	0.404327	-0.000019
H158	H	1.104523	0.737661	0.333315
H159	H	1.437856	1.070994	0.666648
O160	O	1.099650	0.003956	0.599744
O161	O	1.432983	0.337289	0.933077
O162	O	1.766316	0.670622	1.266411
H163	H	1.138978	0.043247	0.550247
H164	H	1.472311	0.376581	0.883580
H165	H	1.805644	0.709914	1.216913
H166	H	1.385402	-0.249560	-0.000013
H167	H	1.718736	0.083773	0.333321
H168	H	2.052069	0.417107	0.666654
H169	H	1.120897	0.325851	-0.000002
H170	H	1.454231	0.659184	0.333331
H171	H	1.787564	0.992518	0.666664
H172	H	0.879503	-0.216049	0.587065
H173	H	1.212837	0.117284	0.920399
H174	H	1.546170	0.450617	1.253732
O175	O	0.864548	-0.230993	0.400236
O176	O	1.197882	0.102340	0.733570
O177	O	1.531215	0.435674	1.066903
H178	H	0.825233	-0.270303	0.449728
H179	H	1.158566	0.063030	0.783062
H180	H	1.491900	0.396363	1.116395
