data_functionalizedCrystal
_audit_creation_method	'MofGen! by Chris Wilmer'
_symmetry_space_group_name_H-M	'P1'
_symmetry_Int_Tables_number	1
_symmetry_cell_setting	triclinic
loop_
_symmetry_equiv_pos_as_xyz
  x,y,z
_cell_length_a	17.699083
_cell_length_b	17.038272
_cell_length_c	16.176319
_cell_angle_alpha	89.993159
_cell_angle_beta	89.998611
_cell_angle_gamma	87.197286
loop_
_atom_site_label
_atom_site_type_symbol
_atom_site_fract_x
_atom_site_fract_y
_atom_site_fract_z
O1	O	1.010620	0.098861	-0.068631
O2	O	1.343954	0.432194	0.264703
O3	O	1.677287	0.765528	0.598036
O4	O	0.791093	0.111723	-0.068658
O5	O	1.124426	0.445056	0.264675
O6	O	1.457760	0.778390	0.598009
O7	O	0.899552	-0.008521	-0.068638
O8	O	1.232885	0.324812	0.264695
O9	O	1.566219	0.658145	0.598029
O10	O	0.902161	0.219105	-0.068651
O11	O	1.235495	0.552439	0.264683
O12	O	1.568828	0.885772	0.598016
O13	O	0.899535	-0.008529	0.068855
O14	O	1.232869	0.324805	0.402189
O15	O	1.566202	0.658138	0.735522
O16	O	0.791077	0.111715	0.068835
O17	O	1.124410	0.445049	0.402169
O18	O	1.457743	0.778382	0.735502
O19	O	1.010604	0.098853	0.068862
O20	O	1.343937	0.432187	0.402196
O21	O	1.677271	0.765520	0.735529
Cu22	Cu	0.900839	0.105284	0.081403
Cu23	Cu	1.234172	0.438617	0.414736
Cu24	Cu	1.567505	0.771950	0.748070
Cu25	Cu	0.900858	0.105293	-0.081199
Cu26	Cu	1.234192	0.438626	0.252135
Cu27	Cu	1.567525	0.771959	0.585468
O28	O	0.902145	0.219098	0.068842
O29	O	1.235478	0.552431	0.402176
O30	O	1.568812	0.885764	0.735509
C31	C	0.762857	0.111258	0.000085
C32	C	1.096191	0.444592	0.333419
C33	C	1.429524	0.777925	0.666752
C34	C	0.678748	0.109876	0.000075
C35	C	1.012081	0.443209	0.333408
C36	C	1.345414	0.776542	0.666742
C37	C	0.634797	0.180457	0.000071
C38	C	0.968130	0.513790	0.333405
C39	C	1.301464	0.847123	0.666738
C40	C	0.555767	0.179153	0.000082
C41	C	0.889101	0.512486	0.333415
C42	C	1.222434	0.845819	0.666749
C43	C	0.520690	0.107267	0.000091
C44	C	0.854023	0.440601	0.333424
C45	C	1.187357	0.773934	0.666757
C46	C	0.564647	0.036681	0.000097
C47	C	0.897980	0.370014	0.333430
C48	C	1.231313	0.703348	0.666764
C49	C	0.643675	0.037986	0.000092
C50	C	0.977008	0.371319	0.333425
C51	C	1.310341	0.704652	0.666759
C52	C	0.245935	0.031418	0.000118
C53	C	0.579269	0.364752	0.333451
C54	C	0.912602	0.698085	0.666784
C55	C	0.166901	0.030119	0.000120
C56	C	0.500235	0.363452	0.333453
C57	C	0.833568	0.696786	0.666787
C58	C	0.158028	0.172585	0.000108
C59	C	0.491361	0.505919	0.333441
C60	C	0.824695	0.839252	0.666774
C61	C	0.237056	0.173890	0.000103
C62	C	0.570390	0.507223	0.333436
C63	C	0.903723	0.840557	0.666769
C64	C	0.281006	0.103304	0.000113
C65	C	0.614339	0.436637	0.333447
C66	C	0.947672	0.769971	0.666780
C67	C	0.366699	0.104719	0.000103
C68	C	0.700032	0.438052	0.333437
C69	C	1.033365	0.771385	0.666770
C70	C	0.434999	0.105852	0.000095
C71	C	0.768332	0.439185	0.333428
C72	C	1.101665	0.772519	0.666762
C73	C	0.897170	-0.037649	0.000108
C74	C	1.230504	0.295684	0.333442
C75	C	1.563837	0.629017	0.666775
C76	C	0.890090	-0.124431	0.000107
C77	C	1.223423	0.208903	0.333440
C78	C	1.556756	0.542236	0.666774
C79	C	0.955100	-0.174651	0.000116
C80	C	1.288433	0.158683	0.333449
C81	C	1.621767	0.492016	0.666783
C82	C	0.948442	-0.256191	0.000107
C83	C	1.281776	0.077143	0.333441
C84	C	1.615109	0.410476	0.666774
C85	C	0.876773	-0.287509	0.000096
C86	C	1.210107	0.045825	0.333429
C87	C	1.543440	0.379158	0.666762
C88	C	0.811758	-0.237282	0.000084
C89	C	1.145092	0.096051	0.333418
C90	C	1.478425	0.429385	0.666751
C91	C	0.818417	-0.155744	0.000087
C92	C	1.151750	0.177589	0.333420
C93	C	1.485083	0.510923	0.666754
C94	C	0.853251	-0.533228	0.000081
C95	C	1.186584	-0.199895	0.333415
C96	C	1.519917	0.133439	0.666748
C97	C	0.846597	-0.614773	0.000081
C98	C	1.179930	-0.281439	0.333415
C99	C	1.513264	0.051894	0.666748
C100	C	0.983282	-0.633676	0.000103
C101	C	1.316615	-0.300342	0.333436
C102	C	1.649948	0.032991	0.666769
C103	C	0.989934	-0.552135	0.000110
C104	C	1.323267	-0.218802	0.333444
C105	C	1.656600	0.114532	0.666777
C106	C	0.924919	-0.501916	0.000095
C107	C	1.258252	-0.168582	0.333428
C108	C	1.591585	0.164751	0.666761
C109	C	0.869967	-0.370855	0.000089
C110	C	1.203300	-0.037522	0.333423
C111	C	1.536633	0.295812	0.666756
C112	C	0.931726	-0.418571	0.000095
C113	C	1.265059	-0.085238	0.333428
C114	C	1.598393	0.248096	0.666762
C115	C	1.038840	0.099318	0.000117
C116	C	1.372173	0.432651	0.333451
C117	C	1.705506	0.765985	0.666784
C118	C	1.122949	0.100701	0.000122
C119	C	1.456282	0.434034	0.333455
C120	C	1.789616	0.767367	0.666789
C121	C	0.904526	0.248226	0.000094
C122	C	1.237860	0.581559	0.333428
C123	C	1.571193	0.914893	0.666761
C124	C	0.911607	0.335007	0.000090
C125	C	1.244941	0.668341	0.333423
C126	C	1.578274	1.001674	0.666757
N127	N	0.900830	0.105277	0.195768
N128	N	1.234164	0.438610	0.529102
N129	N	1.567497	0.771944	0.862435
N130	N	0.900872	0.105293	-0.195564
N131	N	1.234205	0.438627	0.137770
N132	N	1.567539	0.771960	0.471103
C133	C	0.948873	0.052054	0.239041
C134	C	1.282206	0.385388	0.572375
C135	C	1.615540	0.718721	0.905708
C136	C	0.948877	0.052054	0.325588
C137	C	1.282210	0.385387	0.658922
C138	C	1.615543	0.718720	0.992255
C139	C	0.900841	0.105280	0.368861
C140	C	1.234175	0.438613	0.702194
C141	C	1.567508	0.771946	1.035527
C142	C	0.852793	0.158505	0.325582
C143	C	1.186127	0.491838	0.658915
C144	C	1.519460	0.825171	0.992248
C145	C	0.852786	0.158501	0.239036
C146	C	1.186120	0.491834	0.572370
C147	C	1.519453	0.825168	0.905703
C148	C	0.852820	0.158519	0.674610
C149	C	1.186154	0.491853	1.007943
C150	C	1.519487	0.825186	1.341277
C151	C	0.852833	0.158520	0.761162
C152	C	1.186166	0.491854	1.094495
C153	C	1.519499	0.825187	1.427828
C154	C	0.948911	0.052072	0.761162
C155	C	1.282244	0.385405	1.094495
C156	C	1.615577	0.718738	1.427829
C157	C	0.948904	0.052068	0.674617
C158	C	1.282237	0.385402	1.007950
C159	C	1.615570	0.718735	1.341283
C160	C	0.900853	0.105290	0.631345
C161	C	1.234187	0.438623	0.964678
C162	C	1.567520	0.771957	1.298012
C163	C	0.900849	0.105289	0.537501
C164	C	1.234182	0.438623	0.870834
C165	C	1.567515	0.771956	1.204168
C166	C	0.900849	0.105285	0.462703
C167	C	1.234183	0.438618	0.796037
C168	C	1.567516	0.771951	1.129370
H169	H	1.013460	-0.149159	0.000131
H170	H	1.346794	0.184175	0.333464
H171	H	1.680127	0.517508	0.666797
H172	H	0.788233	-0.640268	0.000085
H173	H	1.121566	-0.306935	0.333418
H174	H	1.454900	0.026399	0.666752
H175	H	0.813714	0.201865	0.796393
H176	H	1.147047	0.535198	1.129726
H177	H	1.480380	0.868531	1.463059
N178	N	0.526808	-0.040849	0.000105
N179	N	0.860141	0.292484	0.333439
N180	N	1.193475	0.625818	0.666772
H181	H	0.542501	-0.071764	-0.050861
H182	H	0.875834	0.261570	0.282472
H183	H	1.209167	0.594903	0.615806
H184	H	0.542512	-0.071705	0.051110
H185	H	0.875845	0.261628	0.384443
H186	H	1.209179	0.594962	0.717777
H187	H	0.813698	0.201856	0.639385
H188	H	1.147031	0.535189	0.972718
H189	H	1.480364	0.868522	1.306052
H190	H	0.813678	0.201840	0.360819
H191	H	1.147011	0.535173	0.694153
H192	H	1.480345	0.868506	1.027486
N193	N	0.691080	-0.038142	0.000089
N194	N	1.024413	0.295191	0.333422
N195	N	1.357747	0.628525	0.666756
H196	H	0.746466	-0.026408	0.000087
H197	H	1.079799	0.306925	0.333421
H198	H	1.413133	0.640258	0.666754
H199	H	0.679205	-0.069478	0.051063
H200	H	1.012538	0.263855	0.384396
H201	H	1.345871	0.597189	0.717730
H202	H	0.800310	-0.492349	0.000069
H203	H	1.133643	-0.159015	0.333402
H204	H	1.466977	0.174318	0.666736
N205	N	0.672628	0.257991	0.000052
N206	N	1.005961	0.591324	0.333386
N207	N	1.339295	0.924658	0.666719
H208	H	0.632790	0.302505	0.000052
H209	H	0.966124	0.635838	0.333386
H210	H	1.299457	0.969172	0.666719
H211	H	0.705227	0.261636	0.051019
H212	H	1.038560	0.594969	0.384352
H213	H	1.371894	0.928302	0.717686
H214	H	0.753404	-0.262788	0.000070
H215	H	1.086737	0.070546	0.333403
H216	H	1.420071	0.403879	0.666736
H217	H	0.813664	0.201839	0.203804
H218	H	1.146998	0.535172	0.537137
H219	H	1.480331	0.868506	0.870471
H220	H	1.001381	-0.297077	0.000116
H221	H	1.334714	0.036256	0.333450
H222	H	1.668047	0.369590	0.666783
N223	N	0.293323	-0.044716	0.000130
N224	N	0.626656	0.288618	0.333463
N225	N	0.959990	0.621951	0.666796
H226	H	0.281507	-0.076082	-0.050836
H227	H	0.614841	0.257251	0.282497
H228	H	0.948174	0.590585	0.615830
H229	H	0.348694	-0.032929	0.000162
H230	H	0.682028	0.300404	0.333495
H231	H	1.015361	0.633737	0.666828
N232	N	0.129065	-0.047418	0.000130
N233	N	0.462398	0.285916	0.333464
N234	N	0.795732	0.619249	0.666797
H235	H	0.168898	-0.091936	0.000139
H236	H	0.502231	0.241397	0.333472
H237	H	0.835565	0.574730	0.666805
H238	H	0.096468	-0.051057	0.051102
H239	H	0.429801	0.282276	0.384435
H240	H	0.763135	0.615610	0.717768
H241	H	0.765478	-0.114855	0.000080
H242	H	1.098811	0.218478	0.333413
H243	H	1.432145	0.551812	0.666746
N244	N	1.067235	-0.518361	0.000095
N245	N	1.400568	-0.185027	0.333428
N246	N	1.733902	0.148306	0.666761
H247	H	1.061588	-0.459086	0.000091
H248	H	1.394921	-0.125753	0.333424
H249	H	1.728254	0.207581	0.666757
H250	H	1.095921	-0.536742	0.051062
H251	H	1.429254	-0.203409	0.384396
H252	H	1.762587	0.129924	0.717729
H253	H	1.036213	-0.674572	0.000114
H254	H	1.369546	-0.341239	0.333447
H255	H	1.702880	-0.007906	0.666781
H256	H	0.990079	-0.393068	0.000086
H257	H	1.323412	-0.059735	0.333420
H258	H	1.656745	0.273598	0.666753
N259	N	0.792666	-0.404631	0.000084
N260	N	1.126000	-0.071298	0.333418
N261	N	1.459333	0.262036	0.666751
H262	H	0.786864	-0.438034	-0.050886
H263	H	1.120198	-0.104700	0.282447
H264	H	1.453531	0.228633	0.615781
H265	H	0.786906	-0.438009	0.051085
H266	H	1.120239	-0.104676	0.384419
H267	H	1.453572	0.228657	0.717752
N268	N	1.000688	-0.005350	0.192372
N269	N	1.334021	0.327984	0.525705
N270	N	1.667355	0.661317	0.859038
H271	H	1.031122	-0.039066	0.232921
H272	H	1.364455	0.294267	0.566254
H273	H	1.697789	0.627600	0.899588
H274	H	0.969491	-0.039875	0.156472
H275	H	1.302824	0.293458	0.489806
H276	H	1.636158	0.626791	0.823139
N277	N	1.000738	-0.005336	0.807833
N278	N	1.334071	0.327998	1.141167
N279	N	1.667404	0.661331	1.474500
H280	H	0.993454	0.002738	0.869226
H281	H	1.326788	0.336071	1.202559
H282	H	1.660121	0.669405	1.535892
H283	H	0.988430	-0.060785	0.792714
H284	H	1.321764	0.272549	1.126047
H285	H	1.655097	0.605882	1.459380
H286	H	0.987996	0.008715	0.360821
H287	H	1.321329	0.342049	0.694154
H288	H	1.654663	0.675382	1.027488
H289	H	0.519986	0.236627	0.000078
H290	H	0.853319	0.569960	0.333411
H291	H	1.186653	0.903294	0.666745
H292	H	0.265612	0.232426	0.000092
H293	H	0.598945	0.565760	0.333425
H294	H	0.932279	0.899093	0.666759
H295	H	0.988021	0.008729	0.639387
H296	H	1.321354	0.342063	0.972720
H297	H	1.654688	0.675396	1.306053
N298	N	0.110625	0.248721	0.000099
N299	N	0.443959	0.582054	0.333432
N300	N	0.777292	0.915387	0.666765
H301	H	0.055238	0.236991	0.000106
H302	H	0.388572	0.570324	0.333439
H303	H	0.721905	0.903657	0.666773
H304	H	0.122505	0.280056	0.051063
H305	H	0.455838	0.613389	0.384397
H306	H	0.789171	0.946723	0.717730
