data_functionalizedCrystal
_audit_creation_method	'MofGen! by Chris Wilmer'
_symmetry_space_group_name_H-M	'P1'
_symmetry_Int_Tables_number	1
_symmetry_cell_setting	triclinic
loop_
_symmetry_equiv_pos_as_xyz
  x,y,z
_cell_length_a	27.732048
_cell_length_b	17.699083
_cell_length_c	16.176319
_cell_angle_alpha	90.001389
_cell_angle_beta	89.988239
_cell_angle_gamma	97.037165
loop_
_atom_site_label
_atom_site_type_symbol
_atom_site_fract_x
_atom_site_fract_y
_atom_site_fract_z
O1	O	0.061127	-1.003540	-0.068640
O2	O	0.561127	-0.503540	0.431360
O3	O	0.069080	-0.783091	-0.068668
O4	O	0.569080	-0.283091	0.431332
O5	O	-0.005269	-0.900162	-0.068637
O6	O	0.494731	-0.400162	0.431363
O7	O	0.135475	-0.886469	-0.068670
O8	O	0.635475	-0.386469	0.431330
O9	O	-0.005273	-0.900146	0.068856
O10	O	0.494727	-0.400146	0.568856
O11	O	0.069075	-0.783075	0.068825
O12	O	0.569075	-0.283075	0.568825
O13	O	0.061122	-1.003524	0.068853
O14	O	0.561122	-0.503524	0.568853
Cu15	Cu	0.065098	-0.893298	0.081394
Cu16	Cu	0.565098	-0.393298	0.581394
Cu17	Cu	0.065104	-0.893317	-0.081208
Cu18	Cu	0.565104	-0.393317	0.418792
O19	O	0.135471	-0.886453	0.068823
O20	O	0.635471	-0.386453	0.568823
C21	C	0.068792	-0.754889	0.000075
C22	C	0.568792	-0.254889	0.500075
C23	C	0.067938	-0.670878	0.000065
C24	C	0.567938	-0.170878	0.500065
C25	C	-0.023279	-0.899867	0.000112
C26	C	0.476721	-0.399867	0.500112
C27	C	-0.076937	-0.899001	0.000118
C28	C	0.423063	-0.399001	0.500118
C29	C	0.061410	-1.031726	0.000108
C30	C	0.561410	-0.531726	0.500108
C31	C	0.062264	-1.115737	0.000113
C32	C	0.562264	-0.615737	0.500113
C33	C	-0.415523	-0.962734	0.000084
C34	C	0.084477	-0.462734	0.500084
C35	C	-0.617194	-0.959522	0.000072
C36	C	-0.117194	-0.459522	0.500072
O37	O	-0.648240	-1.017801	0.000043
O38	O	-0.148240	-0.517801	0.500043
N39	N	-0.636567	-0.890104	0.000064
N40	N	-0.136567	-0.390104	0.500064
C41	C	-0.605520	-0.821484	0.000053
C42	C	-0.105520	-0.321484	0.500053
O43	O	-0.626625	-0.762366	0.000038
O44	O	-0.126625	-0.262366	0.500038
C45	C	-0.403849	-0.824696	0.000059
C46	C	0.096151	-0.324696	0.500059
C47	C	-0.384479	-0.894119	0.000076
C48	C	0.115521	-0.394119	0.500076
C49	C	-0.396152	-1.032151	0.000100
C50	C	0.103848	-0.532151	0.500100
C51	C	-0.345737	-1.032953	0.000107
C52	C	0.154263	-0.532953	0.500107
C53	C	-0.314693	-0.964338	0.000099
C54	C	0.185307	-0.464338	0.500099
C55	C	-0.334064	-0.894921	0.000083
C56	C	0.165936	-0.394921	0.500083
C57	C	-0.372802	-0.756076	0.000043
C58	C	0.127198	-0.256076	0.500043
C59	C	-0.322382	-0.756886	0.000042
C60	C	0.177618	-0.256886	0.500042
C61	C	-0.303012	-0.826308	0.000059
C62	C	0.196988	-0.326308	0.500059
C63	C	-0.252605	-0.827108	0.000083
C64	C	0.247395	-0.327108	0.500083
N65	N	-0.233232	-0.896526	0.000091
N66	N	0.266768	-0.396526	0.500091
C67	C	-0.264276	-0.965141	0.000099
C68	C	0.235724	-0.465141	0.500099
C69	C	-0.711400	-0.819802	0.000052
C70	C	-0.211400	-0.319802	0.500052
C71	C	-0.761817	-0.818999	0.000052
C72	C	-0.261817	-0.318999	0.500052
C73	C	-0.773488	-0.957038	0.000069
C74	C	-0.273488	-0.457038	0.500069
C75	C	-0.723070	-0.957840	0.000075
C76	C	-0.223070	-0.457840	0.500075
C77	C	-0.692026	-0.889220	0.000060
C78	C	-0.192026	-0.389220	0.500060
C79	C	-0.158401	-0.966820	0.000115
C80	C	0.341599	-0.466820	0.500115
C81	C	-0.107981	-0.967616	0.000126
C82	C	0.392019	-0.467616	0.500126
C83	C	-0.096314	-0.829578	0.000105
C84	C	0.403686	-0.329578	0.500105
C85	C	-0.146730	-0.828781	0.000098
C86	C	0.353270	-0.328781	0.500098
C87	C	-0.177772	-0.897409	0.000101
C88	C	0.322228	-0.397409	0.500101
O89	O	-0.221531	-0.768860	0.000102
O90	O	0.278469	-0.268860	0.500102
O91	O	-0.243161	-1.024251	0.000096
O92	O	0.256839	-0.524251	0.500096
C93	C	-0.465938	-0.961931	0.000077
C94	C	0.034062	-0.461931	0.500077
C95	C	-0.485309	-0.892514	0.000061
C96	C	0.014691	-0.392514	0.500061
C97	C	-0.454265	-0.823899	0.000053
C98	C	0.045735	-0.323899	0.500053
C99	C	-0.535726	-0.891711	0.000061
C100	C	-0.035726	-0.391711	0.500061
C101	C	-0.566770	-0.960326	0.000069
C102	C	-0.066770	-0.460326	0.500069
C103	C	-0.547397	-1.029744	0.000077
C104	C	-0.047397	-0.529744	0.500077
C105	C	-0.496982	-1.030546	0.000085
C106	C	0.003018	-0.530546	0.500085
C107	C	-0.473638	-0.754481	0.000045
C108	C	0.026362	-0.254481	0.500045
C109	C	-0.524053	-0.753685	0.000038
C110	C	-0.024053	-0.253685	0.500038
C111	C	-0.555097	-0.822300	0.000046
C112	C	-0.055097	-0.322300	0.500046
C113	C	0.153481	-0.886748	0.000072
C114	C	0.653481	-0.386748	0.500072
C115	C	0.207139	-0.887614	0.000060
C116	C	0.707139	-0.387614	0.500060
N117	N	0.065094	-0.893290	0.195759
N118	N	0.565094	-0.393290	0.695759
C119	C	0.111579	-0.621873	0.000055
C120	C	0.611579	-0.121873	0.500055
C121	C	0.110772	-0.542936	0.000066
C122	C	0.610772	-0.042936	0.500066
C123	C	0.066325	-0.513007	0.000081
C124	C	0.566325	-0.013007	0.500081
C125	C	0.022680	-0.562019	0.000094
C126	C	0.522680	-0.062019	0.500094
C127	C	0.023487	-0.640954	0.000089
C128	C	0.523487	-0.140954	0.500089
C129	C	0.019426	-0.243685	0.000115
C130	C	0.519426	0.256315	0.500115
C131	C	0.018623	-0.164744	0.000117
C132	C	0.518623	0.335256	0.500117
C133	C	0.106712	-0.145667	0.000092
C134	C	0.606712	0.354333	0.500092
C135	C	0.107518	-0.224602	0.000087
C136	C	0.607518	0.275398	0.500087
C137	C	0.063874	-0.273607	0.000104
C138	C	0.563874	0.226393	0.500104
C139	C	0.064749	-0.359199	0.000094
C140	C	0.564749	0.140801	0.500094
C141	C	0.065450	-0.427418	0.000085
C142	C	0.565450	0.072582	0.500085
N143	N	0.065104	-0.893331	-0.195573
N144	N	0.565104	-0.393331	0.304427
C145	C	0.032186	-0.945145	0.239037
C146	C	0.532186	-0.445145	0.739037
C147	C	0.032185	-0.945149	0.325584
C148	C	0.532185	-0.445149	0.825584
C149	C	0.065096	-0.893301	0.368851
C150	C	0.565096	-0.393301	0.868851
C151	C	0.098005	-0.841441	0.325568
C152	C	0.598005	-0.341441	0.825568
C153	C	0.098003	-0.841434	0.239022
C154	C	0.598003	-0.341434	0.739022
C155	C	0.098014	-0.841467	0.674596
C156	C	0.598014	-0.341467	1.174596
C157	C	0.098015	-0.841479	0.761147
C158	C	0.598015	-0.341479	1.261147
C159	C	0.032197	-0.945181	0.761157
C160	C	0.532197	-0.445181	1.261157
C161	C	0.032194	-0.945174	0.674612
C162	C	0.532194	-0.445174	1.174612
C163	C	0.065102	-0.893312	0.631336
C164	C	0.565102	-0.393312	1.131336
C165	C	0.065102	-0.893308	0.537491
C166	C	0.565102	-0.393308	1.037491
C167	C	0.065099	-0.893309	0.462694
C168	C	0.565099	-0.393309	0.962694
H169	H	-0.092213	-1.024151	0.000142
H170	H	0.407787	-0.524151	0.500142
H171	H	-0.777584	-0.762468	0.000053
H172	H	-0.277584	-0.262468	0.500053
F173	F	-0.028687	-0.132894	0.000133
F174	F	0.471313	0.367106	0.500133
F175	F	-0.580445	-1.102769	0.000090
F176	F	-0.080445	-0.602769	0.500090
F177	F	0.133029	-0.786257	0.371617
F178	F	0.633029	-0.286257	0.871617
H179	H	0.124800	-0.799209	0.203786
H180	H	0.624800	-0.299209	0.703786
H181	H	-0.297108	-0.701006	0.000029
H182	H	0.202892	-0.201006	0.500029
H183	H	-0.388565	-0.699545	0.000024
H184	H	0.111435	-0.199545	0.500024
F185	F	0.158887	-0.653718	0.000034
F186	F	0.658887	-0.153718	0.500034
H187	H	-0.183670	-1.022703	0.000114
H188	H	0.316330	-0.522703	0.500114
H189	H	0.146309	-0.503039	0.000057
H190	H	0.646309	-0.003039	0.500057
F191	F	0.154825	-0.256450	0.000066
F192	F	0.654825	0.243550	0.500066
F193	F	-0.167346	-0.754895	0.000096
F194	F	0.332654	-0.254895	0.500096
F195	F	0.133038	-0.786274	0.628545
F196	F	0.633038	-0.286274	1.128545
F197	F	-0.027024	-0.295830	0.000133
F198	F	0.472976	0.204170	0.500133
F199	F	0.153162	-0.093506	0.000077
F200	F	0.653162	0.406494	0.500077
H201	H	-0.013510	-0.537645	0.000118
H202	H	0.486490	-0.037645	0.500118
H203	H	-0.012050	-0.680855	0.000096
H204	H	0.487950	-0.180855	0.500096
F205	F	-0.002831	-1.000360	0.628567
F206	F	0.497169	-0.500360	1.128567
H207	H	0.005389	-0.987368	0.203814
H208	H	0.505389	-0.487368	0.703814
F209	F	-0.002840	-1.000337	0.371643
F210	F	0.497160	-0.500337	0.871643
H211	H	0.005400	-0.987408	0.796402
H212	H	0.505400	-0.487408	1.296402
H213	H	-0.329971	-1.089484	0.000117
H214	H	0.170029	-0.589484	0.500117
F215	F	-0.702459	-1.031728	0.000092
F216	F	-0.202459	-0.531728	0.500092
F217	F	-0.429185	-1.105187	0.000108
F218	F	0.070815	-0.605187	0.500108
F219	F	-0.678366	-0.746762	0.000036
F220	F	-0.178366	-0.246762	0.500036
F221	F	-0.806536	-1.030063	0.000076
F222	F	-0.306536	-0.530063	0.500076
F223	F	-0.063267	-0.756557	0.000097
F224	F	0.436733	-0.256557	0.500097
H225	H	0.124815	-0.799256	0.796374
H226	H	0.624815	-0.299256	1.296374
H227	H	-0.481215	-1.087078	0.000098
H228	H	0.018785	-0.587078	0.500098
F229	F	-0.544663	-0.679790	0.000026
F230	F	-0.044663	-0.179790	0.500026
H231	H	-0.448366	-0.698605	0.000036
H232	H	0.051634	-0.198605	0.500036
