data_functionalizedCrystal
_audit_creation_method	'MofGen! by Chris Wilmer'
_symmetry_space_group_name_H-M	'P1'
_symmetry_Int_Tables_number	1
_symmetry_cell_setting	triclinic
loop_
_symmetry_equiv_pos_as_xyz
  x,y,z
_cell_length_a	19.121321
_cell_length_b	29.839131
_cell_length_c	19.120904
_cell_angle_alpha	92.409150
_cell_angle_beta	94.963752
_cell_angle_gamma	87.606090
loop_
_atom_site_label
_atom_site_type_symbol
_atom_site_fract_x
_atom_site_fract_y
_atom_site_fract_z
Zn1	Zn	1.058552	-0.217304	-0.351905
Zn2	Zn	1.063457	-0.289355	-0.234242
Zn3	Zn	0.945919	-0.211175	-0.239280
Zn4	Zn	0.940828	-0.289336	-0.356886
O5	O	1.002189	-0.251792	-0.295578
O6	O	1.157661	-0.229434	-0.332104
O7	O	1.052049	-0.276426	-0.136450
O8	O	0.960938	-0.149123	-0.254244
O9	O	1.161265	-0.282370	-0.245658
O10	O	1.043689	-0.153626	-0.336989
O11	O	0.965694	-0.218988	-0.140151
O12	O	0.846786	-0.218970	-0.259074
O13	O	0.952261	-0.282339	-0.454686
O14	O	0.843046	-0.276395	-0.345478
O15	O	1.038752	-0.229417	-0.451027
O16	O	1.047113	-0.352217	-0.250488
O17	O	0.957018	-0.352203	-0.340593
C18	C	0.819387	-0.247016	-0.303363
C19	C	0.741182	-0.244984	-0.306711
C20	C	1.002064	-0.368511	-0.295549
C21	C	1.002073	-0.418446	-0.295557
C22	C	0.298778	-0.232076	-0.327936
C23	C	0.372260	-0.233994	-0.324787
C24	C	0.410871	-0.262464	-0.278131
C25	C	0.375997	-0.289022	-0.234627
C26	C	0.302517	-0.287106	-0.237780
C27	C	0.632828	-0.269626	-0.266359
C28	C	0.706313	-0.271539	-0.263208
C29	C	0.702571	-0.216511	-0.353369
C30	C	0.629090	-0.214596	-0.356515
C31	C	0.594222	-0.241156	-0.313013
C32	C	0.485981	-0.264424	-0.274910
C33	C	0.519113	-0.239198	-0.316239
C34	C	1.049181	-0.728091	-0.248723
C35	C	1.049266	-0.915767	-0.248746
O36	O	1.089219	-0.940030	-0.208903
N37	N	1.002333	-0.939240	-0.295625
C38	C	0.955378	-0.915791	-0.342505
O39	O	0.915465	-0.940062	-0.382384
C40	C	0.955296	-0.728116	-0.342484
C41	C	1.002228	-0.704645	-0.295597
C42	C	1.096109	-0.704620	-0.201840
C43	C	1.096085	-0.657704	-0.201832
C44	C	1.049132	-0.634258	-0.248707
C45	C	1.002203	-0.657729	-0.295589
C46	C	0.908345	-0.704668	-0.389367
C47	C	0.908330	-0.657746	-0.389358
C48	C	0.955261	-0.634275	-0.342472
C49	C	0.955226	-0.587367	-0.342456
N50	N	1.002159	-0.563894	-0.295577
C51	C	1.049112	-0.587340	-0.248702
C52	C	0.955423	-1.014323	-0.342512
C53	C	0.955442	-1.061241	-0.342516
C54	C	1.049332	-1.061214	-0.248758
C55	C	1.049309	-1.014295	-0.248751
C56	C	1.002357	-0.990850	-0.295632
C57	C	1.049057	-0.488812	-0.248688
C58	C	1.049026	-0.441892	-0.248683
C59	C	0.955139	-0.441923	-0.342443
C60	C	0.955167	-0.488839	-0.342446
C61	C	1.002132	-0.512283	-0.295567
O62	O	0.915299	-0.563075	-0.382283
O63	O	1.089030	-0.563061	-0.208840
C64	C	1.049205	-0.775007	-0.248731
C65	C	1.002277	-0.798478	-0.295613
C66	C	0.955324	-0.775032	-0.342488
C67	C	1.002296	-0.845396	-0.295618
C68	C	1.049249	-0.868842	-0.248743
C69	C	1.096183	-0.845369	-0.201864
C70	C	1.096158	-0.798453	-0.201856
C71	C	0.908390	-0.798505	-0.389367
C72	C	0.908418	-0.845421	-0.389371
C73	C	0.955371	-0.868867	-0.342496
C74	C	1.185706	-0.256588	-0.287763
C75	C	1.263909	-0.258631	-0.284433
C76	C	0.994392	-0.256559	-0.479100
C77	C	0.991069	-0.258591	-0.557306
C78	C	1.002334	-0.134619	-0.295623
C79	C	1.002395	-0.084687	-0.295641
C80	C	1.034537	-0.231993	-0.592143
C81	C	1.031406	-0.233899	-0.665627
C82	C	0.984811	-0.262407	-0.704271
C83	C	0.941338	-0.289006	-0.669429
C84	C	0.944466	-0.287096	-0.595947
C85	C	0.973111	-0.269548	-0.926234
C86	C	0.969988	-0.271456	-0.999720
C87	C	1.060056	-0.216349	-0.995913
C88	C	1.063182	-0.214444	-0.922430
C89	C	1.019707	-0.241042	-0.887594
C90	C	0.981611	-0.264357	-0.779383
C91	C	1.022904	-0.239088	-0.812484
C92	C	1.009997	-0.247013	-0.112769
C93	C	1.013456	-0.244858	-0.034558
H94	H	0.267346	-0.208890	-0.365923
H95	H	0.932042	-0.294672	-1.031183
H96	H	0.730968	-0.194889	-0.388786
Br97	Br	0.538388	-0.303061	-0.211593
Br98	Br	1.097782	-0.193306	-0.539704
Br99	Br	0.419579	-0.197958	-0.383834
H100	H	0.916909	-0.422826	-0.380606
H101	H	0.870096	-0.638660	-0.427538
H102	H	0.870156	-0.779419	-0.427539
H103	H	1.066804	-0.212241	-0.693988
Br104	Br	1.126424	-0.175756	-0.869989
H105	H	0.917187	-0.995237	-0.380689
Br106	Br	1.086129	-0.200395	-0.760038
H107	H	1.134302	-0.638597	-0.163655
H108	H	0.943676	-0.287570	-0.810855
H109	H	1.087563	-1.080312	-0.210591
H110	H	0.903396	-0.312215	-0.700899
Br111	Br	0.844717	-0.877268	-0.453007
Br112	Br	1.119053	-0.180254	-1.043194
H113	H	1.087301	-0.507895	-0.210516
Br114	Br	0.914107	-0.305644	-0.878966
H115	H	0.917220	-1.080346	-0.380690
H116	H	0.737749	-0.294724	-0.225215
H117	H	0.597657	-0.191415	-0.394509
Br118	Br	0.428397	-0.327664	-0.171313
H119	H	1.134375	-0.779347	-0.163677
Br120	Br	1.112722	-0.410041	-0.185045
Br121	Br	0.255193	-0.323152	-0.178747
Br122	Br	1.159841	-0.736431	-0.138217
Br123	Br	0.885467	-0.323192	-0.548667
H124	H	0.604447	-0.291252	-0.230935
H125	H	0.487672	-0.216019	-0.354228
H126	H	1.087525	-0.995188	-0.210572
Br127	Br	0.844655	-0.736509	-0.453010
Br128	Br	1.159901	-0.877198	-0.138246
H129	H	0.916954	-0.507950	-0.380628
