data_functionalizedCrystal
_audit_creation_method	'MofGen! by Chris Wilmer'
_symmetry_space_group_name_H-M	'P1'
_symmetry_Int_Tables_number	1
_symmetry_cell_setting	triclinic
loop_
_symmetry_equiv_pos_as_xyz
  x,y,z
_cell_length_a	21.295418
_cell_length_b	29.839131
_cell_length_c	21.295411
_cell_angle_alpha	89.979636
_cell_angle_beta	89.956262
_cell_angle_gamma	90.057233
loop_
_atom_site_label
_atom_site_type_symbol
_atom_site_fract_x
_atom_site_fract_y
_atom_site_fract_z
Zn1	Zn	0.962308	-0.178715	-0.356239
Zn2	Zn	1.295641	0.154618	-0.022906
Zn3	Zn	1.628975	0.487952	0.310427
Zn4	Zn	0.962190	-0.253830	-0.250967
Zn5	Zn	1.295524	0.079503	0.082366
Zn6	Zn	1.628857	0.412836	0.415700
Zn7	Zn	0.857031	-0.178736	-0.250949
Zn8	Zn	1.190365	0.154597	0.082384
Zn9	Zn	1.523698	0.487931	0.415718
Zn10	Zn	0.856981	-0.253839	-0.356163
Zn11	Zn	1.190314	0.079494	-0.022830
Zn12	Zn	1.523647	0.412827	0.310503
O13	O	0.909628	-0.216280	-0.303580
O14	O	1.242961	0.117053	0.029754
O15	O	1.576294	0.450386	0.363087
O16	O	1.050382	-0.188667	-0.342314
O17	O	1.383715	0.144667	-0.008980
O18	O	1.717049	0.478000	0.324353
O19	O	0.948213	-0.243874	-0.162875
O20	O	1.281546	0.089459	0.170458
O21	O	1.614880	0.422793	0.503792
O22	O	0.871067	-0.115866	-0.264940
O23	O	1.204400	0.217467	0.068393
O24	O	1.537734	0.550801	0.401727
O25	O	1.050295	-0.243854	-0.264971
O26	O	1.383629	0.089480	0.068363
O27	O	1.716962	0.422813	0.401696
O28	O	0.948413	-0.115851	-0.342296
O29	O	1.281747	0.217483	-0.008963
O30	O	1.615080	0.550816	0.324370
O31	O	0.870953	-0.188703	-0.162862
O32	O	1.204286	0.144631	0.170471
O33	O	1.537619	0.477964	0.503805
O34	O	0.768935	-0.188711	-0.264867
O35	O	1.102268	0.144622	0.068467
O36	O	1.435602	0.477956	0.401800
O37	O	0.870981	-0.243869	-0.444263
O38	O	1.204314	0.089464	-0.110930
O39	O	1.537647	0.422798	0.222404
O40	O	0.768898	-0.243889	-0.342167
O41	O	1.102231	0.089444	-0.008834
O42	O	1.435565	0.422777	0.324499
O43	O	0.948364	-0.188675	-0.444319
O44	O	1.281698	0.144658	-0.110985
O45	O	1.615031	0.477991	0.222348
O46	O	0.948164	-0.316699	-0.264897
O47	O	1.281497	0.016635	0.068436
O48	O	1.614830	0.349968	0.401769
O49	O	0.870866	-0.316705	-0.342185
O50	O	1.204200	0.016628	-0.008851
O51	O	1.537533	0.349961	0.324482
C52	C	0.746076	-0.216304	-0.303507
C53	C	1.079409	0.117030	0.029826
C54	C	1.412743	0.450363	0.363160
C55	C	0.676108	-0.216325	-0.303491
C56	C	1.009441	0.117009	0.029842
C57	C	1.342774	0.450342	0.363176
C58	C	0.643238	-0.245094	-0.343681
C59	C	0.976572	0.088239	-0.010348
C60	C	1.309905	0.421573	0.322985
C61	C	0.577496	-0.245083	-0.343710
C62	C	0.910829	0.088250	-0.010376
C63	C	1.244162	0.421584	0.322957
C64	C	0.544625	-0.216307	-0.303536
C65	C	0.877959	0.117026	0.029797
C66	C	1.211292	0.450359	0.363130
C67	C	0.577503	-0.187532	-0.263343
C68	C	0.910836	0.145801	0.069990
C69	C	1.244169	0.479134	0.403323
C70	C	0.643244	-0.187541	-0.263321
C71	C	0.976577	0.145792	0.070013
C72	C	1.309911	0.479126	0.403346
N73	N	0.441350	-0.212791	-0.248479
N74	N	0.774684	0.120542	0.084855
N75	N	1.108017	0.453876	0.418188
N76	N	0.378899	-0.212785	-0.248502
N77	N	0.712232	0.120548	0.084831
N78	N	1.045566	0.453881	0.418165
C79	C	0.346551	-0.216279	-0.303603
C80	C	0.679884	0.117055	0.029730
C81	C	1.013217	0.450388	0.363064
N82	N	0.379013	-0.219787	-0.358681
N83	N	0.712347	0.113547	-0.025348
N84	N	1.045680	0.446880	0.307985
N85	N	0.441470	-0.219795	-0.358657
N86	N	0.774804	0.113539	-0.025324
N87	N	1.108137	0.446872	0.308009
C88	C	0.473340	-0.216294	-0.303557
C89	C	0.806673	0.117039	0.029777
C90	C	1.140007	0.450372	0.363110
C91	C	0.242396	-0.245037	-0.343827
C92	C	0.575729	0.088296	-0.010494
C93	C	0.909062	0.421629	0.322839
C94	C	0.176652	-0.245023	-0.343857
C95	C	0.509985	0.088310	-0.010523
C96	C	0.843319	0.421643	0.322810
C97	C	0.176660	-0.187475	-0.263485
C98	C	0.509994	0.145858	0.069848
C99	C	0.843327	0.479192	0.403182
C100	C	0.242403	-0.187487	-0.263461
C101	C	0.575736	0.145846	0.069872
C102	C	0.909069	0.479180	0.403206
C103	C	0.275266	-0.216271	-0.303632
C104	C	0.608600	0.117063	0.029702
C105	C	0.941933	0.450396	0.363035
C106	C	0.909514	-0.333003	-0.303548
C107	C	1.242847	0.000331	0.029785
C108	C	1.576181	0.333664	0.363118
C109	C	0.909523	-0.382937	-0.303556
C110	C	1.242856	-0.049604	0.029777
C111	C	1.576190	0.283729	0.363111
C112	C	0.949949	-0.692564	-0.263395
C113	C	1.283283	-0.359231	0.069938
C114	C	1.616616	-0.025898	0.403272
C115	C	0.950027	-0.880238	-0.263419
C116	C	1.283361	-0.546904	0.069914
C117	C	1.616694	-0.213571	0.403247
O118	O	0.984309	-0.904489	-0.229249
O119	O	1.317642	-0.571155	0.104084
O120	O	1.650976	-0.237822	0.437418
N121	N	0.909758	-0.903722	-0.303627
N122	N	1.243091	-0.570389	0.029706
N123	N	1.576425	-0.237056	0.363040
C124	C	0.869470	-0.880286	-0.343835
C125	C	1.202803	-0.546952	-0.010501
C126	C	1.536136	-0.213619	0.322832
O127	O	0.835225	-0.904567	-0.378039
O128	O	1.168558	-0.571234	-0.044706
O129	O	1.501891	-0.237900	0.288628
C130	C	0.869396	-0.692614	-0.343813
C131	C	1.202729	-0.359280	-0.010479
C132	C	1.536062	-0.025947	0.322854
C133	C	0.909663	-0.669131	-0.303598
C134	C	1.242996	-0.335798	0.029735
C135	C	1.576330	-0.002465	0.363069
C136	C	0.990214	-0.669082	-0.223184
C137	C	1.323547	-0.335749	0.110150
C138	C	1.656881	-0.002416	0.443483
C139	C	0.990192	-0.622167	-0.223176
C140	C	1.323525	-0.288833	0.110158
C141	C	1.656858	0.044500	0.443491
C142	C	0.949905	-0.598734	-0.263379
C143	C	1.283238	-0.265400	0.069955
C144	C	1.616572	0.067933	0.403288
C145	C	0.909641	-0.622216	-0.303590
C146	C	1.242974	-0.288883	0.029744
C147	C	1.576307	0.044451	0.363077
C148	C	0.829111	-0.669178	-0.384023
C149	C	1.162444	-0.335845	-0.050690
C150	C	1.495778	-0.002511	0.282644
C151	C	0.829097	-0.622257	-0.384015
C152	C	1.162430	-0.288924	-0.050682
C153	C	1.495764	0.044410	0.282652
C154	C	0.869364	-0.598775	-0.343800
C155	C	1.202698	-0.265441	-0.010467
C156	C	1.536031	0.067892	0.322867
C157	C	0.869332	-0.551867	-0.343785
C158	C	1.202665	-0.218534	-0.010451
C159	C	1.535998	0.114799	0.322882
N160	N	0.909601	-0.528383	-0.303577
N161	N	1.242934	-0.195049	0.029756
N162	N	1.576267	0.138284	0.363090
C163	C	0.949887	-0.551816	-0.263374
C164	C	1.283221	-0.218482	0.069959
C165	C	1.616554	0.114851	0.403293
C166	C	0.869511	-0.978816	-0.343842
C167	C	1.202844	-0.645483	-0.010509
C168	C	1.536177	-0.312150	0.322824
C169	C	0.869528	-1.025734	-0.343847
C170	C	1.202862	-0.692401	-0.010514
C171	C	1.536195	-0.359067	0.322820
C172	C	0.950087	-1.025683	-0.263432
C173	C	1.283420	-0.692349	0.069901
C174	C	1.616753	-0.359016	0.403234
C175	C	0.950065	-0.978764	-0.263425
C176	C	1.283399	-0.645431	0.069908
C177	C	1.616732	-0.312097	0.403242
C178	C	0.909780	-0.955332	-0.303634
C179	C	1.243113	-0.621998	0.029699
C180	C	1.576446	-0.288665	0.363032
C181	C	0.949837	-0.453290	-0.263359
C182	C	1.283171	-0.119957	0.069974
C183	C	1.616504	0.213377	0.403307
C184	C	0.949810	-0.406370	-0.263353
C185	C	1.283143	-0.073037	0.069980
C186	C	1.616476	0.260296	0.403314
C187	C	0.869254	-0.406426	-0.343770
C188	C	1.202587	-0.073093	-0.010436
C189	C	1.535920	0.260241	0.322897
C190	C	0.869279	-0.453341	-0.343774
C191	C	1.202612	-0.120008	-0.010441
C192	C	1.535945	0.213325	0.322893
C193	C	0.909576	-0.476772	-0.303567
C194	C	1.242909	-0.143439	0.029767
C195	C	1.576242	0.189894	0.363100
O196	O	0.835073	-0.527587	-0.377942
O197	O	1.168406	-0.194254	-0.044609
O198	O	1.501739	0.139079	0.288724
O199	O	0.984137	-0.527526	-0.229185
O200	O	1.317470	-0.194193	0.104149
O201	O	1.650804	0.139140	0.437482
C202	C	0.949972	-0.739480	-0.263403
C203	C	1.283305	-0.406147	0.069930
C204	C	1.616638	-0.072813	0.403264
C205	C	0.909707	-0.762962	-0.303614
C206	C	1.243041	-0.429629	0.029719
C207	C	1.576374	-0.096296	0.363053
C208	C	0.869421	-0.739529	-0.343817
C209	C	1.202754	-0.406196	-0.010484
C210	C	1.536087	-0.072862	0.322850
C211	C	0.909725	-0.809880	-0.303619
C212	C	1.243058	-0.476547	0.029714
C213	C	1.576392	-0.143213	0.363048
C214	C	0.950012	-0.833313	-0.263416
C215	C	1.283345	-0.499980	0.069917
C216	C	1.616678	-0.166647	0.403251
C217	C	0.990281	-0.809829	-0.223208
C218	C	1.323614	-0.476495	0.110125
C219	C	1.656947	-0.143162	0.443458
C220	C	0.990258	-0.762913	-0.223200
C221	C	1.323592	-0.429580	0.110133
C222	C	1.656925	-0.096246	0.443467
C223	C	0.829152	-0.763014	-0.384025
C224	C	1.162485	-0.429680	-0.050692
C225	C	1.495818	-0.096347	0.282642
C226	C	0.829177	-0.809929	-0.384029
C227	C	1.162510	-0.476596	-0.050696
C228	C	1.495843	-0.143263	0.282637
C229	C	0.869463	-0.833362	-0.343826
C230	C	1.202797	-0.500029	-0.010493
C231	C	1.536130	-0.166696	0.322840
C232	C	1.073818	-0.216257	-0.303653
C233	C	1.407151	0.117077	0.029681
C234	C	1.740485	0.450410	0.363014
C235	C	1.143786	-0.216247	-0.303684
C236	C	1.477119	0.117087	0.029649
C237	C	1.810453	0.450420	0.362983
C238	C	0.909680	-0.216271	-0.467770
C239	C	1.243013	0.117063	-0.134437
C240	C	1.576347	0.450396	0.198897
C241	C	0.909702	-0.216267	-0.537738
C242	C	1.243035	0.117067	-0.204405
C243	C	1.576369	0.450400	0.128929
C244	C	0.909759	-0.099102	-0.303625
C245	C	1.243092	0.234232	0.029709
C246	C	1.576426	0.567565	0.363042
C247	C	0.909815	-0.049167	-0.303644
C248	C	1.243148	0.284166	0.029689
C249	C	1.576481	0.617499	0.363023
C250	C	0.949994	-0.187526	-0.570635
C251	C	1.283327	0.145807	-0.237301
C252	C	1.616661	0.479141	0.096032
C253	C	0.949993	-0.187507	-0.636377
C254	C	1.283327	0.145827	-0.303044
C255	C	1.616660	0.479160	0.030289
C256	C	0.909707	-0.216236	-0.669221
C257	C	1.243040	0.117098	-0.335887
C258	C	1.576374	0.450431	-0.002554
C259	C	0.869407	-0.244978	-0.636316
C260	C	1.202741	0.088355	-0.302983
C261	C	1.536074	0.421688	0.030351
C262	C	0.869405	-0.244994	-0.570575
C263	C	1.202738	0.088340	-0.237241
C264	C	1.536071	0.421673	0.096092
N265	N	0.904840	-0.255537	-0.772436
N266	N	1.238173	0.077796	-0.439102
N267	N	1.571506	0.411130	-0.105769
N268	N	0.904846	-0.255521	-0.834887
N269	N	1.238179	0.077812	-0.501554
N270	N	1.571513	0.411146	-0.168220
C271	C	0.909711	-0.216190	-0.867295
C272	C	1.243044	0.117143	-0.533962
C273	C	1.576378	0.450477	-0.200629
N274	N	0.914582	-0.176875	-0.834893
N275	N	1.247916	0.156458	-0.501560
N276	N	1.581249	0.489792	-0.168226
N277	N	0.914580	-0.176891	-0.772436
N278	N	1.247913	0.156442	-0.439103
N279	N	1.581246	0.489775	-0.105769
C280	C	0.909705	-0.216222	-0.740506
C281	C	1.243038	0.117111	-0.407173
C282	C	1.576372	0.450445	-0.073839
C283	C	0.950004	-0.187426	-0.971478
C284	C	1.283337	0.145907	-0.638144
C285	C	1.616671	0.479241	-0.304811
C286	C	0.949999	-0.187406	-1.037221
C287	C	1.283332	0.145928	-0.703888
C288	C	1.616666	0.479261	-0.370555
C289	C	0.869416	-0.244882	-1.037159
C290	C	1.202750	0.088452	-0.703826
C291	C	1.536083	0.421785	-0.370492
C292	C	0.869418	-0.244898	-0.971417
C293	C	1.202752	0.088436	-0.638083
C294	C	1.536085	0.421769	-0.304750
C295	C	0.909716	-0.216171	-0.938580
C296	C	1.243049	0.117163	-0.605246
C297	C	1.576382	0.450496	-0.271913
C298	C	0.909612	-0.216257	-0.140028
C299	C	1.242945	0.117076	0.193305
C300	C	1.576278	0.450409	0.526639
C301	C	0.909712	-0.216135	-0.070060
C302	C	1.243045	0.117199	0.263273
C303	C	1.576378	0.450532	0.596606
H304	H	0.669992	-0.268531	-0.376392
H305	H	1.003325	0.064802	-0.043059
H306	H	1.336658	0.398135	0.290275
H307	H	0.269165	-0.164062	-0.230731
H308	H	0.602499	0.169271	0.102603
H309	H	0.935832	0.502605	0.435936
H310	H	0.796346	-0.743938	-0.416764
H311	H	1.129679	-0.410605	-0.083431
H312	H	1.463013	-0.077271	0.249903
Cl313	Cl	0.684568	-0.151371	-0.212791
Cl314	Cl	1.017901	0.181962	0.120542
Cl315	Cl	1.351235	0.515296	0.453875
Cl316	Cl	0.818759	-0.281093	-0.677604
Cl317	Cl	1.152093	0.052240	-0.344271
Cl318	Cl	1.485426	0.385573	-0.010937
Cl319	Cl	1.040826	-0.592653	-0.172627
Cl320	Cl	1.374159	-0.259320	0.160707
Cl321	Cl	1.707492	0.074013	0.494040
H322	H	0.982652	-0.472362	-0.230620
H323	H	1.315985	-0.139028	0.102713
H324	H	1.649319	0.194305	0.436046
H325	H	0.836612	-0.268304	-0.944632
H326	H	1.169945	0.065029	-0.611298
H327	H	1.503279	0.398362	-0.277965
Cl328	Cl	0.818764	-0.280995	-1.078442
Cl329	Cl	1.152098	0.052339	-0.745108
Cl330	Cl	1.485431	0.385672	-0.411775
H331	H	0.269155	-0.268472	-0.376540
H332	H	0.602488	0.064861	-0.043206
H333	H	0.935821	0.398194	0.290127
Cl334	Cl	1.000650	-0.151409	-0.529358
Cl335	Cl	1.333983	0.181924	-0.196024
Cl336	Cl	1.667316	0.515257	0.137309
Cl337	Cl	1.000732	-1.055150	-0.212891
Cl338	Cl	1.334065	-0.721817	0.120442
Cl339	Cl	1.667398	-0.388483	0.453776
Cl340	Cl	0.818897	-1.055249	-0.394398
Cl341	Cl	1.152230	-0.721916	-0.061064
Cl342	Cl	1.485564	-0.388582	0.272269
Cl343	Cl	0.135329	-0.281191	-0.394390
Cl344	Cl	0.468663	0.052142	-0.061057
Cl345	Cl	0.801996	0.385475	0.272277
Cl346	Cl	1.000637	-0.151364	-0.677742
Cl347	Cl	1.333970	0.181970	-0.344409
Cl348	Cl	1.667304	0.515303	-0.011075
H349	H	0.550728	-0.268510	-0.376440
H350	H	0.884061	0.064823	-0.043106
H351	H	1.217395	0.398157	0.290227
H352	H	0.550736	-0.164102	-0.230635
H353	H	0.884069	0.169231	0.102698
H354	H	1.217402	0.502564	0.436031
H355	H	0.149898	-0.164043	-0.230778
H356	H	0.483231	0.169290	0.102555
H357	H	0.816565	0.502623	0.435889
H358	H	0.982813	-0.164032	-0.944741
H359	H	1.316146	0.169301	-0.611407
H360	H	1.649480	0.502635	-0.278074
H361	H	0.836591	-0.268397	-0.543791
H362	H	1.169925	0.064936	-0.210457
H363	H	1.503258	0.398269	0.122876
Cl364	Cl	0.778549	-0.839444	-0.434590
Cl365	Cl	1.111882	-0.506111	-0.101257
Cl366	Cl	1.445216	-0.172777	0.232077
H367	H	0.982600	-0.387253	-0.230603
H368	H	1.315933	-0.053919	0.102730
H369	H	1.649266	0.279414	0.436064
Cl370	Cl	1.040867	-0.698533	-0.172636
Cl371	Cl	1.374200	-0.365199	0.160697
Cl372	Cl	1.707534	-0.031866	0.494031
Cl373	Cl	1.000690	-0.949248	-0.212868
Cl374	Cl	1.334023	-0.615915	0.120465
Cl375	Cl	1.667356	-0.282582	0.453798
Cl376	Cl	0.818859	-0.949365	-0.394395
Cl377	Cl	1.152192	-0.616032	-0.061062
Cl378	Cl	1.485525	-0.282698	0.272271
H379	H	0.796318	-0.688289	-0.416767
H380	H	1.129651	-0.354956	-0.083434
H381	H	1.462985	-0.021623	0.249899
Cl382	Cl	0.778450	-0.592802	-0.434568
Cl383	Cl	1.111783	-0.259469	-0.101235
Cl384	Cl	1.445116	0.073865	0.232098
Cl385	Cl	0.818644	-0.482863	-0.394317
Cl386	Cl	1.151977	-0.149529	-0.060984
Cl387	Cl	1.485311	0.183804	0.272349
H388	H	0.836451	-0.387339	-0.376501
H389	H	1.169784	-0.054006	-0.043167
H390	H	1.503117	0.279327	0.290166
Cl391	Cl	1.000666	-0.151278	-1.078578
Cl392	Cl	1.334000	0.182055	-0.745245
Cl393	Cl	1.667333	0.515388	-0.411911
Cl394	Cl	1.040886	-0.733400	-0.172644
Cl395	Cl	1.374219	-0.400066	0.160689
Cl396	Cl	1.707552	-0.066733	0.494023
Cl397	Cl	1.040925	-0.839296	-0.172667
Cl398	Cl	1.374258	-0.505963	0.160667
Cl399	Cl	1.707592	-0.172630	0.494000
