data_functionalizedCrystal
_audit_creation_method	'MofGen! by Chris Wilmer'
_symmetry_space_group_name_H-M	'P1'
_symmetry_Int_Tables_number	1
_symmetry_cell_setting	triclinic
loop_
_symmetry_equiv_pos_as_xyz
  x,y,z
_cell_length_a	35.277628
_cell_length_b	35.288095
_cell_length_c	35.277682
_cell_angle_alpha	59.997929
_cell_angle_beta	89.998958
_cell_angle_gamma	60.000166
loop_
_atom_site_label
_atom_site_type_symbol
_atom_site_fract_x
_atom_site_fract_y
_atom_site_fract_z
O1	O	-0.323087	-0.271234	0.011271
O2	O	-0.267964	-0.193634	-0.011228
O3	O	-0.267962	-0.271233	0.066395
O4	O	-0.323089	-0.193635	-0.066351
O5	O	-0.204915	-0.334261	0.066394
O6	O	-0.204918	-0.256661	-0.011228
O7	O	-0.260040	-0.334261	0.011271
Zn8	Zn	-0.222469	-0.305468	0.000022
Zn9	Zn	-0.305535	-0.222427	0.000022
O10	O	-0.260043	-0.256662	-0.066351
C11	C	-0.163481	-0.071298	-0.023519
C12	C	-0.186872	-0.024531	-0.020298
C13	C	-0.117860	-0.093995	-0.023838
C14	C	-0.163483	-0.139918	-0.023524
C15	C	-0.186875	-0.166518	-0.020308
C16	C	-0.117862	-0.162510	-0.023843
C17	C	-0.094838	-0.139921	-0.023519
C18	C	-0.044836	-0.166525	-0.020298
C19	C	-0.186401	-0.093991	-0.023843
C20	C	-0.004439	-0.188019	-0.017694
C21	C	-0.205769	0.013252	-0.017695
C22	C	-0.205774	-0.188010	-0.017709
C23	C	0.046241	-0.214983	-0.014429
C24	C	-0.229477	0.060653	-0.014430
C25	C	-0.229483	-0.214971	-0.014450
C26	C	-0.500364	-0.466062	0.034181
C27	C	-0.477341	-0.511990	0.034503
C28	C	-0.431722	-0.466060	0.034178
C29	C	-0.408804	-0.511988	0.034500
C30	C	-0.431721	-0.534685	0.034181
C31	C	-0.477342	-0.443470	0.034500
C32	C	-0.665895	-0.342485	0.021756
C33	C	-0.712772	-0.317221	0.018243
C34	C	-0.736287	-0.338907	0.016481
C35	C	-0.787116	-0.311512	0.012664
C36	C	-0.712921	-0.385861	0.018236
C37	C	-0.666047	-0.411125	0.021755
C38	C	-0.642533	-0.389434	0.023515
C39	C	-0.389805	-0.687746	0.021758
C40	C	-0.368199	-0.731097	0.018245
C41	C	-0.322995	-0.752841	0.016478
C42	C	-0.299567	-0.799839	0.012662
C43	C	-0.299393	-0.731235	0.018230
C44	C	-0.320995	-0.687892	0.021751
C45	C	-0.366205	-0.666148	0.023512
C46	C	-0.389808	-0.342477	0.021744
C47	C	-0.368205	-0.317208	0.018222
C48	C	-0.322998	-0.338892	0.016457
C49	C	-0.299573	-0.311495	0.012637
C50	C	-0.299398	-0.385842	0.018210
C51	C	-0.321003	-0.411107	0.021730
C52	C	-0.366208	-0.389423	0.023501
C53	C	-0.591706	-0.416830	0.027326
C54	C	-0.551191	-0.438667	0.030366
C55	C	-0.408299	-0.438663	0.030360
C56	C	-0.389629	-0.416824	0.027317
C57	C	-0.408298	-0.581682	0.030365
C58	C	-0.389627	-0.619146	0.027325
C59	C	-0.432024	-0.061845	-0.438511
C60	C	-0.477645	-0.015917	-0.461431
C61	C	-0.432025	-0.061844	-0.369869
C62	C	-0.477645	-0.015916	-0.392892
C63	C	-0.500668	0.006779	-0.438513
C64	C	-0.409106	-0.084435	-0.392891
C65	C	-0.320834	-0.185425	-0.480424
C66	C	-0.299076	-0.210690	-0.502029
C67	C	-0.322531	-0.189005	-0.547237
C68	C	-0.298945	-0.216401	-0.570661
C69	C	-0.367745	-0.142051	-0.570839
C70	C	-0.389497	-0.116787	-0.549237
C71	C	-0.366040	-0.138476	-0.504027
C72	C	-0.666200	0.159838	-0.549704
C73	C	-0.713077	0.203188	-0.571462
C74	C	-0.736595	0.224934	-0.548009
C75	C	-0.787423	0.271931	-0.571594
C76	C	-0.713230	0.203329	-0.502796
C77	C	-0.666353	0.159987	-0.481041
C78	C	-0.642841	0.138241	-0.504500
C79	C	-0.320836	-0.185423	-0.204335
C80	C	-0.299080	-0.210691	-0.157455
C81	C	-0.322536	-0.189006	-0.133940
C82	C	-0.298950	-0.216402	-0.083110
C83	C	-0.367748	-0.142056	-0.157305
C84	C	-0.389502	-0.116792	-0.204182
C85	C	-0.366040	-0.138478	-0.227695
C86	C	-0.389632	-0.111079	-0.480604
C87	C	-0.408436	-0.089241	-0.461934
C88	C	-0.408437	-0.089240	-0.319041
C89	C	-0.389634	-0.111078	-0.278525
C90	C	-0.551496	0.053776	-0.462102
C91	C	-0.592011	0.091239	-0.480906
O92	O	0.196122	-0.334274	0.011291
O93	O	0.063378	-0.256674	-0.011208
O94	O	0.140994	-0.334276	0.066414
O95	O	0.118506	-0.256671	-0.066331
O96	O	0.140996	-0.271251	0.066419
O97	O	0.063380	-0.193649	-0.011203
O98	O	0.196124	-0.271249	0.011296
Zn99	Zn	0.129752	-0.222442	0.000047
Zn100	Zn	0.129750	-0.305480	0.000041
O101	O	0.118508	-0.193647	-0.066327
O102	O	-0.260036	0.184774	0.011294
O103	O	-0.204910	0.074561	-0.011204
O104	O	-0.204913	0.074554	0.066418
O105	O	-0.260033	0.184781	-0.066328
O106	O	-0.267961	0.074557	0.066413
O107	O	-0.267958	0.074564	-0.011209
O108	O	-0.323083	0.184777	0.011289
Zn109	Zn	-0.305531	0.129671	0.000039
Zn110	Zn	-0.222463	0.129667	0.000046
O111	O	-0.323081	0.184784	-0.066333
O112	O	-0.936929	0.397535	-0.602582
O113	O	-0.804185	0.287317	-0.547454
O114	O	-0.881802	0.287315	-0.547452
O115	O	-0.859312	0.397537	-0.602584
O116	O	-0.881801	0.287314	-0.610498
O117	O	-0.804183	0.287316	-0.610500
O118	O	-0.936927	0.397533	-0.665628
Zn119	Zn	-0.870555	0.342425	-0.648073
Zn120	Zn	-0.870557	0.342426	-0.565008
O121	O	-0.859310	0.397536	-0.665629
O122	O	-0.267961	-0.271234	-0.665316
O123	O	-0.323086	-0.193638	-0.610192
O124	O	-0.323085	-0.271236	-0.610189
O125	O	-0.267962	-0.193636	-0.665319
O126	O	-0.260038	-0.334264	-0.547142
O127	O	-0.260039	-0.256666	-0.547145
O128	O	-0.204914	-0.334262	-0.602269
Zn129	Zn	-0.222466	-0.305471	-0.564697
Zn130	Zn	-0.305534	-0.222429	-0.647764
O131	O	-0.204915	-0.256664	-0.602272
C132	C	-0.094840	-0.456607	0.293255
C133	C	-0.044837	-0.503376	0.316647
C134	C	-0.117862	-0.433912	0.316174
C135	C	-0.163483	-0.387984	0.224612
C136	C	-0.186875	-0.361381	0.174609
C137	C	-0.186401	-0.365393	0.247634
C138	C	-0.163483	-0.387984	0.293255
C139	C	-0.186874	-0.361382	0.316646
C140	C	-0.117862	-0.433912	0.247635
C141	C	-0.205772	-0.339889	0.335543
C142	C	-0.004440	-0.541160	0.335545
C143	C	-0.205773	-0.339888	0.134212
C144	C	-0.229480	-0.312925	0.359250
C145	C	0.046239	-0.588562	0.359254
C146	C	-0.229481	-0.312924	0.083532
C147	C	0.153295	-0.388013	0.293279
C148	C	0.150076	-0.361413	0.316673
C149	C	0.153614	-0.433940	0.316196
C150	C	0.153297	-0.388008	0.224634
C151	C	0.150079	-0.361403	0.174632
C152	C	0.153616	-0.433935	0.247655
C153	C	0.153293	-0.456633	0.293275
C154	C	0.150072	-0.503401	0.316665
C155	C	0.153617	-0.365420	0.247659
C156	C	0.147469	-0.541185	0.335561
C157	C	0.147474	-0.339922	0.335572
C158	C	0.147479	-0.339908	0.134234
C159	C	0.144204	-0.588587	0.359267
C160	C	0.144211	-0.312962	0.359282
C161	C	0.144218	-0.312942	0.083555
C162	C	-0.163482	-0.139963	0.293267
C163	C	-0.186875	-0.166567	0.316654
C164	C	-0.117861	-0.162559	0.316187
C165	C	-0.163482	-0.071333	0.224628
C166	C	-0.186873	-0.024557	0.174627
C167	C	-0.117860	-0.094033	0.247653
C168	C	-0.094838	-0.139967	0.293272
C169	C	-0.044835	-0.166574	0.316665
C170	C	-0.186401	-0.094030	0.247648
C171	C	-0.004438	-0.188070	0.335563
C172	C	-0.205773	-0.188061	0.335549
C173	C	-0.205771	0.013233	0.134231
C174	C	0.046242	-0.215038	0.359273
C175	C	-0.229482	-0.215026	0.359253
C176	C	-0.229479	0.060643	0.083553
C177	C	0.095627	0.006487	-0.438489
C178	C	0.095306	-0.016206	-0.461409
C179	C	0.095623	-0.062137	-0.369847
C180	C	0.095303	-0.084726	-0.392871
C181	C	0.095625	-0.062133	-0.438492
C182	C	0.095305	-0.016210	-0.392868
C183	C	0.108059	0.159543	-0.480399
C184	C	0.111575	0.202893	-0.502003
C185	C	0.113340	0.224640	-0.547210
C186	C	0.117161	0.271637	-0.570634
C187	C	0.111587	0.203038	-0.570814
C188	C	0.108065	0.159695	-0.549212
C189	C	0.106302	0.137948	-0.504002
C190	C	0.108054	-0.116452	-0.549685
C191	C	0.111568	-0.141562	-0.571444
C192	C	0.113332	-0.188519	-0.547992
C193	C	0.117148	-0.215753	-0.571578
C194	C	0.111577	-0.210363	-0.502779
C195	C	0.108055	-0.185249	-0.481023
C196	C	0.106297	-0.138292	-0.504481
C197	C	0.108046	-0.116473	-0.204312
C198	C	0.111564	-0.141591	-0.157432
C199	C	0.113326	-0.188548	-0.133918
C200	C	0.117142	-0.215786	-0.083088
C201	C	0.111574	-0.210388	-0.157283
C202	C	0.108058	-0.185270	-0.204161
C203	C	0.106290	-0.138308	-0.227673
C204	C	0.102487	0.090947	-0.480580
C205	C	0.099445	0.053484	-0.461911
C206	C	0.099438	-0.089371	-0.319019
C207	C	0.102477	-0.111078	-0.278503
C208	C	0.099442	-0.089362	-0.462081
C209	C	0.102482	-0.111066	-0.480886
O210	O	0.118477	-0.256700	0.452885
O211	O	0.140984	-0.334299	0.397762
O212	O	0.063360	-0.256699	0.397752
O213	O	0.196101	-0.334300	0.452895
O214	O	0.063367	-0.193672	0.334708
O215	O	0.140992	-0.271271	0.334718
O216	O	0.118484	-0.193673	0.389842
Zn217	Zn	0.129739	-0.222465	0.352270
Zn218	Zn	0.129729	-0.305506	0.435333
O219	O	0.196108	-0.271272	0.389852
C220	C	-0.500364	0.533998	-0.438484
C221	C	-0.477341	0.556591	-0.461399
C222	C	-0.431721	0.465364	-0.369840
C223	C	-0.408802	0.488061	-0.392859
C224	C	-0.431720	0.533995	-0.438478
C225	C	-0.477342	0.488064	-0.392865
C226	C	-0.665898	0.588334	-0.480407
C227	C	-0.712776	0.613450	-0.502014
C228	C	-0.736291	0.660414	-0.547220
C229	C	-0.787122	0.687654	-0.570647
C230	C	-0.712926	0.682257	-0.570819
C231	C	-0.666050	0.657138	-0.549214
C232	C	-0.642536	0.610174	-0.504006
C233	C	-0.389802	0.657585	-0.549654
C234	C	-0.368196	0.682850	-0.571408
C235	C	-0.322990	0.661164	-0.547952
C236	C	-0.299561	0.688558	-0.571532
C237	C	-0.299388	0.614205	-0.502740
C238	C	-0.320990	0.588935	-0.480990
C239	C	-0.366202	0.610633	-0.504452
C240	C	-0.389804	0.312282	-0.204314
C241	C	-0.368201	0.268929	-0.157436
C242	C	-0.322993	0.247179	-0.133918
C243	C	-0.299567	0.200174	-0.083089
C244	C	-0.299392	0.268786	-0.157278
C245	C	-0.320998	0.312139	-0.204154
C246	C	-0.366204	0.333881	-0.227670
C247	C	-0.591708	0.582942	-0.480581
C248	C	-0.551193	0.561234	-0.461909
C249	C	-0.408297	0.418359	-0.319013
C250	C	-0.389626	0.380890	-0.278499
C251	C	-0.408296	0.561393	-0.462062
C252	C	-0.389624	0.583232	-0.480862
H253	H	-0.223885	-0.074993	-0.024363
C254	C	-0.092886	-0.068341	-0.024530
C255	C	-0.118198	-0.017725	-0.024870
C256	C	-0.093224	0.007925	-0.025560
C257	C	-0.042937	-0.017039	-0.025911
C258	C	-0.017622	-0.067657	-0.025571
C259	C	-0.042597	-0.093308	-0.024880
H260	H	-0.155426	0.000757	-0.024610
H261	H	-0.111964	0.045396	-0.025812
H262	H	-0.024449	0.001949	-0.026422
H263	H	0.019606	-0.086140	-0.025830
H264	H	-0.023857	-0.130779	-0.024628
H265	H	-0.386837	-0.124397	-0.607648
H266	H	-0.099380	-0.199466	-0.024359
C267	C	-0.439228	-0.065143	-0.575197
C268	C	-0.465031	-0.041288	-0.624922
C269	C	-0.514764	0.010355	-0.650882
C270	C	-0.538693	0.038144	-0.627117
C271	C	-0.512890	0.014289	-0.577390
C272	C	-0.463157	-0.037354	-0.551430
H273	H	-0.447318	-0.061859	-0.642516
H274	H	-0.533865	0.028013	-0.687693
H275	H	-0.575508	0.076373	-0.646334
H276	H	-0.530603	0.034860	-0.559795
H277	H	-0.444056	-0.055012	-0.514618
H278	H	0.094785	-0.121682	-0.374387
H279	H	-0.732070	-0.403516	0.016804
H280	H	-0.731792	-0.278991	0.016812
H281	H	-0.099376	-0.075038	0.229168
H282	H	-0.099377	-0.452909	0.353658
C283	C	0.154309	-0.459607	0.366833
C284	C	0.194747	-0.480019	0.405029
C285	C	0.195441	-0.505688	0.455664
C286	C	0.155698	-0.510944	0.468104
C287	C	0.115257	-0.490532	0.429908
C288	C	0.114562	-0.464864	0.379272
H289	H	0.224170	-0.476128	0.395821
H290	H	0.225378	-0.520798	0.483939
H291	H	0.156212	-0.529945	0.505587
H292	H	0.085834	-0.494423	0.439116
H293	H	0.084625	-0.449753	0.350997
C294	C	-0.295030	-0.209277	-0.430698
C295	C	-0.285852	-0.176054	-0.421088
C296	C	-0.260051	-0.199902	-0.371362
C297	C	-0.243430	-0.256973	-0.331247
C298	C	-0.252608	-0.290200	-0.340856
C299	C	-0.278409	-0.266352	-0.390581
H300	H	-0.298156	-0.133803	-0.450785
H301	H	-0.253257	-0.175305	-0.364249
H302	H	-0.224331	-0.274627	-0.294437
H303	H	-0.240304	-0.332451	-0.311159
H304	H	-0.285203	-0.290949	-0.397694
H305	H	0.106637	0.142110	-0.568432
H306	H	-0.426615	-0.670047	0.023195
H307	H	0.106619	-0.078217	-0.568789
H308	H	0.094791	0.002793	-0.498893
C309	C	-0.237038	-0.068370	0.222678
C310	C	-0.275230	-0.010174	0.204912
C311	C	-0.325865	0.015483	0.179944
C312	C	-0.338307	-0.017056	0.172741
C313	C	-0.300114	-0.075254	0.190507
C314	C	-0.249479	-0.100911	0.215475
H315	H	-0.266020	0.013916	0.210243
H316	H	-0.354138	0.058565	0.166792
H317	H	-0.375790	0.001937	0.154258
H318	H	-0.309324	-0.099344	0.185176
H319	H	-0.221206	-0.143994	0.228627
H320	H	-0.371321	-0.530978	0.035012
H321	H	-0.262581	0.251075	-0.138127
H322	H	-0.099381	-0.199518	0.353671
H323	H	-0.301778	0.329728	-0.223172
H324	H	-0.386847	-0.124399	-0.138156
H325	H	-0.301775	-0.670305	0.023178
H326	H	-0.647059	0.142138	-0.568809
C327	C	-0.502317	-0.537642	0.035192
C328	C	-0.509507	-0.542887	-0.004556
C329	C	-0.534484	-0.568533	-0.003872
C330	C	-0.552271	-0.588934	0.036562
C331	C	-0.545082	-0.583690	0.076313
C332	C	-0.520104	-0.558043	0.075629
H333	H	-0.496339	-0.527784	-0.034490
H334	H	-0.539806	-0.572415	-0.033299
H335	H	-0.570761	-0.607919	0.037069
H336	H	-0.558249	-0.598792	0.106247
H337	H	-0.514782	-0.554161	0.105056
C338	C	-0.394159	0.734505	-0.621134
C339	C	-0.374076	0.736043	-0.660238
C340	C	-0.400041	0.787699	-0.709964
C341	C	-0.446088	0.837818	-0.720587
C342	C	-0.466173	0.836282	-0.681482
C343	C	-0.440208	0.784625	-0.631756
H344	H	-0.339987	0.698941	-0.652375
H345	H	-0.385172	0.788836	-0.738912
H346	H	-0.465309	0.876057	-0.757397
H347	H	-0.500262	0.873384	-0.689345
H348	H	-0.455077	0.783488	-0.602808
H349	H	0.094825	0.002760	-0.374372
H350	H	-0.387422	0.251343	-0.138417
C351	C	-0.092895	-0.459570	0.222663
C352	C	-0.118220	-0.434608	0.172378
C353	C	-0.093255	-0.460264	0.147406
C354	C	-0.042966	-0.510883	0.172721
C355	C	-0.017638	-0.535848	0.223009
C356	C	-0.042603	-0.510191	0.247980
H357	H	-0.155449	-0.397135	0.153636
H358	H	-0.112004	-0.441784	0.110180
H359	H	-0.024485	-0.529875	0.154235
H360	H	0.019591	-0.573321	0.241751
H361	H	-0.023854	-0.528672	0.285207
H362	H	-0.495826	0.593550	-0.498882
C363	C	0.113490	-0.117569	-0.131731
C364	C	0.152989	-0.111018	-0.127641
C365	C	0.154913	-0.086994	-0.101941
C366	C	0.117336	-0.069520	-0.080330
C367	C	0.077834	-0.076070	-0.084419
C368	C	0.075911	-0.100094	-0.110119
H369	H	0.180808	-0.123954	-0.143640
H370	H	0.184155	-0.082145	-0.098914
H371	H	0.118760	-0.051735	-0.061304
H372	H	0.050015	-0.063134	-0.068420
H373	H	0.046668	-0.104943	-0.113146
C374	C	-0.249347	-0.262332	-0.131755
C375	C	-0.209319	-0.261873	-0.148858
C376	C	-0.159584	-0.313511	-0.123159
C377	C	-0.149877	-0.365608	-0.080355
C378	C	-0.189906	-0.366068	-0.063249
C379	C	-0.239641	-0.314430	-0.088949
H380	H	-0.216504	-0.223306	-0.180546
H381	H	-0.129952	-0.313170	-0.135822
H382	H	-0.113060	-0.403833	-0.061330
H383	H	-0.182721	-0.404635	-0.031561
H384	H	-0.269273	-0.314772	-0.076286
H385	H	-0.495829	-0.406511	0.035012
H386	H	0.113004	0.220477	-0.482781
C387	C	-0.439531	0.336200	-0.230182
C388	C	-0.465493	0.312438	-0.204489
C389	C	-0.515219	0.336357	-0.230359
C390	C	-0.538982	0.384038	-0.281923
C391	C	-0.513019	0.407802	-0.307618
C392	C	-0.463294	0.383883	-0.281748
H393	H	-0.447903	0.277139	-0.166316
H394	H	-0.534438	0.318764	-0.211338
H395	H	-0.575791	0.401744	-0.301073
H396	H	-0.530610	0.443101	-0.345791
H397	H	-0.444075	0.401476	-0.300770
H398	H	-0.732075	0.720493	-0.607626
C399	C	-0.739094	0.227247	-0.476994
C400	C	-0.722120	0.250737	-0.460381
C401	C	-0.747985	0.274654	-0.434578
C402	C	-0.790824	0.275080	-0.425389
C403	C	-0.807801	0.251590	-0.442003
C404	C	-0.781936	0.227673	-0.467805
H405	H	-0.690405	0.250422	-0.467183
H406	H	-0.735417	0.292043	-0.422280
H407	H	-0.809971	0.292785	-0.406288
H408	H	-0.839515	0.251905	-0.435201
H409	H	-0.794503	0.210284	-0.480104
C410	C	-0.237038	-0.315465	0.222664
C411	C	-0.262352	-0.290509	0.247987
C412	C	-0.312986	-0.240581	0.223019
C413	C	-0.338304	-0.215610	0.172728
C414	C	-0.312990	-0.240567	0.147403
C415	C	-0.262356	-0.290494	0.172371
H416	H	-0.243610	-0.308994	0.285218
H417	H	-0.331725	-0.222107	0.241767
H418	H	-0.375786	-0.178651	0.154245
H419	H	-0.331732	-0.222082	0.110172
H420	H	-0.243617	-0.308968	0.153623
H421	H	-0.387425	-0.278978	0.016792
C422	C	0.113505	-0.117540	-0.621173
C423	C	0.073032	-0.060420	-0.661210
C424	C	0.074971	-0.036398	-0.710938
C425	C	0.117382	-0.069496	-0.720630
C426	C	0.157858	-0.126619	-0.680591
C427	C	0.155919	-0.150641	-0.630863
H428	H	0.041634	-0.035916	-0.654037
H429	H	0.045008	0.005889	-0.740577
H430	H	0.118817	-0.051713	-0.757442
H431	H	0.189256	-0.151123	-0.687764
H432	H	0.185882	-0.192928	-0.601224
H433	H	0.154138	-0.452930	0.229170
H434	H	0.106608	-0.078237	-0.223453
C435	C	-0.394161	-0.754857	0.016311
C436	C	-0.410820	-0.778227	0.056787
C437	C	-0.436783	-0.801986	0.054853
C438	C	-0.446087	-0.802374	0.012442
C439	C	-0.429428	-0.779003	-0.028037
C440	C	-0.403465	-0.755244	-0.026102
H441	H	-0.403933	-0.777941	0.088185
H442	H	-0.449116	-0.819287	0.084818
H443	H	-0.465306	-0.819962	0.011010
H444	H	-0.436315	-0.779290	-0.059435
H445	H	-0.391132	-0.737943	-0.056068
H446	H	-0.426617	-0.324814	0.023182
C447	C	-0.640031	-0.318627	0.023696
C448	C	-0.665727	-0.266987	0.021770
C449	C	-0.639862	-0.243131	0.023709
C450	C	-0.588301	-0.270917	0.027575
C451	C	-0.562602	-0.322560	0.029501
C452	C	-0.588467	-0.346415	0.027562
H453	H	-0.703899	-0.246416	0.018909
H454	H	-0.658887	-0.204901	0.022283
H455	H	-0.569155	-0.253257	0.029010
H456	H	-0.524431	-0.343131	0.032363
H457	H	-0.569443	-0.384645	0.028988
C458	C	0.106114	0.135627	-0.430672
C459	C	0.108038	0.159389	-0.404711
C460	C	0.106093	0.135472	-0.354985
C461	C	0.102223	0.087792	-0.331219
C462	C	0.100299	0.064027	-0.357180
C463	C	0.102244	0.087945	-0.406906
H464	H	0.110902	0.194687	-0.422303
H465	H	0.107517	0.153064	-0.335767
H466	H	0.100783	0.070087	-0.294409
H467	H	0.097435	0.028729	-0.339588
H468	H	0.100820	0.070352	-0.426124
H469	H	0.113022	0.220750	-0.607622
H470	H	-0.301727	-0.203079	-0.223479
H471	H	-0.262587	-0.403497	0.016771
C472	C	-0.249666	-0.755154	0.016291
C473	C	-0.240050	-0.755583	-0.026120
C474	C	-0.190323	-0.779501	-0.028061
C475	C	-0.150212	-0.802990	0.012410
C476	C	-0.159828	-0.802563	0.054825
C477	C	-0.209554	-0.778645	0.056766
H478	H	-0.269743	-0.738194	-0.056082
H479	H	-0.183205	-0.779817	-0.059460
H480	H	-0.113402	-0.820696	0.010974
H481	H	-0.130134	-0.819952	0.084787
H482	H	-0.216672	-0.778328	0.088164
C483	C	-0.738477	0.589427	-0.476055
C484	C	-0.721380	0.532312	-0.459403
C485	C	-0.747082	0.508289	-0.433443
C486	C	-0.789880	0.541382	-0.424135
C487	C	-0.806979	0.598501	-0.440788
C488	C	-0.781278	0.622523	-0.466748
H489	H	-0.689696	0.507812	-0.466292
H490	H	-0.734424	0.466006	-0.421115
H491	H	-0.808906	0.523599	-0.404918
H492	H	-0.838663	0.623001	-0.433899
H493	H	-0.793936	0.664807	-0.479076
H494	H	0.106630	-0.203055	-0.223182
H495	H	0.113006	-0.248593	-0.483685
H496	H	-0.647026	-0.449354	0.023185
H497	H	-0.301770	0.550701	-0.444180
H498	H	-0.301784	-0.449335	0.023157
H499	H	0.154133	-0.328462	0.229178
H500	H	0.106623	-0.203035	-0.444212
C501	C	-0.249348	-0.262338	-0.476066
C502	C	-0.209312	-0.261899	-0.459407
C503	C	-0.159584	-0.313549	-0.433442
C504	C	-0.149891	-0.365638	-0.424137
C505	C	-0.189928	-0.366079	-0.440796
C506	C	-0.239656	-0.314429	-0.466761
H507	H	-0.216486	-0.223339	-0.466295
H508	H	-0.129946	-0.313223	-0.421110
H509	H	-0.113079	-0.403872	-0.404917
H510	H	-0.182754	-0.404640	-0.433908
H511	H	-0.269294	-0.314755	-0.479093
C512	C	0.113511	-0.262041	-0.131422
C513	C	0.155918	-0.314058	-0.088578
C514	C	0.157855	-0.365709	-0.062719
C515	C	0.117384	-0.365342	-0.079703
C516	C	0.074973	-0.313323	-0.122549
C517	C	0.073036	-0.261672	-0.148408
H518	H	0.185880	-0.314331	-0.076003
H519	H	0.189251	-0.404217	-0.031001
H520	H	0.118818	-0.403577	-0.060560
H521	H	0.045011	-0.313050	-0.135124
H522	H	0.041641	-0.223164	-0.180126
H523	H	-0.371318	0.469063	-0.374372
C524	C	-0.738778	0.226947	-0.621191
C525	C	-0.742864	0.191535	-0.631817
C526	C	-0.768565	0.215292	-0.681545
C527	C	-0.790180	0.274461	-0.720647
C528	C	-0.786094	0.309876	-0.710023
C529	C	-0.760393	0.286119	-0.660294
H530	H	-0.726863	0.147732	-0.602870
H531	H	-0.771590	0.189076	-0.689410
H532	H	-0.809205	0.292048	-0.757459
H533	H	-0.802095	0.353679	-0.738970
H534	H	-0.757369	0.312336	-0.652429
H535	H	-0.647332	0.142401	-0.444230
H536	H	-0.495832	0.469078	-0.374381
H537	H	-0.646757	0.550094	-0.443598
C538	C	-0.640350	0.681164	-0.575170
C539	C	-0.666212	0.732821	-0.624892
C540	C	-0.640512	0.756849	-0.650848
C541	C	-0.588950	0.729220	-0.627081
C542	C	-0.563085	0.677560	-0.577355
C543	C	-0.588784	0.653532	-0.551400
H544	H	-0.704384	0.753277	-0.642488
H545	H	-0.659660	0.795092	-0.687658
H546	H	-0.569925	0.747007	-0.646295
H547	H	-0.524912	0.657104	-0.559759
H548	H	-0.569637	0.615289	-0.514590
C549	C	-0.249660	0.590344	-0.476937
C550	C	-0.210648	0.572997	-0.497152
C551	C	-0.160921	0.549138	-0.471348
C552	C	-0.150204	0.542625	-0.425328
C553	C	-0.189217	0.559972	-0.405110
C554	C	-0.238944	0.583832	-0.430915
H555	H	-0.218580	0.577817	-0.531221
H556	H	-0.132041	0.536296	-0.486314
H557	H	-0.113393	0.524963	-0.406226
H558	H	-0.181285	0.555152	-0.371042
H559	H	-0.267824	0.596673	-0.415948
H560	H	-0.496128	0.003076	-0.374407
H561	H	-0.426614	0.675254	-0.568760
C562	C	-0.439231	-0.065146	-0.229883
C563	C	-0.479264	-0.065590	-0.212781
C564	C	-0.528995	-0.013943	-0.238483
C565	C	-0.538692	0.038147	-0.281286
C566	C	-0.498658	0.038593	-0.298390
C567	C	-0.448927	-0.013053	-0.272689
H568	H	-0.472087	-0.104152	-0.181094
H569	H	-0.558631	-0.014274	-0.225821
H570	H	-0.575505	0.076379	-0.300311
H571	H	-0.505835	0.077156	-0.330077
H572	H	-0.419292	-0.012723	-0.285350
H573	H	-0.496124	0.003081	-0.498917
H574	H	-0.371622	-0.121391	-0.374409
