data_functionalizedCrystal
_audit_creation_method	'MofGen! by Chris Wilmer'
_symmetry_space_group_name_H-M	'P1'
_symmetry_Int_Tables_number	1
_symmetry_cell_setting	triclinic
loop_
_symmetry_equiv_pos_as_xyz
  x,y,z
_cell_length_a	12.759401
_cell_length_b	15.299816
_cell_length_c	12.759401
_cell_angle_alpha	80.324359
_cell_angle_beta	90.005677
_cell_angle_gamma	80.350755
loop_
_atom_site_label
_atom_site_type_symbol
_atom_site_fract_x
_atom_site_fract_y
_atom_site_fract_z
Zn1	Zn	1.678439	-0.359227	0.666445
Zn2	Zn	1.708730	-0.510019	0.521182
Zn3	Zn	1.502778	-0.359213	0.490782
Zn4	Zn	1.533086	-0.510012	0.696822
O5	O	1.605758	-0.434618	0.593808
O6	O	1.829480	-0.379239	0.647186
O7	O	1.681403	-0.490011	0.370128
O8	O	1.500719	-0.232998	0.488648
O9	O	1.851735	-0.490024	0.540462
O10	O	1.629777	-0.233008	0.617708
O11	O	1.530091	-0.379214	0.347793
O12	O	1.359776	-0.379208	0.518103
O13	O	1.552374	-0.490013	0.839814
O14	O	1.382042	-0.490000	0.669480
O15	O	1.659165	-0.379232	0.817497
O16	O	1.710791	-0.636235	0.569917
O17	O	1.581746	-0.636230	0.698959
C18	C	1.332788	-0.434602	0.593790
C19	C	1.216014	-0.434617	0.593812
C20	C	1.149586	-0.377035	0.649507
C21	C	1.039864	-0.377044	0.649516
C22	C	1.063009	-0.492225	0.538132
C23	C	1.172729	-0.492211	0.538118
C24	C	1.652873	-0.668959	0.641056
C25	C	1.673124	-0.769211	0.661304
C26	C	1.461704	-1.052082	0.449449
C27	C	1.442671	-0.957890	0.430428
C28	C	1.500283	-0.910716	0.488145
C29	C	1.576931	-0.957743	0.564887
C30	C	1.595960	-1.051944	0.583916
C31	C	1.634539	-0.910577	0.622612
C32	C	1.711186	-0.957604	0.699355
C33	C	1.730212	-1.051796	0.718380
C34	C	1.672601	-1.098971	0.660663
C35	C	1.615510	-0.816376	0.603583
C36	C	1.749765	-0.816238	0.738050
C37	C	1.768798	-0.910430	0.757072
C38	C	1.879795	-0.434634	0.593827
C39	C	1.996573	-0.434641	0.593835
C40	C	1.605771	-0.434624	0.867842
C41	C	1.605777	-0.434626	0.984620
C42	C	1.558489	-0.199361	0.546398
C43	C	1.538345	-0.099109	0.526195
C44	C	1.661376	-0.376952	1.027864
C45	C	1.661367	-0.376950	1.137588
C46	C	1.550157	-0.492305	1.160814
C47	C	1.550161	-0.492302	1.051091
C48	C	1.605749	-0.434631	1.320843
C49	C	1.605763	-0.434628	1.204066
H50	H	1.553102	-0.778095	0.541099
N51	N	1.490196	-0.554508	1.004427
H52	H	1.434151	-0.517838	0.951510
H53	H	1.455032	-0.591042	1.063239
N54	N	1.721329	-0.314733	1.184217
H55	H	1.799213	-0.328746	1.167959
H56	H	1.712805	-0.323503	1.263799
H57	H	1.831205	-0.948732	0.819557
H58	H	0.985781	-0.330154	0.694867
N59	N	1.196276	-0.314919	0.709573
H60	H	1.137540	-0.278442	0.744855
H61	H	1.233382	-0.273114	0.658455
N62	N	1.811905	-0.765370	0.800316
H63	H	1.788222	-0.698562	0.776615
H64	H	1.890268	-0.781784	0.787347
N65	N	1.490156	-0.554496	1.232506
H66	H	1.498584	-0.545745	1.308577
H67	H	1.519433	-0.618918	1.226319
N68	N	1.244392	-0.554322	0.478050
H69	H	1.282513	-0.517590	0.422025
H70	H	1.200260	-0.590804	0.442843
N71	N	1.016311	-0.554338	0.478068
H72	H	0.979219	-0.596201	0.529129
H73	H	1.075094	-0.590754	0.442779
N74	N	1.479760	-0.809124	0.467632
H75	H	1.422465	-0.786490	0.410257
H76	H	1.547304	-0.786461	0.443830
N77	N	1.360013	-0.907170	0.347658
H78	H	1.326408	-0.951345	0.313977
H79	H	1.394923	-0.868074	0.291179
H80	H	1.688097	-1.175669	0.676142
N81	N	1.721360	-0.314750	0.956166
H82	H	1.692097	-0.250303	0.962264
H83	H	1.712909	-0.323582	0.880132
N84	N	1.399574	-1.102960	0.387203
H85	H	1.423261	-1.169768	0.410904
H86	H	1.412664	-1.086509	0.308860
H87	H	1.792620	-1.090083	0.780873
