data_functionalizedCrystal
_audit_creation_method	'MofGen! by Chris Wilmer'
_symmetry_space_group_name_H-M	'P1'
_symmetry_Int_Tables_number	1
_symmetry_cell_setting	triclinic
loop_
_symmetry_equiv_pos_as_xyz
  x,y,z
_cell_length_a	18.101395
_cell_length_b	12.827893
_cell_length_c	12.827885
_cell_angle_alpha	90.020999
_cell_angle_beta	89.967625
_cell_angle_gamma	89.970686
loop_
_atom_site_label
_atom_site_type_symbol
_atom_site_fract_x
_atom_site_fract_y
_atom_site_fract_z
Zn1	Zn	-0.294829	-1.597556	-0.590878
Zn2	Zn	-0.418688	-1.597402	-0.416130
Zn3	Zn	-0.294861	-1.422797	-0.416146
Zn4	Zn	-0.418629	-1.422734	-0.590825
O5	O	-0.356752	-1.510122	-0.503495
O6	O	-0.311270	-1.743771	-0.567713
O7	O	-0.402301	-1.574202	-0.269896
O8	O	-0.191224	-1.446070	-0.439354
O9	O	-0.402269	-1.743658	-0.439326
O10	O	-0.191200	-1.574464	-0.567728
O11	O	-0.311325	-1.445920	-0.269908
O12	O	-0.311268	-1.276553	-0.439302
O13	O	-0.402169	-1.445963	-0.737068
O14	O	-0.402200	-1.276507	-0.567638
O15	O	-0.311213	-1.574403	-0.737107
O16	O	-0.522313	-1.574141	-0.439275
O17	O	-0.522270	-1.445814	-0.567623
C18	C	-0.356732	-1.238612	-0.503467
C19	C	-0.356741	-1.122459	-0.503480
C20	C	-0.401815	-0.950635	-0.566896
C21	C	-0.401806	-1.070685	-0.566885
C22	C	-0.549163	-1.509982	-0.503464
C23	C	-0.631477	-1.510018	-0.503486
C24	C	-0.930568	-1.510247	-0.503542
C25	C	-0.899246	-1.429695	-0.584495
C26	C	-0.813628	-1.429312	-0.584242
C27	C	-0.782185	-1.510134	-0.503515
C28	C	-0.813343	-1.480314	-0.393380
C29	C	-0.898988	-1.479795	-0.393864
C30	C	-0.898912	-1.620796	-0.531755
C31	C	-0.813261	-1.620146	-0.534170
C32	C	-0.698326	-1.510071	-0.503493
C33	C	-1.014427	-1.510307	-0.503557
C34	C	-0.163590	-1.510291	-0.503549
C35	C	-0.081276	-1.510363	-0.503572
C36	C	-0.356681	-1.510193	-0.776065
C37	C	-0.356651	-1.510224	-0.892218
C38	C	-0.356767	-0.782692	-0.503515
C39	C	-0.356758	-0.898845	-0.503503
C40	C	-0.311634	-1.573787	-0.944022
C41	C	-0.311602	-1.573820	-1.064073
C42	C	-0.356769	-1.510111	-0.231985
C43	C	-0.356591	-1.510284	-0.115832
H44	H	-0.792559	-1.447969	-0.665906
H45	H	-0.919789	-1.448166	-0.666424
F46	F	-0.452255	-0.892426	-0.637836
F47	F	-0.406974	-1.439154	-1.057613
F48	F	-0.406992	-1.439118	-0.950411
H49	H	-0.792893	-1.642633	-0.615224
F50	F	-0.452225	-1.128895	-0.637832
H51	H	-0.318161	-1.077928	-0.449207
F52	F	-0.927473	-1.323245	-0.560395
F53	F	-0.306331	-0.957054	-0.432544
F54	F	-0.261229	-1.644957	-1.122299
H55	H	-0.793204	-1.347370	-0.565554
H56	H	-0.919031	-1.398984	-0.369966
F57	F	-0.926076	-1.553146	-0.312333
F58	F	-0.786726	-1.554587	-0.312389
H59	H	-0.791958	-1.400359	-0.369053
F60	F	-0.925398	-1.699244	-0.454702
H61	H	-0.920456	-1.647982	-0.610697
H62	H	-0.791853	-1.683337	-0.479506
F63	F	-0.261273	-1.644866	-0.885830
