data_functionalizedCrystal
_audit_creation_method	'MofGen! by Chris Wilmer'
_symmetry_space_group_name_H-M	'P1'
_symmetry_Int_Tables_number	1
_symmetry_cell_setting	triclinic
loop_
_symmetry_equiv_pos_as_xyz
  x,y,z
_cell_length_a	17.699077
_cell_length_b	11.792254
_cell_length_c	16.776229
_cell_angle_alpha	89.993192
_cell_angle_beta	89.993415
_cell_angle_gamma	83.739587
loop_
_atom_site_label
_atom_site_type_symbol
_atom_site_fract_x
_atom_site_fract_y
_atom_site_fract_z
O1	O	1.004851	0.143494	-0.066278
O2	O	1.338184	0.476827	0.267055
O3	O	1.671517	0.810160	0.600389
O4	O	0.784572	0.162174	-0.066282
O5	O	1.117905	0.495507	0.267051
O6	O	1.451238	0.828840	0.600385
O7	O	0.900052	-0.012400	-0.066274
O8	O	1.233385	0.320933	0.267059
O9	O	1.566718	0.654267	0.600392
O10	O	0.889370	0.318067	-0.066286
O11	O	1.222704	0.651401	0.267048
O12	O	1.556037	0.984734	0.600381
O13	O	0.900036	-0.012411	0.066302
O14	O	1.233369	0.320923	0.399636
O15	O	1.566703	0.654256	0.732969
O16	O	0.784556	0.162163	0.066295
O17	O	1.117889	0.495496	0.399628
O18	O	1.451223	0.828830	0.732961
O19	O	1.004835	0.143483	0.066299
O20	O	1.338168	0.476816	0.399632
O21	O	1.671502	0.810150	0.732965
Zn22	Zn	0.894693	0.152821	0.087346
Zn23	Zn	1.228026	0.486155	0.420679
Zn24	Zn	1.561360	0.819488	0.754013
Zn25	Zn	0.894714	0.152835	-0.087329
Zn26	Zn	1.228047	0.486169	0.246004
Zn27	Zn	1.561380	0.819502	0.579337
O28	O	0.889355	0.318057	0.066291
O29	O	1.222688	0.651390	0.399624
O30	O	1.556022	0.984723	0.732957
C31	C	0.756363	0.161500	0.000006
C32	C	1.089697	0.494833	0.333339
C33	C	1.423030	0.828167	0.666673
C34	C	0.672334	0.159496	0.000004
C35	C	1.005667	0.492829	0.333338
C36	C	1.339001	0.826162	0.666671
C37	C	0.899371	-0.054688	0.000014
C38	C	1.232704	0.278645	0.333347
C39	C	1.566038	0.611979	0.666680
C40	C	0.897357	-0.180677	0.000013
C41	C	1.230690	0.152656	0.333346
C42	C	1.564024	0.485990	0.666680
C43	C	0.632853	0.158545	0.072273
C44	C	0.966187	0.491879	0.405606
C45	C	1.299520	0.825212	0.738939
C46	C	0.553901	0.156644	0.072274
C47	C	0.887234	0.489977	0.405607
C48	C	1.220567	0.823310	0.738940
C49	C	0.514429	0.155700	0.000005
C50	C	0.847763	0.489034	0.333339
C51	C	1.181096	0.822367	0.666672
C52	C	0.553916	0.156648	-0.072268
C53	C	0.887249	0.489981	0.261065
C54	C	1.220583	0.823314	0.594398
C55	C	0.632868	0.158541	-0.072269
C56	C	0.966201	0.491874	0.261065
C57	C	1.299535	0.825208	0.594398
C58	C	0.235512	0.149010	-0.072270
C59	C	0.568845	0.482343	0.261064
C60	C	0.902179	0.815676	0.594397
C61	C	0.156554	0.147120	-0.072264
C62	C	0.489887	0.480453	0.261069
C63	C	0.823221	0.813786	0.594403
C64	C	0.156544	0.147112	0.072273
C65	C	0.489878	0.480446	0.405606
C66	C	0.823211	0.813779	0.738939
C67	C	0.235496	0.149006	0.072272
C68	C	0.568830	0.482339	0.405606
C69	C	0.902163	0.815672	0.738939
C70	C	0.274977	0.149947	-0.000001
C71	C	0.608310	0.483280	0.333332
C72	C	0.941643	0.816613	0.666666
C73	C	0.360586	0.152007	-0.000001
C74	C	0.693920	0.485340	0.333332
C75	C	1.027253	0.818673	0.666666
C76	C	0.428821	0.153649	0.000005
C77	C	0.762154	0.486982	0.333338
C78	C	1.095487	0.820315	0.666671
C79	C	0.895721	-0.282994	0.000010
C80	C	1.229054	0.050340	0.333343
C81	C	1.562388	0.383673	0.666677
C82	C	0.893675	-0.411356	0.000003
C83	C	1.227008	-0.078022	0.333336
C84	C	1.560341	0.255311	0.666669
C85	C	1.033043	0.144156	0.000009
C86	C	1.366377	0.477490	0.333342
C87	C	1.699710	0.810823	0.666676
C88	C	1.117072	0.146161	0.000005
C89	C	1.450406	0.479494	0.333338
C90	C	1.783739	0.812828	0.666672
C91	C	0.890036	0.360345	0.000001
C92	C	1.223369	0.693678	0.333334
C93	C	1.556702	1.027011	0.666668
C94	C	0.892050	0.486333	-0.000003
C95	C	1.225383	0.819667	0.333330
C96	C	1.558716	1.153000	0.666663
N97	N	0.894685	0.152811	0.206557
N98	N	1.228018	0.486144	0.539890
N99	N	1.561351	0.819478	0.873224
N100	N	0.894728	0.152837	-0.206541
N101	N	1.228061	0.486170	0.126793
N102	N	1.561395	0.819503	0.460126
C103	C	0.945835	0.075541	0.248278
C104	C	1.279168	0.408875	0.581611
C105	C	1.612502	0.742208	0.914944
C106	C	0.945839	0.075540	0.331730
C107	C	1.279173	0.408874	0.665063
C108	C	1.612506	0.742207	0.998397
C109	C	0.894696	0.152815	0.373460
C110	C	1.228030	0.486149	0.706793
C111	C	1.561363	0.819482	1.040127
C112	C	0.843540	0.230089	0.331734
C113	C	1.176874	0.563422	0.665067
C114	C	1.510207	0.896755	0.998400
C115	C	0.843533	0.230083	0.248283
C116	C	1.176866	0.563417	0.581616
C117	C	1.510200	0.896750	0.914950
C118	C	0.843568	0.230111	0.668281
C119	C	1.176901	0.563444	1.001614
C120	C	1.510234	0.896778	1.334948
C121	C	0.843581	0.230113	0.751737
C122	C	1.176914	0.563446	1.085071
C123	C	1.510247	0.896779	1.418404
C124	C	0.945874	0.075568	0.751728
C125	C	1.279207	0.408901	1.085061
C126	C	1.612541	0.742235	1.418394
C127	C	0.945867	0.075563	0.668277
C128	C	1.279200	0.408896	1.001610
C129	C	1.612533	0.742229	1.334944
C130	C	0.894709	0.152831	0.626558
C131	C	1.228042	0.486165	0.959891
C132	C	1.561375	0.819498	1.293225
C133	C	0.894704	0.152830	0.536070
C134	C	1.228037	0.486163	0.869403
C135	C	1.561370	0.819497	1.202736
C136	C	0.894704	0.152823	0.463947
C137	C	1.228037	0.486156	0.797280
C138	C	1.561371	0.819490	1.130614
H139	H	0.664984	0.159322	0.131122
H140	H	0.998318	0.492656	0.464456
H141	H	1.331651	0.825989	0.797789
H142	H	0.521760	0.155851	0.131122
H143	H	0.855094	0.489184	0.464455
H144	H	1.188427	0.822517	0.797789
H145	H	0.801931	0.293041	0.785713
H146	H	1.135264	0.626375	1.119046
H147	H	1.468597	0.959708	1.452379
H148	H	0.987515	0.012642	0.634303
H149	H	1.320848	0.345975	0.967636
H150	H	1.654181	0.679309	1.300970
C151	C	0.140345	0.048998	0.195487
C152	C	0.473679	0.382331	0.528820
C153	C	0.807012	0.715664	0.862154
C154	C	0.113149	0.146064	0.151721
C155	C	0.446482	0.479397	0.485054
C156	C	0.779816	0.812730	0.818388
H157	H	0.113559	0.048359	0.244535
H158	H	0.446892	0.381692	0.577869
H159	H	0.780225	0.715025	0.911202
H160	H	0.132905	-0.017459	0.165799
H161	H	0.466239	0.315874	0.499132
H162	H	0.799572	0.649208	0.832465
H163	H	0.193015	0.050277	0.205819
H164	H	0.526349	0.383610	0.539152
H165	H	0.859682	0.716943	0.872486
H166	H	0.060480	0.144780	0.141384
H167	H	0.393813	0.478114	0.474717
H168	H	0.727146	0.811447	0.808050
H169	H	0.120582	0.212537	0.181416
H170	H	0.453916	0.545871	0.514749
H171	H	0.787249	0.879204	0.848082
C172	C	0.961573	-0.079003	0.154490
C173	C	1.294907	0.254330	0.487823
C174	C	1.628240	0.587663	0.821156
C175	C	1.002035	-0.009456	0.202431
C176	C	1.335368	0.323877	0.535764
C177	C	1.668701	0.657210	0.869098
H178	H	0.996264	-0.131491	0.126191
H179	H	1.329598	0.201842	0.459524
H180	H	1.662931	0.535176	0.792858
H181	H	0.929892	-0.119708	0.187072
H182	H	1.263226	0.213626	0.520405
H183	H	1.596559	0.546959	0.853739
H184	H	0.931132	-0.032974	0.117683
H185	H	1.264466	0.300359	0.451016
H186	H	1.597799	0.633692	0.784349
H187	H	1.032472	-0.055485	0.239242
H188	H	1.365805	0.277849	0.572576
H189	H	1.699138	0.611182	0.905909
H190	H	1.033729	0.031251	0.169846
H191	H	1.367062	0.364584	0.503179
H192	H	1.700396	0.697918	0.836513
C193	C	0.332407	0.053616	-0.156125
C194	C	0.665740	0.386949	0.177209
C195	C	0.999074	0.720282	0.510542
C196	C	0.278904	0.150056	-0.151710
C197	C	0.612237	0.483389	0.181624
C198	C	0.945571	0.816722	0.514957
H199	H	0.359194	0.054262	-0.205172
H200	H	0.692528	0.387595	0.128161
H201	H	1.025861	0.720929	0.461494
H202	H	0.367209	0.054452	-0.113090
H203	H	0.700543	0.387786	0.220243
H204	H	1.033876	0.721119	0.553576
H205	H	0.307098	-0.013273	-0.153119
H206	H	0.640431	0.320060	0.180215
H207	H	0.973765	0.653393	0.513548
H208	H	0.304213	0.216945	-0.154710
H209	H	0.637547	0.550278	0.178623
H210	H	0.970880	0.883612	0.511957
H211	H	0.244097	0.149229	-0.194756
H212	H	0.577430	0.482563	0.138578
H213	H	0.910763	0.815896	0.471911
C214	C	0.827774	0.384609	0.574435
C215	C	1.161107	0.717942	0.907769
C216	C	1.494441	1.051275	1.241102
C217	C	0.787346	0.315062	0.622433
C218	C	1.120679	0.648395	0.955767
C219	C	1.454012	0.981729	1.289100
H220	H	0.793063	0.437055	0.546127
H221	H	1.126396	0.770389	0.879461
H222	H	1.459730	1.103722	1.212794
H223	H	0.859447	0.425360	0.606981
H224	H	1.192780	0.758693	0.940314
H225	H	1.526113	1.092026	1.273647
H226	H	0.858221	0.338574	0.537637
H227	H	1.191554	0.671907	0.870970
H228	H	1.524888	1.005241	1.204304
H229	H	0.756902	0.361096	0.659236
H230	H	1.090236	0.694430	0.992569
H231	H	1.423569	1.027763	1.325903
H232	H	0.755660	0.274308	0.589885
H233	H	1.088993	0.607642	0.923219
H234	H	1.422326	0.940975	1.256552
H235	H	0.267629	0.149779	0.131121
H236	H	0.600963	0.483113	0.464454
H237	H	0.934296	0.816446	0.797787
C238	C	0.164492	0.147292	-0.215145
C239	C	0.497825	0.480625	0.118188
C240	C	0.831159	0.813958	0.451521
C241	C	0.113166	0.146073	-0.151708
C242	C	0.446500	0.479406	0.181626
C243	C	0.779833	0.812739	0.514959
H244	H	0.137705	0.146640	-0.264186
H245	H	0.471038	0.479973	0.069147
H246	H	0.804371	0.813306	0.402481
H247	H	0.189785	0.214183	-0.212150
H248	H	0.523118	0.547516	0.121184
H249	H	0.856451	0.880850	0.454517
H250	H	0.200788	0.081865	-0.212128
H251	H	0.534121	0.415199	0.121205
H252	H	0.867455	0.748532	0.454538
H253	H	0.076874	0.211504	-0.154721
H254	H	0.410207	0.544837	0.178612
H255	H	0.743540	0.878170	0.511946
H256	H	0.087861	0.079174	-0.154705
H257	H	0.421195	0.412507	0.178629
H258	H	0.754528	0.745841	0.511962
H259	H	0.801880	0.293003	0.214315
H260	H	1.135214	0.626336	0.547648
H261	H	1.468547	0.959669	0.880982
H262	H	0.521773	0.155872	-0.131111
H263	H	0.855107	0.489205	0.202223
H264	H	1.188440	0.822538	0.535556
H265	H	0.665012	0.159317	-0.131117
H266	H	0.998346	0.492650	0.202216
H267	H	1.331679	0.825984	0.535550
H268	H	0.801895	0.293004	0.365715
H269	H	1.135228	0.626337	0.699049
H270	H	1.468561	0.959670	1.032382
H271	H	0.987489	0.012621	0.365698
H272	H	1.320823	0.345954	0.699032
H273	H	1.654156	0.679288	1.032365
H274	H	0.987528	0.012648	0.785704
H275	H	1.320861	0.345981	1.119038
H276	H	1.654194	0.679314	1.452371
