data_functionalizedCrystal
_audit_creation_method	'MofGen! by Chris Wilmer'
_symmetry_space_group_name_H-M	'P1'
_symmetry_Int_Tables_number	1
_symmetry_cell_setting	triclinic
loop_
_symmetry_equiv_pos_as_xyz
  x,y,z
_cell_length_a	12.645331
_cell_length_b	12.759400
_cell_length_c	12.759393
_cell_angle_alpha	90.031564
_cell_angle_beta	89.977975
_cell_angle_gamma	89.985101
loop_
_atom_site_label
_atom_site_type_symbol
_atom_site_fract_x
_atom_site_fract_y
_atom_site_fract_z
Zn1	Zn	1.620745	0.418198	-0.594080
Zn2	Zn	1.620639	0.593917	-0.418400
Zn3	Zn	1.443462	0.418253	-0.418409
Zn4	Zn	1.443451	0.593836	-0.594031
O5	O	1.532074	0.506051	-0.506230
O6	O	1.769078	0.441518	-0.570793
O7	O	1.597096	0.570672	-0.271380
O8	O	1.467028	0.271225	-0.441736
O9	O	1.769000	0.570618	-0.441722
O10	O	1.597277	0.271185	-0.570801
O11	O	1.466925	0.441612	-0.271387
O12	O	1.295113	0.441534	-0.441688
O13	O	1.467009	0.570481	-0.741059
O14	O	1.295105	0.570534	-0.570717
O15	O	1.597266	0.441440	-0.741095
O16	O	1.597085	0.740927	-0.441674
O17	O	1.466906	0.740868	-0.570709
C18	C	1.256644	0.506032	-0.506199
C19	C	1.138814	0.506049	-0.506211
C20	C	1.532011	0.779019	-0.506208
C21	C	1.532081	0.895795	-0.506234
C22	C	1.093902	0.424769	-0.425171
C23	C	0.971342	0.424469	-0.425449
C24	C	0.970982	0.476513	-0.617119
C25	C	1.093580	0.475906	-0.616612
C26	C	1.093605	0.617108	-0.477389
C27	C	0.970998	0.616528	-0.474985
C28	C	1.532148	0.505945	-0.780264
C29	C	1.532180	0.505900	-0.897040
C30	C	1.808579	0.506071	-0.506262
C31	C	1.926409	0.506080	-0.506275
C32	C	1.532166	0.232018	-0.506275
C33	C	1.532205	0.115241	-0.506294
C34	C	1.599941	0.950653	-0.439120
C35	C	1.600006	1.060377	-0.439152
C36	C	1.464343	1.060376	-0.573416
C37	C	1.464284	0.950654	-0.573388
C38	C	1.667738	0.895795	-0.371966
C39	C	1.735602	0.950653	-0.304845
C40	C	1.735667	1.060377	-0.304877
C41	C	1.667868	1.115243	-0.372030
C42	C	1.600014	0.438702	-0.951923
C43	C	1.600040	0.438664	-1.061647
C44	C	1.464393	0.573031	-1.061596
C45	C	1.464363	0.573063	-0.951874
C46	C	1.667831	0.371539	-0.897089
C47	C	1.735672	0.304337	-0.951972
C48	C	1.735697	0.304299	-1.061696
C49	C	1.667881	0.371464	-1.116537
C50	C	1.532061	0.506081	-0.233263
C51	C	1.532235	0.505830	-0.116487
H52	H	1.123307	0.443004	-0.342717
C53	C	1.694604	0.738504	-0.471885
C54	C	1.667657	0.775186	-0.371930
H55	H	1.694542	0.664046	-0.471861
H56	H	1.763019	0.763239	-0.490105
H57	H	1.644514	0.763339	-0.521475
H58	H	1.717752	0.750357	-0.322341
H59	H	1.599233	0.750440	-0.353697
H60	H	1.409180	0.627713	-1.106257
H61	H	0.940403	0.680301	-0.529673
H62	H	0.941861	0.638831	-0.393409
H63	H	1.122647	0.677660	-0.536415
C64	C	1.787314	0.916983	-0.126976
C65	C	1.810126	0.890351	-0.231034
H66	H	1.833329	0.879760	-0.081410
H67	H	1.716093	0.899069	-0.111540
H68	H	1.797068	0.990183	-0.117406
H69	H	1.800365	0.817152	-0.240606
H70	H	1.881364	0.908258	-0.246475
C71	C	1.330330	0.705921	-0.962837
C72	C	1.389828	0.646956	-0.891539
H73	H	1.284325	0.751549	-0.925585
H74	H	1.289785	0.660140	-1.005624
H75	H	1.376534	0.746077	-1.005642
H76	H	1.343625	0.606794	-0.848738
H77	H	1.430376	0.692743	-0.848733
C78	C	1.915237	1.093962	-0.253898
C79	C	1.810298	1.120638	-0.231106
H80	H	1.961317	1.131148	-0.208345
H81	H	1.930711	1.111892	-0.324496
H82	H	1.924852	1.020755	-0.244292
H83	H	1.800681	1.193845	-0.240719
H84	H	1.794819	1.102716	-0.160491
C85	C	1.878316	0.289670	-1.185123
C86	C	1.810253	0.230427	-1.122031
H87	H	1.924341	0.244062	-1.222375
H88	H	1.918841	0.335451	-1.142316
H89	H	1.837923	0.329662	-1.233478
H90	H	1.850646	0.190441	-1.073671
H91	H	1.769725	0.184628	-1.164842
H92	H	1.123296	0.532557	-0.679084
C93	C	1.566979	0.344879	-0.739865
C94	C	1.667816	0.371636	-0.776480
H95	H	1.566975	0.344965	-0.665407
H96	H	1.548691	0.277057	-0.764644
H97	H	1.516888	0.394483	-0.764702
H98	H	1.717906	0.322027	-0.751649
H99	H	1.686117	0.439468	-0.751690
C100	C	1.094946	0.343350	-0.750242
C101	C	1.132215	0.366334	-0.649495
H102	H	1.118790	0.275700	-0.770537
H103	H	1.120933	0.394045	-0.798260
H104	H	1.019836	0.344699	-0.750249
H105	H	1.207326	0.364992	-0.649491
H106	H	1.106233	0.315625	-0.601466
H107	H	1.667935	1.204588	-0.372060
H108	H	1.124724	0.342943	-0.444060
H109	H	0.942028	0.342184	-0.444589
H110	H	1.409143	1.105056	-0.628088
H111	H	0.941201	0.442916	-0.343273
H112	H	0.941884	0.533913	-0.679177
H113	H	1.667895	0.371415	-1.205882
H114	H	1.409028	0.905988	-0.628040
C115	C	1.750420	0.163060	-0.828611
C116	C	1.810206	0.230507	-0.891695
H117	H	1.796437	0.117482	-0.791397
H118	H	1.704266	0.122859	-0.871418
H119	H	1.710025	0.203099	-0.780223
H120	H	1.850596	0.190467	-0.940088
H121	H	1.856379	0.270711	-0.848884
C122	C	0.871909	0.377862	-0.743762
C123	C	0.929565	0.368156	-0.650600
H124	H	0.846336	0.310965	-0.764422
H125	H	0.916365	0.405251	-0.797144
H126	H	0.813910	0.423940	-0.732893
H127	H	0.987569	0.322083	-0.661471
H128	H	0.885106	0.340752	-0.597207
H129	H	1.124473	0.644103	-0.397906
