data_functionalizedCrystal
_audit_creation_method	'MofGen! by Chris Wilmer'
_symmetry_space_group_name_H-M	'P1'
_symmetry_Int_Tables_number	1
_symmetry_cell_setting	triclinic
loop_
_symmetry_equiv_pos_as_xyz
  x,y,z
_cell_length_a	16.120484
_cell_length_b	12.759401
_cell_length_c	12.759393
_cell_angle_alpha	90.017380
_cell_angle_beta	92.862621
_cell_angle_gamma	87.074440
loop_
_atom_site_label
_atom_site_type_symbol
_atom_site_fract_x
_atom_site_fract_y
_atom_site_fract_z
Zn1	Zn	-0.331851	-1.584960	-0.615146
Zn2	Zn	-0.471289	-1.575915	-0.448359
Zn3	Zn	-0.331895	-1.409262	-0.439488
Zn4	Zn	-0.471225	-1.400312	-0.623996
O5	O	-0.401565	-1.492612	-0.531747
O6	O	-0.350357	-1.730780	-0.593029
O7	O	-0.452844	-1.553768	-0.300164
O8	O	-0.215224	-1.440101	-0.455373
O9	O	-0.452801	-1.724135	-0.470492
O10	O	-0.215192	-1.569185	-0.584428
O11	O	-0.350432	-1.431330	-0.293646
O12	O	-0.350369	-1.261055	-0.463955
O13	O	-0.452691	-1.424845	-0.769840
O14	O	-0.452734	-1.254478	-0.599512
O15	O	-0.350294	-1.560505	-0.763338
O16	O	-0.587946	-1.545089	-0.479074
O17	O	-0.587899	-1.416074	-0.608114
C18	C	-0.401550	-1.219646	-0.531732
C19	C	-0.401563	-1.102868	-0.531751
C20	C	-0.618172	-1.478657	-0.545539
C21	C	-0.710838	-1.472783	-0.551475
C22	C	-0.401480	-1.492686	-0.805775
C23	C	-0.401444	-1.492717	-0.922549
C24	C	-0.880498	-1.462065	-0.562333
C25	C	-0.921791	-1.523347	-0.501178
C26	C	-1.016197	-1.517384	-0.507219
C27	C	-0.786085	-1.468028	-0.556293
C28	C	-0.184112	-1.506650	-0.517924
C29	C	-0.091447	-1.512632	-0.512033
C30	C	-0.401581	-1.766644	-0.531763
C31	C	-0.401588	-1.883421	-0.531770
C32	C	-0.454950	-1.044604	-0.602230
C33	C	-0.454961	-0.934879	-0.602242
C34	C	-0.348196	-0.941693	-0.461287
C35	C	-0.348181	-1.051416	-0.461281
C36	C	-0.508332	-1.096056	-0.672701
C37	C	-0.561724	-1.037792	-0.743185
C38	C	-0.561734	-0.928067	-0.743197
C39	C	-0.508353	-0.876607	-0.672725
C40	C	-0.348108	-1.428993	-0.974023
C41	C	-0.348083	-1.429026	-1.083746
C42	C	-0.454733	-1.556517	-1.090511
C43	C	-0.454761	-1.556478	-0.980791
C44	C	-0.294791	-1.365232	-0.915782
C45	C	-0.241450	-1.301503	-0.967256
C46	C	-0.241426	-1.301536	-1.076978
C47	C	-0.294742	-1.365299	-1.135227
C48	C	-0.401590	-1.492603	-0.258781
C49	C	-0.401391	-1.492790	-0.141992
H50	H	-0.886243	-1.580290	-0.444282
H51	H	-0.498138	-1.608432	-1.137946
N52	N	-0.294717	-1.365326	-1.253571
H53	H	-0.279393	-1.438394	-1.279033
H54	H	-0.351914	-1.342282	-1.283541
N55	N	-0.927580	-1.386627	-0.637678
H56	H	-0.886871	-1.346551	-0.677651
H57	H	-0.963650	-1.427125	-0.688600
N58	N	-0.619293	-1.093287	-0.819195
H59	H	-0.611188	-1.171638	-0.808492
H60	H	-0.678820	-1.070271	-0.806506
N61	N	-0.508326	-1.214400	-0.672680
H62	H	-0.550244	-1.238156	-0.728014
H63	H	-0.451124	-1.244438	-0.688438
H64	H	-0.605202	-0.880631	-0.800595
H65	H	-0.508359	-0.787262	-0.672749
N66	N	-0.512291	-1.625205	-0.925268
H67	H	-0.546056	-1.665606	-0.978815
H68	H	-0.478373	-1.676001	-0.877586
N69	N	-0.290639	-0.886194	-0.385265
H70	H	-0.298755	-0.807843	-0.395956
H71	H	-0.303557	-0.904527	-0.311032
H72	H	-0.294804	-1.365200	-0.826440
N73	N	-0.290600	-1.114268	-0.385269
H74	H	-0.256789	-1.065025	-0.340622
H75	H	-0.324485	-1.157599	-0.338735
H76	H	-0.197998	-1.249638	-1.118885
N77	N	-0.183955	-1.232724	-0.904439
H78	H	-0.192062	-1.242372	-0.827120
H79	H	-0.124410	-1.252927	-0.919841
