data_functionalizedCrystal
_audit_creation_method	'MofGen! by Chris Wilmer'
_symmetry_space_group_name_H-M	'P1'
_symmetry_Int_Tables_number	1
_symmetry_cell_setting	triclinic
loop_
_symmetry_equiv_pos_as_xyz
  x,y,z
_cell_length_a	14.044202
_cell_length_b	12.503572
_cell_length_c	17.699083
_cell_angle_alpha	86.484775
_cell_angle_beta	91.762142
_cell_angle_gamma	86.162225
loop_
_atom_site_label
_atom_site_type_symbol
_atom_site_fract_x
_atom_site_fract_y
_atom_site_fract_z
O1	O	-1.262759	0.089270	0.178468
O2	O	-0.762759	0.589270	0.678468
O3	O	-0.986806	0.089284	0.171877
O4	O	-0.486806	0.589284	0.671877
O5	O	-1.132578	0.089267	0.065522
O6	O	-0.632578	0.589267	0.565522
O7	O	-1.116987	0.089287	0.284823
O8	O	-0.616987	0.589287	0.784823
O9	O	-1.121615	-0.089374	0.073535
O10	O	-0.621615	0.410626	0.573535
O11	O	-0.975843	-0.089357	0.179890
O12	O	-0.475843	0.410643	0.679890
O13	O	-1.251796	-0.089371	0.186481
O14	O	-0.751796	0.410629	0.686481
Cu15	Cu	-1.112818	-0.105675	0.183917
Cu16	Cu	-0.612818	0.394325	0.683917
Cu17	Cu	-1.125783	0.105588	0.174441
Cu18	Cu	-0.625783	0.605588	0.674441
O19	O	-1.106024	-0.089354	0.292836
O20	O	-0.606024	0.410646	0.792836
C21	C	-1.126538	-0.000053	0.041293
C22	C	-0.626538	0.499947	0.541293
C23	C	-1.124862	-0.000054	-0.042841
C24	C	-0.624862	0.499946	0.457159
C25	C	-0.946017	-0.000035	0.173001
C26	C	-0.446017	0.499965	0.673001
C27	C	-0.840811	-0.000030	0.164402
C28	C	-0.340811	0.499970	0.664402
N29	N	-1.103706	-0.254266	0.190582
N30	N	-0.603706	0.245734	0.690582
C31	C	-0.590420	-0.000036	0.209661
C32	C	-0.090420	0.499964	0.709661
C33	C	-0.648189	-0.000040	0.148694
C34	C	-0.148189	0.499960	0.648694
C35	C	-0.755374	-0.000034	0.157436
C36	C	-0.255374	0.499966	0.657436
C37	C	-0.483225	-0.000041	0.200920
C38	C	0.016775	0.499959	0.700920
C39	C	-0.292586	-0.000049	0.185356
C40	C	0.207414	0.499951	0.685356
C41	C	-0.397793	-0.000046	0.193950
C42	C	0.102207	0.499954	0.693950
C43	C	-1.090302	-0.473380	0.200394
C44	C	-0.590302	0.026620	0.700394
C45	C	-1.148304	-0.526714	0.157962
C46	C	-0.648304	-0.026714	0.657962
C47	C	-1.140846	-0.648636	0.163421
C48	C	-0.640846	-0.148636	0.663421
C49	C	-1.097759	-0.351447	0.194935
C50	C	-0.597759	0.148553	0.694935
N51	N	-1.134903	0.254179	0.167770
N52	N	-0.634903	0.754179	0.667770
C53	C	-1.210427	-0.000060	-0.085557
C54	C	-0.710427	0.499940	0.414443
C55	C	-1.208847	-0.000050	-0.164610
C56	C	-0.708847	0.499950	0.335390
C57	C	-1.121700	-0.000042	-0.200945
C58	C	-0.621700	0.499958	0.299055
C59	C	-1.036128	-0.000033	-0.158223
C60	C	-0.536128	0.499967	0.341777
C61	C	-1.037710	-0.000035	-0.079172
C62	C	-0.537710	0.499965	0.420828
C63	C	-1.029749	-0.000024	-0.477027
C64	C	-0.529749	0.499976	0.022973
C65	C	-1.028174	-0.000025	-0.556083
C66	C	-0.528174	0.499975	-0.056083
C67	C	-1.200886	-0.000039	-0.562464
C68	C	-0.700886	0.499961	-0.062464
C69	C	-1.202468	-0.000041	-0.483413
C70	C	-0.702468	0.499959	0.016587
C71	C	-1.116897	-0.000026	-0.440699
C72	C	-0.616897	0.499974	0.059301
C73	C	-1.118611	-0.000035	-0.354981
C74	C	-0.618611	0.499965	0.145019
C75	C	-1.119984	-0.000042	-0.286661
C76	C	-0.619984	0.499958	0.213339
C77	C	-1.112064	-0.000031	0.317065
C78	C	-0.612064	0.499969	0.817065
C79	C	-1.113741	-0.000024	0.401199
C80	C	-0.613741	0.499976	0.901199
H81	H	-0.617153	0.000031	0.089930
H82	H	-0.117153	0.500031	0.589930
H83	H	-0.957204	-0.000021	-0.585665
H84	H	-0.457204	0.499979	-0.085665
H85	H	-0.621459	-0.000027	0.268417
H86	H	-0.121459	0.499973	0.768417
Br87	Br	-1.240805	-0.450207	0.090927
Br88	Br	-0.740805	0.049793	0.590927
H89	H	-1.035048	-0.519281	0.240818
H90	H	-0.535048	-0.019281	0.740818
Br91	Br	-1.328704	-0.000086	-0.036252
Br92	Br	-0.828704	0.499914	0.463748
Br93	Br	-1.324977	-0.000058	-0.222579
Br94	Br	-0.824977	0.499942	0.277421
H95	H	-1.273431	-0.000053	-0.453833
H96	H	-0.773431	0.499947	0.046167
H97	H	-1.270563	-0.000046	-0.597252
H98	H	-0.770563	0.499954	-0.097252
Br99	Br	-0.913617	0.000003	-0.419067
Br100	Br	-0.413617	0.500003	0.080933
Br101	Br	-0.917857	-0.000005	-0.207535
Br102	Br	-0.417857	0.499995	0.292465
Br103	Br	-0.921581	-0.000019	-0.021200
Br104	Br	-0.421581	0.499981	0.478800
