data_functionalizedCrystal
_audit_creation_method	'MofGen! by Chris Wilmer'
_symmetry_space_group_name_H-M	'P1'
_symmetry_Int_Tables_number	1
_symmetry_cell_setting	triclinic
loop_
_symmetry_equiv_pos_as_xyz
  x,y,z
_cell_length_a	10.654550
_cell_length_b	15.995350
_cell_length_c	9.130313
_cell_angle_alpha	89.997713
_cell_angle_beta	89.999724
_cell_angle_gamma	83.988653
loop_
_atom_site_label
_atom_site_type_symbol
_atom_site_fract_x
_atom_site_fract_y
_atom_site_fract_z
O1	O	1.666303	0.117603	-0.121682
O2	O	1.300678	0.128807	-0.121708
O3	O	1.493485	0.001375	-0.121693
O4	O	1.473496	0.245034	-0.121697
O5	O	1.493472	0.001371	0.121906
O6	O	1.300665	0.128803	0.121891
O7	O	1.666290	0.117599	0.121917
Cu8	Cu	1.483476	0.123201	0.144146
Cu9	Cu	1.483492	0.123205	-0.143938
O10	O	1.473483	0.245031	0.121902
C11	C	1.253884	0.127982	0.000088
C12	C	1.114473	0.125521	0.000078
C13	C	1.034008	0.200551	0.000080
C14	C	0.903017	0.198233	0.000106
C15	C	0.932971	0.045849	0.000120
C16	C	1.063959	0.048168	0.000105
C17	C	1.492652	-0.029826	0.000103
C18	C	1.490175	-0.122791	0.000095
C19	C	1.481277	-0.460590	0.000099
C20	C	1.343964	-0.413954	-0.000457
C21	C	1.346442	-0.317249	0.000092
C22	C	1.485691	-0.293004	0.000096
C23	C	1.553411	-0.333690	0.139205
C24	C	1.549962	-0.430346	0.139322
C25	C	1.552813	-0.430684	-0.137696
C26	C	1.552781	-0.333738	-0.139534
C27	C	1.488192	-0.198292	0.000100
C28	C	1.478780	-0.555303	0.000106
C29	C	1.713084	0.118423	0.000118
C30	C	1.852495	0.120885	0.000118
C31	C	1.474316	0.276232	0.000102
C32	C	1.476793	0.369197	0.000101
N33	N	1.483475	0.123197	0.346769
N34	N	1.483504	0.123202	-0.346560
C35	C	1.568878	0.066794	0.423427
C36	C	1.568890	0.066794	0.576764
C37	C	1.398091	0.179608	0.576770
C38	C	1.398074	0.179603	0.423436
H39	H	0.837506	0.259330	0.000111
H40	H	0.891826	-0.017129	0.000150
H41	H	1.129478	-0.012934	0.000106
H42	H	1.293209	-0.289135	-0.099627
C43	C	1.269816	-0.439426	-0.135215
N44	N	1.213964	-0.458621	-0.236717
C45	C	1.270154	-0.440828	0.133581
N46	N	1.214569	-0.461063	0.234552
H47	H	1.292840	-0.289697	0.099974
C48	C	1.662811	0.004740	0.339098
N49	N	1.733560	-0.042004	0.275586
C50	C	1.662831	0.004740	0.661082
N51	N	1.733587	-0.042005	0.724589
C52	C	1.304176	0.241692	0.339107
N53	N	1.233474	0.288468	0.275590
C54	C	1.483220	-0.455461	0.279789
N55	N	1.432943	-0.474373	0.385590
C56	C	1.304153	0.241649	0.661119
N57	N	1.233396	0.288379	0.724649
C58	C	1.686152	-0.473123	0.147875
N59	N	1.788730	-0.505339	0.154327
C60	C	1.089568	0.285641	0.000069
N61	N	1.131413	0.349734	0.000068
H62	H	1.506365	-0.305584	0.242723
C63	C	1.691609	-0.313789	0.146222
N64	N	1.795697	-0.298791	0.151511
C65	C	1.492166	-0.458777	-0.280136
N66	N	1.446472	-0.479936	-0.387415
C67	C	1.485955	-0.297265	-0.278566
N68	N	1.435610	-0.269795	-0.383282
H69	H	1.654327	-0.317787	-0.147930
C70	C	1.689581	-0.472802	-0.138962
N71	N	1.792590	-0.504530	-0.139906
