data_functionalizedCrystal
_audit_creation_method	'MofGen! by Chris Wilmer'
_symmetry_space_group_name_H-M	'P1'
_symmetry_Int_Tables_number	1
_symmetry_cell_setting	triclinic
loop_
_symmetry_equiv_pos_as_xyz
  x,y,z
_cell_length_a	16.992695
_cell_length_b	16.109302
_cell_length_c	15.186229
_cell_angle_alpha	89.994701
_cell_angle_beta	89.995943
_cell_angle_gamma	87.065002
loop_
_atom_site_label
_atom_site_type_symbol
_atom_site_fract_x
_atom_site_fract_y
_atom_site_fract_z
O1	O	0.100786	1.109856	-0.073269
O2	O	0.434120	1.443189	0.260064
O3	O	0.767453	1.776522	0.593397
O4	O	0.113328	0.868631	-0.073263
O5	O	0.446662	1.201964	0.260071
O6	O	0.779995	1.535297	0.593404
O7	O	-0.007085	0.988276	-0.073259
O8	O	0.326248	1.321610	0.260074
O9	O	0.659582	1.654943	0.593408
O10	O	0.221200	0.990210	-0.073273
O11	O	0.554533	1.323544	0.260060
O12	O	0.887866	1.656877	0.593394
O13	O	-0.007087	0.988268	0.073198
O14	O	0.326247	1.321601	0.406532
O15	O	0.659580	1.654934	0.739865
O16	O	0.113327	0.868622	0.073195
O17	O	0.446660	1.201955	0.406528
O18	O	0.779993	1.535289	0.739861
O19	O	0.100785	1.109847	0.073188
O20	O	0.434118	1.443180	0.406521
O21	O	0.767451	1.776514	0.739855
Zn22	Zn	0.107055	0.989233	0.096445
Zn23	Zn	0.440389	1.322567	0.429778
Zn24	Zn	0.773722	1.655900	0.763111
Zn25	Zn	0.107058	0.989245	-0.096519
Zn26	Zn	0.440391	1.322578	0.236814
Zn27	Zn	0.773724	1.655911	0.570147
O28	O	0.221198	0.990202	0.073184
O29	O	0.554531	1.323535	0.406518
O30	O	0.887865	1.656868	0.739851
C31	C	0.112819	0.837618	-0.000033
C32	C	0.446153	1.170951	0.333300
C33	C	0.779486	1.504284	0.666634
C34	C	0.111296	0.745221	-0.000030
C35	C	0.444629	1.078554	0.333303
C36	C	0.777962	1.411887	0.666636
C37	C	0.107772	0.532640	0.079795
C38	C	0.441106	0.865973	0.413128
C39	C	0.774439	1.199307	0.746462
C40	C	0.106332	0.445824	0.079792
C41	C	0.439666	0.779157	0.413125
C42	C	0.772999	1.112491	0.746459
C43	C	0.106338	0.445844	-0.079884
C44	C	0.439672	0.779177	0.253450
C45	C	0.773005	1.112511	0.586783
C46	C	0.107773	0.532659	-0.079880
C47	C	0.441106	0.865992	0.253454
C48	C	0.774439	1.199326	0.586787
C49	C	0.108493	0.576054	-0.000038
C50	C	0.441827	0.909388	0.333296
C51	C	0.775160	1.242721	0.666629
C52	C	0.105619	0.402423	-0.000045
C53	C	0.438953	0.735757	0.333289
C54	C	0.772286	1.069090	0.666622
C55	C	0.104058	0.308293	-0.000048
C56	C	0.437392	0.641627	0.333285
C57	C	0.770725	0.974960	0.666618
C58	C	0.110053	0.670190	-0.000034
C59	C	0.443387	1.003524	0.333300
C60	C	0.776720	1.336857	0.666633
C61	C	-0.036298	0.985784	-0.000030
C62	C	0.297035	1.319117	0.333303
C63	C	0.630369	1.652451	0.666636
C64	C	-0.123340	0.978360	-0.000030
C65	C	0.209993	1.311694	0.333303
C66	C	0.543327	1.645027	0.666636
C67	C	-0.173599	1.049986	-0.000031
C68	C	0.159735	1.383320	0.333302
C69	C	0.493068	1.716653	0.666635
C70	C	-0.255384	1.043006	-0.000040
C71	C	0.077950	1.376340	0.333294
C72	C	0.411283	1.709673	0.666627
C73	C	-0.286908	0.964400	-0.000040
C74	C	0.046425	1.297733	0.333293
C75	C	0.379758	1.631066	0.666626
C76	C	-0.236643	0.892768	-0.000042
C77	C	0.096690	1.226102	0.333291
C78	C	0.430024	1.559435	0.666625
C79	C	-0.154860	0.899749	-0.000040
C80	C	0.178473	1.233082	0.333293
C81	C	0.511807	1.566416	0.666627
C82	C	-0.530499	0.935467	-0.000052
C83	C	-0.197165	1.268800	0.333282
C84	C	0.136168	1.602133	0.666615
C85	C	-0.612288	0.928491	-0.000051
C86	C	-0.278955	1.261825	0.333282
C87	C	0.054378	1.595158	0.666616
C88	C	-0.631023	1.078730	-0.000050
C89	C	-0.297690	1.412064	0.333283
C90	C	0.035644	1.745397	0.666616
C91	C	-0.549237	1.085704	-0.000043
C92	C	-0.215904	1.419038	0.333290
C93	C	0.117429	1.752371	0.666624
C94	C	-0.498980	1.014073	-0.000049
C95	C	-0.165646	1.347406	0.333284
C96	C	0.167687	1.680740	0.666617
N97	N	-0.370505	0.957263	-0.000046
N98	N	-0.037172	1.290596	0.333287
N99	N	0.296161	1.623930	0.666621
N100	N	-0.415384	1.021210	-0.000050
N101	N	-0.082051	1.354544	0.333283
N102	N	0.251283	1.687877	0.666617
C103	C	0.250411	0.992694	-0.000046
C104	C	0.583744	1.326027	0.333287
C105	C	0.917077	1.659361	0.666620
C106	C	0.337453	1.000117	-0.000052
C107	C	0.670786	1.333451	0.333281
C108	C	1.004120	1.666784	0.666615
C109	C	0.101294	1.140860	-0.000044
C110	C	0.434627	1.474193	0.333290
C111	C	0.767960	1.807527	0.666623
C112	C	0.102817	1.233257	-0.000052
C113	C	0.436150	1.566590	0.333281
C114	C	0.769484	1.899924	0.666615
N115	N	0.107053	0.989231	0.228137
N116	N	0.440387	1.322565	0.561471
N117	N	0.773720	1.655898	0.894804
N118	N	0.107053	0.989252	-0.228212
N119	N	0.440387	1.322586	0.105121
N120	N	0.773720	1.655919	0.438455
C121	C	0.053752	1.042231	0.453862
C122	C	0.387086	1.375564	0.787195
C123	C	0.720419	1.708898	1.120528
C124	C	0.053750	1.042233	0.546051
C125	C	0.387084	1.375567	0.879385
C126	C	0.720417	1.708900	1.212718
C127	C	0.160357	0.936247	0.546057
C128	C	0.493690	1.269581	0.879391
C129	C	0.827024	1.602914	1.212724
C130	C	0.160354	0.936241	0.453869
C131	C	0.493688	1.269574	0.787203
C132	C	0.827021	1.602908	1.120536
C133	C	0.107053	0.989238	0.407774
C134	C	0.440386	1.322571	0.741107
C135	C	0.773720	1.655904	1.074441
C136	C	0.107054	0.989246	0.592151
C137	C	0.440387	1.322580	0.925485
C138	C	0.773720	1.655913	1.258818
C139	C	0.107052	0.989249	0.692108
C140	C	0.440385	1.322582	1.025441
C141	C	0.773719	1.655915	1.358774
C142	C	0.107053	0.989234	0.307811
C143	C	0.440387	1.322568	0.641145
C144	C	0.773720	1.655901	0.974478
H145	H	-0.147938	1.113997	-0.000025
H146	H	0.185395	1.447330	0.333308
H147	H	0.518728	1.780663	0.666641
F148	F	-0.002978	1.098632	0.404807
F149	F	0.330355	1.431966	0.738140
F150	F	0.663689	1.765299	1.071474
H151	H	-0.296301	1.101332	-0.000039
H152	H	0.037032	1.434666	0.333295
H153	H	0.370365	1.767999	0.666628
H154	H	-0.489588	0.877139	-0.000057
H155	H	-0.156255	1.210472	0.333277
H156	H	0.177079	1.543806	0.666610
F157	F	-0.515693	1.169368	-0.000065
F158	F	-0.182360	1.502702	0.333269
F159	F	0.150974	1.836035	0.666602
H160	H	0.108358	0.568008	-0.144893
H161	H	0.441691	0.901341	0.188440
H162	H	0.775024	1.234675	0.521773
F163	F	-0.002981	1.098634	0.595098
F164	F	0.330353	1.431967	0.928432
F165	F	0.663686	1.765301	1.261765
F166	F	-0.684516	1.154960	-0.000045
F167	F	-0.351183	1.488293	0.333288
F168	F	-0.017849	1.821627	0.666622
F169	F	0.217084	0.879849	0.595121
F170	F	0.550417	1.213182	0.928454
F171	F	0.883750	1.546516	1.261788
H172	H	0.203759	0.893084	0.416342
H173	H	0.537092	1.226417	0.749675
H174	H	0.870425	1.559750	1.083009
F175	F	0.108536	0.578822	0.164770
F176	F	0.441870	0.912155	0.498103
F177	F	0.775203	1.245489	0.831437
F178	F	0.105566	0.399623	0.164761
F179	F	0.438899	0.732956	0.498095
F180	F	0.772232	1.066289	0.831428
F181	F	-0.270196	0.809108	-0.000053
F182	F	0.063137	1.142442	0.333281
F183	F	0.396471	1.475775	0.666614
H184	H	-0.637952	0.864477	-0.000037
H185	H	-0.304618	1.197810	0.333296
H186	H	0.028715	1.531144	0.666629
H187	H	0.105752	0.410501	-0.144888
H188	H	0.439086	0.743834	0.188445
H189	H	0.772419	1.077167	0.521779
H190	H	-0.113939	0.841423	-0.000039
H191	H	0.219394	1.174757	0.333294
H192	H	0.552727	1.508090	0.666627
