data_functionalizedCrystal
_audit_creation_method	'MofGen! by Chris Wilmer'
_symmetry_space_group_name_H-M	'P1'
_symmetry_Int_Tables_number	1
_symmetry_cell_setting	triclinic
loop_
_symmetry_equiv_pos_as_xyz
  x,y,z
_cell_length_a	13.930277
_cell_length_b	14.853567
_cell_length_c	14.853567
_cell_angle_alpha	96.365070
_cell_angle_beta	90.009495
_cell_angle_gamma	90.004156
loop_
_atom_site_label
_atom_site_type_symbol
_atom_site_fract_x
_atom_site_fract_y
_atom_site_fract_z
O1	O	-0.079756	-1.196370	0.117690
O2	O	-0.079772	-0.933910	0.131711
O3	O	-0.079767	-1.072151	-0.006529
O4	O	-0.079762	-1.058129	0.255930
O5	O	0.079895	-1.072129	-0.006505
O6	O	0.079890	-0.933888	0.131735
O7	O	0.079905	-1.196348	0.117714
Zn8	Zn	0.105247	-1.065115	0.124729
Zn9	Zn	-0.105114	-1.065143	0.124697
O10	O	0.079900	-1.058107	0.255955
C11	C	0.000057	-0.900311	0.131088
C12	C	0.000051	-0.800227	0.129184
N13	N	0.248814	-1.065101	0.124750
C14	C	0.000061	-1.071504	-0.040106
C15	C	0.000053	-1.069601	-0.140189
C16	C	0.701077	-1.119891	0.179475
C17	C	0.701058	-1.010407	0.069912
C18	C	0.600562	-1.010394	0.069925
C19	C	0.550319	-1.065132	0.124712
C20	C	0.600572	-1.119882	0.179487
C21	C	0.550302	-0.955652	0.015144
C22	C	0.449800	-0.955638	0.015154
C23	C	0.399555	-1.010371	0.069947
C24	C	0.449814	-1.065123	0.124725
C25	C	0.399571	-1.119860	0.179512
C26	C	0.449829	-1.174608	0.234296
C27	C	0.550328	-1.174615	0.234280
C28	C	0.299056	-1.010364	0.069962
C29	C	0.299066	-1.119851	0.179525
N30	N	0.751320	-1.065153	0.124687
C31	C	0.000075	-1.229947	0.118337
C32	C	0.000075	-1.330031	0.120241
C33	C	0.000070	-0.387693	0.039019
C34	C	0.000073	-0.366412	0.203251
C35	C	0.000070	-0.460446	0.205042
C36	C	0.000066	-0.518108	0.123819
C37	C	0.000065	-0.481736	0.040806
C38	C	0.000061	-0.496825	0.288053
C39	C	0.000057	-0.590864	0.289846
C40	C	0.000060	-0.648528	0.208623
C41	C	0.000060	-0.612150	0.125607
C42	C	0.000056	-0.669812	0.044384
C43	C	0.000063	-0.633437	-0.038633
C44	C	0.000067	-0.539399	-0.040417
C45	C	0.000055	-0.742565	0.210407
C46	C	0.000050	-0.763855	0.046172
C47	C	0.000066	-0.979435	-0.552723
C48	C	0.000076	-1.143668	-0.574004
C49	C	0.000070	-1.145458	-0.479970
C50	C	0.000064	-1.064235	-0.422309
C51	C	0.000063	-0.981223	-0.458680
C52	C	0.000080	-1.228469	-0.443591
C53	C	0.000076	-1.230262	-0.349552
C54	C	0.000063	-1.149039	-0.291889
C55	C	0.000061	-1.066023	-0.328266
C56	C	0.000055	-0.984800	-0.270604
C57	C	0.000047	-0.901783	-0.306979
C58	C	0.000050	-0.899999	-0.401017
C59	C	0.000059	-1.150823	-0.197851
C60	C	0.000052	-0.986588	-0.176561
C61	C	0.000070	-1.058754	0.289531
C62	C	0.000072	-1.060657	0.389615
H63	H	0.258166	-1.164421	0.224144
F64	F	0.000038	-0.811654	-0.439737
F65	F	0.000051	-0.629569	0.378199
F66	F	0.245573	-0.952116	0.011648
F67	F	0.000071	-0.500679	-0.128762
F68	F	0.000051	-0.435454	0.374489
H69	H	0.742001	-1.164462	0.224081
F70	F	0.000082	-0.348980	-0.049330
H71	H	0.000072	-1.218414	-0.168238
F72	F	0.000049	-0.891087	-0.591436
H73	H	0.000088	-1.209795	-0.620958
H74	H	0.000094	-1.294596	-0.490546
F75	F	0.000040	-0.781275	0.298753
F76	F	0.603821	-1.232874	0.292581
F77	F	0.000052	-0.825217	-0.040279
H78	H	0.408908	-1.219179	0.278900
H79	H	0.000043	-0.920445	-0.129618
F80	F	0.000051	-0.694815	-0.125073
H81	H	0.000082	-1.297860	-0.319944
H82	H	0.741972	-0.965848	0.025300
H83	H	0.000048	-0.835652	-0.260019
F84	F	0.000065	-0.305043	0.289689
H85	H	0.591217	-0.911096	-0.029469
H86	H	0.408889	-0.911059	-0.029454
