data_functionalizedCrystal
_audit_creation_method	'MofGen! by Chris Wilmer'
_symmetry_space_group_name_H-M	'P1'
_symmetry_Int_Tables_number	1
_symmetry_cell_setting	triclinic
loop_
_symmetry_equiv_pos_as_xyz
  x,y,z
_cell_length_a	15.298068
_cell_length_b	12.594516
_cell_length_c	15.296720
_cell_angle_alpha	80.350397
_cell_angle_beta	91.645182
_cell_angle_gamma	99.672199
loop_
_atom_site_label
_atom_site_type_symbol
_atom_site_fract_x
_atom_site_fract_y
_atom_site_fract_z
Zn1	Zn	1.253424	-0.316629	0.727384
Zn2	Zn	1.278707	-0.459576	0.580924
Zn3	Zn	1.132303	-0.306287	0.555550
Zn4	Zn	1.106945	-0.519245	0.701952
O5	O	1.192845	-0.400434	0.641453
O6	O	1.379351	-0.314948	0.729219
O7	O	1.280479	-0.409942	0.454995
O8	O	1.148401	-0.158712	0.578369
O9	O	1.397926	-0.419971	0.621615
O10	O	1.237389	-0.166310	0.704615
O11	O	1.172917	-0.297322	0.436353
O12	O	1.006366	-0.355180	0.553708
O13	O	1.105182	-0.521667	0.827889
O14	O	0.987736	-0.511639	0.661269
O15	O	1.212800	-0.372807	0.846574
O16	O	1.255891	-0.616439	0.596954
O17	O	1.129698	-0.660277	0.685873
C18	C	0.965269	-0.438763	0.601976
C19	C	0.867908	-0.455191	0.585108
C20	C	0.554719	-0.283291	0.762011
C21	C	0.646194	-0.267860	0.777864
C22	C	0.701627	-0.314691	0.729676
C23	C	0.665576	-0.376956	0.665633
C24	C	0.574091	-0.392395	0.649783
C25	C	0.720999	-0.423795	0.617448
C26	C	0.684948	-0.486060	0.553405
C27	C	0.593472	-0.501496	0.537558
C28	C	0.538039	-0.454665	0.585746
C29	C	0.812483	-0.408356	0.633298
C30	C	0.831856	-0.517460	0.521071
C31	C	0.740380	-0.532891	0.505218
C32	C	1.192807	-0.676979	0.641430
C33	C	1.192866	-0.795279	0.641464
C34	C	1.261559	-0.840653	0.593176
C35	C	1.269121	-0.926889	0.676824
C36	C	1.185404	-0.919836	0.557885
C37	C	1.200461	-0.879959	0.725162
C38	C	1.116717	-0.872894	0.606162
C39	C	1.124239	-0.959116	0.689861
C40	C	1.421309	-0.361957	0.681085
C41	C	1.518667	-0.345561	0.697973
C42	C	1.153342	-0.455046	0.869899
C43	C	1.136509	-0.478319	0.967250
C44	C	1.192903	-0.122811	0.641498
C45	C	1.192928	-0.004504	0.641518
C46	C	1.232244	-0.345950	0.413904
C47	C	1.249247	-0.322349	0.316583
C48	C	1.313189	-0.233911	1.280579
C49	C	1.329010	-0.212047	1.189115
C50	C	1.280886	-0.278612	1.133644
C51	C	1.216938	-0.367047	1.169647
C52	C	1.201120	-0.388919	1.261121
C53	C	1.168817	-0.433620	1.114186
C54	C	1.104869	-0.522055	1.150189
C55	C	1.089054	-0.543923	1.241654
C56	C	1.137178	-0.477357	1.297125
C57	C	1.184635	-0.411748	1.022712
C58	C	1.072567	-0.566757	1.003254
C59	C	1.056745	-0.588621	1.094718
H60	H	0.876989	-0.555600	0.481836
O61	O	1.246841	-0.325969	0.987717
C62	C	1.312542	-0.364377	0.944586
H63	H	1.313175	-0.453886	0.973071
H64	H	1.380136	-0.314274	0.955248
H65	H	1.297444	-0.356028	0.870565
O66	O	1.346051	-0.955437	0.712343
C67	C	1.418276	-0.894226	0.661222
H68	H	1.394522	-0.865026	0.591381
H69	H	1.470984	-0.947518	0.657773
H70	H	1.447726	-0.820639	0.693174
O71	O	1.330924	-0.779696	0.544514
C72	C	1.379999	-0.849302	0.511044
H73	H	1.367902	-0.933448	0.554188
H74	H	1.453627	-0.813922	0.511733
H75	H	1.358152	-0.856820	0.440149
O76	O	0.847639	-0.347942	0.695496
C77	C	0.940270	-0.344329	0.699141
H78	H	0.957740	-0.417422	0.672504
H79	H	0.963703	-0.347050	0.770783
H80	H	0.974270	-0.265597	0.657087
O81	O	1.039805	-0.844381	0.570578
C82	C	0.967450	-0.906956	0.620736
H83	H	0.987789	-0.985402	0.657781
H84	H	0.909654	-0.928067	0.574553
H85	H	0.946396	-0.857998	0.670431
H86	H	0.711014	-0.583588	0.453074
H87	H	1.036990	-0.615940	1.270966
H88	H	1.206722	-0.862092	0.795913
H89	H	1.066164	-1.010168	0.730777
H90	H	1.179067	-0.937861	0.487181
O91	O	1.296332	-0.257190	1.044810
C92	C	1.363106	-0.164878	1.024929
H93	H	1.366277	-0.113232	1.079784
H94	H	1.347266	-0.114303	0.959161
H95	H	1.429770	-0.192451	1.019767
H96	H	0.776110	-0.302120	0.742585
H97	H	0.675539	-0.217168	0.830010
O98	O	0.500768	-0.237984	0.808841
C99	C	0.438113	-0.321132	0.856171
H100	H	0.429770	-0.396635	0.822789
H101	H	0.371744	-0.291486	0.856824
H102	H	0.462160	-0.342510	0.927172
O103	O	0.449152	-0.469781	0.570488
C104	C	0.404094	-0.522454	0.649105
H105	H	0.450563	-0.568676	0.694383
H106	H	0.343982	-0.582284	0.632159
H107	H	0.381302	-0.458999	0.684344
O108	O	1.359829	-0.169343	1.334583
C109	C	1.332173	-0.207635	1.423038
H110	H	1.262406	-0.256857	1.423794
H111	H	1.332127	-0.135226	1.458856
H112	H	1.379623	-0.261784	1.457991
O113	O	1.391126	-0.126073	1.154284
C114	C	1.430224	-0.072025	1.222856
H115	H	1.383072	-0.089968	1.281835
H116	H	1.444158	0.019729	1.198064
H117	H	1.495056	-0.102128	1.244118
H118	H	1.124300	-0.495155	1.371604
H119	H	1.004678	-0.660626	1.124045
O120	O	1.025901	-0.631570	0.949433
C121	C	1.041139	-0.739779	0.975096
H122	H	1.106764	-0.739382	1.012381
H123	H	1.043988	-0.779249	0.913622
H124	H	0.984990	-0.788207	1.020036
O125	O	0.558541	-0.562127	0.475411
C126	C	0.577594	-0.669021	0.498286
H127	H	0.638200	-0.668128	0.543461
H128	H	0.591652	-0.700972	0.435547
H129	H	0.518339	-0.724398	0.534345
