data_functionalizedCrystal
_audit_creation_method	'MofGen! by Chris Wilmer'
_symmetry_space_group_name_H-M	'P1'
_symmetry_Int_Tables_number	1
_symmetry_cell_setting	triclinic
loop_
_symmetry_equiv_pos_as_xyz
  x,y,z
_cell_length_a	12.759401
_cell_length_b	18.050589
_cell_length_c	12.759393
_cell_angle_alpha	89.969379
_cell_angle_beta	89.981504
_cell_angle_gamma	90.028382
loop_
_atom_site_label
_atom_site_type_symbol
_atom_site_fract_x
_atom_site_fract_y
_atom_site_fract_z
Zn1	Zn	1.606157	-0.295612	-0.593988
Zn2	Zn	1.939490	0.037721	-0.260655
Zn3	Zn	2.272823	0.371054	0.072678
Zn4	Zn	1.606010	-0.419823	-0.418311
Zn5	Zn	1.939343	-0.086489	-0.084978
Zn6	Zn	2.272676	0.246844	0.248355
Zn7	Zn	1.430459	-0.295651	-0.418328
Zn8	Zn	1.763792	0.037682	-0.084994
Zn9	Zn	2.097125	0.371015	0.248339
Zn10	Zn	1.430406	-0.419766	-0.593953
Zn11	Zn	1.763739	-0.086432	-0.260619
Zn12	Zn	2.097073	0.246901	0.072714
O13	O	1.518258	-0.357713	-0.506145
O14	O	1.851591	-0.024380	-0.172812
O15	O	2.184924	0.308954	0.160522
O16	O	1.753158	-0.312097	-0.570692
O17	O	2.086492	0.021236	-0.237359
O18	O	2.419825	0.354570	0.095974
O19	O	1.582683	-0.403391	-0.271292
O20	O	1.916016	-0.070058	0.062041
O21	O	2.249350	0.263275	0.395374
O22	O	1.453849	-0.191722	-0.441651
O23	O	1.787182	0.141612	-0.108318
O24	O	2.120516	0.474945	0.225016
O25	O	1.753050	-0.403354	-0.441623
O26	O	2.086383	-0.070020	-0.108290
O27	O	2.419717	0.263313	0.225044
O28	O	1.582934	-0.191693	-0.570708
O29	O	1.916267	0.141640	-0.237375
O30	O	2.249600	0.474974	0.095958
O31	O	1.453706	-0.312163	-0.271304
O32	O	1.787040	0.021170	0.062029
O33	O	2.120373	0.354504	0.395362
O34	O	1.283431	-0.312108	-0.441617
O35	O	1.616764	0.021226	-0.108283
O36	O	1.950097	0.354559	0.225050
O37	O	1.453759	-0.403256	-0.740979
O38	O	1.787092	-0.069923	-0.407645
O39	O	2.120426	0.263411	-0.074312
O40	O	1.283392	-0.403294	-0.570648
O41	O	1.616725	-0.069961	-0.237314
O42	O	1.950059	0.263373	0.096019
O43	O	1.582882	-0.312041	-0.741005
O44	O	1.916216	0.021292	-0.407671
O45	O	2.249549	0.354625	-0.074338
O46	O	1.582632	-0.523740	-0.441589
O47	O	1.915965	-0.190406	-0.108255
O48	O	2.249298	0.142927	0.225078
O49	O	1.453616	-0.523698	-0.570632
O50	O	1.786950	-0.190364	-0.237298
O51	O	2.120283	0.142969	0.096035
C52	C	1.245290	-0.357699	-0.506131
C53	C	1.578624	-0.024366	-0.172797
C54	C	1.911957	0.308967	0.160536
C55	C	1.128514	-0.357711	-0.506149
C56	C	1.461847	-0.024378	-0.172816
C57	C	1.795180	0.308955	0.160517
C58	C	1.518131	-0.550665	-0.506127
C59	C	1.851464	-0.217332	-0.172794
C60	C	2.184798	0.116001	0.160539
C61	C	1.518173	-0.633211	-0.506155
C62	C	1.851506	-0.299878	-0.172822
C63	C	2.184839	0.033456	0.160512
C64	C	1.073659	-0.405268	-0.573225
C65	C	1.406992	-0.071935	-0.239891
C66	C	1.740326	0.261399	0.093442
C67	C	0.963935	-0.405277	-0.573236
C68	C	1.297268	-0.071944	-0.239903
C69	C	1.630602	0.261389	0.093430
C70	C	0.963930	-0.310171	-0.439088
C71	C	1.297263	0.023162	-0.105755
C72	C	1.630597	0.356495	0.227579
C73	C	1.073652	-0.310159	-0.439083
C74	C	1.406985	0.023174	-0.105749
C75	C	1.740319	0.356508	0.227584
C76	C	1.073661	-0.460179	-0.650671
C77	C	1.406994	-0.126846	-0.317338
C78	C	1.740328	0.206488	0.015996
C79	C	0.963937	-0.460188	-0.650683
C80	C	1.297270	-0.126855	-0.317349
C81	C	1.630603	0.206478	0.015984
C82	C	1.448083	-0.832666	-0.576304
C83	C	1.781417	-0.499332	-0.242971
C84	C	2.114750	-0.165999	0.090362
C85	C	1.422469	-0.882114	-0.480436
C86	C	1.755802	-0.548781	-0.147103
C87	C	2.089136	-0.215448	0.186231
C88	C	1.518276	-0.784341	-0.506169
C89	C	1.851609	-0.451008	-0.172836
C90	C	2.184943	-0.117675	0.160498
C91	C	1.543942	-0.881974	-0.602048
C92	C	1.877275	-0.548641	-0.268715
C93	C	2.210608	-0.215308	0.064618
C94	C	1.518374	-0.930326	-0.506191
C95	C	1.851707	-0.596993	-0.172857
C96	C	2.185040	-0.263660	0.160476
C97	C	1.492611	-0.832703	-0.410250
C98	C	1.825945	-0.499369	-0.076916
C99	C	2.159278	-0.166036	0.256417
C100	C	1.614129	-0.832558	-0.531927
C101	C	1.947462	-0.499225	-0.198593
C102	C	2.280795	-0.165892	0.134740
C103	C	1.588551	-0.881985	-0.435992
C104	C	1.921884	-0.548651	-0.102659
C105	C	2.255218	-0.215318	0.230674
C106	C	1.518217	-0.700243	-0.506158
C107	C	1.851550	-0.366910	-0.172824
C108	C	2.184884	-0.033576	0.160509
C109	C	1.518433	-1.014423	-0.506191
C110	C	1.851766	-0.681089	-0.172857
C111	C	2.185099	-0.347756	0.160476
C112	C	1.792291	-0.357727	-0.506160
C113	C	2.125624	-0.024394	-0.172827
C114	C	2.458958	0.308939	0.160507
C115	C	1.909068	-0.357733	-0.506166
C116	C	2.242401	-0.024400	-0.172833
C117	C	2.575734	0.308933	0.160500
C118	C	1.518331	-0.357638	-0.780178
C119	C	1.851665	-0.024305	-0.446845
C120	C	2.184998	0.309029	-0.113512
C121	C	1.518363	-0.357606	-0.896955
C122	C	1.851696	-0.024273	-0.563622
C123	C	2.185029	0.309061	-0.230288
C124	C	1.518414	-0.164007	-0.506185
C125	C	1.851747	0.169326	-0.172852
C126	C	2.185080	0.502659	0.160481
C127	C	1.518480	-0.081462	-0.506203
C128	C	1.851813	0.251872	-0.172869
C129	C	2.185147	0.585205	0.160464
C130	C	1.585606	-0.310106	-0.951832
C131	C	1.918940	0.023227	-0.618499
C132	C	2.252273	0.356561	-0.285166
C133	C	1.585631	-0.310079	-1.061557
C134	C	1.918965	0.023254	-0.728223
C135	C	2.252298	0.356587	-0.394890
C136	C	1.451166	-0.405059	-1.061516
C137	C	1.784499	-0.071726	-0.728183
C138	C	2.117833	0.261608	-0.394850
C139	C	1.451136	-0.405081	-0.951794
C140	C	1.784470	-0.071748	-0.618461
C141	C	2.117803	0.261585	-0.285128
C142	C	1.663242	-0.255273	-0.951857
C143	C	1.996576	0.078061	-0.618523
C144	C	2.329909	0.411394	-0.285190
C145	C	1.663267	-0.255246	-1.061581
C146	C	1.996601	0.078088	-0.728247
C147	C	2.329934	0.411421	-0.394914
C148	C	1.518245	-0.357734	-0.233178
C149	C	1.851578	-0.024401	0.100156
C150	C	2.184912	0.308933	0.433489
C151	C	1.518417	-0.357557	-0.116401
C152	C	1.851750	-0.024223	0.216932
C153	C	2.185084	0.309110	0.550265
H154	H	1.118311	-0.271429	-0.384470
H155	H	1.451644	0.061905	-0.051137
H156	H	1.784977	0.395238	0.282196
H157	H	0.919248	-0.271455	-0.384485
H158	H	1.252582	0.061878	-0.051152
H159	H	1.585915	0.395211	0.282181
H160	H	1.388636	-0.811010	-0.635531
H161	H	1.721969	-0.477676	-0.302198
H162	H	2.055303	-0.144343	0.031135
F163	F	1.379623	-0.455582	-1.119889
F164	F	1.712956	-0.122249	-0.786556
F165	F	2.046289	0.211084	-0.453223
F166	F	0.919503	-0.433354	-0.751783
F167	F	1.252836	-0.100021	-0.418450
F168	F	1.586169	0.233313	-0.085117
H169	H	1.103474	-0.444840	-0.732077
H170	H	1.436808	-0.111507	-0.398744
H171	H	1.770141	0.221826	-0.065411
F172	F	1.118101	-0.531574	-0.612475
F173	F	1.451435	-0.198241	-0.279142
F174	F	1.784768	0.135093	0.054192
F175	F	1.379552	-0.455627	-0.893393
F176	F	1.712885	-0.122294	-0.560060
F177	F	2.046219	0.211040	-0.226727
F178	F	0.924962	-0.535342	-0.621990
F179	F	1.258295	-0.202009	-0.288657
F180	F	1.591628	0.131325	0.044677
F181	F	1.634814	-0.180100	-0.912956
F182	F	1.968148	0.153233	-0.579623
F183	F	2.301481	0.486567	-0.246290
H184	H	1.341455	-0.903898	-0.458669
H185	H	1.674789	-0.570565	-0.125336
H186	H	2.008122	-0.237231	0.207997
F187	F	1.769618	-0.275372	-1.100509
F188	F	2.102951	0.057962	-0.767175
F189	F	2.436285	0.391295	-0.433842
F190	F	1.625120	-0.183851	-1.106088
F191	F	1.958453	0.149482	-0.772754
F192	F	2.291787	0.482815	-0.439421
F193	F	1.464168	-0.804533	-0.304247
F194	F	1.797502	-0.471200	0.029086
F195	F	2.130835	-0.137867	0.362419
F196	F	1.764233	-0.282219	-0.907364
F197	F	2.097566	0.051114	-0.574031
F198	F	2.430900	0.384448	-0.240698
F199	F	1.666196	-0.910112	-0.358394
F200	F	1.999529	-0.576778	-0.025061
F201	F	2.332862	-0.243445	0.308272
F202	F	1.719996	-0.804086	-0.560436
F203	F	2.053330	-0.470753	-0.227103
F204	F	2.386663	-0.137419	0.106230
H205	H	1.565611	-0.903618	-0.683124
H206	H	1.898944	-0.570284	-0.349790
H207	H	2.232278	-0.236951	-0.016457
