data_functionalizedCrystal
_audit_creation_method	'MofGen! by Chris Wilmer'
_symmetry_space_group_name_H-M	'P1'
_symmetry_Int_Tables_number	1
_symmetry_cell_setting	triclinic
loop_
_symmetry_equiv_pos_as_xyz
  x,y,z
_cell_length_a	17.077404
_cell_length_b	16.120484
_cell_length_c	17.077396
_cell_angle_alpha	87.131254
_cell_angle_beta	90.019501
_cell_angle_gamma	92.925780
loop_
_atom_site_label
_atom_site_type_symbol
_atom_site_fract_x
_atom_site_fract_y
_atom_site_fract_z
Zn1	Zn	1.184194	-0.331902	0.459673
Zn2	Zn	1.177439	-0.471326	0.335057
Zn3	Zn	1.052925	-0.331932	0.328422
Zn4	Zn	1.046234	-0.471277	0.466278
O5	O	1.115198	-0.401609	0.397358
O6	O	1.293145	-0.350406	0.443155
O7	O	1.160895	-0.452868	0.224331
O8	O	1.075965	-0.215262	0.340292
O9	O	1.288181	-0.452840	0.351600
O10	O	1.172408	-0.215241	0.436721
O11	O	1.069415	-0.350456	0.219457
O12	O	0.942191	-0.350408	0.346697
O13	O	1.064562	-0.452756	0.575247
O14	O	0.937275	-0.452784	0.447979
O15	O	1.165921	-0.350358	0.570395
O16	O	1.154407	-0.587986	0.358004
O17	O	1.058011	-0.587949	0.454412
C18	C	0.911251	-0.401594	0.397335
C19	C	0.824000	-0.401608	0.397345
C20	C	0.780467	-0.454996	0.450006
C21	C	0.698487	-0.454997	0.450019
C22	C	0.660041	-0.401615	0.397366
C23	C	0.703580	-0.348221	0.344703
C24	C	0.785559	-0.348216	0.344694
C25	C	0.532709	-0.348238	0.344722
C26	C	0.450724	-0.348244	0.344729
C27	C	0.445637	-0.455019	0.450047
C28	C	0.527616	-0.455014	0.450038
C29	C	0.571149	-0.401621	0.397374
C30	C	1.104771	-0.618218	0.407662
C31	C	1.100383	-0.710884	0.412097
C32	C	1.092374	-0.880545	0.420209
C33	C	1.138162	-0.921833	0.374519
C34	C	1.133706	-1.016239	0.379033
C35	C	1.096829	-0.786131	0.415696
C36	C	1.319941	-0.401625	0.397381
C37	C	1.407191	-0.401632	0.397390
C38	C	1.115248	-0.401548	0.602099
C39	C	1.115270	-0.401522	0.689348
C40	C	1.125687	-0.184155	0.387030
C41	C	1.130156	-0.091489	0.382629
C42	C	1.115196	-0.401610	0.193410
C43	C	1.115338	-0.401402	0.106150
C44	C	1.168049	-0.348199	0.727812
C45	C	1.168060	-0.348171	0.809791
C46	C	1.115295	-0.401471	0.853305
C47	C	1.062509	-0.454796	0.814835
C48	C	1.062495	-0.454819	0.732857
C49	C	1.062543	-0.454746	0.985702
C50	C	1.062558	-0.454725	1.067686
C51	C	1.168108	-0.348098	1.062637
C52	C	1.168094	-0.348121	0.980659
C53	C	1.115310	-0.401448	0.942195
H54	H	0.821003	-0.304738	0.301816
H55	H	1.180708	-0.886279	0.332012
C56	C	1.035663	-0.928094	0.476801
C57	C	1.042445	-1.013634	0.470056
C58	C	0.990206	-1.057472	0.522164
H59	H	1.047718	-0.913928	0.528924
H60	H	0.983564	-0.913983	0.464589
H61	H	1.094531	-1.027740	0.482273
H62	H	1.030383	-1.027825	0.417944
H63	H	0.938107	-1.043360	0.509952
H64	H	1.002265	-1.043299	0.574284
H65	H	0.994795	-1.115515	0.517590
H66	H	1.211040	-0.304752	0.841105
C67	C	0.408900	-0.290204	0.287708
C68	C	0.364423	-0.236857	0.329732
C69	C	0.325883	-0.183372	0.277237
H70	H	0.446493	-0.258321	0.256339
H71	H	0.375320	-0.321997	0.254968
H72	H	0.397999	-0.205066	0.362459
H73	H	0.326816	-0.268716	0.361099
H74	H	0.292303	-0.215165	0.244497
H75	H	0.363481	-0.151495	0.245870
H76	H	0.295695	-0.147175	0.305742
C77	C	1.225374	-0.290237	0.680710
C78	C	1.271583	-0.243517	0.731945
C79	C	1.324391	-0.190103	0.688585
H80	H	1.258108	-0.322046	0.650243
H81	H	1.197112	-0.253873	0.647015
H82	H	1.299843	-0.279876	0.765626
H83	H	1.238871	-0.211692	0.762413
H84	H	1.296129	-0.153739	0.654890
H85	H	1.357119	-0.221918	0.658120
H86	H	1.355745	-0.158392	0.723341
C87	C	1.005217	-0.512447	1.115019
C88	C	0.957213	-0.465209	1.159842
C89	C	0.904383	-0.518351	1.203459
H90	H	0.973699	-0.544219	1.080457
H91	H	1.033465	-0.548761	1.148776
H92	H	0.928967	-0.428910	1.126088
H93	H	0.988709	-0.433439	1.194418
H94	H	0.932631	-0.554665	1.237217
H95	H	0.872871	-0.550121	1.168892
H96	H	0.871811	-0.486309	1.233882
H97	H	1.211065	-0.304724	0.945232
H98	H	1.211086	-0.304676	1.093958
C99	C	1.005216	-0.512752	0.944086
C100	C	0.959030	-0.559451	0.999739
C101	C	0.906230	-0.612910	0.961431
H102	H	0.972466	-0.480977	0.910579
H103	H	1.033483	-0.549127	0.913864
H104	H	0.930764	-0.523080	1.029947
H105	H	0.991759	-0.591243	1.033248
H106	H	0.934498	-0.649285	0.931210
H107	H	0.873485	-0.581128	0.927926
H108	H	0.874892	-0.644607	0.999186
C109	C	0.398513	-0.513082	0.507260
C110	C	0.449728	-0.559852	0.553349
C111	C	0.406342	-0.613359	0.606048
H112	H	0.368072	-0.481338	0.540078
H113	H	0.364790	-0.549410	0.478920
H114	H	0.483438	-0.523529	0.581687
H115	H	0.480170	-0.591613	0.520552
H116	H	0.372619	-0.649687	0.577708
H117	H	0.375903	-0.581608	0.638861
H118	H	0.441084	-0.645104	0.637321
H119	H	0.663045	-0.498472	0.492900
H120	H	1.019544	-0.498191	0.850270
C121	C	1.005168	-0.512817	0.691239
C122	C	0.958979	-0.559512	0.746891
C123	C	0.906168	-0.612959	0.708583
H124	H	0.972421	-0.481034	0.657736
H125	H	1.033428	-0.549195	0.661013
H126	H	0.930721	-0.523139	0.777104
H127	H	0.991704	-0.591313	0.780396
H128	H	0.934428	-0.649337	0.678357
H129	H	0.873427	-0.581169	0.675082
H130	H	0.874827	-0.644653	0.746337
H131	H	0.558916	-0.498487	0.492909
C132	C	0.822348	-0.512923	0.507087
C133	C	0.903460	-0.501510	0.495798
C134	C	0.942062	-0.554865	0.548363
H135	H	0.809611	-0.500845	0.559306
H136	H	0.806257	-0.568943	0.498172
H137	H	0.919544	-0.445503	0.504719
H138	H	0.916220	-0.513594	0.443590
H139	H	0.925972	-0.610885	0.539448
H140	H	0.929319	-0.542783	0.600578
H141	H	0.997100	-0.547134	0.540705
C142	C	0.580072	-0.290408	0.287503
C143	C	0.624860	-0.337548	0.239374
C144	C	0.668509	-0.284310	0.186661
H145	H	0.545529	-0.258597	0.256066
H146	H	0.613857	-0.254134	0.315836
H147	H	0.591078	-0.373808	0.211044
H148	H	0.659418	-0.369357	0.270789
H149	H	0.702295	-0.248036	0.214993
H150	H	0.633960	-0.252502	0.155229
H151	H	0.698908	-0.316287	0.154003
H152	H	0.672271	-0.304753	0.301835
