data_functionalizedCrystal
_audit_creation_method	'MofGen! by Chris Wilmer'
_symmetry_space_group_name_H-M	'P1'
_symmetry_Int_Tables_number	1
_symmetry_cell_setting	triclinic
loop_
_symmetry_equiv_pos_as_xyz
  x,y,z
_cell_length_a	17.019372
_cell_length_b	17.038272
_cell_length_c	15.021413
_cell_angle_alpha	90.004029
_cell_angle_beta	93.869114
_cell_angle_gamma	87.242864
loop_
_atom_site_label
_atom_site_type_symbol
_atom_site_fract_x
_atom_site_fract_y
_atom_site_fract_z
O1	O	1.053348	0.099574	0.006650
O2	O	0.824539	0.112279	-0.010878
O3	O	0.937584	-0.007888	-0.002211
O4	O	0.940304	0.219741	-0.002017
O5	O	0.937566	-0.007871	0.145852
O6	O	0.824521	0.112296	0.137185
O7	O	1.053330	0.099591	0.154713
Zn8	Zn	0.938923	0.105946	0.169457
Zn9	Zn	0.938947	0.105924	-0.025622
O10	O	0.940286	0.219758	0.146046
C11	C	0.795110	0.111806	0.060900
C12	C	0.707444	0.110363	0.054184
C13	C	0.211627	0.102175	0.012095
C14	C	0.293998	0.103531	0.018417
C15	C	0.335166	0.104224	0.102287
C16	C	0.293958	0.103553	0.179841
C17	C	0.211589	0.102192	0.173519
C18	C	0.583867	0.108331	0.125416
C19	C	0.666242	0.109695	0.131732
C20	C	0.666277	0.109671	-0.029693
C21	C	0.583906	0.108314	-0.036008
C22	C	0.542705	0.107639	0.041546
C23	C	0.419362	0.105613	0.108751
C24	C	0.458511	0.106245	0.035081
C25	C	0.935101	-0.037005	0.071631
C26	C	0.927721	-0.123792	0.071065
C27	C	0.995480	-0.173965	0.076257
C28	C	0.988541	-0.255510	0.075717
C29	C	0.913842	-0.286879	0.069991
C30	C	0.846078	-0.236699	0.064797
C31	C	0.853018	-0.155156	0.065330
C32	C	0.889324	-0.532616	0.068101
C33	C	0.882390	-0.614165	0.067570
C34	C	1.024853	-0.632970	0.078489
C35	C	1.031786	-0.551424	0.079027
C36	C	0.964022	-0.501252	0.073828
C37	C	0.906747	-0.370230	0.069442
C38	C	0.971118	-0.417902	0.074371
C39	C	1.082760	0.100064	0.082933
C40	C	1.170425	0.101507	0.089643
C41	C	0.942768	0.248875	0.072202
C42	C	0.950148	0.335662	0.072762
N43	N	0.938912	0.105961	0.302594
N44	N	0.938963	0.105902	-0.158758
C45	C	0.886630	0.161500	0.538269
C46	C	0.958921	0.176593	0.603140
C47	C	0.938931	0.105942	0.484202
C48	C	0.866660	0.090866	0.596074
C49	C	0.938943	0.105925	0.659627
C50	C	1.011261	0.121070	0.547770
C51	C	0.918951	0.035312	0.540695
C52	C	0.991291	0.050375	0.605543
C53	C	0.938923	0.105953	0.383144
C54	C	0.938959	0.105912	0.760684
H55	H	0.699758	0.110264	0.200034
O56	O	0.823560	-0.483803	0.063179
C57	C	0.823291	-0.436079	0.139852
H58	H	0.886171	-0.432025	0.170236
H59	H	0.798026	-0.374759	0.120667
H60	H	0.785458	-0.462859	0.190651
O61	O	0.898663	-0.035846	0.507883
C62	C	0.830308	-0.026203	0.449733
H63	H	0.824728	0.036681	0.423320
H64	H	0.834648	-0.068751	0.391502
H65	H	0.776274	-0.038740	0.487352
H66	H	0.805537	0.078123	0.617478
H67	H	0.178114	0.101616	-0.056202
O68	O	0.418604	0.105681	-0.046439
C69	C	0.434326	0.173696	-0.094326
H70	H	0.492663	0.197248	-0.066908
H71	H	0.438141	0.158518	-0.167872
H72	H	0.384888	0.220320	-0.086923
O73	O	0.334069	0.104047	-0.056885
C74	C	0.386124	0.037167	-0.057707
H75	H	0.364361	-0.010541	-0.013576
H76	H	0.388554	0.014460	-0.128906
H77	H	0.447551	0.053500	-0.031305
O78	O	0.544043	0.107597	-0.117551
C79	C	0.598072	0.108494	-0.184644
H80	H	0.658391	0.084735	-0.156348
H81	H	0.576753	0.070147	-0.242720
H82	H	0.602761	0.171322	-0.209117
O83	O	0.706381	0.110426	-0.104960
C84	C	0.749616	0.178898	-0.106492
H85	H	0.760473	0.201678	-0.035585
H86	H	0.808535	0.164628	-0.136128
H87	H	0.714803	0.225755	-0.149002
H88	H	0.452890	0.106178	0.177039
H89	H	0.845927	-0.395781	0.064782
H90	H	0.550333	0.107770	0.188566
O91	O	0.334040	0.104123	0.261264
C92	C	0.386069	0.037227	0.270105
H93	H	0.399892	0.014857	0.201091
H94	H	0.442994	0.053413	0.308631
H95	H	0.357396	-0.010681	0.307741
O96	O	0.171682	0.101581	0.248938
C97	C	0.225680	0.102465	0.324321
H98	H	0.282793	0.128174	0.305042
H99	H	0.199400	0.140015	0.378751
H100	H	0.238508	0.039923	0.350127
H101	H	1.056307	-0.148431	0.080924
O102	O	0.787221	-0.106383	0.060134
C103	C	0.786995	-0.058645	-0.016557
H104	H	0.825333	-0.088560	-0.067215
H105	H	0.724079	-0.049402	-0.047119
H106	H	0.811390	0.000629	0.002650
H107	H	0.785256	-0.262247	0.060129
H108	H	1.092614	-0.525890	0.083690
O109	O	1.054442	-0.304136	0.080812
C110	C	1.121861	-0.258963	0.085965
H111	H	1.105918	-0.198078	0.112775
H112	H	1.169664	-0.289098	0.132619
H113	H	1.144517	-0.253186	0.016670
H114	H	1.080022	-0.673829	0.082720
H115	H	0.821558	-0.639702	0.062922
O116	O	1.043635	-0.387340	0.079810
C117	C	1.051928	-0.340755	0.003752
H118	H	0.991126	-0.320384	-0.026478
H119	H	1.086944	-0.287388	0.023684
H120	H	1.084420	-0.376822	-0.047453
H121	H	0.842451	0.208522	0.508866
H122	H	0.975832	0.236315	0.630519
O123	O	1.084134	0.136436	0.522224
C124	C	1.083237	0.136301	0.428300
H125	H	1.020327	0.148610	0.398940
H126	H	1.122447	0.183731	0.405402
H127	H	1.106213	0.076454	0.404607
O128	O	1.044228	-0.005606	0.640411
C129	C	1.120302	0.010568	0.615798
H130	H	1.122418	0.075727	0.599403
H131	H	1.165362	-0.005227	0.673391
H132	H	1.134643	-0.025716	0.554701
