data_functionalizedCrystal
_audit_creation_method	'MofGen! by Chris Wilmer'
_symmetry_space_group_name_H-M	'P1'
_symmetry_Int_Tables_number	1
_symmetry_cell_setting	triclinic
loop_
_symmetry_equiv_pos_as_xyz
  x,y,z
_cell_length_a	16.959455
_cell_length_b	19.120786
_cell_length_c	16.959447
_cell_angle_alpha	92.473411
_cell_angle_beta	90.014322
_cell_angle_gamma	92.462118
loop_
_atom_site_label
_atom_site_type_symbol
_atom_site_fract_x
_atom_site_fract_y
_atom_site_fract_z
Zn1	Zn	1.194928	-0.279674	0.433464
Zn2	Zn	1.189199	-0.397142	0.295639
Zn3	Zn	1.062756	-0.279696	0.301301
Zn4	Zn	1.057072	-0.397089	0.427780
O5	O	1.125989	-0.338400	0.364546
O6	O	1.304779	-0.295269	0.415191
O7	O	1.172407	-0.381593	0.185777
O8	O	1.085065	-0.181402	0.323581
O9	O	1.300570	-0.381572	0.313931
O10	O	1.182171	-0.181386	0.420681
O11	O	1.079510	-0.295306	0.189937
O12	O	0.951392	-0.295255	0.318069
O13	O	1.075378	-0.381482	0.539146
O14	O	0.947216	-0.381504	0.410993
O15	O	1.176661	-0.295218	0.543323
O16	O	1.166896	-0.495425	0.308419
O17	O	1.069823	-0.495386	0.405503
C18	C	0.920624	-0.338377	0.364529
C19	C	0.832767	-0.338384	0.364539
C20	C	1.117143	-0.520891	0.355747
C21	C	1.113431	-0.598962	0.352009
C22	C	0.463442	-0.293454	0.316268
C23	C	0.459136	-0.383404	0.412866
C24	C	0.541683	-0.383394	0.412862
C25	C	0.585112	-0.338414	0.364559
C26	C	0.545996	-0.293444	0.316260
C27	C	0.580805	-0.428368	0.461154
C28	C	0.663356	-0.428361	0.461151
C29	C	0.706788	-0.383376	0.412851
C30	C	0.667666	-0.338404	0.364551
C31	C	0.711096	-0.293424	0.316248
C32	C	0.671977	-0.248447	0.267952
C33	C	0.589428	-0.248459	0.267961
C34	C	0.789337	-0.383364	0.412843
C35	C	0.793650	-0.293414	0.316241
C36	C	1.162207	-0.635571	0.400849
C37	C	1.158716	-0.708926	0.397338
C38	C	1.106452	-0.745672	0.344983
C39	C	1.057670	-0.709058	0.296141
C40	C	1.061158	-0.635703	0.299656
C41	C	1.093390	-0.967157	0.331842
C42	C	1.089908	-1.040517	0.328328
C43	C	1.190954	-1.040380	0.429527
C44	C	1.194440	-0.967025	0.433034
C45	C	1.145655	-0.930417	0.384195
C46	C	1.102884	-0.820653	0.341391
C47	C	1.149220	-0.855437	0.387791
C48	C	1.332156	-0.338424	0.364563
C49	C	1.420012	-0.338434	0.364571
C50	C	1.126025	-0.338342	0.570717
C51	C	1.126040	-0.338317	0.658575
C52	C	1.134891	-0.155196	0.373397
C53	C	1.138685	-0.077126	0.377168
C54	C	1.126001	-0.338407	0.159179
C55	C	1.126149	-0.338234	0.071331
C56	C	1.073405	-0.383157	1.027882
C57	C	1.178871	-0.293329	1.032226
C58	C	1.178849	-0.293344	0.949679
C59	C	1.126105	-0.338267	0.906230
C60	C	1.073383	-0.383175	0.945328
C61	C	1.231576	-0.248442	0.910576
C62	C	1.231557	-0.248455	0.828024
C63	C	1.178808	-0.293375	0.784573
C64	C	1.126083	-0.338284	0.823676
C65	C	1.073339	-0.383207	0.780227
C66	C	1.020610	-0.428114	0.819328
C67	C	1.020635	-0.428095	0.901877
C68	C	1.178784	-0.293394	0.702024
C69	C	1.073318	-0.383225	0.697672
H70	H	0.829006	-0.256780	0.276911
O71	O	0.714252	-0.204854	0.220987
C72	C	0.760034	-0.244790	0.167920
H73	H	0.769826	-0.298050	0.193130
H74	H	0.727832	-0.252441	0.108961
C75	C	0.828292	-0.140716	0.124576
C76	C	0.840324	-0.206130	0.155543
H77	H	0.877818	-0.116868	0.116937
H78	H	0.797446	-0.113810	0.160325
H79	H	0.801455	-0.147101	0.075447
H80	H	0.867152	-0.199743	0.204674
H81	H	0.871177	-0.233034	0.119801
O82	O	1.039246	-1.076241	0.277381
C83	C	1.082266	-1.118678	0.224346
H84	H	1.145575	-1.096526	0.220582
H85	H	1.082336	-1.174256	0.246121
C86	C	0.965889	-1.147087	0.146706
C87	C	1.043644	-1.119876	0.142078
H88	H	0.942064	-1.147829	0.095960
H89	H	0.936904	-1.118499	0.182438
H90	H	0.965957	-1.193400	0.164855
H91	H	1.043574	-1.073561	0.123939
H92	H	1.072628	-1.148456	0.106340
H93	H	0.423771	-0.420029	0.452188
H94	H	1.060333	-0.850579	0.298762
H95	H	1.204770	-0.605657	0.443478
H96	H	0.821184	-0.419985	0.452162
H97	H	1.236998	-0.937108	0.475666
O98	O	0.551507	-0.204811	0.220937
C99	C	0.570894	-0.220081	0.141388
H100	H	0.629531	-0.247065	0.138387
H101	H	0.522686	-0.256175	0.112967
C102	C	0.505966	-0.118411	0.100624
C103	C	0.577988	-0.151548	0.096938
H104	H	0.510339	-0.076138	0.073204
H105	H	0.492902	-0.108125	0.154217
H106	H	0.465800	-0.148497	0.076941
H107	H	0.618151	-0.121466	0.120630
H108	H	0.591060	-0.161828	0.043348
H109	H	1.191770	-0.825517	0.430422
H110	H	1.198441	-0.738730	0.437103
O111	O	1.238217	-1.075976	0.477053
C112	C	1.191158	-1.118420	0.526014
H113	H	1.129950	-1.096353	0.531893
H114	H	1.185805	-1.174030	0.498907
C115	C	1.304839	-1.146578	0.600951
C116	C	1.229665	-1.119471	0.608177
H117	H	1.328594	-1.147229	0.651633
H118	H	1.336545	-1.117985	0.567964
H119	H	1.300369	-1.192917	0.578359
H120	H	1.234138	-1.073130	0.630760
H121	H	1.197961	-1.148056	0.641171
O122	O	0.969312	-0.471643	0.939826
C123	C	0.891271	-0.456302	0.920387
H124	H	0.889997	-0.400193	0.900413
H125	H	0.868767	-0.493966	0.870648
C126	C	0.839711	-0.533372	1.017859
C127	C	0.838145	-0.464457	0.993333
H128	H	0.806939	-0.538405	1.062853
H129	H	0.892288	-0.543710	1.030954
H130	H	0.820959	-0.564752	0.976403
H131	H	0.856906	-0.433079	1.034785
H132	H	0.785570	-0.454113	0.980247
O133	O	1.045982	-0.931712	0.284312
C134	C	0.999099	-0.979877	0.237359
H135	H	1.028993	-1.032144	0.232156
H136	H	0.938672	-0.987703	0.265867
C137	C	0.952414	-0.887117	0.160977
C138	C	0.989134	-0.951311	0.154582
H139	H	0.946263	-0.869495	0.109918
H140	H	0.983997	-0.854666	0.192612
H141	H	0.902062	-0.893647	0.184738
H142	H	1.039488	-0.944778	0.130831
H143	H	0.957558	-0.983760	0.122941
H144	H	0.545438	-0.464994	0.500474
H145	H	1.015112	-0.738981	0.253516
O146	O	1.282691	-0.204725	0.790093
C147	C	1.268826	-0.134721	0.813684
H148	H	1.205857	-0.131174	0.836547
H149	H	1.312104	-0.116361	0.862495
C150	C	1.357620	-0.092203	0.714553
C151	C	1.280278	-0.087845	0.742628
H152	H	1.364687	-0.063286	0.670724
H153	H	1.366964	-0.139366	0.698661
H154	H	1.393676	-0.076904	0.755236
H155	H	1.244224	-0.103152	0.701948
H156	H	1.270928	-0.040683	0.758512
H157	H	1.274522	-0.211872	0.945958
H158	H	0.431587	-0.256833	0.276948
H159	H	0.695200	-0.464983	0.500477
O160	O	1.013663	-0.600215	0.252249
C161	C	0.934019	-0.618174	0.268610
H162	H	0.929832	-0.671419	0.296438
H163	H	0.909335	-0.576887	0.311207
C164	C	0.891162	-0.556243	0.157166
C165	C	0.886019	-0.621642	0.191340
H166	H	0.861551	-0.558379	0.109504
H167	H	0.944819	-0.544141	0.146145
H168	H	0.870593	-0.521843	0.192672
H169	H	0.906596	-0.656038	0.155839
H170	H	0.832363	-0.633750	0.202353
H171	H	1.030360	-0.419801	0.662302
O172	O	0.969489	-0.471786	0.777025
C173	C	1.012287	-0.517175	0.727100
H174	H	1.073391	-0.492410	0.715949
H175	H	1.018444	-0.569223	0.756392
C176	C	0.893129	-0.560316	0.661755
C177	C	0.968176	-0.529896	0.648054
H178	H	0.865919	-0.568166	0.612997
H179	H	0.864294	-0.529739	0.695392
H180	H	0.898270	-0.603686	0.686167
H181	H	0.963034	-0.486523	0.623651
H182	H	0.997009	-0.560466	0.614410
H183	H	1.030472	-0.419717	1.059722
H184	H	1.221817	-0.256759	1.067607
H185	H	1.221717	-0.256834	0.670191
