data_functionalizedCrystal
_audit_creation_method	'MofGen! by Chris Wilmer'
_symmetry_space_group_name_H-M	'P1'
_symmetry_Int_Tables_number	1
_symmetry_cell_setting	triclinic
loop_
_symmetry_equiv_pos_as_xyz
  x,y,z
_cell_length_a	6.394989
_cell_length_b	8.559649
_cell_length_c	7.681481
_cell_angle_alpha	85.086760
_cell_angle_beta	95.906187
_cell_angle_gamma	78.138188
loop_
_atom_site_label
_atom_site_type_symbol
_atom_site_fract_x
_atom_site_fract_y
_atom_site_fract_z
O1	O	0.048509	-2.104046	-0.146402
O2	O	-0.059017	-1.641007	-0.146408
O3	O	0.299864	-1.879099	-0.146406
O4	O	-0.310373	-1.865954	-0.146404
O5	O	0.344125	-1.908402	0.146452
O6	O	-0.014756	-1.670310	0.146450
O7	O	0.092770	-2.133349	0.146456
Zn8	Zn	0.046035	-1.906482	0.192951
Zn9	Zn	-0.012282	-1.867874	-0.192902
O10	O	-0.266111	-1.895257	0.146454
C11	C	-0.045035	-1.596293	0.000021
C12	C	-0.069291	-1.419401	0.000018
N13	N	0.085837	-1.932843	0.456285
C14	C	0.078787	-2.178063	0.000024
C15	C	0.103041	-2.354954	0.000015
C16	C	0.399398	-1.891151	0.000016
C17	C	0.634359	-1.883208	0.000015
N18	N	-0.052066	-1.841525	-0.456237
H19	H	0.269137	-1.435105	0.000005
O20	O	-0.267539	-1.323970	0.000248
C21	C	-0.580921	-1.262005	0.152018
C22	C	-0.356465	-1.370217	0.151958
H23	H	-0.652865	-1.299333	0.274681
H24	H	-0.690193	-1.274883	0.029543
H25	H	-0.565803	-1.131594	0.151925
H26	H	-0.371377	-1.500670	0.152113
H27	H	-0.247277	-1.357200	0.274422
O28	O	-0.220238	-1.730479	0.454145
C29	C	-0.605727	-1.639112	0.397494
C30	C	-0.415469	-1.764998	0.499078
H31	H	-0.763616	-1.666956	0.433813
H32	H	-0.600719	-1.642536	0.249920
H33	H	-0.593675	-1.514564	0.433640
H34	H	-0.427396	-1.889606	0.463080
H35	H	-0.420540	-1.761433	0.646627
O36	O	0.253837	-2.044187	0.545719
C37	C	0.566529	-2.251127	0.526620
C38	C	0.376338	-2.125126	0.425119
H39	H	0.665650	-2.316578	0.429159
H40	H	0.502584	-2.341289	0.612872
H41	H	0.672244	-2.188705	0.612993
H42	H	0.270548	-2.187410	0.338650
H43	H	0.440430	-2.034974	0.338979
