data_functionalizedCrystal
_audit_creation_method	'MofGen! by Chris Wilmer'
_symmetry_space_group_name_H-M	'P1'
_symmetry_Int_Tables_number	1
_symmetry_cell_setting	triclinic
loop_
_symmetry_equiv_pos_as_xyz
  x,y,z
_cell_length_a	14.628931
_cell_length_b	21.606444
_cell_length_c	21.606444
_cell_angle_alpha	60.001331
_cell_angle_beta	90.001677
_cell_angle_gamma	59.998844
loop_
_atom_site_label
_atom_site_type_symbol
_atom_site_fract_x
_atom_site_fract_y
_atom_site_fract_z
Zr1	Zr	0.880602	0.677449	-0.081200
O2	O	0.734632	0.806572	-0.180023
O3	O	0.925352	0.548330	-0.050908
O4	O	0.925340	0.677453	-0.180027
O5	O	0.734651	0.677444	0.050950
O6	O	1.075772	0.677453	-0.180027
O7	O	0.734644	0.677448	-0.050904
O8	O	1.075793	0.446474	0.050943
O9	O	0.734630	0.908423	-0.180019
O10	O	1.056701	0.601437	-0.037986
O11	O	0.944441	0.601434	0.038027
O12	O	0.944427	0.753461	-0.113993
O13	O	0.832167	0.753458	-0.037981
Zr14	Zr	1.120536	0.677442	0.081246
Zr15	Zr	1.120524	0.677449	-0.081200
Zr16	Zr	0.880615	0.677442	0.081246
Zr17	Zr	0.880600	0.839890	-0.081195
Zr18	Zr	1.120539	0.515002	0.081241
O19	O	1.075787	0.806562	0.050954
O20	O	1.075770	0.806572	-0.180022
O21	O	0.734649	0.806562	0.050954
O22	O	1.266507	0.548319	0.180069
O23	O	1.266490	0.548329	-0.050908
O24	O	0.925369	0.548320	0.180068
O25	O	1.266488	0.677447	-0.050904
O26	O	1.075799	0.677438	0.180073
O27	O	0.925367	0.677438	0.180072
O28	O	1.266495	0.677443	0.050950
O29	O	0.925336	0.908423	-0.180019
O30	O	1.075803	0.446469	0.180065
O31	O	1.266508	0.446468	0.180065
O32	O	1.266499	0.446474	0.050943
O33	O	0.734640	0.908417	-0.050897
O34	O	0.925346	0.908417	-0.050897
O35	O	1.056712	0.601430	0.114039
O36	O	1.168972	0.601434	0.038027
O37	O	1.056698	0.753457	-0.037981
O38	O	0.944438	0.753454	0.038032
C39	C	1.000573	0.474258	0.000016
C40	C	1.000574	0.405297	0.000014
C41	C	0.700464	0.677446	0.000023
C42	C	0.598611	0.677446	0.000023
C43	C	1.059170	0.372901	-0.039665
C44	C	1.059174	0.308101	-0.039660
C45	C	1.000574	0.275703	0.000020
C46	C	0.941976	0.308102	0.039704
C47	C	0.941980	0.372896	0.039703
C48	C	0.941963	0.046792	0.039710
C49	C	0.941962	-0.018005	0.039707
C50	C	1.059157	-0.018002	-0.039652
C51	C	1.059161	0.046792	-0.039653
C52	C	1.000568	0.079182	0.000033
C53	C	1.000566	0.149444	0.000029
C54	C	1.000569	0.205446	0.000021
C55	C	0.608897	0.602032	0.037728
C56	C	0.503628	0.602031	0.037728
C57	C	1.300675	0.677445	0.000023
C58	C	1.402528	0.677445	0.000023
C59	C	1.000554	0.677454	-0.203172
C60	C	1.000549	0.677457	-0.272134
C61	C	1.000566	0.880634	0.000030
C62	C	1.000565	0.949594	0.000032
C63	C	0.941943	0.756811	-0.344208
C64	C	0.941952	0.756809	-0.409003
C65	C	1.000562	0.677452	-0.401722
C66	C	1.059176	0.598091	-0.329641
C67	C	1.059172	0.598095	-0.264847
C68	C	1.059194	0.598076	-0.590944
C69	C	1.059190	0.598079	-0.655744
C70	C	0.941974	0.756791	-0.735099
C71	C	0.941970	0.756794	-0.670306
C72	C	1.000588	0.677434	-0.598230
C73	C	1.000579	0.677438	-0.527973
C74	C	1.000566	0.677447	-0.471978
C75	C	1.000585	0.677437	0.203218
C76	C	1.000590	0.677434	0.272180
C77	C	1.300678	0.474257	0.000017
C78	C	1.402532	0.405297	0.000015
C79	C	1.000588	0.474249	0.203211
C80	C	1.000594	0.405286	0.272171
C81	C	1.300693	0.474248	0.203211
C82	C	1.402553	0.405285	0.272172
C83	C	0.700445	0.880643	-0.203165
C84	C	0.598586	0.949606	-0.272126
C85	C	0.700461	0.880634	0.000029
C86	C	0.598606	0.949595	0.000031
C87	C	1.000551	0.880642	-0.203165
C88	C	1.000545	0.949605	-0.272125
C89	C	1.391760	0.372914	-0.039671
C90	C	1.487453	0.308127	-0.039688
C91	C	1.593919	0.275720	-0.000015
C92	C	1.604689	0.308109	0.039672
C93	C	1.508997	0.372899	0.039684
C94	C	1.059201	0.372898	0.344240
C95	C	1.059203	0.308109	0.409042
C96	C	1.000603	0.275704	0.401773
C97	C	0.941988	0.308098	0.329696
C98	C	0.941981	0.372891	0.264896
C99	C	1.508996	0.372901	0.264878
C100	C	1.604713	0.308111	0.329668
C101	C	1.593984	0.275703	0.401749
C102	C	1.487530	0.308094	0.409041
C103	C	1.391816	0.372886	0.344253
C104	C	0.492143	0.981998	-0.264832
C105	C	0.396426	1.046808	-0.329622
C106	C	0.407155	1.079220	-0.401703
C107	C	0.513609	1.046825	-0.408995
C108	C	0.609323	0.982021	-0.344207
C109	C	0.609379	0.981984	0.039710
C110	C	0.513685	1.046789	0.039710
C111	C	0.407220	1.079198	0.000034
C112	C	0.396450	1.046806	-0.039650
C113	C	0.492142	0.982007	-0.039653
C114	C	1.059156	0.981990	-0.264832
C115	C	1.059172	1.046779	-0.329621
C116	C	1.000570	1.079188	-0.401703
C117	C	0.941956	1.046797	-0.408995
C118	C	0.941948	0.982004	-0.344206
H119	H	1.106882	0.399280	-0.071980
H120	H	0.483355	0.955637	-0.071962
O121	O	0.885190	1.078275	-0.479059
C122	C	0.960429	1.062428	-0.518906
H123	H	1.037576	1.054336	-0.494146
H124	H	0.917923	1.119997	-0.581258
H125	H	0.986628	1.000139	-0.513537
H126	H	1.106904	0.533477	-0.323717
H127	H	0.894208	0.821434	-0.350145
O128	O	0.524220	1.078149	-0.478961
C129	C	0.638693	1.035602	-0.471517
H130	H	0.689769	1.009003	-0.413753
H131	H	0.652018	1.084151	-0.518075
H132	H	0.666857	0.979247	-0.476705
H133	H	1.106900	1.073145	-0.323669
O134	O	0.314138	1.142056	-0.464612
C135	C	0.250013	1.110388	-0.464471
H136	H	0.306212	1.035785	-0.427839
H137	H	0.211209	1.135850	-0.524913
H138	H	0.180765	1.133923	-0.440547
O139	O	0.884886	0.950598	-0.351213
C140	C	0.802607	0.966483	-0.316139
H141	H	0.827274	0.974508	-0.271958
H142	H	0.795444	0.908965	-0.287399
H143	H	0.718571	1.028821	-0.360695
O144	O	1.708197	0.276593	0.322709
C145	C	1.790388	0.212450	0.395344
H146	H	1.753108	0.223075	0.438303
H147	H	1.864164	0.217737	0.394611
H148	H	1.820354	0.144671	0.411853
O149	O	0.885122	0.833816	-0.479072
C150	C	0.897676	0.816800	-0.534701
H151	H	0.976829	0.748598	-0.509447
H152	H	0.904392	0.867481	-0.584663
H153	H	0.821960	0.820563	-0.554977
H154	H	1.106871	-0.044384	-0.071965
H155	H	1.478811	0.281697	0.467739
H156	H	0.695991	0.955648	-0.350154
O157	O	0.495111	0.754451	-0.038588
C158	C	0.436278	0.759121	-0.094227
H159	H	0.498409	0.714125	-0.108993
H160	H	0.383259	0.829307	-0.147215
H161	H	0.379593	0.737708	-0.071467
O162	O	1.000581	0.212843	0.464779
C163	C	0.953968	0.244522	0.508180
H164	H	0.961920	0.299646	0.493994
H165	H	1.000506	0.189188	0.571035
H166	H	0.861787	0.270345	0.494606
H167	H	1.517784	0.399257	0.072005
H168	H	0.894278	0.281705	0.323789
H169	H	1.106888	0.281724	-0.071968
O170	O	0.885020	0.833960	-0.677514
C171	C	0.833271	0.904002	-0.755025
H172	H	0.879236	0.880736	-0.789579
H173	H	0.836424	0.959503	-0.764053
H174	H	0.742310	0.928405	-0.774118
H175	H	0.894259	0.399252	0.206217
H176	H	1.106938	0.281741	0.467723
H177	H	1.000585	1.131947	-0.454452
O178	O	1.686985	0.212803	0.000028
C179	C	1.783273	0.191117	0.043573
H180	H	1.761336	0.247937	0.046560
H181	H	1.850850	0.177646	0.016094
H182	H	1.815494	0.130233	0.103276
H183	H	0.695637	0.537469	0.070011
H184	H	1.106921	0.399275	0.350173
O185	O	1.708087	0.276755	0.078121
C186	C	1.720376	0.345885	0.048981
H187	H	1.659781	0.400977	-0.011498
H188	H	1.809901	0.321151	0.049089
H189	H	1.701386	0.371427	0.085787
H190	H	1.106877	0.955613	-0.206145
H191	H	0.894241	-0.044382	0.072021
H192	H	1.517752	0.399278	0.206191
O193	O	0.513737	0.525080	0.076230
C194	C	0.406381	0.542209	0.067649
H195	H	0.343021	0.610426	0.053030
H196	H	0.407342	0.491571	0.122853
H197	H	0.381971	0.538481	0.020128
O198	O	0.392267	0.754456	-0.038369
C199	C	0.444203	0.759124	0.012601
H200	H	0.448541	0.714122	0.072363
H201	H	0.393548	0.829309	-0.004593
H202	H	0.532512	0.737718	0.011250
O203	O	0.885139	0.833805	-0.805173
C204	C	0.897686	0.816792	-0.860803
H205	H	0.976841	0.748593	-0.835553
H206	H	0.904394	0.867477	-0.910767
H207	H	0.821971	0.820552	-0.881074
H208	H	1.671930	0.222945	0.454498
H209	H	1.478662	0.281764	-0.072006
H210	H	1.106921	0.533452	-0.649808
O211	O	1.288502	0.404210	0.351478
C212	C	1.299573	0.361719	0.428994
H213	H	1.384989	0.296052	0.463536
H214	H	1.230957	0.350532	0.438040
H215	H	1.291726	0.404213	0.448088
H216	H	1.106925	0.533456	-0.532265
O217	O	0.524362	1.078117	0.078333
C218	C	0.638853	1.035618	0.113341
H219	H	0.689869	0.969946	0.121186
H220	H	0.652205	1.024439	0.170983
H221	H	0.667065	1.078101	0.076164
H222	H	0.483386	0.955612	-0.206146
O223	O	0.314385	1.142112	0.000150
C224	C	0.346737	1.163758	0.043669
H225	H	0.435081	1.106921	0.085617
H226	H	0.286291	1.177216	0.075977
H227	H	0.345000	1.224638	0.004607
H228	H	0.309756	1.073173	-0.323670
H229	H	0.309753	1.073204	-0.071953
O230	O	1.116183	0.078139	-0.078210
C231	C	1.167883	0.035664	-0.113246
H232	H	1.179485	-0.030012	-0.082126
H233	H	1.253012	0.024496	-0.111109
H234	H	1.112959	0.078160	-0.174831
O235	O	0.884946	0.078185	0.078269
C236	C	0.833247	0.035679	0.113303
H237	H	0.821637	0.008985	0.082178
H238	H	0.748120	0.084285	0.111172
H239	H	0.888174	-0.020601	0.174887
O240	O	1.116117	0.520931	-0.194889
C241	C	1.167872	0.450887	-0.202355
H242	H	1.121907	0.474147	-0.260174
H243	H	1.164724	0.395384	-0.155881
H244	H	1.258831	0.426488	-0.197045
O245	O	1.288405	0.404238	-0.078160
C246	C	1.276131	0.335097	-0.048983
H247	H	1.362282	0.270277	-0.019929
H248	H	1.225792	0.344878	-0.097277
H249	H	1.230394	0.334227	-0.006151
H250	H	0.696060	0.955601	0.072024
H251	H	0.894262	0.399274	0.072011
H252	H	0.894270	0.281714	0.072017
