data_functionalizedCrystal
_audit_creation_method	'MofGen! by Chris Wilmer'
_symmetry_space_group_name_H-M	'P1'
_symmetry_Int_Tables_number	1
_symmetry_cell_setting	triclinic
loop_
_symmetry_equiv_pos_as_xyz
  x,y,z
_cell_length_a	11.792241
_cell_length_b	14.421503
_cell_length_c	11.792241
_cell_angle_alpha	89.995827
_cell_angle_beta	84.193416
_cell_angle_gamma	90.003481
loop_
_atom_site_label
_atom_site_type_symbol
_atom_site_fract_x
_atom_site_fract_y
_atom_site_fract_z
O1	O	1.506916	0.077022	0.155552
O2	O	1.840249	0.410355	0.488886
O3	O	2.173582	0.743689	0.822219
O4	O	1.176575	0.077044	0.171585
O5	O	1.509908	0.410377	0.504918
O6	O	1.843241	0.743710	0.838252
O7	O	1.349761	0.077026	-0.001602
O8	O	1.683095	0.410359	0.331731
O9	O	2.016428	0.743692	0.665065
O10	O	1.333729	0.077040	0.328739
O11	O	1.667062	0.410373	0.662073
O12	O	2.000395	0.743707	0.995406
O13	O	1.349733	-0.077198	-0.001576
O14	O	1.683066	0.256136	0.331757
O15	O	2.016399	0.589469	0.665091
O16	O	1.176546	-0.077180	0.171611
O17	O	1.509879	0.256154	0.504944
O18	O	1.843212	0.589487	0.838278
O19	O	1.506887	-0.077201	0.155578
O20	O	1.840220	0.256132	0.488911
O21	O	2.173553	0.589465	0.822245
Cu22	Cu	1.341714	-0.091272	0.163597
Cu23	Cu	1.675047	0.242061	0.496930
Cu24	Cu	2.008380	0.575394	0.830263
Cu25	Cu	1.341748	0.091115	0.163566
Cu26	Cu	1.675081	0.424448	0.496900
Cu27	Cu	2.008414	0.757781	0.830233
O28	O	1.333700	-0.077184	0.328765
O29	O	1.667033	0.256150	0.662098
O30	O	2.000367	0.589483	0.995432
C31	C	1.134269	-0.000065	0.170591
C32	C	1.467603	0.333268	0.503924
C33	C	1.800936	0.666601	0.837258
C34	C	1.008255	-0.000057	0.167576
C35	C	1.341589	0.333276	0.500910
C36	C	1.674922	0.666609	0.834243
N37	N	1.341698	-0.219554	0.163618
N38	N	1.675031	0.113780	0.496951
N39	N	2.008365	0.447113	0.830284
C40	C	0.777543	-0.000084	0.162034
C41	C	1.110877	0.333249	0.495367
C42	C	1.444210	0.666583	0.828700
C43	C	0.905928	-0.000069	0.165113
C44	C	1.239262	0.333264	0.498447
C45	C	1.572595	0.666597	0.831780
C46	C	1.261602	-0.469199	0.243663
C47	C	1.594935	-0.135866	0.576996
C48	C	1.928269	0.197468	0.910330
C49	C	1.364297	-0.531008	0.266324
C50	C	1.697631	-0.197674	0.599657
C51	C	2.030964	0.135659	0.932990
C52	C	1.341726	-0.408715	0.163591
C53	C	1.675059	-0.075382	0.496924
C54	C	2.008392	0.257952	0.830257
C55	C	1.239057	-0.531001	0.140956
C56	C	1.572390	-0.197667	0.474290
C57	C	1.905723	0.135666	0.807623
C58	C	1.341743	-0.591437	0.163567
C59	C	1.675076	-0.258103	0.496900
C60	C	2.008410	0.075230	0.830234
C61	C	1.444473	-0.469163	0.186303
C62	C	1.777806	-0.135829	0.519636
C63	C	2.111140	0.197504	0.852969
C64	C	1.319165	-0.469150	0.060891
C65	C	1.652498	-0.135817	0.394224
C66	C	1.985831	0.197516	0.727557
C67	C	1.421934	-0.530931	0.083508
C68	C	1.755267	-0.197598	0.416842
C69	C	2.088601	0.135736	0.750175
C70	C	1.341714	-0.303454	0.163607
C71	C	1.675047	0.029879	0.496940
C72	C	2.008381	0.363213	0.830274
C73	C	1.341766	-0.696695	0.163550
C74	C	1.675100	-0.363362	0.496883
C75	C	2.008433	-0.030029	0.830217
C76	C	1.549192	-0.000090	0.156572
C77	C	1.882525	0.333243	0.489906
C78	C	2.215859	0.666576	0.823239
C79	C	1.675206	-0.000092	0.159587
C80	C	2.008539	0.333241	0.492920
C81	C	2.341873	0.666574	0.826253
C82	C	1.348740	-0.000086	-0.043880
C83	C	1.682073	0.333248	0.289453
C84	C	2.015407	0.666581	0.622787
C85	C	1.345726	-0.000084	-0.169894
C86	C	1.679059	0.333249	0.163440
C87	C	2.012392	0.666582	0.496773
N88	N	1.341772	0.219396	0.163537
N89	N	1.675106	0.552729	0.496870
N90	N	2.008439	0.886063	0.830203
C91	C	1.340183	-0.000069	-0.400606
C92	C	1.673516	0.333265	-0.067272
C93	C	2.006849	0.666598	0.266061
C94	C	1.343262	-0.000077	-0.272221
C95	C	1.676596	0.333256	0.061113
C96	C	2.009929	0.666589	0.394446
C97	C	1.334721	-0.000070	0.371043
C98	C	1.668055	0.333263	0.704376
C99	C	2.001388	0.666596	1.037710
C100	C	1.337736	-0.000065	0.497057
C101	C	1.671069	0.333268	0.830390
C102	C	2.004402	0.666601	1.163723
H103	H	1.193914	-0.442094	0.311433
H104	H	1.527247	-0.108761	0.644766
H105	H	1.860580	0.224572	0.978099
H106	H	1.383396	-0.558178	0.353165
H107	H	1.716729	-0.224844	0.686498
H108	H	2.050062	0.108489	1.019831
H109	H	1.300034	-0.441959	-0.025923
H110	H	1.633368	-0.108625	0.307411
H111	H	1.966701	0.224708	0.640744
F112	F	1.510602	-0.566142	-0.005016
F113	F	1.843936	-0.232809	0.328317
F114	F	2.177269	0.100525	0.661650
H115	H	1.152225	-0.558166	0.121823
H116	H	1.485558	-0.224833	0.455157
H117	H	1.818891	0.108501	0.788490
H118	H	1.531325	-0.442114	0.205540
H119	H	1.864658	-0.108781	0.538874
H120	H	2.197992	0.224553	0.872207
