data_functionalizedCrystal
_audit_creation_method	'MofGen! by Chris Wilmer'
_symmetry_space_group_name_H-M	'P1'
_symmetry_Int_Tables_number	1
_symmetry_cell_setting	triclinic
loop_
_symmetry_equiv_pos_as_xyz
  x,y,z
_cell_length_a	16.992695
_cell_length_b	17.699083
_cell_length_c	16.176319
_cell_angle_alpha	90.000050
_cell_angle_beta	90.003592
_cell_angle_gamma	93.024381
loop_
_atom_site_label
_atom_site_type_symbol
_atom_site_fract_x
_atom_site_fract_y
_atom_site_fract_z
O1	O	0.099142	-1.010250	0.068631
O2	O	0.599142	-0.510250	0.568631
O3	O	0.112041	-0.790675	0.068658
O4	O	0.612041	-0.290675	0.568658
O5	O	-0.008549	-0.899582	0.068638
O6	O	0.491451	-0.399582	0.568638
O7	O	0.219733	-0.901343	0.068651
O8	O	0.719733	-0.401343	0.568651
O9	O	-0.008550	-0.899569	-0.068855
O10	O	0.491450	-0.399569	0.431145
O11	O	0.112041	-0.790661	-0.068835
O12	O	0.612041	-0.290661	0.431165
O13	O	0.099142	-1.010237	-0.068862
O14	O	0.599142	-0.510237	0.431138
Cu15	Cu	0.105591	-0.900448	-0.081403
Cu16	Cu	0.605591	-0.400448	0.418597
Cu17	Cu	0.105592	-0.900464	0.081199
Cu18	Cu	0.605592	-0.400464	0.581199
O19	O	0.219732	-0.901329	-0.068842
O20	O	0.719732	-0.401329	0.431158
C21	C	0.111579	-0.762442	-0.000085
C22	C	0.611579	-0.262442	0.499915
C23	C	0.110192	-0.678338	-0.000075
C24	C	0.610192	-0.178338	0.499925
C25	C	-0.037758	-0.897311	-0.000108
C26	C	0.462242	-0.397311	0.499892
C27	C	-0.124789	-0.890554	-0.000107
C28	C	0.375211	-0.390554	0.499893
N29	N	0.105590	-0.900442	-0.195768
N30	N	0.605590	-0.400442	0.304232
C31	C	-0.175154	-0.955751	-0.000116
C32	C	0.324846	-0.455751	0.499884
C33	C	-0.256928	-0.949398	-0.000107
C34	C	0.243072	-0.449398	0.499893
C35	C	-0.288336	-0.877846	-0.000096
C36	C	0.211664	-0.377846	0.499904
C37	C	-0.237965	-0.812643	-0.000084
C38	C	0.262035	-0.312643	0.499916
C39	C	-0.156192	-0.818998	-0.000087
C40	C	0.343808	-0.318998	0.499913
C41	C	-0.531884	-0.851510	-0.000081
C42	C	-0.031884	-0.351510	0.499919
C43	C	-0.613663	-0.845160	-0.000081
C44	C	-0.113663	-0.345160	0.499919
C45	C	-0.632621	-0.981915	-0.000102
C46	C	-0.132621	-0.481915	0.499898
C47	C	-0.550845	-0.988263	-0.000110
C48	C	-0.050845	-0.488263	0.499890
C49	C	-0.500481	-0.923061	-0.000094
C50	C	-0.000481	-0.423061	0.499906
N51	N	-0.371923	-0.871350	-0.000090
N52	N	0.128077	-0.371350	0.499910
N53	N	-0.416897	-0.929558	-0.000095
N54	N	0.083103	-0.429558	0.499905
C55	C	0.248941	-0.903601	-0.000094
C56	C	0.748941	-0.403601	0.499906
C57	C	0.335972	-0.910358	-0.000090
C58	C	0.835972	-0.410358	0.499910
C59	C	0.099604	-1.038469	-0.000117
C60	C	0.599604	-0.538469	0.499883
C61	C	0.100991	-1.122574	-0.000122
C62	C	0.600991	-0.622574	0.499878
C63	C	0.180976	-0.634124	-0.000071
C64	C	0.680976	-0.134124	0.499929
C65	C	0.179669	-0.555099	-0.000082
C66	C	0.679669	-0.055099	0.499918
C67	C	0.107576	-0.520290	-0.000091
C68	C	0.607576	-0.020290	0.499909
C69	C	0.036787	-0.564510	-0.000097
C70	C	0.536787	-0.064510	0.499903
C71	C	0.038095	-0.643533	-0.000092
C72	C	0.538095	-0.143533	0.499908
C73	C	0.031509	-0.245818	-0.000118
C74	C	0.531509	0.254182	0.499882
C75	C	0.030206	-0.166789	-0.000120
C76	C	0.530206	0.333211	0.499880
C77	C	0.173082	-0.157384	-0.000108
C78	C	0.673082	0.342616	0.499892
C79	C	0.174391	-0.236408	-0.000103
C80	C	0.674391	0.263592	0.499897
C81	C	0.103602	-0.280621	-0.000113
C82	C	0.603602	0.219379	0.499887
C83	C	0.105020	-0.366308	-0.000103
C84	C	0.605020	0.133692	0.499897
C85	C	0.106157	-0.434604	-0.000095
C86	C	0.606157	0.065396	0.499905
C87	C	0.153083	-0.949214	-0.239032
C88	C	0.653083	-0.449214	0.260968
C89	C	0.153080	-0.949222	-0.325579
C90	C	0.653080	-0.449222	0.174421
C91	C	0.105588	-0.900453	-0.368861
C92	C	0.605588	-0.400453	0.131139
C93	C	0.058090	-0.851679	-0.325591
C94	C	0.558090	-0.351679	0.174409
C95	C	0.058089	-0.851676	-0.239045
C96	C	0.558089	-0.351676	0.260955
C97	C	0.058091	-0.851693	-0.674619
C98	C	0.558091	-0.351693	-0.174619
C99	C	0.058097	-0.851699	-0.761171
C100	C	0.558097	-0.351699	-0.261171
C101	C	0.153082	-0.949239	-0.761153
C102	C	0.653082	-0.449239	-0.261153
C103	C	0.153081	-0.949236	-0.674607
C104	C	0.653081	-0.449236	-0.174607
C105	C	0.105580	-0.900465	-0.631345
C106	C	0.605580	-0.400465	-0.131345
C107	C	0.105583	-0.900458	-0.537501
C108	C	0.605583	-0.400458	-0.037501
C109	C	0.105589	-0.900456	-0.462703
C110	C	0.605589	-0.400456	0.037297
N111	N	0.105586	-0.900475	0.195564
N112	N	0.605586	-0.400475	0.695564
H113	H	-0.297933	-1.002489	-0.000117
H114	H	0.202067	-0.502489	0.499883
H115	H	-0.525279	-1.046529	-0.000120
H116	H	-0.025279	-0.546529	0.499880
O117	O	-0.033265	-0.530735	-0.000250
O118	O	0.466735	-0.030735	0.499750
C119	C	-0.076416	-0.552923	-0.071450
C120	C	0.423584	-0.052923	0.428550
H121	H	-0.034257	-0.571893	-0.121220
H122	H	0.465743	-0.071893	0.378780
H123	H	-0.109684	-0.503090	-0.095353
H124	H	0.390316	-0.003090	0.404647
H125	H	-0.120199	-0.601728	-0.055352
H126	H	0.379801	-0.101728	0.444648
H127	H	0.239682	-0.662460	-0.000064
H128	H	0.739682	-0.162460	0.499936
O129	O	0.011839	-0.804407	-0.803180
O130	O	0.511839	-0.304407	-0.303180
C131	C	-0.067768	-0.820559	-0.782030
C132	C	0.432232	-0.320559	-0.282030
H133	H	-0.075424	-0.881127	-0.758234
H134	H	0.424576	-0.381127	-0.258234
H135	H	-0.106329	-0.813827	-0.838953
H136	H	0.393671	-0.313827	-0.338953
H137	H	-0.085925	-0.779784	-0.731801
H138	H	0.414075	-0.279784	-0.231801
O139	O	0.012069	-0.804259	-0.196926
O140	O	0.512069	-0.304259	0.303074
C141	C	0.059942	-0.755496	-0.146878
C142	C	0.559942	-0.255496	0.353122
H143	H	0.118084	-0.782561	-0.133906
H144	H	0.618084	-0.282561	0.366094
H145	H	0.028433	-0.745160	-0.086022
H146	H	0.528433	-0.245160	0.413978
H147	H	0.072017	-0.699337	-0.180233
H148	H	0.572017	-0.199337	0.319767
O149	O	-0.681512	-1.045271	-0.000255
O150	O	-0.181512	-0.545271	0.499745
C151	C	-0.667289	-1.088426	-0.071457
C152	C	-0.167289	-0.588426	0.428543
H153	H	-0.639270	-1.050162	-0.121227
H154	H	-0.139270	-0.550162	0.378773
H155	H	-0.725369	-1.115264	-0.095358
H156	H	-0.225369	-0.615264	0.404642
H157	H	-0.625731	-1.134748	-0.055363
H158	H	-0.125731	-0.634748	0.444637
H159	H	0.191758	-0.988953	-0.796387
H160	H	0.691758	-0.488953	-0.296387
H161	H	0.019417	-0.811975	-0.360838
H162	H	0.519417	-0.311975	0.139162
O163	O	-0.037203	-0.288837	-0.000007
O164	O	0.462797	0.211163	0.499993
C165	C	-0.040733	-0.334811	0.071214
C166	C	0.459267	0.165189	0.571214
H167	H	0.021489	-0.342572	0.094956
H168	H	0.521489	0.157428	0.594956
H169	H	-0.070059	-0.392369	0.055203
H170	H	0.429941	0.107631	0.555203
H171	H	-0.076484	-0.306670	0.121076
H172	H	0.423516	0.193330	0.621076
H173	H	0.233096	-0.264745	-0.000092
H174	H	0.733096	0.235255	0.499908
H175	H	-0.149588	-1.014017	-0.000131
H176	H	0.350412	-0.514017	0.499869
O177	O	-0.644044	-0.775592	-0.000024
O178	O	-0.144044	-0.275592	0.499976
C179	C	-0.582057	-0.719404	-0.000028
C180	C	-0.082057	-0.219404	0.499972
H181	H	-0.526542	-0.743981	0.025995
H182	H	-0.026542	-0.243981	0.525995
H183	H	-0.599056	-0.669758	0.039905
H184	H	-0.099056	-0.169758	0.539905
H185	H	-0.570450	-0.699039	-0.065984
H186	H	-0.070450	-0.199039	0.434016
H187	H	0.019412	-0.811982	-0.639406
H188	H	0.519412	-0.311982	-0.139406
O189	O	-0.482938	-0.788195	0.000075
O190	O	0.017062	-0.288195	0.500075
C191	C	-0.435054	-0.787788	0.071275
C192	C	0.064946	-0.287788	0.571275
H193	H	-0.465070	-0.824684	0.121040
H194	H	0.034930	-0.324684	0.621040
H195	H	-0.425749	-0.727387	0.095185
H196	H	0.074251	-0.227387	0.595185
H197	H	-0.375624	-0.810964	0.055174
H198	H	0.124376	-0.310964	0.555174
O199	O	0.199099	-0.996680	-0.367639
O200	O	0.699099	-0.496680	0.132361
C201	C	0.151229	-1.045425	-0.417711
C202	C	0.651229	-0.545425	0.082289
H203	H	0.088831	-1.049778	-0.391635
H204	H	0.588831	-0.549778	0.108365
H205	H	0.176212	-1.103944	-0.418680
H206	H	0.676212	-0.603944	0.081320
H207	H	0.149937	-1.021970	-0.483307
H208	H	0.649937	-0.521970	0.016693
H209	H	-0.263544	-0.754384	-0.000070
H210	H	0.236456	-0.254384	0.499930
H211	H	0.237308	-0.519103	-0.000078
H212	H	0.737308	-0.019103	0.499922
H213	H	-0.028504	-0.138450	-0.000128
H214	H	0.471496	0.361550	0.499872
O215	O	-0.107344	-0.755610	0.000031
O216	O	0.392656	-0.255610	0.500031
C217	C	-0.121542	-0.712480	0.071257
C218	C	0.378458	-0.212480	0.571257
H219	H	-0.183609	-0.727311	0.094994
H220	H	0.316391	-0.227311	0.594994
H221	H	-0.115665	-0.649709	0.055254
H222	H	0.384335	-0.149709	0.555254
H223	H	-0.076832	-0.725544	0.121119
H224	H	0.423168	-0.225544	0.621119
O225	O	-0.030592	-0.686597	-0.000129
O226	O	0.469408	-0.186597	0.499871
C227	C	-0.013980	-0.763809	-0.000104
C228	C	0.486020	-0.263809	0.499896
H229	H	0.047596	-0.770559	-0.026128
H230	H	0.547596	-0.270559	0.473872
H231	H	-0.059106	-0.796848	-0.040024
H232	H	0.440894	-0.296848	0.459976
H233	H	-0.016996	-0.786455	0.065859
H234	H	0.483004	-0.286455	0.565859
O235	O	0.199240	-0.996659	-0.197120
O236	O	0.699240	-0.496659	0.302880
C237	C	0.241171	-1.039694	-0.253869
C238	C	0.741171	-0.539694	0.246131
H239	H	0.208709	-1.042151	-0.315563
H240	H	0.708709	-0.542151	0.184437
H241	H	0.245958	-1.099495	-0.228861
H242	H	0.745958	-0.599495	0.271139
H243	H	0.302753	-1.012238	-0.263071
H244	H	0.802753	-0.512238	0.236929
O245	O	0.199236	-0.996681	-0.632692
O246	O	0.699236	-0.496681	-0.132692
C247	C	0.241169	-1.039719	-0.689438
C248	C	0.741169	-0.539719	-0.189438
H249	H	0.208709	-1.042176	-0.751134
H250	H	0.708709	-0.542176	-0.251134
H251	H	0.245952	-1.099520	-0.664428
H252	H	0.745952	-0.599520	-0.164428
H253	H	0.302751	-1.012264	-0.698637
H254	H	0.802751	-0.512264	-0.198637
H255	H	0.230722	-0.121377	-0.000103
H256	H	0.730722	0.378623	0.499897
