data_functionalizedCrystal
_audit_creation_method	'MofGen! by Chris Wilmer'
_symmetry_space_group_name_H-M	'P1'
_symmetry_Int_Tables_number	1
_symmetry_cell_setting	triclinic
loop_
_symmetry_equiv_pos_as_xyz
  x,y,z
_cell_length_a	18.215407
_cell_length_b	16.120444
_cell_length_c	18.215399
_cell_angle_alpha	92.870532
_cell_angle_beta	89.982632
_cell_angle_gamma	92.923925
loop_
_atom_site_label
_atom_site_type_symbol
_atom_site_fract_x
_atom_site_fract_y
_atom_site_fract_z
Zn1	Zn	1.110204	-0.331974	-0.430919
Zn2	Zn	1.103869	-0.471396	-0.314090
Zn3	Zn	0.987136	-0.331994	-0.307872
Zn4	Zn	0.980861	-0.471342	-0.437118
O5	O	1.045517	-0.401676	-0.372500
O6	O	1.212347	-0.350483	-0.415429
O7	O	1.088358	-0.452934	-0.210282
O8	O	1.008739	-0.215325	-0.318999
O9	O	1.207693	-0.452915	-0.329595
O10	O	1.099157	-0.215310	-0.409400
O11	O	1.002595	-0.350517	-0.205714
O12	O	0.883320	-0.350464	-0.325009
O13	O	0.998044	-0.452824	-0.539278
O14	O	0.878710	-0.452843	-0.419965
O15	O	1.093072	-0.350430	-0.534724
O16	O	1.082274	-0.588055	-0.335606
O17	O	0.991901	-0.588015	-0.425994
C18	C	0.854312	-0.401651	-0.372486
C19	C	0.772513	-0.401660	-0.372498
C20	C	0.586737	-0.348433	-0.417271
C21	C	0.509878	-0.348440	-0.417274
C22	C	0.505049	-0.454943	-0.327742
C23	C	0.581907	-0.454931	-0.327736
C24	C	0.622749	-0.401677	-0.372505
C25	C	0.469032	-0.401696	-0.372514
C26	C	0.385698	-0.401704	-0.372516
C27	C	0.706088	-0.401668	-0.372501
C28	C	1.035739	-0.618285	-0.382163
C29	C	1.031623	-0.710951	-0.386322
C30	C	1.067050	-0.921893	-0.351084
C31	C	1.024121	-0.880608	-0.393923
C32	C	1.028296	-0.786202	-0.389692
C33	C	1.062876	-1.016308	-0.355314
C34	C	1.237469	-0.401703	-0.372514
C35	C	1.319267	-0.401714	-0.372520
C36	C	1.045565	-0.401619	-0.564450
C37	C	1.045585	-0.401594	-0.646248
C38	C	1.055354	-0.184222	-0.362814
C39	C	1.059546	-0.091555	-0.358687
C40	C	1.095085	-0.348228	-0.832070
C41	C	1.095095	-0.348204	-0.908927
C42	C	0.996143	-0.454831	-0.913659
C43	C	0.996130	-0.454851	-0.836802
C44	C	1.045605	-0.401551	-0.796010
C45	C	1.045628	-0.401507	-0.949724
C46	C	1.045638	-0.401481	-1.033056
C47	C	1.045594	-0.401575	-0.712672
C48	C	1.045515	-0.401673	-0.181293
C49	C	1.045648	-0.401463	-0.099485
H50	H	0.619988	-0.305068	-0.453722
H51	H	0.955863	-0.498228	-0.946881
C52	C	0.941699	-0.513510	-0.797130
C53	C	0.887284	-0.572146	-0.841997
C54	C	0.832854	-0.630799	-0.802325
C55	C	0.832838	-0.630817	-0.717785
C56	C	0.887255	-0.572179	-0.672914
C57	C	0.941685	-0.513525	-0.712586
H58	H	0.887293	-0.572135	-0.904583
H59	H	0.792571	-0.674207	-0.835542
H60	H	0.792546	-0.674235	-0.688417
H61	H	0.887246	-0.572189	-0.610328
H62	H	0.981968	-0.470118	-0.679369
H63	H	0.480561	-0.305082	-0.453726
C64	C	1.120927	-0.873867	-0.297243
C65	C	1.170657	-0.921601	-0.247608
C66	C	1.224531	-0.873564	-0.193765
C67	C	1.228675	-0.777792	-0.189556
C68	C	1.178943	-0.730053	-0.239192
C69	C	1.125070	-0.778091	-0.293036
H70	H	1.167591	-0.992502	-0.250722
H71	H	1.261346	-0.908904	-0.157021
H72	H	1.268556	-0.742232	-0.149698
H73	H	1.182009	-0.659153	-0.236078
H74	H	1.088255	-0.742750	-0.329780
C75	C	0.460121	-0.513528	-0.278506
C76	C	0.375580	-0.513549	-0.278514
C77	C	0.330653	-0.572138	-0.229280
C78	C	0.370267	-0.630706	-0.180036
C79	C	0.454813	-0.630687	-0.180026
C80	C	0.499740	-0.572098	-0.229261
H81	H	0.346250	-0.470192	-0.314969
H82	H	0.268066	-0.572152	-0.229287
H83	H	0.337010	-0.674077	-0.143590
H84	H	0.484142	-0.674044	-0.143572
H85	H	0.562326	-0.572084	-0.229254
C86	C	0.621525	-0.513505	-0.278491
C87	C	0.611238	-0.506587	-0.194531
C88	C	0.650856	-0.565156	-0.145286
C89	C	0.700761	-0.630643	-0.180001
C90	C	0.711051	-0.637564	-0.263966
C91	C	0.671432	-0.578995	-0.313211
H92	H	0.574293	-0.458107	-0.168829
H93	H	0.643239	-0.560032	-0.083130
H94	H	0.730089	-0.673999	-0.143547
H95	H	0.747996	-0.686044	-0.289668
H96	H	0.679049	-0.584119	-0.375367
C97	C	0.970226	-0.928634	-0.447754
C98	C	0.966066	-1.024406	-0.451957
C99	C	0.912168	-1.072436	-0.505782
C100	C	0.862431	-1.024694	-0.555402
C101	C	0.866589	-0.928918	-0.551201
C102	C	0.920486	-0.880888	-0.497376
H103	H	1.002886	-1.059751	-0.415223
H104	H	0.909090	-1.143336	-0.508892
H105	H	0.822533	-1.060249	-0.595246
H106	H	0.829769	-0.893572	-0.587934
H107	H	0.923564	-0.809987	-0.494266
H108	H	1.135369	-0.304826	-0.798858
H109	H	1.135386	-0.304782	-0.938284
