data_functionalizedCrystal
_audit_creation_method	'MofGen! by Chris Wilmer'
_symmetry_space_group_name_H-M	'P1'
_symmetry_Int_Tables_number	1
_symmetry_cell_setting	triclinic
loop_
_symmetry_equiv_pos_as_xyz
  x,y,z
_cell_length_a	6.817900
_cell_length_b	19.551823
_cell_length_c	11.168136
_cell_angle_alpha	94.549227
_cell_angle_beta	108.508683
_cell_angle_gamma	101.663376
loop_
_atom_site_label
_atom_site_type_symbol
_atom_site_fract_x
_atom_site_fract_y
_atom_site_fract_z
V1	V	-4.075381	-0.096685	-0.394290
O2	O	-4.071120	0.004635	-0.386176
O3	O	-4.017763	-0.191700	-0.392177
O4	O	-4.052200	-0.095203	-0.565986
O5	O	-4.036445	-0.092530	-0.211164
V6	V	-4.556935	-0.084566	-0.372315
O7	O	-4.340957	-0.123271	-0.442492
O8	O	-4.741556	-0.057980	-0.324113
O9	O	-4.391346	0.010449	-0.374428
O10	O	-4.678592	-0.185886	-0.380429
O11	O	-4.713268	-0.088721	-0.555441
O12	O	-4.356909	-0.086048	-0.200619
C13	C	-3.859706	-0.214863	-0.386108
C14	C	-3.894052	-0.292539	-0.385525
C15	C	-4.092880	-0.332585	-0.391566
C16	C	-4.125159	-0.405571	-0.391031
C17	C	-3.958584	-0.438506	-0.384430
C18	C	-3.759731	-0.398452	-0.378396
C19	C	-3.727465	-0.325468	-0.378944
C20	C	-3.833594	-0.544992	-0.304360
C21	C	-3.865864	-0.617974	-0.303805
C22	C	-4.058099	-0.663612	-0.382747
C23	C	-4.218087	-0.636259	-0.462229
C24	C	-4.185821	-0.563276	-0.462776
C25	C	-3.993551	-0.517644	-0.383837
C26	C	-4.291941	-0.782798	-0.388210
C27	C	-4.324216	-0.855786	-0.387683
C28	C	-3.958776	-0.848664	-0.375035
C29	C	-3.926513	-0.775679	-0.375575
C30	C	-4.093100	-0.742750	-0.382157
C31	C	-3.903632	-0.091770	-0.607817
C32	C	-3.965902	-0.091186	-0.748184
C33	C	-4.167321	-0.094240	-0.816895
C34	C	-4.231684	-0.093638	-0.961971
C35	C	-4.212745	0.033608	-0.380494
C36	C	-4.157638	0.111284	-0.381084
C37	C	-4.168818	-0.089484	-0.158781
C38	C	-4.085787	-0.090063	-0.018413
H39	H	-4.427585	-0.755986	-0.393567
H40	H	-4.486134	-0.888392	-0.392611
H41	H	-4.404235	-0.096255	-1.021038
C42	C	-4.335926	-0.098378	-0.751288
H43	H	-4.470639	-0.100212	-0.813208
H44	H	-4.344223	-0.139670	-0.711883
H45	H	-4.296952	-0.057793	-0.688311
H46	H	-3.624108	-0.425272	-0.373025
C47	C	-3.775536	-0.884883	-0.367761
H48	H	-3.823221	-0.934084	-0.368289
H49	H	-3.731121	-0.877845	-0.439260
H50	H	-3.659220	-0.865071	-0.291222
C51	C	-3.852679	-0.086534	-0.938644
H52	H	-3.769499	-0.084219	-0.992877
H53	H	-3.798716	-0.045671	-0.875133
H54	H	-3.846009	-0.127548	-0.898720
C55	C	-4.276134	-0.296369	-0.398836
H56	H	-4.399182	-0.330678	-0.402372
H57	H	-4.235196	-0.261657	-0.325305
H58	H	-4.307106	-0.274439	-0.473344
H59	H	-3.841108	-0.088121	-0.796761
H60	H	-3.565552	-0.292863	-0.374026
C61	C	-4.343876	-0.449629	-0.397666
H62	H	-4.438461	-0.419564	-0.401656
H63	H	-4.400038	-0.484637	-0.471726
H64	H	-4.328059	-0.471858	-0.323685
C65	C	-4.429533	-0.686453	-0.549090
H66	H	-4.425829	-0.733838	-0.537401
H67	H	-4.544207	-0.674830	-0.527644
H68	H	-4.448983	-0.681667	-0.635825
C69	C	-4.361777	-0.533186	-0.550202
H70	H	-4.315026	-0.483183	-0.539211
H71	H	-4.391852	-0.552329	-0.636761
H72	H	-4.487005	-0.545473	-0.528550
H73	H	-3.735597	-0.640238	-0.239079
C74	C	-3.707788	-0.731625	-0.368910
H75	H	-3.613196	-0.761690	-0.364892
H76	H	-3.723564	-0.709388	-0.442873
H77	H	-3.651642	-0.696622	-0.294834
H78	H	-3.677040	-0.507838	-0.240081
