data_functionalizedCrystal
_audit_creation_method	'MofGen! by Chris Wilmer'
_symmetry_space_group_name_H-M	'P1'
_symmetry_Int_Tables_number	1
_symmetry_cell_setting	triclinic
loop_
_symmetry_equiv_pos_as_xyz
  x,y,z
_cell_length_a	10.540510
_cell_length_b	10.540539
_cell_length_c	16.053802
_cell_angle_alpha	92.593658
_cell_angle_beta	87.392914
_cell_angle_gamma	84.519401
loop_
_atom_site_label
_atom_site_type_symbol
_atom_site_fract_x
_atom_site_fract_y
_atom_site_fract_z
O1	O	1.691216	0.173423	-0.069430
O2	O	1.321799	0.190319	-0.069430
O3	O	1.514936	-0.002836	-0.069429
O4	O	1.498080	0.366578	-0.069431
O5	O	1.504304	0.007751	0.069430
O6	O	1.311167	0.200906	0.069428
O7	O	1.680585	0.184011	0.069429
Zn8	Zn	1.494188	0.194140	0.091475
Zn9	Zn	1.508195	0.180190	-0.091477
O10	O	1.487448	0.377166	0.069427
C11	C	1.269179	0.194354	-0.000001
C12	C	1.128230	0.190587	-0.000001
C13	C	0.910799	0.324746	-0.000321
C14	C	1.057370	0.328789	-0.000003
C15	C	1.077399	0.125886	0.079292
C16	C	0.930633	0.122852	0.079354
C17	C	0.942917	0.107934	-0.078555
C18	C	1.089338	0.114409	-0.079598
C19	C	1.508356	-0.044845	-0.000001
C20	C	1.504574	-0.185793	-0.000006
C21	C	1.359679	-0.369228	-0.000318
C22	C	1.363489	-0.222587	-0.000005
C23	C	1.566400	-0.241412	0.079289
C24	C	1.561580	-0.387951	0.079356
C25	C	1.576539	-0.400510	-0.078552
C26	C	1.577919	-0.253608	-0.079601
C27	C	1.733205	0.179976	-0.000003
C28	C	1.874155	0.183743	-0.000008
C29	C	1.494028	0.419175	-0.000002
C30	C	1.497810	0.560123	-0.000003
N31	N	1.484638	0.203659	0.216336
N32	N	1.517756	0.170661	-0.216337
C33	C	1.566849	0.121501	0.260030
C34	C	1.560180	0.128172	0.347437
C35	C	1.471306	0.217009	0.391147
C36	C	1.389087	0.299170	0.347447
C37	C	1.395750	0.292492	0.260042
C38	C	1.442200	0.246144	0.652557
C39	C	1.435545	0.252819	0.739968
C40	C	1.606637	0.081818	0.739952
C41	C	1.613298	0.075153	0.652545
C42	C	1.531074	0.157310	0.608852
N43	N	1.464491	0.223833	0.480491
N44	N	1.537885	0.150479	0.519510
H45	H	0.873199	0.374252	-0.057187
H46	H	1.328804	0.359392	0.224467
H47	H	1.305331	-0.176484	0.056932
H48	H	0.885879	0.175720	0.138626
H49	H	1.514718	-0.194308	0.138298
C50	C	1.487646	-0.419936	0.159429
N51	N	1.431952	-0.444020	0.219739
C52	C	1.711060	-0.022580	0.604470
N53	N	1.784696	-0.096194	0.568259
H54	H	0.862962	0.382590	0.056222
H55	H	1.535478	-0.436640	-0.138653
C56	C	1.156107	-0.022401	-0.086062
N57	N	1.206393	-0.125453	-0.090922
C58	C	1.706058	-0.210899	0.083286
N59	N	1.811245	-0.187904	0.086298
H60	H	1.316718	0.371498	0.383041
C61	C	1.102908	0.397636	-0.076823
N62	N	1.137204	0.449471	-0.134696
H63	H	1.673579	0.014929	0.775535
H64	H	1.639225	0.049167	0.224446
H65	H	1.532730	-0.217217	-0.138261
C66	C	1.089860	0.409859	0.076924
N67	N	1.114331	0.470920	0.134870
H68	H	0.920804	0.004131	-0.079090
H69	H	0.907362	0.019760	0.082956
C70	C	1.141156	-0.011239	0.083300
N71	N	1.189194	-0.114516	0.086324
H72	H	1.627122	0.061272	0.383012
C73	C	1.112962	0.198347	0.159014
N74	N	1.139742	0.252935	0.219059
H75	H	0.904970	0.146934	-0.138655
C76	C	1.337769	0.350546	0.788048
N77	N	1.264128	0.424151	0.824262
C78	C	1.134078	0.177897	-0.158848
N79	N	1.167788	0.225715	-0.218538
C80	C	1.290257	-0.413728	-0.077132
N81	N	1.237966	-0.447258	-0.134990
H82	H	1.314416	-0.184312	-0.056847
H83	H	1.375252	0.313042	0.616989
C84	C	1.698280	-0.452401	0.084229
N85	N	1.801241	-0.500938	0.087905
C86	C	1.278857	-0.404163	0.076090
N87	N	1.217990	-0.430464	0.133648
H88	H	1.681147	-0.229763	-0.084389
H89	H	1.678485	-0.447787	-0.079086
