data_functionalizedCrystal
_audit_creation_method	'MofGen! by Chris Wilmer'
_symmetry_space_group_name_H-M	'P1'
_symmetry_Int_Tables_number	1
_symmetry_cell_setting	triclinic
loop_
_symmetry_equiv_pos_as_xyz
  x,y,z
_cell_length_a	14.971491
_cell_length_b	15.995292
_cell_length_c	13.448316
_cell_angle_alpha	89.996588
_cell_angle_beta	89.991393
_cell_angle_gamma	83.542426
loop_
_atom_site_label
_atom_site_type_symbol
_atom_site_fract_x
_atom_site_fract_y
_atom_site_fract_z
O1	O	1.186796	0.109140	-0.082727
O2	O	0.926378	0.122203	-0.082719
O3	O	1.063733	-0.006212	-0.082725
O4	O	1.049441	0.237555	-0.082721
O5	O	1.063715	-0.006220	0.082659
O6	O	0.926361	0.122195	0.082665
O7	O	1.186778	0.109132	0.082657
Cu8	Cu	1.056568	0.115663	0.097762
Cu9	Cu	1.056588	0.115672	-0.097824
O10	O	1.049424	0.237547	0.082662
C11	C	0.893046	0.121614	-0.000026
C12	C	0.793751	0.119861	-0.000023
C13	C	0.366065	0.112301	-0.090197
C14	C	0.459364	0.113946	-0.090193
C15	C	0.505999	0.114769	-0.000039
C16	C	0.459332	0.113939	0.090117
C17	C	0.366037	0.112289	0.090112
C18	C	0.653789	0.117382	0.090121
C19	C	0.747091	0.119034	0.090126
C20	C	0.747116	0.119038	-0.090185
C21	C	0.653821	0.117388	-0.090190
C22	C	0.607160	0.116560	-0.000033
C23	C	1.063142	-0.037412	-0.000035
C24	C	1.061399	-0.130367	-0.000043
C25	C	1.054988	-0.468112	-0.000034
C26	C	1.154126	-0.444699	0.000333
C27	C	1.156011	-0.348021	-0.000044
C28	C	1.058169	-0.300553	-0.000038
C29	C	1.008614	-0.329700	-0.094475
C30	C	1.007420	-0.426492	-0.094551
C31	C	1.005376	-0.426360	0.093522
C32	C	1.009050	-0.329864	0.094766
C33	C	1.059961	-0.205855	-0.000043
C34	C	1.053192	-0.562810	-0.000035
C35	C	1.220111	0.109721	-0.000038
C36	C	1.319405	0.111474	-0.000048
C37	C	1.050014	0.268747	-0.000029
C38	C	1.051758	0.361702	-0.000028
N39	N	1.056560	0.115656	0.235326
N40	N	1.056603	0.115673	-0.235388
C41	C	1.117400	0.058817	0.287364
C42	C	1.117405	0.058816	0.391467
C43	C	1.056575	0.115659	0.443530
C44	C	0.995729	0.172500	0.391485
C45	C	0.995720	0.172496	0.287384
C46	C	0.995754	0.172506	0.608465
C47	C	0.995764	0.172511	0.712574
C48	C	1.117439	0.058826	0.712548
C49	C	1.117430	0.058822	0.608447
C50	C	1.056585	0.115665	0.556409
H51	H	1.194821	-0.328960	0.067651
F52	F	0.931018	0.233010	0.767977
F53	F	1.053612	-0.303434	-0.186344
H54	H	1.195064	-0.329574	-0.067861
H55	H	1.041754	-0.453270	-0.165149
F56	F	0.914508	-0.288140	-0.099066
H57	H	0.946204	0.218791	0.566100
F58	F	1.182149	-0.001680	0.231963
F59	F	1.204067	-0.481245	0.088856
H60	H	0.946195	0.218780	0.433882
F61	F	0.796723	0.119905	0.186078
F62	F	0.930963	0.232990	0.232003
H63	H	0.497351	0.114614	-0.163602
H64	H	0.615852	0.116723	-0.163601
F65	F	0.912414	-0.445610	-0.100153
H66	H	0.328101	0.111636	-0.163611
H67	H	0.615800	0.116717	0.163536
F68	F	0.796775	0.119928	-0.186137
F69	F	0.508968	0.114813	0.186066
H70	H	1.192134	-0.473675	-0.067015
F71	F	0.316379	0.111402	0.186062
F72	F	1.182156	-0.001679	0.446850
H73	H	1.036590	-0.454420	0.165105
F74	F	1.056208	-0.305548	0.186086
H75	H	1.166967	0.012540	0.566057
F76	F	0.915703	-0.286868	0.102228
F77	F	1.182195	-0.001669	0.767935
F78	F	0.909995	-0.444744	0.094361
