data_functionalizedCrystal
_audit_creation_method	'MofGen! by Chris Wilmer'
_symmetry_space_group_name_H-M	'P1'
_symmetry_Int_Tables_number	1
_symmetry_cell_setting	triclinic
loop_
_symmetry_equiv_pos_as_xyz
  x,y,z
_cell_length_a	19.805407
_cell_length_b	13.897448
_cell_length_c	19.805399
_cell_angle_alpha	90.025019
_cell_angle_beta	90.019573
_cell_angle_gamma	90.017692
loop_
_atom_site_label
_atom_site_type_symbol
_atom_site_fract_x
_atom_site_fract_y
_atom_site_fract_z
Zn1	Zn	1.034777	-0.384037	0.382732
Zn2	Zn	1.534777	0.115963	0.882732
Zn3	Zn	1.034709	-0.545343	0.269549
Zn4	Zn	1.534709	-0.045343	0.769549
Zn5	Zn	0.921591	-0.384064	0.269556
Zn6	Zn	1.421591	0.115936	0.769556
Zn7	Zn	0.921572	-0.545292	0.382695
Zn8	Zn	1.421572	-0.045292	0.882695
O9	O	0.978162	-0.464684	0.326133
O10	O	1.478162	0.035316	0.826133
O11	O	1.129484	-0.405445	0.367730
O12	O	1.629484	0.094555	0.867730
O13	O	1.019683	-0.523982	0.174833
O14	O	1.519683	-0.023982	0.674833
O15	O	0.936642	-0.249079	0.284588
O16	O	1.436642	0.250921	0.784588
O17	O	1.129434	-0.523956	0.284575
O18	O	1.629434	-0.023956	0.784575
O19	O	1.019799	-0.249059	0.367737
O20	O	1.519799	0.250941	0.867737
O21	O	0.936576	-0.405490	0.174839
O22	O	1.436576	0.094510	0.674839
O23	O	0.826872	-0.405441	0.284552
O24	O	1.326872	0.094559	0.784552
O25	O	0.936609	-0.523869	0.477417
O26	O	1.436609	-0.023869	0.977417
O27	O	0.826858	-0.523894	0.367675
O28	O	1.326858	-0.023894	0.867675
O29	O	1.019780	-0.405395	0.477443
O30	O	1.519780	0.094605	0.977443
O31	O	1.019664	-0.680318	0.284539
O32	O	1.519664	-0.180318	0.784539
O33	O	0.936543	-0.680280	0.367668
O34	O	1.436543	-0.180280	0.867668
C35	C	0.802306	-0.464666	0.326111
C36	C	1.302306	0.035334	0.826111
C37	C	0.727074	-0.464681	0.326118
C38	C	1.227074	0.035319	0.826118
C39	C	0.978113	-0.715298	0.326113
C40	C	1.478113	-0.215298	0.826113
C41	C	0.978154	-0.822512	0.326128
C42	C	1.478154	-0.322512	0.826128
C43	C	0.691740	-0.526453	0.369330
C44	C	1.191740	-0.026453	0.869330
C45	C	0.621052	-0.526454	0.369339
C46	C	1.121052	-0.026454	0.869339
C47	C	0.585699	-0.464688	0.326133
C48	C	1.085699	0.035312	0.826133
C49	C	0.621037	-0.402910	0.282919
C50	C	1.121037	0.097090	0.782919
C51	C	0.691725	-0.402904	0.282913
C52	C	1.191725	0.097096	0.782913
C53	C	0.335964	-0.402931	0.282941
C54	C	0.835964	0.097069	0.782941
C55	C	0.265272	-0.402944	0.282949
C56	C	0.765272	0.097056	0.782949
C57	C	0.265292	-0.526481	0.369367
C58	C	0.765292	-0.026481	0.869367
C59	C	0.335979	-0.526476	0.369362
C60	C	0.835979	-0.026476	0.869362
C61	C	0.371311	-0.464694	0.326151
C62	C	0.871311	0.035306	0.826151
C63	C	0.447960	-0.464692	0.326142
C64	C	0.947960	0.035308	0.826142
C65	C	0.509051	-0.464695	0.326138
C66	C	1.009051	0.035305	0.826138
C67	C	0.978225	-1.018807	0.326170
C68	C	1.478225	-0.518807	0.826170
C69	C	0.978183	-0.909575	0.326149
C70	C	1.478183	-0.409575	0.826149
C71	C	1.154705	-0.464703	0.326155
C72	C	1.654705	0.035297	0.826155
C73	C	1.229937	-0.464711	0.326165
C74	C	1.729937	0.035289	0.826165
C75	C	0.978200	-0.464623	0.502676
C76	C	1.478200	0.035377	1.002676
C77	C	0.978216	-0.464597	0.577908
C78	C	1.478216	0.035403	1.077908
C79	C	0.978230	-0.213091	0.326167
C80	C	1.478230	0.286909	0.826167
C81	C	0.978259	-0.105877	0.326182
C82	C	1.478259	0.394123	0.826182
C83	C	0.978163	-0.464675	0.150277
C84	C	1.478163	0.035325	0.650277
C85	C	0.978278	-0.464429	0.075045
C86	C	1.478278	0.035571	0.575045
C87	C	1.021524	-0.402905	0.613267
C88	C	1.521524	0.097095	1.113267
C89	C	1.021531	-0.402877	0.683955
C90	C	1.521531	0.097123	1.183955
C91	C	0.978233	-0.464547	0.719283
C92	C	1.478233	0.035453	1.219283
C93	C	0.934920	-0.526242	0.683919
C94	C	1.434920	-0.026242	1.183919
C95	C	0.934910	-0.526264	0.613232
C96	C	1.434910	-0.026264	1.113232
C97	C	0.934958	-0.526152	0.968993
C98	C	1.434958	-0.026152	1.468993
C99	C	0.934973	-0.526127	1.039685
C100	C	1.434973	-0.026127	1.539685
C101	C	1.021579	-0.402765	1.039716
C102	C	1.521579	0.097235	1.539716
C103	C	1.021570	-0.402787	0.969029
C104	C	1.521570	0.097213	1.469029
C105	C	0.978255	-0.464478	0.933671
C106	C	1.478255	0.035522	1.433671
C107	C	0.978247	-0.464507	0.857022
C108	C	1.478247	0.035493	1.357022
C109	C	0.978244	-0.464524	0.795931
C110	C	1.478244	0.035476	1.295931
H111	H	0.720520	-0.576753	0.404511
H112	H	1.220520	-0.076753	0.904511
C113	C	1.069155	-0.335067	0.574410
C114	C	1.569155	0.164933	1.074410
C115	C	1.122279	-0.376882	0.525821
C116	C	1.622279	0.123118	1.025821
C117	C	1.169909	-0.309039	0.486966
C118	C	1.669909	0.190961	0.986966
C119	C	1.164415	-0.199380	0.496700
C120	C	1.664415	0.300620	0.996700
C121	C	1.111288	-0.157558	0.545292
C122	C	1.611288	0.342442	1.045292
C123	C	1.063658	-0.225402	0.584146
C124	C	1.563658	0.274598	1.084146
H125	H	1.126348	-0.458064	0.518613
H126	H	1.626348	0.041936	1.018613
H127	H	1.209237	-0.339998	0.450995
H128	H	1.709237	0.160002	0.950995
H129	H	1.199673	-0.149158	0.467938
H130	H	1.699673	0.350842	0.967938
H131	H	1.107219	-0.076377	0.552500
H132	H	1.607219	0.423623	1.052500
H133	H	1.024330	-0.194442	0.620117
H134	H	1.524330	0.305558	1.120117
H135	H	0.899638	-0.576490	0.584444
H136	H	1.399638	-0.076490	1.084444
H137	H	0.364723	-0.352632	0.247751
H138	H	0.864723	0.147368	0.747751
C139	C	0.730593	-0.334955	0.235378
C140	C	1.230593	0.165045	0.735378
C141	C	0.779162	-0.376642	0.182184
C142	C	1.279162	0.123358	0.682184
C143	C	0.818029	-0.308685	0.134650
C144	C	1.318029	0.191315	0.634650
C145	C	0.808327	-0.199042	0.140310
C146	C	1.308327	0.300958	0.640310
C147	C	0.759756	-0.157349	0.193507
C148	C	1.259756	0.342651	0.693507
C149	C	0.720889	-0.225305	0.241041
C150	C	1.220889	0.274695	0.741041
H151	H	0.786346	-0.457811	0.177991
H152	H	1.286346	0.042189	0.677991
H153	H	0.853984	-0.339550	0.095270
H154	H	1.353984	0.160450	0.595270
H155	H	0.837099	-0.148737	0.105122
H156	H	1.337099	0.351263	0.605122
H157	H	0.752572	-0.076180	0.197699
H158	H	1.252572	0.423820	0.697699
H159	H	0.684934	-0.194441	0.280421
H160	H	1.184934	0.305559	0.780421
H161	H	1.056830	-0.352573	0.940268
H162	H	1.556830	0.147427	1.440268
H163	H	0.236489	-0.352641	0.247765
H164	H	0.736489	0.147359	0.747765
H165	H	0.899699	-0.576398	0.940213
H166	H	1.399699	-0.076398	1.440213
H167	H	0.592247	-0.352615	0.247743
H168	H	1.092247	0.147385	0.747743
H169	H	1.056799	-0.352644	0.712742
H170	H	1.556799	0.147356	1.212742
H171	H	1.056846	-0.352530	1.068513
H172	H	1.556846	0.147470	1.568513
H173	H	0.899712	-0.576347	1.068447
H174	H	1.399712	-0.076347	1.568447
C175	C	0.887291	-0.594080	0.722778
C176	C	1.387291	-0.094080	1.222778
C177	C	0.887302	-0.594064	0.800531
C178	C	1.387302	-0.094064	1.300531
C179	C	0.839673	-0.661906	0.839388
C180	C	1.339673	-0.161906	1.339388
C181	C	0.792033	-0.729765	0.800491
C182	C	1.292033	-0.229765	1.300491
C183	C	0.792020	-0.729784	0.722734
C184	C	1.292020	-0.229784	1.222734
C185	C	0.839649	-0.661942	0.683877
C186	C	1.339649	-0.161942	1.183877
H187	H	0.922569	-0.543828	0.829328
H188	H	1.422569	-0.043828	1.329328
H189	H	0.839683	-0.661892	0.896949
H190	H	1.339683	-0.161892	1.396949
H191	H	0.756776	-0.779986	0.829255
H192	H	1.256776	-0.279986	1.329255
H193	H	0.756753	-0.780020	0.693936
H194	H	1.256753	-0.280020	1.193936
H195	H	0.839640	-0.661956	0.626316
H196	H	1.339640	-0.161956	1.126316
H197	H	0.364760	-0.576775	0.404542
H198	H	0.864760	-0.076775	0.904542
C199	C	0.582185	-0.594405	0.416873
C200	C	1.082185	-0.094405	0.916873
C201	C	0.621071	-0.662351	0.464395
C202	C	1.121071	-0.162351	0.964395
C203	C	0.582204	-0.730303	0.511933
C204	C	1.082204	-0.230303	1.011933
C205	C	0.504451	-0.730308	0.511948
C206	C	1.004451	-0.230308	1.011948
C207	C	0.465560	-0.662360	0.464423
C208	C	0.965560	-0.162360	0.964423
C209	C	0.504427	-0.594408	0.416886
C210	C	1.004427	-0.094408	0.916886
H211	H	0.678632	-0.662349	0.464386
H212	H	1.178632	-0.162349	0.964386
H213	H	0.610994	-0.780603	0.547113
H214	H	1.110994	-0.280603	1.047113
H215	H	0.475679	-0.780610	0.547138
H216	H	0.975679	-0.280610	1.047138
H217	H	0.407999	-0.662362	0.464433
H218	H	0.907999	-0.162362	0.964433
H219	H	0.475637	-0.544108	0.381705
H220	H	0.975637	-0.044108	0.881705
H221	H	0.236515	-0.576783	0.404554
H222	H	0.736515	-0.076783	0.904554
