data_functionalizedCrystal
_audit_creation_method	'MofGen! by Chris Wilmer'
_symmetry_space_group_name_H-M	'P1'
_symmetry_Int_Tables_number	1
_symmetry_cell_setting	triclinic
loop_
_symmetry_equiv_pos_as_xyz
  x,y,z
_cell_length_a	19.288864
_cell_length_b	17.038272
_cell_length_c	17.766277
_cell_angle_alpha	89.993732
_cell_angle_beta	89.976791
_cell_angle_gamma	87.123901
loop_
_atom_site_label
_atom_site_type_symbol
_atom_site_fract_x
_atom_site_fract_y
_atom_site_fract_z
O1	O	0.927386	0.097514	-0.062838
O2	O	1.427386	0.597514	0.437162
O3	O	0.725940	0.110668	-0.062787
O4	O	1.225940	0.610668	0.437213
O5	O	0.825466	-0.009720	-0.062806
O6	O	1.325466	0.490280	0.437194
O7	O	0.827860	0.217903	-0.062819
O8	O	1.327860	0.717903	0.437181
O9	O	0.825447	-0.009726	0.062382
O10	O	1.325447	0.490274	0.562382
O11	O	0.725920	0.110662	0.062402
O12	O	1.225920	0.610662	0.562402
O13	O	0.927367	0.097508	0.062351
O14	O	1.427367	0.597508	0.562351
Cu15	Cu	0.826642	0.104085	0.073807
Cu16	Cu	1.326642	0.604085	0.573807
Cu17	Cu	0.826665	0.104092	-0.074243
Cu18	Cu	1.326665	0.604092	0.425757
O19	O	0.827841	0.217897	0.062370
O20	O	1.327841	0.717897	0.562370
C21	C	0.700027	0.110242	-0.000186
C22	C	1.200027	0.610242	0.499814
C23	C	0.622845	0.108972	-0.000166
C24	C	1.122845	0.608972	0.499834
C25	C	0.582519	0.179610	-0.000182
C26	C	1.082519	0.679610	0.499818
C27	C	0.509998	0.178417	-0.000190
C28	C	1.009998	0.678417	0.499810
C29	C	0.477806	0.106580	-0.000198
C30	C	0.977806	0.606580	0.499802
C31	C	0.518141	0.035932	-0.000178
C32	C	1.018141	0.535932	0.499822
C33	C	0.590661	0.037128	-0.000162
C34	C	1.090661	0.537128	0.499838
C35	C	0.366057	0.050111	-0.044079
C36	C	0.866057	0.550111	0.455921
C37	C	0.293539	0.048918	-0.044100
C38	C	0.793539	0.548918	0.455900
C39	C	0.254132	0.102889	-0.000243
C40	C	0.754132	0.602889	0.499757
C41	C	0.287252	0.158066	0.043624
C42	C	0.787252	0.658066	0.543624
C43	C	0.359772	0.159262	0.043640
C44	C	0.859772	0.659262	0.543640
C45	C	0.399172	0.105276	-0.000214
C46	C	0.899172	0.605276	0.499786
C47	C	0.135171	0.172238	-0.000267
C48	C	0.635171	0.672238	0.499733
C49	C	0.062649	0.171042	-0.000270
C50	C	0.562649	0.671042	0.499730
C51	C	0.070793	0.028556	-0.000266
C52	C	0.570793	0.528556	0.499734
C53	C	0.143314	0.029754	-0.000254
C54	C	0.643314	0.529754	0.499746
C55	C	0.175498	0.101598	-0.000259
C56	C	0.675498	0.601598	0.499741
C57	C	0.823278	-0.038845	-0.000211
C58	C	1.323278	0.461155	0.499789
C59	C	0.816781	-0.125616	-0.000210
C60	C	1.316781	0.374384	0.499790
C61	C	0.876437	-0.175923	-0.000224
C62	C	1.376437	0.324077	0.499776
C63	C	0.870327	-0.257454	-0.000230
C64	C	1.370327	0.242546	0.499770
C65	C	0.804561	-0.288677	-0.000216
C66	C	1.304561	0.211323	0.499784
C67	C	0.744901	-0.238363	-0.000204
C68	C	1.244901	0.261637	0.499796
C69	C	0.751011	-0.156834	-0.000203
C70	C	1.251011	0.343166	0.499797
C71	C	0.782976	-0.534365	-0.000221
C72	C	1.282976	-0.034365	0.499779
C73	C	0.776870	-0.615900	-0.000219
C74	C	1.276870	-0.115900	0.499781
C75	C	0.902297	-0.634985	-0.000246
C76	C	1.402297	-0.134985	0.499754
C77	C	0.908402	-0.553454	-0.000241
C78	C	1.408402	-0.053454	0.499759
C79	C	0.848741	-0.503148	-0.000233
C80	C	1.348741	-0.003148	0.499767
C81	C	0.798315	-0.372014	-0.000219
C82	C	1.298315	0.127986	0.499781
C83	C	0.854988	-0.419812	-0.000235
C84	C	1.354988	0.080188	0.499765
C85	C	0.953279	0.097934	-0.000252
C86	C	1.453279	0.597934	0.499748
C87	C	1.030462	0.099205	-0.000277
C88	C	1.530462	0.599205	0.499723
C89	C	0.830029	0.247021	-0.000227
C90	C	1.330029	0.747021	0.499773
C91	C	0.836526	0.333793	-0.000233
C92	C	1.336526	0.833793	0.499767
N93	N	0.826631	0.104079	0.177937
N94	N	1.326631	0.604079	0.677937
N95	N	0.826681	0.104091	-0.178373
N96	N	1.326681	0.604091	0.321627
C97	C	0.870718	0.050797	0.217315
C98	C	1.370718	0.550797	0.717315
C99	C	0.870722	0.050793	0.296117
C100	C	1.370722	0.550793	0.796117
C101	C	0.826646	0.104085	0.335538
C102	C	1.326646	0.604085	0.835538
C103	C	0.782551	0.157371	0.296150
C104	C	1.282551	0.657371	0.796150
C105	C	0.782543	0.157368	0.217350
C106	C	1.282543	0.657368	0.717350
C107	C	0.821754	0.175309	0.460373
C108	C	1.321754	0.675309	0.960373
C109	C	0.821767	0.175313	0.539172
C110	C	1.321767	0.675313	1.039172
C111	C	0.826665	0.104095	0.578584
C112	C	1.326665	0.604095	1.078584
C113	C	0.831566	0.032869	0.539188
C114	C	1.331566	0.532869	1.039188
C115	C	0.831559	0.032866	0.460387
C116	C	1.331559	0.532866	0.960387
C117	C	0.826649	0.104094	0.420983
C118	C	1.326649	0.604094	0.920983
C119	C	0.870759	0.050804	0.703408
C120	C	1.370759	0.550804	1.203408
C121	C	0.870758	0.050800	0.782212
C122	C	1.370758	0.550800	1.282212
C123	C	0.782590	0.157384	0.782243
C124	C	1.282590	0.657384	1.282243
C125	C	0.782587	0.157382	0.703441
C126	C	1.282587	0.657382	1.203441
C127	C	0.826676	0.104093	0.664028
C128	C	1.326676	0.604093	1.164028
H129	H	0.029816	0.228567	-0.000279
H130	H	0.529816	0.728567	0.499721
H131	H	0.918906	-0.298411	-0.000240
H132	H	1.418906	0.201589	0.499760
H133	H	0.906616	0.007404	0.185228
H134	H	1.406616	0.507404	0.685228
H135	H	0.746700	0.200773	0.814338
H136	H	1.246700	0.700773	1.314338
N137	N	0.979335	-0.519779	-0.000252
N138	N	1.479335	-0.019779	0.499748
H139	H	1.016201	-0.564021	-0.000262
H140	H	1.516201	-0.064021	0.499738
H141	H	0.984611	-0.486360	-0.046660
H142	H	1.484611	0.013640	0.453340
N143	N	0.836842	-0.043950	0.417896
N144	N	1.336842	0.456050	0.917896
H145	H	0.879727	-0.045779	0.385181
H146	H	1.379727	0.454221	0.885181
H147	H	0.839920	-0.089022	0.454865
H148	H	1.339920	0.410978	0.954865
H149	H	0.608719	0.238111	-0.000187
H150	H	1.108719	0.738111	0.499813
N151	N	0.925920	-0.386142	-0.000244
N152	N	1.425920	0.113858	0.499756
H153	H	0.931262	-0.352732	-0.046650
H154	H	1.431262	0.147268	0.453350
H155	H	0.931187	-0.352787	0.046196
H156	H	1.431187	0.147213	0.546196
H157	H	0.906656	0.007407	0.814274
H158	H	1.406656	0.507407	1.314274
H159	H	0.386735	0.204187	0.079360
H160	H	0.886735	0.704187	0.579360
H161	H	0.744768	-0.397444	-0.000206
H162	H	1.244768	0.102556	0.499794
N163	N	0.918273	-0.006679	0.338603
N164	N	1.418273	0.493321	0.838603
H165	H	0.946199	-0.040438	0.301678
H166	H	1.446199	0.459562	0.801678
H167	H	0.950739	0.023167	0.371275
H168	H	1.450739	0.523167	0.871275
N169	N	0.257817	-0.010590	-0.091409
N170	N	0.757817	0.489410	0.408591
H171	H	0.270055	-0.003107	-0.146135
H172	H	0.770055	0.496893	0.353865
H173	H	0.273584	-0.065352	-0.074959
H174	H	0.773584	0.434648	0.425041
H175	H	0.255169	0.202014	0.079337
H176	H	0.755169	0.702014	0.579337
N177	N	0.466492	0.254608	-0.000209
N178	N	0.966492	0.754608	0.499791
H179	H	0.497885	0.300301	-0.000209
H180	H	0.997885	0.800301	0.499791
H181	H	0.436254	0.257207	-0.046627
H182	H	0.936254	0.757207	0.453373
N183	N	0.036083	-0.048927	-0.000265
N184	N	0.536083	0.451073	0.499735
H185	H	-0.015978	-0.038967	-0.000275
H186	H	0.484022	0.461033	0.499725
H187	H	0.050560	-0.079828	-0.046670
H188	H	0.550560	0.420172	0.453330
N189	N	0.169891	0.249722	-0.000267
N190	N	0.669891	0.749722	0.499733
H191	H	0.133337	0.294292	-0.000272
H192	H	0.633337	0.794292	0.499728
H193	H	0.199780	0.253318	0.046146
H194	H	0.699780	0.753318	0.546146
N195	N	0.836854	-0.043952	0.581683
N196	N	1.336854	0.456048	1.081683
H197	H	0.836112	-0.033146	0.637580
H198	H	1.336112	0.466854	1.137580
H199	H	0.796324	-0.076397	0.567932
H200	H	1.296324	0.423603	1.067932
H201	H	0.906656	0.007410	0.671317
H202	H	1.406656	0.507410	1.171317
H203	H	0.734396	-0.493415	-0.000214
H204	H	1.234396	0.006585	0.499786
H205	H	0.929990	-0.150509	-0.000231
H206	H	1.429990	0.349491	0.499769
N207	N	0.186814	-0.046435	-0.000237
N208	N	0.686814	0.453565	0.499763
H209	H	0.155418	-0.092126	-0.000242
H210	H	0.655418	0.407874	0.499758
H211	H	0.217107	-0.049043	-0.046638
H212	H	0.717107	0.450957	0.453362
H213	H	0.398136	0.006160	-0.079797
H214	H	0.898136	0.506160	0.420203
H215	H	0.491926	-0.022557	-0.000194
H216	H	0.991926	0.477443	0.499806
N217	N	0.634161	-0.039064	-0.000141
N218	N	1.134161	0.460936	0.499859
H219	H	0.602766	-0.084755	-0.000144
H220	H	1.102766	0.415245	0.499856
H221	H	0.664452	-0.041671	-0.046544
H222	H	1.164452	0.458329	0.453456
H223	H	0.950869	-0.675953	-0.000254
H224	H	1.450869	-0.175953	0.499746
N225	N	0.735036	0.214851	0.660962
N226	N	1.235036	0.714851	1.160962
H227	H	0.707113	0.248611	0.697890
H228	H	1.207113	0.748611	1.197890
H229	H	0.763656	0.249333	0.628245
H230	H	1.263656	0.749333	1.128245
N231	N	0.705934	-0.649579	-0.000204
N232	N	1.205934	-0.149579	0.499796
H233	H	0.669065	-0.605340	-0.000201
H234	H	1.169065	-0.105340	0.499799
H235	H	0.700681	-0.682988	-0.046612
H236	H	1.200681	-0.182988	0.453388
H237	H	0.691353	-0.263791	-0.000197
H238	H	1.191353	0.236209	0.499803
N239	N	0.816475	0.252130	0.581661
N240	N	1.316475	0.752130	1.081661
H241	H	0.856993	0.284619	0.567919
H242	H	1.356993	0.784619	1.067919
H243	H	0.771634	0.281847	0.567948
H244	H	1.271634	0.781847	1.067948
N245	N	0.734998	0.214844	0.174868
N246	N	1.234998	0.714844	0.674868
H247	H	0.702487	0.185058	0.142193
H248	H	1.202487	0.685058	0.642193
H249	H	0.707119	0.248592	0.211839
H250	H	1.207119	0.748592	0.711839
N251	N	0.816471	0.252128	0.417868
N252	N	1.316471	0.752128	0.917868
H253	H	0.813376	0.297247	0.454780
H254	H	1.313376	0.797247	0.954780
H255	H	0.858927	0.256565	0.385151
H256	H	1.358927	0.756565	0.885151
N257	N	0.735007	0.214847	0.338662
N258	N	1.235007	0.714847	0.838662
H259	H	0.741702	0.206766	0.394558
H260	H	1.241702	0.706766	0.894558
H261	H	0.746299	0.270279	0.324873
H262	H	1.246299	0.770279	0.824873
H263	H	0.702432	-0.115875	-0.000192
H264	H	1.202432	0.384125	0.499808
