data_functionalizedCrystal
_audit_creation_method	'MofGen! by Chris Wilmer'
_symmetry_space_group_name_H-M	'P1'
_symmetry_Int_Tables_number	1
_symmetry_cell_setting	triclinic
loop_
_symmetry_equiv_pos_as_xyz
  x,y,z
_cell_length_a	18.215405
_cell_length_b	12.759401
_cell_length_c	12.759393
_cell_angle_alpha	89.976155
_cell_angle_beta	90.037569
_cell_angle_gamma	89.976021
loop_
_atom_site_label
_atom_site_type_symbol
_atom_site_fract_x
_atom_site_fract_y
_atom_site_fract_z
Zn1	Zn	-0.292959	-1.606181	0.594087
Zn2	Zn	-0.416045	-1.606044	0.418389
Zn3	Zn	-0.292995	-1.430483	0.418410
Zn4	Zn	-0.415986	-1.430440	0.594014
O5	O	-0.354496	-1.518287	0.506225
O6	O	-0.309296	-1.753184	0.570802
O7	O	-0.399762	-1.582716	0.271371
O8	O	-0.190006	-1.453865	0.441754
O9	O	-0.399727	-1.753083	0.441718
O10	O	-0.189979	-1.582949	0.570823
O11	O	-0.309358	-1.453732	0.271386
O12	O	-0.309300	-1.283456	0.441683
O13	O	-0.399626	-1.453792	0.741045
O14	O	-0.399661	-1.283425	0.570698
O15	O	-0.309239	-1.582908	0.741099
O16	O	-0.519021	-1.582675	0.441647
O17	O	-0.518978	-1.453660	0.570678
C18	C	-0.354479	-1.245320	0.506186
C19	C	-0.354489	-1.128543	0.506193
C20	C	-0.545702	-1.518176	0.506175
C21	C	-0.627501	-1.518225	0.506188
C22	C	-0.401516	-0.963895	0.438917
C23	C	-0.401504	-1.073619	0.438893
C24	C	-0.307479	-1.073738	0.573516
C25	C	-0.307488	-0.964016	0.573534
C26	C	-0.455803	-0.963827	0.361197
C27	C	-0.455791	-1.073551	0.361172
C28	C	-0.815693	-1.585561	0.439125
C29	C	-0.892552	-1.585608	0.439151
C30	C	-0.892547	-1.451148	0.573401
C31	C	-0.815690	-1.451107	0.573380
C32	C	-0.777265	-1.518312	0.506236
C33	C	-0.930981	-1.518400	0.506283
C34	C	-1.014314	-1.518450	0.506311
C35	C	-0.693926	-1.518263	0.506209
C36	C	-0.162543	-1.518427	0.506299
C37	C	-0.080744	-1.518487	0.506330
C38	C	-0.354422	-1.518361	0.780259
C39	C	-0.354390	-1.518392	0.897036
C40	C	-0.354511	-0.792320	0.506254
C41	C	-0.354511	-0.909097	0.506237
C42	C	-0.354517	-1.518274	0.233258
C43	C	-0.354341	-1.518447	0.116482
C44	C	-0.307321	-1.585632	0.951927
C45	C	-0.307294	-1.585657	1.061651
C46	C	-0.401413	-1.451199	1.061582
C47	C	-0.401435	-1.451170	0.951860
C48	C	-0.252984	-1.663263	0.951968
C49	C	-0.252958	-1.663288	1.061692
H50	H	-0.269206	-0.919403	0.628344
C51	C	-0.435093	-0.923535	0.251338
C52	C	-0.431092	-0.804865	0.230067
C53	C	-0.410382	-0.764573	0.120212
C54	C	-0.393672	-0.842949	0.031628
C55	C	-0.397672	-0.961626	0.052896
C56	C	-0.418382	-1.001918	0.162751
H57	H	-0.443462	-0.746840	0.295645
H58	H	-0.407421	-0.676720	0.104469
H59	H	-0.378340	-0.813122	-0.049693
H60	H	-0.385301	-1.019651	-0.012681
H61	H	-0.421343	-1.089771	0.178495
C62	C	-0.175995	-1.633868	0.911767
C63	C	-0.109303	-1.702126	0.940968
C64	C	-0.032316	-1.672730	0.900767
C65	C	-0.022021	-1.575074	0.831365
C66	C	-0.088715	-1.506810	0.802161
C67	C	-0.165702	-1.536206	0.842362
H68	H	-0.116922	-1.774422	0.992347
H69	H	0.017055	-1.723265	0.922387
H70	H	0.034969	-1.553313	0.801606
H71	H	-0.081096	-1.434514	0.750782
H72	H	-0.215073	-1.485671	0.820742
C73	C	-0.280576	-1.767651	0.905992
C74	C	-0.239958	-1.870457	0.931364
C75	C	-0.267550	-1.974847	0.885393
C76	C	-0.335761	-1.976431	0.814049
C77	C	-0.376384	-1.873622	0.788673
C78	C	-0.348791	-1.769232	0.834645
H79	H	-0.189461	-1.869287	0.984181
H80	H	-0.237479	-2.050953	0.904178
H81	H	-0.356187	-2.053707	0.780018
H82	H	-0.426881	-1.874792	0.735857
H83	H	-0.378863	-1.693126	0.815860
C84	C	-0.773411	-1.377128	0.647205
C85	C	-0.720501	-1.422584	0.729718
C86	C	-0.678221	-1.348613	0.803543
C87	C	-0.688852	-1.229186	0.794855
C88	C	-0.741765	-1.183724	0.712338
C89	C	-0.784045	-1.257695	0.638514
H90	H	-0.712629	-1.510996	0.736153
H91	H	-0.639052	-1.382268	0.864627
H92	H	-0.657555	-1.174428	0.849504
H93	H	-0.749637	-1.095311	0.705904
H94	H	-0.823214	-1.224040	0.577429
C95	C	-0.453189	-1.377184	0.891464
C96	C	-0.510985	-1.422611	0.815987
C97	C	-0.562732	-1.348614	0.755584
C98	C	-0.556684	-1.229190	0.770659
C99	C	-0.498886	-1.183757	0.846140
C100	C	-0.447139	-1.257754	0.906543
H101	H	-0.515464	-1.511021	0.804824
H102	H	-0.605518	-1.382247	0.699708
H103	H	-0.594991	-1.174413	0.725946
H104	H	-0.494407	-1.095347	0.857303
H105	H	-0.404353	-1.224120	0.962419
H106	H	-0.435311	-1.107544	0.283920
H107	H	-0.509971	-0.929788	0.390210
H108	H	-0.269194	-1.118466	0.628306
H109	H	-0.923837	-1.640370	0.384504
H110	H	-0.512803	-1.103319	0.382817
H111	H	-0.923842	-1.396430	0.628065
C112	C	-0.453163	-1.377262	1.121892
C113	C	-0.453140	-1.377288	1.242582
C114	C	-0.504893	-1.303350	1.302889
C115	C	-0.556669	-1.229386	1.242507
C116	C	-0.556694	-1.229358	1.121810
C117	C	-0.504941	-1.303296	1.061503
H118	H	-0.414811	-1.432042	1.287287
H119	H	-0.504874	-1.303371	1.392238
H120	H	-0.594979	-1.174653	1.287149
H121	H	-0.595023	-1.174604	1.077105
H122	H	-0.504960	-1.303275	0.972155
H123	H	-0.784410	-1.640285	0.384455
C124	C	-0.179799	-1.623998	1.107708
C125	C	-0.117137	-1.590303	1.034093
C126	C	-0.043981	-1.551012	1.080111
C127	C	-0.033487	-1.545416	1.199744
C128	C	-0.096151	-1.579112	1.273366
C129	C	-0.169307	-1.618403	1.227348
H130	H	-0.124904	-1.594444	0.945527
H131	H	0.002407	-1.526068	1.025611
H132	H	0.020667	-1.516331	1.233809
H133	H	-0.088384	-1.574971	1.361932
H134	H	-0.215695	-1.643347	1.281849
H135	H	-0.268224	-1.744655	1.091476
