data_functionalizedCrystal
_audit_creation_method	'MofGen! by Chris Wilmer'
_symmetry_space_group_name_H-M	'P1'
_symmetry_Int_Tables_number	1
_symmetry_cell_setting	triclinic
loop_
_symmetry_equiv_pos_as_xyz
  x,y,z
_cell_length_a	13.262390
_cell_length_b	11.792241
_cell_length_c	10.868271
_cell_angle_alpha	90.001559
_cell_angle_beta	105.921648
_cell_angle_gamma	84.317877
loop_
_atom_site_label
_atom_site_type_symbol
_atom_site_fract_x
_atom_site_fract_y
_atom_site_fract_z
O1	O	1.393573	0.152851	0.568700
O2	O	1.893573	0.652851	1.068700
O3	O	1.088078	0.169478	0.466464
O4	O	1.588078	0.669478	0.966464
O5	O	1.248239	-0.004021	0.520054
O6	O	1.748239	0.495979	1.020054
O7	O	1.233412	0.326349	0.515110
O8	O	1.733412	0.826349	1.015110
O9	O	1.248224	-0.004015	0.315405
O10	O	1.748224	0.495985	0.815405
O11	O	1.088063	0.169484	0.261815
O12	O	1.588063	0.669484	0.761815
O13	O	1.393559	0.152856	0.364050
O14	O	1.893559	0.652856	0.864050
Zn15	Zn	1.240809	0.161171	0.280440
Zn16	Zn	1.740809	0.661171	0.780440
Zn17	Zn	1.240828	0.161163	0.550075
Zn18	Zn	1.740828	0.661163	1.050075
O19	O	1.233397	0.326355	0.310460
O20	O	1.733397	0.826355	0.810460
C21	C	1.048960	0.168550	0.351051
C22	C	1.548960	0.668550	0.851051
C23	C	0.932424	0.165762	0.312052
C24	C	1.432424	0.665762	0.812052
C25	C	0.603968	0.157876	0.648355
C26	C	1.103968	0.657876	1.148355
C27	C	0.713460	0.160490	0.684999
C28	C	1.213460	0.660490	1.184999
C29	C	0.768206	0.161809	0.591766
C30	C	1.268206	0.661809	1.091766
C31	C	0.713450	0.160512	0.461881
C32	C	1.213450	0.660512	0.961881
C33	C	0.603948	0.157889	0.425234
C34	C	1.103948	0.657889	0.925234
C35	C	0.768187	0.161822	0.368644
C36	C	1.268187	0.661822	0.868644
C37	C	0.713430	0.160526	0.238760
C38	C	1.213430	0.660526	0.738760
C39	C	0.603939	0.157904	0.202119
C40	C	1.103939	0.657904	0.702119
C41	C	0.549193	0.156585	0.295353
C42	C	1.049193	0.656585	0.795353
C43	C	0.877688	0.164445	0.405292
C44	C	1.377688	0.664445	0.905292
C45	C	0.877668	0.164458	0.182170
C46	C	1.377668	0.664458	0.682170
C47	C	0.768176	0.161844	0.145526
C48	C	1.268176	0.661844	0.645526
C49	C	1.247300	-0.046307	0.417418
C50	C	1.747300	0.453693	0.917418
C51	C	1.244513	-0.172315	0.416487
C52	C	1.744513	0.327685	0.916487
C53	C	1.239387	-0.403018	0.414792
C54	C	1.739387	0.096982	0.914792
C55	C	1.242235	-0.274638	0.415734
C56	C	1.742235	0.225362	0.915734
C57	C	1.432676	0.153784	0.479466
C58	C	1.932676	0.653784	0.979466
C59	C	1.549213	0.156572	0.518474
C60	C	2.049213	0.656572	1.018474
C61	C	1.234336	0.368641	0.413099
C62	C	1.734336	0.868641	0.913099
C63	C	1.237124	0.494649	0.414039
C64	C	1.737124	0.994649	0.914039
N65	N	1.240803	0.161175	0.096424
N66	N	1.740803	0.661175	0.596424
C67	C	1.240811	0.161175	-0.014911
C68	C	1.740811	0.661175	0.485089
C69	C	1.240825	0.161165	-0.154584
C70	C	1.740825	0.661165	0.345416
N71	N	1.240842	0.161150	0.734093
N72	N	1.740842	0.661150	1.234093
H73	H	0.758036	0.161539	0.790751
H74	H	1.258036	0.661539	1.290751
H75	H	0.857360	0.163938	0.621609
H76	H	1.357360	0.663938	1.121609
H77	H	0.922260	0.165502	0.511044
H78	H	1.422260	0.665502	1.011044
C79	C	0.543649	0.156958	0.059236
C80	C	1.043649	0.656958	0.559236
H81	H	0.470582	0.155347	0.050760
H82	H	0.970582	0.655347	0.550760
H83	H	0.554111	0.223649	0.017246
H84	H	1.054111	0.723649	0.517246
H85	H	0.569036	0.091419	0.021552
H86	H	1.069036	0.591419	0.521552
C87	C	0.543748	0.156424	0.750895
C88	C	1.043748	0.656424	1.250895
H89	H	0.470694	0.154682	0.710464
H90	H	0.970694	0.654682	1.210464
H91	H	0.569323	0.090744	0.805287
H92	H	1.069323	0.590744	1.305287
H93	H	0.554060	0.222968	0.800188
H94	H	1.054060	0.722968	1.300188
H95	H	0.723578	0.160788	0.039772
H96	H	1.223578	0.660788	0.539772
H97	H	0.460035	0.154461	0.265523
H98	H	0.960035	0.654461	0.765523
H99	H	0.922243	0.165530	0.106251
H100	H	1.422243	0.665530	0.606251
