data_functionalizedCrystal
_audit_creation_method	'MofGen! by Chris Wilmer'
_symmetry_space_group_name_H-M	'P1'
_symmetry_Int_Tables_number	1
_symmetry_cell_setting	triclinic
loop_
_symmetry_equiv_pos_as_xyz
  x,y,z
_cell_length_a	10.540510
_cell_length_b	10.654550
_cell_length_c	9.730223
_cell_angle_alpha	89.999807
_cell_angle_beta	89.999529
_cell_angle_gamma	84.499107
loop_
_atom_site_label
_atom_site_type_symbol
_atom_site_fract_x
_atom_site_fract_y
_atom_site_fract_z
O1	O	1.685838	0.176809	-0.114295
O2	O	1.316414	0.193524	-0.114295
O3	O	1.509620	0.002429	-0.114290
O4	O	1.492633	0.367903	-0.114300
O5	O	1.509618	0.002434	0.114290
O6	O	1.316412	0.193529	0.114285
O7	O	1.685836	0.176813	0.114285
Zn8	Zn	1.501124	0.185172	0.150577
Zn9	Zn	1.501127	0.185165	-0.150587
O10	O	1.492630	0.367908	0.114280
C11	C	1.269110	0.192280	-0.000005
C12	C	1.128162	0.188554	-0.000006
C13	C	1.508372	-0.044367	-0.000002
C14	C	1.504640	-0.183811	-0.000006
C15	C	1.618396	-0.263269	-0.000002
C16	C	1.614882	-0.394290	-0.000012
C17	C	1.383845	-0.366384	-0.000024
C18	C	1.387361	-0.235365	-0.000024
C19	C	1.751784	-0.279381	0.000011
C20	C	1.748270	-0.410403	0.000001
C21	C	0.910658	0.321307	-0.000534
C22	C	1.057253	0.325282	-0.000011
C23	C	1.083426	0.118565	0.130524
C24	C	0.936666	0.115558	0.130625
C25	C	0.936863	0.112705	-0.129313
C26	C	1.083202	0.119191	-0.131030
C27	C	1.733140	0.178057	-0.000008
C28	C	1.874089	0.181783	-0.000017
C29	C	1.493879	0.414704	-0.000012
C30	C	1.497611	0.554148	-0.000016
N31	N	1.501131	0.185175	0.356113
N32	N	1.501129	0.185152	-0.356123
C33	C	1.586705	0.100588	0.428042
C34	C	1.586701	0.100572	0.571925
C35	C	1.415547	0.269744	0.571938
C36	C	1.415545	0.269752	0.428058
C37	C	1.685523	0.002921	0.428035
C38	C	1.685520	0.002906	0.571918
H39	H	1.294729	-0.170674	-0.000047
Cl40	Cl	1.832332	-0.234028	-0.147666
H41	H	1.345864	0.338603	0.630531
H42	H	1.798527	-0.452149	0.095660
Cl43	Cl	1.817339	-0.224344	0.152397
Cl44	Cl	1.236417	-0.431204	-0.000050
H45	H	1.663849	-0.093617	0.388984
Cl46	Cl	1.827814	0.050198	0.359123
H47	H	1.654678	-0.088324	0.616536
Cl48	Cl	1.810507	-0.480871	-0.152369
Cl49	Cl	1.307947	0.376076	0.337632
H50	H	1.086580	0.380036	-0.093583
Cl51	Cl	1.836132	0.036154	0.632219
H52	H	0.867131	0.374269	0.092542
H53	H	0.868687	0.374572	-0.094145
Cl54	Cl	0.901212	-0.042320	0.139865
Cl55	Cl	1.101085	0.410327	0.144698
H56	H	0.896431	0.163393	0.228194
H57	H	1.130852	0.017909	0.135381
H58	H	0.894300	0.155821	-0.228248
Cl59	Cl	1.131027	0.193613	0.280501
H60	H	1.111803	0.170114	-0.227595
Cl61	Cl	1.159002	-0.034935	-0.143194
Cl62	Cl	0.902724	-0.045787	-0.130669
