data_functionalizedCrystal
_audit_creation_method	'MofGen! by Chris Wilmer'
_symmetry_space_group_name_H-M	'P1'
_symmetry_Int_Tables_number	1
_symmetry_cell_setting	triclinic
loop_
_symmetry_equiv_pos_as_xyz
  x,y,z
_cell_length_a	10.654541
_cell_length_b	11.026607
_cell_length_c	10.065875
_cell_angle_alpha	100.697662
_cell_angle_beta	98.874761
_cell_angle_gamma	83.465027
loop_
_atom_site_label
_atom_site_type_symbol
_atom_site_fract_x
_atom_site_fract_y
_atom_site_fract_z
O1	O	0.512405	-1.632228	-0.113500
O2	O	0.452409	-1.278417	-0.113501
O3	O	0.301435	-1.463458	-0.113493
O4	O	0.663380	-1.447188	-0.113509
O5	O	0.330372	-1.428174	0.113494
O6	O	0.481346	-1.243134	0.113486
O7	O	0.541342	-1.596944	0.113487
Zn8	Zn	0.515938	-1.414437	0.149525
Zn9	Zn	0.477813	-1.460925	-0.149540
O10	O	0.692316	-1.411904	0.113478
C11	C	0.455810	-1.215472	-0.000008
C12	C	0.422815	-1.080480	-0.000008
C13	C	0.268846	-1.444622	0.000000
C14	C	0.128627	-1.441049	-0.000002
C15	C	0.537941	-1.659891	-0.000010
C16	C	0.570935	-1.794883	-0.000019
C17	C	0.148689	-1.662314	0.000016
C18	C	0.092846	-1.771262	0.000027
C19	C	-0.038903	-1.767898	0.000023
C20	C	-0.114814	-1.655575	0.000003
C21	C	-0.058971	-1.546627	-0.000009
C22	C	0.072783	-1.550002	-0.000000
C23	C	-0.079034	-1.325366	-0.000036
C24	C	0.052716	-1.328726	-0.000022
C25	C	-0.154944	-1.213042	-0.000056
C26	C	-0.099100	-1.104090	-0.000058
C27	C	0.032657	-1.107458	-0.000053
C28	C	0.108559	-1.219777	-0.000034
C29	C	0.724905	-1.430740	-0.000018
C30	C	0.865123	-1.434314	-0.000025
N31	N	0.541959	-1.382720	0.353629
C32	C	0.513918	-1.007442	-0.000013
C33	C	0.479819	-0.867921	-0.000014
N34	N	0.451785	-1.492652	-0.353644
C35	C	0.486857	-1.449881	0.421411
C36	C	0.506895	-1.425480	0.578577
H37	H	0.255969	-1.665061	0.000038
H38	H	0.674184	-0.835635	-0.000014
H39	H	-0.084371	-1.856615	0.000022
H40	H	0.319570	-1.039726	-0.000038
H41	H	0.424841	-1.525442	0.363091
O42	O	0.581040	-1.335398	0.647988
C43	C	0.705648	-1.361937	0.613191
H44	H	0.702825	-1.424842	0.509399
H45	H	0.746573	-1.271939	0.608464
H46	H	0.768306	-1.410487	0.693570
O47	O	0.166697	-1.880321	-0.000133
C48	C	0.228506	-1.907189	-0.117704
H49	H	0.234537	-1.817735	-0.156909
H50	H	0.328769	-1.952265	-0.091253
H51	H	0.172197	-1.973293	-0.200018
H52	H	0.389765	-1.568217	0.588039
O53	O	0.637137	-1.055958	0.000224
C54	C	0.712353	-0.998517	0.117760
H55	H	0.649181	-0.958704	0.199930
H56	H	0.788186	-1.069735	0.157219
H57	H	0.760512	-0.920667	0.091176
H58	H	0.215838	-1.222529	-0.000021
O59	O	0.615766	-1.292408	0.423136
C60	C	0.563973	-1.177174	0.388319
H61	H	0.458083	-1.181546	0.348949
H62	H	0.576714	-1.101778	0.482366
H63	H	0.615240	-1.155016	0.305491
O64	O	-0.242804	-1.652494	-0.000195
C65	C	-0.296289	-1.730311	-0.117773
H66	H	-0.219495	-1.802943	-0.156952
H67	H	-0.376133	-1.778339	-0.091343
H68	H	-0.336490	-1.672579	-0.200100
O69	O	0.356655	-0.819333	0.000231
C70	C	0.311403	-0.840229	0.117773
H71	H	0.395521	-0.854498	0.199939
H72	H	0.245632	-0.756741	0.157234
H73	H	0.256463	-0.926341	0.091194
O74	O	-0.282934	-1.209957	-0.000243
C75	C	-0.336433	-1.287779	-0.117810
H76	H	-0.259645	-1.360417	-0.156994
H77	H	-0.416273	-1.335800	-0.091362
H78	H	-0.376641	-1.230053	-0.200139
O79	O	-0.172993	-0.995094	-0.000262
C80	C	-0.264749	-1.004805	-0.117850
H81	H	-0.280758	-1.106452	-0.157037
H82	H	-0.358281	-0.951510	-0.091429
H83	H	-0.229409	-0.964304	-0.200166
H84	H	0.078115	-1.018740	-0.000068
