data_functionalizedCrystal
_audit_creation_method	'MofGen! by Chris Wilmer'
_symmetry_space_group_name_H-M	'P1'
_symmetry_Int_Tables_number	1
_symmetry_cell_setting	triclinic
loop_
_symmetry_equiv_pos_as_xyz
  x,y,z
_cell_length_a	16.120297
_cell_length_b	10.685972
_cell_length_c	10.685194
_cell_angle_alpha	98.378795
_cell_angle_beta	91.720017
_cell_angle_gamma	91.721091
loop_
_atom_site_label
_atom_site_type_symbol
_atom_site_fract_x
_atom_site_fract_y
_atom_site_fract_z
Zn1	Zn	-0.545205	-1.856615	0.402082
Zn2	Zn	-0.211872	-1.523281	0.735416
Zn3	Zn	0.121461	-1.189948	1.068749
Zn4	Zn	-0.395475	-1.852690	0.601927
Zn5	Zn	-0.062141	-1.519357	0.935260
Zn6	Zn	0.271192	-1.186024	1.268593
Zn7	Zn	-0.395477	-1.656789	0.405929
Zn8	Zn	-0.062144	-1.323456	0.739263
Zn9	Zn	0.271189	-0.990122	1.072596
Zn10	Zn	-0.522191	-1.629999	0.628643
Zn11	Zn	-0.188857	-1.296666	0.961977
Zn12	Zn	0.144476	-0.963333	1.295310
O13	O	-0.464587	-1.749023	0.509645
O14	O	-0.131254	-1.415690	0.842979
O15	O	0.202080	-1.082357	1.176312
O16	O	-0.534974	-2.032919	0.415801
O17	O	-0.201640	-1.699586	0.749135
O18	O	0.131693	-1.366252	1.082468
O19	O	-0.279782	-1.836273	0.566356
O20	O	0.053551	-1.502939	0.899690
O21	O	0.386884	-1.169606	1.233023
O22	O	-0.424972	-1.696150	0.228577
O23	O	-0.091639	-1.362817	0.561910
O24	O	0.241695	-1.029484	0.895244
O25	O	-0.424967	-2.030036	0.562626
O26	O	-0.091634	-1.696702	0.895959
O27	O	0.241699	-1.363369	1.229293
O28	O	-0.534976	-1.842961	0.225751
O29	O	-0.201643	-1.509628	0.559084
O30	O	0.131690	-1.176295	0.892417
O31	O	-0.279784	-1.692345	0.422358
O32	O	0.053549	-1.359012	0.755691
O33	O	0.386882	-1.025678	1.089025
O34	O	-0.402655	-1.476411	0.448264
O35	O	-0.069322	-1.143077	0.781597
O36	O	0.264011	-0.809744	1.114930
O37	O	-0.640936	-1.650491	0.608160
O38	O	-0.307603	-1.317158	0.941494
O39	O	0.025730	-0.983824	1.274827
O40	O	-0.495751	-1.456728	0.611891
O41	O	-0.162418	-1.123395	0.945224
O42	O	0.170916	-0.790062	1.278557
O43	O	-0.657845	-1.816984	0.441707
O44	O	-0.324512	-1.483651	0.775040
O45	O	0.008822	-1.150318	1.108374
O46	O	-0.402651	-1.810296	0.782313
O47	O	-0.069318	-1.476963	1.115646
O48	O	0.264016	-1.143629	1.448979
O49	O	-0.495749	-1.646686	0.801941
O50	O	-0.162415	-1.313352	1.135275
O51	O	0.170918	-0.980019	1.468608
C52	C	-0.446707	-1.420721	0.533395
C53	C	-0.113373	-1.087387	0.866728
C54	C	0.219960	-0.754054	1.200061
C55	C	-0.439075	-1.280267	0.543587
C56	C	-0.105742	-0.946934	0.876920
C57	C	0.227591	-0.613601	1.210254
C58	C	-0.680227	-1.731187	0.527485
C59	C	-0.346894	-1.397854	0.860818
C60	C	-0.013561	-1.064521	1.194151
C61	C	-0.772120	-1.723586	0.535087
C62	C	-0.438787	-1.390253	0.868420
C63	C	-0.105454	-1.056920	1.201754
C64	C	-0.940370	-1.709665	0.548942
C65	C	-0.607036	-1.376332	0.882275
C66	C	-0.273703	-1.042999	1.215608
C67	C	-0.989690	-1.788658	0.469953
C68	C	-0.656357	-1.455324	0.803286
C69	C	-0.323023	-1.121991	1.136619
C70	C	-1.083310	-1.780912	0.477661
C71	C	-0.749977	-1.447579	0.810995
C72	C	-0.416643	-1.114245	1.144328
C73	C	-0.846741	-1.717409	0.541235
C74	C	-0.513408	-1.384076	0.874568
C75	C	-0.180075	-1.050743	1.207901
C76	C	-0.249795	-1.766869	0.491779
C77	C	0.083539	-1.433536	0.825112
C78	C	0.416872	-1.100203	1.158446
C79	C	-0.157935	-1.774741	0.483803
C80	C	0.175399	-1.441407	0.817137
C81	C	0.508732	-1.108074	1.150470
C82	C	-0.446722	-1.725191	0.837979
C83	C	-0.113389	-1.391857	1.171313
C84	C	0.219945	-1.058524	1.504646
C85	C	-0.439113	-1.715108	0.978436
C86	C	-0.105780	-1.381775	1.311769
C87	C	0.227553	-1.048442	1.645102
C88	C	-0.482534	-1.078609	0.485796
C89	C	-0.149201	-0.745275	0.819129
C90	C	0.184133	-0.411942	1.152462
C91	C	-0.490173	-1.219061	0.475610
C92	C	-0.156840	-0.885728	0.808943
C93	C	0.176493	-0.552394	1.142276
C94	C	-0.482542	-1.772982	0.180029
C95	C	-0.149208	-1.439649	0.513362
C96	C	0.184125	-1.106315	0.846695
C97	C	-0.490193	-1.783192	0.039565
C98	C	-0.156859	-1.449858	0.372899
C99	C	0.176474	-1.116525	0.706232
H100	H	-0.539758	-1.274111	0.409607
H101	H	-0.206425	-0.940778	0.742940
H102	H	0.126909	-0.607444	1.076273
H103	H	-0.389483	-1.225212	0.609586
H104	H	-0.056149	-0.891879	0.942919
H105	H	0.277184	-0.558545	1.276252
H106	H	-0.961603	-1.862102	0.396537
H107	H	-0.628270	-1.528768	0.729871
H108	H	-0.294937	-1.195435	1.063204
H109	H	-0.968455	-1.636227	0.622351
H110	H	-0.635121	-1.302894	0.955684
H111	H	-0.301788	-0.969560	1.289018
Cl112	Cl	-0.566707	-1.885101	0.954472
Cl113	Cl	-0.233373	-1.551767	1.287805
Cl114	Cl	0.099960	-1.218434	1.621139
Cl115	Cl	-0.362604	-1.613180	1.063536
Cl116	Cl	-0.029271	-1.279846	1.396869
Cl117	Cl	0.304062	-0.946513	1.730202
