data_functionalizedCrystal
_audit_creation_method	'MofGen! by Chris Wilmer'
_symmetry_space_group_name_H-M	'P1'
_symmetry_Int_Tables_number	1
_symmetry_cell_setting	triclinic
loop_
_symmetry_equiv_pos_as_xyz
  x,y,z
_cell_length_a	8.559649
_cell_length_b	10.654550
_cell_length_c	9.730223
_cell_angle_alpha	90.004253
_cell_angle_beta	90.003042
_cell_angle_gamma	77.131797
loop_
_atom_site_label
_atom_site_type_symbol
_atom_site_fract_x
_atom_site_fract_y
_atom_site_fract_z
O1	O	-2.119654	0.042558	-0.114267
O2	O	-1.655168	-0.022229	-0.114274
O3	O	-1.898090	0.194007	-0.114262
O4	O	-1.876731	-0.173678	-0.114279
O5	O	-1.898074	0.194011	0.114318
O6	O	-1.655152	-0.022225	0.114305
O7	O	-2.119638	0.042561	0.114313
Zn8	Zn	-1.887392	0.010169	0.150601
Zn9	Zn	-1.887413	0.010164	-0.150563
O10	O	-1.876716	-0.173674	0.114301
C11	C	-1.595684	-0.027137	0.000015
C12	C	-1.418466	-0.041751	0.000012
C13	C	-1.896514	0.240645	0.000027
C14	C	-1.891822	0.379603	0.000025
C15	C	-2.179121	0.047469	0.000021
C16	C	-2.356339	0.062084	0.000015
C17	C	-1.878292	-0.220312	0.000008
C18	C	-1.882984	-0.359271	0.000001
N19	N	-1.887390	0.010174	0.356138
C20	C	-2.034851	0.473864	0.000027
C21	C	-2.030432	0.604428	0.000010
C22	C	-1.739944	0.546458	-0.000005
C23	C	-1.744364	0.415896	0.000002
N24	N	-1.887428	0.010170	-0.356099
C25	C	-1.994993	0.105891	0.428069
C26	C	-1.995009	0.105892	0.571952
C27	C	-1.779814	-0.085552	0.571959
C28	C	-1.779791	-0.085547	0.428079
H29	H	-1.438727	0.162162	0.000013
C30	C	-1.661487	-0.190899	0.348950
N31	N	-1.572408	-0.270263	0.289349
C32	C	-2.113341	0.211195	0.348939
N33	N	-2.202480	0.290518	0.289342
C34	C	-2.197058	0.433947	0.000037
N35	N	-2.319238	0.403886	0.000038
C36	C	-2.113368	0.211197	0.651070
N37	N	-2.202516	0.290522	0.710661
H38	H	-1.336069	-0.141836	-0.000000
H39	H	-2.146901	0.681172	0.000009
C40	C	-1.577748	0.586394	-0.000003
N41	N	-1.455579	0.616472	0.000009
C42	C	-1.661459	-0.190838	0.651108
N43	N	-1.572310	-0.270140	0.710722
H44	H	-1.627885	0.339143	-0.000003
