data_functionalizedCrystal
_audit_creation_method	'MofGen! by Chris Wilmer'
_symmetry_space_group_name_H-M	'P1'
_symmetry_Int_Tables_number	1
_symmetry_cell_setting	triclinic
loop_
_symmetry_equiv_pos_as_xyz
  x,y,z
_cell_length_a	16.120490
_cell_length_b	18.050590
_cell_length_c	18.050582
_cell_angle_alpha	89.976663
_cell_angle_beta	87.089789
_cell_angle_gamma	87.110849
loop_
_atom_site_label
_atom_site_type_symbol
_atom_site_fract_x
_atom_site_fract_y
_atom_site_fract_z
Zn1	Zn	1.274541	-0.353423	-0.477380
Zn2	Zn	1.524541	-0.103423	-0.227380
Zn3	Zn	1.774541	0.146577	0.022620
Zn4	Zn	2.024541	0.396577	0.272620
Zn5	Zn	1.274464	-0.477603	-0.353185
Zn6	Zn	1.524464	-0.227603	-0.103185
Zn7	Zn	1.774464	0.022397	0.146815
Zn8	Zn	2.024464	0.272397	0.396815
Zn9	Zn	1.135135	-0.347122	-0.346918
Zn10	Zn	1.385135	-0.097122	-0.096918
Zn11	Zn	1.635135	0.152878	0.153082
Zn12	Zn	1.885135	0.402878	0.403082
Zn13	Zn	1.135100	-0.471262	-0.471049
Zn14	Zn	1.385100	-0.221262	-0.221049
Zn15	Zn	1.635100	0.028738	0.028951
Zn16	Zn	1.885100	0.278738	0.278951
O17	O	1.204810	-0.412353	-0.412133
O18	O	1.454810	-0.162353	-0.162133
O19	O	1.704810	0.087647	0.087867
O20	O	1.954810	0.337647	0.337867
O21	O	1.391197	-0.375187	-0.466177
O22	O	1.641197	-0.125187	-0.216177
O23	O	1.891197	0.124813	0.033823
O24	O	2.141197	0.374813	0.283823
O25	O	1.255964	-0.460311	-0.248428
O26	O	1.505964	-0.210311	0.001572
O27	O	1.755964	0.039689	0.251572
O28	O	2.005964	0.289689	0.501572
O29	O	1.153674	-0.244036	-0.364251
O30	O	1.403674	0.005964	-0.114251
O31	O	1.653674	0.255964	0.135749
O32	O	1.903674	0.505964	0.385749
O33	O	1.391141	-0.466422	-0.374932
O34	O	1.641141	-0.216422	-0.124932
O35	O	1.891141	0.033578	0.125068
O36	O	2.141141	0.283578	0.375068
O37	O	1.256095	-0.248665	-0.460101
O38	O	1.506095	0.001335	-0.210101
O39	O	1.756095	0.251335	0.039899
O40	O	2.006095	0.501335	0.289899
O41	O	1.153600	-0.364448	-0.243824
O42	O	1.403600	-0.114448	0.006176
O43	O	1.653600	0.135552	0.256176
O44	O	1.903600	0.385552	0.506176
O45	O	1.018464	-0.358298	-0.358112
O46	O	1.268464	-0.108298	-0.108112
O47	O	1.518464	0.141702	0.141888
O48	O	1.768464	0.391702	0.391888
O49	O	1.153615	-0.455613	-0.575814
O50	O	1.403615	-0.205613	-0.325814
O51	O	1.653615	0.044387	-0.075814
O52	O	1.903615	0.294387	0.174186
O53	O	1.018439	-0.449503	-0.449311
O54	O	1.268439	-0.199503	-0.199311
O55	O	1.518439	0.050497	0.050689
O56	O	1.768439	0.300497	0.300689
O57	O	1.256061	-0.369038	-0.580465
O58	O	1.506061	-0.119038	-0.330465
O59	O	1.756061	0.130962	-0.080465
O60	O	2.006061	0.380962	0.169535
O61	O	1.255931	-0.580684	-0.368793
O62	O	1.505931	-0.330684	-0.118793
O63	O	1.755931	-0.080684	0.131207
O64	O	2.005931	0.169316	0.381207
O65	O	1.153540	-0.576025	-0.455387
O66	O	1.403540	-0.326025	-0.205387
O67	O	1.653540	-0.076025	0.044613
O68	O	1.903540	0.173975	0.294613
C69	C	0.988201	-0.402529	-0.402345
C70	C	1.238201	-0.152529	-0.152345
C71	C	1.488201	0.097471	0.097655
C72	C	1.738201	0.347471	0.347655
C73	C	0.895535	-0.398345	-0.398175
C74	C	1.145535	-0.148345	-0.148175
C75	C	1.395535	0.101655	0.101825
C76	C	1.645535	0.351655	0.351825
C77	C	0.684594	-0.434053	-0.433763
C78	C	0.934594	-0.184053	-0.183763
C79	C	1.184594	0.065947	0.066237
C80	C	1.434594	0.315947	0.316237
C81	C	0.725878	-0.390712	-0.390561
C82	C	0.975878	-0.140712	-0.140561
C83	C	1.225878	0.109288	0.109439
C84	C	1.475878	0.359288	0.359439
C85	C	0.820284	-0.394960	-0.394799
C86	C	1.070284	-0.144960	-0.144799
C87	C	1.320284	0.105040	0.105201
C88	C	1.570284	0.355040	0.355201
C89	C	0.590179	-0.429805	-0.429527
C90	C	0.840179	-0.179805	-0.179527
C91	C	1.090179	0.070195	0.070473
C92	C	1.340179	0.320195	0.320473
C93	C	1.204746	-0.605302	-0.412100
C94	C	1.454746	-0.355302	-0.162100
C95	C	1.704746	-0.105302	0.087900
C96	C	1.954746	0.144698	0.337900
C97	C	1.204795	-0.687850	-0.412115
C98	C	1.454795	-0.437850	-0.162115
C99	C	1.704795	-0.187850	0.087885
C100	C	1.954795	0.062150	0.337885
C101	C	1.260591	-0.889812	-0.365099
C102	C	1.510591	-0.639812	-0.115099
C103	C	1.760591	-0.389812	0.134901
C104	C	2.010591	-0.139812	0.384901
C105	C	1.280950	-0.940073	-0.433797
C106	C	1.530950	-0.690073	-0.183797
C107	C	1.780950	-0.440073	0.066203
C108	C	2.030950	-0.190073	0.316203
C109	C	1.204842	-0.838982	-0.412147
C110	C	1.454842	-0.588982	-0.162147
C111	C	1.704842	-0.338982	0.087853
C112	C	1.954842	-0.088982	0.337853
C113	C	1.184568	-0.935807	-0.343483
C114	C	1.434568	-0.685807	-0.093483
C115	C	1.684568	-0.435807	0.156517
C116	C	1.934568	-0.185807	0.406517
C117	C	1.204890	-0.984969	-0.412171
C118	C	1.454890	-0.734969	-0.162171
C119	C	1.704890	-0.484969	0.087829
C120	C	1.954890	-0.234969	0.337829
C121	C	1.225240	-0.888157	-0.480882
C122	C	1.475240	-0.638157	-0.230882
C123	C	1.725240	-0.388157	0.019118
C124	C	1.975240	-0.138157	0.269118
C125	C	1.128823	-0.883886	-0.390520
C126	C	1.378823	-0.633886	-0.140520
C127	C	1.628823	-0.383886	0.109480
C128	C	1.878823	-0.133886	0.359480
C129	C	1.149154	-0.934123	-0.459264
C130	C	1.399154	-0.684123	-0.209264
C131	C	1.649154	-0.434123	0.040736
C132	C	1.899154	-0.184123	0.290736
C133	C	1.204817	-0.754883	-0.412131
C134	C	1.454817	-0.504883	-0.162131
C135	C	1.704817	-0.254883	0.087869
C136	C	1.954817	-0.004883	0.337869
C137	C	1.204915	-1.069067	-0.412194
C138	C	1.454915	-0.819067	-0.162194
C139	C	1.704915	-0.569067	0.087806
C140	C	1.954915	-0.319067	0.337806
C141	C	1.422265	-0.422215	-0.421960
C142	C	1.672265	-0.172215	-0.171960
C143	C	1.922265	0.077785	0.078040
C144	C	2.172265	0.327785	0.328040
C145	C	1.514931	-0.426417	-0.426147
C146	C	1.764931	-0.176417	-0.176147
C147	C	2.014931	0.073583	0.073853
C148	C	2.264931	0.323583	0.323853
C149	C	1.204843	-0.412321	-0.605840
C150	C	1.454843	-0.162321	-0.355840
C151	C	1.704843	0.087679	-0.105840
C152	C	1.954843	0.337679	0.144160
C153	C	1.204857	-0.412308	-0.688386
C154	C	1.454857	-0.162308	-0.438386
C155	C	1.704857	0.087692	-0.188386
C156	C	1.954857	0.337692	0.061614
C157	C	1.204897	-0.218651	-0.412183
C158	C	1.454897	0.031349	-0.162183
C159	C	1.704897	0.281349	0.087817
C160	C	1.954897	0.531349	0.337817
C161	C	1.204934	-0.136107	-0.412204
C162	C	1.454934	0.113893	-0.162204
C163	C	1.704934	0.363893	0.087796
C164	C	1.954934	0.613893	0.337796
C165	C	1.149189	-0.459321	-0.885310
C166	C	1.399189	-0.209321	-0.635310
C167	C	1.649189	0.040679	-0.385310
C168	C	1.899189	0.290679	-0.135310
C169	C	1.225255	-0.480920	-0.938131
C170	C	1.475255	-0.230920	-0.688131
C171	C	1.725255	0.019080	-0.438131
C172	C	1.975255	0.269080	-0.188131
C173	C	1.204898	-0.412253	-0.839519
C174	C	1.454898	-0.162253	-0.589519
C175	C	1.704898	0.087747	-0.339519
C176	C	1.954898	0.337747	-0.089519
C177	C	1.128874	-0.390636	-0.933781
C178	C	1.378874	-0.140636	-0.683781
C179	C	1.628874	0.109364	-0.433781
C180	C	1.878874	0.359364	-0.183781
C181	C	1.204931	-0.412201	-0.985505
C182	C	1.454931	-0.162201	-0.735505
C183	C	1.704931	0.087799	-0.485505
C184	C	1.954931	0.337799	-0.235505
C185	C	1.281004	-0.433888	-0.891254
C186	C	1.531004	-0.183888	-0.641254
C187	C	1.781004	0.066112	-0.391254
C188	C	2.031004	0.316112	-0.141254
C189	C	1.184571	-0.343571	-0.886898
C190	C	1.434571	-0.093571	-0.636898
C191	C	1.684571	0.156429	-0.386898
C192	C	1.934571	0.406429	-0.136898
C193	C	1.260690	-0.365146	-0.939699
C194	C	1.510690	-0.115146	-0.689699
C195	C	1.760690	0.134854	-0.439699
C196	C	2.010690	0.384854	-0.189699
C197	C	1.204878	-0.412285	-0.755420
C198	C	1.454878	-0.162285	-0.505420
C199	C	1.704878	0.087715	-0.255420
C200	C	1.954878	0.337715	-0.005420
C201	C	1.204960	-0.412170	-1.069603
C202	C	1.454960	-0.162170	-0.819603
C203	C	1.704960	0.087830	-0.569603
C204	C	1.954960	0.337830	-0.319603
C205	C	1.204826	-0.412333	-0.219181
C206	C	1.454826	-0.162333	0.030819
C207	C	1.704826	0.087667	0.280819
C208	C	1.954826	0.337667	0.530819
C209	C	1.204973	-0.412144	-0.136643
C210	C	1.454973	-0.162144	0.113357
C211	C	1.704973	0.087856	0.363357
C212	C	1.954973	0.337856	0.613357
H213	H	0.720148	-0.474346	-0.473929
H214	H	0.970148	-0.224346	-0.223929
H215	H	1.220148	0.025654	0.026071
H216	H	1.470148	0.275654	0.276071
H217	H	1.307751	-0.870276	-0.325357
H218	H	1.557751	-0.620276	-0.075357
H219	H	1.807751	-0.370276	0.174643
H220	H	2.057751	-0.120276	0.424643
Cl221	Cl	1.251874	-0.855947	-0.570580
Cl222	Cl	1.501874	-0.605947	-0.320580
Cl223	Cl	1.751874	-0.355947	-0.070580
Cl224	Cl	2.001874	-0.105947	0.179420
Cl225	Cl	0.670985	-0.328501	-0.328538
Cl226	Cl	0.920985	-0.078501	-0.078538
Cl227	Cl	1.170985	0.171499	0.171462
Cl228	Cl	1.420985	0.421499	0.421462
Cl229	Cl	1.157963	-0.253952	-0.852169
Cl230	Cl	1.407963	-0.003952	-0.602169
Cl231	Cl	1.657963	0.246048	-0.352169
Cl232	Cl	1.907963	0.496048	-0.102169
H233	H	1.345257	-0.964642	-0.452104
H234	H	1.595257	-0.714642	-0.202104
H235	H	1.845257	-0.464642	0.047896
H236	H	2.095257	-0.214642	0.297896
Cl237	Cl	1.076397	-0.964081	-0.520779
Cl238	Cl	1.326397	-0.714081	-0.270779
Cl239	Cl	1.576397	-0.464081	-0.020779
Cl240	Cl	1.826397	-0.214081	0.229221
Cl241	Cl	1.029562	-0.845932	-0.362229
Cl242	Cl	1.279562	-0.595932	-0.112229
Cl243	Cl	1.529562	-0.345932	0.137771
Cl244	Cl	1.779562	-0.095932	0.387771
H245	H	1.167401	-0.956769	-0.285404
H246	H	1.417401	-0.706769	-0.035404
H247	H	1.667401	-0.456769	0.214596
H248	H	1.917401	-0.206769	0.464596
H249	H	1.102122	-0.499183	-0.861514
H250	H	1.352122	-0.249183	-0.611514
H251	H	1.602122	0.000817	-0.361514
H252	H	1.852122	0.250817	-0.111514
H253	H	1.242467	-0.538981	-0.960605
H254	H	1.492467	-0.288981	-0.710605
H255	H	1.742467	-0.038981	-0.460605
H256	H	1.992467	0.211019	-0.210605
H257	H	1.307869	-0.325322	-0.963364
H258	H	1.557869	-0.075322	-0.713364
H259	H	1.807869	0.174678	-0.463364
H260	H	2.057869	0.424678	-0.213364
Cl261	Cl	1.380315	-0.462193	-0.862384
Cl262	Cl	1.630315	-0.212193	-0.612384
Cl263	Cl	1.880315	0.037807	-0.362384
Cl264	Cl	2.130315	0.287807	-0.112384
H265	H	1.064567	-0.372375	-0.952576
H266	H	1.314567	-0.122375	-0.702576
H267	H	1.564567	0.127625	-0.452576
H268	H	1.814567	0.377625	-0.202576
