data_functionalizedCrystal
_audit_creation_method	'MofGen! by Chris Wilmer'
_symmetry_space_group_name_H-M	'P1'
_symmetry_Int_Tables_number	1
_symmetry_cell_setting	triclinic
loop_
_symmetry_equiv_pos_as_xyz
  x,y,z
_cell_length_a	11.169417
_cell_length_b	16.959454
_cell_length_c	11.169406
_cell_angle_alpha	89.951774
_cell_angle_beta	89.969003
_cell_angle_gamma	90.020954
loop_
_atom_site_label
_atom_site_type_symbol
_atom_site_fract_x
_atom_site_fract_y
_atom_site_fract_z
Zn1	Zn	1.835014	-0.314480	-0.678538
Zn2	Zn	1.834830	-0.446722	-0.477853
Zn3	Zn	1.634260	-0.314563	-0.477872
Zn4	Zn	1.634273	-0.446622	-0.678498
O5	O	1.734594	-0.380597	-0.578190
O6	O	2.002939	-0.332029	-0.651925
O7	O	1.808141	-0.429267	-0.309905
O8	O	1.660962	-0.203941	-0.504516
O9	O	2.002804	-0.429186	-0.504483
O10	O	1.808455	-0.203880	-0.651944
O11	O	1.660784	-0.332171	-0.309920
O12	O	1.466312	-0.332074	-0.504477
O13	O	1.660984	-0.429017	-0.846453
O14	O	1.466321	-0.429098	-0.651876
O15	O	1.808467	-0.331932	-0.846483
O16	O	1.808154	-0.557319	-0.504444
O17	O	1.660805	-0.557246	-0.651857
C18	C	1.422769	-0.380585	-0.578175
C19	C	1.289369	-0.380599	-0.578197
C20	C	1.734493	-0.585963	-0.578170
C21	C	1.734560	-0.673820	-0.578201
C22	C	1.657981	-1.045287	-0.654940
C23	C	1.811541	-1.045303	-0.501563
C24	C	1.811499	-0.962757	-0.501552
C25	C	1.734696	-0.921473	-0.578235
C26	C	1.657934	-0.962733	-0.654929
C27	C	1.888251	-0.921490	-0.424850
C28	C	1.888211	-0.838939	-0.424835
C29	C	1.811413	-0.797653	-0.501525
C30	C	1.734649	-0.838919	-0.578223
C31	C	1.657846	-0.797634	-0.654906
C32	C	1.581087	-0.838899	-0.731611
C33	C	1.581136	-0.921447	-0.731619
C34	C	1.811364	-0.715104	-0.501518
C35	C	1.657799	-0.715081	-0.654895
C36	C	2.047636	-0.380609	-0.578206
C37	C	2.181036	-0.380615	-0.578213
C38	C	1.734747	-0.380454	-0.891233
C39	C	1.734813	-0.380393	-1.024633
C40	C	1.734728	-0.174429	-0.578237
C41	C	1.734785	-0.086572	-0.578257
C42	C	1.734510	-0.380682	-0.266365
C43	C	1.734678	-0.380520	-0.132966
H44	H	1.595260	-0.681471	-0.717345
C45	C	1.971353	-0.794101	-0.341417
C46	C	1.903402	-0.746801	-0.264406
C47	C	1.979954	-0.705493	-0.187537
H48	H	2.023640	-0.761784	-0.387231
H49	H	2.017077	-0.830489	-0.295681
H50	H	1.857699	-0.710418	-0.310138
H51	H	1.851119	-0.779099	-0.218565
H52	H	2.025678	-0.741881	-0.141800
H53	H	2.032236	-0.673180	-0.233361
H54	H	1.933860	-0.673401	-0.135268
C55	C	1.497576	-0.794213	-0.814917
C56	C	1.430347	-0.848012	-0.882079
C57	C	1.353398	-0.806873	-0.958820
H58	H	1.543327	-0.761951	-0.867341
H59	H	1.445213	-0.762083	-0.768982
H60	H	1.482703	-0.880128	-0.928010
H61	H	1.384572	-0.880275	-0.829687
H62	H	1.301035	-0.774743	-0.912885
H63	H	1.399158	-0.774612	-1.011236
H64	H	1.307766	-0.843369	-1.004391
H65	H	1.950771	-0.955110	-0.362410
C66	C	1.497840	-0.966391	-0.814751
C67	C	1.514294	-1.047520	-0.798316
C68	C	1.437569	-1.088950	-0.874860
H69	H	1.515288	-0.952906	-0.895456
H70	H	1.417174	-0.952956	-0.797098
H71	H	1.594941	-1.060950	-0.815978
H72	H	1.496837	-1.061029	-0.717627
H73	H	1.356903	-1.075515	-0.857207
H74	H	1.455023	-1.075458	-0.955560
H75	H	1.448714	-1.143999	-0.863712
C76	C	1.894488	-0.670260	-0.418099
C77	C	1.826523	-0.622962	-0.341097
C78	C	1.903059	-0.581648	-0.264221
H79	H	1.946776	-0.637941	-0.463908
H80	H	1.940211	-0.706644	-0.372355
H81	H	1.780820	-0.586582	-0.386836
H82	H	1.774238	-0.655262	-0.295261
H83	H	1.948783	-0.618032	-0.218477
H84	H	1.955344	-0.549333	-0.310041
H85	H	1.856956	-0.549557	-0.211960
H86	H	1.595490	-1.078888	-0.717395
H87	H	1.874064	-1.078922	-0.439124
