data_functionalizedCrystal
_audit_creation_method	'MofGen! by Chris Wilmer'
_symmetry_space_group_name_H-M	'P1'
_symmetry_Int_Tables_number	1
_symmetry_cell_setting	triclinic
loop_
_symmetry_equiv_pos_as_xyz
  x,y,z
_cell_length_a	21.606444
_cell_length_b	21.606444
_cell_length_c	21.606444
_cell_angle_alpha	60.001331
_cell_angle_beta	90.002531
_cell_angle_gamma	59.999398
loop_
_atom_site_label
_atom_site_type_symbol
_atom_site_fract_x
_atom_site_fract_y
_atom_site_fract_z
Zr1	Zr	0.596223	0.677450	-0.081192
O2	O	0.497392	0.806573	-0.180016
O3	O	0.626521	0.548331	-0.050900
O4	O	0.626513	0.677455	-0.180018
O5	O	0.497405	0.677445	0.050957
O6	O	0.728365	0.677455	-0.180016
O7	O	0.497400	0.677449	-0.050897
O8	O	0.728379	0.446475	0.050953
O9	O	0.497391	0.908424	-0.180012
O10	O	0.715453	0.601438	-0.037976
O11	O	0.639445	0.601435	0.038036
O12	O	0.639436	0.753462	-0.113985
O13	O	0.563429	0.753459	-0.037973
Zr14	Zr	0.758673	0.677443	0.081256
Zr15	Zr	0.758665	0.677450	-0.081189
Zr16	Zr	0.596231	0.677443	0.081254
Zr17	Zr	0.596221	0.839891	-0.081186
Zr18	Zr	0.758675	0.515003	0.081251
O19	O	0.728375	0.806563	0.050964
O20	O	0.728364	0.806573	-0.180012
O21	O	0.497404	0.806563	0.050961
O22	O	0.857505	0.548321	0.180081
O23	O	0.857493	0.548330	-0.050896
O24	O	0.626533	0.548321	0.180077
O25	O	0.857491	0.677449	-0.050892
O26	O	0.728383	0.677439	0.180083
O27	O	0.626531	0.677439	0.180081
O28	O	0.857497	0.677444	0.050962
O29	O	0.626511	0.908424	-0.180010
O30	O	0.728386	0.446470	0.180075
O31	O	0.857506	0.446470	0.180077
O32	O	0.857499	0.446475	0.050955
O33	O	0.497397	0.908418	-0.050890
O34	O	0.626517	0.908418	-0.050888
O35	O	0.715460	0.601432	0.114049
O36	O	0.791467	0.601435	0.038038
O37	O	0.715451	0.753459	-0.037971
O38	O	0.639444	0.753455	0.038041
C39	C	0.677450	0.474259	0.000026
C40	C	0.677451	0.405299	0.000024
C41	C	0.717124	0.372903	-0.039655
C42	C	0.717127	0.308103	-0.039650
C43	C	0.677452	0.275704	0.000030
C44	C	0.637777	0.308103	0.039713
C45	C	0.637779	0.372897	0.039712
C46	C	0.637768	0.046794	0.039719
C47	C	0.637767	-0.018003	0.039716
C48	C	0.717116	-0.018001	-0.039642
C49	C	0.717118	0.046793	-0.039643
C50	C	0.677447	0.079183	0.000043
C51	C	0.677446	0.149445	0.000038
C52	C	0.677448	0.205448	0.000031
C53	C	0.474258	0.677447	0.000029
C54	C	0.405297	0.677447	0.000028
C55	C	0.372896	0.677452	-0.056086
C56	C	0.308102	0.677448	-0.056083
C57	C	0.275707	0.677445	0.000031
C58	C	0.308114	0.677437	0.056151
C59	C	0.372910	0.677435	0.056151
C60	C	0.046800	0.677443	0.056154
C61	C	-0.018001	0.677448	0.056148
C62	C	-0.018008	0.677456	-0.056080
C63	C	0.046788	0.677454	-0.056081
C64	C	0.079192	0.677442	0.000041
C65	C	0.149449	0.677445	0.000038
C66	C	0.205447	0.677448	0.000032
C67	C	0.880639	0.677447	0.000036
C68	C	0.949599	0.677447	0.000037
C69	C	0.677438	0.677456	-0.203162
C70	C	0.677434	0.677459	-0.272125
C71	C	0.677446	0.880635	0.000039
C72	C	0.677445	0.949595	0.000041
C73	C	0.637754	0.756813	-0.344199
C74	C	0.637761	0.756810	-0.408994
C75	C	0.677443	0.677453	-0.401713
C76	C	0.717129	0.598092	-0.329631
C77	C	0.717126	0.598096	-0.264837
C78	C	0.717141	0.598077	-0.590934
C79	C	0.717138	0.598080	-0.655734
C80	C	0.637775	0.756792	-0.735090
C81	C	0.637773	0.756795	-0.670297
C82	C	0.677461	0.677435	-0.598221
C83	C	0.677454	0.677439	-0.527963
C84	C	0.677446	0.677448	-0.471969
C85	C	0.677459	0.677438	0.203227
C86	C	0.677462	0.677435	0.272189
C87	C	0.880641	0.474259	0.000029
C88	C	0.949602	0.405298	0.000028
C89	C	0.677461	0.474250	0.203220
C90	C	0.677465	0.405287	0.272181
C91	C	0.880651	0.474250	0.203224
C92	C	0.949616	0.405287	0.272185
C93	C	0.474245	0.880644	-0.203159
C94	C	0.405280	0.949607	-0.272120
C95	C	0.474256	0.880635	0.000036
C96	C	0.405294	0.949595	0.000037
C97	C	0.677436	0.880644	-0.203156
C98	C	0.677432	0.949607	-0.272116
C99	C	0.942309	0.372916	-0.039658
C100	C	1.007099	0.308129	-0.039674
C101	C	1.079183	0.275722	0.000000
C102	C	1.086475	0.308111	0.039687
C103	C	1.021685	0.372901	0.039698
C104	C	0.717146	0.372899	0.344250
C105	C	0.717147	0.308110	0.409052
C106	C	0.677471	0.275706	0.401782
C107	C	0.637785	0.308099	0.329705
C108	C	0.637780	0.372892	0.264905
C109	C	1.021685	0.372902	0.264893
C110	C	1.086491	0.308113	0.329683
C111	C	1.079227	0.275705	0.401764
C112	C	1.007151	0.308096	0.409055
C113	C	0.942346	0.372888	0.344266
C114	C	0.333212	0.981999	-0.264828
C115	C	0.268405	1.046808	-0.329618
C116	C	0.275669	1.079220	-0.401700
C117	C	0.347745	1.046825	-0.408990
C118	C	0.412550	0.982022	-0.344201
C119	C	0.412588	0.981985	0.039716
C120	C	0.347797	1.046789	0.039714
C121	C	0.275714	1.079198	0.000038
C122	C	0.268421	1.046806	-0.039646
C123	C	0.333211	0.982008	-0.039648
C124	C	0.717115	0.981991	-0.264822
C125	C	0.717126	1.046781	-0.329611
C126	C	0.677448	1.079189	-0.401693
C127	C	0.637764	1.046798	-0.408986
C128	C	0.637758	0.982006	-0.344197
H129	H	0.605469	0.073154	0.072037
Br130	Br	0.770957	-0.061963	-0.093502
Br131	Br	0.677463	1.167125	-0.489614
Br132	Br	0.323298	0.938054	-0.093500
H133	H	0.749466	0.281743	0.467734
Br134	Br	0.770988	0.490391	-0.319747
Br135	Br	0.770966	0.416872	-0.093515
H136	H	0.222964	1.131962	0.000046
H137	H	0.209722	1.073204	-0.071950
Br138	Br	0.583943	0.264112	0.319852
Br139	Br	0.187711	1.167169	-0.489622
Br140	Br	0.264129	0.677450	-0.132237
Br141	Br	0.770970	0.938023	-0.167004
H142	H	0.749457	0.533458	-0.532254
Br143	Br	1.031564	0.416876	0.167075
H144	H	1.131933	0.222965	-0.000015
H145	H	0.605459	1.073196	-0.467684
H146	H	0.073160	0.677461	-0.101776
Br147	Br	0.770992	0.490397	-0.167019
Br148	Br	0.583925	0.416835	0.167098
Br149	Br	0.357591	1.090820	-0.506822
H150	H	1.001248	0.281699	0.467753
Br151	Br	0.770984	1.090729	-0.319696
H152	H	0.677481	0.222947	0.454553
H153	H	0.605439	0.955646	-0.350147
Br154	Br	0.510355	0.938064	-0.354111
Br155	Br	1.184298	0.264166	0.319770
Br156	Br	0.844541	0.416826	0.354176
H157	H	1.132001	0.222947	0.454514
H158	H	0.471276	0.955602	0.072031
Br159	Br	0.771002	0.416859	0.354137
H160	H	0.605461	0.821410	-0.793784
H161	H	0.749422	0.073173	-0.071957
Br162	Br	0.997184	0.264185	-0.093537
H163	H	0.605457	-0.044381	0.072030
H164	H	1.145174	0.281716	0.071988
H165	H	0.209724	1.073173	-0.323667
Br166	Br	0.416848	0.677466	-0.132251
Br167	Br	1.031598	0.416837	0.093568
H168	H	0.749432	0.281726	-0.071958
Br169	Br	0.583902	0.864498	-0.680184
Br170	Br	0.323333	0.938024	-0.167011
H171	H	-0.044396	0.677462	-0.101776
H172	H	0.605477	0.281715	0.072025
Br173	Br	0.583940	0.416859	0.093568
Br174	Br	0.357712	1.090734	0.093577
H175	H	-0.044375	0.677444	0.101847
H176	H	0.749455	0.533454	-0.649797
H177	H	0.281737	0.677429	0.101844
Br178	Br	0.090772	0.677429	0.132315
H179	H	0.399291	0.677430	0.101846
H180	H	0.605435	0.821435	-0.350137
H181	H	0.605451	0.821428	-0.467678
H182	H	0.883620	0.399301	-0.071975
