data_functionalizedCrystal
_audit_creation_method	'MofGen! by Chris Wilmer'
_symmetry_space_group_name_H-M	'P1'
_symmetry_Int_Tables_number	1
_symmetry_cell_setting	triclinic
loop_
_symmetry_equiv_pos_as_xyz
  x,y,z
_cell_length_a	19.805407
_cell_length_b	16.625545
_cell_length_c	19.805399
_cell_angle_alpha	90.025578
_cell_angle_beta	90.019573
_cell_angle_gamma	90.025558
loop_
_atom_site_label
_atom_site_type_symbol
_atom_site_fract_x
_atom_site_fract_y
_atom_site_fract_z
Zn1	Zn	1.034740	-0.321020	0.382729
Zn2	Zn	1.534740	0.178980	0.882729
Zn3	Zn	1.034656	-0.455857	0.269545
Zn4	Zn	1.534656	0.044143	0.769545
Zn5	Zn	0.921554	-0.321043	0.269554
Zn6	Zn	1.421554	0.178957	0.769554
Zn7	Zn	0.921520	-0.455815	0.382692
Zn8	Zn	1.421520	0.044185	0.882692
O9	O	0.978117	-0.388434	0.326130
O10	O	1.478117	0.111566	0.826130
O11	O	1.129445	-0.338915	0.367727
O12	O	1.629445	0.161085	0.867727
O13	O	1.019633	-0.438001	0.174829
O14	O	1.519633	0.061999	0.674829
O15	O	0.936618	-0.208207	0.284586
O16	O	1.436618	0.291793	0.784586
O17	O	1.129384	-0.437980	0.284571
O18	O	1.629384	0.062020	0.784571
O19	O	1.019775	-0.208191	0.367736
O20	O	1.519775	0.291809	0.867736
O21	O	0.936537	-0.338953	0.174836
O22	O	1.436537	0.161047	0.674836
O23	O	0.826833	-0.338912	0.284550
O24	O	1.326833	0.161088	0.784550
O25	O	0.936559	-0.437907	0.477413
O26	O	1.436559	0.062093	0.977413
O27	O	0.826808	-0.437928	0.367672
O28	O	1.326808	0.062072	0.867672
O29	O	1.019741	-0.338874	0.477441
O30	O	1.519741	0.161126	0.977441
O31	O	1.019599	-0.568684	0.284535
O32	O	1.519599	-0.068684	0.784535
O33	O	0.936478	-0.568653	0.367663
O34	O	1.436478	-0.068653	0.867663
C35	C	0.802261	-0.388418	0.326108
C36	C	1.302261	0.111582	0.826108
C37	C	0.727029	-0.388431	0.326115
C38	C	1.227029	0.111569	0.826115
C39	C	0.978044	-0.597925	0.326108
C40	C	1.478044	-0.097925	0.826108
C41	C	0.978074	-0.687546	0.326122
C42	C	1.478074	-0.187546	0.826122
C43	C	0.691690	-0.440067	0.369326
C44	C	1.191690	0.059933	0.869326
C45	C	0.621001	-0.440068	0.369336
C46	C	1.121001	0.059932	0.869336
C47	C	0.585654	-0.388437	0.326130
C48	C	1.085654	0.111563	0.826130
C49	C	0.620999	-0.336796	0.282916
C50	C	1.120999	0.163204	0.782916
C51	C	0.691686	-0.336791	0.282911
C52	C	1.191686	0.163209	0.782911
C53	C	0.335925	-0.336814	0.282939
C54	C	0.835925	0.163186	0.782939
C55	C	0.265233	-0.336825	0.282946
C56	C	0.765233	0.163175	0.782946
C57	C	0.265241	-0.440091	0.369364
C58	C	0.765241	0.059909	0.869364
C59	C	0.335928	-0.440086	0.369358
C60	C	0.835928	0.059914	0.869358
C61	C	0.371266	-0.388442	0.326147
C62	C	0.871266	0.111558	0.826147
C63	C	0.447915	-0.388440	0.326138
C64	C	0.947915	0.111560	0.826138
C65	C	0.509007	-0.388443	0.326135
C66	C	1.009007	0.111557	0.826135
C67	C	0.978101	-0.760328	0.326135
C68	C	1.478101	-0.260328	0.826135
C69	C	0.978140	-0.851637	0.326150
C70	C	1.478140	-0.351637	0.826150
C71	C	0.978175	-0.924413	0.326159
C72	C	1.478175	-0.424413	0.826159
C73	C	0.978214	-1.015727	0.326173
C74	C	1.478214	-0.515727	0.826173
C75	C	1.154660	-0.388450	0.326152
C76	C	1.654660	0.111550	0.826152
C77	C	1.229892	-0.388457	0.326162
C78	C	1.729892	0.111543	0.826162
C79	C	0.978155	-0.388383	0.502673
C80	C	1.478155	0.111617	1.002673
C81	C	0.978172	-0.388361	0.577905
C82	C	1.478172	0.111639	1.077905
C83	C	0.978210	-0.178125	0.326166
C84	C	1.478210	0.321875	0.826166
C85	C	0.978249	-0.088504	0.326181
C86	C	1.478249	0.411496	0.826181
C87	C	0.978119	-0.388426	0.150274
C88	C	1.478119	0.111574	0.650274
C89	C	0.978234	-0.388221	0.075042
C90	C	1.478234	0.111779	0.575042
C91	C	1.021486	-0.336792	0.613264
C92	C	1.521486	0.163208	1.113264
C93	C	1.021493	-0.336769	0.683953
C94	C	1.521493	0.163231	1.183953
C95	C	0.978188	-0.388319	0.719280
C96	C	1.478188	0.111681	1.219280
C97	C	0.934870	-0.439890	0.683916
C98	C	1.434870	0.060110	1.183916
C99	C	0.934860	-0.439909	0.613228
C100	C	1.434860	0.060091	1.113228
C101	C	0.934908	-0.439815	0.968989
C102	C	1.434908	0.060185	1.468989
C103	C	0.934922	-0.439794	1.039681
C104	C	1.434922	0.060206	1.539681
C105	C	1.021541	-0.336675	1.039713
C106	C	1.521541	0.163325	1.539713
C107	C	1.021531	-0.336694	0.969026
C108	C	1.521531	0.163306	1.469026
C109	C	0.978210	-0.388262	0.933668
C110	C	1.478210	0.111738	1.433668
C111	C	0.978202	-0.388285	0.857019
C112	C	1.478202	0.111715	1.357019
C113	C	0.978199	-0.388300	0.795927
C114	C	1.478199	0.111700	1.295927
H115	H	0.720464	-0.482113	0.404507
H116	H	1.220464	0.017887	0.904507
Br117	Br	0.383876	-0.266722	0.224299
Br118	Br	0.883876	0.233278	0.724299
Br119	Br	0.876114	-0.509799	0.921012
Br120	Br	1.376114	-0.009799	1.421012
Br121	Br	0.876095	-0.509848	0.731859
Br122	Br	1.376095	-0.009848	1.231859
Br123	Br	1.080334	-0.266687	1.087703
Br124	Br	1.580334	0.233313	1.587703
Br125	Br	1.080264	-0.266834	0.565326
Br126	Br	1.580264	0.233166	1.065326
H127	H	0.236455	-0.294776	0.247763
H128	H	0.736455	0.205224	0.747763
H129	H	0.592231	-0.482116	0.404522
H130	H	1.092231	0.017884	0.904522
Br131	Br	1.080310	-0.266817	0.731938
Br132	Br	1.580310	0.233183	1.231938
Br133	Br	0.876070	-0.509893	0.565239
Br134	Br	1.376070	-0.009893	1.065239
Br135	Br	0.573028	-0.266717	0.224285
Br136	Br	1.073028	0.233283	0.724285
Br137	Br	0.739648	-0.266707	0.224268
Br138	Br	1.239648	0.233293	0.724268
H139	H	0.364704	-0.482132	0.404538
H140	H	0.864704	0.017868	0.904538
Br141	Br	1.080306	-0.266735	0.921085
Br142	Br	1.580306	0.233265	1.421085
H143	H	0.236460	-0.482139	0.404550
H144	H	0.736460	0.017861	0.904550
Br145	Br	0.876149	-0.509761	1.087626
Br146	Br	1.376149	-0.009761	1.587626
