data_functionalizedCrystal
_audit_creation_method	'MofGen! by Chris Wilmer'
_symmetry_space_group_name_H-M	'P1'
_symmetry_Int_Tables_number	1
_symmetry_cell_setting	triclinic
loop_
_symmetry_equiv_pos_as_xyz
  x,y,z
_cell_length_a	16.625546
_cell_length_b	21.395364
_cell_length_c	21.395355
_cell_angle_alpha	89.975448
_cell_angle_beta	89.981524
_cell_angle_gamma	90.037419
loop_
_atom_site_label
_atom_site_type_symbol
_atom_site_fract_x
_atom_site_fract_y
_atom_site_fract_z
Zn1	Zn	-0.320773	0.957895	-0.354262
Zn2	Zn	0.179227	1.457895	0.145738
Zn3	Zn	-0.455588	0.957813	-0.249484
Zn4	Zn	0.044412	1.457813	0.250516
Zn5	Zn	-0.320809	0.853110	-0.249498
Zn6	Zn	0.179191	1.353110	0.250502
Zn7	Zn	-0.455603	0.853094	-0.354224
Zn8	Zn	0.044397	1.353094	0.145776
O9	O	-0.388193	0.905478	-0.301867
O10	O	0.111807	1.405478	0.198133
O11	O	-0.338636	1.045562	-0.340372
O12	O	0.161364	1.545562	0.159628
O13	O	-0.437718	0.943896	-0.161808
O14	O	0.062282	1.443896	0.338192
O15	O	-0.207972	0.867051	-0.263417
O16	O	0.292028	1.367051	0.236583
O17	O	-0.437684	1.045501	-0.263393
O18	O	0.062316	1.545501	0.236607
O19	O	-0.207946	0.944036	-0.340386
O20	O	0.292054	1.444036	0.159614
O21	O	-0.338696	0.866971	-0.161819
O22	O	0.161304	1.366971	0.338181
O23	O	-0.338710	0.765430	-0.263381
O24	O	0.161290	1.265430	0.236619
O25	O	-0.437709	0.867024	-0.441907
O26	O	0.062291	1.367024	0.058093
O27	O	-0.437743	0.765418	-0.340323
O28	O	0.062257	1.265418	0.159677
O29	O	-0.338650	0.944021	-0.441935
O30	O	0.161350	1.444021	0.058065
O31	O	-0.568423	0.943880	-0.263357
O32	O	-0.068423	1.443880	0.236643
O33	O	-0.568433	0.866944	-0.340309
O34	O	-0.068433	1.366944	0.159691
C35	C	-0.388233	0.742690	-0.301850
C36	C	0.111767	1.242690	0.198150
C37	C	-0.388269	0.673049	-0.301857
C38	C	0.111731	1.173049	0.198143
C39	C	-0.336779	0.640390	-0.342002
C40	C	0.163221	1.140390	0.157998
C41	C	-0.336757	0.574954	-0.342005
C42	C	0.163243	1.074954	0.157995
C43	C	-0.388240	0.542181	-0.301868
C44	C	0.111760	1.042181	0.198132
C45	C	-0.439734	0.574848	-0.261715
C46	C	0.060266	1.074848	0.238285
C47	C	-0.439748	0.640282	-0.261710
C48	C	0.060252	1.140282	0.238290
C49	C	-0.460853	0.438465	-0.296831
C50	C	0.039147	0.938465	0.203169
C51	C	-0.460840	0.373032	-0.296841
C52	C	0.039160	0.873032	0.203159
C53	C	-0.388196	0.340360	-0.301882
C54	C	0.111804	0.840360	0.198118
C55	C	-0.315562	0.373130	-0.306927
C56	C	0.184438	0.873130	0.193073
C57	C	-0.315577	0.438564	-0.306921
C58	C	0.184423	0.938564	0.193079
C59	C	-0.388230	0.471228	-0.301870
C60	C	0.111770	0.971228	0.198130
C61	C	-0.336678	0.236748	-0.342032
C62	C	0.163322	0.736748	0.157968
C63	C	-0.336656	0.171312	-0.342030
C64	C	0.163344	0.671312	0.157970
C65	C	-0.439639	0.171206	-0.261744
C66	C	0.060361	0.671206	0.238256
C67	C	-0.439655	0.236642	-0.261743
C68	C	0.060345	0.736642	0.238257
C69	C	-0.388175	0.269409	-0.301890
C70	C	0.111825	0.769409	0.198110
C71	C	-0.597684	0.905419	-0.301841
C72	C	-0.097684	1.405419	0.198159
C73	C	-0.687305	0.905451	-0.301851
C74	C	-0.187305	1.405451	0.198149
C75	C	-1.015481	0.905560	-0.301916
C76	C	-0.515481	1.405560	0.198084
C77	C	-0.924172	0.905528	-0.301900
C78	C	-0.424172	1.405528	0.198100
C79	C	-0.851396	0.905505	-0.301883
C80	C	-0.351396	1.405505	0.198117
C81	C	-0.760082	0.905473	-0.301867
C82	C	-0.260082	1.405473	0.198133
C83	C	-0.177884	0.905555	-0.301907
C84	C	0.322116	1.405555	0.198093
C85	C	-0.088263	0.905587	-0.301924
C86	C	0.411737	1.405587	0.198076
C87	C	-0.388177	0.905530	-0.465291
C88	C	0.111823	1.405530	0.034709
C89	C	-0.388170	0.905552	-0.534932
C90	C	0.111830	1.405552	-0.034932
C91	C	-0.388155	1.068901	-0.301885
C92	C	0.111845	1.568901	0.198115
C93	C	-0.388138	1.138543	-0.301893
C94	C	0.111862	1.638543	0.198107
C95	C	-0.336588	0.945643	-0.567660
C96	C	0.163412	1.445643	-0.067660
C97	C	-0.336553	0.945642	-0.633096
C98	C	0.163447	1.445642	-0.133096
C99	C	-0.388115	0.905557	-0.665800
C100	C	0.111885	1.405557	-0.165800
C101	C	-0.439701	0.865459	-0.633064
C102	C	0.060299	1.365459	-0.133064
C103	C	-0.439728	0.865456	-0.567630
C104	C	0.060272	1.365456	-0.067630
C105	C	-0.460717	0.900589	-0.769466
C106	C	0.039283	1.400589	-0.269466
C107	C	-0.460691	0.900596	-0.834899
C108	C	0.039309	1.400596	-0.334899
C109	C	-0.388030	0.905561	-0.867621
C110	C	0.111970	1.405561	-0.367621
C111	C	-0.315392	0.910532	-0.834902
C112	C	0.184608	1.410532	-0.334902
C113	C	-0.315420	0.910530	-0.769468
C114	C	0.184580	1.410530	-0.269468
C115	C	-0.388091	0.905555	-0.736753
C116	C	0.111909	1.405555	-0.236753
C117	C	-0.336406	0.945653	-0.971302
C118	C	0.163594	1.445653	-0.471302
C119	C	-0.336370	0.945647	-1.036739
C120	C	0.163630	1.445647	-0.536739
C121	C	-0.439524	0.865468	-1.036706
C122	C	0.060476	1.365468	-0.536706
C123	C	-0.439553	0.865470	-0.971270
C124	C	0.060447	1.365470	-0.471270
C125	C	-0.387995	0.905565	-0.938572
C126	C	0.112005	1.405565	-0.438572
C127	C	-0.388151	0.905462	-0.139080
C128	C	0.111849	1.405462	0.360920
C129	C	-0.387931	0.905561	-0.069439
C130	C	0.112069	1.405561	0.430561
H131	H	-0.294824	0.548358	-0.374695
H132	H	0.205176	1.048358	0.125305
H133	H	-0.481680	0.832820	-0.659696
H134	H	0.018320	1.332820	-0.159696
N135	N	-0.241383	0.472027	-0.312074
N136	N	0.258617	0.972027	0.187926
N137	N	-0.176524	0.442856	-0.316577
N138	N	0.323476	0.942856	0.183423
H139	H	-0.124123	0.466489	-0.320214
H140	H	0.375877	0.966489	0.179786
H141	H	-0.256276	0.914576	-0.742831
H142	H	0.243724	1.414576	-0.242831
N143	N	-0.241343	0.339778	-0.312080
N144	N	0.258657	0.839778	0.187920
N145	N	-0.197706	0.347139	-0.359100
N146	N	0.302294	0.847139	0.140900
H147	H	-0.145289	0.323584	-0.362741
H148	H	0.354711	0.823584	0.137259
N149	N	-0.283675	0.986592	-1.070181
N150	N	0.216325	1.486592	-0.570181
N151	N	-0.232281	0.964568	-1.106683
N152	N	0.267719	1.464568	-0.606683
H153	H	-0.195064	0.993486	-1.130303
H154	H	0.304936	1.493486	-0.630303
H155	H	-0.294860	0.667065	-0.374693
H156	H	0.205140	1.167065	0.125307
H157	H	-0.481587	0.263233	-0.229055
H158	H	0.018413	0.763233	0.270945
N159	N	-0.492250	0.824515	-0.937845
N160	N	0.007750	1.324515	-0.437845
N161	N	-0.538282	0.788725	-0.967050
N162	N	-0.038282	1.288725	-0.467050
H163	H	-0.575500	0.759796	-0.943444
H164	H	-0.075500	1.259796	-0.443444
H165	H	-0.481651	0.548159	-0.229036
H166	H	0.018349	1.048159	0.270964
H167	H	-0.294756	0.263429	-0.374719
H168	H	0.205244	0.763429	0.125281
N169	N	-0.283736	0.986593	-0.937888
N170	N	0.216264	1.486593	-0.437888
N171	N	-0.283768	0.986587	-0.879465
N172	N	0.216232	1.486587	-0.379465
H173	H	-0.246569	1.015501	-0.855866
H174	H	0.253431	1.515501	-0.355866
H175	H	-0.481557	0.144523	-0.229065
H176	H	0.018443	0.644523	0.270935
N177	N	-0.283914	0.986582	-0.534252
N178	N	0.216086	1.486582	-0.034252
N179	N	-0.283937	0.986572	-0.475829
N180	N	0.216063	1.486572	0.024171
H181	H	-0.246733	1.015483	-0.452232
H182	H	0.253267	1.515483	0.047768
H183	H	-0.481731	0.832807	-0.540983
H184	H	0.018269	1.332807	-0.040983
N185	N	-0.492182	0.824519	-1.070114
N186	N	0.007818	1.324519	-0.570114
N187	N	-0.492147	0.824523	-1.128537
N188	N	0.007853	1.324523	-0.628537
H189	H	-0.529335	0.795600	-1.152135
H190	H	-0.029335	1.295600	-0.652135
H191	H	-0.519983	0.346356	-0.292736
H192	H	-0.019983	0.846356	0.207264
N193	N	-0.283852	0.986586	-0.666538
N194	N	0.216148	1.486586	-0.166538
N195	N	-0.209453	0.982460	-0.659234
N196	N	0.290547	1.482460	-0.159234
H197	H	-0.172232	1.011376	-0.682852
H198	H	0.327768	1.511376	-0.182852
H199	H	-0.519837	0.896552	-0.861533
H200	H	-0.019837	1.396552	-0.361533
H201	H	-0.519872	0.896379	-0.742829
H202	H	-0.019872	1.396379	-0.242829
H203	H	-0.256224	0.914576	-0.861543
H204	H	0.243776	1.414576	-0.361543
N205	N	-0.535059	0.471837	-0.291668
N206	N	-0.035059	0.971837	0.208332
N207	N	-0.578694	0.464479	-0.244646
N208	N	-0.078694	0.964479	0.255354
H209	H	-0.631100	0.488049	-0.240997
H210	H	-0.131100	0.988049	0.259003
N211	N	-0.284051	0.137962	-0.383046
N212	N	0.215949	0.637962	0.116954
N213	N	-0.289512	0.145296	-0.440852
N214	N	0.210488	0.645296	0.059148
H215	H	-0.252357	0.121743	-0.469820
H216	H	0.247643	0.621743	0.030180
N217	N	-0.492349	0.673636	-0.220694
N218	N	0.007651	1.173636	0.279306
N219	N	-0.538308	0.644371	-0.184856
N220	N	-0.038308	1.144371	0.315144
H221	H	-0.575459	0.667927	-0.155888
H222	H	-0.075459	1.167927	0.344112
