data_functionalizedCrystal
_audit_creation_method	'MofGen! by Chris Wilmer'
_symmetry_space_group_name_H-M	'P1'
_symmetry_Int_Tables_number	1
_symmetry_cell_setting	triclinic
loop_
_symmetry_equiv_pos_as_xyz
  x,y,z
_cell_length_a	14.971486
_cell_length_b	11.295483
_cell_length_c	14.971494
_cell_angle_alpha	85.898143
_cell_angle_beta	83.615843
_cell_angle_gamma	94.105328
loop_
_atom_site_label
_atom_site_type_symbol
_atom_site_fract_x
_atom_site_fract_y
_atom_site_fract_z
O1	O	1.192958	0.098883	0.110554
O2	O	1.692958	0.598883	0.610554
O3	O	0.932560	0.098915	0.124510
O4	O	1.432560	0.598915	0.624510
O5	O	1.069734	0.098895	-0.012667
O6	O	1.569734	0.598895	0.487333
O7	O	1.055784	0.098902	0.247731
O8	O	1.555784	0.598902	0.747731
O9	O	1.057686	-0.099154	-0.000637
O10	O	1.557686	0.400846	0.499363
O11	O	0.920512	-0.099134	0.136541
O12	O	1.420512	0.400866	0.636541
O13	O	1.180910	-0.099166	0.122584
O14	O	1.680910	0.400834	0.622584
Cu15	Cu	1.049611	-0.117234	0.130661
Cu16	Cu	1.549611	0.382766	0.630661
Cu17	Cu	1.063859	0.116982	0.116434
Cu18	Cu	1.563859	0.616982	0.616434
O19	O	1.043735	-0.099147	0.259761
O20	O	1.543735	0.400853	0.759761
C21	C	0.893211	-0.000106	0.129901
C22	C	1.393211	0.499894	0.629901
C23	C	0.793915	-0.000093	0.128030
C24	C	1.293915	0.499907	0.628030
N25	N	1.039595	-0.281969	0.140666
N26	N	1.539595	0.218031	0.640666
C27	C	0.736692	-0.000093	0.208618
C28	C	1.236692	0.499907	0.708618
C29	C	0.643392	-0.000111	0.206856
C30	C	1.143392	0.499889	0.706856
C31	C	0.607316	-0.000120	0.124504
C32	C	1.107316	0.499880	0.624504
C33	C	0.664546	-0.000125	0.043909
C34	C	1.164546	0.499875	0.543909
C35	C	0.757844	-0.000115	0.045673
C36	C	1.257844	0.499885	0.545673
C37	C	0.470083	-0.000141	0.040239
C38	C	0.970083	0.499859	0.540239
C39	C	0.376778	-0.000148	0.038475
C40	C	0.876778	0.499852	0.538475
C41	C	0.355630	-0.000136	0.201423
C42	C	0.855630	0.499864	0.701423
C43	C	0.448928	-0.000127	0.203186
C44	C	0.948928	0.499873	0.703186
C45	C	0.506152	-0.000129	0.122591
C46	C	1.006152	0.499871	0.622591
C47	C	1.145976	-0.531273	0.034343
C48	C	1.645976	-0.031273	0.534343
C49	C	1.138414	-0.655936	0.041910
C50	C	1.638414	-0.155936	0.541910
C51	C	1.016905	-0.655959	0.163365
C52	C	1.516905	-0.155959	0.663365
C53	C	1.024467	-0.531296	0.155797
C54	C	1.524467	-0.031296	0.655797
C55	C	1.089006	-0.468958	0.091285
C56	C	1.589006	0.031042	0.591285
C57	C	1.096571	-0.344293	0.083722
C58	C	1.596571	0.155707	0.583722
C59	C	0.975059	-0.344318	0.205172
C60	C	1.475059	0.155682	0.705172
C61	C	0.967497	-0.468981	0.212740
C62	C	1.467497	0.031019	0.712740
C63	C	1.220258	-0.000143	0.117193
C64	C	1.720258	0.499857	0.617193
C65	C	1.319555	-0.000148	0.119064
C66	C	1.819555	0.499852	0.619064
C67	C	1.063085	-0.000127	-0.039977
C68	C	1.563085	0.499873	0.460023
C69	C	1.061212	-0.000122	-0.139274
C70	C	1.561212	0.499878	0.360726
N71	N	1.073881	0.281717	0.106421
N72	N	1.573881	0.781717	0.606421
C73	C	1.066901	0.107836	-0.192476
C74	C	1.566901	0.607836	0.307524
C75	C	1.065135	0.107838	-0.285776
C76	C	1.565135	0.607838	0.214224
C77	C	1.057685	-0.000119	-0.325871
C78	C	1.557685	0.499881	0.174129
C79	C	1.051993	-0.108086	-0.272662
C80	C	1.551993	0.391914	0.227338
C81	C	1.053753	-0.108086	-0.179363
C82	C	1.553753	0.391914	0.320637
C83	C	1.048328	-0.108077	-0.467125
C84	C	1.548328	0.391923	0.032875
C85	C	1.046569	-0.108077	-0.560430
C86	C	1.546569	0.391923	-0.060430
C87	C	1.059709	0.107847	-0.573537
C88	C	1.559709	0.607847	-0.073537
C89	C	1.061469	0.107847	-0.480239
C90	C	1.561469	0.607847	0.019761
C91	C	1.055778	-0.000120	-0.427036
C92	C	1.555778	0.499880	0.072964
C93	C	1.050385	-0.000121	0.287071
C94	C	1.550385	0.499879	0.787071
C95	C	1.052259	-0.000119	0.386368
C96	C	1.552259	0.499881	0.886368
H97	H	0.766057	-0.000084	0.275679
H98	H	1.266057	0.499916	0.775679
O99	O	1.199859	-0.723153	-0.019504
O100	O	1.699859	-0.223153	0.480496
H101	H	1.239920	-0.779948	0.021669
H102	H	1.739920	-0.279948	0.521669
O103	O	1.042191	-0.224527	-0.409741
O104	O	1.542191	0.275473	0.090259
H105	H	1.103594	-0.229688	-0.374823
H106	H	1.603594	0.270312	0.125177
O107	O	1.065803	0.224297	-0.630914
O108	O	1.565803	0.724297	-0.130914
H109	H	1.071276	0.299366	-0.587358
H110	H	1.571276	0.799366	-0.087358
O111	O	1.043955	-0.224526	-0.315908
O112	O	1.543955	0.275474	0.184092
H113	H	1.040285	-0.299596	-0.263234
H114	H	1.540285	0.200404	0.236766
H115	H	0.914949	-0.519751	0.265262
H116	H	1.414949	-0.019751	0.765262
O117	O	0.293915	-0.000152	0.288355
O118	O	0.793915	0.499848	0.788355
H119	H	0.255792	0.080556	0.286545
H120	H	0.755792	0.580556	0.786545
H121	H	1.198531	-0.480516	-0.018180
H122	H	1.698531	0.019484	0.481820
O123	O	0.337861	-0.000174	-0.050344
O124	O	0.837861	0.499826	0.449656
H125	H	0.393323	-0.000195	-0.106089
H126	H	0.893323	0.499805	0.393911
O127	O	1.074926	0.224280	-0.149234
O128	O	1.574926	0.724280	0.350766
H129	H	1.138648	0.276052	-0.178195
H130	H	1.638648	0.776052	0.321805
O131	O	0.487831	-0.000121	0.292013
O132	O	0.987831	0.499879	0.792013
H133	H	0.534728	0.080609	0.291815
H134	H	1.034728	0.580609	0.791815
H135	H	0.928673	-0.293566	0.251541
H136	H	1.428673	0.206434	0.751541
H137	H	0.964354	-0.706731	0.215884
H138	H	1.464354	-0.206731	0.715884
O139	O	1.071226	0.224277	-0.343156
O140	O	1.571226	0.724277	0.156844
H141	H	1.076696	0.299346	-0.299600
H142	H	1.576696	0.799346	0.200400
H143	H	1.067542	0.195755	-0.447597
H144	H	1.567542	0.695755	0.052403
H145	H	0.596804	-0.000109	0.272480
H146	H	1.096804	0.499891	0.772480
O147	O	0.625635	-0.000143	-0.044913
O148	O	1.125635	0.499857	0.455087
H149	H	0.681102	-0.000155	-0.100655
H150	H	1.181102	0.499845	0.399345
O151	O	1.038521	-0.224513	-0.603681
O152	O	1.538521	0.275487	-0.103681
H153	H	1.034843	-0.299590	-0.551011
H154	H	1.534843	0.200410	-0.051011
O155	O	1.047628	-0.224528	-0.121979
O156	O	1.547628	0.275472	0.378021
H157	H	0.983229	-0.276297	-0.128842
H158	H	1.483229	0.223703	0.371158
O159	O	0.531808	-0.000137	-0.046686
O160	O	1.031808	0.499863	0.453314
H161	H	0.491051	-0.000131	-0.104249
H162	H	0.991051	0.499869	0.395751
O163	O	0.819571	-0.000112	-0.041247
O164	O	1.319571	0.499888	0.458753
H165	H	0.778814	-0.000110	-0.098810
H166	H	1.278814	0.499890	0.401190
H167	H	1.149124	-0.293538	0.031195
H168	H	1.649124	0.206462	0.531195
