data_functionalizedCrystal
_audit_creation_method	'MofGen! by Chris Wilmer'
_symmetry_space_group_name_H-M	'P1'
_symmetry_Int_Tables_number	1
_symmetry_cell_setting	triclinic
loop_
_symmetry_equiv_pos_as_xyz
  x,y,z
_cell_length_a	18.101395
_cell_length_b	19.805407
_cell_length_c	19.805399
_cell_angle_alpha	89.978936
_cell_angle_beta	90.025118
_cell_angle_gamma	89.969911
loop_
_atom_site_label
_atom_site_type_symbol
_atom_site_fract_x
_atom_site_fract_y
_atom_site_fract_z
Zn1	Zn	-0.294867	-1.034714	0.382758
Zn2	Zn	-0.418710	-1.034619	0.269575
Zn3	Zn	-0.294885	-0.921528	0.269580
Zn4	Zn	-0.418669	-0.921482	0.382719
O5	O	-0.356783	-0.978086	0.326158
O6	O	-0.311305	-1.129418	0.367759
O7	O	-0.402310	-1.019597	0.174859
O8	O	-0.191250	-0.936601	0.284612
O9	O	-0.402292	-1.129348	0.284603
O10	O	-0.191236	-1.019758	0.367763
O11	O	-0.311336	-0.936510	0.174863
O12	O	-0.311295	-0.826806	0.284573
O13	O	-0.402221	-0.936523	0.477440
O14	O	-0.402239	-0.826772	0.367696
O15	O	-0.311264	-1.019714	0.477470
O16	O	-0.522338	-1.019553	0.284565
O17	O	-0.522307	-0.936432	0.367691
C18	C	-0.356765	-0.802230	0.326131
C19	C	-0.356776	-0.726998	0.326136
C20	C	-0.404200	-0.691654	0.369347
C21	C	-0.404200	-0.620965	0.369355
C22	C	-0.356779	-0.585622	0.326148
C23	C	-0.309348	-0.620971	0.282935
C24	C	-0.309345	-0.691658	0.282931
C25	C	-0.309359	-0.335898	0.282950
C26	C	-0.309368	-0.265206	0.282955
C27	C	-0.404214	-0.265205	0.369373
C28	C	-0.404211	-0.335892	0.369370
C29	C	-0.356779	-0.371235	0.326160
C30	C	-0.356778	-0.447883	0.326153
C31	C	-0.356782	-0.508975	0.326151
C32	C	-0.549193	-0.977995	0.326138
C33	C	-0.631507	-0.978018	0.326152
C34	C	-0.930598	-0.978167	0.326188
C35	C	-0.899285	-0.925991	0.378619
C36	C	-0.813667	-0.925743	0.378455
C37	C	-0.782216	-0.978093	0.326171
C38	C	-0.813364	-0.958782	0.254836
C39	C	-0.899009	-0.958446	0.255150
C40	C	-0.898944	-1.049768	0.344465
C41	C	-0.813293	-1.049347	0.346029
C42	C	-0.698356	-0.978053	0.326157
C43	C	-1.014458	-0.978206	0.326198
C44	C	-0.163621	-0.978195	0.326193
C45	C	-0.081307	-0.978242	0.326207
C46	C	-0.356736	-0.978124	0.502701
C47	C	-0.356716	-0.978140	0.577933
C48	C	-0.356796	-0.154629	0.326178
C49	C	-0.356789	-0.229861	0.326170
C50	C	-0.356776	-0.978087	0.150302
C51	C	-0.356587	-0.978202	0.075070
C52	C	-0.309353	-1.021458	0.613293
C53	C	-0.309331	-1.021465	0.683982
C54	C	-0.356678	-0.978157	0.719308
C55	C	-0.404043	-0.934834	0.683943
C56	C	-0.404060	-0.934824	0.613256
C57	C	-0.403974	-0.934872	0.969016
C58	C	-0.403955	-0.934887	1.039709
C59	C	-0.309245	-1.021513	1.039742
C60	C	-0.309262	-1.021503	0.969055
C61	C	-0.356625	-0.978178	0.933696
C62	C	-0.356646	-0.978170	0.857047
C63	C	-0.356660	-0.978168	0.795955
H64	H	-0.270747	-0.236431	0.247771
C65	C	-0.456072	-0.887211	0.930130
N66	N	-0.495314	-0.851309	0.900839
C67	C	-0.257266	-1.069101	0.574440
N68	N	-0.218031	-1.104985	0.545178
H69	H	-0.442833	-0.236420	0.404560
H70	H	-0.270677	-1.056788	1.068540
C71	C	-0.456369	-0.730525	0.416879
N72	N	-0.495662	-0.759801	0.452683
C73	C	-0.257182	-0.582091	0.235408
N74	N	-0.217891	-0.552807	0.199608
H75	H	-0.270742	-0.364665	0.247760
C76	C	-0.784368	-1.104644	0.298198
N77	N	-0.762583	-1.146292	0.262166
C78	C	-0.785839	-1.008502	0.200619
N79	N	-0.765103	-1.045951	0.159783
H80	H	-0.920495	-1.067374	0.395596
C81	C	-0.784480	-0.888819	0.233548
N82	N	-0.762727	-0.836120	0.217518
H83	H	-0.270723	-0.720435	0.247748
C84	C	-0.257229	-1.069120	0.722875
N85	N	-0.217983	-1.105016	0.752169
H86	H	-0.442511	-0.899617	1.068470
C87	C	-0.785212	-0.942062	0.449914
N88	N	-0.763783	-0.954351	0.503740
C89	C	-0.456118	-0.887188	0.722805
N90	N	-0.495341	-0.851299	0.752075
H91	H	-0.792933	-1.063910	0.398528
C92	C	-0.786071	-0.854032	0.362149
N93	N	-0.765286	-0.800013	0.349884
H94	H	-0.919835	-0.937953	0.431685
C95	C	-0.926086	-0.887736	0.234239
N96	N	-0.946476	-0.834474	0.218491
C97	C	-0.928435	-0.854725	0.362465
N98	N	-0.950389	-0.801048	0.350293
H99	H	-0.919725	-0.994801	0.214752
C100	C	-0.456165	-0.887172	0.574360
N101	N	-0.495411	-0.851277	0.545064
H102	H	-0.442819	-0.592192	0.404541
H103	H	-0.442829	-0.364665	0.404551
H104	H	-0.919193	-1.088641	0.306278
H105	H	-0.270710	-1.056772	0.940295
