data_functionalizedCrystal
_audit_creation_method	'MofGen! by Chris Wilmer'
_symmetry_space_group_name_H-M	'P1'
_symmetry_Int_Tables_number	1
_symmetry_cell_setting	triclinic
loop_
_symmetry_equiv_pos_as_xyz
  x,y,z
_cell_length_a	15.995343
_cell_length_b	8.559649
_cell_length_c	7.088929
_cell_angle_alpha	84.655815
_cell_angle_beta	83.792128
_cell_angle_gamma	103.366076
loop_
_atom_site_label
_atom_site_type_symbol
_atom_site_fract_x
_atom_site_fract_y
_atom_site_fract_z
O1	O	1.088110	-0.222307	0.158791
O2	O	0.842695	-0.247758	0.158836
O3	O	0.987024	-0.002428	0.158807
O4	O	0.943781	-0.467636	0.158819
O5	O	1.006316	0.030432	-0.159172
O6	O	0.861987	-0.214898	-0.159143
O7	O	1.107403	-0.189447	-0.159188
Cu8	Cu	0.986457	-0.199172	-0.188200
Cu9	Cu	0.963641	-0.238032	0.187847
O10	O	0.963074	-0.434776	-0.159160
C11	C	0.821213	-0.230278	-0.000148
C12	C	0.728464	-0.227133	-0.000131
C13	C	0.558646	-0.221418	-0.000156
C14	C	0.546688	-0.044329	-0.000160
C15	C	0.450269	-0.040922	-0.000893
C16	C	0.391450	-0.215788	-0.000180
C17	C	0.425811	-0.286104	-0.181398
C18	C	0.522477	-0.288190	-0.181539
C19	C	0.500280	-0.328152	0.180076
C20	C	0.404062	-0.321859	0.182446
C21	C	0.296957	-0.212616	-0.000199
C22	C	0.653140	-0.224594	-0.000150
C23	C	0.999947	0.073531	-0.000179
C24	C	1.009701	0.250911	-0.000171
C25	C	1.128884	-0.206926	-0.000201
C26	C	1.221632	-0.210073	-0.000205
C27	C	0.950150	-0.510736	-0.000169
C28	C	0.940395	-0.688117	-0.000165
N29	N	1.002510	-0.171838	-0.452691
N30	N	0.947594	-0.265353	0.452338
H31	H	0.571226	0.010884	0.129773
H32	H	0.890681	-0.362262	-0.466004
F33	F	1.076913	-0.045178	-0.559430
H34	H	0.427852	0.015359	0.128985
H35	H	0.587888	0.036603	-0.129924
F36	F	0.442358	0.067382	-0.171706
H37	H	0.561432	-0.213192	-0.317520
H38	H	0.381539	-0.270869	0.316514
H39	H	0.529170	-0.417252	-0.189284
H40	H	0.417861	-0.211019	-0.316776
F41	F	0.373869	-0.453408	-0.189544
H42	H	0.523806	-0.286480	0.317477
H43	H	0.362205	-0.450588	0.193953
H44	H	0.873598	0.228382	-0.000159
H45	H	1.076504	0.334423	-0.000198
F46	F	0.507473	-0.498775	0.182324
