data_functionalizedCrystal
_audit_creation_method	'MofGen! by Chris Wilmer'
_symmetry_space_group_name_H-M	'P1'
_symmetry_Int_Tables_number	1
_symmetry_cell_setting	triclinic
loop_
_symmetry_equiv_pos_as_xyz
  x,y,z
_cell_length_a	27.732048
_cell_length_b	19.188930
_cell_length_c	18.266242
_cell_angle_alpha	90.011475
_cell_angle_beta	89.996455
_cell_angle_gamma	97.106281
loop_
_atom_site_label
_atom_site_type_symbol
_atom_site_fract_x
_atom_site_fract_y
_atom_site_fract_z
O1	O	0.641184	-0.083079	-0.060795
O2	O	1.141184	0.416921	0.439205
O3	O	0.500429	-0.095711	-0.060818
O4	O	1.000429	0.404289	0.439182
O5	O	0.574869	0.012287	-0.060791
O6	O	1.074869	0.512287	0.439209
O7	O	0.566745	-0.191077	-0.060821
O8	O	1.066745	0.308923	0.439179
O9	O	0.574856	0.012292	0.060971
O10	O	1.074856	0.512292	0.560971
O11	O	0.500417	-0.095706	0.060944
O12	O	1.000417	0.404294	0.560944
O13	O	0.641172	-0.083074	0.060967
O14	O	1.141172	0.416926	0.560967
Zn15	Zn	0.570792	-0.089389	0.080288
Zn16	Zn	1.070792	0.410611	0.580288
Zn17	Zn	0.570809	-0.089396	-0.080139
Zn18	Zn	1.070809	0.410604	0.419861
O19	O	0.566732	-0.191071	0.060941
O20	O	1.066732	0.308929	0.560941
C21	C	0.482415	-0.095443	0.000060
C22	C	0.982415	0.404557	0.500060
C23	C	0.428758	-0.094645	0.000052
C24	C	0.928758	0.405355	0.500052
N25	N	0.570784	-0.089383	0.189775
N26	N	1.070784	0.410617	0.689775
C27	C	0.574599	0.038299	0.000092
C28	C	1.074599	0.538299	0.500092
C29	C	0.573810	0.115798	0.000098
C30	C	1.073810	0.615798	0.500098
C31	C	0.090123	-0.153438	0.000075
C32	C	0.590123	0.346562	0.500075
C33	C	-0.111546	-0.150475	0.000082
C34	C	0.388454	0.349525	0.500082
O35	O	-0.142637	-0.204237	0.000106
O36	O	0.357363	0.295763	0.500106
N37	N	-0.130866	-0.086437	0.000090
N38	N	0.369134	0.413563	0.500090
C39	C	-0.099764	-0.023135	0.000101
C40	C	0.400236	0.476865	0.500101
O41	O	-0.120824	0.031401	0.000116
O42	O	0.379176	0.531401	0.500116
C43	C	0.101903	-0.026098	0.000100
C44	C	0.601903	0.473902	0.500100
C45	C	0.121220	-0.090140	0.000084
C46	C	0.621220	0.409860	0.500084
C47	C	0.109440	-0.217475	0.000060
C48	C	0.609440	0.282525	0.500060
C49	C	0.159854	-0.218215	0.000055
C50	C	0.659854	0.281785	0.500055
C51	C	0.190951	-0.154917	0.000064
C52	C	0.690951	0.345083	0.500064
C53	C	0.171634	-0.090880	0.000078
C54	C	0.671634	0.409120	0.500078
C55	C	0.133003	0.037203	0.000116
C56	C	0.633003	0.537203	0.500116
C57	C	0.183423	0.036457	0.000117
C58	C	0.683423	0.536457	0.500117
C59	C	0.202740	-0.027586	0.000102
C60	C	0.702740	0.472414	0.500102
C61	C	0.253145	-0.028323	0.000082
C62	C	0.753145	0.471677	0.500082
N63	N	0.272465	-0.092361	0.000073
N64	N	0.772465	0.407639	0.500073
C65	C	0.241368	-0.155658	0.000064
C66	C	0.741368	0.344342	0.500064
C67	C	-0.205643	-0.021584	0.000101
C68	C	0.294357	0.478416	0.500101
C69	C	-0.256060	-0.020843	0.000100
C70	C	0.243940	0.479157	0.500100
C71	C	-0.267838	-0.148183	0.000082
C72	C	0.232162	0.351817	0.500082
C73	C	-0.217420	-0.148923	0.000078
C74	C	0.282580	0.351077	0.500078
C75	C	-0.186324	-0.085622	0.000093
C76	C	0.313676	0.414378	0.500093
C77	C	0.347242	-0.157208	0.000052
C78	C	0.847242	0.342792	0.500052
C79	C	0.397661	-0.157942	0.000043
C80	C	0.897661	0.342058	0.500043
C81	C	0.409435	-0.030602	0.000065
C82	C	0.909435	0.469398	0.500065
C83	C	0.359020	-0.029867	0.000070
C84	C	0.859020	0.470133	0.500070
C85	C	0.327924	-0.093176	0.000066
C86	C	0.827924	0.406824	0.500066
O87	O	0.284265	0.025410	0.000066
O88	O	0.784265	0.525410	0.500066
O89	O	0.262437	-0.210187	0.000066
O90	O	0.762437	0.289813	0.500066
C91	C	0.039708	-0.152698	0.000081
C92	C	0.539708	0.347302	0.500081
C93	C	0.020391	-0.088661	0.000096
C94	C	0.520391	0.411339	0.500096
C95	C	0.051489	-0.025363	0.000105
C96	C	0.551489	0.474637	0.500105
C97	C	-0.030025	-0.087920	0.000095
C98	C	0.469975	0.412080	0.500095
C99	C	-0.061122	-0.151217	0.000086
C100	C	0.438878	0.348783	0.500086
C101	C	-0.041803	-0.215255	0.000078
C102	C	0.458197	0.284745	0.500078
C103	C	0.008611	-0.215995	0.000072
C104	C	0.508611	0.284005	0.500072
C105	C	0.032169	0.038675	0.000113
C106	C	0.532169	0.538675	0.500113
C107	C	-0.018246	0.039409	0.000118
C108	C	0.481754	0.539409	0.500118
C109	C	-0.049343	-0.023888	0.000109
C110	C	0.450657	0.476112	0.500109
C111	C	0.659186	-0.083341	0.000087
C112	C	1.159186	0.416659	0.500087
C113	C	0.712843	-0.084140	0.000091
C114	C	1.212843	0.415860	0.500091
C115	C	0.567002	-0.217083	0.000056
C116	C	1.067002	0.282917	0.500056
C117	C	0.567791	-0.294583	0.000045
C118	C	1.067791	0.205417	0.500045
C119	C	0.617488	0.161001	0.000109
C120	C	1.117488	0.661001	0.500109
C121	C	0.616746	0.233820	0.000097
C122	C	1.116746	0.733820	0.500097
C123	C	0.572323	0.261433	0.000089
C124	C	1.072323	0.761433	0.500089
C125	C	0.528639	0.216220	0.000074
C126	C	1.028639	0.716220	0.500074
C127	C	0.529382	0.143403	0.000079
C128	C	1.029382	0.643403	0.500079
N129	N	0.538363	0.369223	0.041521
N130	N	1.038363	0.869223	0.541521
N131	N	0.537660	0.438397	0.041518
N132	N	1.037660	0.938397	0.541518
C133	C	0.570081	0.480827	0.000074
C134	C	1.070081	0.980827	0.500074
N135	N	0.603240	0.451471	-0.041359
N136	N	1.103240	0.951471	0.458641
N137	N	0.603944	0.382291	-0.041353
N138	N	1.103944	0.882291	0.458647
C139	C	0.571512	0.340390	0.000084
C140	C	1.071512	0.840390	0.500084
C141	C	0.612959	0.604989	0.000071
C142	C	1.112959	1.104989	0.500071
C143	C	0.612215	0.677809	0.000054
C144	C	1.112215	1.177809	0.500054
C145	C	0.524106	0.660208	0.000039
C146	C	1.024106	1.160208	0.500039
C147	C	0.524851	0.587390	0.000048
C148	C	1.024851	1.087390	0.500048
C149	C	0.569279	0.559785	0.000067
C150	C	1.069279	1.059785	0.500067
N151	N	0.570820	-0.089396	-0.189626
N152	N	1.070820	0.410604	0.310374
C153	C	0.603757	-0.041585	0.228096
C154	C	1.103757	0.458415	0.728096
C155	C	0.603760	-0.041582	0.304741
C156	C	1.103760	0.458418	0.804741
C157	C	0.570795	-0.089389	0.343062
C158	C	1.070795	0.410611	0.843062
C159	C	0.537817	-0.137191	0.304732
C160	C	1.037817	0.362809	0.804732
C161	C	0.537811	-0.137188	0.228088
C162	C	1.037811	0.362812	0.728088
N163	N	0.564512	-0.151236	0.463385
N164	N	1.064512	0.348764	0.963385
N165	N	0.564520	-0.151237	0.536193
N166	N	1.064520	0.348763	1.036193
C167	C	0.570809	-0.089399	0.573984
C168	C	1.070809	0.410601	1.073984
N169	N	0.577099	-0.027558	0.536217
N170	N	1.077099	0.472442	1.036217
N171	N	0.577093	-0.027559	0.463403
N172	N	1.077093	0.472441	0.963403
C173	C	0.570797	-0.089397	0.426169
C174	C	1.070797	0.410603	0.926169
C175	C	0.603786	-0.041593	0.695412
C176	C	1.103786	0.458407	1.195412
C177	C	0.603786	-0.041589	0.772058
C178	C	1.103786	0.458411	1.272058
C179	C	0.537845	-0.137204	0.772048
C180	C	1.037845	0.362796	1.272048
C181	C	0.537843	-0.137202	0.695403
C182	C	1.037843	0.362798	1.195403
C183	C	0.570816	-0.089397	0.657090
C184	C	1.070816	0.410603	1.157090
H185	H	0.413385	-0.210095	0.000030
H186	H	0.913385	0.289905	0.500030
H187	H	0.343292	0.022281	0.000072
H188	H	0.843292	0.522281	0.500072
C189	C	0.669426	-0.025484	0.141606
C190	C	1.169426	0.474516	0.641606
C191	C	0.639841	0.011080	0.185850
C192	C	1.139841	0.511080	0.685850
H193	H	0.691657	0.007065	0.115489
H194	H	1.191657	0.507065	0.615489
H195	H	0.649779	-0.054062	0.107920
H196	H	1.149779	0.445938	0.607920
H197	H	0.686912	-0.054244	0.171407
H198	H	1.186912	0.445756	0.671407
H199	H	0.622352	0.039836	0.156048
H200	H	1.122352	0.539836	0.656048
H201	H	0.659490	0.039670	0.219539
H202	H	1.159490	0.539670	0.719539
C203	C	0.454519	0.105969	-0.062527
C204	C	0.954519	0.605969	0.437473
C205	C	0.481366	0.093713	0.000072
C206	C	0.981366	0.593713	0.500072
H207	H	0.424875	0.075294	-0.062526
H208	H	0.924875	0.575294	0.437474
H209	H	0.472746	0.097635	-0.104975
H210	H	0.972746	0.597635	0.395025
H211	H	0.447722	0.153290	-0.062526
H212	H	0.947722	0.653290	0.437474
H213	H	0.488166	0.046393	0.000069
H214	H	0.988166	0.546393	0.500069
H215	H	0.463136	0.102041	0.042531
H216	H	0.963136	0.602041	0.542531
H217	H	-0.033968	0.091564	0.000124
H218	H	0.466032	0.591564	0.500124
H219	H	0.630634	-0.002666	0.664216
H220	H	1.130634	0.497334	1.164216
H221	H	0.653664	0.138530	0.000122
H222	H	1.153664	0.638530	0.500122
C223	C	0.667034	0.325912	-0.062481
C224	C	1.167034	0.825912	0.437519
C225	C	0.664761	0.283519	0.000113
C226	C	1.164761	0.783519	0.500113
H227	H	0.696678	0.356590	-0.062470
H228	H	1.196678	0.856590	0.437530
H229	H	0.640473	0.352771	-0.062486
H230	H	1.140473	0.852771	0.437514
H231	H	0.665503	0.297125	-0.104937
H232	H	1.165503	0.797125	0.395063
H233	H	0.666289	0.312306	0.042569
H234	H	1.166289	0.812306	0.542569
H235	H	0.691330	0.256658	0.000125
H236	H	1.191330	0.756658	0.500125
C237	C	0.488379	0.320031	0.000072
C238	C	0.988379	0.820031	0.500072
C239	C	0.479808	0.246570	0.000068
C240	C	0.979808	0.746570	0.500068
H241	H	0.458231	0.338765	0.000070
H242	H	0.958231	0.838765	0.500070
H243	H	0.506359	0.335567	-0.042383
H244	H	1.006359	0.835567	0.457617
H245	H	0.506354	0.335580	0.042539
H246	H	1.006354	0.835580	0.542539
H247	H	0.461837	0.231020	-0.042402
H248	H	0.961837	0.731020	0.457598
H249	H	0.461821	0.231027	0.042528
H250	H	0.961821	0.731027	0.542528
H251	H	0.649134	0.582512	0.000083
H252	H	1.149134	1.082512	0.500083
H253	H	0.024334	-0.268144	0.000060
H254	H	0.524334	0.231856	0.500060
H255	H	-0.067131	-0.266794	0.000067
H256	H	0.432869	0.233206	0.500067
H257	H	0.511003	-0.176126	0.803249
H258	H	1.011003	0.323874	1.303249
C259	C	0.699380	0.687888	0.000090
C260	C	1.199380	1.187888	0.500090
C261	C	0.660230	0.727500	0.000068
C262	C	1.160230	1.227500	0.500068
H263	H	0.729022	0.718567	0.000104
H264	H	1.229022	1.218567	0.500104
H265	H	0.697845	0.659112	-0.042366
H266	H	1.197845	1.159112	0.457634
H267	H	0.697825	0.659129	0.042557
H268	H	1.197825	1.159129	0.542557
H269	H	0.661783	0.756255	-0.042402
H270	H	1.161783	1.256255	0.457598
H271	H	0.661765	0.756288	0.042528
H272	H	1.161765	1.256288	0.542528
H273	H	0.117285	0.089353	0.000129
H274	H	0.617285	0.589353	0.500129
H275	H	0.487936	0.682690	0.000029
H276	H	0.987936	1.182690	0.500029
C277	C	0.437688	0.577309	0.000043
C278	C	0.937688	1.077309	0.500043
C279	C	0.476838	0.537698	0.000049
C280	C	0.976838	1.037698	0.500049
H281	H	0.408046	0.546630	0.000047
H282	H	0.908046	1.046630	0.500047
H283	H	0.439234	0.606064	-0.042418
H284	H	0.939234	1.106064	0.457582
H285	H	0.439231	0.606090	0.042504
H286	H	0.939231	1.106090	0.542504
H287	H	0.475297	0.508921	-0.042415
H288	H	0.975297	1.008921	0.457585
H289	H	0.475292	0.508932	0.042514
H290	H	0.975292	1.008932	0.542514
H291	H	0.434763	0.020933	0.000069
H292	H	0.934763	0.520933	0.500069
C293	C	0.038736	0.164614	0.000123
C294	C	0.538736	0.664614	0.500123
C295	C	0.066347	0.108257	0.000116
C296	C	0.566347	0.608257	0.500116
H297	H	0.059836	0.207574	0.000117
H298	H	0.559836	0.707574	0.500117
H299	H	0.018830	0.162256	0.042584
H300	H	0.518830	0.662256	0.542584
H301	H	0.018823	0.162239	-0.042338
H302	H	0.518823	0.662239	0.457662
H303	H	0.086257	0.110630	0.042580
H304	H	0.586257	0.610630	0.542580
H305	H	0.086261	0.110617	-0.042350
H306	H	0.586261	0.610617	0.457650
H307	H	0.175576	-0.270364	0.000042
H308	H	0.675576	0.229636	0.500042
H309	H	-0.201697	-0.201072	0.000069
H310	H	0.298303	0.298928	0.500069
H311	H	0.630611	-0.002658	0.335947
H312	H	1.130611	0.497342	0.835947
C313	C	0.508552	-0.179656	0.422218
C314	C	1.008552	0.320344	0.922218
C315	C	0.501582	-0.189743	0.346852
C316	C	1.001582	0.310257	0.846852
H317	H	0.486182	-0.212103	0.448219
H318	H	0.986182	0.287897	0.948219
H319	H	0.503403	-0.133115	0.434790
H320	H	1.003403	0.366885	0.934790
H321	H	0.540797	-0.186920	0.434758
H322	H	1.040797	0.313080	0.934758
H323	H	0.469338	-0.182473	0.334311
H324	H	0.969338	0.317527	0.834311
H325	H	0.506727	-0.236295	0.334275
H326	H	1.006727	0.263705	0.834275
C327	C	0.472633	-0.231699	0.235779
C328	C	0.972633	0.268301	0.735779
C329	C	0.501569	-0.189737	0.185962
C330	C	1.001569	0.310263	0.685962
H331	H	0.450262	-0.264144	0.209769
H332	H	0.950262	0.235856	0.709769
H333	H	0.455310	-0.202809	0.265679
H334	H	0.955310	0.297191	0.765679
H335	H	0.492705	-0.256613	0.265666
H336	H	0.992705	0.243387	0.765666
H337	H	0.481497	-0.164819	0.156078
H338	H	0.981497	0.335181	0.656078
H339	H	0.518893	-0.218631	0.156049
H340	H	1.018893	0.281369	0.656049
C341	C	0.632445	0.079565	0.795670
C342	C	1.132445	0.579565	1.295670
C343	C	0.640034	0.010955	0.814181
C344	C	1.140034	0.510955	1.314181
H345	H	0.654826	0.112002	0.821672
H346	H	1.154826	0.612002	1.321672
H347	H	0.600209	0.086829	0.808244
H348	H	1.100209	0.586829	1.308244
H349	H	0.637161	0.086395	0.744538
H350	H	1.137161	0.586395	1.244538
H351	H	0.635315	0.004123	0.865312
H352	H	1.135315	0.504123	1.365312
H353	H	0.672278	0.003688	0.801611
H354	H	1.172278	0.503688	1.301611
C355	C	0.340677	-0.283153	0.000019
C356	C	0.840677	0.216847	0.500019
C357	C	0.313066	-0.226797	0.000038
C358	C	0.813066	0.273203	0.500038
H359	H	0.319578	-0.326113	0.000002
H360	H	0.819578	0.173887	0.500002
H361	H	0.360584	-0.280792	0.042478
H362	H	0.860584	0.219208	0.542478
H363	H	0.360590	-0.280780	-0.042444
H364	H	0.860590	0.219220	0.457556
H365	H	0.293156	-0.229167	0.042505
H366	H	0.793156	0.270833	0.542505
H367	H	0.293152	-0.229159	-0.042425
H368	H	0.793152	0.270841	0.457575
C369	C	0.102875	-0.343414	0.000029
C370	C	0.602875	0.156586	0.500029
C371	C	0.075263	-0.287059	0.000044
C372	C	0.575263	0.212941	0.500044
H373	H	0.081777	-0.386375	0.000010
H374	H	0.581777	0.113625	0.500010
H375	H	0.122779	-0.341051	0.042491
H376	H	0.622779	0.158949	0.542491
H377	H	0.122791	-0.341039	-0.042432
H378	H	0.622791	0.158961	0.457568
H379	H	0.055350	-0.289431	0.042508
H380	H	0.555350	0.210569	0.542508
H381	H	0.055350	-0.289423	-0.042422
H382	H	0.555350	0.210577	0.457578
C383	C	-0.261527	0.087925	-0.062477
C384	C	0.238473	0.587925	0.437523
C385	C	-0.277288	0.049555	0.000108
C386	C	0.222712	0.549555	0.500108
H387	H	-0.274629	0.131389	-0.062465
H388	H	0.225371	0.631389	0.437535
H389	H	-0.272214	0.061888	-0.104934
H390	H	0.227786	0.561888	0.395066
H391	H	-0.227050	0.096530	-0.062467
H392	H	0.272950	0.596530	0.437533
H393	H	-0.311765	0.040946	0.000096
H394	H	0.188235	0.540946	0.500096
H395	H	-0.266604	0.075598	0.042577
H396	H	0.233396	0.575598	0.542577
C397	C	-0.350356	-0.203578	0.000081
C398	C	0.149644	0.296422	0.500081
C399	C	-0.302027	-0.217761	0.000077
C400	C	0.197973	0.282239	0.500077
H401	H	-0.371463	-0.246531	0.000086
H402	H	0.128537	0.253469	0.500086
H403	H	-0.356193	-0.177307	-0.042376
H404	H	0.143807	0.322693	0.457624
H405	H	-0.356191	-0.177287	0.042546
H406	H	0.143809	0.322713	0.542546
H407	H	-0.296191	-0.244049	-0.042391
H408	H	0.203809	0.255951	0.457609
H409	H	-0.296188	-0.244043	0.042539
H410	H	0.203812	0.255957	0.542539
C411	C	-0.142114	0.051465	-0.062484
C412	C	0.357886	0.551465	0.437516
C413	C	-0.171465	0.048004	0.000109
C414	C	0.328535	0.548004	0.500109
H415	H	-0.121014	0.094424	-0.062478
H416	H	0.378986	0.594424	0.437522
H417	H	-0.162027	0.049099	-0.104936
H418	H	0.337973	0.549099	0.395064
H419	H	-0.123390	0.013223	-0.062478
H420	H	0.376610	0.513223	0.437522
H421	H	-0.190191	0.086243	0.000101
H422	H	0.309809	0.586243	0.500101
H423	H	-0.151550	0.050376	0.042572
H424	H	0.348450	0.550376	0.542572
H425	H	0.208740	0.088006	0.000130
H426	H	0.708740	0.588006	0.500130
C427	C	0.472670	-0.231716	0.703095
C428	C	0.972670	0.268284	1.203095
C429	C	0.501603	-0.189752	0.653276
C430	C	1.001603	0.310248	1.153276
H431	H	0.450298	-0.264160	0.677086
H432	H	0.950298	0.235840	1.177086
H433	H	0.455348	-0.202826	0.732997
H434	H	0.955348	0.297174	1.232997
H435	H	0.492743	-0.256629	0.732979
H436	H	0.992743	0.243371	1.232979
H437	H	0.481530	-0.164834	0.623395
H438	H	0.981530	0.335166	1.123395
H439	H	0.518927	-0.218645	0.623361
H440	H	1.018927	0.281355	1.123361
