data_functionalizedCrystal
_audit_creation_method	'MofGen! by Chris Wilmer'
_symmetry_space_group_name_H-M	'P1'
_symmetry_Int_Tables_number	1
_symmetry_cell_setting	triclinic
loop_
_symmetry_equiv_pos_as_xyz
  x,y,z
_cell_length_a	17.699083
_cell_length_b	17.699097
_cell_length_c	16.176319
_cell_angle_alpha	90.009574
_cell_angle_beta	90.004339
_cell_angle_gamma	83.285722
loop_
_atom_site_label
_atom_site_type_symbol
_atom_site_fract_x
_atom_site_fract_y
_atom_site_fract_z
O1	O	0.095757	1.004071	0.068817
O2	O	0.108199	0.783694	0.068804
O3	O	-0.008211	0.900109	0.068803
O4	O	0.212167	0.887657	0.068817
O5	O	-0.008211	0.900095	-0.068690
O6	O	0.108199	0.783681	-0.068690
O7	O	0.095757	1.004058	-0.068676
Cu8	Cu	0.101978	0.893868	-0.081237
Cu9	Cu	0.101978	0.893884	0.081364
O10	O	0.212167	0.887643	-0.068676
C11	C	0.107752	0.755491	0.000055
C12	C	0.106409	0.671473	0.000050
C13	C	-0.036408	0.899656	0.000057
C14	C	-0.120426	0.898317	0.000056
C15	C	0.098180	0.155762	0.075030
C16	C	0.099436	0.234706	0.075026
C17	C	0.100065	0.274165	0.000076
C18	C	0.099430	0.234676	-0.074876
C19	C	0.098169	0.155734	-0.074871
C20	C	0.104518	0.553040	-0.074898
C21	C	0.105782	0.631987	-0.074897
C22	C	0.105785	0.632012	0.075000
C23	C	0.104524	0.553070	0.075005
C24	C	0.103885	0.513589	0.000054
C25	C	0.102521	0.427989	0.000059
C26	C	0.101434	0.359763	0.000069
C27	C	-0.169044	0.966650	0.000059
C28	C	-0.247987	0.965388	0.000066
C29	C	-0.278311	0.895792	0.000065
C30	C	-0.229687	0.827454	0.000064
C31	C	-0.150745	0.828717	0.000063
C32	C	-0.548050	0.822359	0.000071
C33	C	-0.626998	0.821101	0.000070
C34	C	-0.645292	0.959030	0.000074
C35	C	-0.566350	0.960293	0.000073
C36	C	-0.517733	0.891955	0.000077
C37	C	-0.432134	0.893325	0.000070
C38	C	-0.363909	0.894422	0.000065
C39	C	0.240364	0.888096	0.000073
C40	C	0.324382	0.889435	0.000078
C41	C	0.096205	1.032261	0.000074
C42	C	0.097547	1.116279	0.000084
N43	N	0.101977	0.893862	-0.195602
C44	C	0.147828	0.939677	-0.238857
C45	C	0.147825	0.939685	-0.325404
C46	C	0.101975	0.893874	-0.368695
C47	C	0.056119	0.848057	-0.325434
C48	C	0.056118	0.848054	-0.238889
C49	C	0.056120	0.848071	-0.674463
C50	C	0.056126	0.848077	-0.761014
C51	C	0.147827	0.939702	-0.760978
C52	C	0.147826	0.939699	-0.674432
C53	C	0.101967	0.893886	-0.631179
C54	C	0.101970	0.893879	-0.537335
C55	C	0.101976	0.893876	-0.462538
N56	N	0.101973	0.893896	0.195730
H57	H	0.097673	0.123640	0.136064
C58	C	0.097517	0.112293	-0.157309
H59	H	0.096681	0.059627	-0.146573
H60	H	0.141855	0.119384	-0.188076
H61	H	0.053611	0.131061	-0.188135
H62	H	0.185169	0.976977	-0.203616
H63	H	0.099938	0.266810	-0.135903
H64	H	-0.144360	1.023323	0.000055
C65	C	-0.698773	1.034201	0.000083
H66	H	-0.750131	1.023485	0.000094
H67	H	-0.689600	1.062741	-0.047862
H68	H	-0.689586	1.062747	0.048037
C69	C	0.106481	0.675441	0.157448
H70	H	0.105935	0.640632	0.202085
H71	H	0.062855	0.712090	0.160567
H72	H	0.151099	0.700382	0.160562
C73	C	0.198268	0.990103	-0.808555
H74	H	0.225581	1.017377	-0.770376
H75	H	0.167215	1.024997	-0.842311
H76	H	0.233141	0.959017	-0.842318
H77	H	0.103987	0.520906	-0.135928
C78	C	-0.660353	0.744542	0.000079
H79	H	-0.620093	0.704023	0.000090
H80	H	-0.690772	0.741172	-0.047867
H81	H	-0.690765	0.741198	0.048033
C82	C	0.100136	0.278134	0.157467
H83	H	0.099591	0.243327	0.202105
H84	H	0.056510	0.314782	0.160584
H85	H	0.144753	0.303077	0.160579
H86	H	-0.287569	1.021032	0.000067
C87	C	-0.494579	0.747192	0.000075
H88	H	-0.443220	0.757907	0.000086
H89	H	-0.503757	0.718639	-0.047870
H90	H	-0.503761	0.718661	0.048030
H91	H	-0.541665	1.016965	0.000070
H92	H	-0.254383	0.770787	0.000068
C93	C	-0.097266	0.753551	0.000058
H94	H	-0.126631	0.711921	0.000050
H95	H	-0.066087	0.751182	0.048004
H96	H	-0.066094	0.751171	-0.047896
C97	C	0.198264	0.990078	-0.372981
H98	H	0.225578	1.017353	-0.334803
H99	H	0.167210	1.024972	-0.406736
H100	H	0.233136	0.958993	-0.406746
C101	C	0.106469	0.675395	-0.157344
H102	H	0.107320	0.728063	-0.146609
H103	H	0.062141	0.668309	-0.188140
H104	H	0.150384	0.656599	-0.188140
H105	H	0.185165	0.977000	-0.639189
H106	H	0.018786	0.810770	-0.796259
H107	H	0.018779	0.810768	-0.639256
C108	C	0.005686	0.797665	-0.373052
H109	H	0.012259	0.804221	-0.430791
H110	H	-0.046118	0.811822	-0.358873
H111	H	0.019818	0.745853	-0.358876
C112	C	0.005688	0.797655	-0.191305
H113	H	0.012249	0.804218	-0.133562
H114	H	0.019813	0.745847	-0.205499
H115	H	-0.046118	0.811820	-0.205490
C116	C	0.103829	0.509670	0.157450
H117	H	0.104378	0.544493	0.202086
H118	H	0.147453	0.473021	0.160573
H119	H	0.059210	0.484732	0.160561
