data_functionalizedCrystal
_audit_creation_method	'MofGen! by Chris Wilmer'
_symmetry_space_group_name_H-M	'P1'
_symmetry_Int_Tables_number	1
_symmetry_cell_setting	triclinic
loop_
_symmetry_equiv_pos_as_xyz
  x,y,z
_cell_length_a	14.971482
_cell_length_b	14.044220
_cell_length_c	13.448316
_cell_angle_alpha	89.992660
_cell_angle_beta	89.993798
_cell_angle_gamma	88.400743
loop_
_atom_site_label
_atom_site_type_symbol
_atom_site_fract_x
_atom_site_fract_y
_atom_site_fract_z
O1	O	1.196680	0.123521	-0.082682
O2	O	1.696680	0.623521	0.417318
O3	O	0.937445	0.138319	-0.082687
O4	O	1.437445	0.638319	0.417313
O5	O	1.063172	-0.007069	-0.082675
O6	O	1.563172	0.492931	0.417325
O7	O	1.070954	0.268909	-0.082694
O8	O	1.570954	0.768909	0.417306
O9	O	1.063154	-0.007078	0.082709
O10	O	1.563154	0.492922	0.582709
O11	O	0.937427	0.138310	0.082697
O12	O	1.437427	0.638310	0.582697
O13	O	1.196662	0.123512	0.082702
O14	O	1.696662	0.623512	0.582702
Cu15	Cu	1.067043	0.130910	0.097800
Cu16	Cu	1.567043	0.630910	0.597800
Cu17	Cu	1.067064	0.130921	-0.097785
Cu18	Cu	1.567064	0.630921	0.402215
O19	O	1.070936	0.268900	0.082690
O20	O	1.570936	0.768900	0.582690
C21	C	0.904059	0.137653	0.000004
C22	C	1.404059	0.637653	0.500004
C23	C	0.804606	0.135672	0.000003
C24	C	1.304606	0.635672	0.500003
C25	C	0.757878	0.134734	0.090155
C26	C	1.257878	0.634734	0.590155
C27	C	0.664432	0.132857	0.090156
C28	C	1.164432	0.632857	0.590156
C29	C	0.617715	0.131925	0.000004
C30	C	1.117715	0.631925	0.500004
C31	C	0.664450	0.132860	-0.090155
C32	C	1.164450	0.632860	0.409845
C33	C	0.757894	0.134730	-0.090155
C34	C	1.257894	0.634730	0.409845
C35	C	0.469681	0.128965	-0.090148
C36	C	0.969681	0.628965	0.409852
C37	C	0.376229	0.127097	-0.090148
C38	C	0.876229	0.627097	0.409852
C39	C	0.376218	0.127092	0.090163
C40	C	0.876218	0.627092	0.590163
C41	C	0.469663	0.128962	0.090163
C42	C	0.969663	0.628962	0.590163
C43	C	0.516391	0.129899	0.000003
C44	C	1.016391	0.629899	0.500003
C45	C	1.059756	-0.042392	0.000018
C46	C	1.559756	0.457608	0.500018
C47	C	1.049595	-0.147629	0.000019
C48	C	1.549595	0.352371	0.500019
C49	C	1.031018	-0.340311	0.000004
C50	C	1.531018	0.159689	0.500004
C51	C	1.103085	-0.397864	0.000002
C52	C	1.603085	0.102136	0.500002
C53	C	1.092749	-0.505079	-0.000006
C54	C	1.592749	-0.005079	0.499994
C55	C	1.041353	-0.233086	0.000012
C56	C	1.541353	0.266914	0.500012
C57	C	1.230048	0.124178	0.000009
C58	C	1.730048	0.624178	0.500009
C59	C	1.329501	0.126159	0.000004
C60	C	1.829501	0.626159	0.500004
C61	C	1.074351	0.304223	-0.000005
C62	C	1.574351	0.804223	0.499995
C63	C	1.084513	0.409460	-0.000012
C64	C	1.584513	0.909460	0.499988
N65	N	1.067035	0.130902	0.235365
N66	N	1.567035	0.630902	0.735365
N67	N	1.067079	0.130921	-0.235349
N68	N	1.567079	0.630921	0.264651
C69	C	1.122727	0.066551	0.287410
C70	C	1.622727	0.566551	0.787410
C71	C	1.122733	0.066550	0.391514
C72	C	1.622733	0.566550	0.891514
C73	C	1.067050	0.130906	0.443569
C74	C	1.567050	0.630906	0.943569
C75	C	1.011351	0.195260	0.391516
C76	C	1.511351	0.695260	0.891516
C77	C	1.011341	0.195255	0.287415
C78	C	1.511341	0.695255	0.787415
C79	C	1.011376	0.195266	0.608496
C80	C	1.511376	0.695266	1.108496
C81	C	1.011387	0.195272	0.712605
C82	C	1.511387	0.695272	1.212605
C83	C	1.122768	0.066561	0.712595
C84	C	1.622768	0.566561	1.212595
C85	C	1.122758	0.066556	0.608494
C86	C	1.622758	0.566556	1.108494
C87	C	1.067060	0.130912	0.556448
C88	C	1.567060	0.630912	1.056448
H89	H	0.338168	0.126329	0.163574
H90	H	0.838168	0.626329	0.663574
H91	H	0.966008	0.247657	0.433906
H92	H	1.466008	0.747657	0.933906
H93	H	1.172547	-0.366615	-0.000063
H94	H	1.672547	0.133385	0.499937
H95	H	1.168118	0.014160	0.754977
H96	H	1.668118	0.514160	1.254977
H97	H	0.961562	-0.371558	0.000000
H98	H	1.461562	0.128442	0.500000
H99	H	0.966018	0.247669	0.566124
H100	H	1.466018	0.747669	1.066124
C101	C	0.950083	0.266054	0.230165
C102	C	1.450083	0.766054	0.730165
N103	N	0.903942	0.319383	0.187046
N104	N	1.403942	0.819383	0.687046
H105	H	1.168081	0.014150	0.433889
H106	H	1.668081	0.514150	0.933889
C107	C	0.613058	0.131832	-0.189323
C108	C	1.113058	0.631832	0.310677
N109	N	0.574350	0.131062	-0.264018
N110	N	1.074350	0.631062	0.235982
H111	H	0.338195	0.126339	-0.163558
H112	H	0.838195	0.626339	0.336442
C113	C	1.184012	-0.004238	0.551235
C114	C	1.684012	0.495762	1.051235
N115	N	1.230147	-0.057564	0.508107
N116	N	1.730147	0.442436	1.008107
H117	H	0.966043	0.247677	0.754983
H118	H	1.466043	0.747677	1.254983
H119	H	1.168075	0.014149	0.245034
H120	H	1.668075	0.514149	0.745034
C121	C	0.809258	0.135758	0.189330
C122	C	1.309258	0.635758	0.689330
N123	N	0.847955	0.136525	0.264033
N124	N	1.347955	0.636525	0.764033
C125	C	0.613034	0.131847	0.189330
C126	C	1.113034	0.631847	0.689330
N127	N	0.574322	0.131094	0.264033
N128	N	1.074322	0.631094	0.764033
H129	H	0.507697	0.129726	0.163572
H130	H	1.007697	0.629726	0.663572
C131	C	0.809295	0.135764	-0.189329
C132	C	1.309295	0.635764	0.310671
N133	N	0.848008	0.136541	-0.264030
N134	N	1.348008	0.636541	0.235970
H135	H	0.507724	0.129728	-0.163565
H136	H	1.007724	0.629728	0.336435
