data_functionalizedCrystal
_audit_creation_method	'MofGen! by Chris Wilmer'
_symmetry_space_group_name_H-M	'P1'
_symmetry_Int_Tables_number	1
_symmetry_cell_setting	triclinic
loop_
_symmetry_equiv_pos_as_xyz
  x,y,z
_cell_length_a	19.121424
_cell_length_b	19.121063
_cell_length_c	12.759393
_cell_angle_alpha	87.597083
_cell_angle_beta	87.588001
_cell_angle_gamma	94.804615
loop_
_atom_site_label
_atom_site_type_symbol
_atom_site_fract_x
_atom_site_fract_y
_atom_site_fract_z
Zn1	Zn	1.063725	-0.234159	0.541317
Zn2	Zn	1.058607	-0.351846	0.373451
Zn3	Zn	0.946055	-0.239219	0.373453
Zn4	Zn	0.941005	-0.356812	0.556879
O5	O	1.002348	-0.295509	0.461275
O6	O	1.161508	-0.245574	0.512537
O7	O	1.043649	-0.336945	0.226435
O8	O	0.965920	-0.140082	0.389208
O9	O	1.157748	-0.332038	0.389206
O10	O	1.052371	-0.136364	0.512538
O11	O	0.960957	-0.254198	0.226436
O12	O	0.846923	-0.259014	0.404298
O13	O	0.957312	-0.340503	0.701831
O14	O	0.843213	-0.345409	0.539060
O15	O	1.047474	-0.250390	0.690398
O16	O	1.038752	-0.450970	0.404295
O17	O	0.952350	-0.454619	0.539059
C18	C	0.819538	-0.303300	0.473368
C19	C	0.741330	-0.306650	0.478568
C20	C	0.994467	-0.478325	0.473387
C21	C	0.991159	-0.556532	0.478600
C22	C	0.298908	-0.327834	0.511571
C23	C	0.372392	-0.324691	0.506666
C24	C	0.411046	-0.278066	0.434157
C25	C	0.376212	-0.234586	0.366541
C26	C	0.302729	-0.237732	0.371442
C27	C	0.633013	-0.266316	0.415852
C28	C	0.706501	-0.263171	0.410959
C29	C	0.702676	-0.353278	0.551083
C30	C	0.629192	-0.356417	0.555981
C31	C	0.594364	-0.312939	0.488362
C32	C	0.486159	-0.274852	0.429144
C33	C	0.519253	-0.316158	0.493370
C34	C	1.034625	-0.591349	0.410938
C35	C	1.031519	-0.664833	0.415846
C36	C	0.984942	-0.703498	0.488412
C37	C	0.941475	-0.668675	0.556081
C38	C	0.944585	-0.595193	0.551177
C39	C	0.973302	-0.925463	0.506730
C40	C	0.970193	-0.998951	0.511627
C41	C	1.060239	-0.995103	0.371393
C42	C	1.063342	-0.921619	0.366491
C43	C	1.019877	-0.886803	0.434164
C44	C	0.981765	-0.778610	0.493428
C45	C	1.023059	-0.811692	0.429152
C46	C	1.185872	-0.287688	0.449135
C47	C	1.264079	-0.284355	0.443962
C48	C	1.002400	-0.295436	0.735301
C49	C	1.002423	-0.295405	0.852074
C50	C	1.010279	-0.111978	0.449137
C51	C	1.013659	-0.033768	0.443965
C52	C	1.002339	-0.295529	0.188310
C53	C	1.002461	-0.295356	0.071515
C54	C	1.049376	-0.248478	0.900984
C55	C	1.049394	-0.248452	1.010705
C56	C	0.955502	-0.342285	1.022597
C57	C	0.955482	-0.342307	0.912878
C58	C	1.103586	-0.194306	0.894119
C59	C	1.103604	-0.194280	1.003840
H60	H	0.400746	-0.360098	0.561718
N61	N	1.104646	-1.030656	0.302273
N62	N	1.146229	-0.996125	0.237488
H63	H	1.177594	-1.021233	0.188668
H64	H	0.597724	-0.394386	0.615024
H65	H	0.909191	-0.566846	0.606275
H66	H	1.072550	-0.559873	0.351843
H67	H	0.932274	-1.030430	0.570736
N68	N	1.088206	-0.126740	0.853448
N69	N	1.035455	-0.121038	0.800110
H70	H	1.024590	-0.073322	0.771382
H71	H	0.731041	-0.388676	0.606134
N72	N	1.075909	-0.700393	0.346710
N73	N	1.049440	-0.742508	0.284104
H74	H	1.080793	-0.767620	0.235272
N75	N	0.745992	-0.215531	0.336909
N76	N	0.740583	-0.150960	0.340294
H77	H	0.768475	-0.117313	0.288006
H78	H	0.917283	-0.380470	1.072117
H79	H	1.154498	-0.211632	0.857952
H80	H	0.487777	-0.354122	0.552403
H81	H	1.101268	-0.890139	0.307403
H82	H	0.274373	-0.202325	0.316390
N83	N	0.934173	-0.818097	0.567539
N84	N	0.895357	-0.787006	0.627941
H85	H	0.861744	-0.814895	0.680283
H86	H	0.604665	-0.230916	0.360787
H87	H	0.937909	-0.897122	0.561830
N88	N	0.415704	-0.186969	0.292472
N89	N	0.481313	-0.184165	0.288105
H90	H	0.509205	-0.150534	0.235793
H91	H	1.086326	-0.143337	1.035744
H92	H	0.517639	-0.236888	0.370109
H93	H	0.903554	-0.700162	0.615169
N94	N	1.070632	-0.772211	0.355015
N95	N	1.109436	-0.803302	0.294596
H96	H	1.143032	-0.775414	0.242231
N97	N	0.907506	-0.390236	0.862934
N98	N	0.865599	-0.432106	0.917238
H99	H	0.831713	-0.465958	0.881967
N100	N	1.171182	-0.209656	1.037900
N101	N	1.224530	-0.170371	1.008361
H102	H	1.272256	-0.181227	1.032418
N103	N	0.259438	-0.375459	0.585652
N104	N	0.290548	-0.414276	0.646010
H105	H	0.262674	-0.447915	0.698332
