data_functionalizedCrystal
_audit_creation_method	'MofGen! by Chris Wilmer'
_symmetry_space_group_name_H-M	'P1'
_symmetry_Int_Tables_number	1
_symmetry_cell_setting	triclinic
loop_
_symmetry_equiv_pos_as_xyz
  x,y,z
_cell_length_a	19.121112
_cell_length_b	19.120786
_cell_length_c	19.805399
_cell_angle_alpha	92.468930
_cell_angle_beta	92.456608
_cell_angle_gamma	89.915581
loop_
_atom_site_label
_atom_site_type_symbol
_atom_site_fract_x
_atom_site_fract_y
_atom_site_fract_z
Zn1	Zn	1.059854	-0.324937	0.412841
Zn2	Zn	1.393187	0.008397	0.746174
Zn3	Zn	1.726521	0.341730	1.079508
Zn4	Zn	1.054766	-0.442178	0.294621
Zn5	Zn	1.388100	-0.108845	0.627954
Zn6	Zn	1.721433	0.224489	0.961287
Zn7	Zn	0.942618	-0.319946	0.295060
Zn8	Zn	1.275952	0.013387	0.628394
Zn9	Zn	1.609285	0.346721	0.961727
Zn10	Zn	0.937583	-0.437133	0.403167
Zn11	Zn	1.270917	-0.103800	0.736500
Zn12	Zn	1.604250	0.229533	1.069833
O13	O	0.998705	-0.381048	0.351422
O14	O	1.332039	-0.047715	0.684756
O15	O	1.665372	0.285618	1.018089
O16	O	1.157284	-0.344689	0.401024
O17	O	1.490617	-0.011355	0.734357
O18	O	1.823951	0.321978	1.067690
O19	O	1.039868	-0.425987	0.199961
O20	O	1.373201	-0.092653	0.533294
O21	O	1.706534	0.240680	0.866627
O22	O	0.962406	-0.222499	0.314917
O23	O	1.295740	0.110834	0.648250
O24	O	1.629073	0.444168	0.981584
O25	O	1.153546	-0.430826	0.314168
O26	O	1.486880	-0.097492	0.647501
O27	O	1.820213	0.235841	0.980834
O28	O	1.048539	-0.226165	0.401450
O29	O	1.381872	0.107168	0.734783
O30	O	1.715205	0.440501	1.068116
O31	O	0.957473	-0.336183	0.200284
O32	O	1.290806	-0.002850	0.533617
O33	O	1.624139	0.330483	0.866950
O34	O	0.843845	-0.331291	0.305536
O35	O	1.177179	0.002042	0.638869
O36	O	1.510512	0.335375	0.972203
O37	O	0.953825	-0.422227	0.499168
O38	O	1.287158	-0.088894	0.832502
O39	O	1.620492	0.244439	1.165835
O40	O	0.840146	-0.417388	0.384961
O41	O	1.173480	-0.084055	0.718295
O42	O	1.506813	0.249278	1.051628
O43	O	1.043657	-0.339797	0.506276
O44	O	1.376990	-0.006464	0.839609
O45	O	1.710323	0.326870	1.172943
O46	O	1.034985	-0.539618	0.304787
O47	O	1.368319	-0.206285	0.638120
O48	O	1.701652	0.127049	0.971454
O49	O	0.948892	-0.535912	0.384535
O50	O	1.282225	-0.202578	0.717869
O51	O	1.615558	0.130755	1.051202
C52	C	0.816558	-0.373251	0.344247
C53	C	1.149892	-0.039918	0.677580
C54	C	1.483225	0.293415	1.010914
C55	C	0.738634	-0.369933	0.341193
C56	C	1.071967	-0.036599	0.674526
C57	C	1.405301	0.296734	1.007860
C58	C	0.298008	-0.348878	0.321850
C59	C	0.631341	-0.015544	0.655183
C60	C	0.964675	0.317789	0.988516
C61	C	0.371226	-0.352000	0.324723
C62	C	0.704559	-0.018667	0.658056
C63	C	1.037892	0.314667	0.991390
C64	C	0.405922	-0.398461	0.367439
C65	C	0.739255	-0.065127	0.700772
C66	C	1.072588	0.268206	1.034105
C67	C	0.367396	-0.441797	0.407289
C68	C	0.700729	-0.108464	0.740622
C69	C	1.034063	0.224869	1.073955
C70	C	0.294180	-0.438671	0.404419
C71	C	0.627513	-0.105338	0.737752
C72	C	0.960846	0.227996	1.071085
C73	C	0.626892	-0.410143	0.378173
C74	C	0.960225	-0.076810	0.711506
C75	C	1.293559	0.256524	1.044840
C76	C	0.700114	-0.413267	0.381038
C77	C	1.033447	-0.079934	0.714372
C78	C	1.366780	0.253399	1.047705
C79	C	0.703938	-0.323469	0.298473
C80	C	1.037272	0.009865	0.631807
C81	C	1.370605	0.343198	0.965140
C82	C	0.630720	-0.320350	0.295604
C83	C	0.964054	0.012984	0.628937
C84	C	1.297387	0.346317	0.962271
C85	C	0.592201	-0.363683	0.335457
C86	C	0.925535	-0.030350	0.668790
C87	C	1.258868	0.302983	1.002123
C88	C	0.480762	-0.401655	0.370375
C89	C	0.814095	-0.068322	0.703708
C90	C	1.147429	0.265012	1.037042
C91	C	0.517362	-0.360485	0.332523
C92	C	0.850696	-0.027152	0.665857
C93	C	1.184029	0.306181	0.999190
C94	C	0.990859	-0.563204	0.343579
C95	C	1.324192	-0.229871	0.676912
C96	C	1.657526	0.103462	1.010246
C97	C	0.987566	-0.641134	0.340249
C98	C	1.320900	-0.307801	0.673582
C99	C	1.654233	0.025533	1.006916
C100	C	1.030831	-0.679593	0.383771
C101	C	1.364164	-0.346259	0.717105
C102	C	1.697498	-0.012926	1.050438
C103	C	1.027734	-0.752816	0.380643
C104	C	1.361068	-0.419483	0.713977
C105	C	1.694401	-0.086149	1.047310
C106	C	0.981376	-0.787579	0.333989
C107	C	1.314710	-0.454246	0.667323
C108	C	1.648043	-0.120912	1.000656
C109	C	0.938107	-0.749115	0.290465
C110	C	1.271441	-0.415782	0.623798
C111	C	1.604774	-0.082449	0.957132
C112	C	0.941201	-0.675893	0.293597
C113	C	1.274534	-0.342560	0.626930
C114	C	1.607867	-0.009227	0.960263
C115	C	0.969791	-1.008570	0.322281
C116	C	1.303124	-0.675236	0.655614
C117	C	1.636458	-0.341903	0.988947
C118	C	0.966702	-1.081797	0.319151
C119	C	1.300035	-0.748464	0.652484
C120	C	1.633369	-0.415130	0.985818
C121	C	1.056329	-1.085492	0.409331
C122	C	1.389662	-0.752159	0.742664
C123	C	1.722995	-0.418826	1.075997
C124	C	1.059421	-1.012269	0.412455
C125	C	1.392754	-0.678936	0.745789
C126	C	1.726088	-0.345602	1.079122
C127	C	1.016149	-0.973811	0.368934
C128	C	1.349483	-0.640478	0.702267
C129	C	1.682816	-0.307145	1.035600
C130	C	0.978212	-0.862425	0.330789
C131	C	1.311545	-0.529092	0.664123
C132	C	1.644878	-0.195758	0.997456
C133	C	1.019311	-0.898967	0.372137
C134	C	1.352644	-0.565633	0.705471
C135	C	1.685978	-0.232300	1.038804
C136	C	1.181564	-0.388877	0.358626
C137	C	1.514897	-0.055543	0.691959
C138	C	1.848231	0.277790	1.025292
C139	C	1.259487	-0.392212	0.361695
C140	C	1.592821	-0.058879	0.695029
C141	C	1.926154	0.274454	1.028362
C142	C	0.998747	-0.381006	0.527968
C143	C	1.332080	-0.047673	0.861302
C144	C	1.665413	0.285661	1.194635
C145	C	0.998764	-0.380988	0.603202
C146	C	1.332098	-0.047655	0.936535
C147	C	1.665431	0.285679	1.269869
C148	C	1.006602	-0.198182	0.359311
C149	C	1.339935	0.135151	0.692645
C150	C	1.673268	0.468484	1.025978
C151	C	1.009966	-0.120256	0.362673
C152	C	1.343300	0.213078	0.696007
C153	C	1.676633	0.546411	1.029340
C154	C	0.998707	-0.381042	0.175567
C155	C	1.332040	-0.047709	0.508900
C156	C	1.665374	0.285625	0.842233
C157	C	0.998834	-0.380868	0.100347
C158	C	1.332167	-0.047535	0.433681
C159	C	1.665500	0.285798	0.767014
C160	C	1.045541	-0.338064	0.642248
C161	C	1.378874	-0.004731	0.975582
C162	C	1.712207	0.328602	1.308915
C163	C	1.045549	-0.338044	0.712938
C164	C	1.378882	-0.004711	1.046271
C165	C	1.712215	0.328622	1.379605
C166	C	0.998783	-0.380952	0.744580
C167	C	1.332117	-0.047619	1.077913
C168	C	1.665450	0.285715	1.411246
C169	C	0.952002	-0.423878	0.705528
C170	C	1.285335	-0.090544	1.038862
C171	C	1.618668	0.242789	1.372195
C172	C	0.951991	-0.423893	0.634840
C173	C	1.285324	-0.090560	0.968173
C174	C	1.618657	0.242773	1.301507
C175	C	0.952044	-0.423814	0.990606
C176	C	1.285377	-0.090481	1.323939
C177	C	1.618711	0.242853	1.657273
C178	C	0.952060	-0.423796	1.061300
C179	C	1.285393	-0.090463	1.394633
C180	C	1.618727	0.242870	1.727966
C181	C	1.045602	-0.337965	1.068704
C182	C	1.378935	-0.004631	1.402037
C183	C	1.712269	0.328702	1.735371
C184	C	1.045591	-0.337981	0.998016
C185	C	1.378924	-0.004647	1.331349
C186	C	1.712258	0.328686	1.664682
C187	C	0.998807	-0.380903	0.958970
C188	C	1.332141	-0.047570	1.292304
C189	C	1.665474	0.285764	1.625637
C190	C	0.998798	-0.380923	0.882321
C191	C	1.332132	-0.047590	1.215654
C192	C	1.665465	0.285743	1.548987
C193	C	0.998795	-0.380936	0.821228
C194	C	1.332128	-0.047603	1.154561
C195	C	1.665462	0.285731	1.487895
H196	H	0.602476	-0.282521	0.260815
H197	H	0.935809	0.050812	0.594149
H198	H	1.269143	0.384145	0.927482
H199	H	1.097169	-0.983966	0.450445
H200	H	1.430503	-0.650633	0.783778
H201	H	1.763836	-0.317300	1.117112
H202	H	0.735309	-0.288188	0.266028
H203	H	1.068642	0.045145	0.599362
H204	H	1.401975	0.378479	0.932695
H205	H	0.402586	-0.316715	0.292273
H206	H	0.735919	0.016618	0.625607
H207	H	1.069253	0.349951	0.958940
H208	H	1.062970	-0.784126	0.416079
H209	H	1.396303	-0.450793	0.749412
H210	H	1.729637	-0.117459	1.082746
O211	O	0.260586	-0.298764	0.275780
O212	O	0.593920	0.034569	0.609113
O213	O	0.927253	0.367903	0.942446
H214	H	0.299676	-0.269150	0.248561
H215	H	0.633010	0.064183	0.581895
H216	H	0.966343	0.397517	0.915228
H217	H	0.728361	-0.451102	0.415826
H218	H	1.061694	-0.117768	0.749160
H219	H	1.395027	0.215565	1.082493
H220	H	1.091557	-1.116812	0.444764
H221	H	1.424890	-0.783479	0.778098
H222	H	1.758224	-0.450146	1.111431
O223	O	1.095987	-0.291787	0.608126
O224	O	1.429321	0.041547	0.941460
O225	O	1.762654	0.374880	1.274793
H226	H	1.088129	-0.299013	0.552412
H227	H	1.421462	0.034320	0.885745
H228	H	1.754796	0.367653	1.219079
O229	O	0.901528	-0.470181	0.592726
O230	O	1.234862	-0.136848	0.926059
O231	O	1.568195	0.196485	1.259392
H232	H	0.911171	-0.525721	0.604384
H233	H	1.244504	-0.192388	0.937717
H234	H	1.577838	0.140945	1.271050
O235	O	0.916695	-1.119296	0.268834
O236	O	1.250028	-0.785963	0.602167
O237	O	1.583361	-0.452629	0.935501
H238	H	0.887119	-1.080253	0.239101
H239	H	1.220452	-0.746920	0.572435
H240	H	1.553785	-0.413586	0.905768
O241	O	0.901608	-0.470070	1.095427
O242	O	1.234941	-0.136737	1.428760
O243	O	1.568274	0.196596	1.762093
H244	H	0.931446	-0.507084	1.127326
H245	H	1.264779	-0.173751	1.460660
H246	H	1.598112	0.159583	1.793993
O247	O	0.923132	-0.967102	0.275326
O248	O	1.256465	-0.633768	0.608660
O249	O	1.589798	-0.300435	0.941993
H250	H	0.867506	-0.978852	0.284110
H251	H	1.200839	-0.645518	0.617443
H252	H	1.534173	-0.312185	0.950777
H253	H	0.900359	-0.777425	0.252481
H254	H	1.233692	-0.444092	0.585814
H255	H	1.567026	-0.110758	0.919148
O256	O	0.585344	-0.457021	0.421010
O257	O	0.918677	-0.123688	0.754343
O258	O	1.252010	0.209645	1.087677
H259	H	0.621770	-0.489908	0.451137
H260	H	0.955104	-0.156575	0.784470
H261	H	1.288437	0.176758	1.117803
O262	O	0.901555	-0.470154	0.739651
O263	O	1.234889	-0.136821	1.072984
O264	O	1.568222	0.196512	1.406318
H265	H	0.909424	-0.462937	0.795365
H266	H	1.242757	-0.129604	1.128699
H267	H	1.576090	0.203730	1.462032
O268	O	0.894544	-0.634407	0.246650
O269	O	1.227877	-0.301074	0.579984
O270	O	1.561210	0.032259	0.913317
H271	H	0.861794	-0.670881	0.213676
H272	H	1.195127	-0.337547	0.547010
H273	H	1.528461	-0.004214	0.880343
O274	O	1.069318	-0.861478	0.422451
O275	O	1.402651	-0.528145	0.755784
O276	O	1.735985	-0.194812	1.089118
H277	H	1.039334	-0.826776	0.457052
H278	H	1.372667	-0.493443	0.790385
H279	H	1.706001	-0.160110	1.123718
H280	H	1.083675	-0.303043	0.972257
H281	H	1.417008	0.030290	1.305590
H282	H	1.750341	0.363624	1.638923
O283	O	0.404813	-0.491894	0.453380
O284	O	0.738146	-0.158560	0.786713
O285	O	1.071480	0.174773	1.120046
H286	H	0.462197	-0.486787	0.448683
H287	H	0.795530	-0.153454	0.782017
H288	H	1.128864	0.179879	1.115350
O289	O	0.252625	-0.485454	0.447349
O290	O	0.585958	-0.152121	0.780682
O291	O	0.919292	0.181212	1.114016
H292	H	0.289049	-0.518307	0.477514
H293	H	0.622382	-0.184974	0.810847
H294	H	0.955716	0.148359	1.144181
O295	O	0.928228	-0.899928	0.280459
O296	O	1.261562	-0.566595	0.613792
O297	O	1.594895	-0.233261	0.947126
H298	H	0.891135	-0.931784	0.307887
H299	H	1.224468	-0.598450	0.641220
H300	H	1.557801	-0.265117	0.974554
O301	O	1.096004	-0.291753	0.755055
O302	O	1.429337	0.041581	1.088388
O303	O	1.762671	0.374914	1.421721
H304	H	1.128528	-0.261927	0.721176
H305	H	1.461861	0.071406	1.054510
H306	H	1.795195	0.404740	1.387843
H307	H	1.083693	-0.303013	1.100503
H308	H	1.417027	0.030321	1.433837
H309	H	1.750360	0.363654	1.767170
O310	O	0.901590	-0.470095	0.948481
O311	O	1.234923	-0.136762	1.281814
O312	O	1.568257	0.196571	1.615148
H313	H	0.867281	-0.437175	0.916235
H314	H	1.200614	-0.103842	1.249568
H315	H	1.533947	0.229492	1.582901
H316	H	0.509019	-0.439485	0.405152
H317	H	0.842353	-0.106152	0.738486
H318	H	1.175686	0.227181	1.071819
O319	O	0.479936	-0.310391	0.286442
O320	O	0.813269	0.022943	0.619775
O321	O	1.146602	0.356276	0.953108
H322	H	0.448114	-0.273343	0.317013
H323	H	0.781448	0.059990	0.650346
H324	H	1.114781	0.393324	0.983680
H325	H	1.068583	-0.651294	0.421759
H326	H	1.401917	-0.317960	0.755093
H327	H	1.735250	0.015373	1.088426
