data_functionalizedCrystal
_audit_creation_method	'MofGen! by Chris Wilmer'
_symmetry_space_group_name_H-M	'P1'
_symmetry_Int_Tables_number	1
_symmetry_cell_setting	triclinic
loop_
_symmetry_equiv_pos_as_xyz
  x,y,z
_cell_length_a	14.853567
_cell_length_b	17.699083
_cell_length_c	16.176319
_cell_angle_alpha	90.004302
_cell_angle_beta	89.999649
_cell_angle_gamma	83.458972
loop_
_atom_site_label
_atom_site_type_symbol
_atom_site_fract_x
_atom_site_fract_y
_atom_site_fract_z
O1	O	0.114004	1.004373	0.068707
O2	O	0.128837	0.784034	0.068715
O3	O	-0.009831	0.900089	0.068713
O4	O	0.252672	0.888318	0.068709
O5	O	-0.009831	0.900075	-0.068780
O6	O	0.128836	0.784020	-0.068778
O7	O	0.114004	1.004360	-0.068786
Cu8	Cu	0.121420	0.894189	-0.081336
Cu9	Cu	0.121420	0.894205	0.081265
O10	O	0.252671	0.888304	-0.068784
C11	C	-0.043418	0.899549	-0.000031
C12	C	-0.143496	0.897951	-0.000024
C13	C	0.114535	1.032565	-0.000039
C14	C	0.116130	1.116587	-0.000037
C15	C	0.128305	0.755828	-0.000030
C16	C	0.126711	0.671806	-0.000027
C17	C	-0.555751	0.822255	-0.000037
C18	C	-0.577539	0.960131	-0.000041
C19	C	-0.483511	0.961634	-0.000037
C20	C	-0.425598	0.893446	-0.000033
C21	C	-0.461714	0.823756	-0.000034
C22	C	-0.447389	1.031324	-0.000044
C23	C	-0.353355	1.032829	-0.000040
C24	C	-0.295441	0.964641	-0.000030
C25	C	-0.331561	0.894947	-0.000031
C26	C	-0.273648	0.826759	-0.000027
C27	C	-0.309767	0.757065	-0.000021
C28	C	-0.403799	0.755567	-0.000025
C29	C	-0.201409	0.966139	-0.000027
C30	C	-0.179611	0.828260	-0.000025
C31	C	0.286258	0.888844	-0.000038
C32	C	0.386336	0.890443	-0.000040
N33	N	0.121419	0.894183	-0.195702
C34	C	0.034735	1.164997	-0.000032
C35	C	0.036238	1.243944	-0.000035
C36	C	0.119138	1.274480	-0.000036
C37	C	0.200539	1.226064	-0.000043
C38	C	0.199035	1.147119	-0.000046
C39	C	0.206608	1.544443	-0.000031
C40	C	0.208107	1.623395	-0.000026
C41	C	0.043812	1.641269	-0.000020
C42	C	0.042308	1.562323	-0.000023
C43	C	0.123708	1.513914	-0.000034
C44	C	0.122077	1.428311	-0.000033
C45	C	0.120770	1.360082	-0.000032
C46	C	0.176032	0.940139	-0.238965
C47	C	0.176028	0.940147	-0.325512
C48	C	0.121417	0.894194	-0.368794
C49	C	0.066798	0.848236	-0.325525
C50	C	0.066797	0.848232	-0.238979
C51	C	0.066799	0.848250	-0.674553
C52	C	0.066806	0.848255	-0.761105
C53	C	0.176030	0.940165	-0.761086
C54	C	0.176029	0.940162	-0.674540
C55	C	0.121407	0.894206	-0.631278
C56	C	0.121410	0.894199	-0.537434
C57	C	0.121418	0.894197	-0.462637
N58	N	0.121414	0.894217	0.195631
H59	H	-0.132463	0.772732	-0.000018
Br60	Br	-0.007294	0.785851	-0.615851
Br61	Br	-0.525987	1.123859	-0.000071
Br62	Br	0.313048	1.267505	-0.000049
Br63	Br	-0.007323	0.785873	-0.384264
Br64	Br	0.250148	1.002520	-0.384224
H65	H	0.272890	1.505037	-0.000036
Br66	Br	0.309504	1.081418	-0.000062
Br67	Br	-0.604765	0.727674	-0.000017
Br68	Br	0.250163	1.002516	-0.615804
H69	H	0.220504	0.977586	-0.796320
Br70	Br	-0.070203	1.520885	-0.000008
H71	H	-0.022468	1.680693	-0.000014
H72	H	0.022331	0.810833	-0.796342
Br73	Br	-0.304345	1.127412	-0.000035
Br74	Br	-0.007336	0.785871	-0.180263
Br75	Br	-0.152392	1.060715	-0.000054
Br76	Br	-0.231160	0.664528	-0.000027
Br77	Br	-0.077778	1.123564	-0.000025
Br78	Br	-0.074231	1.309641	-0.000038
Br79	Br	-0.452823	0.660990	-0.000012
H80	H	0.275617	1.648254	-0.000030
H81	H	0.220508	0.977555	-0.203731
H82	H	-0.624697	1.015647	-0.000051
