data_functionalizedCrystal
_audit_creation_method	'MofGen! by Chris Wilmer'
_symmetry_space_group_name_H-M	'P1'
_symmetry_Int_Tables_number	1
_symmetry_cell_setting	triclinic
loop_
_symmetry_equiv_pos_as_xyz
  x,y,z
_cell_length_a	17.038272
_cell_length_b	16.098538
_cell_length_c	14.519709
_cell_angle_alpha	92.726950
_cell_angle_beta	92.604149
_cell_angle_gamma	92.930266
loop_
_atom_site_label
_atom_site_type_symbol
_atom_site_fract_x
_atom_site_fract_y
_atom_site_fract_z
O1	O	1.041182	0.069155	-0.196445
O2	O	0.813547	0.069179	-0.193264
O3	O	0.933399	0.069159	-0.061078
O4	O	0.921329	0.069175	-0.328631
O5	O	0.926398	-0.069353	-0.068768
O6	O	0.806546	-0.069332	-0.200953
O7	O	1.034180	-0.069357	-0.204135
Zn8	Zn	0.919252	-0.091336	-0.203765
Zn9	Zn	0.928476	0.091159	-0.193634
O10	O	0.914328	-0.069336	-0.336320
C11	C	0.780914	-0.000073	-0.194216
C12	C	0.694107	-0.000064	-0.185585
N13	N	0.912962	-0.215884	-0.210678
C14	C	0.644122	-0.000060	-0.264818
C15	C	0.562557	-0.000072	-0.256704
C16	C	0.530981	-0.000082	-0.169357
C17	C	0.580972	-0.000089	-0.090119
C18	C	0.662535	-0.000083	-0.098233
C19	C	0.285175	-0.000106	-0.140689
C20	C	0.203606	-0.000110	-0.132580
C21	C	0.185197	-0.000095	-0.299167
C22	C	0.266762	-0.000084	-0.307273
C23	C	0.316746	-0.000095	-0.228035
C24	C	0.447609	-0.000092	-0.161061
C25	C	0.400116	-0.000091	-0.236332
C26	C	0.963851	-0.259478	-0.154596
C27	C	0.959458	-0.346666	-0.159442
C28	C	0.904180	-0.390259	-0.220376
C29	C	0.853285	-0.346660	-0.276460
C30	C	0.857675	-0.259473	-0.271609
C31	C	0.888267	-0.653507	-0.237946
C32	C	0.883883	-0.740699	-0.242795
C33	C	0.990055	-0.740700	-0.125776
C34	C	0.994443	-0.653512	-0.120934
C35	C	0.943546	-0.609920	-0.177015
C36	C	0.899690	-0.479380	-0.225332
C37	C	0.948032	-0.520801	-0.172052
C38	C	1.066814	-0.000102	-0.203183
C39	C	1.153621	-0.000106	-0.211813
C40	C	0.929336	-0.000097	-0.030520
C41	C	0.927650	-0.000097	0.071990
N42	N	0.934772	0.215707	-0.186713
C43	C	0.918391	-0.000079	-0.366878
C44	C	0.920077	-0.000073	-0.469388
C45	C	0.921446	-0.000075	0.447362
C46	C	0.923169	-0.000081	0.342922
C47	C	0.924548	-0.000087	0.259679
C48	C	0.926271	-0.000092	0.155233
H49	H	0.669825	-0.000051	-0.335945
H50	H	0.993037	-0.485305	-0.122437
H51	H	0.292466	-0.000066	-0.378400
Cl52	Cl	0.830200	-0.534186	-0.301936
H53	H	0.425829	-0.000087	-0.307450
H54	H	1.031492	-0.776201	-0.080116
H55	H	0.846826	-0.618021	-0.283611
H56	H	0.703233	-0.000086	-0.033714
Cl57	Cl	0.499721	-0.000062	-0.356316
Cl58	Cl	0.407905	-0.000101	-0.051256
H59	H	0.808273	-0.382158	-0.326070
Cl60	Cl	0.163910	-0.000142	-0.022765
Cl61	Cl	0.541275	-0.000107	0.019690
Cl62	Cl	1.033351	-0.204685	-0.077995
H63	H	0.838867	-0.776189	-0.292418
Cl64	Cl	0.122355	-0.000084	-0.398774
Cl65	Cl	0.348002	-0.000120	-0.041074
H66	H	1.000895	-0.382160	-0.113775
H67	H	0.816235	-0.223980	-0.317275
H68	H	1.039455	-0.618020	-0.071317
