data_functionalizedCrystal
_audit_creation_method	'MofGen! by Chris Wilmer'
_symmetry_space_group_name_H-M	'P1'
_symmetry_Int_Tables_number	1
_symmetry_cell_setting	triclinic
loop_
_symmetry_equiv_pos_as_xyz
  x,y,z
_cell_length_a	15.538191
_cell_length_b	14.971486
_cell_length_c	14.750487
_cell_angle_alpha	77.312365
_cell_angle_beta	97.534357
_cell_angle_gamma	65.443111
loop_
_atom_site_label
_atom_site_type_symbol
_atom_site_fract_x
_atom_site_fract_y
_atom_site_fract_z
O1	O	0.102369	1.173004	-0.079711
O2	O	0.117058	0.907826	-0.079736
O3	O	-0.027358	1.092036	-0.079723
O4	O	0.246784	0.988795	-0.079724
O5	O	0.013388	1.039899	0.079931
O6	O	0.157803	0.855690	0.079918
O7	O	0.143115	1.120868	0.079943
Zn8	Zn	0.156928	0.980001	0.105279
Zn9	Zn	0.103244	1.048693	-0.105072
O10	O	0.287530	0.936658	0.079930
C11	C	0.136773	0.848649	0.000088
C12	C	0.134801	0.749996	0.000078
C13	C	0.219643	0.665139	0.000079
C14	C	0.217791	0.572439	0.000093
C15	C	0.131093	0.564601	0.000099
C16	C	0.046245	0.649467	0.000101
C17	C	0.048100	0.742162	0.000094
C18	C	0.042383	0.456259	0.000114
C19	C	0.040527	0.363558	0.000120
C20	C	0.212074	0.286536	0.000114
C21	C	0.213929	0.379231	0.000106
C22	C	0.129080	0.464091	0.000106
C23	C	-0.042069	1.076770	0.000102
C24	C	-0.146608	1.108947	0.000095
C25	C	-0.434761	0.789301	0.000085
C26	C	-0.532992	0.819555	0.000090
C27	C	-0.555239	0.989732	0.000106
C28	C	-0.457010	0.959493	0.000097
C29	C	-0.396778	0.859277	0.000087
C30	C	-0.419026	1.029469	0.000098
C31	C	-0.320804	0.999231	0.000094
C32	C	-0.260565	0.899018	0.000087
C33	C	-0.298556	0.829039	0.000082
C34	C	-0.479258	1.129683	0.000115
C35	C	-0.441274	1.199658	0.000116
C36	C	-0.343052	1.169423	0.000105
C37	C	-0.282814	1.069210	0.000098
C38	C	-0.305062	1.239402	0.000110
C39	C	-0.206840	1.209164	0.000105
C40	C	-0.184592	1.038972	0.000094
C41	C	0.302241	0.951925	0.000103
C42	C	0.406778	0.919750	0.000103
C43	C	0.123399	1.180046	0.000118
C44	C	0.125370	1.278701	0.000121
N45	N	0.066599	1.095576	-0.248630
C46	C	-0.035711	1.226447	-0.399363
C47	C	-0.010035	1.193610	-0.298862
C48	C	0.117591	1.030343	-0.298889
C49	C	0.091929	1.063169	-0.399392
C50	C	0.015277	1.161221	-0.449621
C51	C	0.142917	0.997943	-0.449650
C52	C	0.117253	1.030764	-0.550145
C53	C	0.040602	1.128811	-0.600381
C54	C	-0.010387	1.194042	-0.550116
C55	C	0.219564	0.899888	-0.399419
C56	C	0.270552	0.834662	-0.449677
C57	C	0.244893	0.867485	-0.550173
C58	C	0.168242	0.965532	-0.600410
C59	C	0.295882	0.802254	-0.600438
C60	C	0.270218	0.835075	-0.700933
C61	C	0.142578	0.998353	-0.700904
N62	N	0.193566	0.933127	0.248838
H63	H	0.284524	0.385610	0.000092
O64	O	-0.119619	0.930878	0.000086
H65	H	-0.090951	0.934282	-0.064991
H66	H	-0.098122	1.306295	-0.440262
O67	O	-0.065031	1.263975	-0.244658
H68	H	-0.099261	1.226373	-0.198872
H69	H	-0.180586	0.874398	0.000089
O70	O	-0.043411	0.833686	0.000098
H71	H	-0.027554	0.899456	0.000105
O72	O	0.353230	0.728912	-0.395501
H73	H	0.362517	0.717048	-0.317176
H74	H	0.281162	0.217436	0.000118
O75	O	0.313158	0.673583	0.000071
H76	H	0.300195	0.752298	0.000057
O77	O	-0.233578	0.720947	0.000071
H78	H	-0.276489	0.677362	0.000074
H79	H	-0.030070	0.357181	0.000127
O80	O	0.200274	0.924597	-0.244708
H81	H	0.183099	0.865180	-0.263991
H82	H	-0.385718	0.707697	0.000071
O83	O	0.247255	0.864490	-0.291027
H84	H	0.238701	0.794041	-0.264524
O85	O	-0.049131	0.547792	0.000110
H86	H	-0.109733	0.526775	0.000104
O87	O	-0.573966	0.744081	0.000080
H88	H	-0.515580	0.669319	0.000065
H89	H	-0.604292	1.071327	0.000118
H90	H	0.019705	1.155530	-0.682210
O91	O	-0.585199	1.162308	0.000122
H92	H	-0.622914	1.154815	-0.064959
H93	H	-0.490327	1.281254	0.000128
O94	O	-0.165871	1.284641	0.000097
H95	H	-0.105048	1.253692	0.065171
O96	O	0.059896	1.104102	-0.755109
H97	H	0.077059	1.163530	-0.735836
H98	H	-0.024343	0.643074	0.000120
O99	O	-0.093062	1.299800	-0.604306
H100	H	-0.124211	1.339646	-0.552477
H101	H	0.358286	0.722415	-0.559529
O102	O	-0.370025	1.347486	0.000131
H103	H	-0.444706	1.356755	0.000135
O104	O	0.325212	0.764734	-0.755151
H105	H	0.382832	0.691044	-0.703341
H106	H	0.286878	0.503349	0.000093
