data_functionalizedCrystal
_audit_creation_method	'MofGen! by Chris Wilmer'
_symmetry_space_group_name_H-M	'P1'
_symmetry_Int_Tables_number	1
_symmetry_cell_setting	triclinic
loop_
_symmetry_equiv_pos_as_xyz
  x,y,z
_cell_length_a	27.440280
_cell_length_b	14.628931
_cell_length_c	14.628931
_cell_angle_alpha	59.999807
_cell_angle_beta	59.998426
_cell_angle_gamma	90.003821
loop_
_atom_site_label
_atom_site_type_symbol
_atom_site_fract_x
_atom_site_fract_y
_atom_site_fract_z
Zr1	Zr	0.469502	-0.119852	1.000476
O2	O	0.391683	-0.265832	1.191199
O3	O	0.493358	-0.075101	0.809765
O4	O	0.493358	-0.265807	1.000471
O5	O	0.391683	0.075307	1.000492
O6	O	0.573560	-0.265789	1.000453
O7	O	0.391683	-0.075125	1.000493
O8	O	0.573560	0.075350	0.659315
O9	O	0.391683	-0.265832	1.341631
O10	O	0.563386	-0.056002	0.888189
O11	O	0.503532	0.056250	0.888202
O12	O	0.503532	-0.168282	1.112734
O13	O	0.443678	-0.056030	1.112747
Zr14	Zr	0.597416	0.120100	1.000447
Zr15	Zr	0.597416	-0.119822	1.000448
Zr16	Zr	0.469502	0.120070	1.000475
Zr17	Zr	0.469502	-0.119852	1.240397
Zr18	Zr	0.597416	0.120100	0.760525
O19	O	0.573561	0.075349	1.191158
O20	O	0.573561	-0.265789	1.191159
O21	O	0.391683	0.075306	1.191198
O22	O	0.675235	0.266079	0.809724
O23	O	0.675235	-0.075059	0.809725
O24	O	0.493358	0.266037	0.809764
O25	O	0.675235	-0.075059	1.000430
O26	O	0.573561	0.266055	1.000452
O27	O	0.493358	0.266036	1.000469
O28	O	0.675235	0.075373	1.000430
O29	O	0.493358	-0.265808	1.341608
O30	O	0.573561	0.266056	0.659314
O31	O	0.675235	0.266080	0.659292
O32	O	0.675235	0.075374	0.659292
O33	O	0.391683	-0.075126	1.341630
O34	O	0.493358	-0.075102	1.341608
O35	O	0.563387	0.168530	0.888189
O36	O	0.623241	0.056278	0.888176
O37	O	0.563387	-0.056002	1.112720
O38	O	0.503532	0.056250	1.112733
C39	C	0.373458	0.000086	1.000496
C40	C	0.319155	0.000074	1.000508
C41	C	0.533459	0.000124	0.700356
C42	C	0.533459	0.000124	0.598503
C43	C	0.533460	0.300230	1.000460
C44	C	0.533460	0.402083	1.000460
C45	C	0.013701	0.058764	0.883230
C46	C	-0.037318	0.058774	0.883223
O47	O	-0.037134	0.108653	0.783540
N48	N	-0.094078	0.000164	1.000431
C49	C	-0.099819	-0.058451	1.117655
O50	O	-0.152782	-0.108302	1.217350
C51	C	-0.048801	-0.058454	1.117661
C52	C	0.007959	0.000151	1.000444
C53	C	0.070458	0.117365	0.766023
C54	C	0.121473	0.117353	0.766031
C55	C	0.115730	0.058740	0.883245
C56	C	0.058974	0.000139	1.000452
C57	C	-0.054542	-0.117061	1.234883
C58	C	-0.003518	-0.117058	1.234879
C59	C	0.053241	-0.058453	1.117662
C60	C	0.104246	-0.058486	1.117674
N61	N	0.161006	0.000125	1.000465
C62	C	0.166748	0.058737	0.883251
C63	C	-0.206957	-0.058439	1.117634
C64	C	-0.257975	-0.058444	1.117629
C65	C	-0.195470	0.058783	0.883197
C66	C	-0.144452	0.058780	0.883202
C67	C	-0.150197	0.000171	1.000425
C68	C	0.273881	0.058707	0.883276
C69	C	0.324897	0.058686	0.883294
C70	C	0.262388	-0.058535	1.117726
C71	C	0.211376	-0.058520	1.117709
C72	C	0.217126	0.000110	1.000473
O73	O	0.104109	-0.108335	1.217306
O74	O	0.219714	0.108592	0.783573
C75	C	0.693460	0.000161	1.000426
C76	C	0.747763	0.000174	1.000414
C77	C	0.533459	-0.299982	1.000462
C78	C	0.533459	-0.401835	1.000462
C79	C	0.503768	0.391793	1.111849
C80	C	0.503767	0.497063	1.111852
C81	C	0.563151	-0.055560	0.553087
C82	C	0.563151	-0.055561	0.447817
C83	C	0.533460	0.000123	1.300566
C84	C	0.533460	0.000123	1.402419
C85	C	0.693460	0.000162	0.700321
C86	C	0.747763	0.000175	0.598456
C87	C	0.533459	0.300230	0.700355
C88	C	0.533459	0.402083	0.598502
C89	C	0.693460	0.300268	0.700320
C90	C	0.747763	0.402134	0.598455
C91	C	0.373458	-0.300020	1.300602
C92	C	0.319155	-0.401886	1.402468
C93	C	0.373458	0.000086	1.300602
C94	C	0.319156	0.000073	1.402467
C95	C	0.533459	-0.299982	1.300567
C96	C	0.533459	-0.401835	1.402421
C97	C	0.742021	-0.058438	0.550626
C98	C	0.793039	-0.058448	0.454926
C99	C	0.849799	0.000161	0.407052
C100	C	0.855540	0.058776	0.454891
C101	C	0.804523	0.058779	0.550596
C102	C	0.804513	0.391377	0.550611
C103	C	0.855542	0.487082	0.454911
C104	C	0.849819	0.593542	0.407050
C105	C	0.793063	0.604297	0.454903
C106	C	0.742036	0.508593	0.550608
C107	C	0.262405	-0.391129	1.450323
C108	C	0.211377	-0.486834	1.546053
C109	C	0.217100	-0.593294	1.593919
C110	C	0.273856	-0.604049	1.546059
C111	C	0.324883	-0.508345	1.450338
C112	C	0.324898	0.058676	1.450306
C113	C	0.273879	0.058660	1.546032
C114	C	0.217119	0.000047	1.593910
C115	C	0.211378	-0.058564	1.546067
C116	C	0.262396	-0.058553	1.450349
C117	C	0.563151	0.503191	0.553086
C118	C	0.563152	0.608463	0.447815
H119	H	0.371113	0.106413	0.787838
H120	H	-0.304187	-0.106180	1.213079
Br121	Br	0.605515	0.517584	0.618178
H122	H	0.278566	0.106391	1.584971
H123	H	-0.190802	0.106505	0.787754
Br124	Br	0.147886	0.000044	1.723815
Br125	Br	0.198498	0.196900	0.606942
H126	H	0.558876	0.488825	0.905097
Br127	Br	0.491093	0.453607	0.467491
H128	H	0.901761	0.106494	0.415898
Br129	Br	0.812327	0.138340	0.615489
H130	H	0.165157	-0.106285	1.585064
H131	H	0.695808	-0.106179	0.589605
Br132	Br	0.605529	0.753028	0.382714
H133	H	0.257723	-0.106260	1.213159
H134	H	0.257712	-0.106272	1.411400
Br135	Br	0.461402	0.482659	1.270809
Br136	Br	0.919033	0.000146	0.277165
H137	H	0.558882	0.606808	0.905093
Br138	Br	0.665020	0.523212	0.615522
H139	H	0.508037	0.393457	0.559454
Br140	Br	0.785234	-0.138000	0.390019
H141	H	0.278572	0.106450	0.787812
H142	H	0.809184	0.304700	0.589565
H143	H	-0.211643	-0.106172	1.213097
Br144	Br	-0.067425	0.138318	0.724118
Br145	Br	0.078266	0.196927	0.606924
Br146	Br	-0.131563	-0.196592	1.393973
Br147	Br	0.785306	0.748788	0.389936
Br148	Br	0.932559	0.472459	0.389985
Br149	Br	-0.011321	-0.196599	1.393976
Br150	Br	0.491094	0.079598	0.533411
H151	H	0.891373	0.671461	0.329121
Br152	Br	0.605525	-0.135016	0.618161
H153	H	0.278509	-0.690741	1.585044
H154	H	0.165159	-0.106255	1.213156
H155	H	0.257734	-0.304452	1.411356
H156	H	0.588569	-0.103240	0.408767
Br157	Br	0.461389	0.247221	1.270804
Br158	Br	0.134359	-0.472212	1.610982
Br159	Br	0.401899	-0.522964	1.385397
Br160	Br	0.147842	-0.723169	1.723828
H161	H	0.508035	0.047794	0.441475
H162	H	0.371110	0.106413	1.411331
