data_functionalizedCrystal
_audit_creation_method	'MofGen! by Chris Wilmer'
_symmetry_space_group_name_H-M	'P1'
_symmetry_Int_Tables_number	1
_symmetry_cell_setting	triclinic
loop_
_symmetry_equiv_pos_as_xyz
  x,y,z
_cell_length_a	18.215407
_cell_length_b	19.120786
_cell_length_c	18.215399
_cell_angle_alpha	87.529807
_cell_angle_beta	89.980167
_cell_angle_gamma	92.465561
loop_
_atom_site_label
_atom_site_type_symbol
_atom_site_fract_x
_atom_site_fract_y
_atom_site_fract_z
Zn1	Zn	1.112570	-0.279629	-0.403604
Zn2	Zn	1.612570	0.220371	0.096396
Zn3	Zn	1.107227	-0.397091	-0.275281
Zn4	Zn	1.607227	0.102909	0.224719
Zn5	Zn	0.989501	-0.279652	-0.280550
Zn6	Zn	1.489501	0.220348	0.219450
Zn7	Zn	0.984218	-0.397052	-0.398308
Zn8	Zn	1.484218	0.102948	0.101692
O9	O	1.048379	-0.338356	-0.339436
O10	O	1.548379	0.161644	0.160564
O11	O	1.214845	-0.295217	-0.386593
O12	O	1.714845	0.204783	0.113407
O13	O	1.091585	-0.381538	-0.172995
O14	O	1.591585	0.118462	0.327005
O15	O	1.010274	-0.181359	-0.301294
O16	O	1.510274	0.318641	0.198706
O17	O	1.210919	-0.381516	-0.292315
O18	O	1.710919	0.118484	0.207685
O19	O	1.100692	-0.181342	-0.391701
O20	O	1.600692	0.318658	0.108299
O21	O	1.005093	-0.295257	-0.176865
O22	O	1.505093	0.204743	0.323135
O23	O	0.885817	-0.295219	-0.296159
O24	O	1.385817	0.204781	0.203841
O25	O	1.001270	-0.381450	-0.501996
O26	O	1.501270	0.118550	-0.001996
O27	O	0.881935	-0.381472	-0.382676
O28	O	1.381935	0.118528	0.117324
O29	O	1.095569	-0.295180	-0.505887
O30	O	1.595569	0.204820	-0.005887
O31	O	1.086462	-0.495376	-0.287180
O32	O	1.586462	0.004624	0.212820
O33	O	0.996089	-0.495347	-0.377567
O34	O	1.496089	0.004653	0.122433
C35	C	0.857173	-0.338344	-0.339415
C36	C	1.357173	0.161656	0.160585
C37	C	0.775374	-0.338356	-0.339423
C38	C	1.275374	0.161644	0.160577
C39	C	1.040142	-0.520847	-0.331243
C40	C	1.540142	-0.020847	0.168757
C41	C	1.036686	-0.598918	-0.327763
C42	C	1.536686	-0.098918	0.172237
C43	C	0.585175	-0.383338	-0.384410
C44	C	1.085175	0.116662	0.115590
C45	C	0.508316	-0.383341	-0.384419
C46	C	1.008316	0.116659	0.115581
C47	C	0.512335	-0.293386	-0.294477
C48	C	1.012335	0.206614	0.205523
C49	C	0.589192	-0.293381	-0.294472
C50	C	1.089192	0.206619	0.205528
C51	C	0.625610	-0.338361	-0.339437
C52	C	1.125610	0.161639	0.160563
C53	C	0.471894	-0.338369	-0.339451
C54	C	0.971894	0.161631	0.160549
C55	C	0.388560	-0.338371	-0.339461
C56	C	0.888560	0.161629	0.160539
C57	C	0.708949	-0.338358	-0.339429
C58	C	1.208949	0.161642	0.160571
C59	C	1.082103	-0.635526	-0.373236
C60	C	1.582103	-0.135526	0.126764
C61	C	1.078852	-0.708882	-0.369968
C62	C	1.578852	-0.208882	0.130032
C63	C	1.030188	-0.745628	-0.321221
C64	C	1.530188	-0.245628	0.178779
C65	C	0.984766	-0.709014	-0.275746
C66	C	1.484766	-0.209014	0.224254
C67	C	0.988014	-0.635660	-0.279019
C68	C	1.488014	-0.135660	0.220981
C69	C	1.018026	-0.967114	-0.308986
C70	C	1.518026	-0.467114	0.191014
C71	C	1.014784	-1.040473	-0.305715
C72	C	1.514784	-0.540473	0.194285
C73	C	1.108869	-1.040336	-0.399937
C74	C	1.608869	-0.540336	0.100063
C75	C	1.112115	-0.966980	-0.403203
C76	C	1.612115	-0.466980	0.096797
C77	C	1.066691	-0.930373	-0.357731
C78	C	1.566691	-0.430373	0.142269
C79	C	1.026866	-0.820609	-0.317877
C80	C	1.526866	-0.320609	0.182123
C81	C	1.070010	-0.855393	-0.361079
C82	C	1.570010	-0.355393	0.138921
C83	C	1.240331	-0.338369	-0.339457
C84	C	1.740331	0.161631	0.160543
C85	C	1.322130	-0.338374	-0.339466
C86	C	1.822130	0.161626	0.160534
C87	C	1.048426	-0.338308	-0.531391
C88	C	1.548426	0.161692	-0.031391
C89	C	1.048446	-0.338287	-0.613191
C90	C	1.548446	0.161713	-0.113191
C91	C	1.056668	-0.155152	-0.347676
C92	C	1.556668	0.344848	0.152324
C93	C	1.060200	-0.077081	-0.351188
C94	C	1.560200	0.422919	0.148812
C95	C	1.097567	-0.293324	-0.803414
C96	C	1.597567	0.206676	-0.303414
C97	C	1.097576	-0.293304	-0.880273
C98	C	1.597576	0.206696	-0.380273
C99	C	0.999383	-0.383141	-0.876211
C100	C	1.499383	0.116859	-0.376211
C101	C	0.999370	-0.383158	-0.799352
C102	C	1.499370	0.116842	-0.299352
C103	C	1.048466	-0.338250	-0.762956
C104	C	1.548466	0.161750	-0.262956
C105	C	1.048488	-0.338213	-0.916674
C106	C	1.548488	0.161787	-0.416674
C107	C	1.048499	-0.338191	-1.000008
C108	C	1.548499	0.161809	-0.500008
C109	C	1.048455	-0.338271	-0.679616
C110	C	1.548455	0.161729	-0.179616
C111	C	1.048377	-0.338354	-0.148229
C112	C	1.548377	0.161646	0.351771
C113	C	1.048508	-0.338176	-0.066439
C114	C	1.548508	0.161824	0.433561
H115	H	0.475397	-0.419965	-0.421041
H116	H	0.975397	0.080035	0.078959
C117	C	0.396301	-0.253452	-0.254548
C118	C	0.896301	0.246548	0.245452
C119	C	0.472301	-0.243949	-0.245050
C120	C	0.972301	0.256051	0.254950
H121	H	0.371588	-0.222933	-0.224029
H122	H	0.871588	0.277067	0.275971
H123	H	0.384191	-0.243233	-0.304466
H124	H	0.884191	0.256767	0.195534
H125	H	0.381580	-0.300635	-0.241577
H126	H	0.881580	0.199365	0.258423
H127	H	0.487022	-0.196767	-0.258026
H128	H	0.987022	0.303233	0.241974
H129	H	0.484416	-0.254163	-0.195121
H130	H	0.984416	0.245837	0.304879
C131	C	0.899919	-0.392933	-0.712463
C132	C	1.399919	0.107067	-0.212463
C133	C	0.945394	-0.432545	-0.754876
C134	C	1.445394	0.067455	-0.254876
H135	H	0.866595	-0.423421	-0.685009
H136	H	1.366595	0.076579	-0.185009
H137	H	0.929154	-0.366195	-0.679790
H138	H	1.429154	0.133805	-0.179790
H139	H	0.873160	-0.362326	-0.743827
H140	H	1.373160	0.137674	-0.243827
H141	H	0.972157	-0.463148	-0.723511
H142	H	1.472157	0.036852	-0.223511
H143	H	0.916156	-0.459294	-0.787552
H144	H	1.416156	0.040706	-0.287552
H145	H	0.622116	-0.256751	-0.257851
H146	H	1.122116	0.243249	0.242149
C147	C	1.194620	-0.204516	-0.815153
C148	C	1.694620	0.295484	-0.315153
C149	C	1.151525	-0.243956	-0.763406
C150	C	1.651525	0.256044	-0.263406
H151	H	1.227928	-0.174033	-0.790454
H152	H	1.727928	0.325967	-0.290454
H153	H	1.221393	-0.235112	-0.843755
H154	H	1.721393	0.264888	-0.343755
H155	H	1.163765	-0.177646	-0.846335
H156	H	1.663765	0.322354	-0.346335
H157	H	1.182380	-0.270830	-0.732227
H158	H	1.682380	0.229170	-0.232227
H159	H	1.124751	-0.213356	-0.734791
H160	H	1.624751	0.286644	-0.234791
H161	H	1.121734	-0.605613	-0.412927
H162	H	1.621734	-0.105613	0.087073
H163	H	1.151742	-0.937063	-0.442896
H164	H	1.651742	-0.437063	0.057104
C165	C	1.172203	-0.701378	-0.463403
C166	C	1.672203	-0.201378	0.036597
C167	C	1.128792	-0.749122	-0.419937
C168	C	1.628792	-0.249122	0.080063
H169	H	1.203041	-0.726222	-0.494246
H170	H	1.703041	-0.226222	0.005754
H171	H	1.141396	-0.672785	-0.492811
H172	H	1.641396	-0.172785	0.007189
H173	H	1.201623	-0.672757	-0.432625
H174	H	1.701623	-0.172757	0.067375
H175	H	1.099368	-0.777741	-0.450714
H176	H	1.599368	-0.277741	0.049286
H177	H	1.159603	-0.777728	-0.390526
H178	H	1.659603	-0.277728	0.109474
C179	C	0.882128	-0.791602	-0.261744
C180	C	1.382128	-0.291602	0.238256
C181	C	0.931275	-0.749406	-0.222163
C182	C	1.431275	-0.249406	0.277837
H183	H	0.849109	-0.816540	-0.228659
H184	H	1.349109	-0.316540	0.271341
H185	H	0.855225	-0.762992	-0.295050
H186	H	1.355225	-0.262992	0.204950
H187	H	0.908721	-0.823901	-0.288355
H188	H	1.408721	-0.323901	0.211645
H189	H	0.904682	-0.717103	-0.195555
H190	H	1.404682	-0.217103	0.304445
H191	H	0.958180	-0.778019	-0.188843
H192	H	1.458180	-0.278019	0.311157
H193	H	0.975152	-1.070389	-0.266019
H194	H	1.475152	-0.570389	0.233981
H195	H	1.145850	-1.070149	-0.436959
H196	H	1.645850	-0.570149	0.063041
H197	H	0.981041	-0.937314	-0.271959
H198	H	1.481041	-0.437314	0.228041
C199	C	1.112084	-0.198796	-0.970948
C200	C	1.612084	0.301204	-0.470948
C201	C	1.151548	-0.243916	-0.924741
C202	C	1.651548	0.256084	-0.424741
H203	H	1.145406	-0.168301	-0.998396
H204	H	1.645406	0.331699	-0.498396
H205	H	1.082859	-0.225537	-1.003626
H206	H	1.582859	0.274463	-0.503626
H207	H	1.081231	-0.171942	-0.942156
H208	H	1.581231	0.328058	-0.442156
H209	H	1.182398	-0.270775	-0.953534
H210	H	1.682398	0.229225	-0.453534
H211	H	1.180786	-0.217172	-0.892060
H212	H	1.680786	0.282828	-0.392060
C213	C	0.894691	-0.643159	-0.185554
C214	C	1.394691	-0.143159	0.314446
C215	C	0.938090	-0.595417	-0.229033
C216	C	1.438090	-0.095417	0.270967
H217	H	0.863870	-0.618313	-0.154695
H218	H	1.363870	-0.118313	0.345305
H219	H	0.865260	-0.671774	-0.216316
H220	H	1.365260	-0.171774	0.283684
H221	H	0.925512	-0.671759	-0.156156
H222	H	1.425512	-0.171759	0.343844
H223	H	0.907268	-0.566820	-0.258436
H224	H	1.407268	-0.066820	0.241564
H225	H	0.967523	-0.566789	-0.198268
H226	H	1.467523	-0.066789	0.301732
H227	H	1.109630	-0.825473	-0.400771
H228	H	1.609630	-0.325473	0.099229
H229	H	0.987245	-0.850535	-0.278186
H230	H	1.487245	-0.350535	0.221814
C231	C	0.955805	-0.423010	-0.992225
C232	C	1.455805	0.076990	-0.492225
C233	C	0.945424	-0.432507	-0.916220
C234	C	1.445424	0.067493	-0.416220
H235	H	0.922495	-0.453492	-1.016922
H236	H	1.422495	0.046508	-0.516922
H237	H	0.947168	-0.375820	-1.006940
H238	H	1.447168	0.124180	-0.506940
H239	H	1.004792	-0.433289	-1.004359
H240	H	1.504792	0.066711	-0.504359
H241	H	0.896438	-0.422223	-0.904086
H242	H	1.396438	0.077777	-0.404086
H243	H	0.954055	-0.479708	-0.901499
H244	H	1.454055	0.020292	-0.401499
H245	H	0.614824	-0.419962	-0.421025
H246	H	1.114824	0.080038	0.078975
