data_functionalizedCrystal
_audit_creation_method	'MofGen! by Chris Wilmer'
_symmetry_space_group_name_H-M	'P1'
_symmetry_Int_Tables_number	1
_symmetry_cell_setting	triclinic
loop_
_symmetry_equiv_pos_as_xyz
  x,y,z
_cell_length_a	18.050589
_cell_length_b	18.050590
_cell_length_c	13.897441
_cell_angle_alpha	90.004076
_cell_angle_beta	90.026902
_cell_angle_gamma	90.017386
loop_
_atom_site_label
_atom_site_type_symbol
_atom_site_fract_x
_atom_site_fract_y
_atom_site_fract_z
Zn1	Zn	-0.295858	1.135328	0.545026
Zn2	Zn	-0.420060	1.135228	0.383735
Zn3	Zn	-0.295865	1.011137	0.383785
Zn4	Zn	-0.419987	1.011095	0.545028
O5	O	-0.357942	1.073197	0.464393
O6	O	-0.312361	1.239239	0.523608
O7	O	-0.403619	1.118743	0.248760
O8	O	-0.191939	1.027670	0.405194
O9	O	-0.403612	1.239166	0.405108
O10	O	-0.191934	1.118913	0.523657
O11	O	-0.312373	1.027573	0.248796
O12	O	-0.312302	0.907207	0.405196
O13	O	-0.403487	1.027599	0.680009
O14	O	-0.403494	0.907176	0.523661
O15	O	-0.312290	1.118873	0.680008
O16	O	-0.523975	1.118702	0.405111
O17	O	-0.523921	1.027502	0.523612
C18	C	-0.357892	0.880245	0.464435
C19	C	-0.357888	0.797699	0.464475
C20	C	-0.407620	0.598253	0.528744
C21	C	-0.339902	0.548862	0.552473
C22	C	-0.357929	0.646569	0.464428
C23	C	-0.425686	0.548879	0.440698
C24	C	-0.357975	0.500584	0.464385
C25	C	-0.290175	0.598264	0.488204
C26	C	-0.376005	0.598285	0.376387
C27	C	-0.308240	0.548916	0.400084
C28	C	-0.357904	0.730667	0.464456
C29	C	-0.357993	0.416487	0.464357
C30	C	-0.550894	1.073107	0.464377
C31	C	-0.633440	1.073137	0.464403
C32	C	-0.832889	1.023591	0.528821
C33	C	-0.882330	1.005487	0.440809
C34	C	-0.784571	1.073210	0.464415
C35	C	-0.882211	1.091350	0.552438
C36	C	-0.930556	1.073279	0.464435
C37	C	-0.832924	1.055071	0.376356
C38	C	-0.832802	1.140965	0.488045
C39	C	-0.882220	1.122887	0.399971
C40	C	-0.700472	1.073168	0.464405
C41	C	-1.014652	1.073321	0.464435
C42	C	-0.164237	1.073307	0.464430
C43	C	-0.081691	1.073354	0.464446
C44	C	-0.357880	1.073242	0.715986
C45	C	-0.357853	1.073262	0.823200
C46	C	-0.357994	1.266902	0.464352
C47	C	-0.358016	1.349448	0.464335
C48	C	-0.357951	1.073194	0.213779
C49	C	-0.357768	1.073319	0.106565
C50	C	-0.357832	1.073277	0.910270
C51	C	-0.357799	1.073298	1.019503
H52	H	-0.482967	0.527182	0.420647
H53	H	-0.904101	0.948222	0.420841
N54	N	-0.805872	1.035765	0.282963
N55	N	-0.737682	1.032588	0.267894
H56	H	-0.718574	1.018946	0.201939
H57	H	-0.903861	1.106665	0.626870
H58	H	-0.903744	1.164877	0.345451
H59	H	-0.266189	0.527390	0.345676
N60	N	-0.805720	0.970871	0.597049
N61	N	-0.821625	0.903818	0.588129
H62	H	-0.802437	0.866583	0.636311
N63	N	-0.805485	1.212781	0.513166
N64	N	-0.764931	1.220600	0.585389
H65	H	-0.745637	1.271321	0.603144
N66	N	-0.460226	0.625437	0.597068
N67	N	-0.439276	0.665906	0.664814
H68	H	-0.476422	0.685106	0.713075
N69	N	-0.320756	0.521622	0.645854
N70	N	-0.365012	0.481113	0.690758
H71	H	-0.351496	0.461878	0.756711
N72	N	-0.218298	0.625369	0.513464
N73	N	-0.206684	0.693567	0.517590
H74	H	-0.155922	0.712713	0.535431
N75	N	-0.395196	0.625535	0.283034
N76	N	-0.456657	0.609743	0.246975
H77	H	-0.470219	0.628988	0.181043
