data_functionalizedCrystal
_audit_creation_method	'MofGen! by Chris Wilmer'
_symmetry_space_group_name_H-M	'P1'
_symmetry_Int_Tables_number	1
_symmetry_cell_setting	triclinic
loop_
_symmetry_equiv_pos_as_xyz
  x,y,z
_cell_length_a	19.077105
_cell_length_b	16.625545
_cell_length_c	19.076919
_cell_angle_alpha	87.727920
_cell_angle_beta	89.923776
_cell_angle_gamma	87.721938
loop_
_atom_site_label
_atom_site_type_symbol
_atom_site_fract_x
_atom_site_fract_y
_atom_site_fract_z
Zn1	Zn	1.058264	-0.390077	0.440420
Zn2	Zn	1.391597	-0.056743	0.773753
Zn3	Zn	1.724930	0.276590	1.107086
Zn4	Zn	1.062901	-0.519720	0.322913
Zn5	Zn	1.396235	-0.186386	0.656247
Zn6	Zn	1.729568	0.146947	0.989580
Zn7	Zn	0.945482	-0.379275	0.318213
Zn8	Zn	1.278815	-0.045942	0.651546
Zn9	Zn	1.612148	0.287392	0.984880
Zn10	Zn	0.940723	-0.519233	0.435666
Zn11	Zn	1.274056	-0.185900	0.768999
Zn12	Zn	1.607390	0.147433	1.102333
O13	O	1.001842	-0.452076	0.379303
O14	O	1.335176	-0.118743	0.712636
O15	O	1.668509	0.214591	1.045970
O16	O	1.157211	-0.411998	0.428789
O17	O	1.490544	-0.078665	0.762122
O18	O	1.823877	0.254669	1.095455
O19	O	1.051258	-0.496772	0.223959
O20	O	1.384591	-0.163439	0.557292
O21	O	1.717924	0.169894	0.890625
O22	O	0.960493	-0.267879	0.334446
O23	O	1.293826	0.065454	0.667779
O24	O	1.627160	0.398788	1.001113
O25	O	1.160618	-0.507246	0.342457
O26	O	1.493951	-0.173913	0.675791
O27	O	1.827285	0.159421	1.009124
O28	O	1.043354	-0.275815	0.424231
O29	O	1.376687	0.057519	0.757564
O30	O	1.710020	0.390852	1.090898
O31	O	0.964990	-0.393588	0.220505
O32	O	1.298323	-0.060255	0.553838
O33	O	1.631657	0.273078	0.887172
O34	O	0.846519	-0.393117	0.329837
O35	O	1.179852	-0.059784	0.663170
O36	O	1.513185	0.273550	0.996503
O37	O	0.952383	-0.506417	0.534628
O38	O	1.285716	-0.173084	0.867961
O39	O	1.619049	0.160249	1.201295
O40	O	0.843023	-0.495944	0.416129
O41	O	1.176356	-0.162610	0.749462
O42	O	1.509689	0.170723	1.082796
O43	O	1.038739	-0.411526	0.538120
O44	O	1.372073	-0.078193	0.871454
O45	O	1.705406	0.255140	1.204787
O46	O	1.046644	-0.632484	0.337848
O47	O	1.379977	-0.299151	0.671181
O48	O	1.713310	0.034183	1.004515
O49	O	0.956880	-0.632127	0.420687
O50	O	1.290213	-0.298794	0.754020
O51	O	1.623546	0.034540	1.087354
C52	C	0.819274	-0.443306	0.371957
C53	C	1.152608	-0.109973	0.705291
C54	C	1.485941	0.223361	1.038624
C55	C	0.741170	-0.439574	0.368832
C56	C	1.074504	-0.106241	0.702165
C57	C	1.407837	0.227092	1.035498
C58	C	1.001767	-0.661562	0.379278
C59	C	1.335100	-0.328229	0.712611
C60	C	1.668434	0.005104	1.045944
C61	C	1.001798	-0.751186	0.379293
C62	C	1.335131	-0.417852	0.712626
C63	C	1.668465	-0.084519	1.045960
C64	C	0.702678	-0.491432	0.412220
C65	C	1.036011	-0.158099	0.745554
C66	C	1.369344	0.175235	1.078887
C67	C	0.629291	-0.487915	0.409287
C68	C	0.962624	-0.154582	0.742620
C69	C	1.295957	0.178751	1.075953
C70	C	0.594397	-0.432544	0.362960
C71	C	0.927731	-0.099211	0.696294
C72	C	1.261064	0.234123	1.029627
C73	C	0.632895	-0.380681	0.319570
C74	C	0.966228	-0.047347	0.652903
C75	C	1.299562	0.285986	0.986237
C76	C	0.706281	-0.384194	0.322508
C77	C	1.039614	-0.050861	0.655841
C78	C	1.372947	0.282472	0.989174
C79	C	0.375110	-0.416283	0.349368
C80	C	0.708444	-0.082950	0.682701
C81	C	1.041777	0.250383	1.016034
C82	C	0.301719	-0.412775	0.346432
C83	C	0.635053	-0.079442	0.679765
C84	C	0.968386	0.253891	1.013098
C85	C	0.298120	-0.520009	0.436150
C86	C	0.631453	-0.186676	0.769483
C87	C	0.964787	0.146657	1.102816
C88	C	0.371507	-0.523521	0.439080
C89	C	0.704841	-0.190188	0.772414
C90	C	1.038174	0.143145	1.105747
C91	C	0.409999	-0.471655	0.395693
C92	C	0.743332	-0.138322	0.729026
C93	C	1.076665	0.195012	1.062359
N94	N	0.519384	-0.428950	0.359959
N95	N	0.852717	-0.095616	0.693292
N96	N	1.186051	0.237717	1.026626
N97	N	0.485011	-0.475246	0.398698
N98	N	0.818344	-0.141913	0.732031
N99	N	1.151677	0.191420	1.065365
C100	C	1.001825	-0.823970	0.379308
C101	C	1.335158	-0.490637	0.712641
C102	C	1.668491	-0.157303	1.045975
C103	C	1.001865	-0.915281	0.379325
C104	C	1.335198	-0.581948	0.712659
C105	C	1.668532	-0.248614	1.045992
C106	C	1.001901	-0.988060	0.379336
C107	C	1.335235	-0.654726	0.712669
C108	C	1.668568	-0.321393	1.046002
C109	C	1.001941	-1.079376	0.379352
C110	C	1.335274	-0.746043	0.712685
C111	C	1.668607	-0.412710	1.046018
C112	C	1.185123	-0.460881	0.386678
C113	C	1.518457	-0.127548	0.720011
C114	C	1.851790	0.205786	1.053344
C115	C	1.263227	-0.464633	0.389820
C116	C	1.596560	-0.131300	0.723154
C117	C	1.929894	0.202033	1.056487
C118	C	0.994513	-0.460122	0.562583
C119	C	1.327846	-0.126789	0.895917
C120	C	1.661180	0.206544	1.229250
C121	C	0.991389	-0.463551	0.640686
C122	C	1.324723	-0.130218	0.974020
C123	C	1.658056	0.203115	1.307353
C124	C	1.001937	-0.241773	0.379344
C125	C	1.335270	0.091560	0.712678
C126	C	1.668603	0.424893	1.046011
C127	C	1.001977	-0.152155	0.379362
C128	C	1.335310	0.181178	0.712695
C129	C	1.668644	0.514512	1.046029
C130	C	1.009184	-0.444005	0.196737
C131	C	1.342517	-0.110672	0.530071
C132	C	1.675851	0.222662	0.863404
C133	C	1.012444	-0.440355	0.118640
C134	C	1.345777	-0.107022	0.451974
C135	C	1.679110	0.226311	0.785307
C136	C	1.034881	-0.415760	0.679199
C137	C	1.368214	-0.082426	1.012532
C138	C	1.701548	0.250907	1.345865
C139	C	1.031938	-0.418978	0.752584
C140	C	1.365271	-0.085645	1.085918
C141	C	1.698604	0.247689	1.419251
C142	C	0.985506	-0.469993	0.787457
C143	C	1.318839	-0.136659	1.120790
C144	C	1.652172	0.196674	1.454123
C145	C	0.942010	-0.517786	0.748939
C146	C	1.275343	-0.184453	1.082272
C147	C	1.608676	0.148881	1.415606
C148	C	0.944950	-0.514563	0.675554
C149	C	1.278283	-0.181230	1.008888
C150	C	1.611617	0.152104	1.342221
C151	C	0.971888	-0.484926	1.006738
C152	C	1.305221	-0.151592	1.340071
C153	C	1.638554	0.181741	1.673405
C154	C	0.968952	-0.488147	1.080128
C155	C	1.302285	-0.154814	1.413461
C156	C	1.635619	0.178520	1.746794
C157	C	1.058880	-0.389338	1.083768
C158	C	1.392213	-0.056004	1.417102
C159	C	1.725546	0.277329	1.750435
C160	C	1.061819	-0.386123	1.010382
C161	C	1.395152	-0.052789	1.343715
C162	C	1.728485	0.280544	1.677049
C163	C	1.018320	-0.433913	0.971871
C164	C	1.351653	-0.100579	1.305204
C165	C	1.684987	0.232754	1.638537
N166	N	0.982498	-0.473285	0.862469
N167	N	1.315831	-0.139952	1.195802
N168	N	1.649164	0.193381	1.529136
N169	N	1.021325	-0.430615	0.896860
N170	N	1.354658	-0.097282	1.230193
N171	N	1.687992	0.236051	1.563526
H172	H	0.731083	-0.536524	0.449942
H173	H	1.064416	-0.203191	0.783275
H174	H	1.397749	0.130143	1.116608
Br175	Br	0.585540	-0.305526	0.256704
Br176	Br	0.918874	0.027808	0.590038
Br177	Br	1.252207	0.361141	0.923371
Br178	Br	1.117909	-0.324482	1.136037
Br179	Br	1.451242	0.008852	1.469370
Br180	Br	1.784576	0.342185	1.802704
Br181	Br	0.577053	-0.558295	0.468176
Br182	Br	0.910386	-0.224962	0.801509
Br183	Br	1.243720	0.108371	1.134842
H184	H	0.399912	-0.568612	0.476802
H185	H	0.733246	-0.235279	0.810136
H186	H	1.066579	0.098054	1.143469
Br187	Br	0.905931	-0.557383	1.127454
Br188	Br	1.239264	-0.224049	1.460788
Br189	Br	1.572597	0.109284	1.794121
H190	H	0.737620	-0.341962	0.287180
H191	H	1.070954	-0.008629	0.620513
H192	H	1.404287	0.324705	0.953846
H193	H	0.936478	-0.523852	0.975391
H194	H	1.269811	-0.190519	1.308724
H195	H	1.603145	0.142814	1.642058
Br196	Br	1.097904	-0.346529	0.631880
Br197	Br	1.431238	-0.013195	0.965213
Br198	Br	1.764571	0.320138	1.298546
H199	H	0.266773	-0.562235	0.471474
H200	H	0.600106	-0.228901	0.804808
H201	H	0.933439	0.104432	1.138141
Br202	Br	0.254365	-0.337632	0.283548
Br203	Br	0.587698	-0.004299	0.616882
Br204	Br	0.921031	0.329035	0.950215
H205	H	0.406441	-0.374056	0.314033
H206	H	0.739775	-0.040723	0.647366
H207	H	1.073108	0.292611	0.980699
H208	H	0.904201	-0.559320	0.777338
H209	H	1.237535	-0.225987	1.110671
H210	H	1.570868	0.107347	1.444004
Br211	Br	1.124838	-0.316889	0.963061
Br212	Br	1.458171	0.016445	1.296394
Br213	Br	1.791505	0.349778	1.629727
Br214	Br	1.090997	-0.354154	0.804850
Br215	Br	1.424331	-0.020821	1.138184
Br216	Br	1.757664	0.312512	1.471517
H217	H	0.909527	-0.553471	0.644198
H218	H	1.242861	-0.220138	0.977531
H219	H	1.576194	0.113195	1.310865
