data_functionalizedCrystal
_audit_creation_method	'MofGen! by Chris Wilmer'
_symmetry_space_group_name_H-M	'P1'
_symmetry_Int_Tables_number	1
_symmetry_cell_setting	triclinic
loop_
_symmetry_equiv_pos_as_xyz
  x,y,z
_cell_length_a	27.732048
_cell_length_b	27.732048
_cell_length_c	14.421503
_cell_angle_alpha	89.997938
_cell_angle_beta	89.987968
_cell_angle_gamma	97.357346
loop_
_atom_site_label
_atom_site_type_symbol
_atom_site_fract_x
_atom_site_fract_y
_atom_site_fract_z
O1	O	-0.057510	0.640930	-0.076978
O2	O	0.192490	0.890930	0.173022
O3	O	0.442490	1.140930	0.423022
O4	O	0.692490	1.390930	0.673022
O5	O	-0.066256	0.500137	-0.077003
O6	O	0.183744	0.750137	0.172997
O7	O	0.433744	1.000137	0.422997
O8	O	0.683744	1.250137	0.672997
O9	O	0.008514	0.574906	-0.077002
O10	O	0.258514	0.824906	0.172998
O11	O	0.508514	1.074906	0.422998
O12	O	0.758514	1.324906	0.672998
O13	O	-0.132280	0.566161	-0.076979
O14	O	0.117720	0.816161	0.173021
O15	O	0.367720	1.066161	0.423021
O16	O	0.617720	1.316161	0.673021
O17	O	0.008503	0.574894	0.077222
O18	O	0.258503	0.824894	0.327222
O19	O	0.508503	1.074894	0.577222
O20	O	0.758503	1.324894	0.827222
O21	O	-0.066267	0.500124	0.077220
O22	O	0.183733	0.750124	0.327220
O23	O	0.433733	1.000124	0.577220
O24	O	0.683733	1.250124	0.827220
O25	O	-0.057521	0.640918	0.077246
O26	O	0.192479	0.890918	0.327246
O27	O	0.442479	1.140918	0.577246
O28	O	0.692479	1.390918	0.827246
Cu29	Cu	-0.061895	0.570520	0.091315
Cu30	Cu	0.188105	0.820520	0.341315
Cu31	Cu	0.438105	1.070520	0.591315
Cu32	Cu	0.688105	1.320520	0.841315
Cu33	Cu	-0.061882	0.570535	-0.091072
Cu34	Cu	0.188118	0.820535	0.158928
Cu35	Cu	0.438118	1.070535	0.408928
Cu36	Cu	0.688118	1.320535	0.658928
O37	O	-0.132291	0.566148	0.077245
O38	O	0.117709	0.816148	0.327245
O39	O	0.367709	1.066148	0.577245
O40	O	0.617709	1.316148	0.827245
C41	C	-0.066078	0.482124	0.000105
C42	C	0.183922	0.732124	0.250105
C43	C	0.433922	0.982124	0.500105
C44	C	0.683922	1.232124	0.750105
C45	C	-0.065525	0.428469	0.000094
C46	C	0.184475	0.678469	0.250094
C47	C	0.434475	0.928469	0.500094
C48	C	0.684475	1.178469	0.750094
C49	C	-0.106229	0.089654	0.000141
C50	C	0.143771	0.339654	0.250141
C51	C	0.393771	0.589654	0.500141
C52	C	0.643771	0.839654	0.750141
C53	C	-0.104178	-0.112006	0.000149
C54	C	0.145822	0.137994	0.250149
C55	C	0.395822	0.387994	0.500149
C56	C	0.645822	0.637994	0.750149
O57	O	-0.141398	-0.143262	0.000195
O58	O	0.108602	0.106738	0.250195
O59	O	0.358602	0.356738	0.500195
O60	O	0.608602	0.606738	0.750195
N61	N	-0.059843	-0.131130	0.000140
N62	N	0.190157	0.118870	0.250140
N63	N	0.440157	0.368870	0.500140
N64	N	0.690157	0.618870	0.750140
C65	C	-0.016017	-0.099835	0.000135
C66	C	0.233983	0.150165	0.250135
C67	C	0.483983	0.400165	0.500135
C68	C	0.733983	0.650165	0.750135
O69	O	0.021740	-0.120728	0.000137
O70	O	0.271740	0.129272	0.250137
O71	O	0.521740	0.379272	0.500137
O72	O	0.771740	0.629272	0.750137
C73	C	-0.018068	0.101824	0.000134
C74	C	0.231932	0.351824	0.250134
C75	C	0.481932	0.601824	0.500134
C76	C	0.731932	0.851824	0.750134
C77	C	-0.062407	0.120944	0.000133
C78	C	0.187593	0.370944	0.250133
C79	C	0.437593	0.620944	0.500133
C80	C	0.687593	0.870944	0.750133
C81	C	-0.150563	0.108775	0.000141
C82	C	0.099437	0.358775	0.250141
C83	C	0.349437	0.608775	0.500141
C84	C	0.599437	0.858775	0.750141
C85	C	-0.151076	0.159187	0.000134
C86	C	0.098924	0.409187	0.250134
C87	C	0.348924	0.659187	0.500134
C88	C	0.598924	0.909187	0.750134
C89	C	-0.107253	0.190477	0.000127
C90	C	0.142747	0.440477	0.250127
C91	C	0.392747	0.690477	0.500127
C92	C	0.642747	0.940477	0.750127
C93	C	-0.062919	0.171356	0.000126
C94	C	0.187081	0.421356	0.250126
C95	C	0.437081	0.671356	0.500126
C96	C	0.687081	0.921356	0.750126
C97	C	0.025757	0.133117	0.000136
C98	C	0.275757	0.383117	0.250136
C99	C	0.525757	0.633117	0.500136
C100	C	0.775757	0.883117	0.750136
C101	C	0.025240	0.183535	0.000138
C102	C	0.275240	0.433535	0.250138
C103	C	0.525240	0.683535	0.500138
C104	C	0.775240	0.933535	0.750138
C105	C	-0.019098	0.202655	0.000137
C106	C	0.230902	0.452655	0.250137
C107	C	0.480902	0.702655	0.500137
C108	C	0.730902	0.952655	0.750137
C109	C	-0.019609	0.253059	0.000112
C110	C	0.230391	0.503059	0.250112
C111	C	0.480391	0.753059	0.500112
C112	C	0.730391	1.003059	0.750112
N113	N	-0.063944	0.272183	0.000121
N114	N	0.186056	0.522183	0.250121
N115	N	0.436056	0.772183	0.500121
N116	N	0.686056	1.022183	0.750121
C117	C	-0.107766	0.240892	0.000128
C118	C	0.142234	0.490892	0.250128
C119	C	0.392234	0.740892	0.500128
C120	C	0.642234	0.990892	0.750128
C121	C	-0.014943	-0.205709	0.000134
C122	C	0.235057	0.044291	0.250134
C123	C	0.485057	0.294291	0.500134
C124	C	0.735057	0.544291	0.750134
C125	C	-0.014430	-0.256124	0.000133
C126	C	0.235570	-0.006124	0.250133
C127	C	0.485570	0.243876	0.500133
C128	C	0.735570	0.493876	0.750133
C129	C	-0.102591	-0.268291	0.000148
C130	C	0.147409	-0.018291	0.250148
C131	C	0.397409	0.231709	0.500148
C132	C	0.647409	0.481709	0.750148
C133	C	-0.103104	-0.217876	0.000143
C134	C	0.146896	0.032124	0.250143
C135	C	0.396896	0.282124	0.500143
C136	C	0.646896	0.532124	0.750143
C137	C	-0.059278	-0.186585	0.000143
C138	C	0.190722	0.063415	0.250143
C139	C	0.440722	0.313415	0.500143
C140	C	0.690722	0.563415	0.750143
C141	C	-0.108839	0.346761	0.000113
C142	C	0.141161	0.596761	0.250113
C143	C	0.391161	0.846761	0.500113
C144	C	0.641161	1.096761	0.750113
C145	C	-0.109347	0.397178	0.000102
C146	C	0.140653	0.647178	0.250102
C147	C	0.390653	0.897178	0.500102
C148	C	0.640653	1.147178	0.750102
C149	C	-0.021186	0.409341	0.000091
C150	C	0.228814	0.659341	0.250091
C151	C	0.478814	0.909341	0.500091
C152	C	0.728814	1.159341	0.750091
C153	C	-0.020678	0.358929	0.000097
C154	C	0.229322	0.608929	0.250097
C155	C	0.479322	0.858929	0.500097
C156	C	0.729322	1.108929	0.750097
C157	C	-0.064508	0.327639	0.000111
C158	C	0.185492	0.577639	0.250111
C159	C	0.435492	0.827639	0.500111
C160	C	0.685492	1.077639	0.750111
O161	O	0.017592	0.284343	0.000076
O162	O	0.267592	0.534343	0.250076
O163	O	0.517592	0.784343	0.500076
O164	O	0.767592	1.034343	0.750076
O165	O	-0.145518	0.261794	0.000147
O166	O	0.104482	0.511794	0.250147
O167	O	0.354482	0.761794	0.500147
O168	O	0.604482	1.011794	0.750147
C169	C	-0.105716	0.039242	0.000148
C170	C	0.144284	0.289242	0.250148
C171	C	0.394284	0.539242	0.500148
C172	C	0.644284	0.789242	0.750148
C173	C	-0.061382	0.020120	0.000148
C174	C	0.188618	0.270120	0.250148
C175	C	0.438618	0.520120	0.500148
C176	C	0.688618	0.770120	0.750148
C177	C	-0.017560	0.051411	0.000140
C178	C	0.232440	0.301411	0.250140
C179	C	0.482440	0.551411	0.500140
C180	C	0.732440	0.801411	0.750140
C181	C	-0.060869	-0.030294	0.000146
C182	C	0.189131	0.219706	0.250146
C183	C	0.439131	0.469706	0.500146
C184	C	0.689131	0.719706	0.750146
C185	C	-0.104691	-0.061585	0.000154
C186	C	0.145309	0.188415	0.250154
C187	C	0.395309	0.438415	0.500154
C188	C	0.645309	0.688415	0.750154
C189	C	-0.149026	-0.042461	0.000163
C190	C	0.100974	0.207539	0.250163
C191	C	0.350974	0.457539	0.500163
C192	C	0.600974	0.707539	0.750163
C193	C	-0.149539	0.007951	0.000156
C194	C	0.100461	0.257951	0.250156
C195	C	0.350461	0.507951	0.500156
C196	C	0.600461	0.757951	0.750156
C197	C	0.026775	0.032287	0.000131
C198	C	0.276775	0.282287	0.250131
C199	C	0.526775	0.532287	0.500131
C200	C	0.776775	0.782287	0.750131
C201	C	0.027284	-0.018125	0.000137
C202	C	0.277284	0.231875	0.250137
C203	C	0.527284	0.481875	0.500137
C204	C	0.777284	0.731875	0.750137
C205	C	-0.016538	-0.049416	0.000145
C206	C	0.233462	0.200584	0.250145
C207	C	0.483462	0.450584	0.500145
C208	C	0.733462	0.700584	0.750145
C209	C	-0.150292	0.566338	0.000136
C210	C	0.099708	0.816338	0.250136
C211	C	0.349708	1.066338	0.500136
C212	C	0.599708	1.316338	0.750136
C213	C	-0.203947	0.566891	0.000145
C214	C	0.046053	0.816891	0.250145
C215	C	0.296053	1.066891	0.500145
C216	C	0.546053	1.316891	0.750145
C217	C	-0.542762	0.526187	0.000093
C218	C	-0.292762	0.776187	0.250093
C219	C	-0.042762	1.026187	0.500093
C220	C	0.207238	1.276187	0.750093
C221	C	-0.744422	0.528238	0.000082
C222	C	-0.494422	0.778238	0.250082
C223	C	-0.244422	1.028238	0.500082
C224	C	0.005578	1.278238	0.750082
O225	O	-0.775677	0.491017	0.000035
O226	O	-0.525677	0.741017	0.250035
O227	O	-0.275677	0.991017	0.500035
O228	O	-0.025677	1.241017	0.750035
N229	N	-0.763546	0.572573	0.000092
N230	N	-0.513546	0.822573	0.250092
N231	N	-0.263546	1.072573	0.500092
N232	N	-0.013546	1.322573	0.750092
C233	C	-0.732251	0.616399	0.000098
C234	C	-0.482251	0.866399	0.250098
C235	C	-0.232251	1.116399	0.500098
C236	C	0.017749	1.366399	0.750098
O237	O	-0.753144	0.654156	0.000096
O238	O	-0.503144	0.904156	0.250096
O239	O	-0.253144	1.154156	0.500096
O240	O	-0.003144	1.404156	0.750096
C241	C	-0.530592	0.614347	0.000102
C242	C	-0.280592	0.864347	0.250102
C243	C	-0.030592	1.114347	0.500102
C244	C	0.219408	1.364347	0.750102
C245	C	-0.511472	0.570009	0.000102
C246	C	-0.261472	0.820009	0.250102
C247	C	-0.011472	1.070009	0.500102
C248	C	0.238528	1.320009	0.750102
C249	C	-0.523641	0.481853	0.000092
C250	C	-0.273641	0.731853	0.250092
C251	C	-0.023641	0.981853	0.500092
C252	C	0.226359	1.231853	0.750092
C253	C	-0.473229	0.481340	0.000100
C254	C	-0.223229	0.731340	0.250100
C255	C	0.026771	0.981340	0.500100
C256	C	0.276771	1.231340	0.750100
C257	C	-0.441938	0.525162	0.000108
C258	C	-0.191938	0.775162	0.250108
C259	C	0.058062	1.025162	0.500108
C260	C	0.308062	1.275162	0.750108
C261	C	-0.461060	0.569497	0.000110
C262	C	-0.211060	0.819497	0.250110
C263	C	0.038940	1.069497	0.500110
C264	C	0.288940	1.319497	0.750110
C265	C	-0.499299	0.658172	0.000101
C266	C	-0.249299	0.908172	0.250101
C267	C	0.000701	1.158172	0.500101
C268	C	0.250701	1.408172	0.750101
C269	C	-0.448881	0.657656	0.000100
C270	C	-0.198881	0.907656	0.250100
C271	C	0.051119	1.157656	0.500100
C272	C	0.301119	1.407656	0.750100
C273	C	-0.429761	0.613317	0.000100
C274	C	-0.179761	0.863317	0.250100
C275	C	0.070239	1.113317	0.500100
C276	C	0.320239	1.363317	0.750100
C277	C	-0.379357	0.612807	0.000126
C278	C	-0.129357	0.862807	0.250126
C279	C	0.120643	1.112807	0.500126
C280	C	0.370643	1.362807	0.750126
N281	N	-0.360233	0.568472	0.000117
N282	N	-0.110233	0.818472	0.250117
N283	N	0.139767	1.068472	0.500117
N284	N	0.389767	1.318472	0.750117
C285	C	-0.391524	0.524649	0.000108
C286	C	-0.141524	0.774649	0.250108
C287	C	0.108476	1.024649	0.500108
C288	C	0.358476	1.274649	0.750108
C289	C	-0.838125	0.617473	0.000098
C290	C	-0.588125	0.867473	0.250098
C291	C	-0.338125	1.117473	0.500098
C292	C	-0.088125	1.367473	0.750098
C293	C	-0.888539	0.617986	0.000098
C294	C	-0.638539	0.867986	0.250098
C295	C	-0.388539	1.117986	0.500098
C296	C	-0.138539	1.367986	0.750098
C297	C	-0.900707	0.529825	0.000081
C298	C	-0.650707	0.779825	0.250081
C299	C	-0.400707	1.029825	0.500081
C300	C	-0.150707	1.279825	0.750081
C301	C	-0.850291	0.529312	0.000087
C302	C	-0.600291	0.779312	0.250087
C303	C	-0.350291	1.029312	0.500087
C304	C	-0.100291	1.279312	0.750087
C305	C	-0.819001	0.573138	0.000088
C306	C	-0.569001	0.823138	0.250088
C307	C	-0.319001	1.073138	0.500088
C308	C	-0.069001	1.323138	0.750088
C309	C	-0.285655	0.523577	0.000125
C310	C	-0.035655	0.773577	0.250125
C311	C	0.214345	1.023577	0.500125
C312	C	0.464345	1.273577	0.750125
C313	C	-0.235238	0.523069	0.000136
C314	C	0.014762	0.773069	0.250136
C315	C	0.264762	1.023069	0.500136
C316	C	0.514762	1.273069	0.750136
C317	C	-0.223075	0.611229	0.000149
C318	C	0.026925	0.861229	0.250149
C319	C	0.276925	1.111229	0.500149
C320	C	0.526925	1.361229	0.750149
C321	C	-0.273487	0.611738	0.000142
C322	C	-0.023487	0.861738	0.250142
C323	C	0.226513	1.111738	0.500142
C324	C	0.476513	1.361738	0.750142
C325	C	-0.304777	0.567908	0.000127
C326	C	-0.054777	0.817908	0.250127
C327	C	0.195223	1.067908	0.500127
C328	C	0.445223	1.317908	0.750127
O329	O	-0.348073	0.650008	0.000163
O330	O	-0.098073	0.900008	0.250163
O331	O	0.151927	1.150008	0.500163
O332	O	0.401927	1.400008	0.750163
O333	O	-0.370621	0.486898	0.000089
O334	O	-0.120621	0.736898	0.250089
O335	O	0.129379	0.986898	0.500089
O336	O	0.379379	1.236898	0.750089
C337	C	-0.593174	0.526699	0.000085
C338	C	-0.343174	0.776699	0.250085
C339	C	-0.093174	1.026699	0.500085
C340	C	0.156826	1.276699	0.750085
C341	C	-0.612295	0.571034	0.000086
C342	C	-0.362295	0.821034	0.250086
C343	C	-0.112295	1.071034	0.500086
C344	C	0.137705	1.321034	0.750086
C345	C	-0.581005	0.614856	0.000095
C346	C	-0.331005	0.864856	0.250095
C347	C	-0.081005	1.114856	0.500095
C348	C	0.168995	1.364856	0.750095
C349	C	-0.662710	0.571547	0.000087
C350	C	-0.412710	0.821547	0.250087
C351	C	-0.162710	1.071547	0.500087
C352	C	0.087290	1.321547	0.750087
C353	C	-0.694001	0.527725	0.000078
C354	C	-0.444001	0.777725	0.250078
C355	C	-0.194001	1.027725	0.500078
C356	C	0.055999	1.277725	0.750078
C357	C	-0.674877	0.483389	0.000069
C358	C	-0.424877	0.733389	0.250069
C359	C	-0.174877	0.983389	0.500069
C360	C	0.075123	1.233389	0.750069
C361	C	-0.624465	0.482877	0.000076
C362	C	-0.374465	0.732877	0.250076
C363	C	-0.124465	0.982877	0.500076
C364	C	0.125535	1.232877	0.750076
C365	C	-0.600129	0.659191	0.000105
C366	C	-0.350129	0.909191	0.250105
C367	C	-0.100129	1.159191	0.500105
C368	C	0.149871	1.409191	0.750105
C369	C	-0.650541	0.659700	0.000098
C370	C	-0.400541	0.909700	0.250098
C371	C	-0.150541	1.159700	0.500098
C372	C	0.099459	1.409700	0.750098
C373	C	-0.681832	0.615878	0.000089
C374	C	-0.431832	0.865878	0.250089
C375	C	-0.181832	1.115878	0.500089
C376	C	0.068168	1.365878	0.750089
C377	C	0.026515	0.574716	0.000105
C378	C	0.276515	0.824716	0.250105
C379	C	0.526515	1.074716	0.500105
C380	C	0.776515	1.324716	0.750105
C381	C	0.080170	0.574164	0.000089
C382	C	0.330170	0.824164	0.250089
C383	C	0.580170	1.074164	0.500089
C384	C	0.830170	1.324164	0.750089
C385	C	-0.057699	0.658931	0.000136
C386	C	0.192301	0.908931	0.250136
C387	C	0.442301	1.158931	0.500136
C388	C	0.692301	1.408931	0.750136
C389	C	-0.058252	0.712586	0.000140
C390	C	0.191748	0.962586	0.250140
C391	C	0.441748	1.212586	0.500140
C392	C	0.691748	1.462586	0.750140
N393	N	-0.061904	0.570513	0.219596
N394	N	0.188096	0.820513	0.469596
N395	N	0.438096	1.070513	0.719596
N396	N	0.688096	1.320513	0.969596
N397	N	-0.061869	0.570545	-0.219353
N398	N	0.188131	0.820545	0.030647
N399	N	0.438131	1.070545	0.280647
N400	N	0.688131	1.320545	0.530647
C401	C	-0.096462	0.535934	0.469249
C402	C	0.153538	0.785934	0.719249
C403	C	0.403538	1.035934	0.969249
C404	C	0.653538	1.285934	1.219249
C405	C	-0.105518	0.579543	0.531062
C406	C	0.144482	0.829543	0.781062
C407	C	0.394482	1.079543	1.031062
C408	C	0.644482	1.329543	1.281062
C409	C	-0.061892	0.570525	0.408758
C410	C	0.188108	0.820525	0.658758
C411	C	0.438108	1.070525	0.908758
C412	C	0.688108	1.320525	1.158758
C413	C	-0.052848	0.526927	0.531039
C414	C	0.197152	0.776927	0.781039
C415	C	0.447152	1.026927	1.031039
C416	C	0.697152	1.276927	1.281039
C417	C	-0.061882	0.570532	0.591479
C418	C	0.188118	0.820532	0.841479
C419	C	0.438118	1.070532	1.091479
C420	C	0.688118	1.320532	1.341479
C421	C	-0.070970	0.614156	0.469210
C422	C	0.179030	0.864156	0.719210
C423	C	0.429030	1.114156	0.969210
C424	C	0.679030	1.364156	1.219210
C425	C	-0.018281	0.561512	0.469181
C426	C	0.231719	0.811512	0.719181
C427	C	0.481719	1.061512	0.969181
C428	C	0.731719	1.311512	1.219181
C429	C	-0.027318	0.605152	0.530966
C430	C	0.222682	0.855152	0.780966
C431	C	0.472682	1.105152	1.030966
C432	C	0.722682	1.355152	1.280966
C433	C	-0.061900	0.570520	0.303496
C434	C	0.188100	0.820520	0.553496
C435	C	0.438100	1.070520	0.803496
C436	C	0.688100	1.320520	1.053496
C437	C	-0.061875	0.570543	0.696738
C438	C	0.188125	0.820543	0.946738
C439	C	0.438125	1.070543	1.196738
C440	C	0.688125	1.320543	1.446738
H441	H	0.061861	0.117558	0.000137
H442	H	0.311861	0.367558	0.250137
H443	H	0.561861	0.617558	0.500137
H444	H	0.811861	0.867558	0.750137
H445	H	-0.184708	-0.067947	0.000165
H446	H	0.065292	0.182053	0.250165
H447	H	0.315292	0.432053	0.500165
H448	H	0.565292	0.682053	0.750165
Br449	Br	-0.145224	0.487226	0.424077
Br450	Br	0.104776	0.737226	0.674077
Br451	Br	0.354776	0.987226	0.924077
Br452	Br	0.604776	1.237226	1.174077
H453	H	-0.139207	-0.202311	0.000148
H454	H	0.110793	0.047689	0.250148
H455	H	0.360793	0.297689	0.500148
H456	H	0.610793	0.547689	0.750148
H457	H	-0.219673	0.486962	0.000141
H458	H	0.030327	0.736962	0.250141
H459	H	0.280327	0.986962	0.500141
H460	H	0.530327	1.236962	0.750141
H461	H	0.014492	0.434827	0.000082
H462	H	0.264492	0.684827	0.250082
H463	H	0.514492	0.934827	0.500082
H464	H	0.764492	1.184827	0.750082
H465	H	0.018584	0.553867	0.441979
H466	H	0.268584	0.803867	0.691979
H467	H	0.518584	1.053867	0.941979
H468	H	0.768584	1.303867	1.191979
Br469	Br	0.021419	0.653964	0.575856
Br470	Br	0.271419	0.903964	0.825856
Br471	Br	0.521419	1.153964	1.075856
Br472	Br	0.771419	1.403964	1.325856
H473	H	-0.812652	0.653163	0.000100
H474	H	-0.562652	0.903163	0.250100
H475	H	-0.312652	1.153163	0.500100
H476	H	-0.062652	1.403163	0.750100
Br477	Br	0.084721	0.225997	0.000143
Br478	Br	0.334721	0.475997	0.250143
Br479	Br	0.584721	0.725997	0.500143
Br480	Br	0.834721	0.975997	0.750143
H481	H	-0.045202	0.490054	0.558200
H482	H	0.204798	0.740054	0.808200
H483	H	0.454798	0.990054	1.058200
H484	H	0.704798	1.240054	1.308200
Br485	Br	-0.166981	0.592263	0.576364
Br486	Br	0.083019	0.842263	0.826364
Br487	Br	0.333019	1.092263	1.076364
Br488	Br	0.583019	1.342263	1.326364
Br489	Br	-0.299438	0.671911	0.000182
Br490	Br	-0.049438	0.921911	0.250182
Br491	Br	0.200562	1.171911	0.500182
Br492	Br	0.450562	1.421911	0.750182
H493	H	-0.078660	0.651037	0.442165
H494	H	0.171340	0.901037	0.692165
H495	H	0.421340	1.151037	0.942165
H496	H	0.671340	1.401037	1.192165
H497	H	-0.145454	0.412743	0.000101
H498	H	0.104546	0.662743	0.250101
H499	H	0.354546	0.912743	0.500101
H500	H	0.604546	1.162743	0.750101
Br501	Br	-0.598524	0.422701	0.000076
Br502	Br	-0.348524	0.672701	0.250076
Br503	Br	-0.098524	0.922701	0.500076
Br504	Br	0.151476	1.172701	0.750076
Br505	Br	0.039496	0.332978	0.000101
Br506	Br	0.289496	0.582978	0.250101
Br507	Br	0.539496	0.832978	0.500101
Br508	Br	0.789496	1.082978	0.750101
H509	H	-0.185643	0.023514	0.000156
H510	H	0.064357	0.273514	0.250156
H511	H	0.314357	0.523514	0.500156
H512	H	0.564357	0.773514	0.750156
H513	H	-0.187180	0.174750	0.000134
H514	H	0.062820	0.424750	0.250134
H515	H	0.312820	0.674750	0.500134
H516	H	0.562820	0.924750	0.750134
Br517	Br	-0.717353	0.423917	0.000063
Br518	Br	-0.467353	0.673917	0.250063
Br519	Br	-0.217353	0.923917	0.500063
Br520	Br	0.032647	1.173917	0.750063
Br521	Br	-0.168323	0.304305	0.000133
Br522	Br	0.081677	0.554305	0.250133
Br523	Br	0.331677	0.804305	0.500133
Br524	Br	0.581677	1.054305	0.750133
H525	H	-0.186251	0.083302	0.000151
H526	H	0.063749	0.333302	0.250151
H527	H	0.313749	0.583302	0.500151
H528	H	0.563749	0.833302	0.750151
Br529	Br	0.086255	0.074746	0.000124
Br530	Br	0.336255	0.324746	0.250124
Br531	Br	0.586255	0.574746	0.500124
Br532	Br	0.836255	0.824746	0.750124
H533	H	-0.138273	-0.293777	0.000155
H534	H	0.111727	-0.043777	0.250155
H535	H	0.361727	0.206223	0.500155
H536	H	0.611727	0.456223	0.750155
Br537	Br	0.045745	-0.282067	0.000106
Br538	Br	0.295745	-0.032067	0.250106
Br539	Br	0.545745	0.217933	0.500106
Br540	Br	0.795745	0.467933	0.750106
H541	H	0.020747	-0.180236	0.000134
H542	H	0.270747	0.069764	0.250134
H543	H	0.520747	0.319764	0.500134
H544	H	0.770747	0.569764	0.750134
Br545	Br	-0.824347	0.469137	0.000087
Br546	Br	-0.574347	0.719137	0.250087
Br547	Br	-0.324347	0.969137	0.500087
Br548	Br	-0.074347	1.219137	0.750087
H549	H	-0.423407	0.693344	0.000096
H550	H	-0.173407	0.943344	0.250096
H551	H	0.076593	1.193344	0.500096
H552	H	0.326593	1.443344	0.750096
H553	H	-0.311125	0.487886	0.000112
H554	H	-0.061125	0.737886	0.250112
H555	H	0.188875	0.987886	0.500112
H556	H	0.438875	1.237886	0.750112
Br557	Br	0.087463	-0.044068	0.000122
Br558	Br	0.337463	0.205932	0.250122
Br559	Br	0.587463	0.455932	0.500122
Br560	Br	0.837463	0.705932	0.750122
H561	H	-0.457666	0.445236	0.000092
H562	H	-0.207666	0.695236	0.250092
H563	H	0.042334	0.945236	0.500092
H564	H	0.292334	1.195236	0.750092
H565	H	-0.926193	0.494143	0.000078
H566	H	-0.676193	0.744143	0.250078
H567	H	-0.426193	0.994143	0.500078
H568	H	-0.176193	1.244143	0.750078
Br569	Br	-0.914482	0.678161	0.000116
Br570	Br	-0.664482	0.928161	0.250116
Br571	Br	-0.414482	1.178161	0.500116
Br572	Br	-0.164482	1.428161	0.750116
H573	H	-0.549113	0.446165	0.000082
H574	H	-0.299113	0.696165	0.250082
H575	H	-0.049113	0.946165	0.500082
H576	H	0.200887	1.196165	0.750082
H577	H	-0.514857	0.694277	0.000101
H578	H	-0.264857	0.944277	0.250101
H579	H	-0.014857	1.194277	0.500101
H580	H	0.235143	1.444277	0.750101
Br581	Br	-0.180600	0.670699	0.000170
Br582	Br	0.069400	0.920699	0.250170
Br583	Br	0.319400	1.170699	0.500170
Br584	Br	0.569400	1.420699	0.750170
H585	H	-0.666104	0.695808	0.000105
H586	H	-0.416104	0.945808	0.250105
H587	H	-0.166104	1.195808	0.500105
H588	H	0.083896	1.445808	0.750105
Br589	Br	-0.557670	0.718671	0.000118
Br590	Br	-0.307670	0.968671	0.250118
Br591	Br	-0.057670	1.218671	0.500118
Br592	Br	0.192330	1.468671	0.750118
