data_functionalizedCrystal
_audit_creation_method	'MofGen! by Chris Wilmer'
_symmetry_space_group_name_H-M	'P1'
_symmetry_Int_Tables_number	1
_symmetry_cell_setting	triclinic
loop_
_symmetry_equiv_pos_as_xyz
  x,y,z
_cell_length_a	16.992694
_cell_length_b	18.266242
_cell_length_c	16.992695
_cell_angle_alpha	89.993686
_cell_angle_beta	89.331777
_cell_angle_gamma	90.003271
loop_
_atom_site_label
_atom_site_type_symbol
_atom_site_fract_x
_atom_site_fract_y
_atom_site_fract_z
O1	O	1.050856	0.060790	-0.166918
O2	O	1.550856	0.560790	0.333082
O3	O	0.822456	0.060811	-0.165087
O4	O	1.322456	0.560811	0.334913
O5	O	0.935740	0.060795	-0.051803
O6	O	1.435740	0.560795	0.448197
O7	O	0.937571	0.060806	-0.280203
O8	O	1.437571	0.560806	0.219797
O9	O	0.935719	-0.060967	-0.051795
O10	O	1.435719	0.439033	0.448205
O11	O	0.822435	-0.060951	-0.165079
O12	O	1.322435	0.439049	0.334921
O13	O	1.050835	-0.060972	-0.166911
O14	O	1.550835	0.439028	0.333089
Zn15	Zn	0.936631	-0.080294	-0.165994
Zn16	Zn	1.436631	0.419706	0.334006
Zn17	Zn	0.936659	0.080133	-0.166004
Zn18	Zn	1.436659	0.580133	0.333996
O19	O	0.937550	-0.060956	-0.280195
O20	O	1.437550	0.439044	0.219805
C21	C	0.793085	-0.000067	-0.162727
C22	C	1.293085	0.499933	0.337273
C23	C	0.705600	-0.000059	-0.155699
C24	C	1.205600	0.499941	0.344301
N25	N	0.936618	-0.189781	-0.165987
N26	N	1.436618	0.310219	0.334013
C27	C	0.659610	-0.000056	-0.223517
C28	C	1.159610	0.499944	0.276483
C29	C	0.577409	-0.000066	-0.216908
C30	C	1.077409	0.499934	0.283092
C31	C	0.541201	-0.000074	-0.142480
C32	C	1.041201	0.499926	0.357520
C33	C	0.587198	-0.000079	-0.074657
C34	C	1.087198	0.499921	0.425343
C35	C	0.669397	-0.000074	-0.081267
C36	C	1.169397	0.499926	0.418733
C37	C	0.295886	-0.000095	-0.115086
C38	C	0.795886	0.499905	0.384914
C39	C	0.213681	-0.000098	-0.108481
C40	C	0.713681	0.499902	0.391519
C41	C	0.203898	-0.000087	-0.250732
C42	C	0.703898	0.499913	0.249268
C43	C	0.286099	-0.000077	-0.257335
C44	C	0.786099	0.499923	0.242665
C45	C	0.332089	-0.000086	-0.189512
C46	C	0.832089	0.499914	0.310488
N47	N	0.457178	-0.000083	-0.135723
N48	N	0.957178	0.499917	0.364277
N49	N	0.416110	-0.000083	-0.196270
N50	N	0.916110	0.499917	0.303730
C51	C	0.986800	-0.228097	-0.115852
C52	C	1.486800	0.271903	0.384148
C53	C	0.986805	-0.304742	-0.115849
C54	C	1.486805	0.195258	0.384151
C55	C	0.936636	-0.343067	-0.165994
C56	C	1.436636	0.156933	0.334006
C57	C	0.886445	-0.304742	-0.216133
C58	C	1.386445	0.195258	0.283867
C59	C	0.886436	-0.228099	-0.216129
C60	C	1.386436	0.271901	0.283871
N61	N	0.930981	-0.463396	-0.235021
N62	N	1.430981	0.036604	0.264979
N63	N	0.930994	-0.536204	-0.235022
N64	N	1.430994	-0.036204	0.264978
C65	C	0.936659	-0.573990	-0.166007
C66	C	1.436659	-0.073990	0.333993
N67	N	0.942326	-0.536217	-0.096990
N68	N	1.442326	-0.036217	0.403010
N69	N	0.942317	-0.463403	-0.096989
N70	N	1.442317	0.036597	0.403011
C71	C	0.936640	-0.426174	-0.166003
C72	C	1.436640	0.073826	0.333997
C73	C	0.986849	-0.695413	-0.115864
C74	C	1.486849	-0.195413	0.384136
C75	C	0.986848	-0.772060	-0.115860
C76	C	1.486848	-0.272060	0.384140
C77	C	0.886492	-0.772058	-0.216151
C78	C	1.386492	-0.272058	0.283849
C79	C	0.886489	-0.695414	-0.216148
C80	C	1.386489	-0.195414	0.283852
C81	C	0.936671	-0.657096	-0.166006
C82	C	1.436671	-0.157096	0.333994
C83	C	1.080205	-0.000092	-0.169270
C84	C	1.580205	0.499908	0.330730
C85	C	1.167690	-0.000096	-0.176299
C86	C	1.667690	0.499904	0.323701
N87	N	0.936678	0.189620	-0.166005
N88	N	1.436678	0.689620	0.333995
C89	C	0.933374	-0.000086	-0.022439
C90	C	1.433374	0.499914	0.477561
C91	C	0.926345	-0.000085	0.065046
C92	C	1.426345	0.499915	0.565046
C93	C	0.939917	-0.000073	-0.309559
C94	C	1.439917	0.499927	0.190441
C95	C	0.946945	-0.000069	-0.397044
C96	C	1.446945	0.499931	0.102956
C97	C	0.994163	-0.000092	0.111037
C98	C	1.494163	0.499908	0.611037
C99	C	0.987554	-0.000084	0.193238
C100	C	1.487554	0.499916	0.693238
C101	C	0.913127	-0.000075	0.229446
C102	C	1.413127	0.499925	0.729446
C103	C	0.845303	-0.000066	0.183449
C104	C	1.345303	0.499934	0.683449
C105	C	0.851913	-0.000068	0.101250
C106	C	1.351913	0.499932	0.601250
C107	C	0.885732	-0.000062	0.474760
C108	C	1.385732	0.499938	0.974760
C109	C	0.879127	-0.000062	0.556966
C110	C	1.379127	0.499938	1.056966
C111	C	1.021379	-0.000080	0.566749
C112	C	1.521379	0.499920	1.066749
C113	C	1.027982	-0.000086	0.484547
C114	C	1.527982	0.499914	0.984547
C115	C	0.960159	-0.000073	0.438558
C116	C	1.460159	0.499927	0.938558
N117	N	0.906369	-0.000070	0.313468
N118	N	1.406369	0.499930	0.813468
N119	N	0.966917	-0.000073	0.354537
N120	N	1.466917	0.499927	0.854537
H121	H	0.689084	-0.000049	-0.284124
H122	H	1.189084	0.499951	0.215876
H123	H	0.818516	-0.000066	0.586443
H124	H	1.318516	0.499934	1.086443
H125	H	1.027709	-0.803257	-0.075029
H126	H	1.527709	-0.303257	0.424971
H127	H	0.796688	-0.000062	0.063804
H128	H	1.296688	0.499938	0.563804
O129	O	0.832366	-0.654088	-0.270232
O130	O	1.332366	-0.154088	0.229768
H131	H	0.792024	-0.619187	-0.234671
H132	H	1.292024	-0.119187	0.265329
O133	O	0.832381	-0.813383	-0.270241
O134	O	1.332381	-0.313383	0.229759
H135	H	0.840820	-0.873116	-0.261825
H136	H	1.340820	-0.373116	0.238175
H137	H	0.315574	-0.000062	-0.317942
H138	H	0.815574	0.499938	0.182058
O139	O	0.527801	-0.000064	-0.290053
O140	O	1.027801	0.499936	0.209947
H141	H	0.566789	-0.000048	-0.342917
H142	H	1.066789	0.499952	0.157083
H143	H	0.166444	-0.000081	-0.305950
H144	H	0.666444	0.499919	0.194050
O145	O	0.765029	-0.000059	0.222505
O146	O	1.265029	0.499941	0.722505
H147	H	0.732202	0.049575	0.204384
H148	H	1.232202	0.549575	0.704384
H149	H	0.184203	-0.000104	-0.047870
H150	H	0.684203	0.499896	0.452130
H151	H	0.557710	-0.000096	-0.014056
H152	H	1.057710	0.499904	0.485944
H153	H	1.027670	-0.335944	-0.075021
H154	H	1.527670	0.164056	0.424979
H155	H	1.088589	-0.000094	0.455073
H156	H	1.588589	0.499906	0.955073
H157	H	0.845596	-0.335951	-0.256961
H158	H	1.345596	0.164049	0.243039
O159	O	0.719008	-0.000075	-0.008122
O160	O	1.219008	0.499925	0.491878
H161	H	0.680022	-0.000075	0.044744
H162	H	1.180022	0.499925	0.544744
O163	O	0.345486	-0.000105	-0.041938
O164	O	0.845486	0.499895	0.458062
H165	H	0.306495	-0.000105	0.010925
H166	H	0.806495	0.499895	0.510925
O167	O	1.040912	-0.186766	-0.061762
O168	O	1.540912	0.313234	0.438238
H169	H	1.075801	-0.226291	-0.026893
H170	H	1.575801	0.273709	0.473107
O171	O	1.094526	-0.000094	0.616353
O172	O	1.594526	0.499906	1.116353
H173	H	1.129913	0.049527	0.602912
H174	H	1.629913	0.549527	1.102912
H175	H	0.845571	-0.196901	-0.256956
H176	H	1.345571	0.303099	0.243044
H177	H	1.054770	-0.000104	0.081563
H178	H	1.554770	0.499896	0.581563
H179	H	1.027708	-0.664213	-0.075033
H180	H	1.527708	-0.164213	0.424967
H181	H	0.830505	-0.000052	0.437325
H182	H	1.330505	0.499948	0.937325
O183	O	1.060700	-0.000104	0.242845
O184	O	1.560700	0.499896	0.742845
H185	H	1.113564	-0.000125	0.203858
H186	H	1.613564	0.499875	0.703858
