data_functionalizedCrystal
_audit_creation_method	'MofGen! by Chris Wilmer'
_symmetry_space_group_name_H-M	'P1'
_symmetry_Int_Tables_number	1
_symmetry_cell_setting	triclinic
loop_
_symmetry_equiv_pos_as_xyz
  x,y,z
_cell_length_a	12.759401
_cell_length_b	18.215405
_cell_length_c	12.759393
_cell_angle_alpha	90.033485
_cell_angle_beta	90.020938
_cell_angle_gamma	90.024257
loop_
_atom_site_label
_atom_site_type_symbol
_atom_site_fract_x
_atom_site_fract_y
_atom_site_fract_z
Zn1	Zn	1.606208	-0.292919	0.593998
Zn2	Zn	1.606074	-0.416003	0.418309
Zn3	Zn	1.430506	-0.292958	0.418333
Zn4	Zn	1.430474	-0.415951	0.593946
O5	O	1.518316	-0.354458	0.506147
O6	O	1.753211	-0.309251	0.570704
O7	O	1.582743	-0.399718	0.271291
O8	O	1.453883	-0.189968	0.441668
O9	O	1.753113	-0.399681	0.441626
O10	O	1.582970	-0.189940	0.570728
O11	O	1.453754	-0.309318	0.271309
O12	O	1.283481	-0.309268	0.441617
O13	O	1.453827	-0.399593	0.740974
O14	O	1.283457	-0.399631	0.570639
O15	O	1.582938	-0.309201	0.741013
O16	O	1.582711	-0.518980	0.441576
O17	O	1.453698	-0.518942	0.570616
C18	C	1.245348	-0.354449	0.506126
C19	C	1.128572	-0.354463	0.506142
C20	C	1.518215	-0.545664	0.506111
C21	C	1.518268	-0.627463	0.506130
C22	C	1.073725	-0.401586	0.573218
C23	C	0.964000	-0.401589	0.573239
C24	C	0.963980	-0.307343	0.439099
C25	C	1.073702	-0.307337	0.439084
C26	C	1.585515	-0.815581	0.573423
C27	C	1.585554	-0.892439	0.573443
C28	C	1.451246	-0.892583	0.438936
C29	C	1.451203	-0.815725	0.438922
C30	C	1.518344	-0.777226	0.506164
C31	C	1.518425	-0.930942	0.506198
C32	C	1.518465	-1.014276	0.506218
C33	C	1.518302	-0.693887	0.506145
C34	C	1.792349	-0.354467	0.506168
C35	C	1.909125	-0.354471	0.506178
C36	C	1.518394	-0.354387	0.780180
C37	C	1.518428	-0.354357	0.896957
C38	C	1.518445	-0.162505	0.506206
C39	C	1.518501	-0.080706	0.506231
C40	C	1.518298	-0.354475	0.233179
C41	C	1.518468	-0.354298	0.116403
C42	C	1.585661	-0.307283	0.951841
C43	C	1.585679	-0.307251	1.061565
C44	C	1.451227	-0.401374	1.061512
C45	C	1.451205	-0.401402	0.951790
H46	H	1.118396	-0.439957	0.627824
H47	H	1.640425	-0.268917	1.106246
H48	H	1.640395	-0.268974	0.907199
H49	H	1.396584	-0.923938	0.384188
H50	H	0.919349	-0.439960	0.627861
H51	H	1.396499	-0.439678	1.106171
O52	O	0.910515	-0.261638	0.373994
C53	C	0.741474	-0.219841	0.314617
C54	C	0.801888	-0.271653	0.388385
H55	H	0.653639	-0.227909	0.326242
H56	H	0.762919	-0.232689	0.229840
H57	H	0.763151	-0.160524	0.333210
H58	H	0.780244	-0.330988	0.369886
H59	H	0.780438	-0.258742	0.473140
O60	O	1.650611	-0.778214	0.638898
C61	C	1.701523	-0.754615	0.817655
C62	C	1.627724	-0.796963	0.743620
H63	H	1.683060	-0.769770	0.902337
H64	H	1.689952	-0.693086	0.806185
H65	H	1.786253	-0.769678	0.799240
H66	H	1.542966	-0.781962	0.761989
H67	H	1.639386	-0.858482	0.755104
O68	O	1.126825	-0.261535	0.373822
C69	C	1.115235	-0.168025	0.240819
C70	C	1.054943	-0.219868	0.314648
H71	H	1.057145	-0.134312	0.192974
H72	H	1.166533	-0.201728	0.185722
H73	H	1.166675	-0.129615	0.289167
H74	H	1.003447	-0.258288	0.266385
H75	H	1.003712	-0.186119	0.369748
H76	H	1.396448	-0.439735	0.907103
O77	O	1.385915	-0.778577	0.373484
C78	C	1.252657	-0.786823	0.240119
C79	C	1.326558	-0.828985	0.314148
H80	H	1.204632	-0.827559	0.192143
H81	H	1.300852	-0.750858	0.185154
H82	H	1.197722	-0.750828	0.288319
H83	H	1.381507	-0.865019	0.266032
H84	H	1.278297	-0.864903	0.369116
H85	H	1.640249	-0.923664	0.628214
