data_functionalizedCrystal
_audit_creation_method	'MofGen! by Chris Wilmer'
_symmetry_space_group_name_H-M	'P1'
_symmetry_Int_Tables_number	1
_symmetry_cell_setting	triclinic
loop_
_symmetry_equiv_pos_as_xyz
  x,y,z
_cell_length_a	14.519709
_cell_length_b	19.188924
_cell_length_c	13.596369
_cell_angle_alpha	90.002463
_cell_angle_beta	90.000208
_cell_angle_gamma	96.588945
loop_
_atom_site_label
_atom_site_type_symbol
_atom_site_fract_x
_atom_site_fract_y
_atom_site_fract_z
O1	O	-1.223299	0.091519	0.081656
O2	O	-0.723299	0.591519	0.581656
O3	O	-0.954754	0.102297	0.081689
O4	O	-0.454754	0.602297	0.581689
O5	O	-1.096779	-0.004720	0.081660
O6	O	-0.596779	0.495280	0.581660
O7	O	-1.081274	0.198536	0.081685
O8	O	-0.581274	0.698536	0.581685
O9	O	-1.096762	-0.004714	-0.081923
O10	O	-0.596762	0.495286	0.418077
O11	O	-0.954737	0.102303	-0.081894
O12	O	-0.454737	0.602303	0.418106
O13	O	-1.223281	0.091525	-0.081927
O14	O	-0.723281	0.591525	0.418073
Zn15	Zn	-1.089006	0.096915	-0.107883
Zn16	Zn	-0.589006	0.596915	0.392117
Zn17	Zn	-1.089029	0.096907	0.107645
Zn18	Zn	-0.589029	0.596907	0.607645
O19	O	-1.081256	0.198542	-0.081898
O20	O	-0.581256	0.698542	0.418102
C21	C	-0.920389	0.101798	-0.000098
C22	C	-0.420389	0.601798	0.499902
C23	C	-0.818017	0.100292	-0.000086
C24	C	-0.318017	0.600292	0.499914
C25	C	-1.096270	-0.030730	-0.000132
C26	C	-0.596270	0.469270	0.499868
C27	C	-1.094765	-0.108240	-0.000135
C28	C	-0.594765	0.391760	0.499865
C29	C	-0.443156	0.094751	-0.000128
C30	C	0.056844	0.594751	0.499872
C31	C	-0.547454	0.096290	-0.000116
C32	C	-0.047454	0.596290	0.499884
C33	C	-0.630583	0.097522	-0.000106
C34	C	-0.130583	0.597522	0.499894
C35	C	-0.734888	0.099061	-0.000096
C36	C	-0.234888	0.599061	0.499904
C37	C	-1.094073	-0.144645	0.089035
C38	C	-0.594073	0.355355	0.589035
C39	C	-1.092647	-0.217473	0.089042
C40	C	-0.592647	0.282527	0.589042
C41	C	-1.091931	-0.253895	-0.000124
C42	C	-0.591931	0.246105	0.499876
C43	C	-1.092619	-0.217481	-0.089306
C44	C	-0.592619	0.282519	0.410694
C45	C	-1.094036	-0.144654	-0.089311
C46	C	-0.594036	0.355346	0.410689
N47	N	-1.142180	-0.373377	-0.066495
N48	N	-0.642180	0.126623	0.433505
N49	N	-1.140835	-0.442560	-0.066484
N50	N	-0.640835	0.057440	0.433516
C51	C	-1.087660	-0.473319	-0.000114
C52	C	-0.587660	0.026681	0.499886
N53	N	-1.035890	-0.432283	0.066259
N54	N	-0.535890	0.067717	0.566259
N55	N	-1.037239	-0.363094	0.066251
N56	N	-0.537239	0.136906	0.566251
C57	C	-1.090394	-0.332864	-0.000129
C58	C	-0.590394	0.167136	0.499871
C59	C	-1.085419	-0.588692	0.089069
C60	C	-0.585419	-0.088692	0.589069
C61	C	-1.083987	-0.661521	0.089073
C62	C	-0.583987	-0.161521	0.589073
C63	C	-1.083968	-0.661528	-0.089277
C64	C	-0.583968	-0.161528	0.410723
C65	C	-1.085391	-0.588700	-0.089279
C66	C	-0.585391	-0.088700	0.410721
C67	C	-1.086121	-0.552287	-0.000102
C68	C	-0.586121	-0.052287	0.499898
C69	C	-0.257646	0.092024	-0.000135
C70	C	0.242354	0.592024	0.499865
C71	C	-0.360018	0.093529	-0.000133
C72	C	0.139982	0.593529	0.499867
C73	C	-1.081766	0.224552	-0.000103
C74	C	-0.581766	0.724552	0.499897
C75	C	-1.083270	0.302062	-0.000094
C76	C	-0.583270	0.802062	0.499906
N77	N	-1.088997	0.096920	-0.254974
N78	N	-0.588997	0.596920	0.245026
C79	C	-1.089002	0.096921	-0.343972
C80	C	-0.589002	0.596921	0.156028
C81	C	-1.089011	0.096916	-0.455624
C82	C	-0.589011	0.596916	0.044376
C83	C	-1.089023	0.096909	-0.544614
C84	C	-0.589023	0.596909	-0.044614
C85	C	-1.089033	0.096904	-0.656273
C86	C	-0.589033	0.596904	-0.156273
N87	N	-1.089046	0.096897	0.254737
N88	N	-0.589046	0.596897	0.754737
H89	H	-1.092077	-0.247119	0.161657
H90	H	-0.592077	0.252881	0.661657
H91	H	-1.092033	-0.247140	-0.161906
H92	H	-0.592033	0.252860	0.338094
C93	C	-1.083101	-0.700943	0.185968
C94	C	-0.583101	-0.200943	0.685968
C95	C	-1.004151	-0.675453	0.239803
C96	C	-0.504151	-0.175453	0.739803
C97	C	-1.003315	-0.711745	0.329075
C98	C	-0.503315	-0.211745	0.829075
H99	H	-1.082103	-0.749538	0.173347
H100	H	-0.582103	-0.249538	0.673347
H101	H	-1.137084	-0.694244	0.222639
H102	H	-0.637084	-0.194244	0.722639
H103	H	-0.950182	-0.682157	0.203140
H104	H	-0.450182	-0.182157	0.703140
H105	H	-1.005132	-0.626862	0.252451
H106	H	-0.505132	-0.126862	0.752451
H107	H	-1.057299	-0.705047	0.365746
H108	H	-0.557299	-0.205047	0.865746
H109	H	-1.002320	-0.760339	0.316444
H110	H	-0.502320	-0.260339	0.816444
H111	H	-0.949754	-0.694451	0.365617
H112	H	-0.449754	-0.194451	0.865617
C113	C	-1.094835	-0.105255	-0.186232
C114	C	-0.594835	0.394745	0.313768
C115	C	-1.093921	-0.152737	-0.264323
C116	C	-0.593921	0.347263	0.235677
C117	C	-1.094670	-0.116468	-0.353620
C118	C	-0.594670	0.383532	0.146380
H119	H	-1.041637	-0.071584	-0.190069
H120	H	-0.541637	0.428416	0.309931
H121	H	-1.149177	-0.082123	-0.190002
H122	H	-0.649177	0.417877	0.309998
H123	H	-1.039585	-0.175858	-0.260553
H124	H	-0.539585	0.324142	0.239447
H125	H	-1.147115	-0.186409	-0.260517
H126	H	-0.647115	0.313591	0.239483
H127	H	-1.149012	-0.093336	-0.357391
H128	H	-0.649012	0.406664	0.142609
H129	H	-1.041471	-0.082798	-0.357448
H130	H	-0.541471	0.417202	0.142552
H131	H	-1.094058	-0.148680	-0.406616
H132	H	-0.594058	0.351320	0.093384
C133	C	-1.094929	-0.105037	0.185786
C134	C	-0.594929	0.394963	0.685786
C135	C	-1.175024	-0.070939	0.191061
C136	C	-0.675024	0.429061	0.691061
C137	C	-1.175795	-0.034426	0.280163
C138	C	-0.675795	0.465574	0.780163
H139	H	-1.041741	-0.071346	0.189476
H140	H	-0.541741	0.428654	0.689476
H141	H	-1.094326	-0.137097	0.238966
H142	H	-0.594326	0.362903	0.738966
H143	H	-1.175619	-0.038882	0.137896
H144	H	-0.675619	0.461118	0.637896
H145	H	-1.228225	-0.104614	0.187389
H146	H	-0.728225	0.395386	0.687389
H147	H	-1.175192	-0.066486	0.333343
H148	H	-0.675192	0.433514	0.833343
H149	H	-1.122604	-0.000739	0.283844
H150	H	-0.622604	0.499261	0.783844
H151	H	-1.230143	-0.011292	0.283757
H152	H	-0.730143	0.488708	0.783757
H153	H	-1.083379	-0.691182	-0.161879
H154	H	-0.583379	-0.191182	0.338121
H155	H	-1.086008	-0.559042	0.161682
H156	H	-0.586008	-0.059042	0.661682
H157	H	-1.085963	-0.559060	-0.161890
H158	H	-0.585963	-0.059060	0.338110
