data_functionalizedCrystal
_audit_creation_method	'MofGen! by Chris Wilmer'
_symmetry_space_group_name_H-M	'P1'
_symmetry_Int_Tables_number	1
_symmetry_cell_setting	triclinic
loop_
_symmetry_equiv_pos_as_xyz
  x,y,z
_cell_length_a	19.805407
_cell_length_b	19.805405
_cell_length_c	19.805399
_cell_angle_alpha	89.970699
_cell_angle_beta	89.980427
_cell_angle_gamma	90.026410
loop_
_atom_site_label
_atom_site_type_symbol
_atom_site_fract_x
_atom_site_fract_y
_atom_site_fract_z
Zn1	Zn	1.034736	-0.269479	-0.382712
Zn2	Zn	1.534736	0.230521	0.117288
Zn3	Zn	1.034651	-0.382667	-0.269520
Zn4	Zn	1.534651	0.117333	0.230480
Zn5	Zn	0.921550	-0.269498	-0.269536
Zn6	Zn	1.421550	0.230502	0.230464
Zn7	Zn	0.921514	-0.382631	-0.382667
Zn8	Zn	1.421514	0.117369	0.117333
O9	O	0.978113	-0.326069	-0.326109
O10	O	1.478113	0.173931	0.173891
O11	O	1.129441	-0.284501	-0.367708
O12	O	1.629441	0.215499	0.132292
O13	O	1.019627	-0.367678	-0.174805
O14	O	1.519627	0.132322	0.325195
O15	O	0.936616	-0.174778	-0.284575
O16	O	1.436616	0.325222	0.215425
O17	O	1.129378	-0.367660	-0.284547
O18	O	1.629378	0.132340	0.215453
O19	O	1.019772	-0.174765	-0.367724
O20	O	1.519772	0.325235	0.132276
O21	O	0.936533	-0.284533	-0.174817
O22	O	1.436533	0.215467	0.325183
O23	O	0.826829	-0.284498	-0.284531
O24	O	1.326829	0.215502	0.215469
O25	O	0.936553	-0.367598	-0.477389
O26	O	1.436553	0.132402	0.022611
O27	O	0.826802	-0.367617	-0.367648
O28	O	1.326802	0.132383	0.132352
O29	O	1.019737	-0.284466	-0.477422
O30	O	1.519737	0.215534	0.022578
O31	O	1.019592	-0.477379	-0.284503
O32	O	1.519592	0.022621	0.215497
O33	O	0.936471	-0.477353	-0.367632
O34	O	1.436471	0.022647	0.132368
C35	C	0.802257	-0.326056	-0.326087
C36	C	1.302257	0.173944	0.173913
C37	C	0.727025	-0.326067	-0.326093
C38	C	1.227025	0.173933	0.173907
C39	C	0.691684	-0.369412	-0.369302
C40	C	1.191684	0.130588	0.130698
C41	C	0.620996	-0.369413	-0.369312
C42	C	1.120996	0.130587	0.130688
C43	C	0.585649	-0.326072	-0.326109
C44	C	1.085649	0.173928	0.173891
C45	C	0.620994	-0.282722	-0.282898
C46	C	1.120994	0.217278	0.217102
C47	C	0.691681	-0.282718	-0.282892
C48	C	1.191681	0.217282	0.217108
C49	C	0.335921	-0.282737	-0.282920
C50	C	0.835921	0.217263	0.217080
C51	C	0.265229	-0.282746	-0.282928
C52	C	0.765229	0.217254	0.217072
C53	C	0.265235	-0.369432	-0.369340
C54	C	0.765235	0.130568	0.130660
C55	C	0.335922	-0.369428	-0.369334
C56	C	0.835922	0.130572	0.130666
C57	C	0.371262	-0.326076	-0.326126
C58	C	0.871262	0.173924	0.173874
C59	C	0.447910	-0.326074	-0.326117
C60	C	0.947910	0.173926	0.173883
C61	C	0.509002	-0.326076	-0.326114
C62	C	1.009002	0.173924	0.173886
C63	C	0.978036	-0.501925	-0.326076
C64	C	1.478036	-0.001925	0.173924
C65	C	0.978066	-0.577157	-0.326084
C66	C	1.478066	-0.077157	0.173916
C67	C	1.021389	-0.612492	-0.282845
C68	C	1.521389	-0.112492	0.217155
C69	C	1.021418	-0.683181	-0.282860
C70	C	1.521418	-0.183181	0.217140
C71	C	0.978119	-0.718532	-0.326111
C72	C	1.478119	-0.218532	0.173889
C73	C	0.934794	-0.683192	-0.369356
C74	C	1.434794	-0.183192	0.130644
C75	C	0.934769	-0.612505	-0.369344
C76	C	1.434769	-0.112505	0.130656
C77	C	0.934894	-0.968265	-0.369406
C78	C	1.434894	-0.468265	0.130594
C79	C	0.934921	-1.038957	-0.369413
C80	C	1.434921	-0.538957	0.130587
C81	C	1.021542	-1.038941	-0.282922
C82	C	1.521542	-0.538941	0.217078
C83	C	1.021517	-0.968254	-0.282910
C84	C	1.521517	-0.468254	0.217090
C85	C	0.978195	-0.932920	-0.326157
C86	C	1.478195	-0.432920	0.173843
C87	C	0.978166	-0.856271	-0.326141
C88	C	1.478166	-0.356271	0.173859
C89	C	0.978145	-0.795179	-0.326124
C90	C	1.478145	-0.295179	0.173876
C91	C	1.154655	-0.326082	-0.326131
C92	C	1.654655	0.173918	0.173869
C93	C	1.229887	-0.326088	-0.326140
C94	C	1.729887	0.173912	0.173860
C95	C	0.978151	-0.326026	-0.502651
C96	C	1.478151	0.173974	-0.002651
C97	C	0.978167	-0.326008	-0.577883
C98	C	1.478167	0.173992	-0.077883
C99	C	0.978207	-0.149526	-0.326156
C100	C	1.478207	0.350474	0.173844
C101	C	0.978248	-0.074294	-0.326177
C102	C	1.478248	0.425706	0.173823
C103	C	1.021481	-0.282719	-0.613246
C104	C	1.521481	0.217281	-0.113246
C105	C	1.021488	-0.282699	-0.683934
C106	C	1.521488	0.217301	-0.183934
C107	C	0.978184	-0.325973	-0.719259
C108	C	1.478184	0.174027	-0.219259
C109	C	0.934864	-0.369264	-0.683892
C110	C	1.434864	0.130736	-0.183892
C111	C	0.934854	-0.369279	-0.613204
C112	C	1.434854	0.130721	-0.113204
C113	C	0.934902	-0.369201	-0.968965
C114	C	1.434902	0.130799	-0.468965
C115	C	0.934917	-0.369183	-1.039657
C116	C	1.434917	0.130817	-0.539657
C117	C	1.021536	-0.282620	-1.039695
C118	C	1.521536	0.217380	-0.539695
C119	C	1.021527	-0.282636	-0.969008
C120	C	1.521527	0.217364	-0.469008
C121	C	0.978205	-0.325924	-0.933647
C122	C	1.478205	0.174076	-0.433647
C123	C	0.978197	-0.325944	-0.856998
C124	C	1.478197	0.174056	-0.356998
C125	C	0.978194	-0.325957	-0.795906
C126	C	1.478194	0.174043	-0.295906
C127	C	0.978114	-0.326062	-0.150253
C128	C	1.478114	0.173938	0.349747
C129	C	0.978229	-0.325890	-0.075021
C130	C	1.478229	0.174110	0.424979
H131	H	0.236452	-0.247448	-0.247747
H132	H	0.736452	0.252552	0.252253
Br133	Br	0.217271	-0.428270	-0.427979
Br134	Br	0.717271	0.071730	0.072021
Br135	Br	0.383873	-0.223898	-0.224285
Br136	Br	0.883873	0.276102	0.275715
H137	H	0.592209	-0.247430	-0.247724
H138	H	1.092209	0.252570	0.252276
H139	H	0.899602	-0.404495	-0.712659
H140	H	1.399602	0.095505	-0.212659
Br141	Br	0.876037	-0.731168	-0.428061
Br142	Br	1.376037	-0.231168	0.071939
Br143	Br	0.739645	-0.223886	-0.224253
Br144	Br	1.239645	0.276114	0.275747
H145	H	1.056820	-1.067719	-0.247711
H146	H	1.556820	-0.567719	0.252289
H147	H	1.056644	-0.583713	-0.247621
H148	H	1.556644	-0.083713	0.252379
Br149	Br	0.876107	-0.427948	-0.920984
Br150	Br	1.376107	0.072052	-0.420984
H151	H	1.056695	-0.711948	-0.247649
H152	H	1.556695	-0.211948	0.252351
H153	H	0.899576	-0.404523	-0.584413
H154	H	1.399576	0.095477	-0.084413
Br155	Br	0.383890	-0.428254	-0.427965
Br156	Br	0.883890	0.071746	0.072035
Br157	Br	0.876155	-1.086935	-0.428116
Br158	Br	1.376155	-0.586935	0.071884
Br159	Br	0.573036	-0.428239	-0.427956
Br160	Br	1.073036	0.071761	0.072044
H161	H	1.056809	-0.247370	-1.068495
H162	H	1.556809	0.252630	-0.568495
Br163	Br	0.876100	-0.920320	-0.428098
Br164	Br	1.376100	-0.420320	0.071902
H165	H	0.899492	-0.583735	-0.404555
H166	H	1.399492	-0.083735	0.095445
Br167	Br	1.080280	-0.920280	-0.224208
Br168	Br	1.580280	-0.420280	0.275792
Br169	Br	1.080261	-0.223992	-0.565312
Br170	Br	1.580261	0.276008	-0.065312
Br171	Br	1.080307	-0.223978	-0.731924
Br172	Br	1.580307	0.276022	-0.231924
H173	H	0.899650	-0.404423	-1.068417
H174	H	1.399650	0.095577	-0.568417
Br175	Br	0.739648	-0.428240	-0.427933
Br176	Br	1.239648	0.071760	0.072067
Br177	Br	1.080303	-0.223909	-0.921070
Br178	Br	1.580303	0.276091	-0.421070
