data_functionalizedCrystal
_audit_creation_method	'MofGen! by Chris Wilmer'
_symmetry_space_group_name_H-M	'P1'
_symmetry_Int_Tables_number	1
_symmetry_cell_setting	triclinic
loop_
_symmetry_equiv_pos_as_xyz
  x,y,z
_cell_length_a	10.489741
_cell_length_b	10.489741
_cell_length_c	8.965430
_cell_angle_alpha	90.000707
_cell_angle_beta	89.998843
_cell_angle_gamma	84.539174
loop_
_atom_site_label
_atom_site_type_symbol
_atom_site_fract_x
_atom_site_fract_y
_atom_site_fract_z
O1	O	1.694053	0.179958	-0.123946
O2	O	1.322858	0.196851	-0.123969
O3	O	1.516902	0.002807	-0.123948
O4	O	1.500009	0.374003	-0.123967
O5	O	1.516886	0.002820	0.124130
O6	O	1.322841	0.196864	0.124110
O7	O	1.694037	0.179971	0.124133
Cu8	Cu	1.508438	0.188419	0.146773
Cu9	Cu	1.508457	0.188404	-0.146609
O10	O	1.499993	0.374016	0.124112
C11	C	1.275318	0.195582	0.000067
C12	C	1.133688	0.191765	0.000059
C13	C	1.065548	0.068300	0.000079
C14	C	0.973430	0.126617	-0.122237
C15	C	0.973447	0.126659	0.122349
C16	C	1.043435	0.250133	-0.122358
C17	C	1.043462	0.250158	0.122338
C18	C	0.951371	0.308564	-0.000007
C19	C	1.515618	-0.044718	0.000090
C20	C	1.511801	-0.186348	0.000087
C21	C	1.388336	-0.254488	0.000069
C22	C	1.446652	-0.346604	0.122388
C23	C	1.446697	-0.346591	-0.122198
C24	C	1.570167	-0.276599	0.122508
C25	C	1.570195	-0.276576	-0.122189
C26	C	1.628600	-0.368665	0.000161
C27	C	1.741577	0.181241	0.000093
C28	C	1.883206	0.185058	0.000092
C29	C	1.501277	0.421541	0.000070
C30	C	1.505094	0.563170	0.000063
N31	N	1.508433	0.188429	0.353122
N32	N	1.508471	0.188384	-0.352958
C33	C	1.418666	0.278138	0.450418
C34	C	1.534163	0.303949	0.549838
C35	C	1.392986	0.162629	0.549830
C36	C	1.623988	0.214298	0.450352
C37	C	1.482735	0.072927	0.450336
C38	C	1.598314	0.098690	0.549711
H39	H	1.074502	0.302361	0.225749
O40	O	1.267321	-0.195045	0.000124
C41	C	1.272551	-0.061237	-0.001156
H42	H	1.368419	-0.038143	-0.048900
H43	H	1.191491	-0.014639	-0.073164
H44	H	1.261969	-0.022726	0.117555
H45	H	1.115238	-0.033196	-0.000069
H46	H	1.394404	-0.377610	0.225794
O47	O	1.080346	0.312517	-0.245716
C48	C	1.142123	0.420188	-0.202080
H49	H	1.181095	0.405207	-0.084040
H50	H	1.224482	0.433239	-0.281892
H51	H	1.070749	0.509183	-0.205024
O52	O	1.749730	-0.427825	0.000134
C53	C	1.744837	-0.561679	-0.001075
H54	H	1.649015	-0.585033	-0.048704
H55	H	1.825942	-0.608106	-0.073147
H56	H	1.755599	-0.600134	0.117644
O57	O	1.384382	-0.383344	-0.245683
C58	C	1.343203	-0.274531	-0.331525
H59	H	1.404860	-0.193768	-0.304374
H60	H	1.352623	-0.299220	-0.455110
H61	H	1.238828	-0.242616	-0.304507
O62	O	1.560340	0.420355	0.602072
C63	C	1.673057	0.406158	0.688557
H64	H	1.733193	0.314507	0.654576
H65	H	1.730325	0.491772	0.669391
H66	H	1.646802	0.400715	0.811636
H67	H	1.721659	0.236216	0.406840
H68	H	1.674327	0.022803	0.593034
O69	O	1.456509	-0.043490	0.398210
C70	C	1.334636	-0.070307	0.448837
H71	H	1.274955	0.023179	0.476798
H72	H	1.284673	-0.122866	0.357814
H73	H	1.345729	-0.132919	0.552834
H74	H	0.942422	0.074371	-0.225643
H75	H	1.342824	0.354072	0.406821
H76	H	1.622355	-0.245761	0.226035
O77	O	0.936311	0.064500	0.245766
C78	C	0.852224	0.148262	0.331112
H79	H	0.805922	0.227523	0.256353
H80	H	0.774708	0.092718	0.382081
H81	H	0.908045	0.192274	0.423912
O82	O	0.892542	0.429830	0.000112
C83	C	0.929817	0.495214	0.127949
H84	H	1.025519	0.448257	0.170163
H85	H	0.939905	0.599485	0.098429
H86	H	0.854172	0.490774	0.218623
H87	H	1.622398	-0.245537	-0.225600
O88	O	1.276391	0.136760	0.601777
C89	C	1.182035	0.231624	0.551214
H90	H	1.217672	0.278689	0.446524
H91	H	1.090447	0.185804	0.524419
H92	H	1.161686	0.307085	0.641811
