data_functionalizedCrystal
_audit_creation_method	'MofGen! by Chris Wilmer'
_symmetry_space_group_name_H-M	'P1'
_symmetry_Int_Tables_number	1
_symmetry_cell_setting	triclinic
loop_
_symmetry_equiv_pos_as_xyz
  x,y,z
_cell_length_a	15.995350
_cell_length_b	17.038272
_cell_length_c	14.472310
_cell_angle_alpha	89.999298
_cell_angle_beta	89.990621
_cell_angle_gamma	87.301966
loop_
_atom_site_label
_atom_site_type_symbol
_atom_site_fract_x
_atom_site_fract_y
_atom_site_fract_z
O1	O	1.118175	0.100774	-0.076763
O2	O	1.618175	0.600774	0.423237
O3	O	0.875286	0.113219	-0.076782
O4	O	1.375286	0.613219	0.423218
O5	O	0.995287	-0.006819	-0.076766
O6	O	1.495287	0.493181	0.423234
O7	O	0.998174	0.220812	-0.076780
O8	O	1.498174	0.720812	0.423220
O9	O	0.995254	-0.006812	0.076916
O10	O	1.495254	0.493188	0.576916
O11	O	0.875253	0.113226	0.076900
O12	O	1.375253	0.613226	0.576900
O13	O	1.118142	0.100781	0.076919
O14	O	1.618142	0.600781	0.576919
Cu15	Cu	0.996695	0.107004	0.090942
Cu16	Cu	1.496695	0.607004	0.590942
Cu17	Cu	0.996733	0.106996	-0.090805
Cu18	Cu	1.496733	0.606996	0.409195
O19	O	0.998141	0.220819	0.076902
O20	O	1.498141	0.720819	0.576902
C21	C	0.844038	0.112708	0.000056
C22	C	1.344038	0.612708	0.500056
C23	C	0.750978	0.111165	0.000049
C24	C	1.250978	0.611165	0.500049
C25	C	0.412836	0.105626	0.000069
C26	C	0.912836	0.605626	0.500069
C27	C	0.454180	0.020137	0.000417
C28	C	0.954180	0.520137	0.500417
C29	C	0.550981	0.021680	0.000064
C30	C	1.050981	0.521680	0.500064
C31	C	0.580592	0.108374	0.000060
C32	C	1.080592	0.608374	0.500060
C33	C	0.542527	0.150536	-0.087699
C34	C	1.042527	0.650536	0.412301
C35	C	0.445739	0.148388	-0.087766
C36	C	0.945739	0.648388	0.412234
C37	C	0.445488	0.150162	0.086999
C38	C	0.945488	0.650162	0.586999
C39	C	0.542432	0.150142	0.088152
C40	C	1.042432	0.650142	0.588152
C41	C	0.675401	0.109931	0.000051
C42	C	1.175401	0.609931	0.500051
C43	C	0.318027	0.104071	0.000071
C44	C	0.818027	0.604071	0.500071
C45	C	0.992645	-0.035945	0.000075
C46	C	1.492645	0.464055	0.500075
C47	C	0.984810	-0.122740	0.000074
C48	C	1.484810	0.377260	0.500074
C49	C	1.056739	-0.172836	0.000081
C50	C	1.556739	0.327164	0.500081
C51	C	1.049373	-0.254389	0.000072
C52	C	1.549373	0.245611	0.500072
C53	C	0.970077	-0.285843	0.000062
C54	C	1.470077	0.214157	0.500062
C55	C	0.898143	-0.235740	0.000053
C56	C	1.398143	0.264260	0.500053
C57	C	0.905510	-0.154189	0.000056
C58	C	1.405510	0.345811	0.500056
C59	C	0.944051	-0.531607	0.000047
C60	C	1.444051	-0.031607	0.500047
C61	C	0.936689	-0.613164	0.000048
C62	C	1.436689	-0.113164	0.500048
C63	C	1.087920	-0.631807	0.000065
C64	C	1.587920	-0.131807	0.500065
C65	C	1.095280	-0.550254	0.000073
C66	C	1.595280	-0.050254	0.500073
C67	C	1.023346	-0.500158	0.000059
C68	C	1.523346	-0.000158	0.500059
C69	C	0.962546	-0.369202	0.000056
C70	C	1.462546	0.130798	0.500056
C71	C	1.030878	-0.416801	0.000059
C72	C	1.530878	0.083199	0.500059
C73	C	1.149390	0.101292	0.000078
C74	C	1.649390	0.601292	0.500078
C75	C	1.242450	0.102834	0.000079
C76	C	1.742450	0.602834	0.500079
C77	C	1.000784	0.249944	0.000059
C78	C	1.500784	0.749944	0.500059
C79	C	1.008618	0.336739	0.000054
C80	C	1.508618	0.836739	0.500054
N81	N	0.996674	0.107009	0.218773
N82	N	1.496674	0.607009	0.718773
N83	N	0.996761	0.106984	-0.218636
N84	N	1.496761	0.606984	0.281364
C85	C	0.996732	0.106993	0.592864
C86	C	1.496732	0.606993	1.092864
C87	C	0.932276	0.171007	0.553689
C88	C	1.432276	0.671007	1.053689
C89	C	0.932452	0.171241	0.446601
C90	C	1.432452	0.671241	0.946601
C91	C	0.996702	0.107001	0.407273
C92	C	1.496702	0.607001	0.907273
C93	C	1.085336	0.124819	0.446115
C94	C	1.585336	0.624819	0.946115
C95	C	1.084981	0.125274	0.553237
C96	C	1.584981	0.625274	1.053237
C97	C	0.973320	0.024970	0.553397
C98	C	1.473320	0.524970	1.053397
C99	C	0.971356	0.025517	0.446269
C100	C	1.471356	0.525517	0.946269
C101	C	0.996691	0.107004	0.302385
C102	C	1.496691	0.607004	0.802385
C103	C	0.996749	0.106991	0.697752
C104	C	1.496749	0.606991	1.197752
H105	H	0.576475	-0.011692	-0.062951
H106	H	1.076475	0.488308	0.437049
H107	H	1.134751	0.080487	0.579149
H108	H	1.634751	0.580487	1.079149
H109	H	0.433211	-0.014032	0.063353
H110	H	0.933211	0.485968	0.563353
C111	C	0.843696	0.156913	0.411122
C112	C	1.343696	0.656913	0.911122
N113	N	0.776840	0.146126	0.384404
N114	N	1.276840	0.646126	0.884404
H115	H	0.947652	0.231532	0.580596
H116	H	1.447652	0.731532	1.080596
H117	H	0.432177	-0.013880	-0.062167
H118	H	0.932177	0.486120	0.437833
C119	C	0.883230	0.007250	0.411980
C120	C	1.383230	0.507250	0.911980
N121	N	0.816853	-0.006506	0.386149
N122	N	1.316853	0.493494	0.886149
H123	H	0.422948	0.122217	0.153518
H124	H	0.922948	0.622217	0.653518
H125	H	0.567542	0.119364	0.153076
H126	H	1.067542	0.619364	0.653076
C127	C	0.887458	0.001840	0.589924
C128	C	1.387458	0.501840	1.089924
N129	N	0.822783	-0.015572	0.617437
N130	N	1.322783	0.484428	1.117437
C131	C	0.953471	0.253469	0.411962
C132	C	1.453471	0.753469	0.911962
N133	N	0.969308	0.315406	0.385874
N134	N	1.469308	0.815406	0.885874
C135	C	0.843257	0.156917	0.588542
C136	C	1.343257	0.656917	1.088542
N137	N	0.776207	0.146306	0.614806
N138	N	1.276207	0.646306	1.114806
H139	H	0.425254	0.117636	-0.153365
H140	H	0.925254	0.617636	0.346635
H141	H	0.562300	0.213362	0.093450
H142	H	1.062300	0.713362	0.593450
C143	C	1.152011	0.063509	0.411697
C144	C	1.652011	0.563509	0.911697
N145	N	1.202229	0.017329	0.385770
N146	N	1.702229	0.517329	0.885770
C147	C	0.408211	0.233178	-0.093171
C148	C	0.908211	0.733178	0.406829
N149	N	0.379949	0.297040	-0.097251
N150	N	0.879949	0.797040	0.402749
C151	C	1.128501	-0.309492	0.000094
C152	C	1.628501	0.190508	0.500094
N153	N	1.188104	-0.350995	0.000115
N154	N	1.688104	0.149005	0.500115
C155	C	1.182511	-0.515661	0.000084
C156	C	1.682511	-0.015661	0.500084
N157	N	1.248215	-0.489606	0.000096
N158	N	1.748215	0.010394	0.500096
C159	C	1.112439	0.204716	0.409869
C160	C	1.612439	0.704716	0.909869
N161	N	1.132847	0.264898	0.382574
N162	N	1.632847	0.764898	0.882574
C163	C	0.875322	-0.403810	0.000065
C164	C	1.375322	0.096190	0.500065
N165	N	0.809626	-0.429880	0.000075
N166	N	1.309626	0.070120	0.500075
C167	C	1.111637	0.206091	0.586977
C168	C	1.611637	0.706091	1.086977
N169	N	1.131708	0.266967	0.612385
N170	N	1.631708	0.766967	1.112385
H171	H	0.846938	-0.113400	0.000050
H172	H	1.346938	0.386600	0.500050
C173	C	0.408642	0.235312	0.087799
C174	C	0.908642	0.735312	0.587799
N175	N	0.380885	0.299444	0.088396
N176	N	0.880885	0.799444	0.588396
C177	C	1.143971	-0.138245	0.000091
C178	C	1.643971	0.361755	0.500091
N179	N	1.209676	-0.112193	0.000095
N180	N	1.709676	0.387807	0.500095
C181	C	1.167041	-0.686919	0.000072
C182	C	1.667041	-0.186919	0.500072
N183	N	1.226639	-0.728429	0.000073
N184	N	1.726639	-0.228429	0.500073
C185	C	0.810917	-0.270342	0.000050
C186	C	1.310917	0.229658	0.500050
N187	N	0.745216	-0.296404	0.000055
N188	N	1.245216	0.203596	0.500055
H189	H	0.561190	0.214227	-0.090966
H190	H	1.061190	0.714227	0.409034
C191	C	0.849455	-0.647761	0.000030
C192	C	1.349455	-0.147761	0.500030
N193	N	0.783752	-0.673820	0.000017
N194	N	1.283752	-0.173820	0.500017
H195	H	0.885477	-0.490828	0.000036
H196	H	1.385477	0.009172	0.500036
C197	C	1.030069	-0.041853	0.410127
C198	C	1.530069	0.458147	0.910127
N199	N	1.074304	-0.092594	0.382913
N200	N	1.574304	0.407406	0.882913
C201	C	1.036725	-0.039387	0.587627
C202	C	1.536725	0.460613	1.087627
N203	N	1.084483	-0.087856	0.613415
N204	N	1.584483	0.412144	1.113415
H205	H	0.577035	-0.011462	0.062974
H206	H	1.077035	0.488538	0.562974
H207	H	0.568829	0.121246	-0.153008
H208	H	1.068829	0.621246	0.346992
H209	H	1.095440	-0.391187	0.000046
H210	H	1.595440	0.108813	0.500046
