data_functionalizedCrystal
_audit_creation_method	'MofGen! by Chris Wilmer'
_symmetry_space_group_name_H-M	'P1'
_symmetry_Int_Tables_number	1
_symmetry_cell_setting	triclinic
loop_
_symmetry_equiv_pos_as_xyz
  x,y,z
_cell_length_a	21.395362
_cell_length_b	14.908520
_cell_length_c	21.395355
_cell_angle_alpha	86.719675
_cell_angle_beta	90.043940
_cell_angle_gamma	93.337688
loop_
_atom_site_label
_atom_site_type_symbol
_atom_site_fract_x
_atom_site_fract_y
_atom_site_fract_z
Zn1	Zn	0.943513	-0.358891	0.368965
Zn2	Zn	1.443513	0.141109	0.868965
Zn3	Zn	0.937386	-0.509736	0.270231
Zn4	Zn	1.437386	-0.009736	0.770231
Zn5	Zn	0.838727	-0.358933	0.264168
Zn6	Zn	1.338727	0.141067	0.764168
Zn7	Zn	0.832667	-0.509755	0.374937
Zn8	Zn	1.332667	-0.009755	0.874937
O9	O	0.888073	-0.434329	0.319575
O10	O	1.388073	0.065671	0.819575
O11	O	1.030380	-0.378876	0.355906
O12	O	1.530380	0.121124	0.855906
O13	O	0.924270	-0.489742	0.181749
O14	O	1.424270	0.010258	0.681749
O15	O	0.857727	-0.232679	0.273033
O16	O	1.357727	0.267321	0.773033
O17	O	1.025878	-0.489701	0.283367
O18	O	1.525878	0.010299	0.783367
O19	O	0.934713	-0.232649	0.350027
O20	O	1.434713	0.267351	0.850027
O21	O	0.851786	-0.378948	0.177295
O22	O	1.351786	0.121052	0.677295
O23	O	0.750244	-0.378966	0.278823
O24	O	1.250244	0.121034	0.778823
O25	O	0.847399	-0.489733	0.461822
O26	O	1.347399	0.010267	0.961822
O27	O	0.745792	-0.489773	0.360205
O28	O	1.245792	0.010227	0.860205
O29	O	0.928838	-0.378894	0.457435
O30	O	1.428838	0.121106	0.957435
O31	O	0.918395	-0.635987	0.289157
O32	O	1.418395	-0.135987	0.789157
O33	O	0.841458	-0.636001	0.366084
O34	O	1.341458	-0.136001	0.866084
C35	C	0.725284	-0.434377	0.319504
C36	C	1.225284	0.065623	0.819504
C37	C	0.655641	-0.434419	0.319490
C38	C	1.155641	0.065581	0.819490
C39	C	0.620623	-0.492193	0.361808
C40	C	1.120623	0.007807	0.861808
C41	C	0.555188	-0.492171	0.361835
C42	C	1.055188	0.007829	0.861835
C43	C	0.524774	-0.434384	0.319533
C44	C	1.024774	0.065616	0.819533
C45	C	0.559800	-0.376599	0.277212
C46	C	1.059800	0.123401	0.777212
C47	C	0.625234	-0.376616	0.277190
C48	C	1.125234	0.123384	0.777190
C49	C	0.421340	-0.427116	0.262837
C50	C	0.921340	0.072884	0.762837
C51	C	0.355907	-0.427105	0.262858
C52	C	0.855907	0.072895	0.762858
C53	C	0.322956	-0.434325	0.319600
C54	C	0.822956	0.065675	0.819600
C55	C	0.355444	-0.441575	0.376324
C56	C	0.855444	0.058425	0.876324
C57	C	0.420877	-0.441593	0.376302
C58	C	0.920877	0.058407	0.876302
C59	C	0.453823	-0.434358	0.319552
C60	C	0.953823	0.065642	0.819552
C61	C	0.216986	-0.492079	0.361951
C62	C	0.716986	0.007921	0.861951
C63	C	0.151550	-0.492050	0.361979
C64	C	0.651550	0.007950	0.861979
C65	C	0.156163	-0.376483	0.277350
C66	C	0.656163	0.123517	0.777350
C67	C	0.221598	-0.376506	0.277327
C68	C	0.721598	0.123494	0.777327
C69	C	0.252005	-0.434309	0.319627
C70	C	0.752005	0.065691	0.819627
C71	C	0.878621	-0.668729	0.328940
C72	C	1.378621	-0.168729	0.828940
C73	C	0.874634	-0.769006	0.332968
C74	C	1.374634	-0.269006	0.832968
C75	C	0.947340	-0.957362	0.260497
C76	C	1.447340	-0.457362	0.760497
C77	C	0.943596	-1.051582	0.264279
C78	C	1.443596	-0.551582	0.764279
C79	C	0.863407	-1.051666	0.344317
C80	C	1.363407	-0.551666	0.844317
C81	C	0.867151	-0.957446	0.340535
C82	C	1.367151	-0.457446	0.840535
C83	C	0.909118	-0.910298	0.298623
C84	C	1.409118	-0.410298	0.798623
C85	C	0.912858	-0.816077	0.294838
C86	C	1.412858	-0.316077	0.794838
C87	C	0.832672	-0.816163	0.374879
C88	C	1.332672	-0.316163	0.874879
C89	C	0.828929	-0.910382	0.378661
C90	C	1.328929	-0.410382	0.878661
C91	C	1.051498	-0.434282	0.319647
C92	C	1.551498	0.065718	0.819647
C93	C	1.121141	-0.434262	0.319677
C94	C	1.621141	0.065738	0.819677
C95	C	0.888126	-0.434311	0.482998
C96	C	1.388126	0.065689	0.982998
C97	C	0.888148	-0.434303	0.552639
C98	C	1.388148	0.065697	1.052639
C99	C	0.897580	-0.199014	0.310187
C100	C	1.397580	0.300986	0.810187
C101	C	0.901631	-0.098737	0.306187
C102	C	1.401631	0.401263	0.806187
C103	C	0.888059	-0.434282	0.156786
C104	C	1.388059	0.065718	0.656786
C105	C	0.888169	-0.434036	0.087135
C106	C	1.388169	0.065964	0.587135
C107	C	0.930552	-0.376587	0.583068
C108	C	1.430552	0.123413	1.083068
C109	C	0.930553	-0.376548	0.648502
C110	C	1.430553	0.123452	1.148502
C111	C	0.888156	-0.434242	0.683505
C112	C	1.388156	0.065758	1.183505
C113	C	0.845745	-0.491962	0.653068
C114	C	1.345745	0.008038	1.153068
C115	C	0.845741	-0.491992	0.587635
C116	C	1.345741	0.008008	1.087635
C117	C	0.879933	-0.515477	0.790423
C118	C	1.379933	-0.015477	1.290423
C119	C	0.879941	-0.515447	0.855855
C120	C	1.379941	-0.015447	1.355855
C121	C	0.888164	-0.434146	0.885322
C122	C	1.388164	0.065854	1.385322
C123	C	0.896392	-0.352872	0.849348
C124	C	1.396392	0.147128	1.349348
C125	C	0.896388	-0.352902	0.783915
C126	C	1.396388	0.147098	1.283915
C127	C	0.888155	-0.434214	0.754456
C128	C	1.388155	0.065786	1.254456
C129	C	0.930570	-0.376383	0.986702
C130	C	1.430570	0.123617	1.486702
C131	C	0.930566	-0.376343	1.052137
C132	C	1.430566	0.123657	1.552137
C133	C	0.845761	-0.491764	1.056701
C134	C	1.345761	0.008236	1.556701
C135	C	0.845762	-0.491797	0.991267
C136	C	1.345762	0.008203	1.491267
C137	C	0.888170	-0.434107	0.956272
C138	C	1.388170	0.065893	1.456272
H139	H	0.526671	-0.539217	0.396298
H140	H	1.026671	-0.039217	0.896298
H141	H	0.801547	-0.777832	0.405921
H142	H	1.301547	-0.277832	0.905921
O143	O	0.871059	-0.603169	0.758642
O144	O	1.371059	-0.103169	1.258642
H145	H	0.825123	-0.636834	0.772522
H146	H	1.325123	-0.136834	1.272522
O147	O	0.800015	-0.554185	0.690819
O148	O	1.300015	-0.054185	1.190819
H149	H	0.770524	-0.594320	0.658664
H150	H	1.270524	-0.094320	1.158664
O151	O	0.320872	-0.419293	0.201678
O152	O	0.820872	0.080707	0.701678
H153	H	0.269836	-0.420509	0.211224
H154	H	0.769836	0.079491	0.711224
H155	H	0.811208	-0.538991	0.562859
H156	H	1.311208	-0.038991	1.062859
O157	O	0.455922	-0.449393	0.437477
O158	O	0.955922	0.050607	0.937477
H159	H	0.422021	-0.454403	0.476941
H160	H	0.922021	0.045597	0.976941
H161	H	0.328616	-0.447453	0.422529
H162	H	0.828616	0.052547	0.922529
H163	H	0.645376	-0.539259	0.396253
H164	H	1.145376	-0.039259	0.896253
H165	H	0.811236	-0.538801	0.966492
H166	H	1.311236	-0.038801	1.466492
O167	O	0.783668	-0.961243	0.423863
O168	O	1.283668	-0.461243	0.923863
H169	H	0.757721	-0.912684	0.449741
H170	H	1.257721	-0.412684	0.949741
H171	H	0.250110	-0.329465	0.242864
H172	H	0.750110	0.170535	0.742864
O173	O	0.905262	-0.265176	0.881123
O174	O	1.405262	0.234824	1.381123
H175	H	0.910988	-0.208672	0.845117
H176	H	1.410988	0.291328	1.345117
O177	O	0.123364	-0.314163	0.231719
O178	O	0.623364	0.185837	0.731719
H179	H	0.095443	-0.268318	0.257990
H180	H	0.595443	0.231682	0.757990
H181	H	0.947028	-0.777689	0.260709
H182	H	1.447028	-0.277689	0.760709
H183	H	0.241745	-0.539140	0.396397
H184	H	0.741745	-0.039140	0.896397
O185	O	0.976305	-0.314155	0.948956
O186	O	1.476305	0.185845	1.448956
H187	H	1.006556	-0.354541	0.920794
H188	H	1.506556	0.145459	1.420794
H189	H	0.829244	-1.090070	0.378444
H190	H	1.329244	-0.590070	0.878444
O191	O	0.984817	-1.102348	0.223154
O192	O	1.484817	-0.602348	0.723154
H193	H	1.014623	-1.053731	0.193373
H194	H	1.514623	-0.553731	0.693373
O195	O	0.905258	-0.265247	0.745118
O196	O	1.405258	0.234753	1.245118
H197	H	0.903879	-0.278932	0.694670
H198	H	1.403879	0.221068	1.194670
H199	H	0.448164	-0.421233	0.216627
H200	H	0.948164	0.078767	0.716627
O201	O	0.976304	-0.314091	1.084963
O202	O	1.476304	0.185909	1.584963
H203	H	1.005794	-0.273991	1.049633
H204	H	1.505794	0.226009	1.549633
O205	O	0.527001	-0.314289	0.231571
O206	O	1.027001	0.185711	0.731571
H207	H	0.475617	-0.323996	0.238686
H208	H	0.975617	0.176004	0.738686
H209	H	0.653745	-0.329567	0.242729
H210	H	1.153745	0.170433	0.742729
H211	H	0.123040	-0.539095	0.396443
H212	H	0.623040	-0.039095	0.896443
O213	O	0.992600	-0.906499	0.215295
O214	O	1.492600	-0.406499	0.715295
H215	H	1.018552	-0.955056	0.189419
H216	H	1.518552	-0.455056	0.689419
H217	H	0.965083	-0.329610	0.554579
H218	H	1.465083	0.170390	1.054579
H219	H	0.965081	-0.329544	0.673283
H220	H	1.465081	0.170456	1.173283
H221	H	0.873245	-0.581626	0.885140
H222	H	1.373245	-0.081626	1.385140
O223	O	0.800031	-0.553993	1.094443
O224	O	1.300031	-0.053993	1.594443
H225	H	0.807158	-0.544280	1.145056
H226	H	1.307158	-0.044280	1.645056
