data_functionalizedCrystal
_audit_creation_method	'MofGen! by Chris Wilmer'
_symmetry_space_group_name_H-M	'P1'
_symmetry_Int_Tables_number	1
_symmetry_cell_setting	triclinic
loop_
_symmetry_equiv_pos_as_xyz
  x,y,z
_cell_length_a	11.169417
_cell_length_b	13.897448
_cell_length_c	11.169409
_cell_angle_alpha	89.964424
_cell_angle_beta	89.978317
_cell_angle_gamma	90.016630
loop_
_atom_site_label
_atom_site_type_symbol
_atom_site_fract_x
_atom_site_fract_y
_atom_site_fract_z
Zn1	Zn	-1.834901	0.383964	0.678575
Zn2	Zn	-1.834765	0.545300	0.477881
Zn3	Zn	-1.634187	0.384017	0.477903
Zn4	Zn	-1.634169	0.545216	0.678519
O5	O	-1.734505	0.464624	0.578220
O6	O	-2.002833	0.405378	0.651967
O7	O	-1.808108	0.523963	0.309934
O8	O	-1.660877	0.249029	0.504555
O9	O	-2.002732	0.523911	0.504517
O10	O	-1.808341	0.248990	0.651988
O11	O	-1.660745	0.405469	0.309950
O12	O	-1.466235	0.405388	0.504501
O13	O	-1.660846	0.523768	0.846476
O14	O	-1.466221	0.523820	0.651893
O15	O	-1.808323	0.405297	0.846518
O16	O	-1.808090	0.680270	0.504463
O17	O	-1.660713	0.680209	0.651871
C18	C	-1.422681	0.464601	0.578194
C19	C	-1.289281	0.464615	0.578212
C20	C	-1.734418	0.715239	0.578185
C21	C	-1.734490	0.822453	0.578210
C22	C	-1.734597	0.464517	0.891262
C23	C	-1.734637	0.464472	1.024662
C24	C	-1.047548	0.464640	0.578236
C25	C	-1.180948	0.464626	0.578219
C26	C	-1.734626	0.213031	0.578281
C27	C	-1.734677	0.105817	0.578307
C28	C	-1.734616	1.018748	0.578285
C29	C	-1.734543	0.909515	0.578247
C30	C	-1.734483	0.464661	0.266395
C31	C	-1.734676	0.464435	0.132995
