data_functionalizedCrystal
_audit_creation_method	'MofGen! by Chris Wilmer'
_symmetry_space_group_name_H-M	'P1'
_symmetry_Int_Tables_number	1
_symmetry_cell_setting	triclinic
loop_
_symmetry_equiv_pos_as_xyz
  x,y,z
_cell_length_a	19.077105
_cell_length_b	12.759400
_cell_length_c	12.759393
_cell_angle_alpha	90.030609
_cell_angle_beta	87.681091
_cell_angle_gamma	92.288832
loop_
_atom_site_label
_atom_site_type_symbol
_atom_site_fract_x
_atom_site_fract_y
_atom_site_fract_z
Zn1	Zn	1.076055	0.482844	-0.658529
Zn2	Zn	1.576055	0.982844	-0.158529
Zn3	Zn	1.075985	0.658556	-0.482845
Zn4	Zn	1.575985	1.158556	0.017155
Zn5	Zn	0.958353	0.475826	-0.475808
Zn6	Zn	1.458353	0.975826	0.024192
Zn7	Zn	0.958345	0.651412	-0.651429
Zn8	Zn	1.458345	1.151412	-0.151429
O9	O	1.017184	0.567160	-0.567153
O10	O	1.517184	1.067160	-0.067153
O11	O	1.174538	0.512080	-0.641140
O12	O	1.674538	1.012080	-0.141140
O13	O	1.060355	0.634369	-0.334889
O14	O	1.560355	1.134369	0.165111
O15	O	0.973999	0.329738	-0.500072
O16	O	1.473999	0.829738	-0.000072
O17	O	1.174486	0.641174	-0.512066
O18	O	1.674486	1.141174	-0.012066
O19	O	1.060475	0.334894	-0.634317
O20	O	1.560475	0.834894	-0.134317
O21	O	0.973931	0.500119	-0.329719
O22	O	1.473931	1.000119	0.170281
O23	O	0.859860	0.493191	-0.493188
O24	O	1.359860	0.993191	0.006812
O25	O	0.973986	0.628998	-0.799394
O26	O	1.473986	1.128998	-0.299394
O27	O	0.859854	0.622193	-0.622217
O28	O	1.359854	1.122193	-0.122217
O29	O	1.060467	0.505152	-0.804610
O30	O	1.560467	1.005152	-0.304610
O31	O	1.060347	0.804627	-0.505182
O32	O	1.560347	1.304627	-0.005182
O33	O	0.973917	0.799379	-0.629040
O34	O	1.473917	1.299379	-0.129040
C35	C	1.017143	0.840125	-0.567128
C36	C	1.517143	1.340125	-0.067128
C37	C	1.017189	0.956904	-0.567157
C38	C	1.517189	1.456904	-0.067157
C39	C	0.834319	0.556156	-0.556169
C40	C	1.334319	1.056156	-0.056169
C41	C	0.756089	0.551474	-0.551495
C42	C	1.256089	1.051474	-0.051495
C43	C	1.017233	0.567061	-0.841189
C44	C	1.517233	1.067061	-0.341189
C45	C	1.017254	0.567019	-0.957967
C46	C	1.517254	1.067019	-0.457967
C47	C	0.719351	0.616540	-0.616372
C48	C	1.219351	1.116540	-0.116372
C49	C	0.645845	0.612127	-0.611986
C50	C	1.145845	1.112127	-0.111986
C51	C	0.609078	0.542653	-0.542716
C52	C	1.109078	1.042653	-0.042716
C53	C	0.645821	0.477580	-0.477837
C54	C	1.145821	0.977580	0.022163
C55	C	0.719325	0.481988	-0.482229
C56	C	1.219325	0.981988	0.017771
C57	C	0.389241	0.522250	-0.522392
C58	C	0.889241	1.022250	-0.022392
C59	C	0.315732	0.517848	-0.518002
C60	C	0.815732	1.017848	-0.018002
C61	C	0.315761	0.652395	-0.652153
C62	C	0.815761	1.152395	-0.152153
C63	C	0.389267	0.656802	-0.656535
C64	C	0.889267	1.156802	-0.156535
C65	C	0.426003	0.591725	-0.591659
C66	C	0.926003	1.091725	-0.091659
N67	N	0.533943	0.538143	-0.538229
N68	N	1.033943	1.038143	-0.038229
N69	N	0.501137	0.596231	-0.596153
N70	N	1.001137	1.096231	-0.096153
C71	C	1.200764	0.578207	-0.578180
C72	C	1.700764	1.078207	-0.078180
C73	C	1.278994	0.582914	-0.582879
C74	C	1.778994	1.082914	-0.082879
C75	C	1.017246	0.293130	-0.567201
C76	C	1.517246	0.793130	-0.067201
C77	C	1.017272	0.176355	-0.567222
C78	C	1.517272	0.676355	-0.067222
C79	C	1.062243	1.014467	-0.502741
C80	C	1.562243	1.514467	-0.002741
C81	C	1.062286	1.124194	-0.502776
C82	C	1.562286	1.624194	-0.002776
C83	C	0.972216	1.118784	-0.631645
C84	C	1.472216	1.618784	-0.131645
C85	C	0.972177	1.009060	-0.631615
C86	C	1.472177	1.509060	-0.131615
C87	C	1.114242	1.017591	-0.428336
C88	C	1.614242	1.517591	0.071664
C89	C	1.114286	1.127318	-0.428371
C90	C	1.614286	1.627318	0.071629
C91	C	1.062307	0.502477	-1.125273
C92	C	1.562307	1.002477	-0.625273
C93	C	1.062290	0.502520	-1.015548
C94	C	1.562290	1.002520	-0.515548
C95	C	0.972237	0.631488	-1.010117
C96	C	1.472237	1.131488	-0.510117
C97	C	0.972258	0.631450	-1.119841
C98	C	1.472258	1.131450	-0.619841
C99	C	1.114296	0.428015	-1.128407
C100	C	1.614296	0.928015	-0.628407
C101	C	1.114279	0.428058	-1.018682
C102	C	1.614279	0.928058	-0.518682
C103	C	1.017176	0.567184	-0.294185
C104	C	1.517176	1.067184	0.205815
C105	C	1.017292	0.566939	-0.177416
C106	C	1.517292	1.066939	0.322584
H107	H	0.749282	0.673118	-0.672775
H108	H	1.249282	1.173118	-0.172775
O109	O	0.428849	0.452084	-0.452386
O110	O	0.928849	0.952084	0.047614
H111	H	0.414751	0.368800	-0.469679
H112	H	0.914751	0.868800	0.030321
H113	H	1.166073	1.164373	-0.460689
H114	H	1.666073	1.664373	0.039311
O115	O	1.182856	0.470796	-0.977713
O116	O	1.682856	0.970796	-0.477713
H117	H	1.173014	0.540631	-0.928172
H118	H	1.673014	1.040631	-0.428172
H119	H	0.615879	0.421007	-0.421441
H120	H	1.115879	0.921007	0.078559
O121	O	1.094949	0.319135	-0.978078
O122	O	1.594949	0.819135	-0.478078
H123	H	1.085492	0.265778	-1.045217
H124	H	1.585492	0.765778	-0.545217
O125	O	1.186422	0.982370	-0.461615
O126	O	1.686422	1.482370	0.038385
H127	H	1.207545	0.935358	-0.397781
H128	H	1.707545	1.435358	0.102219
O129	O	0.606219	0.682506	-0.681757
O130	O	1.106219	1.182506	-0.181757
H131	H	0.644134	0.731638	-0.730579
H132	H	1.144134	1.231638	-0.230579
H133	H	1.094731	0.982471	-0.349839
H134	H	1.594731	1.482471	0.150161
O135	O	1.094991	1.165729	-0.319426
O136	O	1.594991	1.665729	0.180574
H137	H	1.085502	1.097514	-0.266064
H138	H	1.585502	1.597514	0.233936
O139	O	0.923708	0.700976	-1.176086
O140	O	1.423708	1.200976	-0.676086
H141	H	0.892386	0.745829	-1.117614
H142	H	1.392386	1.245829	-0.617614
H143	H	1.168808	0.453074	-1.161452
H144	H	1.668808	0.953074	-0.661452
H145	H	0.935573	0.684011	-0.963227
H146	H	1.435573	1.184011	-0.463227
H147	H	0.419198	0.713378	-0.712939
H148	H	0.919198	1.213378	-0.212939
H149	H	1.094790	0.349538	-1.161282
H150	H	1.594790	0.849538	-0.661282
O151	O	0.758955	0.411823	-0.412244
O152	O	1.258955	0.911823	0.087756
H153	H	0.721041	0.362782	-0.363328
H154	H	1.221041	0.862782	0.136672
H155	H	0.285843	0.705376	-0.704972
H156	H	0.785843	1.205376	-0.204972
H157	H	0.285798	0.461262	-0.461601
H158	H	0.785798	0.961262	0.038399
H159	H	0.935569	1.161263	-0.684126
H160	H	1.435569	1.661263	-0.184126
O161	O	0.923576	0.946968	-0.701079
O162	O	1.423576	1.446968	-0.201079
H163	H	0.892275	1.001671	-0.745889
H164	H	1.392275	1.501671	-0.245889
