data_functionalizedCrystal
_audit_creation_method	'MofGen! by Chris Wilmer'
_symmetry_space_group_name_H-M	'P1'
_symmetry_Int_Tables_number	1
_symmetry_cell_setting	triclinic
loop_
_symmetry_equiv_pos_as_xyz
  x,y,z
_cell_length_a	17.699083
_cell_length_b	15.944551
_cell_length_c	16.176319
_cell_angle_alpha	89.992246
_cell_angle_beta	89.998611
_cell_angle_gamma	83.390877
loop_
_atom_site_label
_atom_site_type_symbol
_atom_site_fract_x
_atom_site_fract_y
_atom_site_fract_z
O1	O	1.004260	0.106222	-0.068632
O2	O	1.504260	0.606222	0.431368
O3	O	0.783905	0.120042	-0.068660
O4	O	1.283905	0.620042	0.431340
O5	O	0.900100	-0.009156	-0.068638
O6	O	1.400100	0.490844	0.431362
O7	O	0.888065	0.235419	-0.068654
O8	O	1.388065	0.735419	0.431346
O9	O	0.900084	-0.009164	0.068855
O10	O	1.400084	0.490836	0.568855
O11	O	0.783889	0.120033	0.068833
O12	O	1.283889	0.620033	0.568833
O13	O	1.004244	0.106214	0.068861
O14	O	1.504244	0.606214	0.568861
Cu15	Cu	0.894065	0.113123	0.081401
Cu16	Cu	1.394065	0.613123	0.581401
Cu17	Cu	0.894084	0.113133	-0.081200
Cu18	Cu	1.394084	0.613133	0.418800
O19	O	0.888049	0.235411	0.068839
O20	O	1.388049	0.735411	0.568839
C21	C	0.755700	0.119542	0.000083
C22	C	1.255700	0.619542	0.500083
C23	C	0.671679	0.118057	0.000073
C24	C	1.171679	0.618057	0.500073
C25	C	0.623187	0.193893	0.000068
C26	C	1.123187	0.693893	0.500068
C27	C	0.544242	0.192492	0.000079
C28	C	1.044242	0.692492	0.500079
C29	C	0.513789	0.115254	0.000089
C30	C	1.013789	0.615254	0.500089
C31	C	0.562287	0.039412	0.000096
C32	C	1.062287	0.539412	0.500096
C33	C	0.641231	0.040814	0.000091
C34	C	1.141231	0.540814	0.500091
C35	C	0.243914	0.033758	0.000117
C36	C	0.743914	0.533758	0.500117
C37	C	0.164964	0.032362	0.000119
C38	C	0.664964	0.532362	0.500119
C39	C	0.146925	0.185436	0.000105
C40	C	0.646925	0.685436	0.500105
C41	C	0.225869	0.186837	0.000100
C42	C	0.725869	0.686837	0.500100
C43	C	0.274360	0.110996	0.000112
C44	C	0.774360	0.610996	0.500112
C45	C	0.359962	0.112516	0.000102
C46	C	0.859962	0.612516	0.500102
C47	C	0.428189	0.113733	0.000093
C48	C	0.928189	0.613733	0.500093
C49	C	0.899593	-0.040453	0.000109
C50	C	1.399593	0.459547	0.500109
C51	C	0.898095	-0.133696	0.000109
C52	C	1.398095	0.366304	0.500109
C53	C	0.822492	-0.348393	0.000088
C54	C	1.322492	0.151607	0.500088
C55	C	0.857591	-0.409488	0.067885
C56	C	1.357591	0.090512	0.567885
C57	C	0.895385	-0.304416	0.000102
C58	C	1.395385	0.195584	0.500102
C59	C	0.857624	-0.409464	-0.067672
C60	C	1.357624	0.090536	0.432328
C61	C	0.892762	-0.469323	0.000092
C62	C	1.392762	0.030677	0.500092
C63	C	0.930505	-0.364283	0.067955
C64	C	1.430505	0.135717	0.567955
C65	C	0.930527	-0.364252	-0.067663
C66	C	1.430527	0.135748	0.432337
C67	C	0.965680	-0.425329	0.000150
C68	C	1.465680	0.074671	0.500150
C69	C	0.896894	-0.209417	0.000109
C70	C	1.396894	0.290583	0.500109
C71	C	0.891259	-0.564321	0.000092
C72	C	1.391259	-0.064321	0.500092
C73	C	1.032450	0.106713	0.000116
C74	C	1.532450	0.606713	0.500116
C75	C	1.116471	0.108199	0.000121
C76	C	1.616471	0.608199	0.500121
C77	C	0.888557	0.266708	0.000090
C78	C	1.388557	0.766708	0.500090
C79	C	0.890055	0.359951	0.000085
C80	C	1.390055	0.859951	0.500085
N81	N	0.894058	0.113116	0.195767
N82	N	1.394058	0.613116	0.695767
N83	N	0.894098	0.113133	-0.195565
N84	N	1.394098	0.613133	0.304435
C85	C	0.945524	0.055930	0.239040
C86	C	1.445524	0.555930	0.739040
C87	C	0.945528	0.055929	0.325588
C88	C	1.445528	0.555929	0.825588
C89	C	0.894068	0.113118	0.368859
C90	C	1.394068	0.613118	0.868859
C91	C	0.842596	0.170306	0.325579
C92	C	1.342596	0.670306	0.825579
C93	C	0.842589	0.170303	0.239034
C94	C	1.342589	0.670303	0.739034
C95	C	0.842622	0.170322	0.674608
C96	C	1.342622	0.670322	1.174608
C97	C	0.842634	0.170323	0.761159
C98	C	1.342634	0.670323	1.261159
C99	C	0.945561	0.055949	0.761161
C100	C	1.445561	0.555949	1.261161
C101	C	0.945554	0.055945	0.674616
C102	C	1.445554	0.555945	1.174616
C103	C	0.894080	0.113130	0.631343
C104	C	1.394080	0.613130	1.131343
C105	C	0.894075	0.113129	0.537499
C106	C	1.394075	0.613129	1.037499
C107	C	0.894076	0.113124	0.462702
C108	C	1.394076	0.613124	0.962702
H109	H	0.140173	-0.030538	0.000128
H110	H	0.640173	0.469462	0.500128
H111	H	0.826790	-0.429472	-0.124993
H112	H	1.326790	0.070528	0.375007
H113	H	0.826754	-0.429535	0.125194
H114	H	1.326754	0.070465	0.625194
H115	H	0.761987	-0.314958	0.000149
H116	H	1.261987	0.185042	0.500149
N117	N	1.041645	-0.467096	0.000185
N118	N	1.541645	0.032904	0.500185
N119	N	1.086035	-0.454616	-0.057465
N120	N	1.586035	0.045384	0.442535
H121	H	1.139685	-0.484116	-0.057439
H122	H	1.639685	0.015884	0.442561
H123	H	0.647975	0.256789	0.000060
H124	H	1.147975	0.756789	0.500060
H125	H	0.961303	-0.344360	0.125335
H126	H	1.461303	0.155640	0.625335
N127	N	0.690778	-0.036642	0.000103
N128	N	1.190778	0.463358	0.500103
N129	N	0.736844	-0.052935	0.058061
N130	N	1.236844	0.447065	0.558061
H131	H	0.771838	-0.107640	0.058073
H132	H	1.271838	0.392360	0.558073
H133	H	0.961339	-0.344183	-0.124975
H134	H	1.461339	0.155817	0.375025
N135	N	0.790051	0.228727	0.805362
N136	N	1.290051	0.728727	1.305362
N137	N	0.743084	0.202131	0.853666
N138	N	1.243084	0.702131	1.353666
H139	H	0.705948	0.243375	0.884885
H140	H	1.205948	0.743375	1.384885
N141	N	0.790030	0.228712	0.369790
N142	N	1.290030	0.728712	0.869790
N143	N	0.790042	0.228709	0.447062
N144	N	1.290042	0.728709	0.947062
H145	H	0.752917	0.269961	0.478286
H146	H	1.252917	0.769961	0.978286
H147	H	0.283386	-0.027997	0.000127
H148	H	0.783386	0.472003	0.500127
H149	H	0.987432	0.009364	0.203814
H150	H	1.487432	0.509364	0.703814
H151	H	0.987435	0.009364	0.360821
H152	H	1.487435	0.509364	0.860821
H153	H	0.987460	0.009379	0.639387
H154	H	1.487460	0.509379	1.139387
N155	N	0.256961	0.265742	0.000100
N156	N	0.756961	0.765742	0.500100
N157	N	0.242102	0.316827	0.058056
N158	N	0.742102	0.816827	0.558056
H159	H	0.264058	0.372557	0.058059
H160	H	0.764058	0.872557	0.558059
N161	N	0.531170	-0.039478	0.000115
N162	N	1.031170	0.460522	0.500115
N163	N	0.460684	-0.040721	0.000118
N164	N	0.960684	0.459279	0.500118
H165	H	0.438708	-0.096438	0.000130
H166	H	0.938708	0.403562	0.500130
H167	H	0.987472	0.009383	0.796403
H168	H	1.487472	0.509383	1.296403
H169	H	0.800711	0.216885	0.639382
H170	H	1.300711	0.716885	1.139382
N171	N	0.790009	0.228718	0.194840
N172	N	1.290009	0.728718	0.694840
N173	N	0.744066	0.279776	0.233483
N174	N	1.244066	0.779776	0.733483
H175	H	0.706927	0.321032	0.202273
H176	H	1.206927	0.821032	0.702273
H177	H	0.504763	0.254246	0.000074
H178	H	1.004763	0.754246	0.500074
N179	N	0.097380	0.262901	0.000095
N180	N	0.597380	0.762901	0.500095
N181	N	0.026896	0.261645	0.000101
N182	N	0.526896	0.761645	0.500101
H183	H	-0.008094	0.316353	0.000092
H184	H	0.491906	0.816353	0.500092
