data_functionalizedCrystal
_audit_creation_method	'MofGen! by Chris Wilmer'
_symmetry_space_group_name_H-M	'P1'
_symmetry_Int_Tables_number	1
_symmetry_cell_setting	triclinic
loop_
_symmetry_equiv_pos_as_xyz
  x,y,z
_cell_length_a	21.395362
_cell_length_b	18.215405
_cell_length_c	21.395356
_cell_angle_alpha	89.973047
_cell_angle_beta	89.964230
_cell_angle_gamma	90.040762
loop_
_atom_site_label
_atom_site_type_symbol
_atom_site_fract_x
_atom_site_fract_y
_atom_site_fract_z
Zn1	Zn	0.957834	-0.292706	-0.354580
Zn2	Zn	0.957762	-0.415770	-0.249800
Zn3	Zn	0.853064	-0.292756	-0.249781
Zn4	Zn	0.853029	-0.415769	-0.354505
O5	O	0.905422	-0.354250	-0.302166
O6	O	1.045503	-0.309010	-0.340720
O7	O	0.943859	-0.399472	-0.162119
O8	O	0.867007	-0.189765	-0.263706
O9	O	1.045450	-0.399424	-0.263738
O10	O	0.943981	-0.189728	-0.340702
O11	O	0.866937	-0.309094	-0.162106
O12	O	0.765382	-0.309094	-0.263634
O13	O	0.866947	-0.399424	-0.442192
O14	O	0.765356	-0.399472	-0.340573
O15	O	0.943947	-0.309010	-0.442248
O16	O	0.943824	-0.518754	-0.263666
O17	O	0.866877	-0.518754	-0.340592
C18	C	0.742635	-0.354289	-0.302094
C19	C	0.672994	-0.354323	-0.302077
C20	C	0.640283	-0.401446	-0.342080
C21	C	0.574848	-0.401428	-0.342108
C22	C	0.542125	-0.354295	-0.302122
C23	C	0.574843	-0.307164	-0.262117
C24	C	0.640277	-0.307178	-0.262094
C25	C	0.438408	-0.348375	-0.245717
C26	C	0.372975	-0.348366	-0.245738
C27	C	0.340305	-0.354247	-0.302191
C28	C	0.373075	-0.360153	-0.358625
C29	C	0.438509	-0.360167	-0.358602
C30	C	0.471173	-0.354274	-0.302142
C31	C	0.236642	-0.401352	-0.342227
C32	C	0.171205	-0.401329	-0.342256
C33	C	0.171202	-0.307069	-0.262260
C34	C	0.236637	-0.307088	-0.262236
C35	C	0.269353	-0.354234	-0.302219
C36	C	0.905356	-0.545456	-0.302136
C37	C	0.905385	-0.627255	-0.302144
C38	C	0.945546	-0.815425	-0.262163
C39	C	0.945574	-0.892284	-0.262178
C40	C	0.865379	-0.892323	-0.342215
C41	C	0.865355	-0.815466	-0.342203
C42	C	0.905437	-0.777019	-0.302173
C43	C	0.905490	-0.930735	-0.302200
C44	C	0.905520	-1.014068	-0.302217
C45	C	0.905408	-0.693680	-0.302157
C46	C	1.068846	-0.354212	-0.302240
C47	C	1.138487	-0.354195	-0.302271
C48	C	0.905451	-0.354211	-0.465590
C49	C	0.905463	-0.354195	-0.535231
C50	C	0.905506	-0.162297	-0.302210
C51	C	0.905542	-0.080498	-0.302229
C52	C	0.945587	-0.401100	-1.037035
C53	C	0.945575	-0.401124	-0.971600
C54	C	0.905523	-0.354078	-0.938870
C55	C	0.865468	-0.307019	-0.971580
C56	C	0.865476	-0.307002	-1.037014
C57	C	0.900592	-0.287802	-0.835214
C58	C	0.900588	-0.287818	-0.769781
C59	C	0.905495	-0.354130	-0.737049
C60	C	0.910418	-0.420430	-0.769757
C61	C	0.910426	-0.420413	-0.835192
C62	C	0.905510	-0.354092	-0.867917
C63	C	0.945533	-0.401216	-0.633393
C64	C	0.945517	-0.401240	-0.567957
C65	C	0.865412	-0.307129	-0.567938
C66	C	0.865425	-0.307111	-0.633374
C67	C	0.905488	-0.354153	-0.666097
C68	C	0.905430	-0.354236	-0.139379
C69	C	0.905539	-0.354045	-0.069738
H70	H	0.666910	-0.268803	-0.229519
H71	H	0.978153	-0.439522	-0.660038
H72	H	0.832816	-0.268790	-0.660001
O73	O	0.822145	-0.933800	-0.385379
H74	H	0.832853	-0.919008	-0.434567
O75	O	0.895281	-0.216313	-0.734504
H76	H	0.937258	-0.208795	-0.704722
O77	O	0.988720	-0.451987	-0.532679
H78	H	1.016585	-0.484684	-0.566430
H79	H	0.978196	-0.439434	-0.944968
H80	H	0.896637	-0.233794	-0.861859
H81	H	0.914415	-0.474428	-0.743108
H82	H	0.832800	-0.268825	-0.541290
H83	H	0.832694	-0.784194	-0.374787
H84	H	0.666917	-0.439834	-0.374638
O85	O	0.988832	-0.933715	-0.219027
H86	H	0.978111	-0.919026	-0.169835
H87	H	0.978208	-0.439408	-1.063675
O88	O	0.915722	-0.491915	-0.870473
H89	H	0.919126	-0.538034	-0.836725
H90	H	0.832856	-0.268715	-0.944927
H91	H	0.144560	-0.268690	-0.229705
O92	O	0.539555	-0.452282	-0.385230
H93	H	0.573298	-0.485079	-0.413018
O94	O	0.473854	-0.366520	-0.419466
H95	H	0.461279	-0.418909	-0.442774
O96	O	0.337850	-0.366491	-0.419521
H97	H	0.286844	-0.365478	-0.410060
O98	O	0.271936	-0.452188	-0.385357
H99	H	0.238194	-0.484944	-0.413188
O100	O	0.135878	-0.452156	-0.385370
H101	H	0.106014	-0.489502	-0.357233
O102	O	0.271924	-0.256283	-0.219074
H103	H	0.238179	-0.223513	-0.191266
O104	O	0.337635	-0.341991	-0.184873
H105	H	0.350135	-0.388731	-0.154026
O106	O	0.473645	-0.342033	-0.184825
H107	H	0.439866	-0.337936	-0.145588
O108	O	0.539555	-0.256342	-0.218974
H109	H	0.488559	-0.264260	-0.225700
H110	H	0.978184	-0.784123	-0.229569
O111	O	0.822286	-0.256241	-1.072293
H112	H	0.794435	-0.223526	-1.038544
