data_functionalizedCrystal
_audit_creation_method	'MofGen! by Chris Wilmer'
_symmetry_space_group_name_H-M	'P1'
_symmetry_Int_Tables_number	1
_symmetry_cell_setting	triclinic
loop_
_symmetry_equiv_pos_as_xyz
  x,y,z
_cell_length_a	12.759401
_cell_length_b	12.759399
_cell_length_c	12.759393
_cell_angle_alpha	90.028437
_cell_angle_beta	89.980316
_cell_angle_gamma	89.985281
loop_
_atom_site_label
_atom_site_type_symbol
_atom_site_fract_x
_atom_site_fract_y
_atom_site_fract_z
Zn1	Zn	1.606249	0.418229	-0.594037
Zn2	Zn	1.606140	0.593948	-0.418367
Zn3	Zn	1.430551	0.418281	-0.418373
Zn4	Zn	1.430537	0.593864	-0.594005
O5	O	1.518369	0.506081	-0.506196
O6	O	1.753255	0.441552	-0.570745
O7	O	1.582809	0.570702	-0.271347
O8	O	1.453909	0.271253	-0.441692
O9	O	1.753176	0.570652	-0.441681
O10	O	1.582993	0.271215	-0.570751
O11	O	1.453804	0.441640	-0.271351
O12	O	1.283528	0.441559	-0.441660
O13	O	1.453885	0.570509	-0.741030
O14	O	1.283518	0.570559	-0.570696
O15	O	1.582980	0.441471	-0.741054
O16	O	1.582795	0.740958	-0.441650
O17	O	1.453780	0.740896	-0.570690
C18	C	1.245402	0.506056	-0.506176
C19	C	1.128625	0.506071	-0.506192
C20	C	1.073738	0.438812	-0.439127
C21	C	0.964014	0.438837	-0.439140
C22	C	0.964074	0.573383	-0.573294
C23	C	1.073796	0.573362	-0.573274
C24	C	1.073702	0.361130	-0.361677
C25	C	0.963978	0.361155	-0.361691
C26	C	1.518302	0.779048	-0.506189
C27	C	1.518370	0.895824	-0.506221
C28	C	1.585622	0.950684	-0.439107
C29	C	1.585685	1.060408	-0.439145
C30	C	1.451235	1.060404	-0.573415
C31	C	1.451178	0.950682	-0.573381
C32	C	1.663243	0.950687	-0.361584
C33	C	1.663305	1.060411	-0.361623
C34	C	1.792402	0.506106	-0.506216
C35	C	1.909179	0.506116	-0.506225
C36	C	1.518443	0.505975	-0.780229
C37	C	1.518474	0.505929	-0.897006
C38	C	1.518461	1.232047	-0.506239
C39	C	1.518489	1.115271	-0.506293
C40	C	1.585703	0.438733	-0.951882
C41	C	1.585728	0.438695	-1.061606
C42	C	1.451292	0.573059	-1.061568
C43	C	1.451263	0.573091	-0.951846
C44	C	1.663322	0.361162	-0.951905
C45	C	1.663347	0.361124	-1.061629
C46	C	1.518356	0.506110	-0.233228
C47	C	1.518528	0.505859	-0.116452
H48	H	0.919419	0.628169	-0.627909
H49	H	1.634118	0.916739	-0.284256
H50	H	1.396569	0.627737	-1.106233
H51	H	1.396515	0.627805	-0.907170
H52	H	0.934215	0.279815	-0.383623
H53	H	1.103434	0.382819	-0.280265
H54	H	1.740609	1.094357	-0.390838
H55	H	1.740593	0.390332	-0.917872
H56	H	1.641554	0.279797	-0.922144
H57	H	1.634234	0.283814	-1.095672
H58	H	1.744586	0.920831	-0.383436
H59	H	1.744717	0.382918	-1.091410
H60	H	1.118481	0.628141	-0.627875
H61	H	1.107755	0.283867	-0.390951
H62	H	0.929906	0.390213	-0.284349
H63	H	1.396426	0.906016	-0.628040
H64	H	1.396530	1.105082	-0.628095
H65	H	1.641567	1.090273	-0.280243
