data_functionalizedCrystal
_audit_creation_method	'MofGen! by Chris Wilmer'
_symmetry_space_group_name_H-M	'P1'
_symmetry_Int_Tables_number	1
_symmetry_cell_setting	triclinic
loop_
_symmetry_equiv_pos_as_xyz
  x,y,z
_cell_length_a	10.654554
_cell_length_b	12.837942
_cell_length_c	11.892295
_cell_angle_alpha	85.692371
_cell_angle_beta	86.071560
_cell_angle_gamma	90.342158
loop_
_atom_site_label
_atom_site_type_symbol
_atom_site_fract_x
_atom_site_fract_y
_atom_site_fract_z
O1	O	1.676504	-0.152313	0.093965
O2	O	1.312540	-0.166192	0.093975
O3	O	1.486452	-0.008291	0.093964
O4	O	1.502592	-0.310214	0.093977
O5	O	1.500917	0.004854	-0.094039
O6	O	1.327005	-0.153047	-0.094028
O7	O	1.690969	-0.139168	-0.094038
Zn8	Zn	1.511284	-0.144020	-0.123882
Zn9	Zn	1.492225	-0.161340	0.123820
O10	O	1.517057	-0.297069	-0.094026
C11	C	1.272863	-0.158600	-0.000025
C12	C	1.133087	-0.155548	-0.000021
C13	C	0.932412	-0.245653	-0.000028
C14	C	1.063745	-0.248522	-0.000019
C15	C	1.071087	-0.059700	-0.000021
C16	C	0.939755	-0.056833	-0.000022
C17	C	0.863077	-0.338632	-0.000036
C18	C	0.925068	-0.434481	-0.000034
C19	C	1.056401	-0.437349	-0.000025
C20	C	1.125745	-0.344370	-0.000019
C21	C	1.488232	0.036941	-0.000037
C22	C	1.471969	0.152135	-0.000035
C23	C	1.730646	-0.146760	-0.000035
C24	C	1.870421	-0.149812	-0.000031
C25	C	1.515277	-0.342301	-0.000023
C26	C	1.531539	-0.457496	-0.000017
N27	N	1.524300	-0.132199	-0.292932
C28	C	1.667472	0.391684	-0.000016
C29	C	1.652198	0.499920	-0.000014
C30	C	1.426147	0.476844	-0.000020
C31	C	1.441421	0.368608	-0.000022
C32	C	1.562088	0.326033	-0.000022
C33	C	1.577361	0.217796	-0.000032
C34	C	1.351311	0.194721	-0.000030
C35	C	1.336037	0.302957	-0.000028
C36	C	1.388505	-0.255459	-0.529622
C37	C	1.397632	-0.247186	-0.647961
C38	C	1.551686	-0.107388	-0.647952
C39	C	1.542559	-0.115660	-0.529612
C40	C	1.460965	-0.189697	-0.470452
C41	C	1.451832	-0.197964	-0.352111
C42	C	1.605892	-0.058171	-0.352103
C43	C	1.615019	-0.049899	-0.470442
N44	N	1.479218	-0.173152	0.292870
H45	H	1.232683	-0.346715	0.000012
H46	H	1.681455	0.010378	-0.518624
C47	C	0.871562	0.048597	-0.000028
N48	N	0.820199	0.128009	-0.000028
C49	C	1.800205	0.344849	-0.000023
N50	N	1.900182	0.309575	-0.000026
H51	H	1.127557	0.015999	-0.000017
H52	H	1.237792	0.337637	-0.000023
C53	C	1.362098	-0.279421	-0.287036
N54	N	1.294519	-0.340785	-0.238025
H55	H	1.675615	0.183133	-0.000037
H56	H	1.738013	0.553370	-0.000006
C57	C	1.293424	0.523698	-0.000031
N58	N	1.193457	0.558989	-0.000047
C59	C	1.685614	0.014163	-0.287006
N60	N	1.745660	0.068642	-0.237974
C61	C	1.298734	-0.336885	-0.464543
N62	N	1.231114	-0.398214	-0.415527
H63	H	1.338630	-0.300737	-0.696134
C64	C	0.718607	-0.335485	-0.000044
N65	N	0.609793	-0.333114	-0.000051
H66	H	0.868599	-0.510181	-0.000031
H67	H	1.618127	-0.047116	-0.696135
H68	H	1.106869	-0.515394	-0.000013
H69	H	1.265500	0.141256	-0.000044
