data_functionalizedCrystal
_audit_creation_method	'MofGen! by Chris Wilmer'
_symmetry_space_group_name_H-M	'P1'
_symmetry_Int_Tables_number	1
_symmetry_cell_setting	triclinic
loop_
_symmetry_equiv_pos_as_xyz
  x,y,z
_cell_length_a	19.805407
_cell_length_b	17.640280
_cell_length_c	19.805399
_cell_angle_alpha	78.776890
_cell_angle_beta	89.980427
_cell_angle_gamma	78.800112
loop_
_atom_site_label
_atom_site_type_symbol
_atom_site_fract_x
_atom_site_fract_y
_atom_site_fract_z
Zn1	Zn	1.089281	-0.314680	-0.328317
Zn2	Zn	1.422614	0.018654	0.005016
Zn3	Zn	1.755947	0.351987	0.338349
Zn4	Zn	1.112106	-0.446853	-0.192279
Zn5	Zn	1.445439	-0.113520	0.141055
Zn6	Zn	1.778772	0.219813	0.474388
Zn7	Zn	0.976099	-0.314701	-0.215138
Zn8	Zn	1.309432	0.018632	0.118195
Zn9	Zn	1.642766	0.351965	0.451529
Zn10	Zn	0.998962	-0.446811	-0.305433
Zn11	Zn	1.332295	-0.113478	0.027901
Zn12	Zn	1.665628	0.219855	0.361234
O13	O	1.044112	-0.380761	-0.260292
O14	O	1.377445	-0.047428	0.073042
O15	O	1.710778	0.285905	0.406375
O16	O	1.187026	-0.332221	-0.310282
O17	O	1.520360	0.001112	0.023051
O18	O	1.853693	0.334446	0.356385
O19	O	1.094048	-0.429350	-0.100590
O20	O	1.427382	-0.096017	0.232744
O21	O	1.760715	0.237317	0.566077
O22	O	0.971992	-0.204095	-0.249296
O23	O	1.305326	0.129239	0.084038
O24	O	1.638659	0.462572	0.417371
O25	O	1.203796	-0.429329	-0.210335
O26	O	1.537129	-0.095995	0.122998
O27	O	1.870463	0.237338	0.456332
O28	O	1.055146	-0.204079	-0.332448
O29	O	1.388480	0.129255	0.000885
O30	O	1.721813	0.462588	0.334219
O31	O	0.994125	-0.332258	-0.117385
O32	O	1.327458	0.001075	0.215949
O33	O	1.660791	0.334408	0.549282
O34	O	0.884414	-0.332218	-0.227105
O35	O	1.217747	0.001116	0.106228
O36	O	1.551080	0.334449	0.439561
O37	O	1.010958	-0.429257	-0.403190
O38	O	1.344292	-0.095924	-0.069856
O39	O	1.677625	0.237410	0.263477
O40	O	0.901211	-0.429278	-0.293444
O41	O	1.234544	-0.095945	0.039889
O42	O	1.567878	0.237388	0.373222
O43	O	1.077315	-0.332180	-0.420003
O44	O	1.410649	0.001153	-0.086670
O45	O	1.743982	0.334486	0.246664
O46	O	1.116217	-0.557452	-0.188145
O47	O	1.449551	-0.224118	0.145189
O48	O	1.782884	0.109215	0.478522
O49	O	1.033091	-0.557421	-0.271278
O50	O	1.366424	-0.224087	0.062055
O51	O	1.699758	0.109246	0.395388
C52	C	0.868253	-0.380746	-0.260272
C53	C	1.201586	-0.047413	0.073061
C54	C	1.534920	0.285920	0.406394
C55	C	0.793023	-0.380759	-0.260277
C56	C	1.126357	-0.047426	0.073056
C57	C	1.459690	0.285908	0.406390
C58	C	0.766456	-0.431374	-0.294736
C59	C	1.099790	-0.098041	0.038597
C60	C	1.433123	0.235292	0.371930
C61	C	0.695768	-0.431376	-0.294746
C62	C	1.029101	-0.098042	0.038588
C63	C	1.362435	0.235291	0.371921
C64	C	0.651649	-0.380765	-0.260291
C65	C	0.984982	-0.047432	0.073042
C66	C	1.318315	0.285902	0.406376
C67	C	0.678220	-0.330144	-0.225831
C68	C	1.011553	0.003189	0.107503
C69	C	1.344886	0.336523	0.440836
C70	C	0.748906	-0.330139	-0.225826
C71	C	1.082239	0.003194	0.107508
C72	C	1.415573	0.336528	0.440841
C73	C	0.393149	-0.330161	-0.225850
C74	C	0.726483	0.003172	0.107483
C75	C	1.059816	0.336505	0.440817
C76	C	0.322459	-0.330172	-0.225856
C77	C	0.655792	0.003162	0.107478
C78	C	0.989126	0.336495	0.440811
C79	C	0.340012	-0.431398	-0.294770
C80	C	0.673345	-0.098065	0.038563
C81	C	1.006678	0.235269	0.371897
C82	C	0.410698	-0.431393	-0.294765
C83	C	0.744031	-0.098060	0.038568
C84	C	1.077365	0.235273	0.371902
C85	C	0.437262	-0.380770	-0.260308
C86	C	0.770596	-0.047436	0.073025
C87	C	1.103929	0.285897	0.406359
C88	C	0.513910	-0.380768	-0.260299
C89	C	0.847244	-0.047434	0.073034
C90	C	1.180577	0.285899	0.406367
C91	C	0.575003	-0.380770	-0.260295
C92	C	0.908336	-0.047437	0.073038
C93	C	1.241669	0.285896	0.406372
C94	C	1.079630	-0.586114	-0.224762
C95	C	1.412964	-0.252781	0.108571
C96	C	1.746297	0.080552	0.441904
C97	C	1.094887	-0.673965	-0.209586
C98	C	1.428221	-0.340632	0.123748
C99	C	1.761554	-0.007299	0.457081
C100	C	0.928484	-0.962953	-0.375835
C101	C	1.261817	-0.629620	-0.042502
C102	C	1.595151	-0.296286	0.290831
C103	C	0.942822	-1.045502	-0.361553
C104	C	1.276155	-0.712169	-0.028219
C105	C	1.609488	-0.378836	0.305114
C106	C	1.029435	-1.045469	-0.275073
C107	C	1.362768	-0.712136	0.058260
C108	C	1.696101	-0.378802	0.391594
C109	C	1.015107	-0.962918	-0.289351
C110	C	1.348440	-0.629585	0.043983
C111	C	1.681774	-0.296251	0.377316
C112	C	0.964630	-0.921667	-0.339732
C113	C	1.297964	-0.588333	-0.006399
C114	C	1.631297	-0.255000	0.326935
C115	C	1.051253	-0.921632	-0.253247
C116	C	1.384586	-0.588298	0.080086
C117	C	1.717920	-0.254965	0.413419
C118	C	1.036924	-0.839088	-0.267522
C119	C	1.370257	-0.505754	0.065812
C120	C	1.703590	-0.172421	0.399145
C121	C	0.986448	-0.797831	-0.317899
C122	C	1.319781	-0.464497	0.015434
C123	C	1.653114	-0.131164	0.348768
C124	C	0.950301	-0.839123	-0.354006
C125	C	1.283634	-0.505789	-0.020673
C126	C	1.616967	-0.172456	0.312660
C127	C	1.101726	-0.962885	-0.202863
C128	C	1.435059	-0.629551	0.130470
C129	C	1.768393	-0.296218	0.463804
C130	C	1.137872	-0.921598	-0.166760
C131	C	1.471206	-0.588265	0.166574
C132	C	1.804539	-0.254931	0.499907
C133	C	1.123546	-0.839053	-0.181037
C134	C	1.456880	-0.505720	0.152296
C135	C	1.790213	-0.172386	0.485630
C136	C	1.073071	-0.797796	-0.231415
C137	C	1.406404	-0.464462	0.101919
C138	C	1.739737	-0.131129	0.435252
C139	C	1.159693	-0.797761	-0.144930
C140	C	1.493027	-0.464427	0.188403
C141	C	1.826360	-0.131094	0.521737
C142	C	1.145364	-0.715217	-0.159204
C143	C	1.478697	-0.381884	0.174129
C144	C	1.812031	-0.048550	0.507462
C145	C	1.058741	-0.715252	-0.245689
C146	C	1.392074	-0.381918	0.087645
C147	C	1.725408	-0.048585	0.420978
C148	C	1.220657	-0.380777	-0.260311
C149	C	1.553990	-0.047444	0.073022
C150	C	1.887324	0.285890	0.406355
C151	C	1.295890	-0.380784	-0.260320
C152	C	1.629224	-0.047451	0.073014
C153	C	1.962557	0.285883	0.406347
C154	C	1.044141	-0.380712	-0.436843
C155	C	1.377474	-0.047378	-0.103510
C156	C	1.710808	0.285955	0.229824
C157	C	1.044154	-0.380690	-0.512079
C158	C	1.377487	-0.047357	-0.178745
C159	C	1.710820	0.285976	0.154588
C160	C	1.008473	-0.174606	-0.295974
C161	C	1.341806	0.158727	0.037359
C162	C	1.675139	0.492060	0.370692
C163	C	0.993286	-0.086756	-0.311180
C164	C	1.326619	0.246578	0.022153
C165	C	1.659952	0.579911	0.355486
C166	C	1.078706	-0.330140	-0.556179
C167	C	1.412039	0.003193	-0.222846
C168	C	1.745373	0.336527	0.110488
C169	C	1.078709	-0.330117	-0.626872
C170	C	1.412042	0.003216	-0.293538
C171	C	1.745376	0.336550	0.039795
C172	C	1.044163	-0.380649	-0.653462
C173	C	1.377497	-0.047316	-0.320128
C174	C	1.710830	0.286018	0.013205
C175	C	1.009606	-0.431202	-0.609356
C176	C	1.342940	-0.097868	-0.276023
C177	C	1.676273	0.235465	0.057311
C178	C	1.009600	-0.431220	-0.538666
C179	C	1.342933	-0.097887	-0.205332
C180	C	1.676266	0.235447	0.128001
C181	C	1.009632	-0.431128	-0.894442
C182	C	1.342965	-0.097795	-0.561109
C183	C	1.676298	0.235539	-0.227775
C184	C	1.009643	-0.431107	-0.965138
C185	C	1.342976	-0.097774	-0.631804
C186	C	1.676309	0.235559	-0.298471
C187	C	1.078741	-0.330025	-0.982648
C188	C	1.412075	0.003308	-0.649315
C189	C	1.745408	0.336642	-0.315981
C190	C	1.078735	-0.330043	-0.911958
C191	C	1.412068	0.003290	-0.578624
C192	C	1.745401	0.336623	-0.245291
C193	C	1.044175	-0.380593	-0.867859
C194	C	1.377508	-0.047259	-0.534525
C195	C	1.710841	0.286074	-0.201192
C196	C	1.044171	-0.380616	-0.791206
C197	C	1.377504	-0.047283	-0.457873
C198	C	1.710838	0.286051	-0.124540
C199	C	1.044171	-0.380631	-0.730112
C200	C	1.377504	-0.047297	-0.396779
C201	C	1.710837	0.286036	-0.063445
C202	C	1.044112	-0.380754	-0.084437
C203	C	1.377445	-0.047421	0.248896
C204	C	1.710778	0.285913	0.582230
C205	C	1.044192	-0.380553	-0.009240
C206	C	1.377525	-0.047219	0.324093
C207	C	1.710858	0.286114	0.657426
H208	H	0.286537	-0.288953	-0.197799
H209	H	0.619871	0.044380	0.135534
H210	H	0.953204	0.377713	0.468867
O211	O	1.004297	-0.670752	-0.300029
O212	O	1.337630	-0.337418	0.033305
O213	O	1.670963	-0.004085	0.366638
H214	H	1.018614	-0.686559	-0.350429
H215	H	1.351947	-0.353225	-0.017095
H216	H	1.685281	-0.019892	0.316238
O217	O	1.117176	-1.051915	-0.187462
O218	O	1.450509	-0.718582	0.145871
O219	O	1.783842	-0.385248	0.479204
H220	H	1.158338	-1.073664	-0.146356
H221	H	1.491671	-0.740330	0.186978
H222	H	1.825005	-0.406997	0.520311
O223	O	1.115973	-0.275639	-0.527506
O224	O	1.449306	0.057694	-0.194172
O225	O	1.782640	0.391027	0.139161
H226	H	1.110172	-0.284149	-0.470940
H227	H	1.443505	0.049184	-0.137607
H228	H	1.776839	0.382518	0.195727
H229	H	0.802375	-0.472590	-0.322791
H230	H	1.135708	-0.139257	0.010543
H231	H	1.469041	0.194076	0.343876
O232	O	1.115981	-0.275600	-0.674439
O233	O	1.449314	0.057733	-0.341105
O234	O	1.782648	0.391066	-0.007772
H235	H	1.140010	-0.240474	-0.644072
H236	H	1.473343	0.092859	-0.310738
H237	H	1.806677	0.426193	0.022595
H238	H	1.178968	-0.955196	-0.125737
H239	H	1.512302	-0.621863	0.207596
H240	H	1.845635	-0.288530	0.540929
H241	H	0.318374	-0.472615	-0.322830
H242	H	0.651708	-0.139282	0.010504
H243	H	0.985041	0.194051	0.343837
O244	O	0.970967	-0.708800	-0.333291
O245	O	1.304300	-0.375467	0.000042
O246	O	1.637633	-0.042134	0.333376
H247	H	0.980814	-0.686988	-0.388128
H248	H	1.314147	-0.353654	-0.054795
H249	H	1.647481	-0.020321	0.278539
H250	H	0.446618	-0.472609	-0.322819
H251	H	0.779951	-0.139275	0.010514
H252	H	1.113284	0.194058	0.343848
O253	O	0.777560	-0.275544	-0.188658
O254	O	1.110893	0.057789	0.144676
O255	O	1.444227	0.391122	0.478009
H256	H	0.834123	-0.284037	-0.194449
H257	H	1.167456	0.049297	0.138885
H258	H	1.500790	0.382630	0.472218
O259	O	1.214148	-0.842255	-0.090605
O260	O	1.547481	-0.508922	0.242728
O261	O	1.880814	-0.175589	0.576062
H262	H	1.218045	-0.906589	-0.086751
H263	H	1.551379	-0.573256	0.246582
H264	H	1.884712	-0.239923	0.579915
H265	H	0.909202	-0.805534	-0.395037
H266	H	1.242536	-0.472201	-0.061703
H267	H	1.575869	-0.138868	0.271630
H268	H	1.174797	-0.681601	-0.129804
H269	H	1.508131	-0.348268	0.203529
H270	H	1.841464	-0.014934	0.536862
O271	O	0.421793	-0.275563	-0.188682
O272	O	0.755126	0.057770	0.144651
O273	O	1.088459	0.391103	0.477984
H274	H	0.478356	-0.284051	-0.194472
H275	H	0.811689	0.049282	0.138862
H276	H	1.145023	0.382616	0.472195
O277	O	0.667137	-0.486119	-0.331756
O278	O	1.000470	-0.152785	0.001577
O279	O	1.333804	0.180548	0.334910
H280	H	0.709702	-0.521372	-0.355650
H281	H	1.043035	-0.188039	-0.022316
H282	H	1.376369	0.145294	0.311017
H283	H	0.642291	-0.288932	-0.197781
H284	H	0.975625	0.044401	0.135553
H285	H	1.308958	0.377734	0.468886
O286	O	1.115996	-0.275539	-0.883282
O287	O	1.449329	0.057794	-0.549949
O288	O	1.782662	0.391127	-0.216615
H289	H	1.156548	-0.310928	-0.844963
H290	H	1.489882	0.022405	-0.511629
H291	H	1.823215	0.355738	-0.178296
H292	H	0.887386	-0.929364	-0.416866
H293	H	1.220719	-0.596031	-0.083533
H294	H	1.554052	-0.262698	0.249801
H295	H	0.913391	-1.079115	-0.390964
H296	H	1.246725	-0.745781	-0.057631
H297	H	1.580058	-0.412448	0.275702
O298	O	1.115995	-0.275478	-1.030215
O299	O	1.449329	0.057856	-0.696882
O300	O	1.782662	0.391189	-0.363548
H301	H	1.110186	-0.283939	-1.083841
H302	H	1.443520	0.049395	-0.750507
H303	H	1.776853	0.382728	-0.417174
O304	O	0.972372	-0.485603	-0.993823
O305	O	1.305705	-0.152270	-0.660489
O306	O	1.639039	0.181064	-0.327156
H307	H	0.948332	-0.520750	-0.951284
H308	H	1.281665	-0.187416	-0.617950
H309	H	1.614998	0.145917	-0.284617
H310	H	1.070531	-1.079067	-0.234051
H311	H	1.403864	-0.745734	0.099283
H312	H	1.737198	-0.412401	0.432616
O313	O	0.972317	-0.485606	-0.846889
O314	O	1.305651	-0.152272	-0.513556
O315	O	1.638984	0.181061	-0.180222
H316	H	0.948288	-0.520729	-0.877259
H317	H	1.281621	-0.187395	-0.543926
H318	H	1.614954	0.145938	-0.210592
H319	H	0.981475	-0.472343	-0.631011
H320	H	1.314809	-0.139010	-0.297678
H321	H	1.648142	0.194324	0.035655
H322	H	0.981455	-0.472375	-0.502760
H323	H	1.314788	-0.139042	-0.169427
H324	H	1.648122	0.194291	0.163906
