data_functionalizedCrystal
_audit_creation_method	'MofGen! by Chris Wilmer'
_symmetry_space_group_name_H-M	'P1'
_symmetry_Int_Tables_number	1
_symmetry_cell_setting	triclinic
loop_
_symmetry_equiv_pos_as_xyz
  x,y,z
_cell_length_a	14.044220
_cell_length_b	14.044191
_cell_length_c	13.101039
_cell_angle_alpha	86.337551
_cell_angle_beta	86.330374
_cell_angle_gamma	86.809673
loop_
_atom_site_label
_atom_site_type_symbol
_atom_site_fract_x
_atom_site_fract_y
_atom_site_fract_z
O1	O	-0.225378	1.281976	-0.085160
O2	O	-0.217064	1.005304	-0.085173
O3	O	-0.082886	1.139487	-0.085162
O4	O	-0.359557	1.147793	-0.085171
O5	O	-0.092530	1.129861	0.085267
O6	O	-0.226709	0.995678	0.085256
O7	O	-0.235022	1.272350	0.085269
Zn8	Zn	-0.232397	1.132486	0.112322
Zn9	Zn	-0.219690	1.145168	-0.112226
O10	O	-0.369201	1.138167	0.085258
C11	C	-0.218250	0.964869	0.000040
C12	C	-0.207402	0.858726	0.000035
C13	C	-0.264503	0.613268	0.000043
C14	C	-0.187587	0.664393	0.000044
C15	C	-0.198615	0.772530	0.000039
C16	C	-0.253477	0.505121	0.000048
C17	C	-0.400001	1.146616	0.000042
C18	C	-0.506144	1.157461	0.000039
C19	C	-0.700482	1.177287	0.000045
C20	C	-0.751610	1.100372	0.000042
C21	C	-0.859747	1.111404	0.000045
C22	C	-0.592336	1.166257	0.000042
C23	C	-0.052086	1.131038	0.000051
C24	C	0.054057	1.120194	0.000047
C25	C	-0.233837	1.312785	0.000054
C26	C	-0.244684	1.418928	0.000052
N27	N	-0.241069	1.123837	0.265569
N28	N	-0.211011	1.153824	-0.265474
C29	C	-0.252877	1.112071	0.474611
C30	C	-0.199206	1.165587	0.525491
C31	C	-0.205776	1.159040	0.641809
C32	C	-0.246308	1.118617	0.358283
H33	H	-0.714169	1.026239	0.000039
H34	H	-0.737922	1.251414	0.000052
N35	N	-0.131803	1.232793	0.467487
H36	H	-0.136604	1.228006	0.391411
H37	H	-0.149529	1.300437	0.486172
H38	H	-0.113451	0.626953	-0.000026
H39	H	-0.338630	0.650709	0.000038
H40	H	-0.303758	1.061341	0.518404
