data_functionalizedCrystal
_audit_creation_method	'MofGen! by Chris Wilmer'
_symmetry_space_group_name_H-M	'P1'
_symmetry_Int_Tables_number	1
_symmetry_cell_setting	triclinic
loop_
_symmetry_equiv_pos_as_xyz
  x,y,z
_cell_length_a	15.944551
_cell_length_b	15.944551
_cell_length_c	15.021413
_cell_angle_alpha	90.002826
_cell_angle_beta	90.003065
_cell_angle_gamma	96.501262
loop_
_atom_site_label
_atom_site_type_symbol
_atom_site_fract_x
_atom_site_fract_y
_atom_site_fract_z
O1	O	0.108321	-1.114529	-0.073941
O2	O	0.121677	-0.869979	-0.073964
O3	O	-0.007276	-0.998932	-0.073944
O4	O	0.237274	-0.985576	-0.073961
O5	O	-0.007257	-0.998912	0.074121
O6	O	0.121695	-0.869959	0.074101
O7	O	0.108339	-1.114508	0.074123
Zn8	Zn	0.115020	-0.992230	0.097620
Zn9	Zn	0.114996	-0.992257	-0.097461
O10	O	0.237292	-0.985555	0.074103
C11	C	0.121132	-0.838675	0.000066
C12	C	0.119470	-0.745429	0.000057
C13	C	-0.038561	-0.998367	0.000089
C14	C	-0.131807	-0.996705	0.000089
N15	N	0.115036	-0.992218	0.230758
C16	C	-0.346663	-0.912801	0.000069
C17	C	-0.407672	-0.951753	0.073077
C18	C	-0.302533	-0.993698	0.000082
C19	C	-0.407673	-0.951792	-0.072903
C20	C	-0.467445	-0.990787	0.000071
C21	C	-0.362313	-1.032672	0.073150
C22	C	-0.362308	-1.032700	-0.072895
C23	C	-0.423298	-1.071711	0.000131
C24	C	-0.207530	-0.995372	0.000089
C25	C	-0.562446	-0.989119	0.000070
C26	C	0.268577	-0.986120	0.000069
C27	C	0.361823	-0.987782	0.000063
C28	C	0.108885	-1.145813	0.000092
C29	C	0.110547	-1.239059	0.000094
C30	C	0.035565	-0.530572	0.000081
C31	C	0.074518	-0.469562	-0.072926
C32	C	0.116462	-0.574703	0.000068
C33	C	0.074556	-0.469564	0.073054
C34	C	0.113551	-0.409790	0.000083
C35	C	0.155438	-0.514921	-0.072998
C36	C	0.155464	-0.514930	0.073047
C37	C	0.194476	-0.453937	0.000023
C38	C	0.118137	-0.669705	0.000059
C39	C	0.111883	-0.314789	0.000085
N40	N	0.114973	-0.992276	-0.230598
C41	C	0.174636	-0.932581	0.470432
C42	C	0.190943	-1.008481	0.529772
C43	C	0.115015	-0.992239	0.412365
C44	C	0.098727	-0.916360	0.529766
C45	C	0.114997	-0.992253	0.587789
C46	C	0.131360	-1.068178	0.470398
C47	C	0.039111	-0.976006	0.470387
C48	C	0.055386	-1.051962	0.529701
C49	C	0.115028	-0.992230	0.311307
C50	C	0.114984	-0.992271	0.688844
H51	H	-0.313356	-0.845652	0.000136
H52	H	0.084959	-0.852184	0.555847
C53	C	-0.055144	-0.575575	-0.000006
C54	C	-0.115931	-0.560201	0.076422
C55	C	-0.206638	-0.605205	0.076330
C56	C	-0.236558	-0.665582	-0.000190
C57	C	-0.175770	-0.680958	-0.076624
C58	C	-0.085063	-0.635955	-0.076532
H59	H	-0.093783	-0.515504	0.133071
H60	H	-0.251636	-0.593822	0.132911
H61	H	-0.303704	-0.698896	-0.000258
H62	H	-0.197917	-0.725656	-0.133274
H63	H	-0.040064	-0.647338	-0.133114
H64	H	0.189621	-0.534918	-0.134787
C65	C	-0.434836	-0.905522	0.156450
C66	C	-0.400640	-0.812512	0.172479
C67	C	-0.427801	-0.766274	0.255847
C68	C	-0.489158	-0.813047	0.323186
C69	C	-0.523357	-0.906062	0.307159
C70	C	-0.496196	-0.952299	0.223790
H71	H	-0.355217	-0.777883	0.122629
H72	H	-0.402484	-0.697418	0.267711
H73	H	-0.509264	-0.778819	0.384900
H74	H	-0.568780	-0.940690	0.357008
H75	H	-0.521513	-1.021155	0.211926
H76	H	0.225096	-0.882181	0.444409
H77	H	0.261683	-0.420779	-0.000023
C78	C	-0.468099	-1.162501	0.000191
C79	C	-0.528375	-1.192584	0.076730
C80	C	-0.573176	-1.283372	0.076796
C81	C	-0.557700	-1.344078	0.000322
C82	C	-0.497421	-1.313997	-0.076223
C83	C	-0.452621	-1.223208	-0.076288
H84	H	-0.539834	-1.147645	0.133346
H85	H	-0.617798	-1.305640	0.133460
H86	H	-0.590865	-1.411285	0.000370
H87	H	-0.485963	-1.358936	-0.132839
H88	H	-0.407998	-1.200940	-0.132952
H89	H	0.145206	-1.132368	0.444430
C90	C	-0.335304	-1.078843	0.156630
C91	C	-0.241492	-1.088909	0.172081
C92	C	-0.214481	-1.135075	0.255561
C93	C	-0.281284	-1.171175	0.323589
C94	C	-0.375103	-1.161109	0.308139
C95	C	-0.402113	-1.114943	0.224660
H96	H	-0.192035	-1.062185	0.121721
H97	H	-0.145030	-1.142526	0.266997
H98	H	-0.261289	-1.205350	0.385385
H99	H	-0.424559	-1.187833	0.358499
H100	H	-0.471564	-1.107493	0.213223
C101	C	-0.434822	-0.905567	-0.156285
C102	C	-0.400612	-0.812563	-0.172310
C103	C	-0.427756	-0.766331	-0.255687
C104	C	-0.489110	-0.813104	-0.323040
C105	C	-0.523324	-0.906114	-0.307017
C106	C	-0.496179	-0.952345	-0.223640
H107	H	-0.355191	-0.777934	-0.122450
H108	H	-0.402429	-0.697479	-0.267548
H109	H	-0.509204	-0.778881	-0.384761
H110	H	-0.568745	-0.940743	-0.356877
H111	H	-0.521507	-1.021198	-0.211779
C112	C	-0.047567	-0.957412	0.435113
C113	C	-0.100340	-1.022764	0.376458
C114	C	-0.187018	-1.004158	0.341181
C115	C	-0.220922	-0.920201	0.364559
C116	C	-0.168147	-0.854844	0.423217
C117	C	-0.081470	-0.873450	0.458494
H118	H	-0.075243	-1.084918	0.359149
H119	H	-0.226085	-1.052540	0.297758
H120	H	-0.285085	-0.906429	0.338445
H121	H	-0.193244	-0.792690	0.440526
H122	H	-0.042403	-0.825068	0.501917
H123	H	0.040295	-0.449461	-0.134642
C124	C	0.277647	-1.027031	0.565029
C125	C	0.293261	-1.031186	0.666019
C126	C	0.379967	-1.049721	0.701277
C127	C	0.451060	-1.064102	0.635545
C128	C	0.435449	-1.059948	0.534549
C129	C	0.348742	-1.041412	0.499291
H130	H	0.240631	-1.020540	0.714683
H131	H	0.391523	-1.052797	0.776041
H132	H	0.515245	-1.077823	0.661645
H133	H	0.488078	-1.070593	0.485885
H134	H	0.337186	-1.038337	0.424527
C135	C	-0.335113	-1.078897	-0.156271
C136	C	-0.352701	-1.044950	-0.249599
C137	C	-0.325503	-1.091139	-0.332984
C138	C	-0.280717	-1.171273	-0.323040
C139	C	-0.263127	-1.205224	-0.229708
C140	C	-0.290325	-1.159035	-0.146324
H141	H	-0.385856	-0.985626	-0.256964
H142	H	-0.338524	-1.066006	-0.402075
H143	H	-0.260584	-1.205464	-0.384767
H144	H	-0.229972	-1.264548	-0.222344
H145	H	-0.277304	-1.184168	-0.077233
C146	C	-0.012742	-1.120195	0.564646
C147	C	-0.008528	-1.213597	0.540983
C148	C	-0.076651	-1.281832	0.575930
C149	C	-0.148990	-1.256664	0.634540
C150	C	-0.153208	-1.163256	0.658206
C151	C	-0.085084	-1.095022	0.623259
H152	H	0.045025	-1.232233	0.497594
H153	H	-0.073529	-1.350978	0.558411
H154	H	-0.199420	-1.307175	0.660410
H155	H	-0.206760	-1.144621	0.701595
H156	H	-0.088207	-1.025875	0.640778
C157	C	0.201656	-0.542131	0.156423
C158	C	0.167707	-0.524548	0.249751
C159	C	0.213890	-0.551755	0.333136
C160	C	0.294022	-0.596543	0.323192
C161	C	0.327976	-0.614128	0.229861
C162	C	0.281793	-0.586921	0.146476
H163	H	0.108384	-0.491391	0.257115
H164	H	0.188754	-0.538737	0.402226
H165	H	0.328210	-0.616683	0.384919
H166	H	0.387299	-0.647285	0.222496
H167	H	0.306928	-0.599939	0.077385
H168	H	0.040332	-0.449470	0.134773
