data_functionalizedCrystal
_audit_creation_method	'MofGen! by Chris Wilmer'
_symmetry_space_group_name_H-M	'P1'
_symmetry_Int_Tables_number	1
_symmetry_cell_setting	triclinic
loop_
_symmetry_equiv_pos_as_xyz
  x,y,z
_cell_length_a	14.519731
_cell_length_b	14.519709
_cell_length_c	8.140239
_cell_angle_alpha	90.002100
_cell_angle_beta	89.997705
_cell_angle_gamma	96.315502
loop_
_atom_site_label
_atom_site_type_symbol
_atom_site_fract_x
_atom_site_fract_y
_atom_site_fract_z
O1	O	-0.120888	1.223876	-0.136379
O2	O	0.379112	1.723876	0.363621
O3	O	-0.135124	0.955400	-0.136427
O4	O	0.364876	1.455400	0.363573
O5	O	0.006231	1.096746	-0.136414
O6	O	0.506231	1.596746	0.363586
O7	O	-0.262243	1.082530	-0.136392
O8	O	0.237757	1.582530	0.363608
O9	O	0.006231	1.096736	0.136814
O10	O	0.506231	1.596736	0.636814
O11	O	-0.135124	0.955390	0.136800
O12	O	0.364876	1.455390	0.636800
O13	O	-0.120888	1.223866	0.136848
O14	O	0.379112	1.723866	0.636848
Zn15	Zn	-0.128006	1.089626	0.180205
Zn16	Zn	0.371994	1.589626	0.680205
Zn17	Zn	-0.128006	1.089639	-0.179784
Zn18	Zn	0.371994	1.589639	0.320216
O19	O	-0.262243	1.082520	0.136835
O20	O	0.237757	1.582520	0.636835
C21	C	-0.134461	0.921035	0.000180
C22	C	0.365539	1.421035	0.500180
C23	C	-0.132473	0.818654	0.000161
C24	C	0.367527	1.318654	0.500161
C25	C	-0.125153	0.443757	0.000235
C26	C	0.374847	0.943757	0.500235
C27	C	-0.127186	0.548065	0.000214
C28	C	0.372814	1.048065	0.500214
C29	C	-0.128813	0.631202	0.000196
C30	C	0.371187	1.131202	0.500196
C31	C	-0.130846	0.735517	0.000178
C32	C	0.369154	1.235517	0.500178
C33	C	-0.296603	1.083191	0.000224
C34	C	0.203397	1.583191	0.500224
C35	C	-0.398983	1.085187	0.000233
C36	C	0.101017	1.585187	0.500233
C37	C	-0.482127	1.086809	0.000227
C38	C	0.017873	1.586809	0.500227
C39	C	-0.586436	1.088835	0.000212
C40	C	-0.086436	1.588835	0.500212
C41	C	-0.669575	1.090444	0.000199
C42	C	-0.169575	1.590444	0.500199
C43	C	-0.773890	1.092470	0.000186
C44	C	-0.273890	1.592470	0.500186
C45	C	0.040591	1.096075	0.000193
C46	C	0.540591	1.596075	0.500193
C47	C	0.142971	1.094079	0.000173
C48	C	0.642971	1.594079	0.500173
C49	C	-0.121551	1.258230	0.000237
C50	C	0.378449	1.758230	0.500237
C51	C	-0.123539	1.360612	0.000246
C52	C	0.376461	1.860612	0.500246
N53	N	-0.128005	1.089624	0.425887
N54	N	0.371995	1.589624	0.925887
N55	N	-0.128004	1.089641	0.574534
N56	N	0.371996	1.589641	1.074534
