data_functionalizedCrystal
_audit_creation_method	'MofGen! by Chris Wilmer'
_symmetry_space_group_name_H-M	'P1'
_symmetry_Int_Tables_number	1
_symmetry_cell_setting	triclinic
loop_
_symmetry_equiv_pos_as_xyz
  x,y,z
_cell_length_a	16.959455
_cell_length_b	16.625546
_cell_length_c	16.959447
_cell_angle_alpha	89.967784
_cell_angle_beta	89.985678
_cell_angle_gamma	90.019415
loop_
_atom_site_label
_atom_site_type_symbol
_atom_site_fract_x
_atom_site_fract_y
_atom_site_fract_z
Zn1	Zn	1.208371	-0.321051	-0.446898
Zn2	Zn	1.208288	-0.455899	-0.314715
Zn3	Zn	1.076199	-0.321077	-0.314736
Zn4	Zn	1.076158	-0.455839	-0.446854
O5	O	1.142254	-0.388466	-0.380801
O6	O	1.318970	-0.338954	-0.429374
O7	O	1.190748	-0.438050	-0.204107
O8	O	1.093784	-0.208241	-0.332295
O9	O	1.318909	-0.438026	-0.332260
O10	O	1.190890	-0.208222	-0.429394
O11	O	1.093703	-0.338997	-0.204122
O12	O	0.965583	-0.338939	-0.332252
O13	O	1.093714	-0.437923	-0.557471
O14	O	0.965553	-0.437947	-0.429318
O15	O	1.190850	-0.338895	-0.557503
O16	O	1.190709	-0.568723	-0.332217
O17	O	1.093634	-0.568679	-0.429298
C18	C	0.936888	-0.388440	-0.380783
C19	C	0.849031	-0.388448	-0.380794
C20	C	0.477547	-0.336870	-0.330364
C21	C	0.477564	-0.440129	-0.431283
C22	C	0.560110	-0.440117	-0.431278
C23	C	0.601378	-0.388482	-0.380815
C24	C	0.560100	-0.336859	-0.330356
C25	C	0.601394	-0.491746	-0.481731
C26	C	0.683945	-0.491737	-0.481727
C27	C	0.725215	-0.440097	-0.431267
C28	C	0.683932	-0.388471	-0.380807
C29	C	0.725200	-0.336836	-0.330343
C30	C	0.683918	-0.285205	-0.279886
C31	C	0.601370	-0.285219	-0.279895
C32	C	0.807763	-0.440083	-0.431257
C33	C	0.807753	-0.336824	-0.330335
C34	C	1.142179	-0.597957	-0.380768
C35	C	1.142219	-0.687578	-0.380780
C36	C	1.142357	-1.015754	-0.380862
C37	C	1.142316	-0.924445	-0.380842
C38	C	1.142288	-0.851669	-0.380821
C39	C	1.142248	-0.760355	-0.380801
C40	C	1.348422	-0.388494	-0.380819
C41	C	1.436279	-0.388505	-0.380827
C42	C	1.142287	-0.388400	-0.586969
C43	C	1.142301	-0.388371	-0.674826
C44	C	1.142351	-0.178157	-0.380851
C45	C	1.142392	-0.088536	-0.380873
C46	C	1.091821	-0.439845	-1.046287
C47	C	1.192969	-0.336727	-1.046316
C48	C	1.192948	-0.336744	-0.963770
C49	C	1.142364	-0.388313	-0.922479
C50	C	1.091800	-0.439866	-0.963734
C51	C	1.243517	-0.285199	-0.922509
C52	C	1.243498	-0.285214	-0.839958
C53	C	1.192909	-0.336780	-0.798666
C54	C	1.142343	-0.388334	-0.839925
C55	C	1.091758	-0.439903	-0.798634
C56	C	1.041187	-0.491453	-0.839892
C57	C	1.041211	-0.491431	-0.922441
C58	C	1.192886	-0.336802	-0.716117
C59	C	1.091737	-0.439923	-0.716080
C60	C	1.142267	-0.388475	-0.175435
C61	C	1.142406	-0.388276	-0.087578
H62	H	0.717550	-0.533777	-0.522813
H63	H	0.567751	-0.243185	-0.238815
C64	C	0.452099	-0.297420	-0.196590
C65	C	0.432176	-0.280119	-0.274902
H66	H	0.424091	-0.262380	-0.162352
H67	H	0.438547	-0.351574	-0.184933
H68	H	0.507170	-0.290026	-0.189374
H69	H	0.377106	-0.287519	-0.282120
H70	H	0.445723	-0.225952	-0.286563
C71	C	0.609697	-0.593798	-0.581498
C72	C	0.556034	-0.548488	-0.537211
H73	H	0.581689	-0.628827	-0.615752
H74	H	0.641920	-0.558700	-0.611778
H75	H	0.641868	-0.624606	-0.546998
H76	H	0.523867	-0.517675	-0.571711
H77	H	0.523797	-0.583590	-0.506928
H78	H	0.841371	-0.482122	-0.472336
H79	H	0.443959	-0.482173	-0.472364
C80	C	0.996337	-0.537189	-1.048968
C81	C	0.985631	-0.548095	-0.967793
H82	H	0.962028	-0.572175	-1.076967
H83	H	0.984797	-0.483015	-1.062509
H84	H	1.049447	-0.548995	-1.062481
H85	H	0.932522	-0.536283	-0.954279
H86	H	0.997165	-0.602281	-0.954247
H87	H	1.000005	-0.533444	-0.806262
C88	C	0.799443	-0.234759	-0.230575
C89	C	0.853112	-0.280068	-0.274858
H90	H	0.827448	-0.199725	-0.196323
H91	H	0.767271	-0.203963	-0.265073
H92	H	0.767223	-0.269864	-0.200287
H93	H	0.885329	-0.244963	-0.305151
H94	H	0.885298	-0.310866	-0.240356
C95	C	1.237915	-0.290918	-1.172870
C96	C	1.248573	-0.280047	-1.091702
H97	H	1.272242	-0.255920	-1.200889
H98	H	1.249463	-0.345086	-1.186372
H99	H	1.184814	-0.279106	-1.186397
H100	H	1.301673	-0.291865	-1.078174
H101	H	1.237030	-0.225867	-1.078194
C102	C	1.343479	-0.183277	-0.848288
C103	C	1.299077	-0.228545	-0.794611
H104	H	1.377785	-0.148287	-0.820290
H105	H	1.373708	-0.218404	-0.880467
H106	H	1.309053	-0.152428	-0.880501
H107	H	1.333502	-0.259398	-0.762402
H108	H	1.268845	-0.193413	-0.762418
H109	H	1.284705	-0.243219	-0.956135
C110	C	1.203901	-0.228374	-0.623314
C111	C	1.248468	-0.280148	-0.670763
H112	H	1.238219	-0.193401	-0.595312
H113	H	1.169497	-0.197517	-0.655529
H114	H	1.173770	-0.259095	-0.586914
H115	H	1.278594	-0.249427	-0.707167
H116	H	1.282885	-0.311008	-0.638545
H117	H	0.717529	-0.243167	-0.238795
H118	H	1.050645	-0.481814	-1.079883
C119	C	0.991764	-0.541861	-0.724344
C120	C	1.036139	-0.496619	-0.670696
H121	H	0.957446	-0.576867	-0.696324
H122	H	0.961549	-0.506718	-0.756544
H123	H	1.026206	-0.572691	-0.756539
H124	H	1.001697	-0.465784	-0.638504
H125	H	1.066357	-0.531766	-0.638483
