data_functionalizedCrystal
_audit_creation_method	'MofGen! by Chris Wilmer'
_symmetry_space_group_name_H-M	'P1'
_symmetry_Int_Tables_number	1
_symmetry_cell_setting	triclinic
loop_
_symmetry_equiv_pos_as_xyz
  x,y,z
_cell_length_a	19.121102
_cell_length_b	18.215405
_cell_length_c	18.215399
_cell_angle_alpha	89.969449
_cell_angle_beta	87.541604
_cell_angle_gamma	87.579072
loop_
_atom_site_label
_atom_site_type_symbol
_atom_site_fract_x
_atom_site_fract_y
_atom_site_fract_z
Zn1	Zn	1.073728	-0.341065	-0.464034
Zn2	Zn	1.573728	0.158935	0.035966
Zn3	Zn	1.073640	-0.464132	-0.340958
Zn4	Zn	1.573640	0.035868	0.159042
Zn5	Zn	0.956277	-0.335830	-0.335738
Zn6	Zn	1.456277	0.164170	0.164262
Zn7	Zn	0.956244	-0.458834	-0.458742
Zn8	Zn	1.456244	0.041166	0.041258
O9	O	1.014972	-0.399965	-0.399868
O10	O	1.514972	0.100035	0.100132
O11	O	1.172001	-0.361798	-0.452107
O12	O	1.672001	0.138202	0.047893
O13	O	1.058049	-0.447139	-0.237280
O14	O	1.558049	0.052861	0.262720
O15	O	0.971907	-0.233542	-0.352787
O16	O	1.471907	0.266458	0.147213
O17	O	1.171936	-0.452215	-0.361683
O18	O	1.671936	0.047785	0.138317
O19	O	1.058198	-0.237388	-0.447045
O20	O	1.558198	0.262612	0.052955
O21	O	0.971822	-0.352875	-0.233445
O22	O	1.471822	0.147125	0.266555
O23	O	0.857988	-0.347738	-0.347656
O24	O	1.357988	0.152262	0.152344
O25	O	0.971852	-0.443186	-0.562430
O26	O	1.471852	0.056814	-0.062430
O27	O	0.857964	-0.438109	-0.438027
O28	O	1.357964	0.061891	0.061973
O29	O	1.058166	-0.356661	-0.566317
O30	O	1.558166	0.143339	-0.066317
O31	O	1.058017	-0.566412	-0.356553
O32	O	1.558017	-0.066412	0.143447
O33	O	0.971767	-0.562519	-0.443088
O34	O	1.471767	-0.062519	0.056912
C35	C	1.014898	-0.591168	-0.399829
C36	C	1.514898	-0.091168	0.100171
C37	C	1.014931	-0.672969	-0.399840
C38	C	1.514931	-0.172969	0.100160
C39	C	0.832492	-0.391781	-0.391701
C40	C	1.332492	0.108219	0.108299
C41	C	0.754426	-0.388298	-0.388225
C42	C	1.254426	0.111702	0.111775
C43	C	1.059947	-0.863170	-0.354873
C44	C	1.559947	-0.363170	0.145127
C45	C	1.059978	-0.940030	-0.354892
C46	C	1.559978	-0.440030	0.145108
C47	C	0.970088	-0.936013	-0.444921
C48	C	1.470088	-0.436013	0.055079
C49	C	0.970060	-0.859154	-0.444905
C50	C	1.470060	-0.359154	0.055095
C51	C	1.014989	-0.822735	-0.399877
C52	C	1.514989	-0.322735	0.100123
C53	C	1.015048	-0.976453	-0.399912
C54	C	1.515048	-0.476453	0.100088
C55	C	1.015081	-1.059788	-0.399933
C56	C	1.515081	-0.559788	0.100067
C57	C	1.014956	-0.739394	-0.399856
C58	C	1.514956	-0.239394	0.100144
C59	C	0.717756	-0.433783	-0.433569
C60	C	1.217756	0.066217	0.066431
C61	C	0.644405	-0.430501	-0.430306
C62	C	1.144405	0.069499	0.069694
C63	C	0.607725	-0.381735	-0.381695
C64	C	1.107725	0.118265	0.118305
C65	C	0.644400	-0.336244	-0.336349
C66	C	1.144400	0.163756	0.163651
C67	C	0.717750	-0.339524	-0.339616
C68	C	1.217750	0.160476	0.160384
C69	C	0.386256	-0.369472	-0.369483
C70	C	0.886256	0.130528	0.130517
C71	C	0.312901	-0.366197	-0.366218
C72	C	0.812901	0.133803	0.133782
C73	C	0.312911	-0.460453	-0.460176
C74	C	0.812911	0.039547	0.039824
C75	C	0.386262	-0.463731	-0.463436
C76	C	0.886262	0.036269	0.036564
C77	C	0.422931	-0.418238	-0.418093
C78	C	0.922931	0.081762	0.081907
C79	C	0.532748	-0.378380	-0.378356
C80	C	1.032748	0.121620	0.121644
C81	C	0.497906	-0.421590	-0.421435
C82	C	0.997906	0.078410	0.078565
C83	C	1.198165	-0.408182	-0.408068
C84	C	1.698165	0.091818	0.091932
C85	C	1.276231	-0.411683	-0.411562
C86	C	1.776231	0.088317	0.088438
C87	C	1.015015	-0.399916	-0.591823
C88	C	1.515015	0.100084	-0.091823
C89	C	1.015033	-0.399896	-0.673623
C90	C	1.515033	0.100104	-0.173623
C91	C	1.015066	-0.208016	-0.399924
C92	C	1.515066	0.291984	0.100076
C93	C	1.015106	-0.126219	-0.399948
C94	C	1.515106	0.373781	0.100052
C95	C	1.059993	-0.354799	-0.863843
C96	C	1.559993	0.145201	-0.363843
C97	C	1.060002	-0.354778	-0.940702
C98	C	1.560002	0.145222	-0.440702
C99	C	0.970123	-0.444881	-0.936643
C100	C	1.470123	0.055119	-0.436643
C101	C	0.970111	-0.444897	-0.859785
C102	C	1.470111	0.055103	-0.359785
C103	C	1.015051	-0.399858	-0.823387
C104	C	1.515051	0.100142	-0.323387
C105	C	1.015070	-0.399820	-0.977104
C106	C	1.515070	0.100180	-0.477104
C107	C	1.015079	-0.399798	-1.060438
C108	C	1.515079	0.100202	-0.560438
C109	C	1.015041	-0.399879	-0.740048
C110	C	1.515041	0.100121	-0.240048
C111	C	1.014970	-0.399963	-0.208662
C112	C	1.514970	0.100037	0.291338
C113	C	1.015088	-0.399782	-0.126869
C114	C	1.515088	0.100218	0.373131
H115	H	1.096531	-0.833519	-0.318209
H116	H	1.596531	-0.333519	0.181791
H117	H	0.502875	-0.338677	-0.338776
H118	H	1.002875	0.161323	0.161224
O119	O	0.757309	-0.486376	-0.486011
O120	O	1.257309	0.013624	0.013989
H121	H	0.790752	-0.454973	-0.524998
H122	H	1.290752	0.045027	-0.024998
H123	H	0.933536	-0.481552	-0.966287
H124	H	1.433536	0.018448	-0.466287
H125	H	0.614552	-0.467541	-0.467229
H126	H	1.114552	0.032459	0.032771
O127	O	0.273364	-0.509512	-0.509089
O128	O	0.773364	-0.009512	-0.009089
H129	H	0.216197	-0.499036	-0.498658
H130	H	0.716197	0.000964	0.001342
O131	O	0.921567	-0.815540	-0.493451
O132	O	1.421567	-0.315540	0.006549
H133	H	0.929103	-0.755977	-0.485880
H134	H	1.429103	-0.255977	0.014120
H135	H	0.933508	-0.481589	-0.826844
H136	H	1.433508	0.018411	-0.326844
H137	H	1.096588	-0.972949	-0.318246
H138	H	1.596588	-0.472949	0.181754
O139	O	0.425816	-0.516327	-0.515875
O140	O	0.925816	-0.016327	-0.015875
H141	H	0.411704	-0.573437	-0.502522
H142	H	0.911704	-0.073437	-0.002522
O143	O	0.921617	-0.975292	-0.493471
O144	O	1.421617	-0.475292	0.006529
H145	H	0.929179	-1.035530	-0.485914
H146	H	1.429179	-0.535530	0.014086
H147	H	0.283038	-0.326478	-0.326637
H148	H	0.783038	0.173522	0.173363
H149	H	1.096598	-0.318085	-0.973638
H150	H	1.596598	0.181915	-0.473638
H151	H	0.614529	-0.296535	-0.296772
H152	H	1.114529	0.203465	0.203228
O153	O	0.425790	-0.320421	-0.320554
O154	O	0.925790	0.179579	0.179446
H155	H	0.411731	-0.262048	-0.332638
H156	H	0.911731	0.237952	0.167362
O157	O	0.757306	-0.290474	-0.290701
O158	O	1.257306	0.209526	0.209299
H159	H	0.719479	-0.256020	-0.256343
H160	H	1.219479	0.243980	0.243657
H161	H	0.527774	-0.461291	-0.461017
H162	H	1.027774	0.038709	0.038983
H163	H	1.096584	-0.318123	-0.834210
H164	H	1.596584	0.181877	-0.334210
