data_functionalizedCrystal
_audit_creation_method	'MofGen! by Chris Wilmer'
_symmetry_space_group_name_H-M	'P1'
_symmetry_Int_Tables_number	1
_symmetry_cell_setting	triclinic
loop_
_symmetry_equiv_pos_as_xyz
  x,y,z
_cell_length_a	12.811457
_cell_length_b	14.853567
_cell_length_c	11.295483
_cell_angle_alpha	94.104625
_cell_angle_beta	91.289320
_cell_angle_gamma	83.839833
loop_
_atom_site_label
_atom_site_type_symbol
_atom_site_fract_x
_atom_site_fract_y
_atom_site_fract_z
O1	O	1.389198	0.124535	0.051009
O2	O	1.085972	0.135742	0.018261
O3	O	1.245685	-0.001017	0.035506
O4	O	1.229485	0.261293	0.033764
O5	O	1.231657	0.010976	0.232043
O6	O	1.071944	0.147735	0.214798
O7	O	1.375170	0.136528	0.247545
Cu8	Cu	1.222276	0.143226	0.249117
Cu9	Cu	1.238866	0.129043	0.016690
O10	O	1.215457	0.273286	0.230300
C11	C	1.040152	0.140743	0.112338
C12	C	0.924523	0.137766	0.099850
C13	C	0.691949	0.145230	0.290672
C14	C	0.583304	0.142433	0.278944
C15	C	0.598588	0.129367	0.064668
C16	C	0.707233	0.132165	0.076396
C17	C	0.753909	0.140098	0.189401
C18	C	0.862554	0.142901	0.201128
C19	C	0.877837	0.129829	-0.013146
C20	C	0.769193	0.127032	-0.024874
C21	C	1.237937	-0.028616	0.133692
C22	C	1.235738	-0.128721	0.133444
C23	C	1.131566	-0.542220	0.122216
C24	C	1.321308	-0.561740	0.142708
C25	C	1.323377	-0.467687	0.142924
C26	C	1.229539	-0.410896	0.132788
C27	C	1.133631	-0.448158	0.122436
C28	C	1.419282	-0.430418	0.153288
C29	C	1.421354	-0.336360	0.153507
C30	C	1.327515	-0.279568	0.143362
C31	C	1.231604	-0.316835	0.133008
C32	C	1.137766	-0.260044	0.122872
C33	C	1.041854	-0.297310	0.112509
C34	C	1.039792	-0.391366	0.112291
C35	C	1.329577	-0.185511	0.143580
C36	C	1.139831	-0.165982	0.123092
C37	C	1.420990	0.131527	0.153466
C38	C	1.536620	0.134503	0.165946
C39	C	1.223205	0.300885	0.132112
C40	C	1.225404	0.400989	0.132352
N41	N	1.210615	0.153202	0.412594
N42	N	1.250535	0.119061	-0.146786
C43	C	1.334475	0.047203	0.675257
C44	C	1.325670	0.054748	0.798970
C45	C	1.184197	0.175831	0.783735
C46	C	1.193002	0.168286	0.660022
C47	C	1.268144	0.103971	0.605788
C48	C	1.276953	0.096431	0.482073
C49	C	1.135476	0.217509	0.466839
C50	C	1.126671	0.225054	0.590552
H51	H	0.560568	0.122893	-0.027335
F52	F	0.719509	0.118565	-0.145135
H53	H	1.495679	-0.476662	0.161552
H54	H	1.379682	0.008521	0.855529
H55	H	1.407666	-0.155173	0.152025
F56	F	1.029496	-0.581881	0.111178
F57	F	1.046700	0.293497	0.648282
F58	F	1.064884	0.277933	0.392893
F59	F	0.517366	0.147894	0.386730
H60	H	0.928296	0.125655	-0.095608
H61	H	1.499451	-0.306026	0.161943
F62	F	0.741626	0.153684	0.410938
H63	H	1.338140	0.044065	0.437917
H64	H	0.900555	0.149366	0.293143
F65	F	1.039953	-0.105548	0.112295
H66	H	1.395666	-0.005158	0.631100
F67	F	0.941988	-0.236858	0.101731
F68	F	1.421170	-0.622181	0.153512
F69	F	0.937726	-0.431034	0.101260
F70	F	1.104220	0.244268	0.841467
