data_functionalizedCrystal
_audit_creation_method	'MofGen! by Chris Wilmer'
_symmetry_space_group_name_H-M	'P1'
_symmetry_Int_Tables_number	1
_symmetry_cell_setting	triclinic
loop_
_symmetry_equiv_pos_as_xyz
  x,y,z
_cell_length_a	9.065218
_cell_length_b	19.288865
_cell_length_c	18.366186
_cell_angle_alpha	90.011479
_cell_angle_beta	90.009098
_cell_angle_gamma	84.076066
loop_
_atom_site_label
_atom_site_type_symbol
_atom_site_fract_x
_atom_site_fract_y
_atom_site_fract_z
O1	O	-1.956843	-0.101842	-0.060561
O2	O	-1.527266	-0.110195	-0.060563
O3	O	-1.754467	-0.004985	-0.060548
O4	O	-1.729642	-0.207053	-0.060577
O5	O	-1.754429	-0.004979	0.060552
O6	O	-1.527227	-0.110190	0.060536
O7	O	-1.956805	-0.101836	0.060538
Zn8	Zn	-1.742010	-0.106012	0.079764
Zn9	Zn	-1.742061	-0.106020	-0.079789
O10	O	-1.729603	-0.207047	0.060523
C11	C	-1.753649	0.020901	0.000004
C12	C	-1.751251	0.098023	0.000010
C13	C	-1.472288	-0.109390	-0.000014
C14	C	-1.308529	-0.106989	-0.000014
C15	C	-2.011782	-0.102642	-0.000013
C16	C	-2.175541	-0.105043	-0.000018
C17	C	-1.730421	-0.232933	-0.000031
C18	C	-1.732819	-0.310055	-0.000042
N19	N	-1.741986	-0.106007	0.188655
C20	C	-1.884563	0.141684	0.000015
C21	C	-1.882310	0.214149	0.000003
C22	C	-1.746738	0.242949	0.000002
C23	C	-1.613409	0.199278	-0.000006
C24	C	-1.615666	0.126815	-0.000002
C25	C	-1.640149	0.352066	0.042420
C26	C	-1.637898	0.424528	0.042420
C27	C	-1.739773	0.466448	-0.000014
C28	C	-1.843923	0.435900	-0.042440
C29	C	-1.846180	0.363437	-0.042436
C30	C	-1.744276	0.321522	-0.000003
C31	C	-1.870651	0.588685	-0.000024
C32	C	-1.868392	0.661150	-0.000040
C33	C	-1.599488	0.646278	-0.000042
C34	C	-1.601750	0.573814	-0.000033
C35	C	-1.737335	0.545022	-0.000021
N36	N	-1.742096	-0.106019	-0.188681
C37	C	-1.842624	-0.059443	0.226763
C38	C	-1.842633	-0.059440	0.302990
C39	C	-1.742019	-0.106013	0.341108
C40	C	-1.641362	-0.152580	0.302992
C41	C	-1.641346	-0.152577	0.226765
C42	C	-1.722271	-0.169147	0.461859
C43	C	-1.722297	-0.169151	0.538084
C44	C	-1.742061	-0.106022	0.576216
C45	C	-1.761829	-0.042886	0.538113
C46	C	-1.761813	-0.042883	0.461886
C47	C	-1.742025	-0.106021	0.423763
C48	C	-1.842714	-0.059451	0.696978
C49	C	-1.842713	-0.059447	0.773207
C50	C	-1.641449	-0.152593	0.773207
C51	C	-1.641443	-0.152591	0.696979
C52	C	-1.742083	-0.106021	0.658869
H53	H	-1.994967	0.118247	0.000022
H54	H	-1.976955	0.696699	-0.000040
O55	O	-1.947133	0.333674	-0.083696
C56	C	-1.987098	0.253938	-0.181035
C57	C	-1.872617	0.287579	-0.134345
H58	H	-1.926896	0.216674	-0.222006
H59	H	-2.059612	0.223923	-0.144367
H60	H	-2.059553	0.296357	-0.211332
H61	H	-1.800062	0.245205	-0.104041
H62	H	-1.800207	0.317610	-0.171050
O63	O	-1.543507	-0.197765	0.810192
C64	C	-1.286735	-0.236808	0.833500
C65	C	-1.397500	-0.185602	0.791579
H66	H	-1.168665	-0.227002	0.818455
H67	H	-1.303898	-0.228812	0.894536
H68	H	-1.305656	-0.292559	0.818504
H69	H	-1.378647	-0.129830	0.806513
H70	H	-1.380310	-0.193658	0.730552
H71	H	-1.706210	-0.220560	0.569102
O72	O	-1.467753	0.674211	-0.000173
C73	C	-1.237218	0.683619	-0.062894
C74	C	-1.386374	0.651949	-0.062841
H75	H	-1.171368	0.665621	-0.113548
H76	H	-1.258411	0.742915	-0.062945
H77	H	-1.171406	0.665729	-0.012191
H78	H	-1.452261	0.669785	-0.113536
H79	H	-1.365076	0.592658	-0.062752
H80	H	-1.559500	-0.190511	0.665950
H81	H	-1.503025	0.222732	-0.000009
O82	O	-1.486025	0.084499	0.000030
C83	C	-1.219075	0.077394	-0.000020
C84	C	-1.365783	0.125399	-0.000041
H85	H	-1.121821	0.110443	-0.000093
H86	H	-1.213289	0.043125	0.050676
H87	H	-1.213512	0.043068	-0.050684
H88	H	-1.371444	0.159768	0.050589
H89	H	-1.371507	0.159621	-0.050770
H90	H	-1.553087	0.449394	0.076961
O91	O	-1.940223	-0.014013	0.189887
C92	C	-2.027270	0.106288	0.166980
C93	C	-1.916640	0.054854	0.208703
H94	H	-2.008263	0.161977	0.182189
H95	H	-2.010185	0.098493	0.105913
H96	H	-2.145349	0.096464	0.181989
H97	H	-1.798518	0.064646	0.193756
H98	H	-1.933855	0.062660	0.269760
H99	H	-1.981053	0.565241	-0.000017
O100	O	-2.011950	0.256472	0.000042
C101	C	-2.278901	0.263581	0.000014
C102	C	-2.132196	0.215573	-0.000013
H103	H	-2.376158	0.230534	-0.000046
H104	H	-2.284638	0.297874	0.050705
H105	H	-2.284506	0.297883	-0.050655
H106	H	-2.126493	0.181228	0.050621
H107	H	-2.126521	0.181327	-0.050738
H108	H	-1.777922	0.008520	0.569157
H109	H	-1.926878	0.470031	-0.076995
H110	H	-1.924660	-0.021525	0.804234
H111	H	-1.777905	0.008524	0.430866
O112	O	-1.472287	0.531369	-0.000158
C113	C	-1.318835	0.440884	-0.062870
C114	C	-1.465497	0.488922	-0.062824
H115	H	-1.313311	0.406543	-0.113523
H116	H	-1.221492	0.473880	-0.062920
H117	H	-1.313171	0.406630	-0.012165
H118	H	-1.471307	0.523185	-0.113521
H119	H	-1.562771	0.455885	-0.062737
O120	O	-1.541110	0.311451	0.083706
C121	C	-1.336456	0.307815	0.167835
C122	C	-1.448556	0.353893	0.121133
H123	H	-1.261577	0.342109	0.198096
H124	H	-1.398621	0.277295	0.208825
H125	H	-1.266111	0.269916	0.131113
H126	H	-1.518931	0.391831	0.157799
H127	H	-1.386301	0.384364	0.080137
H128	H	-1.924587	-0.021521	0.334023
O129	O	-1.703135	-0.230540	0.424935
C130	C	-1.663894	-0.355778	0.432952
C131	C	-1.685575	-0.286306	0.474858
H132	H	-1.649660	-0.400882	0.473296
H133	H	-1.765027	-0.361112	0.397275
H134	H	-1.560832	-0.356765	0.397254
H135	H	-1.788583	-0.285271	0.510596
H136	H	-1.584365	-0.281000	0.510489
O137	O	-1.543567	-0.197726	0.340097
C138	C	-1.341971	-0.211188	0.426152
C139	C	-1.452673	-0.159985	0.384190
H140	H	-1.268434	-0.180695	0.461800
H141	H	-1.405353	-0.246297	0.461869
H142	H	-1.270101	-0.244484	0.385806
H143	H	-1.524571	-0.126643	0.424484
H144	H	-1.389200	-0.124924	0.348462
H145	H	-1.559393	-0.190496	0.195738
H146	H	-1.924657	-0.021528	0.665947
