data_functionalizedCrystal
_audit_creation_method	'MofGen! by Chris Wilmer'
_symmetry_space_group_name_H-M	'P1'
_symmetry_Int_Tables_number	1
_symmetry_cell_setting	triclinic
loop_
_symmetry_equiv_pos_as_xyz
  x,y,z
_cell_length_a	15.537862
_cell_length_b	17.019294
_cell_length_c	14.185569
_cell_angle_alpha	73.120776
_cell_angle_beta	97.877082
_cell_angle_gamma	65.374583
loop_
_atom_site_label
_atom_site_type_symbol
_atom_site_fract_x
_atom_site_fract_y
_atom_site_fract_z
O1	O	1.234214	-0.238315	-0.062781
O2	O	0.957744	-0.144849	-0.070868
O3	O	1.106295	-0.311592	-0.056453
O4	O	1.085663	-0.071571	-0.077196
O5	O	1.150178	-0.360846	0.114640
O6	O	1.001627	-0.194102	0.100225
O7	O	1.278097	-0.287568	0.108311
Cu8	Cu	1.143869	-0.245332	0.119890
Cu9	Cu	1.091972	-0.187085	-0.082446
O10	O	1.129546	-0.120825	0.093896
C11	C	0.944358	-0.159696	0.013832
C12	C	0.839094	-0.130566	0.011311
C13	C	0.677691	-0.012494	0.001103
C14	C	0.776604	-0.039875	0.003472
C15	C	0.802689	-0.193915	0.016790
C16	C	0.703777	-0.166549	0.014426
C17	C	0.641286	-0.075837	0.006582
C18	C	0.667372	-0.229892	0.019905
C19	C	0.568467	-0.202525	0.017537
C20	C	0.505969	-0.111816	0.009690
C21	C	0.542381	-0.048470	0.004213
C22	C	0.729863	-0.320601	0.027743
C23	C	0.693457	-0.383944	0.033222
C24	C	0.594553	-0.356580	0.030861
C25	C	0.532055	-0.265871	0.023013
C26	C	0.558141	-0.419926	0.036337
C27	C	0.459236	-0.392560	0.033968
C28	C	0.433150	-0.238505	0.020645
C29	C	1.128319	-0.366187	0.031681
C30	C	1.128556	-0.455478	0.039392
C31	C	1.104749	-0.470576	-0.050248
C32	C	1.104966	-0.554473	-0.043000
C33	C	1.128997	-0.623274	0.053888
C34	C	1.152803	-0.608172	0.143534
C35	C	1.152579	-0.524273	0.136285
C36	C	1.130864	-0.877935	0.080441
C37	C	1.131090	-0.961839	0.087683
C38	C	1.083250	-0.908133	-0.098853
C39	C	1.083034	-0.824238	-0.106093
C40	C	1.106835	-0.809140	-0.016447
C41	C	1.129223	-0.709032	0.061299
C42	C	1.106603	-0.723381	-0.023859
C43	C	1.291482	-0.272720	0.023609
C44	C	1.396745	-0.301848	0.026124
C45	C	1.107521	-0.066229	0.005760
C46	C	1.107283	0.023064	-0.001957
N47	N	1.180377	-0.286304	0.262203
N48	N	1.055471	-0.146122	-0.224759
C49	C	0.948210	-0.025784	0.607331
C50	C	0.975871	-0.056816	0.715036
C51	C	1.107438	-0.204434	0.727758
C52	C	1.079785	-0.173417	0.620053
C53	C	1.000171	-0.084091	0.559848
C54	C	1.131746	-0.231723	0.572569
C55	C	1.104098	-0.200706	0.464874
C56	C	1.024489	-0.111382	0.404661
C57	C	0.972523	-0.053074	0.452152
C58	C	1.211364	-0.321046	0.632776
C59	C	1.263325	-0.379352	0.585293
C60	C	1.235673	-0.348338	0.477595
C61	C	1.156064	-0.259014	0.417383
C62	C	1.287639	-0.406647	0.430105
C63	C	1.259991	-0.375629	0.322409
C64	C	1.128416	-0.227997	0.309687
H65	H	0.425434	-0.089535	0.007758
O66	O	1.083135	-0.656431	-0.117924
C67	C	0.972719	-0.497429	-0.237249
C68	C	0.999203	-0.573162	-0.130680
H69	H	0.904846	-0.430095	-0.247605
H70	H	1.037876	-0.483483	-0.243019
H71	H	0.955791	-0.522672	-0.300051
H72	H	1.016112	-0.547981	-0.067815
H73	H	0.934028	-0.587097	-0.124998
O74	O	1.365088	-0.493360	0.488540
C75	C	1.539562	-0.598332	0.529647
C76	C	1.451944	-0.500086	0.463426
H77	H	1.609802	-0.603808	0.509351
H78	H	1.550489	-0.610518	0.614792
H79	H	1.523236	-0.653431	0.513771
H80	H	1.468204	-0.444926	0.479212
H81	H	1.441040	-0.487981	0.378301
H82	H	1.171952	-0.511979	0.209279
H83	H	0.429594	-0.444140	0.038428
H84	H	1.148792	-0.765061	0.140186
O85	O	0.870863	0.060942	0.548687
C86	C	0.769995	0.174163	0.377130
C87	C	0.857590	0.075923	0.443421
H88	H	0.759250	0.186314	0.292009
H89	H	0.699674	0.179666	0.397241
H90	H	0.786260	0.229269	0.393073
H91	H	0.841421	0.020759	0.427514
H92	H	0.927884	0.070500	0.423298
H93	H	0.806243	0.011710	-0.000978
H94	H	0.626810	0.061369	-0.005271
O95	O	1.175986	-0.674908	0.237669
C96	C	1.134645	-0.713337	0.396477
C97	C	1.108262	-0.637678	0.289888
H98	H	1.079918	-0.683259	0.438735
H99	H	1.130674	-0.775899	0.386319
H100	H	1.212931	-0.736852	0.443317
H101	H	1.029974	-0.614085	0.242991
H102	H	1.112302	-0.575168	0.300121
H103	H	0.810391	-0.342874	0.029651
H104	H	0.744350	-0.457801	0.039605
O105	O	0.481791	0.039696	-0.003453
C106	C	0.466360	0.189594	-0.016348
C107	C	0.535079	0.089787	-0.007691
H108	H	0.509421	0.230115	-0.019755
H109	H	0.401053	0.226922	-0.089415
H110	H	0.437743	0.185608	0.053797
H111	H	0.563769	0.093688	-0.077781
H112	H	0.600332	0.052498	0.065419
H113	H	0.933552	-0.009327	0.753690
H114	H	1.063580	-0.155263	0.260665
H115	H	1.172263	-0.277163	0.776789
H116	H	1.085185	-0.414563	-0.129145
O117	O	0.618993	-0.508016	0.043993
C118	C	0.782902	-0.618424	0.053465
C119	C	0.714103	-0.518641	0.044817
H120	H	0.859807	-0.627041	0.054111
H121	H	0.788337	-0.671678	0.127906
H122	H	0.751465	-0.630403	-0.015302
H123	H	0.745487	-0.506571	0.113528
H124	H	0.708671	-0.465439	-0.029666
H125	H	1.233875	-0.346295	0.720469
H126	H	0.382269	-0.164642	0.014271
H127	H	1.001982	-0.086128	0.316968
H128	H	1.085584	-0.566761	-0.115994
H129	H	1.063467	-0.768223	-0.184989
H130	H	1.150655	-1.017857	0.166585
H131	H	1.063871	-0.920435	-0.171837
H132	H	1.150264	-0.865662	0.153438
H133	H	0.907687	0.019661	0.403130
O134	O	1.340606	-0.466109	0.643934
C135	C	1.441550	-0.579301	0.815482
C136	C	1.353998	-0.481034	0.749198
H137	H	1.452418	-0.591392	0.900599
H138	H	1.425294	-0.634461	0.799676
H139	H	1.511806	-0.584775	0.795228
H140	H	1.283704	-0.475470	0.769413
H141	H	1.370339	-0.425922	0.765012
H142	H	1.302304	-0.423109	0.283748
H143	H	0.853582	-0.267772	0.023173
