data_functionalizedCrystal
_audit_creation_method	'MofGen! by Chris Wilmer'
_symmetry_space_group_name_H-M	'P1'
_symmetry_Int_Tables_number	1
_symmetry_cell_setting	triclinic
loop_
_symmetry_equiv_pos_as_xyz
  x,y,z
_cell_length_a	18.101398
_cell_length_b	18.101395
_cell_length_c	12.759387
_cell_angle_alpha	89.966033
_cell_angle_beta	89.983453
_cell_angle_gamma	90.029256
loop_
_atom_site_label
_atom_site_type_symbol
_atom_site_fract_x
_atom_site_fract_y
_atom_site_fract_z
Zn1	Zn	1.132137	-0.294819	-0.593927
Zn2	Zn	1.632137	0.205181	-0.093927
Zn3	Zn	1.132028	-0.418681	-0.418241
Zn4	Zn	1.632028	0.081319	0.081759
Zn5	Zn	1.008291	-0.294854	-0.418271
Zn6	Zn	1.508291	0.205146	0.081729
Zn7	Zn	1.008247	-0.418619	-0.593887
Zn8	Zn	1.508247	0.081381	-0.093887
O9	O	1.070176	-0.356743	-0.506081
O10	O	1.570176	0.143257	-0.006081
O11	O	1.235756	-0.311261	-0.570626
O12	O	1.735756	0.188739	-0.070626
O13	O	1.115587	-0.402296	-0.271224
O14	O	1.615587	0.097704	0.228776
O15	O	1.024784	-0.191217	-0.441601
O16	O	1.524784	0.308783	0.058399
O17	O	1.235675	-0.402262	-0.441550
O18	O	1.735675	0.097738	0.058450
O19	O	1.115773	-0.191190	-0.570655
O20	O	1.615773	0.308810	-0.070655
O21	O	1.024678	-0.311321	-0.271245
O22	O	1.524678	0.188679	0.228755
O23	O	0.904652	-0.311261	-0.441562
O24	O	1.404652	0.188739	0.058438
O25	O	1.024708	-0.402155	-0.740914
O26	O	1.524708	0.097845	-0.240914
O27	O	0.904620	-0.402190	-0.570587
O28	O	1.404620	0.097810	-0.070587
O29	O	1.115730	-0.311200	-0.740943
O30	O	1.615730	0.188800	-0.240943
O31	O	1.115544	-0.522306	-0.441512
O32	O	1.615544	-0.022306	0.058488
O33	O	1.024602	-0.522260	-0.570558
O34	O	1.524602	-0.022260	-0.070558
C35	C	0.877765	-0.356723	-0.506074
C36	C	1.377765	0.143277	-0.006074
C37	C	0.795451	-0.356732	-0.506096
C38	C	1.295451	0.143268	-0.006096
C39	C	0.644743	-0.356746	-0.506094
C40	C	1.144743	0.143254	-0.006094
C41	C	0.613393	-0.414044	-0.587147
C42	C	1.113393	0.085956	-0.087147
C43	C	0.527775	-0.414276	-0.586907
C44	C	1.027775	0.085724	-0.086907
C45	C	0.496360	-0.356759	-0.506094
C46	C	0.996360	0.143241	-0.006094
C47	C	0.527410	-0.377596	-0.395237
C48	C	1.027410	0.122404	0.104763
C49	C	0.613055	-0.378004	-0.395706
C50	C	1.113055	0.121996	0.104294
C51	C	0.613222	-0.278469	-0.534930
C52	C	1.113222	0.221531	-0.034930
C53	C	0.527572	-0.278898	-0.537372
C54	C	1.027572	0.221102	-0.037372
C55	C	0.412501	-0.356766	-0.506088
C56	C	0.912501	0.143234	-0.006088
C57	C	0.728602	-0.356741	-0.506093
C58	C	1.228602	0.143259	-0.006093
C59	C	1.070077	-0.549154	-0.506050
C60	C	1.570077	-0.049154	-0.006050
C61	C	1.070102	-0.631468	-0.506072
C62	C	1.570102	-0.131468	-0.006072
C63	C	1.070265	-0.930559	-0.506129
C64	C	1.570265	-0.430559	-0.006129
C65	C	1.013179	-0.899236	-0.587523
C66	C	1.513179	-0.399236	-0.087523
C67	C	1.012908	-0.813618	-0.587268
C68	C	1.512908	-0.313618	-0.087268
C69	C	1.070184	-0.782176	-0.506102
C70	C	1.570184	-0.282176	-0.006102
C71	C	1.049052	-0.813336	-0.395378
C72	C	1.549052	-0.313336	0.104622
C73	C	1.048684	-0.898981	-0.395865
C74	C	1.548684	-0.398981	0.104135
C75	C	1.148607	-0.898903	-0.534485
C76	C	1.648607	-0.398903	-0.034485
C77	C	1.148146	-0.813251	-0.536913
C78	C	1.648146	-0.313251	-0.036913
C79	C	1.070140	-0.698317	-0.506080
C80	C	1.570140	-0.198317	-0.006080
C81	C	1.070307	-1.014418	-0.506144
C82	C	1.570307	-0.514418	-0.006144
C83	C	1.263338	-0.356764	-0.506089
C84	C	1.763338	0.143236	-0.006089
C85	C	1.345652	-0.356773	-0.506093
C86	C	1.845652	0.143227	-0.006093
C87	C	1.070226	-0.356667	-0.780115
C88	C	1.570226	0.143333	-0.280115
C89	C	1.070247	-0.356634	-0.896892
C90	C	1.570247	0.143366	-0.396892
C91	C	1.070295	-0.163581	-0.506135
C92	C	1.570295	0.336419	-0.006135
C93	C	1.070346	-0.081267	-0.506158
C94	C	1.570346	0.418733	-0.006158
C95	C	0.975590	-0.261895	-0.896933
C96	C	1.475590	0.238105	-0.396933
C97	C	0.928275	-0.214511	-0.951815
C98	C	1.428275	0.285489	-0.451815
C99	C	0.928297	-0.214484	-1.061536
C100	C	1.428297	0.285516	-0.561536
C101	C	0.975638	-0.261848	-1.116379
C102	C	1.475638	0.238152	-0.616379
C103	C	1.022953	-0.309233	-1.061498
C104	C	1.522953	0.190767	-0.561498
C105	C	1.022927	-0.309253	-0.951773
C106	C	1.522927	0.190747	-0.451773
C107	C	1.117606	-0.403974	-1.061456
C108	C	1.617606	0.096026	-0.561456
C109	C	1.117588	-0.403998	-0.951734
C110	C	1.617588	0.096002	-0.451734
C111	C	1.164947	-0.451338	-1.116299
C112	C	1.664947	0.048662	-0.616299
C113	C	1.212267	-0.498720	-1.061417
C114	C	1.712267	0.001280	-0.561417
C115	C	1.212243	-0.498744	-0.951689
C116	C	1.712243	0.001256	-0.451689
C117	C	1.164903	-0.451383	-0.896853
C118	C	1.664903	0.048617	-0.396853
C119	C	1.070168	-0.356766	-0.233114
C120	C	1.570168	0.143234	0.266886
C121	C	1.070290	-0.356590	-0.116338
C122	C	1.570290	0.143410	0.383662
H123	H	0.634016	-0.401196	-0.669588
H124	H	1.134016	0.098804	-0.169588
H125	H	0.634881	-0.471718	-0.568248
H126	H	1.134881	0.028282	-0.068248
H127	H	1.026270	-0.919777	-0.669890
H128	H	1.526270	-0.419777	-0.169890
C129	C	0.876195	-0.162421	-0.891492
C130	C	1.376195	0.337579	-0.391492
H131	H	0.848013	-0.134205	-0.939893
H132	H	1.348013	0.365795	-0.439893
H133	H	0.904529	-0.130167	-0.848694
H134	H	1.404529	0.369833	-0.348694
H135	H	0.843897	-0.190765	-0.848687
H136	H	1.343897	0.309235	-0.348687
H137	H	0.975645	-0.261829	-1.205720
H138	H	1.475645	0.238171	-0.705720
C139	C	1.164753	-0.451533	-1.236988
C140	C	1.664753	0.048467	-0.736988
H141	H	1.199652	-0.486597	-1.261787
H142	H	1.699652	0.013403	-0.761787
H143	H	1.177533	-0.403809	-1.262159
H144	H	1.677533	0.096191	-0.762159
H145	H	1.116890	-0.464395	-1.261476
H146	H	1.616890	0.035605	-0.761476
H147	H	0.954839	-0.793194	-0.568486
H148	H	1.454839	-0.293194	-0.068486
H149	H	1.164882	-0.451395	-0.807512
H150	H	1.664882	0.048605	-0.307512
C151	C	0.971320	-0.926062	-0.363425
C152	C	1.471320	-0.426062	0.136575
H153	H	0.940411	-0.884721	-0.350079
H154	H	1.440411	-0.384721	0.149921
H155	H	0.975109	-0.955320	-0.301833
H156	H	1.475109	-0.455320	0.198167
H157	H	0.950704	-0.954841	-0.418369
H158	H	1.450704	-0.454841	0.081631
H159	H	0.506782	-0.401277	-0.669092
H160	H	1.006782	0.098723	-0.169092
H161	H	1.088458	-0.919705	-0.333152
H162	H	1.588458	-0.419705	0.166848
H163	H	1.026130	-0.792547	-0.669370
H164	H	1.526130	-0.292547	-0.169370
H165	H	1.250805	-0.537283	-1.106079
H166	H	1.750805	-0.037283	-0.606079
C167	C	0.972503	-0.784461	-0.362348
C168	C	1.472503	-0.284461	0.137652
H169	H	0.953320	-0.753426	-0.415878
H170	H	1.453320	-0.253426	0.084122
H171	H	0.976931	-0.757133	-0.299123
H172	H	1.476931	-0.257133	0.200877
H173	H	0.940024	-0.825019	-0.351688
H174	H	1.440024	-0.325019	0.148312
C175	C	0.935207	-0.928386	-0.562469
C176	C	1.435207	-0.428386	-0.062469
H177	H	0.937292	-0.959561	-0.502619
H178	H	1.437292	-0.459561	-0.002619
H179	H	0.917014	-0.955625	-0.620614
H180	H	1.417014	-0.455625	-0.120614
H181	H	0.903215	-0.887951	-0.548695
H182	H	1.403215	-0.387951	-0.048695
C183	C	1.174634	-0.927998	-0.641699
C184	C	1.674634	-0.427998	-0.141699
H185	H	1.137959	-0.959726	-0.670174
H186	H	1.637959	-0.459726	-0.170174
H187	H	1.219437	-0.954634	-0.633191
H188	H	1.719437	-0.454634	-0.133191
H189	H	1.182543	-0.887577	-0.687889
H190	H	1.682543	-0.387577	-0.187889
C191	C	1.103445	-0.785824	-0.311212
C192	C	1.603445	-0.285824	0.188788
H193	H	1.139611	-0.755014	-0.342928
H194	H	1.639611	-0.255014	0.157072
H195	H	1.126990	-0.826938	-0.279202
H196	H	1.626990	-0.326938	0.220798
H197	H	1.077291	-0.758532	-0.259589
H198	H	1.577291	-0.258532	0.240411
C199	C	0.498693	-0.218175	-0.463504
C200	C	0.998693	0.281825	0.036496
H201	H	0.518423	-0.171769	-0.484241
H202	H	1.018423	0.328231	0.015759
H203	H	0.513534	-0.228806	-0.393704
H204	H	1.013534	0.271194	0.106296
H205	H	0.446297	-0.216481	-0.467007
H206	H	0.946297	0.283519	0.032993
H207	H	0.889768	-0.175901	-1.106221
H208	H	1.389768	0.324099	-0.606221
C209	C	0.500165	-0.257655	-0.647582
C210	C	1.000165	0.242345	-0.147582
H211	H	0.519236	-0.210506	-0.666058
H212	H	1.019236	0.289494	-0.166058
H213	H	0.447714	-0.255996	-0.647836
H214	H	0.947714	0.244004	-0.147836
H215	H	0.516650	-0.293359	-0.696853
H216	H	1.016650	0.206641	-0.196853
H217	H	1.164082	-0.792882	-0.618400
H218	H	1.664082	-0.292882	-0.118400
H219	H	1.192928	-0.791845	-0.481950
H220	H	1.692928	-0.291845	0.018050
C221	C	1.206047	-0.926193	-0.454331
C222	C	1.706047	-0.426193	0.045669
H223	H	1.182443	-0.956739	-0.403837
H224	H	1.682443	-0.456739	0.096163
H225	H	1.227876	-0.884964	-0.420250
H226	H	1.727876	-0.384964	0.079750
H227	H	1.243246	-0.953705	-0.489437
H228	H	1.743246	-0.453705	0.010563
C229	C	1.264287	-0.550868	-0.891322
C230	C	1.764287	-0.050868	-0.391322
H231	H	1.257493	-0.544106	-0.818120
H232	H	1.757493	-0.044106	-0.318120
H233	H	1.314057	-0.540041	-0.909310
H234	H	1.814057	-0.040041	-0.409310
H235	H	1.253408	-0.600622	-0.909286
H236	H	1.753408	-0.100622	-0.409286
C237	C	0.500045	-0.492634	-0.561051
C238	C	1.000045	0.007366	-0.061051
H239	H	0.541124	-0.524447	-0.550643
H240	H	1.041124	-0.024447	-0.050643
H241	H	0.470906	-0.510568	-0.617482
H242	H	0.970906	-0.010568	-0.117482
H243	H	0.471007	-0.491231	-0.499052
H244	H	0.971007	0.008769	0.000948
H245	H	0.633793	-0.338054	-0.333243
H246	H	1.133793	0.161946	0.166757
C247	C	0.639998	-0.455289	-0.362794
C248	C	1.139998	0.044711	0.137206
H249	H	0.598602	-0.486141	-0.349268
H250	H	1.098602	0.013859	0.150732
H251	H	0.669218	-0.451341	-0.301220
H252	H	1.169218	0.048659	0.198780
H253	H	0.668786	-0.476071	-0.417607
H254	H	1.168786	0.023929	0.082393
H255	H	0.975573	-0.261906	-0.807592
H256	H	1.475573	0.238094	-0.307592
H257	H	0.505930	-0.434182	-0.370451
H258	H	1.005930	0.065818	0.129549
C259	C	0.499918	-0.322955	-0.311408
C260	C	0.999918	0.177045	0.188592
H261	H	0.469183	-0.286865	-0.343348
H262	H	0.969183	0.213135	0.156652
H263	H	0.541043	-0.299340	-0.279532
H264	H	1.041043	0.200660	0.220468
H265	H	0.472551	-0.348954	-0.259632
H266	H	0.972551	0.151046	0.240368
H267	H	0.634850	-0.259434	-0.614405
H268	H	1.134850	0.240566	-0.114405
H269	H	0.633498	-0.235782	-0.475901
H270	H	1.133498	0.264218	0.024099
