data_functionalizedCrystal
_audit_creation_method	'MofGen! by Chris Wilmer'
_symmetry_space_group_name_H-M	'P1'
_symmetry_Int_Tables_number	1
_symmetry_cell_setting	triclinic
loop_
_symmetry_equiv_pos_as_xyz
  x,y,z
_cell_length_a	13.897449
_cell_length_b	13.897447
_cell_length_c	12.759393
_cell_angle_alpha	89.967926
_cell_angle_beta	89.976808
_cell_angle_gamma	90.020357
loop_
_atom_site_label
_atom_site_type_symbol
_atom_site_fract_x
_atom_site_fract_y
_atom_site_fract_z
Zn1	Zn	1.474688	-0.383937	-0.594109
Zn2	Zn	1.974688	0.116063	-0.094109
Zn3	Zn	1.474578	-0.545266	-0.418428
Zn4	Zn	1.974578	-0.045266	0.081572
Zn5	Zn	1.313378	-0.383989	-0.418434
Zn6	Zn	1.813378	0.116011	0.081566
Zn7	Zn	1.313354	-0.545194	-0.594055
Zn8	Zn	1.813354	-0.045194	-0.094055
O9	O	1.394000	-0.464596	-0.506257
O10	O	1.894000	0.035404	-0.006257
O11	O	1.609655	-0.405346	-0.570825
O12	O	2.109655	0.094654	-0.070825
O13	O	1.453158	-0.523925	-0.271408
O14	O	1.953158	-0.023925	0.228592
O15	O	1.334833	-0.249000	-0.441763
O16	O	1.834833	0.251000	0.058237
O17	O	1.609574	-0.523874	-0.441752
O18	O	2.109574	-0.023874	0.058248
O19	O	1.453347	-0.248962	-0.570831
O20	O	1.953347	0.251038	-0.070831
O21	O	1.334725	-0.405435	-0.271412
O22	O	1.834725	0.094565	0.228588
O23	O	1.178393	-0.405365	-0.441711
O24	O	1.678393	0.094635	0.058289
O25	O	1.334792	-0.523750	-0.741083
O26	O	1.834792	-0.023750	-0.241083
O27	O	1.178376	-0.523801	-0.570738
O28	O	1.678376	-0.023801	-0.070738
O29	O	1.453323	-0.405276	-0.741123
O30	O	1.953323	0.094724	-0.241123
O31	O	1.453135	-0.680238	-0.441700
O32	O	1.953135	-0.180238	0.058300
O33	O	1.334684	-0.680185	-0.570732
O34	O	1.834684	-0.180185	-0.070732
C35	C	1.143385	-0.464582	-0.506220
C36	C	1.643385	0.035418	-0.006220
C37	C	1.036171	-0.464598	-0.506229
C38	C	1.536171	0.035402	-0.006229
C39	C	1.393921	-0.715211	-0.506232
C40	C	1.893921	-0.215211	-0.006232
C41	C	1.393976	-0.822425	-0.506257
C42	C	1.893976	-0.322425	-0.006257
C43	C	0.949102	-0.464602	-0.506247
C44	C	1.449102	0.035398	-0.006247
C45	C	0.839869	-0.464608	-0.506279
C46	C	1.339869	0.035392	-0.006279
C47	C	1.394022	-0.909494	-0.506281
C48	C	1.894022	-0.409494	-0.006281
C49	C	1.394090	-1.018727	-0.506308
C50	C	1.894090	-0.518727	-0.006308
C51	C	1.645593	-0.464612	-0.506294
C52	C	2.145593	0.035388	-0.006294
C53	C	1.752806	-0.464619	-0.506310
C54	C	2.252806	0.035381	-0.006310
C55	C	1.394067	-0.464499	-0.780290
C56	C	1.894067	0.035501	-0.280290
C57	C	1.394096	-0.464458	-0.897067
C58	C	1.894096	0.035542	-0.397067
C59	C	1.394105	-0.213003	-0.506304
C60	C	1.894105	0.286997	-0.006304
C61	C	1.394149	-0.105789	-0.506324
C62	C	1.894149	0.394211	-0.006324
C63	C	1.455824	-0.402762	-0.951951
C64	C	1.955824	0.097238	-0.451951
C65	C	1.455847	-0.402727	-1.061675
C66	C	1.955847	0.097273	-0.561675
C67	C	1.332411	-0.526092	-1.061621
C68	C	1.832411	-0.026092	-0.561621
C69	C	1.332384	-0.526121	-0.951899
C70	C	1.832384	-0.026121	-0.451899
C71	C	1.527091	-0.331541	-0.951984
C72	C	2.027091	0.168459	-0.451984
C73	C	1.527114	-0.331506	-1.061708
C74	C	2.027114	0.168494	-0.561708
C75	C	1.393988	-0.464624	-0.233289
C76	C	1.893988	0.035376	0.266711
C77	C	1.394146	-0.464393	-0.116513
C78	C	1.894146	0.035607	0.383487
H79	H	1.282116	-0.576356	-0.907216
H80	H	1.782116	-0.076356	-0.407216
H81	H	1.507112	-0.256840	-0.922227
H82	H	2.007112	0.243160	-0.422227
H83	H	1.282166	-0.576294	-1.106278
H84	H	1.782166	-0.076294	-0.606278
H85	H	1.598033	-0.358320	-0.917954
H86	H	2.098033	0.141680	-0.417954
C87	C	1.491058	-0.235603	-1.107708
C88	C	1.991058	0.264397	-0.607708
N89	N	1.463911	-0.163367	-1.142357
N90	N	1.963911	0.336633	-0.642357
H91	H	1.601820	-0.351513	-1.091493
H92	H	2.101820	0.148487	-0.591493
