data_functionalizedCrystal
_audit_creation_method	'MofGen! by Chris Wilmer'
_symmetry_space_group_name_H-M	'P1'
_symmetry_Int_Tables_number	1
_symmetry_cell_setting	triclinic
loop_
_symmetry_equiv_pos_as_xyz
  x,y,z
_cell_length_a	16.992694
_cell_length_b	14.519709
_cell_length_c	15.455313
_cell_angle_alpha	92.669068
_cell_angle_beta	87.142206
_cell_angle_gamma	87.174184
loop_
_atom_site_label
_atom_site_type_symbol
_atom_site_fract_x
_atom_site_fract_y
_atom_site_fract_z
O1	O	1.044092	0.191795	-0.072025
O2	O	0.815805	0.189648	-0.072051
O3	O	0.936001	0.056918	-0.072029
O4	O	0.923896	0.324525	-0.072046
O5	O	0.929127	0.064474	0.072232
O6	O	0.808932	0.197205	0.072210
O7	O	1.037219	0.199352	0.072236
Cu8	Cu	0.922447	0.198968	0.085395
Cu9	Cu	0.930576	0.190031	-0.085210
O10	O	0.917023	0.332082	0.072215
C11	C	0.783152	0.190666	0.000077
C12	C	0.696097	0.182430	0.000067
C13	C	0.645968	0.261890	0.000063
C14	C	0.564170	0.254147	0.000075
C15	C	0.532502	0.166943	0.000086
C16	C	0.582638	0.087478	0.000093
C17	C	0.664434	0.095222	0.000087
C18	C	0.288859	0.134847	0.000111
C19	C	0.207056	0.127109	0.000115
C20	C	0.188594	0.293779	0.000099
C21	C	0.270393	0.301515	0.000087
C22	C	0.320520	0.222050	0.000099
N23	N	0.448892	0.159027	0.000096
N24	N	0.404129	0.229968	0.000095
C25	C	0.932000	0.026296	0.000101
C26	C	0.930309	-0.076207	0.000102
C27	C	0.924087	-0.451550	0.000078
C28	C	0.925815	-0.347118	0.000085
C29	C	0.927198	-0.263882	0.000091
C30	C	0.928926	-0.159443	0.000096
C31	C	1.069872	0.198333	0.000107
C32	C	1.156927	0.206569	0.000111
C33	C	0.921024	0.362704	0.000082
C34	C	0.922715	0.465206	0.000076
N35	N	0.916736	0.205254	0.205390
N36	N	0.936294	0.183739	-0.205204
C37	C	0.967817	0.148889	0.250793
C38	C	0.963505	0.153651	0.341600
C39	C	0.908115	0.214784	0.387002
C40	C	0.857028	0.271151	0.341593
C41	C	0.861337	0.266383	0.250787
C42	C	0.889516	0.235339	0.658581
C43	C	0.885212	0.240104	0.749392
C44	C	0.991689	0.122602	0.749393
C45	C	0.995996	0.117844	0.658586
C46	C	0.944907	0.174208	0.613185
N47	N	0.903708	0.219655	0.479822
N48	N	0.949311	0.169331	0.520367
H49	H	0.147771	0.358475	0.000091
C50	C	0.796091	0.338389	0.391539
N51	N	0.750191	0.389034	0.429157
H52	H	0.181276	0.056094	0.000123
H53	H	0.840105	0.289889	0.786355
C54	C	1.047877	0.060598	0.799342
N55	N	1.090197	0.013891	0.836964
H56	H	0.847918	0.281234	0.621622
C57	C	0.805150	0.328397	0.200845
N58	N	0.762828	0.375109	0.163229
H59	H	1.005099	0.107754	0.378567
C60	C	0.680793	0.357821	0.000053
N61	N	0.707021	0.430080	0.000049
C62	C	0.305219	0.397447	0.000089
N63	N	0.331450	0.469704	0.000093
H64	H	0.523358	0.318852	0.000071
H65	H	1.041099	0.068065	0.621621
H66	H	0.556847	0.016475	0.000114
C67	C	0.719576	0.007809	0.000089
N68	N	0.761108	-0.058032	0.000093
C69	C	0.343989	0.047432	0.000118
N70	N	0.385517	-0.018414	0.000122
H71	H	1.012925	0.099112	0.213832
