data_functionalizedCrystal
_audit_creation_method	'MofGen! by Chris Wilmer'
_symmetry_space_group_name_H-M	'P1'
_symmetry_Int_Tables_number	1
_symmetry_cell_setting	triclinic
loop_
_symmetry_equiv_pos_as_xyz
  x,y,z
_cell_length_a	16.109302
_cell_length_b	10.723022
_cell_length_c	15.186229
_cell_angle_alpha	89.999093
_cell_angle_beta	89.992447
_cell_angle_gamma	96.035496
loop_
_atom_site_label
_atom_site_type_symbol
_atom_site_fract_x
_atom_site_fract_y
_atom_site_fract_z
O1	O	-1.104077	0.160388	0.073266
O2	O	-0.862132	0.180348	0.073259
O3	O	-0.988686	-0.011282	0.073259
O4	O	-0.977523	0.352018	0.073265
O5	O	-0.988671	-0.011271	-0.073198
O6	O	-0.862117	0.180359	-0.073199
O7	O	-1.104062	0.160399	-0.073191
Zn8	Zn	-0.983087	0.170381	-0.096448
Zn9	Zn	-0.983107	0.170366	0.096516
O10	O	-0.977508	0.352029	-0.073192
C11	C	-0.831145	0.179545	0.000029
C12	C	-0.738835	0.177120	0.000026
C13	C	-0.987866	-0.057766	0.000032
C14	C	-0.985437	-0.196288	0.000035
C15	C	-1.053736	-0.415371	0.000041
C16	C	-1.056249	-0.272202	0.000038
C17	C	-1.135049	0.161202	0.000040
C18	C	-1.227358	0.163627	0.000049
C19	C	-0.526453	0.171520	-0.079799
C20	C	-0.439720	0.169229	-0.079796
C21	C	-0.439747	0.169223	0.079880
C22	C	-0.526479	0.171506	0.079876
C23	C	-0.569830	0.172660	0.000034
C24	C	-0.396364	0.168087	0.000041
C25	C	-0.302323	0.165602	0.000045
C26	C	-0.663877	0.175143	0.000030
C27	C	-0.978327	0.398513	0.000038
C28	C	-0.980757	0.537035	0.000040
N29	N	-0.983080	0.170390	-0.228141
C30	C	-1.033949	0.246075	-0.453861
C31	C	-1.033958	0.246066	-0.546050
C32	C	-0.932250	0.094653	-0.546065
C33	C	-0.932246	0.094656	-0.453878
C34	C	-0.983094	0.170375	-0.407778
C35	C	-0.983107	0.170362	-0.592155
C36	C	-0.983116	0.170352	-0.692111
C37	C	-0.983086	0.170383	-0.307815
N38	N	-0.983121	0.170347	0.228208
H39	H	-1.118734	-0.231218	0.000070
H40	H	-1.075370	0.307708	-0.583567
C41	C	-1.135634	-0.503496	0.000045
H42	H	-1.181747	-0.455070	0.000040
H43	H	-1.137850	-0.554888	0.051118
H44	H	-1.137839	-0.554882	-0.051034
C45	C	-0.574200	0.172766	0.167694
H46	H	-0.632064	0.174279	0.156255
H47	H	-0.554067	0.245115	0.200498
H48	H	-0.565921	0.099660	0.200499
C49	C	-1.089890	0.329345	-0.403153
H50	H	-1.120185	0.374417	-0.443806
H51	H	-1.056153	0.386764	-0.367196
H52	H	-1.127861	0.278211	-0.367187
H53	H	-0.922949	-0.237263	0.000039
C54	C	-0.898859	-0.374841	0.000036
H55	H	-0.852747	-0.423266	0.000030
H56	H	-0.896654	-0.323447	0.051106
H57	H	-0.896645	-0.323456	-0.051046
C58	C	-0.876301	0.011397	-0.596774
H59	H	-0.846014	-0.033689	-0.556123
H60	H	-0.838335	0.062533	-0.632738
H61	H	-0.910037	-0.046029	-0.632736
H62	H	-0.890833	0.033005	-0.416356
H63	H	-0.404407	0.168300	-0.144804
C64	C	-0.574140	0.172754	-0.167621
H65	H	-0.535882	0.171728	-0.215165
H66	H	-0.602054	0.246359	-0.170956
H67	H	-0.613894	0.100904	-0.170928
H68	H	-0.404440	0.168284	0.144884
