data_functionalizedCrystal
_audit_creation_method	'MofGen! by Chris Wilmer'
_symmetry_space_group_name_H-M	'P1'
_symmetry_Int_Tables_number	1
_symmetry_cell_setting	triclinic
loop_
_symmetry_equiv_pos_as_xyz
  x,y,z
_cell_length_a	12.970454
_cell_length_b	14.560432
_cell_length_c	12.970454
_cell_angle_alpha	90.000384
_cell_angle_beta	60.000396
_cell_angle_gamma	60.001258
loop_
_atom_site_label
_atom_site_type_symbol
_atom_site_fract_x
_atom_site_fract_y
_atom_site_fract_z
Zr1	Zr	1.128536	0.884753	-0.135292
O2	O	1.343620	0.738110	-0.299913
O3	O	0.913449	0.929707	-0.084827
O4	O	1.128537	0.929709	-0.299915
O5	O	1.128533	0.738107	0.084841
O6	O	1.128541	1.080847	-0.299916
O7	O	1.128532	0.738108	-0.084825
O8	O	0.743788	1.080843	0.084837
O9	O	1.513286	0.738110	-0.299912
O10	O	1.001922	1.061672	-0.063304
O11	O	1.001919	0.948879	0.063317
O12	O	1.255158	0.948882	-0.189922
O13	O	1.255155	0.836089	-0.063301
Zr14	Zr	1.128545	1.125799	0.135306
Zr15	Zr	1.128543	1.125801	-0.135292
Zr16	Zr	1.128538	0.884752	0.135307
Zr17	Zr	1.399134	0.884754	-0.135289
Zr18	Zr	0.857947	1.125798	0.135304
O19	O	1.343632	1.080845	0.084842
O20	O	1.343630	1.080848	-0.299914
O21	O	1.343622	0.738107	0.084843
O22	O	0.913461	1.272443	0.299928
O23	O	0.913459	1.272445	-0.084828
O24	O	0.913451	0.929705	0.299929
O25	O	1.128548	1.272446	-0.084826
O26	O	1.128544	1.080843	0.299930
O27	O	1.128540	0.929706	0.299931
O28	O	1.128549	1.272445	0.084840
O29	O	1.513292	0.929710	-0.299912
O30	O	0.743789	1.080842	0.299927
O31	O	0.743795	1.272442	0.299927
O32	O	0.743794	1.272444	0.084837
O33	O	1.513287	0.738109	-0.084822
O34	O	1.513293	0.929709	-0.084822
O35	O	1.001923	1.061671	0.189937
O36	O	1.001926	1.174464	0.063316
O37	O	1.255162	1.061673	-0.063302
O38	O	1.255159	0.948880	0.063319
C39	C	0.790064	1.005275	0.000005
C40	C	0.675188	1.005275	0.000004
C41	C	1.128532	0.703763	0.000008
C42	C	1.128529	0.601432	0.000008
C43	C	0.864148	0.719170	0.132186
C44	C	0.731962	0.729961	0.198269
C45	C	0.731969	0.633809	0.198266
C46	C	0.864175	0.526856	0.132176
C47	C	0.996360	0.516064	0.066093
C48	C	0.996340	0.612225	0.066100
C49	C	1.260738	0.398328	-0.066076
C50	C	1.260735	0.494479	-0.066082
C51	C	1.392944	0.291375	-0.132166
C52	C	1.525133	0.280582	-0.198258
C53	C	1.525121	0.376743	-0.198253
C54	C	1.392921	0.483688	-0.132165
C55	C	1.467017	1.005277	0.000010
C56	C	1.581893	1.005278	0.000011
C57	C	1.128539	1.005278	-0.338470
C58	C	1.128538	1.005279	-0.453346
C59	C	1.128549	1.306789	0.000007
C60	C	1.128552	1.409120	0.000007
C61	C	1.128542	1.005274	0.338485
C62	C	1.128543	1.005273	0.453361
C63	C	0.790073	1.306788	0.000004
C64	C	0.675200	1.409119	0.000003
C65	C	0.790066	1.005273	0.338482
C66	C	0.675191	1.005272	0.453357
C67	C	0.790075	1.306786	0.338481
C68	C	0.675203	1.409116	0.453356
C69	C	1.467006	0.703766	-0.338467
C70	C	1.581879	0.601436	-0.453341
C71	C	1.467008	0.703764	0.000011
C72	C	1.581881	0.601434	0.000012
C73	C	1.467015	1.005279	-0.338467
C74	C	1.581890	1.005280	-0.453342
C75	C	0.527770	1.457174	0.093477
C76	C	0.419820	1.553315	0.093480
C77	C	0.459303	1.601403	0.000013
C78	C	0.606747	1.553339	-0.093471
C79	C	0.714695	1.457195	-0.093478
C80	C	0.527773	1.457178	0.507301
C81	C	0.419822	1.553339	0.615226
C82	C	0.459303	1.601430	0.669210
C83	C	0.606747	1.553363	0.615255
C84	C	0.714695	1.457209	0.507327
C85	C	1.729308	0.553382	-0.507296
C86	C	1.837259	0.457243	-0.615245
C87	C	1.797777	0.409155	-0.669232
C88	C	1.650333	0.457219	-0.615273
C89	C	1.542385	0.553360	-0.507331
C90	C	1.542353	0.553376	0.093496
C91	C	1.650273	0.457235	0.093523
C92	C	1.797721	0.409149	0.000060
C93	C	1.837248	0.457215	-0.093429
C94	C	1.729329	0.553359	-0.093450
H95	H	0.864130	0.797468	0.132185
H96	H	0.495599	1.418034	0.463362
C97	C	1.772836	0.606199	-0.196310
N98	N	1.805616	0.645991	-0.273793
H99	H	1.618206	0.418050	-0.659245
C100	C	1.380211	0.606200	-0.447982
N101	N	1.258060	0.645993	-0.403284
C102	C	0.650155	1.606255	-0.196273
N103	N	0.682846	1.646119	-0.273698
C104	C	0.484304	1.404291	0.196301
N105	N	0.451553	1.364460	0.273747
C106	C	1.999451	0.404292	-0.196248
N107	N	2.121626	0.364419	-0.273700
H108	H	1.392898	0.561988	-0.132158
H109	H	0.299772	1.592436	0.169610
C110	C	0.340538	1.707198	0.787941
N111	N	0.251078	1.786860	0.877373
C112	C	1.380166	0.606258	0.196326
N113	N	1.258007	0.646087	0.273789
C114	C	0.864174	0.421089	0.132186
N115	N	0.864174	0.341424	0.132193
C116	C	0.257642	1.606187	0.674564
N117	N	0.135491	1.645986	0.719256
H118	H	0.371390	1.679687	0.000031
C119	C	1.606761	0.404374	0.196364
N120	N	1.573983	0.364559	0.273822
C121	C	0.876869	1.404353	-0.196304
N122	N	0.999020	1.364559	-0.273756
H123	H	0.624323	0.817052	0.252081
C124	C	1.999439	0.404387	-0.674575
N125	N	2.121590	0.364577	-0.719257
H126	H	0.624331	0.642601	0.252081
C127	C	1.392947	0.185607	-0.132168
N128	N	1.392952	0.105939	-0.132174
C129	C	1.670544	0.162936	-0.270952
N130	N	1.780069	0.074320	-0.325710
H131	H	1.885581	0.330862	0.000090
C132	C	0.876870	1.404344	0.448007
N133	N	0.999020	1.364531	0.403333
C134	C	1.772773	0.606265	-0.447936
N135	N	1.805524	0.646096	-0.403237
C136	C	1.916542	0.303408	-0.787987
N137	N	2.006002	0.223762	-0.877436
H138	H	0.638873	1.592534	0.659225
C139	C	1.670539	0.364858	-0.270953
N140	N	1.780072	0.355902	-0.325714
