data_functionalizedCrystal
_audit_creation_method	'MofGen! by Chris Wilmer'
_symmetry_space_group_name_H-M	'P1'
_symmetry_Int_Tables_number	1
_symmetry_cell_setting	triclinic
loop_
_symmetry_equiv_pos_as_xyz
  x,y,z
_cell_length_a	13.897448
_cell_length_b	12.759401
_cell_length_c	12.759393
_cell_angle_alpha	90.019676
_cell_angle_beta	90.032272
_cell_angle_gamma	90.018119
loop_
_atom_site_label
_atom_site_type_symbol
_atom_site_fract_x
_atom_site_fract_y
_atom_site_fract_z
Zn1	Zn	-0.383957	1.606244	0.593972
Zn2	Zn	0.116043	2.106244	1.093972
Zn3	Zn	-0.545284	1.606126	0.418286
Zn4	Zn	-0.045284	2.106126	0.918286
Zn5	Zn	-0.384005	1.430543	0.418311
Zn6	Zn	0.115995	1.930543	0.918311
Zn7	Zn	-0.545213	1.430526	0.593928
Zn8	Zn	-0.045213	1.930526	1.093928
O9	O	-0.464615	1.518360	0.506124
O10	O	0.035385	2.018360	1.006124
O11	O	-0.405367	1.753250	0.570675
O12	O	0.094633	2.253250	1.070675
O13	O	-0.523939	1.582793	0.271269
O14	O	-0.023939	2.082793	0.771269
O15	O	-0.249017	1.453907	0.441641
O16	O	0.250983	1.953907	0.941641
O17	O	-0.523893	1.753163	0.441600
O18	O	-0.023893	2.253163	0.941600
O19	O	-0.248982	1.582994	0.570699
O20	O	0.251018	2.082994	1.070699
O21	O	-0.405449	1.453793	0.271286
O22	O	0.094551	1.953793	0.771286
O23	O	-0.405381	1.283520	0.441598
O24	O	0.094619	1.783520	0.941598
O25	O	-0.523773	1.453878	0.740955
O26	O	-0.023773	1.953878	1.240955
O27	O	-0.523819	1.283507	0.570623
O28	O	-0.023819	1.783507	1.070623
O29	O	-0.405299	1.582977	0.740987
O30	O	0.094701	2.082977	1.240987
O31	O	-0.680256	1.582776	0.441557
O32	O	-0.180256	2.082776	0.941557
O33	O	-0.680204	1.453763	0.570600
O34	O	-0.180204	1.953763	1.070600
C35	C	-0.464598	1.245393	0.506109
C36	C	0.035402	1.745393	1.006109
C37	C	-0.464614	1.128616	0.506128
C38	C	0.035386	1.628616	1.006128
C39	C	-0.403010	1.073800	0.573441
C40	C	0.096990	1.573800	1.073441
C41	C	-0.403019	0.964076	0.573448
C42	C	0.096981	1.464076	1.073448
C43	C	-0.526247	0.963994	0.438826
C44	C	-0.026247	1.463994	0.938826
C45	C	-0.526232	1.073716	0.438814
C46	C	-0.026232	1.573716	0.938814
C47	C	-0.715229	1.518283	0.506094
C48	C	-0.215229	2.018283	1.006094
C49	C	-0.822443	1.518347	0.506116
C50	C	-0.322443	2.018347	1.006116
C51	C	-1.018738	1.518457	0.506182
C52	C	-0.518738	2.018457	1.006182
C53	C	-0.909506	1.518393	0.506148
C54	C	-0.409506	2.018393	1.006148
C55	C	-0.213022	1.518466	0.506178
C56	C	0.286978	2.018466	1.006178
C57	C	-0.105808	1.518511	0.506200
C58	C	0.394192	2.018511	1.006200
C59	C	-0.464522	1.518439	0.780158
C60	C	0.035478	2.018439	1.280158
C61	C	-0.464483	1.518472	0.896934
C62	C	0.035517	2.018472	1.396934
C63	C	-0.464632	1.792393	0.506140
C64	C	0.035368	2.292393	1.006140
C65	C	-0.464640	1.909170	0.506146
C66	C	0.035360	2.409170	1.006146
C67	C	-0.464638	1.518342	0.233157
C68	C	0.035362	2.018342	0.733157
C69	C	-0.464405	1.518512	0.116381
C70	C	0.035595	2.018512	0.616381
C71	C	-0.402784	1.585699	0.951815
C72	C	0.097216	2.085699	1.451815
C73	C	-0.402742	1.585717	1.061539
C74	C	0.097258	2.085717	1.561539
C75	C	-0.526107	1.451278	1.061492
C76	C	-0.026107	1.951278	1.561492
C77	C	-0.526143	1.451255	0.951770
C78	C	-0.026143	1.951255	1.451770
H79	H	-0.352853	0.919449	0.628259
H80	H	0.147147	1.419449	1.128259
H81	H	-0.576385	1.396503	0.907085
H82	H	-0.076385	1.896503	1.407085
N83	N	-0.589178	0.907896	0.370077
N84	N	-0.089178	1.407896	0.870077
N85	N	-0.589186	0.809931	0.370095
N86	N	-0.089186	1.309931	0.870095
H87	H	-0.633633	0.770312	0.321541
H88	H	-0.133633	1.270312	0.821541
H89	H	-0.576399	1.118348	0.383994
H90	H	-0.076399	1.618348	0.883994
H91	H	-0.576311	1.396554	1.106153
H92	H	-0.076311	1.896554	1.606153
H93	H	-0.352573	1.640429	0.907171
H94	H	0.147427	2.140429	1.407171
N95	N	-0.339706	1.654389	1.117582
N96	N	0.160294	2.154389	1.617582
N97	N	-0.284657	1.714391	1.068604
N98	N	0.215343	2.214391	1.568604
H99	H	-0.240133	1.762893	1.108182
H100	H	0.259867	2.262893	1.608182
H101	H	-0.352834	1.118496	0.628249
H102	H	0.147166	1.618496	1.128249
