data_functionalizedCrystal
_audit_creation_method	'MofGen! by Chris Wilmer'
_symmetry_space_group_name_H-M	'P1'
_symmetry_Int_Tables_number	1
_symmetry_cell_setting	triclinic
loop_
_symmetry_equiv_pos_as_xyz
  x,y,z
_cell_length_a	19.288840
_cell_length_b	8.559649
_cell_length_c	18.366186
_cell_angle_alpha	89.994914
_cell_angle_beta	89.983729
_cell_angle_gamma	76.452340
loop_
_atom_site_label
_atom_site_type_symbol
_atom_site_fract_x
_atom_site_fract_y
_atom_site_fract_z
O1	O	0.911008	0.199216	-0.060666
O2	O	0.707344	0.226157	-0.060641
O3	O	0.827119	-0.020048	-0.060655
O4	O	0.791233	0.445421	-0.060652
O5	O	0.827101	-0.020060	0.060444
O6	O	0.707327	0.226145	0.060459
O7	O	0.910990	0.199204	0.060433
Zn8	Zn	0.809156	0.212673	0.079673
Zn9	Zn	0.809179	0.212689	-0.079881
O10	O	0.791216	0.445409	0.060447
C11	C	0.681503	0.225291	-0.000088
C12	C	0.604533	0.222709	-0.000078
C13	C	0.568404	0.221475	-0.066091
C14	C	0.496084	0.219031	-0.066100
C15	C	0.459900	0.217789	-0.000092
C16	C	0.496037	0.219032	0.065930
C17	C	0.568354	0.221492	0.065937
C18	C	0.355634	0.120259	0.050468
C19	C	0.283320	0.117789	0.050459
C20	C	0.236850	0.210208	-0.000111
C21	C	0.262706	0.305077	-0.050683
C22	C	0.335022	0.307537	-0.050676
C23	C	0.381484	0.215122	-0.000092
C24	C	0.122303	0.206326	-0.066139
C25	C	0.049981	0.203892	-0.066145
C26	C	0.049937	0.203877	0.065887
C27	C	0.122256	0.206327	0.065891
C28	C	0.158436	0.207544	-0.000124
C29	C	0.829830	-0.079604	-0.000107
C30	C	0.837925	-0.257044	-0.000112
C31	C	0.936831	0.200070	-0.000122
C32	C	1.013801	0.202652	-0.000136
C33	C	0.788505	0.504965	-0.000102
C34	C	0.780410	0.682405	-0.000102
N35	N	0.809145	0.212661	0.188564
N36	N	0.809196	0.212688	-0.188772
C37	C	0.862194	0.103694	0.226658
C38	C	0.862199	0.103687	0.302886
C39	C	0.809160	0.212674	0.341017
C40	C	0.756102	0.321649	0.302914
C41	C	0.756094	0.321642	0.226687
C42	C	0.792290	0.358322	0.461779
C43	C	0.792302	0.358330	0.538004
C44	C	0.809179	0.212694	0.576124
C45	C	0.826058	0.067043	0.538011
C46	C	0.826050	0.067036	0.461784
C47	C	0.809162	0.212693	0.423672
C48	C	0.862236	0.103711	0.696873
C49	C	0.862236	0.103702	0.773103
C50	C	0.756141	0.321677	0.773129
C51	C	0.756139	0.321672	0.696901
C52	C	0.809189	0.212691	0.658778
H53	H	0.151674	0.207321	0.119646
H54	H	0.724976	-0.233687	-0.000093
H55	H	0.839800	-0.051549	0.569047
C56	C	0.920582	-0.016177	0.654935
H57	H	0.952171	-0.081094	0.688543
H58	H	0.946434	0.041144	0.625185
H59	H	0.899131	-0.082570	0.625212
H60	H	0.893362	-0.340961	-0.000113
C61	C	0.920541	-0.016197	0.184727
H62	H	0.952132	-0.081105	0.218336
H63	H	0.946392	0.041120	0.154973
H64	H	0.899091	-0.082598	0.155008
H65	H	0.905399	0.014950	0.333908
H66	H	0.839792	-0.051558	0.430755
C67	C	0.010239	0.202526	-0.138763
H68	H	0.042148	0.203586	-0.178075
H69	H	-0.028247	0.294761	-0.141517
H70	H	-0.007693	0.108359	-0.141503
H71	H	0.778563	0.476928	0.569030
C72	C	0.920594	-0.016165	0.815006
H73	H	0.952189	-0.081055	0.781381
H74	H	0.899160	-0.082563	0.844755
H75	H	0.946446	0.041185	0.844727
C76	C	0.697799	0.441560	0.815064
H77	H	0.705402	0.425965	0.865918
H78	H	0.652355	0.424484	0.802590
H79	H	0.699655	0.548203	0.802564
C80	C	0.697797	0.441563	0.654992
H81	H	0.705387	0.425948	0.604134
H82	H	0.699656	0.548196	0.667480
H83	H	0.652349	0.424490	0.667500
C84	C	0.773730	0.518532	0.419853
H85	H	0.763691	0.605274	0.453468
H86	H	0.733100	0.522022	0.390131
H87	H	0.812962	0.527147	0.390104
C88	C	0.697762	0.441535	0.344854
H89	H	0.705368	0.425945	0.395708
H90	H	0.652317	0.424457	0.332384
H91	H	0.699617	0.548177	0.332351
C92	C	0.456224	0.217786	0.138536
H93	H	0.407978	0.216166	0.129078
H94	H	0.457805	0.311421	0.165626
H95	H	0.478321	0.125017	0.165696
C96	C	0.697742	0.441522	0.184782
H97	H	0.666155	0.506438	0.218406
H98	H	0.671888	0.384197	0.155057
H99	H	0.719188	0.507916	0.155038
H100	H	0.020476	0.202875	0.119632
H101	H	0.393466	0.044995	0.091652
C102	C	0.608195	0.222836	-0.138704
H103	H	0.576314	0.221766	-0.178021
H104	H	0.646685	0.130606	-0.141449
H105	H	0.626125	0.317008	-0.141444
C106	C	0.608102	0.222840	0.138552
H107	H	0.656352	0.224488	0.129102
H108	H	0.606515	0.129243	0.165677
H109	H	0.585966	0.315645	0.165673
C110	C	0.456331	0.217688	-0.138717
H111	H	0.488236	0.218764	-0.178031
H112	H	0.417846	0.309927	-0.141460
H113	H	0.438397	0.123525	-0.141464
H114	H	0.356070	0.384786	-0.091852
C115	C	0.254885	0.013442	0.106086
H116	H	0.292914	-0.041223	0.136214
H117	H	0.234985	-0.062810	0.081046
H118	H	0.219220	0.080000	0.135329
C119	C	0.211597	0.406750	-0.106311
H120	H	0.164823	0.391717	-0.099069
H121	H	0.227092	0.374242	-0.154234
H122	H	0.211336	0.517025	-0.099937
H123	H	0.151760	0.207334	-0.119892
