data_functionalizedCrystal
_audit_creation_method	'MofGen! by Chris Wilmer'
_symmetry_space_group_name_H-M	'P1'
_symmetry_Int_Tables_number	1
_symmetry_cell_setting	triclinic
loop_
_symmetry_equiv_pos_as_xyz
  x,y,z
_cell_length_a	13.032831
_cell_length_b	19.121063
_cell_length_c	13.032268
_cell_angle_alpha	80.752502
_cell_angle_beta	89.113023
_cell_angle_gamma	85.565596
loop_
_atom_site_label
_atom_site_type_symbol
_atom_site_fract_x
_atom_site_fract_y
_atom_site_fract_z
Zn1	Zn	1.465022	-0.473659	0.806576
Zn2	Zn	1.965022	0.026341	1.306576
Zn3	Zn	1.479383	-0.578156	0.640274
Zn4	Zn	1.979383	-0.078156	1.140274
Zn5	Zn	1.316950	-0.444360	0.611224
Zn6	Zn	1.816950	0.055640	1.111224
Zn7	Zn	1.285899	-0.574364	0.790193
Zn8	Zn	1.785899	-0.074364	1.290193
O9	O	1.386814	-0.517635	0.712067
O10	O	1.886814	-0.017635	1.212067
O11	O	1.609870	-0.501370	0.803529
O12	O	2.109870	-0.001370	1.303529
O13	O	1.476841	-0.549733	0.491924
O14	O	1.976841	-0.049733	0.991924
O15	O	1.343577	-0.350107	0.631836
O16	O	1.843577	0.149893	1.131836
O17	O	1.620421	-0.578143	0.681348
O18	O	2.120421	-0.078143	1.181348
O19	O	1.452365	-0.371633	0.775360
O20	O	1.952365	0.128367	1.275360
O21	O	1.357502	-0.451434	0.470581
O22	O	1.857502	0.048566	0.970581
O23	O	1.169889	-0.447756	0.615951
O24	O	1.669889	0.052244	1.115951
O25	O	1.290655	-0.571680	0.936863
O26	O	1.790655	-0.071680	1.436863
O27	O	1.147076	-0.543270	0.747439
O28	O	1.647076	-0.043270	1.247439
O29	O	1.422256	-0.497693	0.948899
O30	O	1.922256	0.002307	1.448899
O31	O	1.446733	-0.675793	0.665463
O32	O	1.946733	-0.175793	1.165463
O33	O	1.304581	-0.673007	0.775608
O34	O	1.804581	-0.173007	1.275608
C35	C	1.121419	-0.491923	0.676766
C36	C	1.621419	0.008077	1.176766
C37	C	1.007877	-0.480942	0.661690
C38	C	1.507877	0.019058	1.161690
C39	C	0.946005	-0.523366	0.719935
C40	C	1.446005	-0.023366	1.219935
C41	C	0.828653	-0.512018	0.704355
C42	C	1.328653	-0.012018	1.204355
C43	C	1.373870	-0.699851	0.721936
C44	C	1.873870	-0.199851	1.221936
C45	C	1.368422	-0.777815	0.726206
C46	C	1.868422	-0.277815	1.226206
C47	C	1.439917	-0.815879	0.670926
C48	C	1.939917	-0.315879	1.170926
C49	C	1.434798	-0.889136	0.674948
C50	C	1.934798	-0.389136	1.174948
C51	C	1.358179	-0.924327	0.734244
C52	C	1.858179	-0.424327	1.234244
C53	C	1.286681	-0.886258	0.789530
C54	C	1.786681	-0.386258	1.289530
C55	C	1.291805	-0.813003	0.785514
C56	C	1.791805	-0.313003	1.285514
C57	C	1.339006	-1.145437	0.749244
C58	C	1.839006	-0.645437	1.249244
C59	C	1.333886	-1.218697	0.753254
C60	C	1.833886	-0.718697	1.253254
C61	C	1.482005	-1.221570	0.638672
C62	C	1.982005	-0.721570	1.138672
C63	C	1.487118	-1.148313	0.634656
C64	C	1.987118	-0.648313	1.134656
C65	C	1.415624	-1.110251	0.689946
C66	C	1.915624	-0.610251	1.189946
C67	C	1.352943	-0.999207	0.738354
C68	C	1.852943	-0.499207	1.238354
C69	C	1.420865	-1.035374	0.685842
C70	C	1.920865	-0.535374	1.185842
C71	C	1.653245	-0.543448	0.747506
C72	C	2.153245	-0.043448	1.247506
C73	C	1.766782	-0.554448	0.762608
C74	C	2.266782	-0.054448	1.262608
C75	C	1.351390	-0.537532	0.981395
C76	C	1.851390	-0.037532	1.481395
C77	C	1.336295	-0.546011	1.096167
C78	C	1.836295	-0.046011	1.596167
C79	C	1.399833	-0.334712	0.702185
C80	C	1.899833	0.165288	1.202185
C81	C	1.405381	-0.256761	0.697974
C82	C	1.905381	0.243239	1.197974
C83	C	1.422162	-0.497771	0.443791
C84	C	1.922162	0.002229	0.943791
C85	C	1.437469	-0.489113	0.329036
C86	C	1.937469	0.010887	0.829036
C87	C	1.394678	-0.513183	1.153291
C88	C	1.894678	-0.013183	1.653291
C89	C	1.379078	-0.521945	1.271914
C90	C	1.879078	-0.021945	1.771914
H91	H	0.973970	-0.436217	0.600292
H92	H	1.473970	0.063783	1.100292
O93	O	1.522560	-0.777925	0.606975
O94	O	2.022560	-0.277925	1.106975
H95	H	1.571421	-0.816705	0.569222
H96	H	2.071421	-0.316705	1.069222
O97	O	1.511904	-0.930193	0.615319
O98	O	2.011904	-0.430193	1.115319
H99	H	1.566033	-0.893414	0.573400
H100	H	2.066033	-0.393414	1.073400
H101	H	0.800683	-0.599170	0.824020
H102	H	1.300683	-0.099170	1.324020
H103	H	0.794751	-0.467290	0.642953
H104	H	1.294751	0.032710	1.142953
H105	H	1.317533	-0.556535	1.310822
H106	H	1.817533	-0.056535	1.810822
H107	H	1.549508	-1.119663	0.586372
H108	H	2.049508	-0.619663	1.086372
O109	O	1.254782	-0.591832	1.147705
O110	O	1.754782	-0.091832	1.647705
H111	H	1.178165	-0.570517	1.115753
H112	H	1.678165	-0.070517	1.615753
O113	O	1.476197	-0.467367	1.101756
O114	O	1.976197	0.032633	1.601756
H115	H	1.439438	-0.423655	1.044598
H116	H	1.939438	0.076345	1.544598
O117	O	1.559141	-1.262625	0.579073
O118	O	2.059141	-0.762625	1.079073
H119	H	1.542722	-1.319479	0.591841
H120	H	2.042722	-0.819479	1.091841
O121	O	1.251250	-1.256658	0.817220
O122	O	1.751250	-0.756658	1.317220
H123	H	1.202402	-1.217886	0.855002
H124	H	1.702402	-0.717886	1.355002
H125	H	1.280791	-1.114453	0.794261
H126	H	1.780791	-0.614453	1.294261
O127	O	1.518992	-0.443291	1.277513
O128	O	2.018992	0.056709	1.777513
H129	H	1.518461	-0.443603	1.192429
H130	H	2.018461	0.056397	1.692429
H131	H	1.224300	-0.914917	0.837816
H132	H	1.724300	-0.414917	1.337816
O133	O	1.270303	-1.037166	0.802303
O134	O	1.770303	-0.537166	1.302303
H135	H	1.221445	-0.998395	0.840075
H136	H	1.721445	-0.498395	1.340075
H137	H	1.233587	-0.782012	0.830529
H138	H	1.733587	-0.282012	1.330529
O139	O	1.503506	-0.997417	0.621901
O140	O	2.003506	-0.497417	1.121901
H141	H	1.495738	-1.003828	0.539293
H142	H	1.995738	-0.503828	1.039293
O143	O	0.990900	-0.582594	0.801298
O144	O	1.490900	-0.082594	1.301298
H145	H	1.076027	-0.582208	0.800776
H146	H	1.576027	-0.082208	1.300776
