data_functionalizedCrystal
_audit_creation_method	'MofGen! by Chris Wilmer'
_symmetry_space_group_name_H-M	'P1'
_symmetry_Int_Tables_number	1
_symmetry_cell_setting	triclinic
loop_
_symmetry_equiv_pos_as_xyz
  x,y,z
_cell_length_a	17.640280
_cell_length_b	15.298073
_cell_length_c	15.296720
_cell_angle_alpha	91.646683
_cell_angle_beta	90.295581
_cell_angle_gamma	93.442077
loop_
_atom_site_label
_atom_site_type_symbol
_atom_site_fract_x
_atom_site_fract_y
_atom_site_fract_z
Zn1	Zn	-0.220229	-1.311289	-0.686692
Zn2	Zn	0.279771	-0.811289	-0.186692
Zn3	Zn	-0.319637	-1.362695	-0.521846
Zn4	Zn	0.180363	-0.862695	-0.021846
Zn5	Zn	-0.213033	-1.188278	-0.516185
Zn6	Zn	0.286967	-0.688278	-0.016185
Zn7	Zn	-0.361127	-1.201836	-0.635195
Zn8	Zn	0.138873	-0.701836	-0.135195
O9	O	-0.278506	-1.266024	-0.589979
O10	O	0.221494	-0.766024	-0.089979
O11	O	-0.219064	-1.436909	-0.688746
O12	O	0.280936	-0.936909	-0.188746
O13	O	-0.285121	-1.355397	-0.402301
O14	O	0.214879	-0.855397	0.097699
O15	O	-0.110407	-1.177408	-0.557985
O16	O	0.389593	-0.677408	-0.057985
O17	O	-0.292099	-1.474676	-0.567635
O18	O	0.207901	-0.974676	-0.067635
O19	O	-0.115694	-1.267784	-0.683256
O20	O	0.384306	-0.767784	-0.183256
O21	O	-0.206799	-1.227253	-0.398142
O22	O	0.293201	-0.727253	0.101858
O23	O	-0.247030	-1.071275	-0.508051
O24	O	0.252970	-0.571275	-0.008051
O25	O	-0.362811	-1.200516	-0.760820
O26	O	0.137189	-0.700516	-0.260820
O27	O	-0.355834	-1.081237	-0.595486
O28	O	0.144166	-0.581237	-0.095486
O29	O	-0.259294	-1.280931	-0.798655
O30	O	0.240706	-0.780931	-0.298655
O31	O	-0.428722	-1.368544	-0.517700
O32	O	0.071278	-0.868544	-0.017700
O33	O	-0.459204	-1.250362	-0.600976
O34	O	0.040796	-0.750362	-0.100976
C35	C	-0.305154	-1.045452	-0.545566
C36	C	0.194846	-0.545452	-0.045566
C37	C	-0.316575	-0.951093	-0.526583
C38	C	0.183425	-0.451093	-0.026583
C39	C	-0.197023	-0.606490	-0.725588
C40	C	0.302977	-0.106490	-0.225588
C41	C	-0.186295	-0.695145	-0.743428
C42	C	0.313705	-0.195145	-0.243428
C43	C	-0.218864	-0.759136	-0.689218
C44	C	0.281136	-0.259136	-0.189218
C45	C	-0.262163	-0.734463	-0.617165
C46	C	0.237837	-0.234463	-0.117165
C47	C	-0.272896	-0.645800	-0.599327
C48	C	0.227104	-0.145800	-0.099327
C49	C	-0.294737	-0.798446	-0.562958
C50	C	0.205263	-0.298446	-0.062958
C51	C	-0.338036	-0.773774	-0.490905
C52	C	0.161964	-0.273774	0.009095
C53	C	-0.348767	-0.685118	-0.473070
C54	C	0.151233	-0.185118	0.026930
C55	C	-0.316199	-0.621127	-0.527280
C56	C	0.183801	-0.121127	-0.027280
C57	C	-0.284004	-0.887110	-0.580796
C58	C	0.215996	-0.387110	-0.080796
C59	C	-0.359877	-0.926420	-0.454536
C60	C	0.140123	-0.426420	0.045464
C61	C	-0.370605	-0.837765	-0.436695
C62	C	0.129395	-0.337765	0.063305
C63	C	-0.470820	-1.316523	-0.554387
C64	C	0.029180	-0.816523	-0.054387
C65	C	-0.553088	-1.338201	-0.539205
C66	C	-0.053088	-0.838201	-0.039205
C67	C	-0.903121	-1.101651	-0.705697
C68	C	-0.403121	-0.601651	-0.205697
C69	C	-0.980419	-1.122025	-0.691404
C70	C	-0.480419	-0.622025	-0.191404
C71	C	-0.948624	-1.245141	-0.604812
C72	C	-0.448624	-0.745141	-0.104812
C73	C	-0.871321	-1.224779	-0.619101
C74	C	-0.371321	-0.724779	-0.119101
C75	C	-0.848576	-1.153032	-0.669544
C76	C	-0.348576	-0.653032	-0.169544
C77	C	-0.816776	-1.276161	-0.582948
C78	C	-0.316776	-0.776161	-0.082948
C79	C	-0.739480	-1.255798	-0.597232
C80	C	-0.239480	-0.755798	-0.097232
C81	C	-0.716729	-1.184053	-0.647670
C82	C	-0.216729	-0.684053	-0.147670
C83	C	-0.771280	-1.132669	-0.683828
C84	C	-0.271280	-0.632669	-0.183828
C85	C	-0.839522	-1.347904	-0.532500
C86	C	-0.339522	-0.847904	-0.032500
C87	C	-0.784978	-1.399286	-0.496347
C88	C	-0.284978	-0.899286	0.003653
C89	C	-0.707680	-1.378927	-0.510636
C90	C	-0.207680	-0.878927	-0.010636
C91	C	-0.684929	-1.307182	-0.561074
C92	C	-0.184929	-0.807182	-0.061074
C93	C	-0.653129	-1.430310	-0.474478
C94	C	-0.153129	-0.930310	0.025522
C95	C	-0.575833	-1.409947	-0.488763
C96	C	-0.075833	-0.909947	0.011237
C97	C	-0.607633	-1.286819	-0.575359
C98	C	-0.107633	-0.786819	-0.075359
C99	C	-0.085442	-1.215349	-0.625734
C100	C	0.414558	-0.715349	-0.125734
C101	C	-0.003170	-1.193755	-0.640970
C102	C	0.496830	-0.693755	-0.140970
C103	C	-0.316483	-1.236502	-0.811401
C104	C	0.183517	-0.736502	-0.311401
C105	C	-0.332667	-1.223921	-0.905757
C106	C	0.167333	-0.723921	-0.405757
C107	C	-0.251748	-0.487457	-0.634560
C108	C	0.248252	0.012543	-0.134560
C109	C	-0.240325	-0.581817	-0.653540
C110	C	0.259675	-0.081817	-0.153540
C111	C	-0.162707	-1.355938	-1.250528
C112	C	0.337293	-0.855938	-0.750528
C113	C	-0.147502	-1.367764	-1.161876
C114	C	0.352498	-0.867764	-0.661876
C115	C	-0.193792	-1.331804	-1.097842
C116	C	0.306208	-0.831804	-0.597842
C117	C	-0.255289	-1.284017	-1.122469
C118	C	0.244711	-0.784017	-0.622469
C119	C	-0.270499	-1.272196	-1.211129
C120	C	0.229501	-0.772196	-0.711129
C121	C	-0.301584	-1.248062	-1.058444
C122	C	0.198416	-0.748062	-0.558444
C123	C	-0.363081	-1.200274	-1.083070
C124	C	0.136919	-0.700274	-0.583070
C125	C	-0.378288	-1.188455	-1.171722
C126	C	0.121712	-0.688455	-0.671722
C127	C	-0.331998	-1.224415	-1.235756
C128	C	0.168002	-0.724415	-0.735756
C129	C	-0.286374	-1.259883	-0.969783
C130	C	0.213626	-0.759883	-0.469783
C131	C	-0.394166	-1.176140	-0.930384
C132	C	0.105834	-0.676140	-0.430384
C133	C	-0.409371	-1.164315	-1.019036
C134	C	0.090629	-0.664315	-0.519036
C135	C	-0.240618	-1.295467	-0.369439
C136	C	0.259382	-0.795467	0.130561
C137	C	-0.224206	-1.308157	-0.275155
C138	C	0.275794	-0.808157	0.224845
H139	H	-0.384031	-0.665034	-0.414405
H140	H	0.115969	-0.165034	0.085595
C141	C	-0.678160	-1.509221	-0.418982
C142	C	-0.178160	-1.009221	0.081018
N143	N	-0.697012	-1.568657	-0.377181
N144	N	-0.197012	-1.068657	0.122819
H145	H	-0.125028	-1.385217	-1.302670
H146	H	0.374972	-0.885217	-0.802670
C147	C	-0.418237	-0.810612	-0.357442
C148	C	0.081763	-0.310612	0.142558
N149	N	-0.454114	-0.790160	-0.297749
N150	N	0.045886	-0.290160	0.202251
H151	H	-0.181409	-1.341436	-1.025659
H152	H	0.318591	-0.841436	-0.525659
C153	C	-0.138661	-0.722278	-0.822678
C154	C	0.361339	-0.222278	-0.322678
N155	N	-0.102777	-0.742714	-0.882371
N156	N	0.397223	-0.242714	-0.382371
C157	C	-0.515831	-1.466476	-0.449000
C158	C	-0.015831	-0.966476	0.051000
N159	N	-0.470637	-1.509056	-0.419050
N160	N	0.029363	-1.009056	0.080950
H161	H	-0.884603	-1.043232	-0.746780
H162	H	-0.384603	-0.543232	-0.246780
H163	H	-0.248748	-0.907189	-0.639461
H164	H	0.251252	-0.407189	-0.139461
C165	C	-0.161191	-0.536095	-0.785201
C166	C	0.338809	-0.036095	-0.285201
N167	N	-0.134196	-0.483071	-0.830101
N168	N	0.365804	0.016929	-0.330101
H169	H	-0.324937	-0.548935	-0.512763
H170	H	0.175063	-0.048935	-0.012763
C171	C	-0.445939	-1.135892	-1.198808
C172	C	0.054061	-0.635892	-0.698808
N173	N	-0.496894	-1.096299	-1.219208
N174	N	0.003106	-0.596299	-0.719208
C175	C	-0.631700	-1.161654	-0.663384
C176	C	-0.131700	-0.661654	-0.163384
N177	N	-0.567656	-1.144784	-0.675221
N178	N	-0.067656	-0.644784	-0.175221
H179	H	-0.752762	-1.074251	-0.724911
H180	H	-0.252762	-0.574251	-0.224911
C181	C	-0.218724	-1.312441	-0.942704
C182	C	0.281276	-0.812441	-0.442704
N183	N	-0.167764	-1.352028	-0.922311
N184	N	0.332236	-0.852028	-0.422311
C185	C	-0.079852	-1.420319	-1.134793
C186	C	0.420148	-0.920319	-0.634793
N187	N	-0.028892	-1.459903	-1.114395
N188	N	0.471108	-0.959903	-0.614395
H189	H	-0.210124	-0.831322	-0.703746
H190	H	0.289876	-0.331322	-0.203746
H191	H	-0.459442	-1.125405	-1.039100
H192	H	0.040558	-0.625405	-0.539100
H193	H	-1.024830	-1.080187	-0.720861
H194	H	-0.524830	-0.580187	-0.220861
H195	H	-0.803508	-1.457700	-0.455274
H196	H	-0.303508	-0.957700	0.044726
C197	C	-0.395703	-0.996807	-0.394899
C198	C	0.104297	-0.496807	0.105101
N199	N	-0.422686	-1.049828	-0.349985
N200	N	0.077314	-0.549828	0.150015
C201	C	-0.348729	-1.211423	-1.333281
C202	C	0.151271	-0.711423	-0.833281
N203	N	-0.361333	-1.201646	-1.406739
N204	N	0.138667	-0.701646	-0.906739
C205	C	-0.973653	-1.324057	-0.549323
C206	C	-0.473653	-0.824057	-0.049323
N207	N	-0.992503	-1.383499	-0.507528
N208	N	-0.492503	-0.883499	-0.007528
C209	C	-0.445087	-1.136580	-0.859950
C210	C	0.054913	-0.636580	-0.359950
N211	N	-0.483437	-1.106786	-0.806894
N212	N	0.016563	-0.606786	-0.306894
H213	H	-0.589115	-1.228401	-0.616442
H214	H	-0.089115	-0.728401	-0.116442
H215	H	-0.902463	-1.364483	-0.520874
H216	H	-0.402463	-0.864483	-0.020874
