data_functionalizedCrystal
_audit_creation_method	'MofGen! by Chris Wilmer'
_symmetry_space_group_name_H-M	'P1'
_symmetry_Int_Tables_number	1
_symmetry_cell_setting	triclinic
loop_
_symmetry_equiv_pos_as_xyz
  x,y,z
_cell_length_a	21.395362
_cell_length_b	25.639239
_cell_length_c	21.395355
_cell_angle_alpha	90.019334
_cell_angle_beta	90.043940
_cell_angle_gamma	90.054564
loop_
_atom_site_label
_atom_site_type_symbol
_atom_site_fract_x
_atom_site_fract_y
_atom_site_fract_z
Zn1	Zn	0.957825	-0.207990	0.354582
Zn2	Zn	1.457825	0.292010	0.854582
Zn3	Zn	0.957713	-0.295409	0.249803
Zn4	Zn	1.457713	0.204591	0.749803
Zn5	Zn	0.853040	-0.208014	0.249783
Zn6	Zn	1.353040	0.291986	0.749783
Zn7	Zn	0.852994	-0.295420	0.354508
Zn8	Zn	1.352994	0.204580	0.854508
O9	O	0.905393	-0.251708	0.302169
O10	O	1.405393	0.248292	0.802169
O11	O	1.045488	-0.219571	0.340722
O12	O	1.545488	0.280429	0.840722
O13	O	0.943800	-0.283822	0.162122
O14	O	1.443800	0.216178	0.662122
O15	O	0.867006	-0.134846	0.263708
O16	O	1.367006	0.365154	0.763708
O17	O	1.045405	-0.283798	0.263742
O18	O	1.545405	0.216202	0.763742
O19	O	0.943991	-0.134828	0.340703
O20	O	1.443991	0.365172	0.840703
O21	O	0.866897	-0.219613	0.162108
O22	O	1.366897	0.280387	0.662108
O23	O	0.765356	-0.219623	0.263636
O24	O	1.265356	0.280377	0.763636
O25	O	0.866928	-0.283817	0.442196
O26	O	1.366928	0.216183	0.942196
O27	O	0.765322	-0.283840	0.340576
O28	O	1.265322	0.216160	0.840576
O29	O	0.943947	-0.219582	0.442250
O30	O	1.443947	0.280418	0.942250
O31	O	0.943756	-0.368576	0.263669
O32	O	1.443756	0.131424	0.763669
O33	O	0.866820	-0.368584	0.340596
O34	O	1.366820	0.131416	0.840596
C35	C	0.742605	-0.251736	0.302096
C36	C	1.242605	0.248264	0.802096
C37	C	0.672964	-0.251760	0.302080
C38	C	1.172964	0.248240	0.802080
C39	C	0.640250	-0.285243	0.342083
C40	C	1.140250	0.214757	0.842083
C41	C	0.574814	-0.285230	0.342111
C42	C	1.074814	0.214770	0.842111
C43	C	0.542096	-0.251740	0.302125
C44	C	1.042096	0.248260	0.802125
C45	C	0.574818	-0.218252	0.262119
C46	C	1.074818	0.281748	0.762119
C47	C	0.640252	-0.218262	0.262097
C48	C	1.140252	0.281738	0.762097
C49	C	0.438372	-0.247528	0.245720
C50	C	0.938372	0.252472	0.745720
C51	C	0.372939	-0.247522	0.245741
C52	C	0.872939	0.252478	0.745741
C53	C	0.340275	-0.251706	0.302194
C54	C	0.840275	0.248294	0.802194
C55	C	0.373052	-0.255908	0.358627
C56	C	0.873052	0.244092	0.858627
C57	C	0.438486	-0.255918	0.358605
C58	C	0.938486	0.244082	0.858605
C59	C	0.471143	-0.251725	0.302145
C60	C	0.971143	0.248275	0.802145
C61	C	0.236608	-0.285176	0.342231
C62	C	0.736608	0.214824	0.842231
C63	C	0.171172	-0.285160	0.342260
C64	C	0.671172	0.214840	0.842260
C65	C	0.171176	-0.218185	0.262262
C66	C	0.671176	0.281815	0.762262
C67	C	0.236612	-0.218198	0.262239
C68	C	0.736612	0.281802	0.762239
C69	C	0.269324	-0.251697	0.302222
C70	C	0.769324	0.248303	0.802222
C71	C	0.905288	-0.387551	0.302140
C72	C	1.405288	0.112449	0.802140
C73	C	0.905300	-0.445665	0.302149
C74	C	1.405300	0.054335	0.802149
C75	C	0.945558	-0.806011	0.262182
C76	C	1.445558	-0.306011	0.762182
C77	C	0.945582	-0.860616	0.262190
C78	C	1.445582	-0.360616	0.762190
O79	O	0.979702	-0.888838	0.228177
O80	O	1.479702	-0.388838	0.728177
N81	N	0.905503	-0.887947	0.302211
N82	N	1.405503	-0.387947	0.802211
C83	C	0.865401	-0.860672	0.342230
C84	C	1.365401	-0.360672	0.842230
O85	O	0.831313	-0.888934	0.376271
O86	O	1.331313	-0.388934	0.876271
C87	C	0.865381	-0.806069	0.342224
C88	C	1.365381	-0.306069	0.842224
C89	C	0.905458	-0.778740	0.302196
C90	C	1.405458	-0.278740	0.802196
C91	C	0.985633	-0.778682	0.222158
C92	C	1.485633	-0.278682	0.722158
C93	C	0.985608	-0.724082	0.222149
C94	C	1.485608	-0.224082	0.722149
C95	C	0.945508	-0.696810	0.262164
C96	C	1.445508	-0.196810	0.762164
C97	C	0.905433	-0.724139	0.302187
C98	C	1.405433	-0.224139	0.802187
C99	C	0.825282	-0.778794	0.382246
C100	C	1.325282	-0.278794	0.882246
C101	C	0.825266	-0.724187	0.382237
C102	C	1.325266	-0.224187	0.882237
C103	C	0.865343	-0.696858	0.342209
C104	C	1.365343	-0.196858	0.842209
C105	C	0.865308	-0.642267	0.342193
C106	C	1.365308	-0.142267	0.842193
N107	N	0.905387	-0.614935	0.302173
N108	N	1.405387	-0.114935	0.802173
C109	C	0.945487	-0.642207	0.262158
C110	C	1.445487	-0.142207	0.762158
C111	C	0.865448	-0.975343	0.342239
C112	C	1.365448	-0.475343	0.842239
C113	C	0.865465	-1.029945	0.342242
C114	C	1.365465	-0.529945	0.842242
C115	C	0.945648	-1.029885	0.262204
C116	C	1.445648	-0.529885	0.762204
C117	C	0.945627	-0.975281	0.262198
C118	C	1.445627	-0.475281	0.762198
C119	C	0.905528	-0.948011	0.302219
C120	C	1.405528	-0.448011	0.802219
C121	C	0.945430	-0.527542	0.262142
C122	C	1.445430	-0.027542	0.762142
C123	C	0.945400	-0.472937	0.262134
C124	C	1.445400	0.027063	0.762134
C125	C	0.865220	-0.473002	0.342175
C126	C	1.365220	0.026998	0.842175
C127	C	0.865248	-0.527602	0.342180
C128	C	1.365248	-0.027602	0.842180
C129	C	0.905358	-0.554871	0.302162
C130	C	1.405358	-0.054871	0.802162
O131	O	0.831207	-0.614010	0.376190
O132	O	1.331207	-0.114010	0.876190
O133	O	0.979575	-0.613939	0.228128
O134	O	1.479575	-0.113939	0.728128
C135	C	1.068816	-0.251681	0.302242
C136	C	1.568816	0.248319	0.802242
C137	C	1.138458	-0.251669	0.302274
C138	C	1.638458	0.248331	0.802274
C139	C	0.905445	-0.251698	0.465592
C140	C	1.405445	0.248302	0.965592
C141	C	0.905467	-0.251693	0.535234
C142	C	1.405467	0.248307	1.035234
C143	C	0.905516	-0.115335	0.302212
C144	C	1.405516	0.384665	0.802212
C145	C	0.905568	-0.057221	0.302230
C146	C	1.405568	0.442779	0.802230
C147	C	0.905377	-0.251681	0.139381
C148	C	1.405377	0.248319	0.639381
C149	C	0.905476	-0.251538	0.069741
C150	C	1.405476	0.248462	0.569741
C151	C	0.945569	-0.218245	0.567976
C152	C	1.445569	0.281755	1.067976
C153	C	0.945568	-0.218222	0.633412
C154	C	1.445568	0.281778	1.133412
C155	C	0.905472	-0.251658	0.666102
C156	C	1.405472	0.248342	1.166102
C157	C	0.865362	-0.285108	0.633352
C158	C	1.365362	0.214892	1.133352
C159	C	0.865360	-0.285126	0.567917
C160	C	1.365360	0.214874	1.067917
C161	C	0.900488	-0.298736	0.769765
C162	C	1.400488	0.201264	1.269765
C163	C	0.900495	-0.298719	0.835198
C164	C	1.400495	0.201281	1.335198
C165	C	0.905476	-0.251602	0.867923
C166	C	1.405476	0.248398	1.367923
C167	C	0.910463	-0.204501	0.835207
C168	C	1.410463	0.295499	1.335207
C169	C	0.910461	-0.204519	0.769773
C170	C	1.410461	0.295481	1.269773
C171	C	0.905470	-0.251642	0.737054
C172	C	1.405470	0.248358	1.237054
C173	C	0.945579	-0.218127	0.971618
C174	C	1.445579	0.281873	1.471618
C175	C	0.945574	-0.218103	1.037055
C176	C	1.445574	0.281897	1.537055
C177	C	0.865371	-0.284994	1.036993
C178	C	1.365371	0.215006	1.536993
C179	C	0.865373	-0.285013	0.971558
C180	C	1.365373	0.214987	1.471558
C181	C	0.905480	-0.251580	0.938874
C182	C	1.405480	0.248420	1.438874
H183	H	0.464961	-0.244119	0.199746
H184	H	0.964961	0.255881	0.699746
H185	H	0.832722	-0.312253	0.944899
H186	H	1.332722	0.187747	1.444899
N187	N	0.782057	-0.808255	0.425427
N188	N	1.282057	-0.308255	0.925427
H189	H	0.807515	-0.830869	0.454499
H190	H	1.307515	-0.330869	0.954499
H191	H	0.753042	-0.830922	0.399899
H192	H	1.253042	-0.330922	0.899899
N193	N	0.822191	-0.945931	0.385402
N194	N	1.322191	-0.445931	0.885402
H195	H	0.796806	-0.971535	0.410752
H196	H	1.296806	-0.471535	0.910752
H197	H	0.793198	-0.923317	0.359859
H198	H	1.293198	-0.423317	0.859859
N199	N	0.895124	-0.349559	0.734472
N200	N	1.395124	0.150441	1.234472
H201	H	0.891975	-0.379393	0.765124
H202	H	1.391975	0.120607	1.265124
H203	H	0.933299	-0.354407	0.707355
H204	H	1.433299	0.145593	1.207355
N205	N	0.988822	-0.182144	0.668738
N206	N	1.488822	0.317856	1.168738
H207	H	1.014228	-0.160967	0.638103
H208	H	1.514228	0.339033	1.138103
H209	H	1.017795	-0.203419	0.695906
H210	H	1.517795	0.296581	1.195906
H211	H	0.914520	-0.166167	0.743138
H212	H	1.414520	0.333833	1.243138
H213	H	0.978301	-1.052099	0.229624
H214	H	1.478301	-0.552099	0.729624
H215	H	0.832714	-0.312330	0.659972
H216	H	1.332714	0.187670	1.159972
H217	H	0.914520	-0.166134	0.861850
H218	H	1.414520	0.333866	1.361850
H219	H	0.978262	-0.953033	0.229605
H220	H	1.478262	-0.453033	0.729605
N221	N	0.135885	-0.321278	0.385404
N222	N	0.635885	0.178722	0.885404
H223	H	0.108799	-0.300066	0.414501
H224	H	0.608799	0.199934	0.914501
H225	H	0.166580	-0.342493	0.410683
H226	H	0.666580	0.157507	0.910683
N227	N	0.782016	-0.694774	0.425405
N228	N	1.282016	-0.194774	0.925405
H229	H	0.756634	-0.720376	0.450760
H230	H	1.256634	-0.220376	0.950760
H231	H	0.753021	-0.672161	0.399864
H232	H	1.253021	-0.172161	0.899864
H233	H	0.978227	-0.191020	0.541369
H234	H	1.478227	0.308980	1.041369
N235	N	0.988832	-0.182068	0.936360
N236	N	1.488832	0.317932	1.436360
H237	H	1.014234	-0.160871	0.967035
H238	H	1.514234	0.339129	1.467035
H239	H	0.963350	-0.157885	0.909190
H240	H	1.463350	0.342115	1.409190
H241	H	0.832718	-0.312213	1.063609
H242	H	1.332718	0.187787	1.563609
H243	H	0.832616	-0.549855	0.374776
H244	H	1.332616	-0.049855	0.874776
N245	N	0.988824	-0.182015	1.072365
N246	N	1.488824	0.317985	1.572365
H247	H	1.033583	-0.190132	1.061013
H248	H	1.533583	0.309868	1.561013
H249	H	0.982687	-0.187085	1.118767
H250	H	1.482687	0.312915	1.618767
N251	N	0.821977	-0.443576	0.385332
N252	N	1.321977	0.056424	0.885332
H253	H	0.831693	-0.453049	0.430112
H254	H	1.331693	0.046951	0.930112
H255	H	0.777233	-0.453137	0.375499
H256	H	1.277233	0.046863	0.875499
H257	H	0.896438	-0.337072	0.861831
H258	H	1.396438	0.162928	1.361831
N259	N	0.675533	-0.182148	0.218942
N260	N	1.175533	0.317852	0.718942
H261	H	0.702619	-0.203364	0.189849
H262	H	1.202619	0.296636	0.689849
H263	H	0.702708	-0.157961	0.244491
H264	H	1.202708	0.342039	0.744491
N265	N	0.822097	-0.321197	0.532597
N266	N	1.322097	0.178803	1.032597
H267	H	0.796690	-0.342372	0.563233
H268	H	1.296690	0.157628	1.063233
H269	H	0.847570	-0.345400	0.505464
H270	H	1.347570	0.154600	1.005464
H271	H	0.144537	-0.190914	0.229707
H272	H	0.644537	0.309086	0.729707
H273	H	0.666880	-0.312519	0.374642
H274	H	1.166880	0.187481	0.874642
H275	H	0.346459	-0.259314	0.404597
H276	H	0.846459	0.240686	0.904597
H277	H	0.465171	-0.259338	0.404555
H278	H	0.965171	0.240662	0.904555
N279	N	0.539519	-0.321343	0.385260
N280	N	1.039519	0.178657	0.885260
H281	H	0.570171	-0.342564	0.410586
H282	H	1.070171	0.157436	0.910586
H283	H	0.512310	-0.345500	0.359707
H284	H	1.012310	0.154500	0.859707
H285	H	0.263244	-0.312450	0.374791
H286	H	0.763244	0.187550	0.874791
H287	H	0.263248	-0.190936	0.229661
H288	H	0.763248	0.309064	0.729661
N289	N	0.988635	-0.443462	0.218966
N290	N	1.488635	0.056538	0.718966
H291	H	0.982537	-0.404732	0.225029
H292	H	1.482537	0.095268	0.725029
H293	H	0.978911	-0.453036	0.174207
H294	H	1.478911	0.046964	0.674207
N295	N	0.337587	-0.242992	0.184878
N296	N	0.837587	0.257008	0.684878
H297	H	0.348905	-0.273189	0.156766
H298	H	0.848905	0.226811	0.656766
H299	H	0.349009	-0.209111	0.163684
H300	H	0.849009	0.290889	0.663684
N301	N	0.539531	-0.182138	0.218983
N302	N	1.039531	0.317862	0.718983
H303	H	0.512437	-0.157937	0.244502
H304	H	1.012437	0.342063	0.744502
H305	H	0.512363	-0.203391	0.189922
H306	H	1.012363	0.296609	0.689922
N307	N	0.988691	-0.556949	0.218980
N308	N	1.488691	-0.056949	0.718980
H309	H	1.014070	-0.531344	0.193627
H310	H	1.514070	-0.031344	0.693627
H311	H	0.963213	-0.579643	0.189954
H312	H	1.463213	-0.079643	0.689954
N313	N	1.028843	-0.694609	0.178986
N314	N	1.528843	-0.194609	0.678986
H315	H	1.054250	-0.720178	0.153646
H316	H	1.554250	-0.220178	0.653646
H317	H	1.057816	-0.671918	0.204531
H318	H	1.557816	-0.171918	0.704531
H319	H	1.018290	-0.800881	0.189573
H320	H	1.518290	-0.300881	0.689573
H321	H	0.832824	-1.052192	0.374831
H322	H	1.332824	-0.552192	0.874831
