data_functionalizedCrystal
_audit_creation_method	'MofGen! by Chris Wilmer'
_symmetry_space_group_name_H-M	'P1'
_symmetry_Int_Tables_number	1
_symmetry_cell_setting	triclinic
loop_
_symmetry_equiv_pos_as_xyz
  x,y,z
_cell_length_a	14.971486
_cell_length_b	14.853567
_cell_length_c	14.048226
_cell_angle_alpha	89.997365
_cell_angle_beta	89.998499
_cell_angle_gamma	83.624529
loop_
_atom_site_label
_atom_site_type_symbol
_atom_site_fract_x
_atom_site_fract_y
_atom_site_fract_z
O1	O	1.186968	0.117488	-0.079043
O2	O	1.686968	0.617488	0.420957
O3	O	0.926571	0.131557	-0.079068
O4	O	1.426571	0.631557	0.420932
O5	O	1.063725	-0.006709	-0.079058
O6	O	1.563725	0.493291	0.420942
O7	O	1.049814	0.255753	-0.079053
O8	O	1.549814	0.755753	0.420947
O9	O	1.063709	-0.006717	0.079264
O10	O	1.563709	0.493283	0.579264
O11	O	0.926554	0.131549	0.079253
O12	O	1.426554	0.631549	0.579253
O13	O	1.186952	0.117479	0.079278
O14	O	1.686952	0.617479	0.579278
Zn15	Zn	1.056750	0.124513	0.104403
Zn16	Zn	1.556750	0.624513	0.604403
Zn17	Zn	1.056772	0.124524	-0.104192
Zn18	Zn	1.556772	0.624524	0.395808
O19	O	1.049797	0.255745	0.079268
O20	O	1.549797	0.755745	0.579268
C21	C	0.893238	0.130924	0.000089
C22	C	1.393238	0.630924	0.500089
C23	C	0.793940	0.129038	0.000080
C24	C	1.293940	0.629038	0.500080
C25	C	1.063087	-0.040301	0.000100
C26	C	1.563087	0.459699	0.500100
C27	C	1.061198	-0.140385	0.000092
C28	C	1.561198	0.359615	0.500092
C29	C	0.736730	0.210265	0.000082
C30	C	1.236730	0.710265	0.500082
C31	C	0.643430	0.208488	0.000096
C32	C	1.143430	0.708488	0.500096
C33	C	0.607342	0.125483	0.000101
C34	C	1.107342	0.625483	0.500101
C35	C	0.664560	0.044249	0.000101
C36	C	1.164560	0.544249	0.500101
C37	C	0.757858	0.046027	0.000094
C38	C	1.257858	0.546027	0.500094
C39	C	0.470097	0.040549	0.000114
C40	C	0.970097	0.540549	0.500114
C41	C	0.376793	0.038771	0.000120
C42	C	0.876793	0.538771	0.500120
C43	C	0.355669	0.203010	0.000117
C44	C	0.855669	0.703010	0.500117
C45	C	0.448967	0.204788	0.000110
C46	C	0.948967	0.704788	0.500110
C47	C	0.506178	0.123554	0.000108
C48	C	1.006178	0.623554	0.500108
C49	C	0.971740	-0.552902	0.000101
C50	C	1.471740	-0.052902	0.500101
C51	C	1.134683	-0.574213	0.000117
C52	C	1.634683	-0.074213	0.500117
C53	C	1.136459	-0.480180	0.000111
C54	C	1.636459	0.019820	0.500111
C55	C	1.055874	-0.422503	0.000102
C56	C	1.555874	0.077497	0.500102
C57	C	0.973514	-0.458860	0.000099
C58	C	1.473514	0.041140	0.500099
C59	C	1.218818	-0.443816	0.000125
C60	C	1.718818	0.056184	0.500125
C61	C	1.220597	-0.349777	0.000120
C62	C	1.720597	0.150223	0.500120
C63	C	1.140012	-0.292099	0.000104
C64	C	1.640012	0.207901	0.500104
C65	C	1.057648	-0.328461	0.000100
C66	C	1.557648	0.171539	0.500100
C67	C	0.977064	-0.270784	0.000091
C68	C	1.477064	0.229216	0.500091
C69	C	0.894699	-0.307144	0.000079
C70	C	1.394699	0.192856	0.500079
C71	C	0.892928	-0.401181	0.000083
C72	C	1.392928	0.098819	0.500083
C73	C	1.141782	-0.198061	0.000101
C74	C	1.641782	0.301939	0.500101
C75	C	0.978837	-0.176741	0.000088
C76	C	1.478837	0.323259	0.500088
C77	C	1.220285	0.118113	0.000119
C78	C	1.720285	0.618113	0.500119
C79	C	1.319582	0.119998	0.000123
C80	C	1.819582	0.619998	0.500123
C81	C	1.050436	0.289338	0.000108
C82	C	1.550436	0.789338	0.500108
C83	C	1.052325	0.389421	0.000110
C84	C	1.552325	0.889421	0.500110
N85	N	1.056742	0.124505	0.246764
N86	N	1.556742	0.624505	0.746764
N87	N	1.056788	0.124524	-0.246553
N88	N	1.556788	0.624524	0.253447
C89	C	1.117493	0.063306	0.296586
C90	C	1.617493	0.563306	0.796586
C91	C	1.117499	0.063306	0.396244
C92	C	1.617499	0.563306	0.896244
C93	C	1.056758	0.124509	0.446077
C94	C	1.556758	0.624509	0.946077
C95	C	0.996000	0.185711	0.396247
C96	C	1.496000	0.685711	0.896247
C97	C	0.995991	0.185706	0.296592
C98	C	1.495991	0.685706	0.796592
C99	C	0.996026	0.185717	0.603962
C100	C	1.496026	0.685717	1.103962
C101	C	0.996036	0.185723	0.703624
C102	C	1.496036	0.685723	1.203624
C103	C	1.117535	0.063317	0.703614
C104	C	1.617535	0.563317	1.203614
C105	C	1.117525	0.063312	0.603958
C106	C	1.617525	0.563312	1.103958
C107	C	1.056768	0.124515	0.554135
C108	C	1.556768	0.624515	1.054135
H109	H	0.766104	0.277858	0.000078
H110	H	1.266104	0.777858	0.500078
Br111	Br	0.327817	-0.073880	0.000158
Br112	Br	0.827817	0.426120	0.500158
Br113	Br	1.244042	-0.652488	0.000150
Br114	Br	1.744042	-0.152488	0.500150
H115	H	1.284425	-0.490782	0.000141
H116	H	1.784425	0.009218	0.500141
Br117	Br	0.859965	-0.602244	0.000072
Br118	Br	1.359965	-0.102244	0.500072
H119	H	1.287664	-0.320181	0.000128
H120	H	1.787664	0.179819	0.500128
H121	H	1.167004	0.013483	0.744185
H122	H	1.667004	0.513483	1.244185
Br123	Br	0.913564	0.268776	0.536348
Br124	Br	1.413564	0.768776	1.036348
H125	H	0.946539	0.235540	0.436827
H126	H	1.446539	0.735540	0.936827
H127	H	0.825871	-0.430795	0.000075
H128	H	1.325871	0.069205	0.500075
Br129	Br	1.199945	-0.019754	0.463863
Br130	Br	1.699945	0.480246	0.963863
Br131	Br	1.199967	-0.019741	0.536324
Br132	Br	1.699967	0.480259	1.036324
H133	H	0.946574	0.235560	0.744194
H134	H	1.446574	0.735560	1.244194
Br135	Br	0.547741	-0.069698	0.000117
Br136	Br	1.047741	0.430302	0.500117
Br137	Br	0.913533	0.268759	0.228975
Br138	Br	1.413533	0.768759	0.728975
Br139	Br	0.565789	0.318731	0.000097
Br140	Br	1.065789	0.818731	0.500097
Br141	Br	0.497942	0.317439	0.000089
Br142	Br	0.997942	0.817439	0.500089
Br143	Br	0.615586	-0.068402	0.000117
Br144	Br	1.115586	0.431598	0.500117
H145	H	0.309082	0.269154	0.000122
H146	H	0.809082	0.769154	0.500122
Br147	Br	1.253553	-0.148718	0.000139
Br148	Br	1.753553	0.351282	0.500139
H149	H	0.804439	-0.020116	0.000091
H150	H	1.304439	0.479884	0.500091
H151	H	0.829087	-0.260172	0.000079
H152	H	1.329087	0.239828	0.500079
Br153	Br	1.199940	-0.019754	0.228966
Br154	Br	1.699940	0.480246	0.728966
Br155	Br	0.869466	-0.098472	0.000064
Br156	Br	1.369466	0.401528	0.500064
