data_functionalizedCrystal
_audit_creation_method	'MofGen! by Chris Wilmer'
_symmetry_space_group_name_H-M	'P1'
_symmetry_Int_Tables_number	1
_symmetry_cell_setting	triclinic
loop_
_symmetry_equiv_pos_as_xyz
  x,y,z
_cell_length_a	11.026660
_cell_length_b	19.188924
_cell_length_c	10.065875
_cell_angle_alpha	98.757069
_cell_angle_beta	79.302288
_cell_angle_gamma	95.863399
loop_
_atom_site_label
_atom_site_type_symbol
_atom_site_fract_x
_atom_site_fract_y
_atom_site_fract_z
O1	O	1.626394	0.284137	-0.113526
O2	O	1.273267	0.250869	-0.113524
O3	O	1.460023	0.167147	-0.113509
O4	O	1.439638	0.367859	-0.113541
O5	O	1.424411	0.183194	0.113477
O6	O	1.237655	0.266916	0.113462
O7	O	1.590782	0.300183	0.113459
Zn8	Zn	1.408564	0.286097	0.149500
Zn9	Zn	1.455485	0.264955	-0.149564
O10	O	1.404026	0.383905	0.113445
C11	C	1.210283	0.252755	-0.000031
C12	C	1.075668	0.234459	-0.000029
C13	C	0.862460	0.266074	-0.000038
C14	C	1.001592	0.284985	-0.000038
C15	C	1.441558	0.149076	-0.000015
C16	C	1.439579	0.071319	-0.000011
C17	C	1.458068	0.026056	-0.123742
C18	C	1.456194	-0.047007	-0.123752
C19	C	1.435854	-0.074801	-0.000025
C20	C	1.417356	-0.029528	0.123722
C21	C	1.419218	0.043532	0.123728
N22	N	1.487491	-0.179533	0.092062
N23	N	1.485726	-0.248937	0.092047
C24	C	1.430239	-0.294927	-0.000038
N25	N	1.376604	-0.268891	-0.092128
N26	N	1.378375	-0.199480	-0.092117
C27	C	1.433832	-0.154022	-0.000019
C28	C	1.446696	-0.419414	-0.123788
C29	C	1.444814	-0.492478	-0.123793
C30	C	1.405987	-0.474997	0.123684
C31	C	1.407858	-0.401935	0.123685
C32	C	1.428219	-0.374148	-0.000054
C33	C	1.653766	0.298297	-0.000037
C34	C	1.788383	0.316593	-0.000048
C35	C	1.422492	0.401977	-0.000053
C36	C	1.424472	0.479733	-0.000065
N37	N	1.376551	0.300527	0.353603
N38	N	1.487508	0.250521	-0.353667
C39	C	1.444339	0.269970	0.421387
C40	C	1.419710	0.281082	0.578552
H41	H	1.041168	0.342241	-0.000039
H42	H	1.343431	0.315469	0.636867
H43	H	0.822874	0.208824	-0.000009
H44	H	1.563778	0.216129	0.588018
H45	H	1.300277	0.334911	0.411923
H46	H	1.036107	0.177198	-0.000111
H47	H	0.827965	0.373844	-0.000048
H48	H	1.474644	0.048674	-0.224500
H49	H	1.471243	-0.083868	-0.224511
H50	H	1.389417	-0.497627	0.224425
H51	H	1.463268	-0.396789	-0.224545
H52	H	1.404157	0.080386	0.224488
H53	H	1.400792	-0.052163	0.224461
H54	H	1.459864	-0.529332	-0.224554
H55	H	1.392812	-0.365080	0.224440
H56	H	1.520604	0.235580	0.363069
