data_functionalizedCrystal
_audit_creation_method	'MofGen! by Chris Wilmer'
_symmetry_space_group_name_H-M	'P1'
_symmetry_Int_Tables_number	1
_symmetry_cell_setting	triclinic
loop_
_symmetry_equiv_pos_as_xyz
  x,y,z
_cell_length_a	21.295420
_cell_length_b	21.295417
_cell_length_c	19.805399
_cell_angle_alpha	89.969157
_cell_angle_beta	89.981220
_cell_angle_gamma	90.028757
loop_
_atom_site_label
_atom_site_type_symbol
_atom_site_fract_x
_atom_site_fract_y
_atom_site_fract_z
Zn1	Zn	0.962319	-0.250653	-0.382690
Zn2	Zn	1.462319	0.249347	0.117310
Zn3	Zn	0.962232	-0.355922	-0.269495
Zn4	Zn	1.462232	0.144078	0.230505
Zn5	Zn	0.857053	-0.250667	-0.269516
Zn6	Zn	1.357053	0.249333	0.230484
Zn7	Zn	0.857011	-0.355885	-0.382644
Zn8	Zn	1.357011	0.144115	0.117356
O9	O	0.909654	-0.303282	-0.326086
O10	O	1.409654	0.196718	0.173914
O11	O	1.050396	-0.264627	-0.367685
O12	O	1.550396	0.235373	0.132315
O13	O	0.948261	-0.341981	-0.174781
O14	O	1.448261	0.158019	0.325219
O15	O	0.871070	-0.162576	-0.284557
O16	O	1.371070	0.337424	0.215443
O17	O	1.050333	-0.341967	-0.284521
O18	O	1.550333	0.158033	0.215479
O19	O	0.948409	-0.162566	-0.367705
O20	O	1.448409	0.337434	0.132295
O21	O	0.870986	-0.264651	-0.174797
O22	O	1.370986	0.235349	0.325203
O23	O	0.768958	-0.264615	-0.284512
O24	O	1.268958	0.235385	0.215488
O25	O	0.870999	-0.341905	-0.477366
O26	O	1.370999	0.158095	0.022634
O27	O	0.768927	-0.341918	-0.367626
O28	O	1.268927	0.158082	0.132374
O29	O	0.948368	-0.264591	-0.477400
O30	O	1.448368	0.235409	0.022600
O31	O	0.948220	-0.444006	-0.284476
O32	O	1.448220	0.055994	0.215524
O33	O	0.870915	-0.443980	-0.367606
O34	O	1.370915	0.056020	0.132394
C35	C	0.746102	-0.303265	-0.326067
C36	C	1.246102	0.196735	0.173933
C37	C	0.676134	-0.303273	-0.326075
C38	C	1.176134	0.196727	0.173925
C39	C	0.176677	-0.343608	-0.369322
C40	C	0.676677	0.156392	0.130678
C41	C	0.242419	-0.343608	-0.369315
C42	C	0.742419	0.156392	0.130685
C43	C	0.275294	-0.303296	-0.326107
C44	C	0.775294	0.196704	0.173893
C45	C	0.242422	-0.262993	-0.282892
C46	C	0.742422	0.237007	0.217108
C47	C	0.176681	-0.262998	-0.282895
C48	C	0.676681	0.237002	0.217105
N49	N	0.378536	-0.248179	-0.321019
N50	N	0.878536	0.251821	0.178981
N51	N	0.440987	-0.248176	-0.321019
N52	N	0.940987	0.251824	0.178981
C53	C	0.473369	-0.303278	-0.326093
C54	C	0.973369	0.196722	0.173907
N55	N	0.440941	-0.358385	-0.331179
N56	N	0.940941	0.141615	0.168821
N57	N	0.378483	-0.358388	-0.331182
N58	N	0.878483	0.141612	0.168818
C59	C	0.346580	-0.303286	-0.326099
C60	C	0.846580	0.196714	0.173901
C61	C	0.577519	-0.343583	-0.369295
C62	C	1.077519	0.156417	0.130705
C63	C	0.643263	-0.343584	-0.369283
C64	C	1.143263	0.156416	0.130717
C65	C	0.643265	-0.262963	-0.282864
C66	C	1.143265	0.237037	0.217136
C67	C	0.577522	-0.262967	-0.282872
C68	C	1.077522	0.237033	0.217128
C69	C	0.544653	-0.303277	-0.326091
C70	C	1.044653	0.196723	0.173909
C71	C	0.909571	-0.466834	-0.326049
C72	C	1.409571	0.033166	0.173951
C73	C	0.909593	-0.536802	-0.326055
C74	C	1.409593	-0.036802	0.173945
C75	C	0.949882	-0.569661	-0.282814
C76	C	1.449882	-0.069661	0.217186
C77	C	0.949911	-0.635404	-0.282829
C78	C	1.449911	-0.135404	0.217171
C79	C	0.909641	-0.668284	-0.326079
C80	C	1.409641	-0.168284	0.173921
C81	C	0.869350	-0.635416	-0.369328
C82	C	1.369350	-0.135416	0.130672
C83	C	0.869326	-0.569675	-0.369317
C84	C	1.369326	-0.069675	0.130683
N85	N	0.854574	-0.771548	-0.331232
N86	N	1.354574	-0.271548	0.168768
N87	N	0.854598	-0.834000	-0.331239
N88	N	1.354598	-0.334000	0.168761
C89	C	0.909712	-0.866359	-0.326117
C90	C	1.409712	-0.366359	0.173883
N91	N	0.964801	-0.833907	-0.320975
N92	N	1.464801	-0.333907	0.179025
N93	N	0.964776	-0.771450	-0.320964
N94	N	1.464776	-0.271450	0.179036
C95	C	0.909663	-0.739569	-0.326096
C96	C	1.409663	-0.239569	0.173904
C97	C	0.950036	-0.970504	-0.282890
C98	C	1.450036	-0.470504	0.217110
C99	C	0.950066	-1.036248	-0.282910
C100	C	1.450066	-0.536248	0.217090
C101	C	0.869499	-1.036259	-0.369406
C102	C	1.369499	-0.536259	0.130594
C103	C	0.869474	-0.970517	-0.369389
C104	C	1.369474	-0.470517	0.130611
C105	C	0.909741	-0.937643	-0.326128
C106	C	1.409741	-0.437643	0.173872
C107	C	1.073844	-0.303299	-0.326106
C108	C	1.573844	0.196701	0.173894
C109	C	1.143812	-0.303307	-0.326115
C110	C	1.643812	0.196693	0.173885
C111	C	0.909689	-0.303242	-0.502629
C112	C	1.409689	0.196758	-0.002629
C113	C	0.909704	-0.303225	-0.577861
C114	C	1.409704	0.196775	-0.077861
C115	C	0.909754	-0.139092	-0.326139
C116	C	1.409754	0.360908	0.173861
C117	C	0.909796	-0.069123	-0.326161
C118	C	1.409796	0.430877	0.173839
C119	C	0.949991	-0.262966	-0.613224
C120	C	1.449991	0.237034	-0.113224
C121	C	0.949997	-0.262948	-0.683913
C122	C	1.449997	0.237052	-0.183913
C123	C	0.909720	-0.303192	-0.719237
C124	C	1.409720	0.196808	-0.219237
C125	C	0.869428	-0.343453	-0.683869
C126	C	1.369428	0.156547	-0.183869
C127	C	0.869419	-0.343468	-0.613182
C128	C	1.369419	0.156532	-0.113182
C129	C	0.869464	-0.343395	-0.968942
C130	C	1.369464	0.156605	-0.468942
C131	C	0.869477	-0.343378	-1.039634
C132	C	1.369477	0.156622	-0.539634
C133	C	0.950042	-0.262875	-1.039673
C134	C	1.450042	0.237125	-0.539673
C135	C	0.950033	-0.262889	-0.968986
C136	C	1.450033	0.237111	-0.468986
C137	C	0.909739	-0.303148	-0.933624
C138	C	1.409739	0.196852	-0.433624
C139	C	0.909732	-0.303166	-0.856976
C140	C	1.409732	0.196834	-0.356976
C141	C	0.909730	-0.303178	-0.795884
C142	C	1.409730	0.196822	-0.295884
C143	C	0.909655	-0.303276	-0.150230
C144	C	1.409655	0.196724	0.349770
C145	C	0.909762	-0.303116	-0.074999
C146	C	1.409762	0.196884	0.425001
H147	H	0.550756	-0.376406	-0.404486
H148	H	1.050756	0.123594	0.095514
N149	N	0.678713	-0.387059	-0.415881
N150	N	1.178713	0.112941	0.084119
H151	H	0.647913	-0.412593	-0.443259
H152	H	1.147913	0.087407	0.056741
H153	H	0.706015	-0.361470	-0.447249
H154	H	1.206015	0.138530	0.052751
N155	N	0.993449	-0.219532	-0.722064
N156	N	1.493449	0.280468	-0.222064
H157	H	0.967886	-0.190352	-0.751394
H158	H	1.467886	0.309648	-0.251394
H159	H	1.018961	-0.194081	-0.688925
H160	H	1.518961	0.305919	-0.188925
N161	N	0.542075	-0.219495	-0.236271
N162	N	1.042075	0.280505	0.263729
H163	H	0.553539	-0.174529	-0.246870
H164	H	1.053539	0.325471	0.253130
H165	H	0.495452	-0.225667	-0.242848
H166	H	0.995452	0.274333	0.257152
N167	N	0.825862	-0.534234	-0.415954
N168	N	1.325862	-0.034234	0.084046
H169	H	0.796696	-0.507004	-0.388410
H170	H	1.296696	-0.007004	0.111590
H171	H	0.851459	-0.506949	-0.447331
H172	H	1.351459	-0.006949	0.052669
H173	H	0.836676	-0.376152	-1.068393
H174	H	1.336676	0.123848	-0.568393
N175	N	0.826015	-0.386811	-0.930792
N176	N	1.326015	0.113189	-0.430792
H177	H	0.796860	-0.361223	-0.901470
H178	H	1.296860	0.138777	-0.401470
H179	H	0.800539	-0.412302	-0.963927
H180	H	1.300539	0.087698	-0.463927
N181	N	0.993478	-0.219486	-0.930886
N182	N	1.493478	0.280514	-0.430886
H183	H	1.019001	-0.193978	-0.964015
H184	H	1.519001	0.306022	-0.464015
H185	H	0.967867	-0.190359	-0.901562
H186	H	1.467867	0.309641	-0.401562
N187	N	0.993361	-0.670863	-0.236188
N188	N	1.493361	-0.170863	0.263812
H189	H	1.038331	-0.659382	-0.246734
H190	H	1.538331	-0.159382	0.253266
H191	H	0.983548	-0.659450	-0.187835
H192	H	1.483548	-0.159450	0.312165
H193	H	0.836665	-0.943760	-0.404598
H194	H	1.336665	-0.443760	0.095402
H195	H	0.149919	-0.376433	-0.404512
H196	H	0.649919	0.123567	0.095488
N197	N	0.993465	-0.935042	-0.236235
N198	N	1.493465	-0.435042	0.263765
H199	H	1.018997	-0.965837	-0.208846
H200	H	1.518997	-0.465837	0.291154
H201	H	1.022570	-0.907719	-0.263809
H202	H	1.522570	-0.407719	0.236191
H203	H	0.836607	-0.376245	-0.584390
H204	H	1.336607	0.123755	-0.084390
H205	H	0.982878	-1.063001	-0.247700
H206	H	1.482878	-0.563001	0.252300
H207	H	0.982792	-0.230196	-0.584468
H208	H	1.482792	0.269804	-0.084468
H209	H	0.982849	-0.230092	-1.068473
H210	H	1.482849	0.269908	-0.568473
H211	H	0.836713	-1.063029	-0.404623
H212	H	1.336713	-0.563029	0.095377
N213	N	0.277877	-0.387077	-0.415917
N214	N	0.777877	0.112923	0.084083
H215	H	0.247079	-0.412614	-0.443296
H216	H	0.747079	0.087386	0.056704
H217	H	0.305174	-0.361483	-0.447285
H218	H	0.805174	0.138517	0.052715
N219	N	0.277876	-0.219515	-0.236286
N220	N	0.777876	0.280485	0.263714
H221	H	0.324510	-0.225626	-0.242841
H222	H	0.824510	0.274374	0.257159
H223	H	0.266406	-0.174571	-0.246907
H224	H	0.766406	0.325429	0.253093
N225	N	0.141229	-0.219530	-0.236291
N226	N	0.641229	0.280470	0.263709
H227	H	0.172028	-0.193993	-0.208915
H228	H	0.672028	0.306007	0.291085
H229	H	0.113976	-0.190432	-0.263901
H230	H	0.613976	0.309568	0.236099
H231	H	0.670031	-0.230143	-0.247681
H232	H	1.170031	0.269857	0.252319
N233	N	0.825971	-0.386847	-0.721965
N234	N	1.325971	0.113153	-0.221965
H235	H	0.832086	-0.380727	-0.772111
H236	H	1.332086	0.119273	-0.272111
H237	H	0.835727	-0.431812	-0.709601
H238	H	1.335727	0.068188	-0.209601
H239	H	0.836563	-0.662192	-0.404543
H240	H	1.336563	-0.162192	0.095457
N241	N	0.993320	-0.534205	-0.236166
N242	N	1.493320	-0.034205	0.263834
H243	H	1.018851	-0.565002	-0.208778
H244	H	1.518851	-0.065002	0.291222
H245	H	1.022426	-0.506891	-0.263749
H246	H	1.522426	-0.006891	0.236251
