data_functionalizedCrystal
_audit_creation_method	'MofGen! by Chris Wilmer'
_symmetry_space_group_name_H-M	'P1'
_symmetry_Int_Tables_number	1
_symmetry_cell_setting	triclinic
loop_
_symmetry_equiv_pos_as_xyz
  x,y,z
_cell_length_a	11.169417
_cell_length_b	11.169416
_cell_length_c	13.897449
_cell_angle_alpha	89.994434
_cell_angle_beta	89.994353
_cell_angle_gamma	90.009278
loop_
_atom_site_label
_atom_site_type_symbol
_atom_site_fract_x
_atom_site_fract_y
_atom_site_fract_z
Zn1	Zn	-1.834772	0.478044	0.545404
Zn2	Zn	-1.334772	0.978044	1.045404
Zn3	Zn	-1.834718	0.678696	0.384118
Zn4	Zn	-1.334718	1.178696	0.884118
Zn5	Zn	-1.634114	0.478021	0.384123
Zn6	Zn	-1.134114	0.978021	0.884123
Zn7	Zn	-1.634066	0.678680	0.545372
Zn8	Zn	-1.134066	1.178680	1.045372
O9	O	-1.734418	0.578360	0.464754
O10	O	-1.234418	1.078360	0.964754
O11	O	-2.002715	0.504677	0.524020
O12	O	-1.502715	1.004677	1.024020
O13	O	-1.808105	0.652073	0.249137
O14	O	-1.308105	1.152073	0.749137
O15	O	-1.660775	0.310075	0.405533
O16	O	-1.160775	0.810075	0.905533
O17	O	-2.002675	0.652095	0.405525
O18	O	-1.502675	1.152095	0.905525
O19	O	-1.808198	0.310091	0.524025
O20	O	-1.308198	0.810091	1.024025
O21	O	-1.660722	0.504639	0.249141
O22	O	-1.160722	1.004639	0.749141
O23	O	-1.466158	0.504623	0.405502
O24	O	-0.966158	1.004623	0.905502
O25	O	-1.660692	0.652068	0.680358
O26	O	-1.160692	1.152068	1.180358
O27	O	-1.466123	0.652046	0.523971
O28	O	-0.966123	1.152046	1.023971
O29	O	-1.808151	0.504661	0.680381
O30	O	-1.308151	1.004661	1.180381
O31	O	-1.808058	0.846643	0.405494
O32	O	-1.308058	1.346643	0.905494
O33	O	-1.660640	0.846632	0.523966
O34	O	-1.160640	1.346632	1.023966
C35	C	-1.422593	0.578331	0.464734
C36	C	-0.922593	1.078331	0.964734
C37	C	-1.289193	0.578348	0.464748
C38	C	-0.789193	1.078348	0.964748
C39	C	-1.734370	0.890185	0.464747
C40	C	-1.234370	1.390185	0.964747
C41	C	-1.734459	1.023585	0.464776
C42	C	-1.234459	1.523585	0.964776
C43	C	-1.734422	0.578365	0.716347
C44	C	-1.234422	1.078365	1.216347
C45	C	-1.734424	0.578367	0.823561
C46	C	-1.234424	1.078367	1.323561
C47	C	-1.047460	0.578380	0.464768
C48	C	-0.547460	1.078380	0.964768
C49	C	-1.180860	0.578362	0.464754
C50	C	-0.680860	1.078362	0.964754
C51	C	-1.734498	0.265318	0.464783
C52	C	-1.234498	0.765318	0.964783
C53	C	-1.734532	0.131918	0.464795
C54	C	-1.234532	0.631918	0.964795
C55	C	-1.734394	0.578373	1.019856
C56	C	-1.234394	1.078373	1.519856
C57	C	-1.734407	0.578373	0.910624
C58	C	-1.234407	1.078373	1.410624
C59	C	-1.734402	0.578379	1.214140
C60	C	-1.234402	1.078379	1.714140
C61	C	-1.734392	0.578370	1.106926
C62	C	-1.234392	1.078370	1.606926
