data_functionalizedCrystal
_audit_creation_method	'MofGen! by Chris Wilmer'
_symmetry_space_group_name_H-M	'P1'
_symmetry_Int_Tables_number	1
_symmetry_cell_setting	triclinic
loop_
_symmetry_equiv_pos_as_xyz
  x,y,z
_cell_length_a	27.440280
_cell_length_b	20.875641
_cell_length_c	20.875641
_cell_angle_alpha	60.089808
_cell_angle_beta	90.005468
_cell_angle_gamma	62.438438
loop_
_atom_site_label
_atom_site_type_symbol
_atom_site_fract_x
_atom_site_fract_y
_atom_site_fract_z
Zr1	Zr	0.491807	0.694277	-0.105690
O2	O	0.420386	0.820527	-0.208966
O3	O	0.511029	0.563019	-0.070755
O4	O	0.518206	0.687041	-0.204226
O5	O	0.410587	0.703959	0.026064
O6	O	0.598408	0.687030	-0.204213
O7	O	0.413209	0.696505	-0.075495
O8	O	0.585569	0.465177	0.034542
O9	O	0.423426	0.925812	-0.212691
O10	O	0.582309	0.618854	-0.059803
O11	O	0.520499	0.624425	0.015979
O12	O	0.528949	0.770445	-0.141166
O13	O	0.467139	0.776016	-0.065383
Zr14	Zr	0.615538	0.706147	0.056306
Zr15	Zr	0.619720	0.694259	-0.105669
Zr16	Zr	0.487625	0.706165	0.056285
Zr17	Zr	0.496655	0.862194	-0.111632
Zr18	Zr	0.610690	0.538230	0.062247
O19	O	0.596316	0.837405	0.021371
O20	O	0.602262	0.820502	-0.208936
O21	O	0.414440	0.837431	0.021341
O22	O	0.686959	0.579896	0.159581
O23	O	0.692905	0.562993	-0.070725
O24	O	0.505083	0.579922	0.159552
O25	O	0.696758	0.696465	-0.075448
O26	O	0.589139	0.713382	0.154842
O27	O	0.508937	0.713394	0.154829
O28	O	0.694137	0.703919	0.026111
O29	O	0.525099	0.925798	-0.212675
O30	O	0.582246	0.474626	0.163290
O31	O	0.683920	0.474612	0.163307
O32	O	0.687243	0.465162	0.034559
O33	O	0.420102	0.935262	-0.083943
O34	O	0.521776	0.935247	-0.083926
O35	O	0.578396	0.629979	0.091781
O36	O	0.640207	0.624408	0.015999
O37	O	0.586846	0.775999	-0.065364
O38	O	0.525036	0.781570	0.010419
C39	C	0.547608	0.490173	-0.017260
C40	C	0.545550	0.418888	-0.014737
C41	C	0.576846	0.382490	-0.053110
C42	C	0.574914	0.315506	-0.050733
C43	C	0.541681	0.284925	-0.009987
C44	C	0.510385	0.321326	0.028391
C45	C	0.512321	0.388305	0.026017
C46	C	0.532434	0.084915	0.001357
C47	C	0.530499	0.017934	0.003726
C48	C	0.595029	0.012117	-0.075397
C49	C	0.596960	0.079101	-0.077770
C50	C	0.565665	0.115493	-0.039389
N51	N	0.539704	0.216459	-0.007558
N52	N	0.567646	0.183954	-0.041814
C53	C	0.393673	0.700235	-0.024718
C54	C	0.339370	0.700242	-0.024727
C55	C	0.030523	0.621069	0.017800
C56	C	-0.020495	0.621065	0.017807
O57	O	-0.023196	0.553770	0.053949
N58	N	-0.073866	0.700193	-0.024665
C59	C	-0.076216	0.779331	-0.067139
O60	O	-0.126297	0.846636	-0.103263
C61	C	-0.025198	0.779335	-0.067141
C62	C	0.028171	0.700201	-0.024673
C63	C	0.083891	0.541942	0.060265
C64	C	0.134906	0.541947	0.060256
C65	C	0.132554	0.621079	0.017783
C66	C	0.079186	0.700206	-0.024682
C67	C	-0.027550	0.858473	-0.109611
C68	C	0.023474	0.858470	-0.109609
C69	C	0.076844	0.779336	-0.067141
C70	C	0.127849	0.779343	-0.067163
N71	N	0.181220	0.700215	-0.024692
C72	C	0.183572	0.621083	0.017781
C73	C	-0.183356	0.779317	-0.067131
C74	C	-0.234373	0.779314	-0.067134
C75	C	-0.178648	0.621047	0.017813
C76	C	-0.127630	0.621051	0.017811
C77	C	-0.129985	0.700189	-0.024660
C78	C	0.290705	0.621099	0.017760
C79	C	0.341722	0.621110	0.017746
C80	C	0.285994	0.779377	-0.067198
C81	C	0.234981	0.779366	-0.067187
C82	C	0.237340	0.700220	-0.024702
O83	O	0.130594	0.846604	-0.103284
O84	O	0.233654	0.553790	0.053907
C85	C	0.713672	0.700189	-0.024666
C86	C	0.767975	0.700181	-0.024657
C87	C	0.558903	0.685342	-0.227297
C88	C	0.560678	0.680295	-0.296060
C89	C	0.559737	0.910250	-0.032124
C90	C	0.561795	0.981536	-0.034647
C91	C	0.533659	0.757051	-0.370835
C92	C	0.535335	0.752304	-0.435442
C93	C	0.564026	0.670800	-0.425272
C94	C	0.591048	0.594038	-0.350489
C95	C	0.589376	0.598786	-0.285884
C96	C	0.572017	0.648115	-0.613936
C97	C	0.573686	0.643373	-0.678549
C98	C	0.517973	0.801639	-0.763498
C99	C	0.516301	0.806380	-0.698888
C100	C	0.543325	0.729618	-0.624111
N101	N	0.565737	0.665946	-0.491309
N102	N	0.541617	0.734473	-0.558075
C103	C	0.548442	0.715082	0.177913
C104	C	0.546667	0.720129	0.246676
C105	C	0.707608	0.490151	-0.017234
C106	C	0.759852	0.418858	-0.014702
C107	C	0.542378	0.505043	0.185345
C108	C	0.538545	0.438805	0.256630
C109	C	0.702378	0.505021	0.185372
C110	C	0.752847	0.438775	0.256665
C111	C	0.404967	0.895403	-0.234756
C112	C	0.354498	0.961649	-0.306050
C113	C	0.399737	0.910273	-0.032151
C114	C	0.347493	0.981566	-0.034682
C115	C	0.564967	0.895380	-0.234730
C116	C	0.568800	0.961619	-0.306014
C117	C	0.754165	0.382478	-0.053088
C118	C	0.803250	0.315499	-0.050725
C119	C	0.858021	0.284897	-0.009971
C120	C	0.863708	0.321283	0.028415
C121	C	0.814623	0.388265	0.026048
C122	C	0.566966	0.410599	0.329681
C123	C	0.563362	0.348370	0.396667
C124	C	0.531340	0.314345	0.390600
C125	C	0.502915	0.342558	0.317541
C126	C	0.506516	0.404789	0.250557
C127	C	0.808818	0.404757	0.250588
C128	C	0.856244	0.342520	0.317570
C129	C	0.847699	0.314298	0.390628
C130	C	0.791722	0.348323	0.396703
C131	C	0.744297	0.410563	0.329723
C132	C	0.298528	0.995676	-0.299973
C133	C	0.251102	1.057933	-0.366955
C134	C	0.259647	1.086158	-0.440013
C135	C	0.315624	1.052129	-0.446089
C136	C	0.363049	0.989878	-0.379107
C137	C	0.353180	1.017952	0.003697
C138	C	0.304096	1.084949	0.001315
C139	C	0.249325	1.115553	-0.039441
C140	C	0.243639	1.079164	-0.077824
C141	C	0.292723	1.012173	-0.075447
C142	C	0.600828	0.995625	-0.299923
C143	C	0.604441	1.057854	-0.366896
C144	C	0.576023	1.086081	-0.439960
C145	C	0.543994	1.052069	-0.446050
C146	C	0.540385	0.989836	-0.379078
H147	H	0.620508	-0.017521	-0.106643
H148	H	0.209363	1.170102	-0.041370
C149	C	0.400427	0.534060	0.064467
H150	H	0.394517	0.486934	0.089770
H151	H	0.422411	0.528139	0.030441
H152	H	0.420565	0.533401	0.102028
C153	C	0.602189	0.448021	0.336366
H154	H	0.600272	0.489121	0.286014
H155	H	0.586818	0.476127	0.362280
H156	H	0.641215	0.401897	0.364923
C157	C	0.622598	0.504383	-0.339297
H158	H	0.638451	0.459350	-0.285509
H159	H	0.596135	0.499256	-0.362740
H160	H	0.652679	0.499227	-0.362726
C161	C	0.632093	0.964583	-0.219561
H162	H	0.651687	0.993748	-0.225536
H163	H	0.604752	0.977537	-0.193102
H164	H	0.659141	0.903309	-0.190473
C165	C	0.923957	0.287607	0.073249
H166	H	0.952370	0.242498	0.069165
H167	H	0.930337	0.334244	0.052023
H168	H	0.926336	0.265282	0.126230
H169	H	0.495972	0.864134	-0.824386
C170	C	0.467695	0.305124	0.310874
H171	H	0.451278	0.330835	0.257774
H172	H	0.492235	0.243613	0.336684
H173	H	0.437837	0.317842	0.334041
H174	H	0.199038	1.104093	-0.111007
H175	H	0.483329	0.296418	0.061571
H176	H	0.288083	0.982549	-0.106698
C177	C	0.818226	0.435795	0.170231
H178	H	0.781969	0.477731	0.131203
H179	H	0.840324	0.461509	0.163644
H180	H	0.838187	0.387287	0.166270
C181	C	0.289116	0.964649	-0.219618
H182	H	0.248988	0.993846	-0.225603
H183	H	0.305197	0.903382	-0.190522
H184	H	0.307349	0.977601	-0.193161
C185	C	0.193607	0.454902	0.106980
H186	H	0.223661	0.466226	0.100898
H187	H	0.195765	0.425022	0.160223
H188	H	0.197614	0.419759	0.088636
C189	C	0.505612	0.836736	-0.517692
H190	H	0.488279	0.885956	-0.514495
H191	H	0.533371	0.838176	-0.544656
H192	H	0.476838	0.838173	-0.544664
C193	C	0.189535	1.095345	-0.360258
H194	H	0.191242	1.069604	-0.307152
H195	H	0.170762	1.156853	-0.386045
H196	H	0.168622	1.082640	-0.383434
H197	H	0.486835	0.417942	0.057262
C198	C	0.498006	0.124946	0.043566
H199	H	0.477932	0.097146	0.068163
H200	H	0.523688	0.116713	0.081399
H201	H	0.471145	0.185683	0.007168
C202	C	0.207476	1.154621	-0.513685
H203	H	0.172920	1.170831	-0.499595
H204	H	0.209726	1.204743	-0.544773
H205	H	0.207591	1.130512	-0.542131
H206	H	0.292635	0.556651	0.052356
H207	H	0.630520	1.085541	-0.361922
C208	C	0.413422	0.984299	0.048533
H209	H	0.409771	1.015577	0.071039
H210	H	0.431832	0.923809	0.088216
H211	H	0.435824	0.992769	0.013995
H212	H	0.594023	0.585610	-0.553058
H213	H	0.085816	0.477500	0.094855
H214	H	-0.084178	0.556614	0.052399
H215	H	0.503435	-0.006961	0.036906
C216	C	0.594638	0.317340	0.477021
H217	H	0.614232	0.346508	0.471035
H218	H	0.567300	0.330297	0.503483
H219	H	0.621687	0.256067	0.506112
C220	C	0.325016	1.083176	-0.526455
H221	H	0.288752	1.125115	-0.565470
H222	H	0.347117	1.108888	-0.533058
H223	H	0.344966	1.034671	-0.530422
H224	H	0.520858	1.075062	-0.505548
H225	H	0.308737	1.114566	0.032575
C226	C	0.693922	0.416134	-0.097922
H227	H	0.665498	0.461233	-0.093836
H228	H	0.691546	0.438448	-0.150897
H229	H	0.687555	0.369480	-0.076683
C230	C	0.899868	0.245837	0.464302
H231	H	0.886767	0.233902	0.508687
H232	H	0.921443	0.193579	0.466154
H233	H	0.923577	0.267807	0.463520
H234	H	-0.176741	0.556613	0.052395
H235	H	0.597049	0.576999	-0.670260
H236	H	0.528413	0.263673	0.445149
C237	C	0.475257	0.435805	0.170204
H238	H	0.481981	0.477745	0.131173
H239	H	0.489446	0.387293	0.166255
H240	H	0.435050	0.461527	0.163608
H241	H	0.578966	1.136756	-0.494487
H242	H	0.901819	0.314823	0.312609
C243	C	0.820886	0.428266	0.068286
H244	H	0.860536	0.400436	0.092901
H245	H	0.804991	0.488999	0.031910
H246	H	0.801003	0.420021	0.106120
H247	H	0.514303	0.962156	-0.384049
C248	C	0.609335	0.275477	-0.092949
H249	H	0.629397	0.303291	-0.117564
H250	H	0.636195	0.214743	-0.056561
H251	H	0.583643	0.283717	-0.130781
C252	C	0.782327	0.317275	0.477068
H253	H	0.742200	0.346451	0.471102
H254	H	0.798420	0.256006	0.506154
H255	H	0.800558	0.330230	0.503524
C256	C	0.613405	0.416120	-0.097927
H257	H	0.631771	0.384840	-0.120432
H258	H	0.589234	0.476611	-0.137610
H259	H	0.641775	0.407635	-0.063378
C260	C	0.682732	0.447966	0.336417
H261	H	0.684440	0.422233	0.389523
H262	H	0.663951	0.509476	0.310621
H263	H	0.661825	0.435245	0.313252
C264	C	0.633515	0.112734	-0.122590
H265	H	0.651881	0.081459	-0.145099
H266	H	0.609339	0.173226	-0.162271
H267	H	0.661886	0.104254	-0.088046
C268	C	-0.293075	0.866358	-0.113853
H269	H	-0.323127	0.855031	-0.107775
H270	H	-0.297079	0.901499	-0.095512
H271	H	-0.295238	0.896242	-0.167102
H272	H	-0.070998	0.922913	-0.144192
C273	C	-0.185952	0.866374	-0.113864
H274	H	-0.225045	0.913493	-0.139161
H275	H	-0.168132	0.872303	-0.079845
H276	H	-0.166288	0.867037	-0.151430
C277	C	0.020880	0.945524	-0.156332
H278	H	-0.018213	0.992646	-0.181625
H279	H	0.038704	0.951445	-0.122309
H280	H	0.040541	0.946191	-0.193901
H281	H	0.191524	0.843802	-0.101777
H282	H	0.408621	0.962174	-0.384064
H283	H	0.510292	0.823421	-0.379125
C284	C	0.283416	0.866412	-0.113953
H285	H	0.321446	0.855074	-0.107877
H286	H	0.264530	0.896270	-0.167191
H287	H	0.262690	0.901584	-0.095632
C288	C	0.484741	0.896035	-0.710079
H289	H	0.468892	0.941069	-0.763867
H290	H	0.454665	0.901176	-0.686647
H291	H	0.511199	0.901174	-0.686637
H292	H	0.611377	0.536283	-0.224998
H293	H	0.798609	0.285881	-0.081985
C294	C	0.912008	0.211210	-0.007365
H295	H	0.900771	0.193925	-0.036058
H296	H	0.936276	0.231595	-0.029318
H297	H	0.932277	0.162639	0.044897
