data_functionalizedCrystal
_audit_creation_method	'MofGen! by Chris Wilmer'
_symmetry_space_group_name_H-M	'P1'
_symmetry_Int_Tables_number	1
_symmetry_cell_setting	triclinic
loop_
_symmetry_equiv_pos_as_xyz
  x,y,z
_cell_length_a	14.853569
_cell_length_b	14.853567
_cell_length_c	9.730223
_cell_angle_alpha	90.002458
_cell_angle_beta	90.001765
_cell_angle_gamma	83.635248
loop_
_atom_site_label
_atom_site_type_symbol
_atom_site_fract_x
_atom_site_fract_y
_atom_site_fract_z
O1	O	1.196359	0.117707	-0.114215
O2	O	0.933899	0.131727	-0.114230
O3	O	1.072140	-0.006513	-0.114226
O4	O	1.058118	0.255947	-0.114219
O5	O	1.072138	-0.006509	0.114354
O6	O	0.933898	0.131730	0.114350
O7	O	1.196357	0.117710	0.114365
Zn8	Zn	1.065127	0.124721	0.150649
Zn9	Zn	1.065129	0.124716	-0.150515
O10	O	1.058117	0.255950	0.114361
C11	C	0.900310	0.131093	0.000058
C12	C	0.800226	0.129189	0.000051
C13	C	0.763850	0.046178	0.000044
C14	C	0.742560	0.210410	0.000064
C15	C	0.648526	0.208624	0.000066
C16	C	0.612150	0.125613	0.000058
C17	C	0.669807	0.044389	0.000050
C18	C	0.590862	0.289847	0.000088
C19	C	0.496821	0.288064	0.000091
C20	C	0.460443	0.205052	0.000074
C21	C	0.518107	0.123824	0.000064
C22	C	0.481730	0.040813	0.000057
C23	C	0.539393	-0.040415	0.000037
C24	C	0.633429	-0.038623	0.000033
C25	C	0.366407	0.203259	0.000079
C26	C	0.387688	0.039024	0.000063
C27	C	1.071504	-0.040100	0.000060
C28	C	1.069600	-0.140183	0.000047
C29	C	0.979434	-0.552718	0.000068
C30	C	1.143667	-0.573998	0.000078
C31	C	1.145457	-0.479964	0.000070
C32	C	1.064234	-0.422303	0.000063
C33	C	0.981222	-0.458675	0.000065
C34	C	1.228468	-0.443585	0.000082
C35	C	1.230262	-0.349545	0.000076
C36	C	1.149038	-0.291882	0.000060
C37	C	1.066022	-0.328260	0.000059
C38	C	0.984800	-0.270599	0.000053
C39	C	0.901783	-0.306974	0.000043
C40	C	0.899998	-0.401012	0.000048
C41	C	1.150822	-0.197845	0.000054
C42	C	0.986587	-0.176556	0.000049
C43	C	1.229947	0.118344	0.000074
C44	C	1.330030	0.120249	0.000071
C45	C	1.058753	0.289537	0.000072
C46	C	1.060657	0.389621	0.000075
N47	N	1.065132	0.124724	0.356186
N48	N	1.065131	0.124707	-0.356051
C49	C	1.126361	0.063532	0.428113
C50	C	1.126358	0.063521	0.571996
C51	C	1.003896	0.185901	0.572011
C52	C	1.003895	0.185907	0.428131
C53	C	1.197066	-0.007121	0.428106
C54	C	1.197064	-0.007132	0.571989
H55	H	0.319463	0.269395	0.000107
H56	H	1.262361	0.014350	0.383484
H57	H	1.294595	-0.490539	0.000101
H58	H	0.810802	-0.019956	0.000022
H59	H	0.920445	-0.129613	0.000037
Br60	Br	0.920783	0.268940	0.330511
Br61	Br	1.161358	-0.115999	0.646361
H62	H	0.449880	0.354205	0.000106
Br63	Br	1.342924	-0.300186	0.000068
H64	H	1.209794	-0.620951	0.000094
H65	H	1.266232	0.007799	0.611044
H66	H	0.835651	-0.260014	0.000047
Br67	Br	0.490013	-0.153069	0.000046
Br68	Br	0.338328	-0.073640	0.000036
H69	H	1.182189	-0.076305	0.389049
H70	H	0.832410	-0.430638	0.000041
H71	H	0.680385	-0.104755	0.000019
Br72	Br	0.791929	0.323063	0.000081
H73	H	0.620487	0.357430	0.000103
Br74	Br	0.866774	-0.602081	0.000035
H75	H	1.218413	-0.168232	0.000071
Br76	Br	0.920790	0.268931	0.669658
