data_functionalizedCrystal
_audit_creation_method	'MofGen! by Chris Wilmer'
_symmetry_space_group_name_H-M	'P1'
_symmetry_Int_Tables_number	1
_symmetry_cell_setting	triclinic
loop_
_symmetry_equiv_pos_as_xyz
  x,y,z
_cell_length_a	12.811438
_cell_length_b	12.811415
_cell_length_c	9.130313
_cell_angle_alpha	84.564622
_cell_angle_beta	95.429152
_cell_angle_gamma	84.560771
loop_
_atom_site_label
_atom_site_type_symbol
_atom_site_fract_x
_atom_site_fract_y
_atom_site_fract_z
O1	O	1.393277	0.141394	0.044516
O2	O	1.087763	0.156763	0.001885
O3	O	1.248206	-0.003680	0.044518
O4	O	1.232834	0.301838	0.001883
O5	O	1.248195	-0.003685	0.288116
O6	O	1.087752	0.156758	0.245483
O7	O	1.393266	0.141390	0.288114
Cu8	Cu	1.240508	0.149074	0.289041
Cu9	Cu	1.240521	0.149079	0.000958
O10	O	1.232823	0.301833	0.245481
C11	C	1.048650	0.155899	0.118603
C12	C	0.932122	0.153318	0.103464
C13	C	0.767884	0.149682	-0.050641
C14	C	0.877373	0.152106	-0.036430
C15	C	0.877376	0.152101	0.229156
C16	C	0.767887	0.149677	0.214945
C17	C	0.713145	0.148469	0.075041
C18	C	0.603654	0.146052	0.060829
C19	C	0.603659	0.146039	0.326415
C20	C	0.713148	0.148463	0.340627
C21	C	1.247339	-0.042791	0.171396
C22	C	1.244759	-0.159320	0.186526
C23	C	1.239905	-0.378275	-0.050645
C24	C	1.237481	-0.487765	-0.036435
C25	C	1.237480	-0.487791	0.229153
C26	C	1.239904	-0.378301	0.214943
C27	C	1.241118	-0.323547	0.075040
C28	C	1.243549	-0.214056	0.060833
C29	C	1.243541	-0.214083	0.326419
C30	C	1.241117	-0.323573	0.340628
C31	C	1.432379	0.142254	0.171393
C32	C	1.548907	0.144835	0.186521
C33	C	1.233690	0.340943	0.118600
C34	C	1.236270	0.457473	0.103459
N35	N	1.240507	0.149069	0.491664
N36	N	1.240531	0.149075	-0.201663
C37	C	1.311575	0.078055	0.587193
C38	C	1.311585	0.078055	0.740531
C39	C	1.169455	0.220093	0.702796
C40	C	1.169441	0.220087	0.549461
H41	H	0.757734	0.149443	0.454533
H42	H	0.723311	0.148710	-0.164558
H43	H	1.240125	-0.368168	0.454533
O44	O	1.380667	0.009218	0.833475
C45	C	1.445681	0.065757	0.923247
H46	H	1.404231	0.147682	0.929832
H47	H	1.523275	0.073278	0.873442
C48	C	1.518782	-0.093933	1.071606
C49	C	1.467869	0.006686	1.079704
H50	H	1.532474	-0.130372	1.168115
H51	H	1.474985	-0.132026	1.011123
H52	H	1.583439	-0.087651	1.030096
H53	H	1.403208	0.000403	1.121196
H54	H	1.511656	0.044777	1.140198
H55	H	1.244533	-0.169513	0.428761
H56	H	1.369439	0.020226	0.540139
O57	O	1.100389	0.288937	0.759123
C58	C	1.035391	0.232404	0.846696
H59	H	1.076842	0.150477	0.886056
H60	H	0.957783	0.224884	0.778319
C61	C	0.962321	0.392100	0.933213
C62	C	1.013236	0.291479	0.981566
H63	H	0.948649	0.428541	1.016403
H64	H	1.006108	0.430188	0.874209
H65	H	0.897653	0.385819	0.876231
H66	H	1.077907	0.297761	1.038530
H67	H	0.969459	0.253393	1.040582
O68	O	1.236116	-0.540930	0.365040
C69	C	1.145932	-0.502691	0.428807
H70	H	1.083137	-0.464536	0.337725
H71	H	1.167871	-0.441761	0.506456
C72	C	1.179736	-0.641631	0.628475
C73	C	1.102606	-0.594776	0.516606
H74	H	1.153012	-0.698431	0.682640
H75	H	1.240497	-0.667392	0.585518
H76	H	1.198011	-0.590846	0.693168
H77	H	1.084341	-0.645557	0.451906
H78	H	1.041840	-0.569026	0.559555
O79	O	0.930378	0.153334	-0.158677
C80	C	0.858582	0.151721	-0.285194
H81	H	0.776335	0.183179	-0.261361
H82	H	0.857582	0.067359	-0.314951
C83	C	0.993625	0.182787	-0.444668
C84	C	0.892609	0.221432	-0.415399
H85	H	1.014617	0.225784	-0.524987
H86	H	1.041998	0.183870	-0.359431
H87	H	0.992779	0.112485	-0.469456
H88	H	0.893460	0.291727	-0.390593
H89	H	0.844238	0.220363	-0.500635
H90	H	1.244541	-0.169478	-0.053083
O91	O	0.550468	0.144664	0.448503
C92	C	0.498603	0.052479	0.461798
H93	H	0.539622	-0.010246	0.400212
H94	H	0.413024	0.071172	0.412291
C95	C	0.451763	0.088301	0.702027
C96	C	0.502149	0.011258	0.626398
H97	H	0.453946	0.062876	0.803560
H98	H	0.486702	0.150410	0.693069
H99	H	0.380451	0.103872	0.660755
H100	H	0.573463	-0.004301	0.667658
H101	H	0.467223	-0.050855	0.635367
H102	H	1.111564	0.277916	0.471674
H103	H	0.559084	0.145073	-0.053088
H104	H	1.240902	-0.333695	-0.164558
H105	H	0.921967	0.153072	0.343061
H106	H	1.236489	-0.532320	-0.138782
