data_functionalizedCrystal
_audit_creation_method	'MofGen! by Chris Wilmer'
_symmetry_space_group_name_H-M	'P1'
_symmetry_Int_Tables_number	1
_symmetry_cell_setting	triclinic
loop_
_symmetry_equiv_pos_as_xyz
  x,y,z
_cell_length_a	15.995292
_cell_length_b	23.532357
_cell_length_c	22.610064
_cell_angle_alpha	90.001483
_cell_angle_beta	90.009403
_cell_angle_gamma	83.148454
loop_
_atom_site_label
_atom_site_type_symbol
_atom_site_fract_x
_atom_site_fract_y
_atom_site_fract_z
O1	O	1.110393	0.073244	0.049208
O2	O	1.610393	0.573244	0.549208
O3	O	0.866533	0.082344	0.049206
O4	O	1.366533	0.582344	0.549206
O5	O	0.995839	-0.005113	0.049195
O6	O	1.495839	0.494887	0.549195
O7	O	0.981088	0.160700	0.049219
O8	O	1.481088	0.660700	0.549219
O9	O	0.995816	-0.005100	-0.049174
O10	O	1.495816	0.494900	0.450826
O11	O	0.866510	0.082356	-0.049163
O12	O	1.366510	0.582356	0.450837
O13	O	1.110370	0.073257	-0.049161
O14	O	1.610370	0.573257	0.450839
Zn15	Zn	0.988437	0.077809	-0.064780
Zn16	Zn	1.488437	0.577809	0.435220
Zn17	Zn	0.988467	0.077792	0.064825
Zn18	Zn	1.488467	0.577792	0.564825
O19	O	0.981065	0.160713	-0.049150
O20	O	1.481065	0.660713	0.450850
C21	C	0.835329	0.081980	0.000022
C22	C	1.335329	0.581980	0.500022
C23	C	0.742386	0.080869	0.000020
C24	C	1.242386	0.580869	0.500020
C25	C	0.404682	0.076787	0.000027
C26	C	0.904682	0.576787	0.500027
C27	C	0.427453	0.139911	0.000255
C28	C	0.927453	0.639911	0.500255
C29	C	0.524118	0.141111	0.000031
C30	C	1.024118	0.641111	0.500031
C31	C	0.572221	0.078813	0.000024
C32	C	1.072221	0.578813	0.500024
C33	C	0.543377	0.047261	-0.056152
C34	C	1.043377	0.547261	0.443848
C35	C	0.446593	0.046502	-0.056197
C36	C	0.946593	0.546502	0.443803
C37	C	0.446775	0.045198	0.055667
C38	C	0.946775	0.545198	0.555667
C39	C	0.543247	0.047537	0.056407
C40	C	1.043247	0.547537	0.556407
C41	C	0.666907	0.079954	0.000020
C42	C	1.166907	0.579954	0.500020
C43	C	0.309997	0.075644	0.000026
C44	C	0.809997	0.575644	0.500026
C45	C	0.995458	-0.026324	0.000009
C46	C	1.495458	0.473676	0.500009
C47	C	0.994349	-0.089547	0.000003
C48	C	1.494349	0.410453	0.500003
C49	C	0.987397	-0.481591	0.053656
C50	C	1.487397	0.018409	0.553656
C51	C	0.986343	-0.540994	0.053659
C52	C	1.486343	-0.040994	0.553659
O53	O	0.985780	-0.571719	0.099262
O54	O	1.485780	-0.071719	0.599262
N55	N	0.985807	-0.570700	0.000039
N56	N	1.485807	-0.070700	0.500039
C57	C	0.986318	-0.540999	-0.053588
C58	C	1.486318	-0.040999	0.446412
O59	O	0.985765	-0.571721	-0.099196
O60	O	1.485765	-0.071721	0.400804
C61	C	0.987366	-0.481597	-0.053591
C62	C	1.487366	0.018403	0.446409
C63	C	0.987910	-0.451894	0.000033
C64	C	1.487910	0.048106	0.500033
C65	C	0.987940	-0.451888	0.107275
C66	C	1.487940	0.048112	0.607275
C67	C	0.988996	-0.392489	0.107272
C68	C	1.488996	0.107511	0.607272
C69	C	0.989509	-0.362793	0.053649
C70	C	1.489509	0.137207	0.553649
C71	C	0.988966	-0.392495	0.000029
C72	C	1.488966	0.107505	0.500029
C73	C	0.987871	-0.451896	-0.107217
C74	C	1.487871	0.048104	0.392783
C75	C	0.988919	-0.392489	-0.107216
C76	C	1.488919	0.107511	0.392784
C77	C	0.989463	-0.362787	-0.053592
C78	C	1.489463	0.137213	0.446408
C79	C	0.990535	-0.303399	-0.053597
C80	C	1.490535	0.196601	0.446403
N81	N	0.991071	-0.273693	0.000023
N82	N	1.491071	0.226307	0.500023
C83	C	0.990558	-0.303390	0.053646
C84	C	1.490558	0.196610	0.553646
C85	C	0.984115	-0.665749	-0.053578
C86	C	1.484115	-0.165749	0.446422
C87	C	0.983072	-0.725151	-0.053576
C88	C	1.483072	-0.225151	0.446424
C89	C	0.983095	-0.725142	0.053672
C90	C	1.483095	-0.225142	0.553672
C91	C	0.984144	-0.665739	0.053669
C92	C	1.484144	-0.165739	0.553669
C93	C	0.984650	-0.636043	0.000042
C94	C	1.484650	-0.136043	0.500042
C95	C	0.992776	-0.178647	0.053634
C96	C	1.492776	0.321353	0.553634
C97	C	0.993836	-0.119243	0.053626
C98	C	1.493836	0.380757	0.553626
C99	C	0.993808	-0.119258	-0.053621
C100	C	1.493808	0.380742	0.446379
C101	C	0.992753	-0.178657	-0.053613
C102	C	1.492753	0.321343	0.446387
C103	C	0.992234	-0.208350	0.000019
C104	C	1.492234	0.291650	0.500019
O105	O	0.991096	-0.272637	-0.099177
O106	O	1.491096	0.227363	0.400823
O107	O	0.991100	-0.272660	0.099246
O108	O	1.491100	0.227340	0.599246
C109	C	1.141574	0.073621	0.000025
C110	C	1.641574	0.573621	0.500025
C111	C	1.234518	0.074731	0.000030
C112	C	1.734518	0.574731	0.500030
C113	C	0.981445	0.181925	0.000038
C114	C	1.481445	0.681925	0.500038
C115	C	0.982555	0.245147	0.000047
C116	C	1.482555	0.745147	0.500047
N117	N	0.988422	0.077820	-0.153233
N118	N	1.488422	0.577820	0.346767
C119	C	1.045726	0.039072	-0.561879
C120	C	1.545726	0.539072	-0.061879
C121	C	1.045730	0.039068	-0.623799
C122	C	1.545730	0.539068	-0.123799
O123	O	1.094416	0.006132	-0.655822
O124	O	1.594416	0.506132	-0.155822
N125	N	0.988466	0.077780	-0.654770
N126	N	1.488466	0.577780	-0.154770
C127	C	0.931189	0.116495	-0.623818
C128	C	1.431189	0.616495	-0.123818
O129	O	0.882481	0.149422	-0.655846
O130	O	1.382481	0.649422	-0.155846
C131	C	0.931181	0.116496	-0.561899
C132	C	1.431181	0.616496	-0.061899
C133	C	0.988454	0.077785	-0.530931
C134	C	1.488454	0.577785	-0.030931
C135	C	1.102994	0.000364	-0.530911
C136	C	1.602994	0.500364	-0.030911
C137	C	1.102990	0.000369	-0.468996
C138	C	1.602990	0.500369	0.031004
C139	C	1.045719	0.039082	-0.438048
C140	C	1.545719	0.539082	0.061952
C141	C	0.988451	0.077790	-0.469016
C142	C	1.488451	0.577790	0.030984
C143	C	0.873900	0.155207	-0.530948
C144	C	1.373900	0.655207	-0.030948
C145	C	0.873897	0.155205	-0.469025
C146	C	1.373897	0.655205	0.030975
C147	C	0.931170	0.116494	-0.438057
C148	C	1.431170	0.616494	0.061943
C149	C	0.931176	0.116508	-0.376152
C150	C	1.431176	0.616508	0.123848
N151	N	0.988440	0.077796	-0.345181
N152	N	1.488440	0.577796	0.154819
C153	C	1.045711	0.039083	-0.376129
C154	C	1.545711	0.539083	0.123871
C155	C	0.931208	0.116489	-0.753851
C156	C	1.431208	0.616489	-0.253851
C157	C	0.931219	0.116491	-0.815769
C158	C	1.431219	0.616491	-0.315769
C159	C	1.045760	0.039064	-0.815746
C160	C	1.545760	0.539064	-0.315746
C161	C	1.045752	0.039065	-0.753827
C162	C	1.545752	0.539065	-0.253827
C163	C	0.988472	0.077777	-0.722880
C164	C	1.488472	0.577777	-0.222880
C165	C	1.045700	0.039097	-0.246102
C166	C	1.545700	0.539097	0.253898
C167	C	1.045694	0.039107	-0.184181
C168	C	1.545694	0.539107	0.315819
C169	C	0.931151	0.116532	-0.184209
C170	C	1.431151	0.616532	0.315791
C171	C	0.931159	0.116524	-0.246125
C172	C	1.431159	0.616524	0.253875
C173	C	0.988437	0.077802	-0.277069
C174	C	1.488437	0.577802	0.222931
O175	O	0.882513	0.149426	-0.344090
O176	O	1.382513	0.649426	0.155910
O177	O	1.094403	0.006157	-0.344093
O178	O	1.594403	0.506157	0.155907
N179	N	0.988488	0.077776	0.153278
N180	N	1.488488	0.577776	0.653278
H181	H	0.576608	0.002066	0.059794
H182	H	1.076608	0.502066	0.559794
H183	H	1.092340	0.007565	-0.271290
H184	H	1.592340	0.507565	0.228710
Cl185	Cl	0.992085	-0.215999	-0.121027
Cl186	Cl	1.492085	0.284001	0.378973
Cl187	Cl	0.994453	-0.081914	-0.121029
Cl188	Cl	1.494453	0.418086	0.378971
Cl189	Cl	1.117701	-0.009561	-0.145253
Cl190	Cl	1.617701	0.490439	0.354747
Cl191	Cl	0.571666	0.082986	0.120574
Cl192	Cl	1.071666	0.582986	0.620574
Cl193	Cl	0.425791	-0.026538	0.056244
Cl194	Cl	0.925791	0.473462	0.556244
Cl195	Cl	1.174988	-0.048301	-0.430072
Cl196	Cl	1.674988	0.451699	0.069928
Cl197	Cl	1.175002	-0.048310	-0.569807
Cl198	Cl	1.675002	0.451690	-0.069807
Cl199	Cl	0.383921	0.177472	0.062455
Cl200	Cl	0.883921	0.677472	0.562455
Cl201	Cl	0.994521	-0.081907	0.121044
Cl202	Cl	1.494521	0.418093	0.621044
Cl203	Cl	0.992126	-0.215967	0.121059
Cl204	Cl	1.492126	0.284033	0.621059
Cl205	Cl	0.989672	-0.355157	0.174689
Cl206	Cl	1.489672	0.144843	0.674689
H207	H	0.563238	0.069183	-0.097953
H208	H	1.063238	0.569183	0.402047
H209	H	1.092388	0.007543	-0.728617
H210	H	1.592388	0.507543	-0.228617
Cl211	Cl	1.117756	-0.009605	-0.854665
Cl212	Cl	1.617756	0.490395	-0.354665
H213	H	0.884591	0.148019	-0.840978
H214	H	1.384591	0.648019	-0.340978
H215	H	0.987430	-0.476070	-0.150884
H216	H	1.487430	0.023930	0.349116
Cl217	Cl	0.859198	0.165166	-0.714952
Cl218	Cl	1.359198	0.665166	-0.214952
H219	H	0.827263	0.186729	-0.556153
H220	H	1.327263	0.686729	-0.056153
Cl221	Cl	0.984759	-0.628423	-0.121002
Cl222	Cl	1.484759	-0.128423	0.378998
Cl223	Cl	0.982405	-0.762486	-0.120992
Cl224	Cl	1.482405	-0.262486	0.379008
Cl225	Cl	0.382316	0.177279	-0.061582
Cl226	Cl	0.882316	0.677279	0.438418
Cl227	Cl	0.801881	0.203874	-0.430124
Cl228	Cl	1.301881	0.703874	0.069876
Cl229	Cl	0.987296	-0.489211	0.174697
Cl230	Cl	1.487296	0.010789	0.674697
Cl231	Cl	0.989556	-0.355161	-0.174637
Cl232	Cl	1.489556	0.144839	0.325363
H233	H	0.984585	-0.641559	0.097334
H234	H	1.484585	-0.141559	0.597334
Cl235	Cl	0.859156	0.165198	-0.145293
Cl236	Cl	1.359156	0.665198	0.354707
Cl237	Cl	0.553184	0.179261	0.062204
Cl238	Cl	1.053184	0.679261	0.562204
Cl239	Cl	0.552195	0.179504	-0.062240
Cl240	Cl	1.052195	0.679504	0.437760
Cl241	Cl	0.859165	0.165197	-0.285053
Cl242	Cl	1.359165	0.665197	0.214947
H243	H	0.419579	0.068363	-0.098184
H244	H	0.919579	0.568363	0.401816
H245	H	0.432439	0.000220	-0.058754
H246	H	0.932439	0.500220	0.441246
H247	H	0.575638	0.001419	-0.058247
H248	H	1.075638	0.501419	0.441753
Cl249	Cl	0.982443	-0.762485	0.121084
Cl250	Cl	1.482443	-0.262485	0.621084
Cl251	Cl	0.402806	0.075658	0.121405
Cl252	Cl	0.902806	0.575658	0.621405
