data_functionalizedCrystal
_audit_creation_method	'MofGen! by Chris Wilmer'
_symmetry_space_group_name_H-M	'P1'
_symmetry_Int_Tables_number	1
_symmetry_cell_setting	triclinic
loop_
_symmetry_equiv_pos_as_xyz
  x,y,z
_cell_length_a	19.805407
_cell_length_b	29.839131
_cell_length_c	19.805399
_cell_angle_alpha	89.970435
_cell_angle_beta	89.982197
_cell_angle_gamma	90.038737
loop_
_atom_site_label
_atom_site_type_symbol
_atom_site_fract_x
_atom_site_fract_y
_atom_site_fract_z
Zn1	Zn	1.034665	-0.178896	-0.382678
Zn2	Zn	1.367998	0.154437	-0.049345
Zn3	Zn	1.701332	0.487771	0.283988
Zn4	Zn	1.034550	-0.254024	-0.269486
Zn5	Zn	1.367884	0.079310	0.063847
Zn6	Zn	1.701217	0.412643	0.397181
Zn7	Zn	0.921480	-0.178905	-0.269506
Zn8	Zn	1.254813	0.154429	0.063827
Zn9	Zn	1.588146	0.487762	0.397160
Zn10	Zn	0.921414	-0.253996	-0.382636
Zn11	Zn	1.254747	0.079337	-0.049303
Zn12	Zn	1.588080	0.412671	0.284030
O13	O	0.978027	-0.216455	-0.326077
O14	O	1.311360	0.116878	0.007257
O15	O	1.644694	0.450212	0.340590
O16	O	1.129366	-0.188870	-0.367672
O17	O	1.462700	0.144464	-0.034339
O18	O	1.796033	0.477797	0.298994
O19	O	1.019531	-0.244074	-0.174772
O20	O	1.352864	0.089259	0.158561
O21	O	1.686197	0.422593	0.491894
O22	O	0.936570	-0.116036	-0.284545
O23	O	1.269903	0.217297	0.048788
O24	O	1.603236	0.550630	0.382122
O25	O	1.129282	-0.244065	-0.284510
O26	O	1.462615	0.089268	0.048823
O27	O	1.795949	0.422601	0.382156
O28	O	1.019726	-0.116030	-0.367692
O29	O	1.353060	0.217303	-0.034358
O30	O	1.686393	0.550637	0.298975
O31	O	0.936458	-0.188885	-0.174787
O32	O	1.269792	0.144449	0.158546
O33	O	1.603125	0.477782	0.491880
O34	O	0.826754	-0.188858	-0.284504
O35	O	1.160088	0.144475	0.048829
O36	O	1.493421	0.477809	0.382162
O37	O	0.936457	-0.244019	-0.477359
O38	O	1.269790	0.089315	-0.144025
O39	O	1.603124	0.422648	0.189308
O40	O	0.826706	-0.244027	-0.367620
O41	O	1.160039	0.089306	-0.034287
O42	O	1.493372	0.422639	0.299046
O43	O	1.019662	-0.188843	-0.477389
O44	O	1.352996	0.144490	-0.144056
O45	O	1.686329	0.477824	0.189277
O46	O	1.019467	-0.316887	-0.284470
O47	O	1.352800	0.016446	0.048864
O48	O	1.686133	0.349780	0.382197
O49	O	0.936346	-0.316867	-0.367601
O50	O	1.269679	0.016466	-0.034267
O51	O	1.603012	0.349800	0.299066
C52	C	0.802171	-0.216441	-0.326060
C53	C	1.135504	0.116892	0.007273
C54	C	1.468838	0.450226	0.340606
C55	C	0.726939	-0.216446	-0.326069
C56	C	1.060272	0.116888	0.007264
C57	C	1.393606	0.450221	0.340597
C58	C	0.691640	-0.187756	-0.369438
C59	C	1.024973	0.145577	-0.036104
C60	C	1.358306	0.478911	0.297229
C61	C	0.620951	-0.187758	-0.369440
C62	C	0.954284	0.145575	-0.036107
C63	C	1.287618	0.478908	0.297226
C64	C	0.585564	-0.216453	-0.326078
C65	C	0.918897	0.116880	0.007256
C66	C	1.252230	0.450214	0.340589
C67	C	0.620868	-0.245144	-0.282705
C68	C	0.954201	0.088189	0.050629
C69	C	1.287535	0.421523	0.383962
C70	C	0.691555	-0.245139	-0.282699
C71	C	1.024889	0.088194	0.050634
C72	C	1.358222	0.421528	0.383968
C73	C	0.335795	-0.245164	-0.282725
C74	C	0.669128	0.088169	0.050608
C75	C	1.002461	0.421502	0.383941
C76	C	0.265103	-0.245168	-0.282736
C77	C	0.598436	0.088165	0.050598
C78	C	0.931769	0.421499	0.383931
C79	C	0.265191	-0.187784	-0.369466
C80	C	0.598524	0.145550	-0.036133
C81	C	0.931857	0.478883	0.297200
C82	C	0.335878	-0.187779	-0.369461
C83	C	0.669211	0.145555	-0.036128
C84	C	1.002544	0.478888	0.297206
C85	C	0.371176	-0.216468	-0.326086
C86	C	0.704509	0.116866	0.007248
C87	C	1.037843	0.450199	0.340581
C88	C	0.447825	-0.216464	-0.326083
C89	C	0.781158	0.116869	0.007251
C90	C	1.114491	0.450202	0.340584
C91	C	0.508916	-0.216459	-0.326084
C92	C	0.842250	0.116874	0.007250
C93	C	1.175583	0.450207	0.340583
C94	C	0.977905	-0.333178	-0.326043
C95	C	1.311238	0.000156	0.007290
C96	C	1.644572	0.333489	0.340623
C97	C	0.977915	-0.383112	-0.326052
C98	C	1.311248	-0.049779	0.007282
C99	C	1.644581	0.283555	0.340615
C100	C	1.021387	-0.692753	-0.282854
C101	C	1.354720	-0.359420	0.050480
C102	C	1.688054	-0.026087	0.383813
C103	C	1.021470	-0.880426	-0.282880
C104	C	1.354804	-0.547093	0.050453
C105	C	1.688137	-0.213760	0.383787
O106	O	1.058335	-0.904689	-0.246126
O107	O	1.391669	-0.571356	0.087207
O108	O	1.725002	-0.238023	0.420541
N109	N	0.978167	-0.903897	-0.326128
N110	N	1.311501	-0.570564	0.007205
N111	N	1.644834	-0.237230	0.340539
C112	C	0.934844	-0.880447	-0.369375
C113	C	1.268177	-0.547113	-0.036042
C114	C	1.601510	-0.213780	0.297291
O115	O	0.898019	-0.904716	-0.406166
O116	O	1.231352	-0.571383	-0.072832
O117	O	1.564685	-0.238050	0.260501
C118	C	0.934764	-0.692775	-0.369352
C119	C	1.268097	-0.359441	-0.036019
C120	C	1.601431	-0.026108	0.297315
C121	C	0.978065	-0.669306	-0.326096
C122	C	1.311398	-0.335973	0.007237
C123	C	1.644732	-0.002640	0.340570
C124	C	1.064685	-0.669285	-0.239602
C125	C	1.398018	-0.335952	0.093731
C126	C	1.731352	-0.002618	0.427064
C127	C	1.064661	-0.622369	-0.239594
C128	C	1.397994	-0.289036	0.093740
C129	C	1.731328	0.044297	0.427073
C130	C	1.021339	-0.598922	-0.282836
C131	C	1.354672	-0.265589	0.050497
C132	C	1.688006	0.067744	0.383830
C133	C	0.978041	-0.622391	-0.326088
C134	C	1.311374	-0.289057	0.007246
C135	C	1.644708	0.044276	0.340579
C136	C	0.891444	-0.669325	-0.412602
C137	C	1.224777	-0.335992	-0.079269
C138	C	1.558111	-0.002658	0.254064
C139	C	0.891429	-0.622404	-0.412594
C140	C	1.224763	-0.289071	-0.079261
C141	C	1.558096	0.044263	0.254073
C142	C	0.934730	-0.598936	-0.369338
C143	C	1.268064	-0.265602	-0.036005
C144	C	1.601397	0.067731	0.297328
C145	C	0.934695	-0.552028	-0.369322
C146	C	1.268029	-0.218695	-0.035988
C147	C	1.601362	0.114638	0.297345
N148	N	0.977998	-0.528558	-0.326074
N149	N	1.311332	-0.195224	0.007259
N150	N	1.644665	0.138109	0.340593
C151	C	1.021320	-0.552005	-0.282831
C152	C	1.354653	-0.218671	0.050502
C153	C	1.687987	0.114662	0.383836
C154	C	0.934888	-0.978977	-0.369384
C155	C	1.268221	-0.645644	-0.036050
C156	C	1.601554	-0.312311	0.297283
C157	C	0.934906	-1.025895	-0.369389
C158	C	1.268240	-0.692562	-0.036055
C159	C	1.601573	-0.359229	0.297278
C160	C	1.021534	-1.025872	-0.282894
C161	C	1.354868	-0.692538	0.050439
C162	C	1.688201	-0.359205	0.383773
C163	C	1.021512	-0.978953	-0.282886
C164	C	1.354845	-0.645619	0.050447
C165	C	1.688178	-0.312286	0.383781
C166	C	0.978191	-0.955507	-0.326136
C167	C	1.311524	-0.622173	0.007198
C168	C	1.644857	-0.288840	0.340531
C169	C	1.021266	-0.453479	-0.282816
C170	C	1.354600	-0.120145	0.050518
C171	C	1.687933	0.213188	0.383851
C172	C	1.021236	-0.406559	-0.282809
C173	C	1.354570	-0.073226	0.050525
C174	C	1.687903	0.260108	0.383858
C175	C	0.934611	-0.406587	-0.369306
C176	C	1.267945	-0.073254	-0.035972
C177	C	1.601278	0.260080	0.297361
C178	C	0.934638	-0.453502	-0.369310
C179	C	1.267972	-0.120169	-0.035977
C180	C	1.601305	0.213164	0.297356
C181	C	0.977971	-0.476947	-0.326063
C182	C	1.311305	-0.143614	0.007270
C183	C	1.644638	0.189719	0.340604
O184	O	0.897855	-0.527736	-0.406062
O185	O	1.231188	-0.194403	-0.072729
O186	O	1.564522	0.138930	0.260605
O187	O	1.058150	-0.527727	-0.246057
O188	O	1.391484	-0.194394	0.087277
O189	O	1.724817	0.138940	0.420610
C190	C	1.021411	-0.739669	-0.282862
C191	C	1.354744	-0.406335	0.050471
C192	C	1.688078	-0.073002	0.383804
C193	C	0.978113	-0.763137	-0.326114
C194	C	1.311446	-0.429804	0.007219
C195	C	1.644780	-0.096470	0.340553
C196	C	0.934791	-0.739690	-0.369357
C197	C	1.268124	-0.406357	-0.036023
C198	C	1.601458	-0.073023	0.297310
C199	C	0.978132	-0.810055	-0.326119
C200	C	1.311465	-0.476722	0.007214
C201	C	1.644798	-0.143388	0.340548
C202	C	1.021454	-0.833502	-0.282876
C203	C	1.354787	-0.500169	0.050457
C204	C	1.688120	-0.166835	0.383790
C205	C	1.064757	-0.810031	-0.239628
C206	C	1.398090	-0.476698	0.093705
C207	C	1.731423	-0.143365	0.427038
C208	C	1.064733	-0.763116	-0.239620
C209	C	1.398066	-0.429782	0.093714
C210	C	1.731399	-0.096449	0.427047
C211	C	0.891488	-0.763161	-0.412604
C212	C	1.224821	-0.429828	-0.079271
C213	C	1.558155	-0.096494	0.254062
C214	C	0.891515	-0.810076	-0.412609
C215	C	1.224848	-0.476743	-0.079276
C216	C	1.558181	-0.143410	0.254058
C217	C	0.934837	-0.833523	-0.369366
C218	C	1.268170	-0.500190	-0.036033
C219	C	1.601503	-0.166857	0.297300
C220	C	1.154570	-0.216470	-0.326094
C221	C	1.487903	0.116864	0.007240
C222	C	1.821236	0.450197	0.340573
C223	C	1.229802	-0.216476	-0.326101
C224	C	1.563135	0.116858	0.007232
C225	C	1.896468	0.450191	0.340566
C226	C	0.978065	-0.216427	-0.502620
C227	C	1.311398	0.116907	-0.169286
C228	C	1.644732	0.450240	0.164047
C229	C	0.978081	-0.216415	-0.577852
C230	C	1.311415	0.116919	-0.244518
C231	C	1.644748	0.450252	0.088815
C232	C	0.978168	-0.099277	-0.326125
C233	C	1.311502	0.234057	0.007208
C234	C	1.644835	0.567390	0.340541
C235	C	0.978228	-0.049342	-0.326146
C236	C	1.311562	0.283991	0.007187
C237	C	1.644895	0.617324	0.340521
C238	C	1.021407	-0.187683	-0.613213
C239	C	1.354741	0.145650	-0.279880
C240	C	1.688074	0.478983	0.053454
C241	C	1.021414	-0.187670	-0.683901
C242	C	1.354748	0.145663	-0.350568
C243	C	1.688081	0.478996	-0.017235
C244	C	0.978098	-0.216391	-0.719227
C245	C	1.311431	0.116942	-0.385894
C246	C	1.644765	0.450275	-0.052561
C247	C	0.934767	-0.245124	-0.683861
C248	C	1.268101	0.088209	-0.350528
C249	C	1.601434	0.421543	-0.017194
C250	C	0.934757	-0.245134	-0.613174
C251	C	1.268091	0.088199	-0.279841
C252	C	1.601424	0.421532	0.053493
C253	C	0.934806	-0.245082	-0.968934
C254	C	1.268139	0.088251	-0.635601
C255	C	1.601472	0.421585	-0.302268
C256	C	0.934820	-0.245070	-1.039627
C257	C	1.268154	0.088263	-0.706293
C258	C	1.601487	0.421596	-0.372960
C259	C	1.021462	-0.187618	-1.039662
C260	C	1.354796	0.145715	-0.706329
C261	C	1.688129	0.479049	-0.372995
C262	C	1.021452	-0.187628	-0.968975
C263	C	1.354786	0.145705	-0.635642
C264	C	1.688119	0.479038	-0.302308
C265	C	0.978119	-0.216359	-0.933615
C266	C	1.311453	0.116974	-0.600281
C267	C	1.644786	0.450307	-0.266948
C268	C	0.978112	-0.216372	-0.856966
C269	C	1.311445	0.116961	-0.523633
C270	C	1.644778	0.450294	-0.190300
C271	C	0.978109	-0.216381	-0.795874
C272	C	1.311442	0.116953	-0.462541
C273	C	1.644776	0.450286	-0.129208
C274	C	0.978028	-0.216451	-0.150221
C275	C	1.311362	0.116882	0.183113
C276	C	1.644695	0.450216	0.516446
C277	C	0.978143	-0.216336	-0.074989
C278	C	1.311477	0.116997	0.258344
C279	C	1.644810	0.450330	0.591677
H280	H	0.236292	-0.268536	-0.247422
H281	H	0.569625	0.064798	0.085911
H282	H	0.902959	0.398131	0.419245
Cl283	Cl	0.880286	-0.281254	-0.568719
Cl284	Cl	1.213619	0.052079	-0.235386
Cl285	Cl	1.546953	0.385413	0.097947
Cl286	Cl	0.380161	-0.281221	-0.228182
Cl287	Cl	0.713494	0.052112	0.105151
Cl288	Cl	1.046827	0.385446	0.438485
H289	H	0.899496	-0.268508	-0.712629
H290	H	1.232829	0.064826	-0.379296
H291	H	1.566163	0.398159	-0.045962
Cl292	Cl	0.736120	-0.151683	-0.423957
Cl293	Cl	1.069453	0.181651	-0.090624
Cl294	Cl	1.402786	0.514984	0.242710
Cl295	Cl	1.075741	-0.482945	-0.228446
Cl296	Cl	1.409075	-0.149612	0.104888
Cl297	Cl	1.742408	0.183722	0.438221
H298	H	0.899544	-0.268459	-1.068387
H299	H	1.232877	0.064874	-0.735054
H300	H	1.566211	0.398207	-0.401720
Cl301	Cl	0.576381	-0.281215	-0.228187
Cl302	Cl	0.909714	0.052118	0.105146
Cl303	Cl	1.243047	0.385451	0.438479
H304	H	0.899337	-0.387489	-0.404511
H305	H	1.232670	-0.054156	-0.071178
H306	H	1.566004	0.279178	0.262155
H307	H	1.099993	-0.744011	-0.204397
H308	H	1.433326	-0.410678	0.128936
H309	H	1.766659	-0.077345	0.462269
Cl310	Cl	0.836966	-0.592932	-0.466970
Cl311	Cl	1.170299	-0.259598	-0.133636
Cl312	Cl	1.503632	0.073735	0.199697
Cl313	Cl	0.576577	-0.151691	-0.423965
Cl314	Cl	0.909911	0.181642	-0.090631
Cl315	Cl	1.243244	0.514976	0.242702
Cl316	Cl	1.075911	-0.151522	-0.924569
Cl317	Cl	1.409244	0.181811	-0.591236
Cl318	Cl	1.742578	0.515145	-0.257902
Cl319	Cl	0.380361	-0.151706	-0.423979
Cl320	Cl	0.713694	0.181627	-0.090646
Cl321	Cl	1.047028	0.514961	0.242688
Cl322	Cl	1.075937	-0.151497	-1.084119
Cl323	Cl	1.409270	0.181837	-0.750786
Cl324	Cl	1.742603	0.515170	-0.417452
Cl325	Cl	0.880461	-1.055393	-0.423761
Cl326	Cl	1.213794	-0.722059	-0.090428
Cl327	Cl	1.547127	-0.388726	0.242905
Cl328	Cl	0.880188	-0.483006	-0.423675
Cl329	Cl	1.213522	-0.149673	-0.090342
Cl330	Cl	1.546855	0.183660	0.242991
H331	H	0.856211	-0.744074	-0.447819
H332	H	1.189544	-0.410741	-0.114486
H333	H	1.522877	-0.077407	0.218848
Cl334	Cl	0.220811	-0.151715	-0.423994
Cl335	Cl	0.554145	0.181618	-0.090661
Cl336	Cl	0.887478	0.514951	0.242672
Cl337	Cl	1.075950	-0.949455	-0.228507
Cl338	Cl	1.409283	-0.616121	0.104827
Cl339	Cl	1.742617	-0.282788	0.438160
Cl340	Cl	0.735932	-0.281208	-0.228177
Cl341	Cl	1.069265	0.052125	0.105156
Cl342	Cl	1.402599	0.385459	0.438489
H343	H	0.899531	-0.268483	-0.940153
H344	H	1.232864	0.064850	-0.606819
H345	H	1.566198	0.398184	-0.273486
H346	H	1.056497	-0.387453	-0.247583
H347	H	1.389831	-0.054119	0.085751
H348	H	1.723164	0.279214	0.419084
H349	H	1.099922	-0.603264	-0.204373
H350	H	1.433256	-0.269931	0.128960
H351	H	1.766589	0.063402	0.462293
Cl352	Cl	1.119155	-0.698753	-0.185233
Cl353	Cl	1.452488	-0.365419	0.148101
Cl354	Cl	1.785821	-0.032086	0.481434
H355	H	1.056683	-0.164297	-0.584456
H356	H	1.390016	0.169037	-0.251122
H357	H	1.723349	0.502370	0.082211
Cl358	Cl	1.075995	-1.055356	-0.228531
Cl359	Cl	1.409328	-0.722023	0.104802
Cl360	Cl	1.742662	-0.388690	0.438135
H361	H	0.899609	-0.959891	-0.404604
H362	H	1.232942	-0.626557	-0.071270
H363	H	1.566275	-0.293224	0.262063
Cl364	Cl	1.119217	-0.839517	-0.185265
Cl365	Cl	1.452550	-0.506183	0.148068
Cl366	Cl	1.785883	-0.172850	0.481401
Cl367	Cl	0.837013	-0.698817	-0.466992
Cl368	Cl	1.170346	-0.365483	-0.133659
Cl369	Cl	1.503679	-0.032150	0.199674
Cl370	Cl	0.837073	-0.839574	-0.466993
Cl371	Cl	1.170406	-0.506240	-0.133659
Cl372	Cl	1.503739	-0.172907	0.199674
H373	H	1.056696	-0.164275	-0.712689
H374	H	1.390030	0.169058	-0.379356
H375	H	1.723363	0.502391	-0.046023
