data_functionalizedCrystal
_audit_creation_method	'MofGen! by Chris Wilmer'
_symmetry_space_group_name_H-M	'P1'
_symmetry_Int_Tables_number	1
_symmetry_cell_setting	triclinic
loop_
_symmetry_equiv_pos_as_xyz
  x,y,z
_cell_length_a	15.944551
_cell_length_b	15.944551
_cell_length_c	15.021413
_cell_angle_alpha	90.002826
_cell_angle_beta	90.003065
_cell_angle_gamma	96.501262
loop_
_atom_site_label
_atom_site_type_symbol
_atom_site_fract_x
_atom_site_fract_y
_atom_site_fract_z
O1	O	0.108321	-1.114529	-0.073941
O2	O	0.358321	-0.864529	0.176059
O3	O	0.608321	-0.614529	0.426059
O4	O	0.858321	-0.364529	0.676059
O5	O	0.121677	-0.869979	-0.073964
O6	O	0.371677	-0.619979	0.176036
O7	O	0.621677	-0.369979	0.426036
O8	O	0.871677	-0.119979	0.676036
O9	O	-0.007276	-0.998932	-0.073944
O10	O	0.242724	-0.748932	0.176056
O11	O	0.492724	-0.498932	0.426056
O12	O	0.742724	-0.248932	0.676056
O13	O	0.237274	-0.985576	-0.073961
O14	O	0.487274	-0.735576	0.176039
O15	O	0.737274	-0.485576	0.426039
O16	O	0.987274	-0.235576	0.676039
O17	O	-0.007257	-0.998912	0.074121
O18	O	0.242743	-0.748912	0.324121
O19	O	0.492743	-0.498912	0.574121
O20	O	0.742743	-0.248912	0.824121
O21	O	0.121695	-0.869959	0.074101
O22	O	0.371695	-0.619959	0.324101
O23	O	0.621695	-0.369959	0.574101
O24	O	0.871695	-0.119959	0.824101
O25	O	0.108339	-1.114508	0.074123
O26	O	0.358339	-0.864508	0.324123
O27	O	0.608339	-0.614508	0.574123
O28	O	0.858339	-0.364508	0.824123
Zn29	Zn	0.115020	-0.992230	0.097620
Zn30	Zn	0.365020	-0.742230	0.347620
Zn31	Zn	0.615020	-0.492230	0.597620
Zn32	Zn	0.865020	-0.242230	0.847620
Zn33	Zn	0.114996	-0.992257	-0.097461
Zn34	Zn	0.364996	-0.742257	0.152539
Zn35	Zn	0.614996	-0.492257	0.402539
Zn36	Zn	0.864996	-0.242257	0.652539
O37	O	0.237292	-0.985555	0.074103
O38	O	0.487292	-0.735555	0.324103
O39	O	0.737292	-0.485555	0.574103
O40	O	0.987292	-0.235555	0.824103
C41	C	0.121132	-0.838675	0.000066
C42	C	0.371132	-0.588675	0.250066
C43	C	0.621132	-0.338675	0.500066
C44	C	0.871132	-0.088675	0.750066
C45	C	0.119470	-0.745429	0.000057
C46	C	0.369470	-0.495429	0.250057
C47	C	0.619470	-0.245429	0.500057
C48	C	0.869470	0.004571	0.750057
C49	C	-0.038561	-0.998367	0.000089
C50	C	0.211439	-0.748367	0.250089
C51	C	0.461439	-0.498367	0.500089
C52	C	0.711439	-0.248367	0.750089
C53	C	-0.131807	-0.996705	0.000089
C54	C	0.118193	-0.746705	0.250089
C55	C	0.368193	-0.496705	0.500089
C56	C	0.618193	-0.246705	0.750089
C57	C	0.108885	-1.145813	0.000092
C58	C	0.358885	-0.895813	0.250092
C59	C	0.608885	-0.645813	0.500092
C60	C	0.858885	-0.395813	0.750092
C61	C	0.110547	-1.239059	0.000094
C62	C	0.360547	-0.989059	0.250094
C63	C	0.610547	-0.739059	0.500094
C64	C	0.860547	-0.489059	0.750094
C65	C	-0.346663	-0.912801	0.000069
C66	C	-0.096663	-0.662801	0.250069
C67	C	0.153337	-0.412801	0.500069
C68	C	0.403337	-0.162801	0.750069
C69	C	-0.407672	-0.951753	0.073077
C70	C	-0.157672	-0.701753	0.323077
C71	C	0.092328	-0.451753	0.573077
C72	C	0.342328	-0.201753	0.823077
C73	C	-0.302533	-0.993698	0.000082
C74	C	-0.052533	-0.743698	0.250082
C75	C	0.197467	-0.493698	0.500082
C76	C	0.447467	-0.243698	0.750082
C77	C	-0.407673	-0.951792	-0.072903
C78	C	-0.157673	-0.701792	0.177097
C79	C	0.092327	-0.451792	0.427097
C80	C	0.342327	-0.201792	0.677097
C81	C	-0.467445	-0.990787	0.000071
C82	C	-0.217445	-0.740787	0.250071
C83	C	0.032555	-0.490787	0.500071
C84	C	0.282555	-0.240787	0.750071
C85	C	-0.362313	-1.032672	0.073150
C86	C	-0.112313	-0.782672	0.323150
C87	C	0.137687	-0.532672	0.573150
C88	C	0.387687	-0.282672	0.823150
C89	C	-0.362308	-1.032700	-0.072895
C90	C	-0.112308	-0.782700	0.177105
C91	C	0.137692	-0.532700	0.427105
C92	C	0.387692	-0.282700	0.677105
C93	C	-0.423298	-1.071711	0.000131
C94	C	-0.173298	-0.821711	0.250131
C95	C	0.076702	-0.571711	0.500131
C96	C	0.326702	-0.321711	0.750131
C97	C	-0.207530	-0.995372	0.000089
C98	C	0.042470	-0.745372	0.250089
C99	C	0.292470	-0.495372	0.500089
C100	C	0.542470	-0.245372	0.750089
C101	C	-0.562446	-0.989119	0.000070
C102	C	-0.312446	-0.739119	0.250070
C103	C	-0.062446	-0.489119	0.500070
C104	C	0.187554	-0.239119	0.750070
C105	C	0.268577	-0.986120	0.000069
C106	C	0.518577	-0.736120	0.250069
C107	C	0.768577	-0.486120	0.500069
C108	C	1.018577	-0.236120	0.750069
C109	C	0.361823	-0.987782	0.000063
C110	C	0.611823	-0.737782	0.250063
C111	C	0.861823	-0.487782	0.500063
C112	C	1.111823	-0.237782	0.750063
N113	N	0.115036	-0.992218	0.230758
N114	N	0.365036	-0.742218	0.480758
N115	N	0.615036	-0.492218	0.730758
N116	N	0.865036	-0.242218	0.980758
C117	C	0.035565	-0.530572	0.000081
C118	C	0.285565	-0.280572	0.250081
C119	C	0.535565	-0.030572	0.500081
C120	C	0.785565	0.219428	0.750081
C121	C	0.074518	-0.469562	-0.072926
C122	C	0.324518	-0.219562	0.177074
C123	C	0.574518	0.030438	0.427074
C124	C	0.824518	0.280438	0.677074
C125	C	0.116462	-0.574703	0.000068
C126	C	0.366462	-0.324703	0.250068
C127	C	0.616462	-0.074703	0.500068
C128	C	0.866462	0.175297	0.750068
C129	C	0.074556	-0.469564	0.073054
C130	C	0.324556	-0.219564	0.323054
C131	C	0.574556	0.030436	0.573054
C132	C	0.824556	0.280436	0.823054
C133	C	0.113551	-0.409790	0.000083
C134	C	0.363551	-0.159790	0.250083
C135	C	0.613551	0.090210	0.500083
C136	C	0.863551	0.340210	0.750083
C137	C	0.155438	-0.514921	-0.072998
C138	C	0.405438	-0.264921	0.177002
C139	C	0.655438	-0.014921	0.427002
C140	C	0.905438	0.235079	0.677002
C141	C	0.155464	-0.514930	0.073047
C142	C	0.405464	-0.264930	0.323047
C143	C	0.655464	-0.014930	0.573047
C144	C	0.905464	0.235070	0.823047
C145	C	0.194476	-0.453937	0.000023
C146	C	0.444476	-0.203937	0.250023
C147	C	0.694476	0.046063	0.500023
C148	C	0.944476	0.296063	0.750023
C149	C	0.118137	-0.669705	0.000059
C150	C	0.368137	-0.419705	0.250059
C151	C	0.618137	-0.169705	0.500059
C152	C	0.868137	0.080295	0.750059
C153	C	0.111883	-0.314789	0.000085
C154	C	0.361883	-0.064789	0.250085
C155	C	0.611883	0.185211	0.500085
C156	C	0.861883	0.435211	0.750085
N157	N	0.114973	-0.992276	-0.230598
N158	N	0.364973	-0.742276	0.019402
N159	N	0.614973	-0.492276	0.269402
N160	N	0.864973	-0.242276	0.519402
C161	C	0.174636	-0.932581	0.470432
C162	C	0.424636	-0.682581	0.720432
C163	C	0.674636	-0.432581	0.970432
C164	C	0.924636	-0.182581	1.220432
C165	C	0.190943	-1.008481	0.529772
C166	C	0.440943	-0.758481	0.779772
C167	C	0.690943	-0.508481	1.029772
C168	C	0.940943	-0.258481	1.279772
C169	C	0.115015	-0.992239	0.412365
C170	C	0.365015	-0.742239	0.662365
C171	C	0.615015	-0.492239	0.912365
C172	C	0.865015	-0.242239	1.162365
C173	C	0.098727	-0.916360	0.529766
C174	C	0.348727	-0.666360	0.779766
C175	C	0.598727	-0.416360	1.029766
C176	C	0.848727	-0.166360	1.279766
C177	C	0.114997	-0.992253	0.587789
C178	C	0.364997	-0.742253	0.837789
C179	C	0.614997	-0.492253	1.087789
C180	C	0.864997	-0.242253	1.337789
C181	C	0.131360	-1.068178	0.470398
C182	C	0.381360	-0.818178	0.720398
C183	C	0.631360	-0.568178	0.970398
C184	C	0.881360	-0.318178	1.220398
C185	C	0.039111	-0.976006	0.470387
C186	C	0.289111	-0.726006	0.720387
C187	C	0.539111	-0.476006	0.970387
C188	C	0.789111	-0.226006	1.220387
C189	C	0.055386	-1.051962	0.529701
C190	C	0.305386	-0.801962	0.779701
C191	C	0.555386	-0.551962	1.029701
C192	C	0.805386	-0.301962	1.279701
C193	C	0.115028	-0.992230	0.311307
C194	C	0.365028	-0.742230	0.561307
C195	C	0.615028	-0.492230	0.811307
C196	C	0.865028	-0.242230	1.061307
C197	C	0.114984	-0.992271	0.688844
C198	C	0.364984	-0.742271	0.938844
C199	C	0.614984	-0.492271	1.188844
C200	C	0.864984	-0.242271	1.438844
H201	H	-0.313356	-0.845652	0.000136
H202	H	-0.063356	-0.595652	0.250136
H203	H	0.186644	-0.345652	0.500136
H204	H	0.436644	-0.095652	0.750136
F205	F	0.029826	-0.443300	0.153727
F206	F	0.279826	-0.193300	0.403727
F207	F	0.529826	0.056700	0.653727
F208	F	0.779826	0.306700	0.903727
F209	F	0.274833	-1.026445	0.563867
F210	F	0.524833	-0.776445	0.813867
F211	F	0.774833	-0.526445	1.063867
F212	F	1.024833	-0.276445	1.313867
F213	F	0.240589	-0.866705	0.436413
F214	F	0.490589	-0.616705	0.686413
F215	F	0.740589	-0.366705	0.936413
F216	F	0.990589	-0.116705	1.186413
H217	H	-0.031573	-0.563905	-0.000005
H218	H	0.218427	-0.313905	0.249995
H219	H	0.468427	-0.063905	0.499995
H220	H	0.718427	0.186095	0.749995
H221	H	0.145206	-1.132368	0.444430
H222	H	0.395206	-0.882368	0.694430
H223	H	0.645206	-0.632368	0.944430
H224	H	0.895206	-0.382368	1.194430
H225	H	0.004956	-1.102474	0.555561
H226	H	0.254956	-0.852474	0.805561
H227	H	0.504956	-0.602474	1.055561
H228	H	0.754956	-0.352474	1.305561
F229	F	0.029788	-0.443289	-0.153596
F230	F	0.279788	-0.193289	0.096404
F231	F	0.529788	0.056711	0.346404
F232	F	0.779788	0.306711	0.596404
H233	H	-0.342314	-1.066851	0.134941
H234	H	-0.092314	-0.816851	0.384941
H235	H	0.157686	-0.566851	0.634941
H236	H	0.407686	-0.316851	0.884941
F237	F	0.200160	-0.541234	0.153719
F238	F	0.450160	-0.291234	0.403719
F239	F	0.700160	-0.041234	0.653719
F240	F	0.950160	0.208766	0.903719
F241	F	-0.433943	-0.907062	-0.153573
F242	F	-0.183943	-0.657062	0.096427
F243	F	0.066057	-0.407062	0.346427
F244	F	0.316057	-0.157062	0.596427
H245	H	-0.025051	-0.962240	0.444283
H246	H	0.224949	-0.712240	0.694283
H247	H	0.474949	-0.462240	0.944283
H248	H	0.724949	-0.212240	1.194283
H249	H	-0.427772	-0.917528	0.134794
H250	H	-0.177772	-0.667528	0.384794
H251	H	0.072228	-0.417528	0.634794
H252	H	0.322228	-0.167528	0.884794
F253	F	-0.466641	-1.159555	0.000190
F254	F	-0.216641	-0.909555	0.250190
F255	F	0.033359	-0.659555	0.500190
F256	F	0.283359	-0.409555	0.750190
H257	H	0.084959	-0.852184	0.555847
H258	H	0.334959	-0.602184	0.805847
H259	H	0.584959	-0.352184	1.055847
H260	H	0.834959	-0.102184	1.305847
H261	H	-0.342185	-1.066896	-0.134615
H262	H	-0.092185	-0.816896	0.115385
H263	H	0.157815	-0.566896	0.365385
H264	H	0.407815	-0.316896	0.615385
F265	F	0.200117	-0.541054	-0.153761
F266	F	0.450117	-0.291054	0.096239
F267	F	0.700117	-0.041054	0.346239
F268	F	0.950117	0.208946	0.596239
F269	F	0.282319	-0.410594	-0.000034
F270	F	0.532319	-0.160594	0.249966
F271	F	0.782319	0.089406	0.499966
F272	F	1.032319	0.339406	0.749966
