data_functionalizedCrystal
_audit_creation_method	'MofGen! by Chris Wilmer'
_symmetry_space_group_name_H-M	'P1'
_symmetry_Int_Tables_number	1
_symmetry_cell_setting	triclinic
loop_
_symmetry_equiv_pos_as_xyz
  x,y,z
_cell_length_a	10.654545
_cell_length_b	11.792254
_cell_length_c	10.868271
_cell_angle_alpha	90.001586
_cell_angle_beta	90.003913
_cell_angle_gamma	84.340838
loop_
_atom_site_label
_atom_site_type_symbol
_atom_site_fract_x
_atom_site_fract_y
_atom_site_fract_z
O1	O	1.667402	0.159389	0.102311
O2	O	2.167402	0.659389	0.602311
O3	O	1.301881	0.174583	0.102316
O4	O	1.801881	0.674583	0.602316
O5	O	1.493503	0.001837	0.102304
O6	O	1.993503	0.501837	0.602304
O7	O	1.475779	0.332135	0.102322
O8	O	1.975779	0.832135	0.602322
O9	O	1.493486	0.001842	-0.102340
O10	O	1.993486	0.501842	0.397660
O11	O	1.301863	0.174588	-0.102329
O12	O	1.801863	0.674588	0.397671
O13	O	1.667385	0.159395	-0.102334
O14	O	2.167385	0.659395	0.397666
Zn15	Zn	1.484621	0.166992	-0.134823
Zn16	Zn	1.984621	0.666992	0.365177
Zn17	Zn	1.484644	0.166985	0.134805
Zn18	Zn	1.984644	0.666985	0.634805
O19	O	1.475762	0.332141	-0.102323
O20	O	1.975762	0.832141	0.397677
C21	C	1.255077	0.173471	-0.000006
C22	C	1.755077	0.673471	0.499994
C23	C	1.115643	0.170137	-0.000004
C24	C	1.615643	0.670137	0.499996
C25	C	1.050133	0.168570	-0.111557
C26	C	1.550133	0.668570	0.388443
C27	C	0.919122	0.165418	-0.111557
C28	C	1.419122	0.665418	0.388443
C29	C	0.919142	0.165404	0.111558
C30	C	1.419142	0.665404	0.611558
C31	C	1.050151	0.168548	0.111557
C32	C	1.550151	0.668548	0.611557
C33	C	1.492378	-0.040454	-0.000018
C34	C	1.992378	0.459546	0.499982
C35	C	1.489036	-0.166474	-0.000016
C36	C	1.989036	0.333526	0.499984
C37	C	1.486321	-0.268817	-0.000012
C38	C	1.986321	0.231183	0.499988
C39	C	1.482926	-0.397212	-0.000001
C40	C	1.982926	0.102788	0.499999
C41	C	1.714188	0.160506	-0.000010
C42	C	2.214188	0.660506	0.499990
C43	C	1.853623	0.163841	-0.000003
C44	C	2.353623	0.663841	0.499997
C45	C	1.476887	0.374431	0.000002
C46	C	1.976887	0.874431	0.500002
C47	C	1.480229	0.500452	0.000009
C48	C	1.980229	1.000452	0.500009
N49	N	1.484615	0.166997	-0.318837
N50	N	1.984615	0.666997	0.181163
C51	C	1.484624	0.166997	-0.430175
C52	C	1.984624	0.666997	0.069825
C53	C	1.484641	0.166987	-0.569852
C54	C	1.984641	0.666987	-0.069852
N55	N	1.484660	0.166972	0.318819
N56	N	1.984660	0.666972	0.818819
H57	H	0.865790	0.164143	-0.202394
H58	H	1.365790	0.664143	0.297606
H59	H	0.865803	0.164112	0.202387
H60	H	1.365803	0.664112	0.702387
H61	H	1.103452	0.169863	-0.202397
H62	H	1.603452	0.669863	0.297603
C63	C	1.122217	0.170265	0.234280
C64	C	1.622217	0.670265	0.734280
N65	N	1.176498	0.171553	0.326711
N66	N	1.676498	0.671553	0.826711
