data_functionalizedCrystal
_audit_creation_method	'MofGen! by Chris Wilmer'
_symmetry_space_group_name_H-M	'P1'
_symmetry_Int_Tables_number	1
_symmetry_cell_setting	triclinic
loop_
_symmetry_equiv_pos_as_xyz
  x,y,z
_cell_length_a	6.817900
_cell_length_b	16.305656
_cell_length_c	12.200863
_cell_angle_alpha	94.296568
_cell_angle_beta	107.143441
_cell_angle_gamma	103.457069
loop_
_atom_site_label
_atom_site_type_symbol
_atom_site_fract_x
_atom_site_fract_y
_atom_site_fract_z
V1	V	-4.044950	-0.263114	-0.159646
O2	O	-4.013059	-0.258017	0.006711
O3	O	-4.014671	-0.261399	-0.315628
O4	O	-3.996119	-0.377828	-0.157612
O5	O	-4.031739	-0.140782	-0.152399
V6	V	-4.526285	-0.248472	-0.139698
O7	O	-4.311006	-0.295233	-0.203404
O8	O	-4.710426	-0.216353	-0.095941
O9	O	-4.333357	-0.250186	0.016283
O10	O	-4.675573	-0.253569	-0.306056
O11	O	-4.656892	-0.370804	-0.146946
O12	O	-4.351909	-0.133757	-0.141732
C13	C	-3.864094	-0.257271	-0.353640
C14	C	-3.920622	-0.256633	-0.481159
C15	C	-4.024079	-0.255473	-0.714632
C16	C	-3.966500	-0.256119	-0.584711
C17	C	-3.840428	-0.405786	-0.152074
C18	C	-3.881908	-0.499566	-0.151443
C19	C	-3.957897	-0.671266	-0.150255
C20	C	-3.752835	-0.701792	-0.143076
C21	C	-3.795680	-0.799282	-0.141963
C22	C	-4.032712	-0.840315	-0.149087
C23	C	-4.072527	-0.794825	-0.042917
C24	C	-4.027857	-0.697207	-0.043452
C25	C	-4.140484	-0.722450	-0.262807
C26	C	-4.180260	-0.820099	-0.263449
C27	C	-4.075004	-0.935854	-0.148424
C28	C	-3.915608	-0.575726	-0.150911
C29	C	-4.147277	-0.254313	0.054289
C30	C	-4.069988	-0.254956	0.181807
C31	C	-4.170942	-0.105795	-0.147275
C32	C	-4.108701	-0.012014	-0.147900
H33	H	-3.759066	-0.830274	-0.217833
C34	C	-3.387648	-0.681495	-0.028056
C35	C	-3.569330	-0.653745	-0.033455
H36	H	-3.274363	-0.651827	0.039617
H37	H	-3.417707	-0.741029	-0.025214
H38	H	-3.347642	-0.670435	-0.094903
H39	H	-3.609346	-0.664811	0.033388
H40	H	-3.539269	-0.594198	-0.036287
H41	H	-4.293494	-0.703294	-0.269137
C42	C	-4.444153	-0.817613	-0.147018
C43	C	-4.303195	-0.830687	-0.044481
H44	H	-4.586557	-0.839759	-0.147987
H45	H	-4.418009	-0.758230	-0.150676
H46	H	-4.423510	-0.845997	-0.211932
H47	H	-4.323827	-0.802297	0.020433
H48	H	-4.329349	-0.890081	-0.040813
H49	H	-3.694604	-0.685365	-0.219283
H50	H	-3.680344	-0.811477	-0.059872
H51	H	-3.899163	-0.663132	0.041272
C52	C	-3.796069	-0.735370	0.138614
C53	C	-3.929619	-0.812633	0.071327
H54	H	-3.707840	-0.746363	0.209143
H55	H	-3.709658	-0.707104	0.097010
H56	H	-3.880146	-0.700249	0.155338
H57	H	-3.845543	-0.847752	0.054595
H58	H	-4.016040	-0.840912	0.112940
C59	C	-3.887251	-0.639758	-0.340349
C60	C	-4.085814	-0.699946	-0.372485
H61	H	-3.853481	-0.625869	-0.408055
H62	H	-3.892251	-0.589704	-0.297322
H63	H	-3.781352	-0.662889	-0.293888
H64	H	-4.191717	-0.676811	-0.418938
H65	H	-4.080830	-0.750009	-0.415530
C66	C	-4.329509	-0.919065	-0.441462
C67	C	-4.140349	-0.861451	-0.369593
H68	H	-4.304887	-0.944592	-0.506998
H69	H	-4.376267	-0.962096	-0.399490
H70	H	-4.435650	-0.889572	-0.466652
H71	H	-4.034212	-0.890944	-0.344395
H72	H	-4.093562	-0.818413	-0.411572
H73	H	-4.177140	-0.676847	-0.044021
H74	H	-4.355695	-0.849052	-0.275307
