data_functionalizedCrystal
_audit_creation_method	'MofGen! by Chris Wilmer'
_symmetry_space_group_name_H-M	'P1'
_symmetry_Int_Tables_number	1
_symmetry_cell_setting	triclinic
loop_
_symmetry_equiv_pos_as_xyz
  x,y,z
_cell_length_a	14.044220
_cell_length_b	15.500227
_cell_length_c	17.038272
_cell_angle_alpha	86.966746
_cell_angle_beta	92.150217
_cell_angle_gamma	93.097991
loop_
_atom_site_label
_atom_site_type_symbol
_atom_site_fract_x
_atom_site_fract_y
_atom_site_fract_z
O1	O	1.277127	0.071853	0.186224
O2	O	1.000608	0.071875	0.179383
O3	O	1.137224	0.071857	0.068874
O4	O	1.140511	0.071870	0.296734
O5	O	1.128931	-0.072031	0.075551
O6	O	0.992315	-0.072013	0.186060
O7	O	1.268835	-0.072035	0.192902
Cu8	Cu	1.129818	-0.085162	0.190091
Cu9	Cu	1.139625	0.085002	0.182194
O10	O	1.132219	-0.072017	0.303411
C11	C	0.960906	-0.000067	0.179727
C12	C	0.854960	-0.000058	0.170795
N13	N	1.122927	-0.204846	0.195645
C14	C	0.660981	-0.000076	0.154468
C15	C	0.608456	-0.000076	0.217813
C16	C	0.500519	-0.000086	0.208728
C17	C	0.768928	-0.000066	0.163552
C18	C	1.180839	-0.250130	0.148838
C19	C	1.175637	-0.340702	0.153047
C20	C	1.112527	-0.385989	0.204066
C21	C	1.054609	-0.340698	0.250874
C22	C	1.059807	-0.250128	0.246661
C23	C	1.093802	-0.659453	0.219229
C24	C	1.088610	-0.750030	0.223441
C25	C	1.209638	-0.750028	0.125612
C26	C	1.214834	-0.659456	0.121407
C27	C	1.156912	-0.614173	0.168212
C28	C	1.107211	-0.478568	0.208370
C29	C	1.162225	-0.521596	0.163903
C30	C	1.308537	-0.000092	0.192557
C31	C	1.414483	-0.000094	0.201489
C32	C	1.130088	-0.000087	0.042875
C33	C	1.121169	-0.000086	-0.044542
N34	N	1.146522	0.204686	0.176634
C35	C	1.203057	-0.000093	-0.088927
C36	C	1.194671	-0.000084	-0.171065
C37	C	1.104396	-0.000074	-0.208816
C38	C	1.022503	-0.000064	-0.164425
C39	C	1.030889	-0.000067	-0.082289
C40	C	1.074767	-0.000060	-0.456647
C41	C	1.066386	-0.000060	-0.538789
C42	C	1.238556	-0.000078	-0.545423
C43	C	1.246935	-0.000086	-0.463285
C44	C	1.165041	-0.000072	-0.418902
C45	C	1.095823	-0.000068	-0.292773
C46	C	1.173616	-0.000072	-0.334946
C47	C	1.139355	-0.000072	0.329410
C48	C	1.148274	-0.000067	0.416826
H49	H	0.644551	-0.000069	0.278867
H50	H	1.213605	-0.484721	0.122359
H51	H	1.055827	-0.515448	0.249913
C52	C	0.967073	-0.000042	-0.580313
N53	N	0.892274	-0.000029	-0.611589
C54	C	1.302367	-0.000104	-0.047409
N55	N	1.377170	-0.000109	-0.016141
C56	C	0.612221	-0.000079	0.071991
N57	N	0.575484	-0.000077	0.009870
H58	H	1.261353	-0.000092	-0.207200
C59	C	0.984681	-0.000039	-0.407836
N60	N	0.916823	-0.000021	-0.371068
H61	H	0.948999	-0.000050	-0.195168
C62	C	1.250265	-0.200324	0.092712
N63	N	1.302555	-0.162812	0.050434
H64	H	1.222793	-0.377572	0.114933
H65	H	1.266223	-0.622585	0.079863
H66	H	0.964207	-0.000061	-0.046151
H67	H	1.256794	-0.786905	0.087504
H68	H	1.037216	-0.786898	0.264990
C69	C	1.272915	-0.000087	-0.293417
N70	N	1.347708	-0.000105	-0.262131
H71	H	1.046641	-0.622591	0.257342
H72	H	1.320446	-0.000094	-0.432555
H73	H	1.003219	-0.377576	0.292412
H74	H	1.012647	-0.213258	0.284775
H75	H	1.305229	-0.000088	-0.581569
H76	H	1.022320	-0.000061	-0.323519
