data_functionalizedCrystal
_audit_creation_method	'MofGen! by Chris Wilmer'
_symmetry_space_group_name_H-M	'P1'
_symmetry_Int_Tables_number	1
_symmetry_cell_setting	triclinic
loop_
_symmetry_equiv_pos_as_xyz
  x,y,z
_cell_length_a	12.759400
_cell_length_b	11.169417
_cell_length_c	11.169409
_cell_angle_alpha	90.021649
_cell_angle_beta	89.966244
_cell_angle_gamma	89.987206
loop_
_atom_site_label
_atom_site_type_symbol
_atom_site_fract_x
_atom_site_fract_y
_atom_site_fract_z
Zn1	Zn	-0.418231	-1.834927	-0.678589
Zn2	Zn	0.081769	-1.334927	-0.178589
Zn3	Zn	-0.593957	-1.834802	-0.477901
Zn4	Zn	-0.093957	-1.334802	0.022099
Zn5	Zn	-0.418287	-1.634213	-0.477917
Zn6	Zn	0.081713	-1.134213	0.022083
Zn7	Zn	-0.593863	-1.634206	-0.678540
Zn8	Zn	-0.093863	-1.134206	-0.178540
O9	O	-0.506084	-1.734537	-0.578237
O10	O	-0.006084	-1.234537	-0.078237
O11	O	-0.441557	-2.002860	-0.651982
O12	O	0.058443	-1.502860	-0.151982
O13	O	-0.570716	-1.808144	-0.309954
O14	O	-0.070716	-1.308144	0.190046
O15	O	-0.271258	-1.660894	-0.504564
O16	O	0.228742	-1.160894	-0.004564
O17	O	-0.570662	-2.002768	-0.504537
O18	O	-0.070662	-1.502768	-0.004537
O19	O	-0.271217	-1.808357	-0.651997
O20	O	0.228783	-1.308357	-0.151997
O21	O	-0.441653	-1.660772	-0.309965
O22	O	0.058347	-1.160772	0.190035
O23	O	-0.441562	-1.466262	-0.504516
O24	O	0.058438	-0.966262	-0.004516
O25	O	-0.570503	-1.660881	-0.846496
O26	O	-0.070503	-1.160881	-0.346496
O27	O	-0.570557	-1.466257	-0.651913
O28	O	-0.070557	-0.966257	-0.151913
O29	O	-0.441466	-1.808350	-0.846533
O30	O	0.058534	-1.308350	-0.346533
O31	O	-0.740965	-1.808137	-0.504489
O32	O	-0.240965	-1.308137	-0.004489
O33	O	-0.740897	-1.660759	-0.651897
O34	O	-0.240897	-1.160759	-0.151897
C35	C	-0.506056	-1.422712	-0.578212
C36	C	-0.006056	-0.922712	-0.078212
C37	C	-0.506069	-1.289312	-0.578229
C38	C	-0.006069	-0.789312	-0.078229
C39	C	-0.779052	-1.734466	-0.578212
C40	C	-0.279052	-1.234466	-0.078212
C41	C	-0.895828	-1.734546	-0.578242
C42	C	-0.395828	-1.234546	-0.078242
C43	C	-1.060422	-1.811443	-0.501609
C44	C	-0.560422	-1.311443	-0.001609
C45	C	-0.950698	-1.811371	-0.501572
C46	C	-0.450698	-1.311371	-0.001572
C47	C	-0.950688	-1.657778	-0.654946
C48	C	-0.450688	-1.157778	-0.154946
C49	C	-1.060410	-1.657845	-0.654976
C50	C	-0.560410	-1.157845	-0.154976
C51	C	-0.232051	-1.734640	-0.578288
C52	C	0.267949	-1.234640	-0.078288
C53	C	-0.115274	-1.734684	-0.578310
C54	C	0.384726	-1.234684	-0.078310
C55	C	-0.505968	-1.734629	-0.891279
C56	C	-0.005968	-1.234629	-0.391279
C57	C	-0.505918	-1.734668	-1.024680
C58	C	-0.005918	-1.234668	-0.524680
C59	C	-0.506104	-1.047579	-0.578255
C60	C	-0.006104	-0.547579	-0.078255
C61	C	-0.506086	-1.180979	-0.578242
C62	C	-0.006086	-0.680979	-0.078242
C63	C	-0.506125	-1.734514	-0.266412
C64	C	-0.006125	-1.234514	0.233588
C65	C	-0.505879	-1.734707	-0.133013
C66	C	-0.005879	-1.234707	0.366987
H67	H	-1.105090	-1.874010	-0.439182
H68	H	-0.605090	-1.374010	0.060818
H69	H	-0.906041	-1.873874	-0.439114
H70	H	-0.406041	-1.373874	0.060886
F71	F	-1.118791	-1.576141	-0.736614
F72	F	-0.618791	-1.076141	-0.236614
H73	H	-0.906007	-1.595219	-0.717367
H74	H	-0.406007	-1.095219	-0.217367
