data_functionalizedCrystal
_audit_creation_method	'MofGen! by Chris Wilmer'
_symmetry_space_group_name_H-M	'P1'
_symmetry_Int_Tables_number	1
_symmetry_cell_setting	triclinic
loop_
_symmetry_equiv_pos_as_xyz
  x,y,z
_cell_length_a	19.077105
_cell_length_b	16.120444
_cell_length_c	19.076919
_cell_angle_alpha	95.047308
_cell_angle_beta	90.076224
_cell_angle_gamma	90.739589
loop_
_atom_site_label
_atom_site_type_symbol
_atom_site_fract_x
_atom_site_fract_y
_atom_site_fract_z
Zn1	Zn	1.040330	-0.403263	-0.456946
Zn2	Zn	1.540330	0.096737	0.043054
Zn3	Zn	1.039008	-0.537289	-0.344933
Zn4	Zn	1.539008	-0.037289	0.155067
Zn5	Zn	0.928045	-0.392097	-0.334282
Zn6	Zn	1.428045	0.107903	0.165718
Zn7	Zn	0.916852	-0.536786	-0.457665
Zn8	Zn	1.416852	-0.036786	0.042335
O9	O	0.981059	-0.467359	-0.398456
O10	O	1.481059	0.032641	0.101544
O11	O	1.138270	-0.425926	-0.446244
O12	O	1.638270	0.074074	0.053756
O13	O	1.028419	-0.513566	-0.245006
O14	O	1.528419	-0.013566	0.254994
O15	O	0.948178	-0.276935	-0.345795
O16	O	1.448178	0.223065	0.154205
O17	O	1.137298	-0.524394	-0.363948
O18	O	1.637298	-0.024394	0.136052
O19	O	1.030673	-0.285139	-0.435916
O20	O	1.530673	0.214861	0.064084
O21	O	0.946895	-0.406894	-0.237181
O22	O	1.446895	0.093106	0.262819
O23	O	0.828446	-0.406406	-0.346492
O24	O	1.328446	0.093594	0.153508
O25	O	0.929101	-0.523537	-0.556084
O26	O	1.429101	-0.023537	-0.056084
O27	O	0.820222	-0.512709	-0.437141
O28	O	1.320222	-0.012709	0.062859
O29	O	1.019820	-0.425438	-0.555556
O30	O	1.519820	0.074562	-0.055556
O31	O	1.017566	-0.653865	-0.364645
O32	O	1.517566	-0.153865	0.135355
O33	O	0.927819	-0.653496	-0.447469
O34	O	1.427819	-0.153496	0.052531
C35	C	0.798894	-0.458292	-0.390739
C36	C	1.298894	0.041708	0.109261
C37	C	0.720961	-0.454434	-0.387455
C38	C	1.220961	0.045566	0.112545
C39	C	0.680085	-0.508045	-0.433041
C40	C	1.180085	-0.008045	0.066959
C41	C	0.606859	-0.504409	-0.429958
C42	C	1.106859	-0.004409	0.070042
C43	C	0.574512	-0.447166	-0.381286
C44	C	1.074512	0.052834	0.118714
C45	C	0.615394	-0.393550	-0.335698
C46	C	1.115394	0.106450	0.164302
C47	C	0.688618	-0.397182	-0.338785
C48	C	1.188618	0.102818	0.161215
C49	C	0.355972	-0.430356	-0.367004
C50	C	0.855972	0.069644	0.132996
C51	C	0.282743	-0.426729	-0.363920
C52	C	0.782743	0.073271	0.136080
C53	C	0.274213	-0.537589	-0.458181
C54	C	0.774213	-0.037589	0.041819
C55	C	0.347439	-0.541219	-0.461261
C56	C	0.847439	-0.041219	0.038739
C57	C	0.388315	-0.487600	-0.415675
C58	C	0.888315	0.012400	0.084325
N59	N	0.499664	-0.443450	-0.378132
N60	N	0.999664	0.056550	0.121868
N61	N	0.463162	-0.491312	-0.418833
N62	N	0.963162	0.008688	0.081167
C63	C	0.971353	-0.683927	-0.407307
C64	C	1.471353	-0.183927	0.092693
C65	C	0.967263	-0.776580	-0.411119
C66	C	1.467263	-0.276580	0.088881
C67	C	1.002437	-0.987660	-0.378838
C68	C	1.502437	-0.487660	0.121162
C69	C	0.959810	-0.946213	-0.418087
C70	C	1.459810	-0.446213	0.081913
C71	C	0.963958	-0.851820	-0.414209
C72	C	1.463958	-0.351820	0.085791
C73	C	0.998290	-1.082061	-0.382716
C74	C	1.498290	-0.582061	0.117284
C75	C	1.163935	-0.476461	-0.406204
C76	C	1.663935	0.023539	0.093796
C77	C	1.241866	-0.480340	-0.409506
C78	C	1.741866	0.019660	0.090494
C79	C	0.973359	-0.475677	-0.582077
C80	C	1.473359	0.024323	-0.082077
C81	C	0.970078	-0.479222	-0.660326
C82	C	1.470078	0.020778	-0.160326
C83	C	0.990822	-0.249947	-0.389588
C84	C	1.490822	0.250053	0.110412
C85	C	0.994982	-0.157299	-0.385808
C86	C	1.494982	0.342701	0.114192
C87	C	1.015767	-0.429815	-0.696813
C88	C	1.515767	0.070185	-0.196813
C89	C	1.012676	-0.433142	-0.770336
C90	C	1.512676	0.066858	-0.270336
C91	C	0.963899	-0.485881	-0.807369
C92	C	1.463899	0.014119	-0.307369
C93	C	0.918205	-0.535290	-0.770876
C94	C	1.418205	-0.035290	-0.270876
C95	C	0.921294	-0.531958	-0.697355
C96	C	1.421294	-0.031958	-0.197355
C97	C	0.949594	-0.501319	-1.027283
C98	C	1.449594	-0.001319	-0.527283
C99	C	0.946510	-0.504649	-1.100809
C100	C	1.446510	-0.004649	-0.600809
C101	C	1.040980	-0.402499	-1.100263
C102	C	1.540980	0.097501	-0.600263
C103	C	1.044067	-0.399176	-1.026741
C104	C	1.544067	0.100824	-0.526741
C105	C	0.998371	-0.448581	-0.990255
C106	C	1.498371	0.051419	-0.490255
N107	N	0.960739	-0.489285	-0.882521
N108	N	1.460739	0.010715	-0.382521
N109	N	1.001528	-0.445172	-0.915104
N110	N	1.501528	0.054828	-0.415104
C111	C	0.988772	-0.459015	-0.215549
C112	C	1.488772	0.040985	0.284451
C113	C	0.992199	-0.455242	-0.137297
C114	C	1.492199	0.044758	0.362703
H115	H	0.706417	-0.554661	-0.472673
H116	H	1.206417	-0.054661	0.027327
H117	H	1.055489	-0.386871	-0.666666
H118	H	1.555489	0.113129	-0.166666
H119	H	0.573580	-0.548066	-0.467078
H120	H	1.073580	-0.048066	0.032922
N121	N	1.061941	-0.379836	-0.809690
N122	N	1.561941	0.120164	-0.309690
H123	H	1.093308	-0.345919	-0.775073
H124	H	1.593308	0.154081	-0.275073
H125	H	1.091585	-0.416749	-0.842963
H126	H	1.591585	0.083251	-0.342963
N127	N	0.900319	-0.554618	-0.987938
N128	N	1.400319	-0.054618	-0.487938
H129	H	0.909672	-0.544507	-0.935743
H130	H	1.409672	-0.044507	-0.435743
H131	H	0.850287	-0.539738	-0.998138
H132	H	1.350287	-0.039738	-0.498138
N133	N	0.865591	-0.592178	-0.810807
N134	N	1.365591	-0.092178	-0.310807
H135	H	0.816617	-0.576153	-0.795354
H136	H	1.316617	-0.076153	-0.295354
H137	H	0.870622	-0.586778	-0.862910
H138	H	1.370622	-0.086778	-0.362910
N139	N	0.907336	-0.993116	-0.466446
N140	N	1.407336	-0.493116	0.033554
H141	H	0.858359	-0.975091	-0.452737
H142	H	1.358359	-0.475091	0.047263
H143	H	0.916779	-0.980788	-0.516591
H144	H	1.416779	-0.480788	-0.016591
N145	N	1.054903	-0.940767	-0.330471
N146	N	1.554903	-0.440767	0.169529
H147	H	1.050463	-0.879006	-0.334524
H148	H	1.550463	-0.379006	0.165476
H149	H	1.045482	-0.953149	-0.280336
H150	H	1.545482	-0.453149	0.219664
H151	H	1.083789	-0.356232	-0.996594
H152	H	1.583789	0.143768	-0.496594
N153	N	1.090263	-0.349213	-1.139616
N154	N	1.590263	0.150787	-0.639616
H155	H	1.080907	-0.359323	-1.191811
H156	H	1.580907	0.140677	-0.691811
H157	H	1.082562	-0.288557	-1.123873
H158	H	1.582562	0.211443	-0.623873
N159	N	0.580503	-0.331824	-0.283191
N160	N	1.080503	0.168176	0.216809
H161	H	0.550645	-0.293040	-0.308987
H162	H	1.050645	0.206960	0.191013
H163	H	0.550016	-0.362733	-0.250643
H164	H	1.050016	0.137267	0.249357
H165	H	0.906788	-0.547597	-1.130960
H166	H	1.406788	-0.047597	-0.630960
N167	N	0.872009	-0.585238	-0.657996
N168	N	1.372009	-0.085238	-0.157996
H169	H	0.840640	-0.619154	-0.692612
H170	H	1.340640	-0.119154	-0.192612
H171	H	0.900092	-0.623852	-0.630272
H172	H	1.400092	-0.123852	-0.130272
H173	H	0.373771	-0.587834	-0.500893
H174	H	0.873771	-0.087834	-0.000893
H175	H	0.240925	-0.581241	-0.495295
H176	H	0.740925	-0.081241	0.004705
H177	H	0.389245	-0.386701	-0.329881
H178	H	0.889245	0.113299	0.170119
N179	N	0.247851	-0.364988	-0.311419
N180	N	0.747851	0.135012	0.188581
H181	H	0.284856	-0.331570	-0.283010
H182	H	0.784856	0.168430	0.216990
H183	H	0.217993	-0.326266	-0.337276
H184	H	0.717993	0.173734	0.162724
H185	H	0.721899	-0.353522	-0.301668
H186	H	1.221899	0.146478	0.198332
