data_functionalizedCrystal
_audit_creation_method	'MofGen! by Chris Wilmer'
_symmetry_space_group_name_H-M	'P1'
_symmetry_Int_Tables_number	1
_symmetry_cell_setting	triclinic
loop_
_symmetry_equiv_pos_as_xyz
  x,y,z
_cell_length_a	21.395364
_cell_length_b	12.759394
_cell_length_c	21.395356
_cell_angle_alpha	89.977947
_cell_angle_beta	89.976411
_cell_angle_gamma	90.028807
loop_
_atom_site_label
_atom_site_type_symbol
_atom_site_fract_x
_atom_site_fract_y
_atom_site_fract_z
Zn1	Zn	0.957927	-0.417874	-0.354286
Zn2	Zn	0.957862	-0.593567	-0.249519
Zn3	Zn	0.853143	-0.417948	-0.249523
Zn4	Zn	0.853142	-0.593557	-0.354259
O5	O	0.905518	-0.505737	-0.301897
O6	O	1.045596	-0.441153	-0.340398
O7	O	0.943944	-0.570305	-0.161841
O8	O	0.867071	-0.270917	-0.263433
O9	O	1.045548	-0.570234	-0.263426
O10	O	0.944055	-0.270863	-0.340402
O11	O	0.867008	-0.441279	-0.161844
O12	O	0.765465	-0.441270	-0.263407
O13	O	0.867068	-0.570218	-0.441941
O14	O	0.765464	-0.570290	-0.340356
O15	O	0.944053	-0.441144	-0.441960
O16	O	0.943942	-0.740587	-0.263400
O17	O	0.867005	-0.740580	-0.340352
C18	C	0.742731	-0.505788	-0.301879
C19	C	0.673089	-0.505835	-0.301886
C20	C	0.640424	-0.438732	-0.342028
C21	C	0.574988	-0.438705	-0.342030
C22	C	0.542221	-0.505798	-0.301898
C23	C	0.574895	-0.572905	-0.261749
C24	C	0.640329	-0.572923	-0.261743
C25	C	0.438513	-0.600414	-0.296866
C26	C	0.373080	-0.600397	-0.296876
C27	C	0.340400	-0.505740	-0.301912
C28	C	0.373161	-0.411097	-0.306951
C29	C	0.438595	-0.411115	-0.306945
C30	C	0.471269	-0.505785	-0.301899
C31	C	0.236782	-0.438602	-0.342058
C32	C	0.171345	-0.438572	-0.342056
C33	C	0.171253	-0.572781	-0.261778
C34	C	0.236689	-0.572802	-0.261776
C35	C	0.269449	-0.505713	-0.301920
C36	C	0.905483	-0.778704	-0.301886
C37	C	0.905526	-0.895481	-0.301903
C38	C	0.985629	-0.895266	-0.382111
C39	C	1.025701	-0.950019	-0.422220
C40	C	1.025738	-1.059741	-0.422233
C41	C	0.985698	-1.114711	-0.382135
C42	C	0.945627	-1.059958	-0.342026
C43	C	0.945595	-0.950234	-0.342016
C44	C	0.865521	-1.060173	-0.261822
C45	C	0.865486	-0.950451	-0.261805
C46	C	0.825481	-1.115144	-0.221724
C47	C	0.785412	-1.060390	-0.181611
C48	C	0.785377	-0.950662	-0.181599
C49	C	0.825415	-0.895698	-0.221696
C50	C	1.068942	-0.505686	-0.301915
C51	C	1.138583	-0.505664	-0.301922
C52	C	0.905568	-0.505671	-0.465320
C53	C	0.905589	-0.505644	-0.534961
C54	C	0.905570	-0.231703	-0.301921
C55	C	0.905593	-0.114926	-0.301931
C56	C	0.865539	-0.438452	-0.567666
C57	C	0.865537	-0.438433	-0.633101
C58	C	0.905596	-0.505594	-0.665830
C59	C	0.945648	-0.572798	-0.633117
C60	C	0.945645	-0.572823	-0.567683
C61	C	0.962049	-0.513829	-0.769516
C62	C	0.962053	-0.513797	-0.834949
C63	C	0.905606	-0.505523	-0.867651
C64	C	0.849152	-0.497259	-0.834911
C65	C	0.849148	-0.497284	-0.769476
C66	C	0.905603	-0.505575	-0.736782
C67	C	0.865550	-0.438306	-0.971308
C68	C	0.865547	-0.438294	-1.036744
C69	C	0.945664	-0.572654	-1.036759
C70	C	0.945662	-0.572672	-0.971323
C71	C	0.905606	-0.505492	-0.938602
C72	C	0.905505	-0.505726	-0.139109
C73	C	0.905606	-0.505457	-0.069468
H74	H	0.667093	-0.384103	-0.374715
H75	H	0.548386	-0.384057	-0.374717
H76	H	0.346555	-0.334018	-0.311051
H77	H	0.985727	-1.204053	-0.382155
N78	N	0.742156	-0.891619	-0.138334
H79	H	0.767616	-0.846082	-0.109312
H80	H	0.713103	-0.846179	-0.163808
H81	H	0.825393	-0.806357	-0.221687
H82	H	0.832919	-0.383753	-0.541028
H83	H	0.465267	-0.334053	-0.311046
H84	H	0.832924	-0.383712	-0.659735
H85	H	0.263457	-0.383967	-0.374741
H86	H	0.803182	-0.490558	-0.742822
H87	H	0.144750	-0.383923	-0.374743
N88	N	0.742232	-1.119674	-0.138364
H89	H	0.713199	-1.165222	-0.163808
H90	H	0.767768	-1.165124	-0.109368
N91	N	0.788260	-0.488391	-0.870170
H92	H	0.796824	-0.489654	-0.916590
H93	H	0.760262	-0.549183	-0.858698
N94	N	0.135922	-0.645140	-0.218486
H95	H	0.089512	-0.634945	-0.224578
H96	H	0.147332	-0.720200	-0.228159
N97	N	0.337750	-0.702471	-0.291437
H98	H	0.291340	-0.688099	-0.292208
H99	H	0.349189	-0.749532	-0.327617
N100	N	0.271926	-0.645178	-0.218482
H101	H	0.241241	-0.687678	-0.193057
H102	H	0.299070	-0.693863	-0.243933
N103	N	0.473759	-0.702514	-0.291430
H104	H	0.443078	-0.762465	-0.288245
H105	H	0.500923	-0.712360	-0.329593
H106	H	0.832934	-0.383606	-0.944665
N107	N	1.068880	-0.890732	-0.465472
H108	H	1.062778	-0.812915	-0.459380
H109	H	1.113638	-0.909840	-0.455762
H110	H	0.832929	-0.383582	-1.063372
H111	H	0.548212	-0.627532	-0.229072
N112	N	1.022938	-0.522712	-0.870261
H113	H	1.050994	-0.461966	-0.858887
H114	H	1.044185	-0.590745	-0.858860
N115	N	0.675566	-0.645298	-0.218445
H116	H	0.644882	-0.687796	-0.193018
H117	H	0.702707	-0.693985	-0.243897
N118	N	0.985597	-0.776924	-0.382087
H119	H	1.017043	-0.750409	-0.413572
H120	H	0.942584	-0.750633	-0.393547
N121	N	0.825523	-1.233485	-0.221731
H122	H	0.837064	-1.259920	-0.178758
H123	H	0.782537	-1.259900	-0.233240
H124	H	0.978282	-0.627336	-1.063405
H125	H	1.058361	-1.104321	-0.454900
N126	N	1.022933	-0.522746	-0.734243
H127	H	1.022075	-0.587497	-0.707088
H128	H	1.058665	-0.527922	-0.764946
H129	H	0.978276	-0.627384	-0.944695
N130	N	0.988850	-0.645246	-0.668412
H131	H	0.982776	-0.635035	-0.714828
H132	H	1.033601	-0.628893	-0.656992
H133	H	0.978261	-0.627538	-0.541055
