data_functionalizedCrystal
_audit_creation_method	'MofGen! by Chris Wilmer'
_symmetry_space_group_name_H-M	'P1'
_symmetry_Int_Tables_number	1
_symmetry_cell_setting	triclinic
loop_
_symmetry_equiv_pos_as_xyz
  x,y,z
_cell_length_a	6.394984
_cell_length_b	10.654550
_cell_length_c	9.730223
_cell_angle_alpha	90.003749
_cell_angle_beta	90.000120
_cell_angle_gamma	94.509872
loop_
_atom_site_label
_atom_site_type_symbol
_atom_site_fract_x
_atom_site_fract_y
_atom_site_fract_z
O1	O	0.293433	-1.670938	-0.114398
O2	O	0.321390	-1.305755	-0.114376
O3	O	0.003422	-1.493534	-0.114383
O4	O	0.611402	-1.483160	-0.114391
O5	O	0.003430	-1.493532	0.114197
O6	O	0.321398	-1.305753	0.114204
O7	O	0.293441	-1.670936	0.114182
Zn8	Zn	0.307421	-1.488344	0.150485
Zn9	Zn	0.307410	-1.488347	-0.150679
O10	O	0.611410	-1.483157	0.114189
C11	C	0.319342	-1.258935	-0.000083
C12	C	0.313200	-1.119426	-0.000075
C13	C	0.925577	-1.491470	-0.000089
C14	C	0.689249	-1.485218	-0.000091
C15	C	0.295490	-1.717757	-0.000114
C16	C	0.301631	-1.857265	-0.000132
N17	N	0.307427	-1.488352	0.356021
N18	N	0.307388	-1.488350	-0.356216
C19	C	0.500415	-1.041921	-0.000097
C20	C	0.494632	-0.910839	-0.000121
C21	C	0.114402	-0.934780	-0.000105
C22	C	0.120188	-1.065860	-0.000072
C23	C	0.719938	-1.028098	-0.000112
C24	C	0.714154	-0.897016	-0.000135
C25	C	0.166679	-1.571522	0.427944
C26	C	0.166653	-1.571519	0.571827
C27	C	0.448143	-1.405170	0.571852
C28	C	0.448157	-1.405168	0.427971
C29	C	0.004169	-1.667567	0.427931
C30	C	0.004143	-1.667563	0.571814
H31	H	-0.032261	-1.128961	-0.000034
F32	F	-0.205720	-1.637319	0.376882
F33	F	0.070699	-1.787446	0.369586
F34	F	-0.091004	-0.877759	-0.000101
H35	H	0.796864	-0.856159	-0.095804
H36	H	-0.147607	-1.635445	0.616433
F37	F	0.832168	-1.067628	0.124922
H38	H	0.562747	-1.337433	0.369413
F39	F	0.050915	-1.794204	0.622854
F40	F	0.597908	-1.316644	0.648437
F41	F	0.811294	-1.075677	-0.129102
H42	H	0.780500	-0.852046	0.098548
