data_functionalizedCrystal
_audit_creation_method	'MofGen! by Chris Wilmer'
_symmetry_space_group_name_H-M	'P1'
_symmetry_Int_Tables_number	1
_symmetry_cell_setting	triclinic
loop_
_symmetry_equiv_pos_as_xyz
  x,y,z
_cell_length_a	23.532356
_cell_length_b	19.188925
_cell_length_c	17.666332
_cell_angle_alpha	89.989697
_cell_angle_beta	89.998345
_cell_angle_gamma	97.014846
loop_
_atom_site_label
_atom_site_type_symbol
_atom_site_fract_x
_atom_site_fract_y
_atom_site_fract_z
O1	O	-0.071089	0.925909	-0.062951
O2	O	-0.080664	0.722565	-0.062947
O3	O	0.007044	0.830387	-0.062960
O4	O	-0.158797	0.818086	-0.062938
O5	O	0.007049	0.830369	0.062937
O6	O	-0.080659	0.722546	0.062949
O7	O	-0.071084	0.925890	0.062946
Cu8	Cu	-0.075871	0.824216	0.074443
Cu9	Cu	-0.075877	0.824238	-0.074445
O10	O	-0.158793	0.818067	0.062958
C11	C	-0.080352	0.696545	0.000001
C12	C	-0.079423	0.619044	0.000002
C13	C	-0.124665	0.057119	0.000006
C14	C	-0.125543	0.129939	0.000002
C15	C	-0.074079	0.175049	-0.000003
C16	C	-0.021732	0.147334	-0.000024
C17	C	-0.020856	0.074515	-0.000028
N18	N	-0.036819	0.295847	0.042848
N19	N	-0.037655	0.365022	0.042853
C20	C	-0.076717	0.394449	0.000006
N21	N	-0.114919	0.352088	-0.042837
N22	N	-0.114084	0.282907	-0.042838
C23	C	-0.075023	0.254010	0.000000
C24	C	-0.130012	0.501116	0.000017
C25	C	-0.130888	0.573938	0.000009
C26	C	-0.027075	0.591332	-0.000010
C27	C	-0.026201	0.518511	-0.000009
C28	C	-0.077671	0.473408	0.000008
C29	C	-0.180012	0.818384	0.000013
C30	C	-0.243233	0.819309	0.000021
C31	C	-0.635261	0.825128	-0.068642
C32	C	-0.694663	0.826007	-0.068646
O33	O	-0.725384	0.826494	-0.127010
N34	N	-0.724369	0.826433	-0.000020
C35	C	-0.694671	0.825986	0.068614
O36	O	-0.725394	0.826430	0.126985
C37	C	-0.635271	0.825112	0.068616
C38	C	-0.605567	0.824679	-0.000014
C39	C	-0.605558	0.824695	-0.137267
C40	C	-0.546161	0.823815	-0.137263
C41	C	-0.516467	0.823366	-0.068634
C42	C	-0.546170	0.823798	-0.000010
C43	C	-0.605573	0.824670	0.137249
C44	C	-0.546168	0.823796	0.137246
C45	C	-0.516465	0.823363	0.068616
C46	C	-0.457080	0.822469	0.068623
N47	N	-0.427373	0.822043	-0.000003
C48	C	-0.457066	0.822492	-0.068631
C49	C	-0.819417	0.827824	0.068602
C50	C	-0.878817	0.828693	0.068600
C51	C	-0.878804	0.828715	-0.068660
C52	C	-0.819403	0.827841	-0.068657
C53	C	-0.789710	0.827398	-0.000024
C54	C	-0.332328	0.820641	-0.068618
C55	C	-0.272927	0.819758	-0.068608
C56	C	-0.272944	0.819739	0.068652
C57	C	-0.332341	0.820619	0.068642
C58	C	-0.362032	0.821073	0.000001
O59	O	-0.426320	0.821984	0.126957
O60	O	-0.426336	0.822057	-0.126993
C61	C	0.028264	0.830070	-0.000016
C62	C	0.091485	0.829146	-0.000029
C63	C	-0.071396	0.951910	-0.000005
C64	C	-0.072325	1.029411	-0.000010
N65	N	-0.075867	0.824206	0.179162
N66	N	-0.075876	0.824255	-0.179164
C67	C	-0.037049	0.871965	0.218766
C68	C	-0.037046	0.871969	0.298014
C69	C	-0.075871	0.824221	0.337655
C70	C	-0.114693	0.776452	0.298041
C71	C	-0.114691	0.776445	0.218795
N72	N	-0.126288	0.814972	0.462080
N73	N	-0.126288	0.814983	0.537360
C74	C	-0.075879	0.824239	0.576419
N75	N	-0.025469	0.833497	0.537352
N76	N	-0.025469	0.833489	0.462065
C77	C	-0.075878	0.824223	0.423584
C78	C	-0.037055	0.872005	0.701952
C79	C	-0.037051	0.872004	0.781201
C80	C	-0.114703	0.776491	0.781226
C81	C	-0.114702	0.776488	0.701979
C82	C	-0.075878	0.824249	0.662346
H83	H	-0.166576	0.020399	0.000017
H84	H	-0.171922	0.464391	0.000030
H85	H	0.014828	0.628060	-0.000020
H86	H	-0.795245	0.827457	0.124495
H87	H	-0.146313	0.737611	0.813501
C88	C	-0.392564	0.881652	-0.148282
C89	C	-0.364965	0.821123	-0.144065
H90	H	-0.412711	0.881943	-0.194860
H91	H	-0.418756	0.882034	-0.107419
H92	H	-0.364941	0.922029	-0.145439
H93	H	-0.392589	0.780745	-0.146902
H94	H	-0.338771	0.820734	-0.184939
H95	H	-0.146302	0.737553	0.186548
H96	H	-0.248745	0.819403	-0.124497
C97	C	0.039706	0.966374	0.226708
C98	C	0.005631	0.924456	0.175204
H99	H	0.066058	0.998775	0.199811
H100	H	0.016048	0.991319	0.257604
H101	H	0.060130	0.937456	0.257630
H102	H	-0.014795	0.953374	0.144285
H103	H	0.029293	0.899509	0.144295
H104	H	-0.005441	0.910893	0.669682
H105	H	-0.902998	0.829033	0.124486
H106	H	-0.173510	0.596495	0.000016
C107	C	-0.191459	0.682088	0.709966
C108	C	-0.157379	0.723997	0.658441
H109	H	-0.217808	0.649682	0.683086
H110	H	-0.167804	0.657147	0.740880
H111	H	-0.211885	0.711012	0.740868
H112	H	-0.136949	0.695073	0.627542
H113	H	-0.181037	0.748939	0.627514
H114	H	-0.356530	0.820944	0.124526
C115	C	-0.534452	0.763483	0.254247
C116	C	-0.513530	0.823304	0.212692
H117	H	-0.514301	0.763177	0.300821
H118	H	-0.574075	0.764074	0.264060
H119	H	-0.529160	0.722625	0.226044
H120	H	-0.518826	0.864162	0.240893
H121	H	-0.473898	0.822719	0.202881
H122	H	-0.005434	0.910862	0.330266
C123	C	-0.228069	0.105439	0.000043
C124	C	-0.183078	0.160406	0.000028
H125	H	-0.263588	0.124248	0.000064
H126	H	-0.225578	0.077410	-0.043862
H127	H	-0.225557	0.077387	0.043945
H128	H	-0.185588	0.188454	-0.043878
H129	H	-0.185571	0.188446	0.043936
C130	C	-0.696623	0.826014	0.198214
C131	C	-0.638212	0.825150	0.212691
H132	H	-0.716772	0.826307	0.244792
H133	H	-0.701908	0.866877	0.170016
H134	H	-0.710805	0.785434	0.170024
H135	H	-0.624029	0.865732	0.240876
H136	H	-0.632924	0.784282	0.240900
H137	H	-0.521981	0.823467	-0.193149
C138	C	0.023017	0.266685	-0.000015
C139	C	0.034839	0.196917	-0.000027
H140	H	0.057944	0.297293	-0.000014
H141	H	0.001548	0.275052	-0.043910
H142	H	0.001550	0.275027	0.043897
H143	H	0.056303	0.188573	-0.043941
H144	H	0.056317	0.188547	0.043873
H145	H	0.021767	0.051957	-0.000041
C146	C	-0.149180	0.734063	0.419532
C147	C	-0.157372	0.723968	0.341611
H148	H	-0.175531	0.701661	0.446428
H149	H	-0.111190	0.726755	0.432520
H150	H	-0.155272	0.780618	0.432494
H151	H	-0.151275	0.677415	0.328647
H152	H	-0.195371	0.731270	0.328618
H153	H	-0.248757	0.819371	0.124527
H154	H	0.016419	0.495953	-0.000018
C155	C	-0.599564	0.824616	-0.272936
C156	C	-0.638191	0.825182	-0.212713
H157	H	-0.619710	0.824908	-0.319515
H158	H	-0.571953	0.864996	-0.270080
H159	H	-0.580841	0.783553	-0.270060
H160	H	-0.656912	0.866249	-0.215585
H161	H	-0.665813	0.784799	-0.215570
C162	C	0.039690	0.966428	0.773211
C163	C	0.005619	0.924509	0.824737
H164	H	0.066030	0.998845	0.800091
H165	H	0.060122	0.937517	0.742313
H166	H	0.016024	0.991360	0.742293
H167	H	0.029285	0.899572	0.855652
H168	H	-0.014814	0.953423	0.855648
C169	C	-0.890580	0.889014	-0.185668
C170	C	-0.911472	0.829198	-0.144085
H171	H	-0.910754	0.889302	-0.232226
H172	H	-0.895862	0.929871	-0.157473
H173	H	-0.850957	0.888427	-0.195518
H174	H	-0.951095	0.829788	-0.134231
H175	H	-0.906195	0.788330	-0.172286
H176	H	-0.795223	0.827487	-0.124542
