data_functionalizedCrystal
_audit_creation_method	'MofGen! by Chris Wilmer'
_symmetry_space_group_name_H-M	'P1'
_symmetry_Int_Tables_number	1
_symmetry_cell_setting	triclinic
loop_
_symmetry_equiv_pos_as_xyz
  x,y,z
_cell_length_a	19.121321
_cell_length_b	19.121063
_cell_length_c	19.121504
_cell_angle_alpha	94.868905
_cell_angle_beta	90.021704
_cell_angle_gamma	89.929715
loop_
_atom_site_label
_atom_site_type_symbol
_atom_site_fract_x
_atom_site_fract_y
_atom_site_fract_z
Zn1	Zn	1.075115	-0.340471	-0.365711
Zn2	Zn	1.575115	0.159529	0.134289
Zn3	Zn	1.065324	-0.452887	-0.253472
Zn4	Zn	1.565324	0.047113	0.246528
Zn5	Zn	0.953167	-0.330661	-0.253067
Zn6	Zn	1.453167	0.169339	0.246933
Zn7	Zn	0.953261	-0.453106	-0.375671
Zn8	Zn	1.453261	0.046894	0.124329
O9	O	1.011717	-0.394281	-0.311980
O10	O	1.511717	0.105719	0.188020
O11	O	1.171750	-0.359397	-0.346823
O12	O	1.671750	0.140603	0.153177
O13	O	1.046309	-0.432477	-0.155136
O14	O	1.546309	0.067523	0.344864
O15	O	0.973402	-0.233672	-0.263672
O16	O	1.473402	0.266328	0.236328
O17	O	1.164557	-0.441989	-0.264361
O18	O	1.664557	0.058011	0.235639
O19	O	1.062997	-0.240879	-0.346430
O20	O	1.562997	0.259121	0.153570
O21	O	0.963908	-0.342677	-0.154838
O22	O	1.463908	0.157323	0.345162
O23	O	0.855246	-0.342889	-0.273330
O24	O	1.355246	0.157111	0.226670
O25	O	0.973563	-0.442362	-0.472632
O26	O	1.473563	0.057638	0.027368
O27	O	0.855315	-0.432849	-0.363407
O28	O	1.355315	0.067151	0.136593
O29	O	1.063088	-0.359609	-0.465314
O30	O	1.563088	0.140391	0.034686
O31	O	1.046400	-0.551207	-0.274020
O32	O	1.546400	-0.051207	0.225980
O33	O	0.964068	-0.551367	-0.363799
O34	O	1.464068	-0.051367	0.136201
C35	C	0.829887	-0.386829	-0.319406
C36	C	1.329887	0.113171	0.180594
C37	C	0.752100	-0.383659	-0.322600
C38	C	1.252100	0.116341	0.177400
C39	C	0.312341	-0.363520	-0.342852
C40	C	0.812341	0.136480	0.157148
C41	C	0.385430	-0.366512	-0.339848
C42	C	0.885430	0.133488	0.160152
C43	C	0.418220	-0.410932	-0.295336
C44	C	0.918220	0.089068	0.204664
C45	C	0.377918	-0.452368	-0.253832
C46	C	0.877918	0.047632	0.246168
C47	C	0.304830	-0.449379	-0.256841
C48	C	0.804830	0.050621	0.243159
C49	C	0.638710	-0.422106	-0.284104
C50	C	1.138710	0.077894	0.215896
C51	C	0.711803	-0.425090	-0.281097
C52	C	1.211803	0.074910	0.218903
C53	C	0.719310	-0.339235	-0.367114
C54	C	1.219310	0.160765	0.132886
C55	C	0.646221	-0.336247	-0.370116
C56	C	1.146221	0.163753	0.129884
C57	C	0.605925	-0.377686	-0.328614
C58	C	1.105925	0.122314	0.171386
C59	C	0.492929	-0.413989	-0.292263
C60	C	0.992929	0.086011	0.207737
C61	C	0.531217	-0.374631	-0.331692
C62	C	1.031217	0.125369	0.168308
C63	C	1.004202	-0.576774	-0.320049
C64	C	1.504202	-0.076774	0.179951
C65	C	1.001052	-0.654849	-0.323521
C66	C	1.501052	-0.154849	0.176479
C67	C	1.042474	-0.691425	-0.278445
C68	C	1.542474	-0.191425	0.221555
C69	C	1.039516	-0.764785	-0.281715
C70	C	1.539516	-0.264785	0.218285
C71	C	0.995131	-0.801567	-0.330058
C72	C	1.495131	-0.301567	0.169942
C73	C	0.953707	-0.764986	-0.375139
C74	C	1.453707	-0.264986	0.124861
C75	C	0.956670	-0.691628	-0.371872
C76	C	1.456670	-0.191628	0.128128
C77	C	0.984043	-1.023067	-0.342263
C78	C	1.484043	-0.523067	0.157737
C79	C	0.981083	-1.096431	-0.345525
C80	C	1.481083	-0.596431	0.154475
C81	C	1.066892	-1.096224	-0.252102
C82	C	1.566892	-0.596224	0.247898
C83	C	1.069848	-1.022864	-0.248836
C84	C	1.569848	-0.522864	0.251164
C85	C	1.028427	-0.986290	-0.293919
C86	C	1.528427	-0.486290	0.206081
C87	C	0.992104	-0.876553	-0.333401
C88	C	1.492104	-0.376553	0.166599
C89	C	1.031457	-0.911306	-0.290580
C90	C	1.531457	-0.411306	0.209420
C91	C	1.194256	-0.401763	-0.304526
C92	C	1.694256	0.098237	0.195474
C93	C	1.272044	-0.404951	-0.301350
C94	C	1.772044	0.095049	0.198650
C95	C	1.019428	-0.402104	-0.495170
C96	C	1.519428	0.097896	0.004830
C97	C	1.022714	-0.405438	-0.573234
C98	C	1.522714	0.094562	-0.073234
C99	C	1.019281	-0.211077	-0.303895
C100	C	1.519281	0.288923	0.196105
C101	C	1.022505	-0.133007	-0.300449
C102	C	1.522505	0.366993	0.199551
C103	C	1.004078	-0.386440	-0.129500
C104	C	1.504078	0.113560	0.370500
C105	C	1.000936	-0.382914	-0.051421
C106	C	1.500936	0.117086	0.448579
C107	C	1.042694	-0.427694	-0.014832
C108	C	1.542694	0.072306	0.485168
C109	C	1.039731	-0.424385	0.058531
C110	C	1.539731	0.075615	0.558531
C111	C	0.995013	-0.376292	0.095302
C112	C	1.495013	0.123708	0.595302
C113	C	0.953251	-0.331509	0.058708
C114	C	1.453251	0.168491	0.558708
C115	C	0.956210	-0.334822	-0.014654
C116	C	1.456210	0.165178	0.485346
C117	C	0.983911	-0.363969	0.316810
C118	C	1.483911	0.136031	0.816810
C119	C	0.980956	-0.360658	0.390177
C120	C	1.480956	0.139342	0.890177
C121	C	1.067436	-0.453534	0.389994
C122	C	1.567436	0.046466	0.889994
C123	C	1.070395	-0.456840	0.316632
C124	C	1.570395	0.043160	0.816632
C125	C	1.028629	-0.412061	0.280043
C126	C	1.528629	0.087939	0.780043
C127	C	0.991985	-0.372907	0.170290
C128	C	1.491985	0.127093	0.670290
C129	C	1.031654	-0.415450	0.205056
C130	C	1.531654	0.084550	0.705056
H131	H	0.619529	-0.300078	-0.406364
H132	H	1.119529	0.199922	0.093636
H133	H	0.519635	-0.450154	-0.256019
H134	H	1.019635	0.049846	0.243981
O135	O	1.086040	-0.474446	-0.050632
O136	O	1.586040	0.025554	0.449368
C137	C	1.095560	-0.573376	-0.136975
C138	C	1.595560	-0.073376	0.363025
C139	C	1.046394	-0.520461	-0.096494
C140	C	1.546394	-0.020461	0.403506
H141	H	1.063524	-0.610602	-0.174053
H142	H	1.563524	-0.110602	0.325947
H143	H	1.134643	-0.543949	-0.168591
H144	H	1.634643	-0.043949	0.331409
H145	H	1.124912	-0.604781	-0.098204
H146	H	1.624912	-0.104781	0.401796
H147	H	1.016995	-0.489041	-0.135216
H148	H	1.516995	0.010959	0.364784
H149	H	1.007355	-0.549929	-0.064867
H150	H	1.507355	-0.049929	0.435133
O151	O	0.937472	-0.314034	0.425972
O152	O	1.437472	0.185966	0.925972
C153	C	0.839917	-0.297668	0.505440
C154	C	1.339917	0.202332	1.005440
C155	C	0.889118	-0.350541	0.464951
C156	C	1.389118	0.149459	0.964951
H157	H	0.800802	-0.327164	0.536952
H158	H	1.300802	0.172836	1.036952
H159	H	0.871889	-0.260477	0.542616
H160	H	1.371889	0.239523	1.042616
H161	H	0.810604	-0.266216	0.466680
H162	H	1.310604	0.233784	0.966680
H163	H	0.918442	-0.382041	0.503658
H164	H	1.418442	0.117959	1.003658
H165	H	0.857108	-0.387685	0.427765
H166	H	1.357108	0.112315	0.927765
O167	O	0.948891	-0.912200	-0.380324
O168	O	1.448891	-0.412200	0.119676
C169	C	0.830336	-0.931351	-0.420154
C170	C	1.330336	-0.431351	0.079846
C171	C	0.879194	-0.890918	-0.366980
C172	C	1.379194	-0.390918	0.133020
H173	H	0.773974	-0.914171	-0.409376
H174	H	1.273974	-0.414171	0.090624
H175	H	0.845488	-0.919797	-0.475667
H176	H	1.345488	-0.419797	0.024333
H177	H	0.835375	-0.990063	-0.414756
H178	H	1.335375	-0.490063	0.085244
H179	H	0.874181	-0.832196	-0.372315
H180	H	1.374181	-0.332196	0.127685
H181	H	0.864029	-0.902531	-0.311489
H182	H	1.364029	-0.402531	0.188511
H183	H	1.105989	-0.992917	-0.209471
H184	H	1.605989	-0.492917	0.290529
O185	O	1.107234	-1.131679	-0.208342
O186	O	1.607234	-0.631679	0.291658
C187	C	1.223980	-1.157483	-0.170516
C188	C	1.723980	-0.657483	0.329484
C189	C	1.178368	-1.117282	-0.220100
C190	C	1.678368	-0.617282	0.279900
H191	H	1.281501	-1.145869	-0.180015
H192	H	1.781501	-0.645869	0.319985
H193	H	1.209993	-1.140161	-0.113718
H194	H	1.709993	-0.640161	0.386282
H195	H	1.214208	-1.216228	-0.181140
H196	H	1.714208	-0.716228	0.318860
H197	H	1.188116	-1.058530	-0.209539
H198	H	1.688116	-0.558530	0.290461
H199	H	1.192364	-1.134662	-0.276882
H200	H	1.692364	-0.634662	0.223118
O201	O	0.938050	-1.132141	-0.392587
O202	O	1.438050	-0.632141	0.107413
C203	C	0.908090	-1.158254	-0.514416
C204	C	1.408090	-0.658254	-0.014416
C205	C	0.956880	-1.117785	-0.461201
C206	C	1.456880	-0.617785	0.038799
H207	H	0.923287	-1.146650	-0.569901
H208	H	1.423287	-0.646650	-0.069901
H209	H	0.913095	-1.216978	-0.509062
H210	H	1.413095	-0.716978	-0.009062
H211	H	0.851728	-1.141055	-0.503673
H212	H	1.351728	-0.641055	-0.003673
H213	H	1.013262	-1.134925	-0.471910
H214	H	1.513262	-0.634925	0.028090
H215	H	0.951815	-1.059070	-0.466567
H216	H	1.451815	-0.559070	0.033433
H217	H	0.272020	-0.483119	-0.223046
H218	H	0.772020	0.016881	0.276954
O219	O	0.943322	-0.320395	0.281385
O220	O	1.443322	0.179605	0.781385
C221	C	0.857210	-0.227947	0.289313
C222	C	1.357210	0.272053	0.789313
C223	C	0.903151	-0.277246	0.329523
C224	C	1.403151	0.222754	0.829523
H225	H	0.824708	-0.193059	0.328214
H226	H	1.324708	0.306941	0.828214
H227	H	0.891958	-0.193801	0.257772
H228	H	1.391958	0.306199	0.757772
H229	H	0.820915	-0.260525	0.252172
H230	H	1.320915	0.239475	0.752172
H231	H	0.939452	-0.244723	0.366700
H232	H	1.439452	0.255277	0.866700
H233	H	0.868361	-0.311395	0.361017
H234	H	1.368361	0.188605	0.861017
H235	H	1.073727	-0.460858	0.088318
H236	H	1.573727	0.039142	0.588318
H237	H	1.078613	-0.661481	-0.239076
H238	H	1.578613	-0.161481	0.260924
H239	H	0.950315	-0.993294	-0.378970
H240	H	1.450315	-0.493294	0.121030
O241	O	0.499449	-0.331387	-0.374888
O242	O	0.999449	0.168613	0.125112
C243	C	0.483414	-0.212509	-0.404788
C244	C	0.983414	0.287491	0.095212
C245	C	0.519457	-0.261407	-0.355833
C246	C	1.019457	0.238593	0.144167
H247	H	0.499565	-0.155918	-0.389390
H248	H	0.999565	0.344082	0.110610
H249	H	0.499688	-0.227879	-0.461366
H250	H	0.999688	0.272121	0.038634
H251	H	0.424257	-0.217532	-0.399820
H252	H	0.924257	0.282468	0.100180
H253	H	0.578619	-0.256409	-0.360739
H254	H	1.078619	0.243591	0.139261
H255	H	0.503126	-0.246023	-0.299274
H256	H	1.003126	0.253977	0.200726
O257	O	0.409656	-0.495581	-0.210580
O258	O	0.909656	0.004419	0.289420
C259	C	0.394489	-0.580394	-0.125553
C260	C	0.894489	-0.080394	0.374447
C261	C	0.358458	-0.531498	-0.174518
C262	C	0.858458	-0.031498	0.325482
H263	H	0.353113	-0.609435	-0.096373
H264	H	0.853113	-0.109435	0.403627
H265	H	0.428534	-0.619990	-0.157924
H266	H	0.928534	-0.119990	0.342076
H267	H	0.428503	-0.547912	-0.086074
H268	H	0.928503	-0.047912	0.413926
H269	H	0.324409	-0.563922	-0.214006
H270	H	0.824409	-0.063922	0.285994
H271	H	0.324456	-0.491899	-0.142102
H272	H	0.824456	0.008101	0.357898
O273	O	0.915749	-0.291294	-0.050271
O274	O	1.415749	0.208706	0.449729
C275	C	0.912907	-0.199844	-0.129521
C276	C	1.412907	0.300156	0.370479
C277	C	0.958816	-0.249109	-0.089237
C278	C	1.458816	0.250891	0.410763
H279	H	0.947708	-0.165715	-0.161023
H280	H	1.447708	0.334285	0.338977
H281	H	0.876600	-0.232379	-0.166688
H282	H	1.376600	0.267621	0.333312
H283	H	0.880420	-0.164932	-0.090628
H284	H	1.380420	0.335068	0.409372
H285	H	0.991345	-0.284032	-0.128078
H286	H	1.491345	0.215968	0.371922
H287	H	0.995078	-0.216532	-0.052060
H288	H	1.495078	0.283468	0.447940
H289	H	1.073245	-0.794561	-0.245009
H290	H	1.573245	-0.294561	0.254991
H291	H	0.917572	-0.794941	-0.414504
H292	H	1.417572	-0.294941	0.085496
O293	O	0.916365	-0.656203	-0.415691
O294	O	1.416365	-0.156203	0.084309
C295	C	0.830981	-0.664149	-0.508736
C296	C	1.330981	-0.164149	-0.008736
C297	C	0.876572	-0.704352	-0.459135
C298	C	1.376572	-0.204352	0.040865
H299	H	0.798808	-0.703060	-0.543883
H300	H	1.298808	-0.203060	-0.043883
H301	H	0.794392	-0.626989	-0.476469
H302	H	1.294392	-0.126989	0.023531
H303	H	0.866035	-0.632629	-0.542609
H304	H	1.366035	-0.132629	-0.042609
H305	H	0.841572	-0.735912	-0.425250
H306	H	1.341572	-0.235912	0.074750
H307	H	0.913167	-0.741469	-0.491442
H308	H	1.413167	-0.241469	0.008558
O309	O	0.743627	-0.468349	-0.237943
O310	O	1.243627	0.031651	0.262057
C311	C	0.759600	-0.587221	-0.207999
C312	C	1.259600	-0.087221	0.292001
C313	C	0.723525	-0.538316	-0.256926
C314	C	1.223525	-0.038316	0.243074
H315	H	0.743350	-0.643798	-0.223320
H316	H	1.243350	-0.143798	0.276680
H317	H	0.818764	-0.582294	-0.212986
H318	H	1.318764	-0.082294	0.287014
H319	H	0.743353	-0.571764	-0.151431
H320	H	1.243353	-0.071764	0.348569
H321	H	0.739715	-0.553742	-0.313515
H322	H	1.239715	-0.053742	0.186485
H323	H	0.664367	-0.543250	-0.251878
H324	H	1.164367	-0.043250	0.248122
H325	H	1.067598	-0.881356	-0.251222
H326	H	1.567598	-0.381356	0.248778
O327	O	0.599545	-0.462435	-0.243892
O328	O	1.099545	0.037565	0.256108
C329	C	0.512697	-0.553451	-0.241868
C330	C	1.012697	-0.053451	0.258132
C331	C	0.557022	-0.507832	-0.287494
C332	C	1.057022	-0.007832	0.212506
H333	H	0.478295	-0.590155	-0.277100
H334	H	0.978295	-0.090155	0.222900
H335	H	0.548660	-0.585758	-0.209555
H336	H	1.048660	-0.085758	0.290445
H337	H	0.478283	-0.518170	-0.205160
H338	H	0.978283	-0.018170	0.294840
H339	H	0.591441	-0.543060	-0.324241
H340	H	1.091441	-0.043060	0.175759
H341	H	0.521019	-0.475519	-0.319759
H342	H	1.021019	0.024481	0.180241
H343	H	1.106808	-0.496003	0.286697
H344	H	1.606808	0.003997	0.786697
H345	H	1.101438	-0.489992	0.419793
H346	H	1.601438	0.010008	0.919793
H347	H	0.955577	-0.333748	0.200238
H348	H	1.455577	0.166252	0.700238
O349	O	0.909708	-0.284867	0.094388
O350	O	1.409708	0.215133	0.594388
C351	C	0.790885	-0.245710	0.113516
C352	C	1.290885	0.254290	0.613516
C353	C	0.840115	-0.298588	0.073072
C354	C	1.340115	0.201412	0.573072
H355	H	0.734611	-0.256776	0.096286
H356	H	1.234611	0.243224	0.596286
H357	H	0.795883	-0.251034	0.172240
H358	H	1.295883	0.248966	0.672240
H359	H	0.805729	-0.190136	0.101927
H360	H	1.305729	0.309864	0.601927
H361	H	0.825305	-0.354185	0.084603
H362	H	1.325305	0.145815	0.584603
H363	H	0.835110	-0.293203	0.014360
H364	H	1.335110	0.206797	0.514360
O365	O	0.280604	-0.320355	-0.386153
O366	O	0.780604	0.179645	0.113847
C367	C	0.295773	-0.235489	-0.471127
C368	C	0.795773	0.264511	0.028873
C369	C	0.331802	-0.284353	-0.422128
C370	C	0.831802	0.215647	0.077872
H371	H	0.337151	-0.206358	-0.500215
H372	H	0.837151	0.293642	-0.000215
H373	H	0.261803	-0.267934	-0.510677
H374	H	0.761803	0.232066	-0.010677
H375	H	0.261685	-0.195964	-0.438720
H376	H	0.761685	0.304036	0.061280
H377	H	0.365926	-0.323888	-0.454478
H378	H	0.865926	0.176112	0.045522
H379	H	0.365730	-0.251863	-0.382576
H380	H	0.865730	0.248137	0.117424
O381	O	0.424603	-0.326367	-0.380241
O382	O	0.924603	0.173633	0.119759
C383	C	0.511548	-0.324485	-0.471248
C384	C	1.011548	0.175515	0.028752
C385	C	0.467218	-0.370034	-0.425557
C386	C	0.967218	0.129966	0.074443
H387	H	0.546025	-0.359770	-0.507887
H388	H	1.046025	0.140230	-0.007887
H389	H	0.475588	-0.292237	-0.503624
H390	H	0.975588	0.207763	-0.003624
H391	H	0.545887	-0.287715	-0.436018
H392	H	1.045887	0.212285	0.063982
H393	H	0.432875	-0.406843	-0.460735
H394	H	0.932875	0.093157	0.039265
H395	H	0.503218	-0.402233	-0.393175
H396	H	1.003218	0.097767	0.106825
O397	O	1.075188	-0.462131	0.169423
O398	O	1.575188	0.037869	0.669423
C399	C	1.194021	-0.501225	0.150226
C400	C	1.694021	-0.001225	0.650226
C401	C	1.144793	-0.448330	0.190649
C402	C	1.644793	0.051670	0.690649
H403	H	1.250309	-0.490077	0.167361
H404	H	1.750309	0.009923	0.667361
H405	H	1.179275	-0.556820	0.161837
H406	H	1.679275	-0.056820	0.661837
H407	H	1.188923	-0.495908	0.091510
H408	H	1.688923	0.004092	0.591510
H409	H	1.149866	-0.453583	0.249375
H410	H	1.649866	0.046417	0.749375
H411	H	1.159554	-0.392756	0.178979
H412	H	1.659554	0.107244	0.678979
O413	O	0.758423	-0.298885	-0.407355
O414	O	1.258423	0.201115	0.092645
C415	C	0.787126	-0.181846	-0.435492
C416	C	1.287126	0.318154	0.064508
C417	C	0.742802	-0.227456	-0.389856
C418	C	1.242802	0.272544	0.110144
H419	H	0.774501	-0.124088	-0.421370
H420	H	1.274501	0.375912	0.078630
H421	H	0.845007	-0.191549	-0.425695
H422	H	1.345007	0.308451	0.074305
H423	H	0.774647	-0.196144	-0.493238
H424	H	1.274647	0.303856	0.006762
H425	H	0.755220	-0.213186	-0.332094
H426	H	1.255220	0.286814	0.167906
H427	H	0.684933	-0.217747	-0.399713
H428	H	1.184933	0.282253	0.100287
