data_functionalizedCrystal
_audit_creation_method	'MofGen! by Chris Wilmer'
_symmetry_space_group_name_H-M	'P1'
_symmetry_Int_Tables_number	1
_symmetry_cell_setting	triclinic
loop_
_symmetry_equiv_pos_as_xyz
  x,y,z
_cell_length_a	26.374263
_cell_length_b	26.373608
_cell_length_c	26.370205
_cell_angle_alpha	60.005297
_cell_angle_beta	60.010839
_cell_angle_gamma	59.993700
loop_
_atom_site_label
_atom_site_type_symbol
_atom_site_fract_x
_atom_site_fract_y
_atom_site_fract_z
O1	O	0.070152	-0.740800	0.619517
O2	O	0.570152	-0.240800	1.119517
O3	O	0.026377	-0.576764	0.499159
O4	O	0.526377	-0.076764	0.999159
O5	O	0.130245	-0.680560	0.499088
O6	O	0.630245	-0.180560	0.999088
O7	O	-0.033715	-0.637003	0.619589
O8	O	0.466285	-0.137003	1.119589
O9	O	0.164701	-0.646107	0.533470
O10	O	0.664701	-0.146107	1.033470
O11	O	0.060833	-0.542310	0.533541
O12	O	0.560833	-0.042310	1.033541
O13	O	0.104608	-0.706346	0.653899
O14	O	0.604608	-0.206346	1.153899
Cu15	Cu	0.085867	-0.621182	0.596859
Cu16	Cu	0.585867	-0.121182	1.096859
Cu17	Cu	0.045119	-0.661927	0.556199
Cu18	Cu	0.545119	-0.161927	1.056199
O19	O	0.000741	-0.602549	0.653971
O20	O	0.500741	-0.102549	1.153971
N21	N	0.114528	-0.592529	0.625461
N22	N	0.614528	-0.092529	1.125461
N23	N	0.016463	-0.690587	0.527598
N24	N	0.516463	-0.190587	1.027598
C25	C	0.181428	-0.355400	0.692330
C26	C	0.681428	0.144600	1.192330
C27	C	0.181530	-0.525690	0.862573
C28	C	0.681530	-0.025690	1.362573
C29	C	0.181440	-0.525667	0.692313
C30	C	0.681440	-0.025667	1.192313
C31	C	0.351736	-0.525673	0.692271
C32	C	0.851736	-0.025673	1.192271
C33	C	0.200174	-0.411588	0.711047
C34	C	0.700174	0.088412	1.211047
C35	C	0.200232	-0.506954	0.806384
C36	C	0.700232	-0.006954	1.306384
C37	C	0.295546	-0.506943	0.711016
C38	C	0.795546	-0.006943	1.211016
C39	C	0.200182	-0.506940	0.711037
C40	C	0.700182	-0.006940	1.211037
C41	C	0.157567	-0.283881	0.668507
C42	C	0.657567	0.216119	1.168507
C43	C	0.157587	-0.549500	0.668479
C44	C	0.657587	-0.049500	1.168479
C45	C	0.224035	-0.483107	0.734871
C46	C	0.724035	0.016893	1.234871
C47	C	0.455739	-0.507754	0.637520
C48	C	0.955739	-0.007754	1.137520
C49	C	0.520749	-0.529425	0.615835
C50	C	1.020749	-0.029425	1.115835
C51	C	0.520768	-0.634611	0.655947
C52	C	1.020768	-0.134611	1.155947
C53	C	0.455759	-0.612939	0.677633
C54	C	0.955759	-0.112939	1.177633
C55	C	0.173240	-0.251367	0.604595
C56	C	0.673240	0.248633	1.104595
C57	C	0.151546	-0.186351	0.582941
C58	C	0.651546	0.313649	1.082941
C59	C	0.098512	-0.186369	0.689113
C60	C	0.598512	0.313631	1.189113
C61	C	0.120206	-0.251385	0.710768
C62	C	0.620206	0.248615	1.210768
C63	C	0.093669	-0.533798	0.684205
C64	C	0.593669	-0.033798	1.184205
C65	C	0.071992	-0.555464	0.662532
C66	C	0.571992	-0.055464	1.162532
C67	C	0.178144	-0.608536	0.609422
C68	C	0.678144	-0.108536	1.109422
C69	C	0.199825	-0.586869	0.631088
C70	C	0.699825	-0.086869	1.131088
C71	C	0.093821	-0.533842	0.966616
C72	C	0.593821	-0.033842	1.466616
C73	C	0.072187	-0.555526	1.031630
C74	C	0.572187	-0.055526	1.531630
C75	C	0.178370	-0.608608	1.031591
C76	C	0.678370	-0.108608	1.531591
C77	C	0.200004	-0.586926	0.966576
C78	C	0.700004	-0.086926	1.466576
C79	C	0.157728	-0.549541	0.934090
C80	C	0.657728	-0.049541	1.434090
C81	C	0.423247	-0.549509	0.668416
C82	C	0.923247	-0.049509	1.168416
C83	C	-0.097522	-0.709158	0.508557
C84	C	0.402478	-0.209158	1.008557
C85	C	-0.002050	-0.709295	0.413344
C86	C	0.497950	-0.209295	0.913344
C87	C	-0.002241	-0.804604	0.508735
C88	C	0.497759	-0.304604	1.008735
C89	C	-0.002225	-0.709288	0.508793
C90	C	0.497775	-0.209288	1.008793
C91	C	-0.026009	-0.733087	0.484858
C92	C	0.473991	-0.233087	0.984858
N93	N	0.552340	-0.592538	0.625346
N94	N	1.052340	-0.092538	1.125346
O95	O	0.750867	-0.598274	0.477076
O96	O	1.250867	-0.098274	0.977076
O97	O	0.751048	-0.718989	0.640960
O98	O	1.251048	-0.218989	1.140960
O99	O	0.750981	-0.718715	0.537020
O100	O	1.250981	-0.218715	1.037020
O101	O	0.750934	-0.598547	0.581017
O102	O	1.250934	-0.098547	1.081017
O103	O	0.647701	-0.684348	0.571512
O104	O	1.147701	-0.184348	1.071512
O105	O	0.647768	-0.684622	0.675452
O106	O	1.147768	-0.184622	1.175452
O107	O	0.647587	-0.563907	0.511569
O108	O	1.147587	-0.063907	1.011569
Cu109	Cu	0.638247	-0.621127	0.596660
Cu110	Cu	1.138247	-0.121127	1.096660
Cu111	Cu	0.760388	-0.661769	0.555869
Cu112	Cu	1.260388	-0.161769	1.055869
O113	O	0.647654	-0.564181	0.615509
O114	O	1.147654	-0.064181	1.115509
N115	N	0.846295	-0.690358	0.527176
N116	N	1.346295	-0.190358	1.027176
N117	N	0.114503	-0.154778	0.625499
N118	N	0.614503	0.345222	1.125499
O119	O	-0.033701	0.043855	0.619632
O120	O	0.466299	0.543855	1.119632
O121	O	0.130190	0.043858	0.498933
O122	O	0.630190	0.543858	0.998933
O123	O	0.026233	0.043841	0.499224
O124	O	0.526233	0.543841	0.999224
O125	O	0.070257	0.043872	0.619341
O126	O	0.570257	0.543872	1.119341
O127	O	0.060690	-0.059448	0.533654
O128	O	0.560690	0.440552	1.033654
O129	O	0.164647	-0.059431	0.533363
O130	O	0.664647	0.440569	1.033363
O131	O	0.000756	-0.059434	0.654062
O132	O	0.500756	0.440566	1.154062
Cu133	Cu	0.085848	-0.068863	0.596857
Cu134	Cu	0.585848	0.431137	1.096857
Cu135	Cu	0.045099	0.053287	0.556138
Cu136	Cu	0.545099	0.553287	1.056138
O137	O	0.104714	-0.059417	0.653771
O138	O	0.604714	0.440583	1.153771
N139	N	0.016435	0.139202	0.527497
N140	N	0.516435	0.639202	1.027497
N141	N	0.114760	-0.592585	1.063190
N142	N	0.614760	-0.092585	1.563190
O143	O	0.108896	-0.740779	1.261808
O144	O	0.608896	-0.240779	1.761808
O145	O	-0.011787	-0.576838	1.261822
O146	O	0.488213	-0.076838	1.761822
O147	O	-0.011509	-0.680779	1.261780
O148	O	0.488491	-0.180779	1.761780
O149	O	0.108618	-0.636838	1.261850
O150	O	0.608618	-0.136838	1.761850
O151	O	0.022916	-0.646341	1.158496
O152	O	0.522916	-0.146341	1.658496
O153	O	0.022638	-0.542399	1.158538
O154	O	0.522638	-0.042399	1.658538
O155	O	0.143321	-0.706341	1.158524
O156	O	0.643321	-0.206341	1.658524
Cu157	Cu	0.086123	-0.621225	1.149100
Cu158	Cu	0.586123	-0.121225	1.649100
Cu159	Cu	0.045411	-0.661953	1.271246
Cu160	Cu	0.545411	-0.161953	1.771246
O161	O	0.143044	-0.602399	1.158566
O162	O	0.643044	-0.102399	1.658566
N163	N	0.016774	-0.690600	1.357156
N164	N	0.516774	-0.190600	1.857156
C165	C	0.039504	-0.538867	0.499769
C166	C	0.539504	-0.038867	0.999769
C167	C	0.168130	-0.667407	0.499680
C168	C	0.668130	-0.167407	0.999680
C169	C	0.091482	-0.744243	0.653289
C170	C	0.591482	-0.244243	1.153289
C171	C	-0.037145	-0.615703	0.653378
C172	C	0.462855	-0.115703	1.153378
C173	C	0.699429	-0.718429	0.678853
C174	C	1.199429	-0.218429	1.178853
C175	C	0.699348	-0.718091	0.550135
C176	C	1.199348	-0.218091	1.050135
C177	C	0.699202	-0.564465	0.473677
C178	C	1.199202	-0.064465	0.973677
C179	C	0.699287	-0.564805	0.602393
C180	C	1.199287	-0.064805	1.102393
C181	C	0.168023	-0.007659	0.499484
C182	C	0.668023	0.492341	0.999484
C183	C	0.039327	-0.007807	0.499887
C184	C	0.539327	0.492193	0.999887
C185	C	-0.037119	-0.007789	0.653468
C186	C	0.462881	0.492211	1.153468
C187	C	0.091620	-0.007770	0.653109
C188	C	0.591620	0.492230	1.153109
C189	C	-0.011194	-0.538964	1.210181
C190	C	0.488806	-0.038964	1.710181
C191	C	-0.010843	-0.667676	1.210109
C192	C	0.489157	-0.167676	1.710109
C193	C	0.142729	-0.744214	1.210165
C194	C	0.642729	-0.244214	1.710165
C195	C	0.142386	-0.615494	1.210214
C196	C	0.642386	-0.115494	1.710214
H197	H	0.020147	-0.542732	1.058106
H198	H	0.520147	-0.042732	1.558106
H199	H	0.214995	-0.007372	0.461496
H200	H	0.714995	0.492628	0.961496
C201	C	-0.114363	-0.483423	1.263264
C202	C	0.385637	0.016577	1.763264
C203	C	-0.062347	-0.475404	1.210182
C204	C	0.437653	0.024596	1.710182
H205	H	-0.145943	-0.444183	1.263261
H206	H	0.354057	0.055817	1.763261
H207	H	-0.103080	-0.502002	1.299282
H208	H	0.396920	-0.002002	1.799282
H209	H	-0.129348	-0.509516	1.263242
H210	H	0.370652	-0.009516	1.763242
H211	H	-0.047360	-0.449315	1.210207
H212	H	0.452640	0.050685	1.710207
H213	H	-0.073631	-0.456816	1.174155
H214	H	0.426369	0.043184	1.674155
H215	H	-0.084239	-0.606419	0.691217
H216	H	0.415761	-0.106419	1.191217
H217	H	0.030155	-0.491745	0.461969
H218	H	0.530155	0.008255	0.961969
C219	C	-0.033989	-0.007858	0.471334
C220	C	0.466011	0.492142	0.971334
C221	C	0.026617	-0.007842	0.448950
C222	C	0.526617	0.492158	0.948950
H223	H	-0.041830	-0.007890	0.439891
H224	H	0.458170	0.492110	0.939891
H225	H	-0.062636	0.028168	0.482622
H226	H	0.437364	0.528168	0.982622
H227	H	-0.038598	-0.043870	0.506665
H228	H	0.461402	0.456130	1.006665
H229	H	0.031226	0.028173	0.413622
H230	H	0.531226	0.528173	0.913622
H231	H	0.055273	-0.043872	0.437654
H232	H	0.555273	0.456128	0.937654
H233	H	0.215222	-0.676694	0.461838
H234	H	0.715222	-0.176694	0.961838
C235	C	0.051439	-0.007759	0.757327
C236	C	0.551439	0.492241	1.257327
C237	C	0.104337	-0.007760	0.704054
C238	C	0.604337	0.492240	1.204054
H239	H	0.059290	-0.007749	0.788776
H240	H	0.559290	0.492251	1.288776
H241	H	0.041594	-0.043779	0.771674
H242	H	0.541594	0.456221	1.271674
H243	H	0.017559	0.028260	0.747659
H244	H	0.517559	0.528260	1.247659
H245	H	0.138215	-0.043782	0.713720
H246	H	0.638215	0.456218	1.213720
H247	H	0.114190	0.028263	0.689705
H248	H	0.614190	0.528263	1.189705
H249	H	0.100832	-0.791364	0.691090
H250	H	0.600832	-0.291364	1.191090
H251	H	0.699366	-0.755841	0.540718
H252	H	1.199366	-0.255841	1.040718
C253	C	0.208277	-0.818928	1.157051
C254	C	0.708277	-0.318928	1.657051
C255	C	0.193881	-0.807774	1.210159
C256	C	0.693881	-0.307774	1.710159
H257	H	0.239854	-0.858169	1.157050
H258	H	0.739854	-0.358169	1.657050
H259	H	0.222512	-0.787335	1.121051
H260	H	0.722512	-0.287335	1.621051
H261	H	0.172227	-0.818855	1.157042
H262	H	0.672227	-0.318855	1.657042
H263	H	0.229930	-0.807842	1.210166
H264	H	0.729930	-0.307842	1.710166
H265	H	0.179648	-0.839375	1.246169
H266	H	0.679648	-0.339375	1.746169
H267	H	0.180125	-0.606093	1.210228
H268	H	0.680125	-0.106093	1.710228
H269	H	-0.048566	-0.677061	1.210046
H270	H	0.451434	-0.177061	1.710046
H271	H	0.699142	-0.526565	0.426612
H272	H	1.199142	-0.026565	0.926612
C273	C	0.699210	-0.460562	0.562196
C274	C	1.199210	0.039438	1.062196
C275	C	0.699273	-0.513843	0.615096
C276	C	1.199273	-0.013843	1.115096
H277	H	0.699206	-0.429102	0.570037
H278	H	1.199206	0.070898	1.070037
H279	H	0.663178	-0.446233	0.552369
H280	H	1.163178	0.053767	1.052369
H281	H	0.735210	-0.470214	0.528307
H282	H	1.235210	0.029786	1.028307
H283	H	0.663270	-0.504192	0.648983
H284	H	1.163270	-0.004192	1.148983
H285	H	0.735309	-0.528174	0.624930
H286	H	1.235309	-0.028174	1.124930
H287	H	0.699474	-0.756325	0.725922
H288	H	1.199474	-0.256325	1.225922
H289	H	0.212798	-0.639038	1.058038
H290	H	0.712798	-0.139038	1.558038
C291	C	-0.013314	-0.483547	0.973192
C292	C	0.486686	0.016453	1.473192
C293	C	0.047347	-0.492746	0.930911
C294	C	0.547347	0.007254	1.430911
H295	H	-0.042003	-0.458181	0.951147
H296	H	0.457997	0.041819	1.451147
H297	H	-0.019543	-0.463702	0.998550
H298	H	0.480457	0.036298	1.498550
H299	H	-0.019538	-0.522520	0.998547
H300	H	0.480462	-0.022520	1.498547
H301	H	0.053573	-0.453773	0.905560
H302	H	0.553573	0.046227	1.405560
H303	H	0.053579	-0.512590	0.905543
H304	H	0.553579	-0.012590	1.405543
C305	C	0.302790	-0.641566	0.973070
C306	C	0.802790	-0.141566	1.473070
C307	C	0.270255	-0.604181	0.930825
C308	C	0.770255	-0.104181	1.430825
H309	H	0.346159	-0.652214	0.950999
H310	H	0.846159	-0.152214	1.450999
H311	H	0.292149	-0.678326	0.998422
H312	H	0.792149	-0.178326	1.498422
H313	H	0.292132	-0.619507	0.998434
H314	H	0.792132	-0.119507	1.498434
H315	H	0.280909	-0.626242	0.905464
H316	H	0.780909	-0.126242	1.405464
H317	H	0.280901	-0.567415	0.905462
H318	H	0.780901	-0.067415	1.405462
C319	C	-0.139134	-0.007777	0.682516
C320	C	0.360866	0.492223	1.182516
C321	C	-0.100663	-0.007773	0.704621
C322	C	0.399337	0.492227	1.204621
H323	H	-0.178365	-0.007760	0.714094
H324	H	0.321635	0.492240	1.214094
H325	H	-0.120563	-0.043802	0.671251
H326	H	0.379437	0.456198	1.171251
H327	H	-0.144571	0.028236	0.647217
H328	H	0.355429	0.528236	1.147217
H329	H	-0.095222	-0.043789	0.739918
H330	H	0.404778	0.456211	1.239918
H331	H	-0.119238	0.028255	0.715894
H332	H	0.380762	0.528255	1.215894
H333	H	0.019945	-0.542665	0.675322
H334	H	0.519945	-0.042665	1.175322
C335	C	-0.013439	-0.483503	0.734514
C336	C	0.486561	0.016497	1.234514
C337	C	0.047241	-0.492716	0.725298
C338	C	0.547241	0.007284	1.225298
H339	H	-0.042102	-0.458137	0.759881
H340	H	0.457898	0.041863	1.259881
H341	H	-0.019673	-0.522467	0.754362
H342	H	0.480327	-0.022467	1.254362
H343	H	-0.019697	-0.463648	0.695548
H344	H	0.480303	0.036352	1.195548
H345	H	0.053501	-0.512575	0.764264
H346	H	0.553501	-0.012575	1.264264
H347	H	0.053477	-0.453745	0.705452
H348	H	0.553477	0.046255	1.205452
H349	H	0.547237	-0.686258	0.663446
H350	H	1.047237	-0.186258	1.163446
C351	C	0.261931	-0.617081	0.514138
C352	C	0.761931	-0.117081	1.014138
C353	C	0.224581	-0.649613	0.568320
C354	C	0.724581	-0.149613	1.068320
H355	H	0.290595	-0.642437	0.488761
H356	H	0.790595	-0.142437	0.988761
H357	H	0.283983	-0.606428	0.524800
H358	H	0.783983	-0.106428	1.024800
H359	H	0.236545	-0.580318	0.492100
H360	H	0.736545	-0.080318	0.992100
H361	H	0.249967	-0.686374	0.590361
H362	H	0.749967	-0.186374	1.090361
H363	H	0.202527	-0.660275	0.557658
H364	H	0.702527	-0.160275	1.057658
C365	C	0.285757	-0.549922	0.581300
C366	C	0.785757	-0.049922	1.081300
C367	C	0.270084	-0.604122	0.613805
C368	C	0.770084	-0.104122	1.113805
H369	H	0.329133	-0.560574	0.570629
H370	H	0.829133	-0.060574	1.070629
H371	H	0.263705	-0.524574	0.606672
H372	H	0.763705	-0.024574	1.106672
H373	H	0.275073	-0.527866	0.544549
H374	H	0.775073	-0.027866	1.044549
H375	H	0.280764	-0.626176	0.650559
H376	H	0.780764	-0.126176	1.150559
H377	H	0.292145	-0.629481	0.588432
H378	H	0.792145	-0.129481	1.088432
H379	H	0.547206	-0.495421	0.590679
H380	H	1.047206	0.004579	1.090679
C381	C	0.435755	-0.689125	0.672140
C382	C	0.935755	-0.189125	1.172140
C383	C	0.420051	-0.658844	0.711590
C384	C	0.920051	-0.158844	1.211590
H385	H	0.413708	-0.717466	0.693103
H386	H	0.913708	-0.217466	1.193103
H387	H	0.479122	-0.711100	0.660547
H388	H	0.979122	-0.211100	1.160547
H389	H	0.425074	-0.659345	0.636021
H390	H	0.925074	-0.159345	1.136021
H391	H	0.430736	-0.688624	0.747707
H392	H	0.930736	-0.188624	1.247707
H393	H	0.376674	-0.636869	0.723192
H394	H	0.876674	-0.136869	1.223192
C395	C	0.435689	-0.404628	0.563663
C396	C	0.935689	0.095372	1.063663
C397	C	0.420000	-0.438029	0.627392
C398	C	0.920000	0.061971	1.127392
H399	H	0.413630	-0.361583	0.557411
H400	H	0.913630	0.138417	1.057411
H401	H	0.425021	-0.418074	0.544026
H402	H	0.925021	0.081926	1.044026
H403	H	0.479059	-0.411568	0.546336
H404	H	0.979059	0.088432	1.046336
H405	H	0.376630	-0.431093	0.644718
H406	H	0.876630	0.068907	1.144718
H407	H	0.430664	-0.424578	0.647037
H408	H	0.930664	0.075422	1.147037
C409	C	0.223471	-0.244814	0.497468
C410	C	0.723471	0.255186	0.997468
C411	C	0.214304	-0.287085	0.558140
C412	C	0.714304	0.212915	1.058140
H413	H	0.248819	-0.266868	0.468791
H414	H	0.748819	0.233132	0.968791
H415	H	0.243318	-0.219456	0.491218
H416	H	0.743318	0.280544	0.991218
H417	H	0.184490	-0.219456	0.491244
H418	H	0.684490	0.280544	0.991244
H419	H	0.253284	-0.312440	0.564365
H420	H	0.753284	0.187560	1.064365
H421	H	0.194457	-0.312454	0.564392
H422	H	0.694457	0.187546	1.064392
H423	H	0.068098	-0.159910	0.723527
H424	H	0.568098	0.340090	1.223527
C425	C	0.065605	-0.244867	0.813539
C426	C	0.565605	0.255133	1.313539
C427	C	0.102979	-0.287123	0.781022
C428	C	0.602979	0.212877	1.281022
H429	H	0.054973	-0.266933	0.856912
H430	H	0.554973	0.233067	1.356912
H431	H	0.028839	-0.219512	0.802891
H432	H	0.528839	0.280488	1.302891
H433	H	0.087661	-0.219506	0.802872
H434	H	0.587661	0.280494	1.302872
H435	H	0.080921	-0.312482	0.791685
H436	H	0.580921	0.187518	1.291685
H437	H	0.139751	-0.312490	0.791675
H438	H	0.639751	0.187510	1.291675
H439	H	0.164306	-0.159876	0.530897
H440	H	0.664306	0.340124	1.030897
