data_functionalizedCrystal
_audit_creation_method	'MofGen! by Chris Wilmer'
_symmetry_space_group_name_H-M	'P1'
_symmetry_Int_Tables_number	1
_symmetry_cell_setting	triclinic
loop_
_symmetry_equiv_pos_as_xyz
  x,y,z
_cell_length_a	23.532407
_cell_length_b	10.489741
_cell_length_c	9.565339
_cell_angle_alpha	89.999484
_cell_angle_beta	89.998186
_cell_angle_gamma	83.693926
loop_
_atom_site_label
_atom_site_type_symbol
_atom_site_fract_x
_atom_site_fract_y
_atom_site_fract_z
O1	O	-0.756285	-0.154816	-0.116085
O2	O	-0.590570	-0.177218	-0.116126
O3	O	-0.677199	0.019706	-0.116096
O4	O	-0.669657	-0.351741	-0.116115
O5	O	-0.677192	0.019694	0.116424
O6	O	-0.590563	-0.177231	0.116394
O7	O	-0.756278	-0.154829	0.116435
Zn8	Zn	-0.673420	-0.166032	0.153332
Zn9	Zn	-0.673429	-0.166015	-0.153023
O10	O	-0.669650	-0.351753	0.116406
C11	C	-0.569347	-0.176654	0.000129
C12	C	-0.506119	-0.174939	0.000114
C13	C	-0.676625	0.067213	0.000163
C14	C	-0.674921	0.208785	0.000160
C15	C	-0.777502	-0.155393	0.000177
C16	C	-0.840730	-0.157108	0.000184
C17	C	-0.107717	-0.280717	0.000172
C18	C	-0.048306	-0.279124	0.000180
O19	O	-0.012211	-0.377181	0.000226
N20	N	-0.024904	-0.162052	0.000184
C21	C	-0.060916	-0.046567	0.000193
O22	O	-0.035555	0.053158	0.000198
C23	C	-0.120326	-0.048161	0.000194
C24	C	-0.143724	-0.165240	0.000177
C25	C	-0.131116	-0.397786	0.000156
C26	C	-0.190522	-0.399379	0.000144
C27	C	-0.226530	-0.283902	0.000149
C28	C	-0.203131	-0.166833	0.000165
C29	C	-0.156337	0.067323	0.000213
C30	C	-0.215750	0.065718	0.000216
C31	C	-0.239148	-0.051361	0.000198
C32	C	-0.298545	-0.052949	0.000159
N33	N	-0.321947	-0.170020	0.000155
C34	C	-0.285940	-0.285497	0.000151
C35	C	0.063849	-0.043227	0.000192
C36	C	0.123257	-0.041631	0.000181
C37	C	0.135863	-0.274188	0.000171
C38	C	0.076454	-0.275783	0.000173
C39	C	0.040447	-0.160298	0.000189
C40	C	-0.410699	-0.288833	0.000126
C41	C	-0.470111	-0.290416	0.000109
C42	C	-0.482712	-0.057859	0.000126
C43	C	-0.423305	-0.056275	0.000136
C44	C	-0.387299	-0.171773	0.000140
O45	O	-0.334675	0.045057	0.000119
O46	O	-0.311308	-0.385205	0.000164
C47	C	-0.670223	-0.399259	0.000143
C48	C	-0.671927	-0.540832	0.000137
N49	N	-0.673418	-0.166042	0.362412
C50	C	-0.619802	0.275093	0.000136
C51	C	-0.645837	0.368075	0.114787
C52	C	-0.645857	0.368062	-0.114459
C53	C	-0.700978	0.299903	0.114906
C54	C	-0.700991	0.299880	-0.114444
C55	C	-0.727065	0.392836	0.000235
N56	N	-0.673435	-0.165995	-0.362102
C57	C	-0.633343	-0.257083	0.453601
C58	C	-0.684905	-0.281179	0.546791
C59	C	-0.621878	-0.141955	0.546777
C60	C	-0.725006	-0.190195	0.453550
C61	C	-0.661945	-0.050921	0.453527
C62	C	-0.713544	-0.074968	0.546676
H63	H	-0.489158	-0.385759	0.000093
H64	H	-0.622530	0.398256	-0.211397
Br65	Br	-0.739815	0.249808	0.276639
H66	H	-0.599484	-0.334143	0.412735
H67	H	-0.381389	-0.382882	0.000134
Br68	Br	-0.770102	0.053397	0.614373
H69	H	-0.574484	0.223935	0.000241
Br70	Br	-0.645726	0.111260	0.385190
Br71	Br	0.044705	-0.434680	0.000149
H72	H	-0.772424	0.443768	0.000310
H73	H	-0.209568	-0.494717	0.000129
Br74	Br	-0.739836	0.249433	-0.275990
H75	H	-0.101804	-0.491827	0.000157
H76	H	-0.404253	0.039060	0.000130
Br77	Br	-0.531590	0.098852	0.000136
Br78	Br	-0.606963	0.418461	0.276327
Br79	Br	-0.549221	-0.108030	0.615039
Br80	Br	-0.701101	-0.443406	0.615070
H81	H	0.165192	-0.368216	0.000174
Br82	Br	0.155005	0.117268	0.000163
H83	H	-0.137297	0.162661	0.000229
Br84	Br	0.014987	0.113518	0.000202
Br85	Br	-0.797684	-0.224305	0.385595
H86	H	-0.245065	0.159762	0.000230
