data_functionalizedCrystal
_audit_creation_method	'MofGen! by Chris Wilmer'
_symmetry_space_group_name_H-M	'P1'
_symmetry_Int_Tables_number	1
_symmetry_cell_setting	triclinic
loop_
_symmetry_equiv_pos_as_xyz
  x,y,z
_cell_length_a	15.944551
_cell_length_b	10.654550
_cell_length_c	15.021413
_cell_angle_alpha	89.997537
_cell_angle_beta	90.002688
_cell_angle_gamma	83.991834
loop_
_atom_site_label
_atom_site_type_symbol
_atom_site_fract_x
_atom_site_fract_y
_atom_site_fract_z
O1	O	1.115466	0.161953	0.073939
O2	O	0.871032	0.181921	0.073961
O3	O	0.998869	-0.010875	0.073944
O4	O	0.987629	0.354749	0.073956
O5	O	0.998849	-0.010854	-0.074120
O6	O	0.871012	0.181943	-0.074103
O7	O	1.115446	0.161974	-0.074125
Zn8	Zn	0.993226	0.171962	-0.097623
Zn9	Zn	0.993252	0.171934	0.097458
O10	O	0.987609	0.354770	-0.074108
C11	C	0.998034	-0.057652	-0.000088
C12	C	0.995565	-0.197063	-0.000086
C13	C	0.839723	0.181103	-0.000068
C14	C	0.746463	0.178618	-0.000060
C15	C	1.070833	-0.277522	-0.000093
C16	C	1.068508	-0.408513	-0.000082
C17	C	0.915639	-0.378572	-0.000061
C18	C	0.917965	-0.247584	-0.000066
C19	C	1.157163	-0.605512	0.051789
C20	C	1.232435	-0.685977	0.051767
C21	C	1.300665	-0.656681	-0.000127
C22	C	1.293625	-0.546922	-0.052020
C23	C	1.218352	-0.466464	-0.052006
C24	C	1.150125	-0.495759	-0.000092
C25	C	0.829316	-0.050583	-0.051944
C26	C	0.754041	0.029878	-0.051936
C27	C	0.685804	0.000585	-0.000048
C28	C	0.692835	-0.109176	0.051832
C29	C	0.768110	-0.189637	0.051825
C30	C	0.836347	-0.160335	-0.000062
C31	C	0.530880	0.053173	-0.000081
C32	C	0.470207	0.111415	0.072924
C33	C	0.575711	0.174122	-0.000071
C34	C	0.470210	0.111464	-0.073056
C35	C	0.410773	0.169770	-0.000085
C36	C	0.516266	0.232397	0.072995
C37	C	0.516275	0.232429	-0.073050
C38	C	0.455620	0.290759	-0.000027
C39	C	0.670728	0.176625	-0.000062
C40	C	0.315757	0.167276	-0.000087
C41	C	1.146755	0.162792	-0.000094
C42	C	1.240015	0.165278	-0.000097
C43	C	0.988444	0.401547	-0.000075
C44	C	0.990913	0.540958	-0.000070
N45	N	0.993215	0.171980	-0.230760
C46	C	0.934601	0.261825	-0.529767
C47	C	0.916949	0.148693	-0.470410
C48	C	0.993251	0.171928	-0.587797
C49	C	1.010845	0.285082	-0.470412
C50	C	0.993231	0.171960	-0.412373
C51	C	0.975562	0.058739	-0.529747
C52	C	1.069491	0.195202	-0.529754
C53	C	1.051871	0.081988	-0.470424
C54	C	0.993260	0.171911	-0.688854
C55	C	0.993222	0.171963	-0.311318
N56	N	0.993270	0.171906	0.230596
H57	H	1.134019	-0.236393	-0.000107
Br58	Br	1.208790	-0.317519	-0.122430
H59	H	0.852468	0.129017	-0.444337
H60	H	0.536694	0.283552	-0.134771
H61	H	0.884976	0.337748	-0.555824
H62	H	1.238162	-0.775341	0.094026
H63	H	0.449809	0.060250	0.134642
Br64	Br	0.401319	0.458231	0.000041
H65	H	0.536558	0.283506	0.134783
H66	H	1.133952	0.214921	-0.555843
H67	H	0.449819	0.060295	-0.134774
H68	H	0.960597	-0.036961	-0.555701
Br69	Br	0.744487	0.178818	-0.122372
H70	H	1.101613	-0.629368	0.094058
H71	H	0.563632	-0.047204	0.000006
Br72	Br	1.134531	-0.044829	-0.427267
H73	H	1.349184	-0.523087	-0.094283
Br74	Br	0.810331	-0.447145	-0.000031
H75	H	0.624508	0.066099	-0.000058
Br76	Br	1.035662	0.444551	-0.426967
H77	H	1.361953	-0.722204	-0.000143
H78	H	0.637264	-0.133044	0.094066
Br79	Br	0.777653	-0.338604	0.122232
H80	H	0.884885	-0.026704	-0.094179
