data_functionalizedCrystal
_audit_creation_method	'MofGen! by Chris Wilmer'
_symmetry_space_group_name_H-M	'P1'
_symmetry_Int_Tables_number	1
_symmetry_cell_setting	triclinic
loop_
_symmetry_equiv_pos_as_xyz
  x,y,z
_cell_length_a	16.109301
_cell_length_b	15.538191
_cell_length_c	15.186229
_cell_angle_alpha	89.999546
_cell_angle_beta	89.999362
_cell_angle_gamma	65.366787
loop_
_atom_site_label
_atom_site_type_symbol
_atom_site_fract_x
_atom_site_fract_y
_atom_site_fract_z
O1	O	1.066616	0.121093	-0.073166
O2	O	0.820010	0.136163	-0.073179
O3	O	0.991317	-0.008516	-0.073174
O4	O	0.895309	0.265773	-0.073171
O5	O	0.991309	-0.008518	0.073283
O6	O	0.820002	0.136161	0.073278
O7	O	1.066608	0.121091	0.073291
Zn8	Zn	0.943304	0.128626	0.096538
Zn9	Zn	0.943314	0.128629	-0.096426
O10	O	0.895301	0.265771	0.073286
C11	C	0.789215	0.135552	0.000048
C12	C	0.697472	0.133722	0.000042
C13	C	0.450596	0.215316	0.000053
C14	C	0.364396	0.213589	0.000059
C15	C	0.436032	0.041932	0.000053
C16	C	0.522229	0.043660	0.000054
C17	C	0.529508	0.130355	0.000050
C18	C	0.357111	0.126900	0.000055
C19	C	0.263649	0.125027	0.000061
C20	C	0.622975	0.132228	0.000045
C21	C	1.001358	-0.043615	0.000052
C22	C	1.031279	-0.148198	0.000045
C23	C	0.734025	-0.435898	0.000048
C24	C	0.762161	-0.534172	0.000051
C25	C	0.920419	-0.556664	0.000059
C26	C	0.892297	-0.458389	0.000052
C27	C	0.799099	-0.398013	0.000047
C28	C	0.957370	-0.420505	0.000051
C29	C	0.929249	-0.322239	0.000047
C30	C	0.836055	-0.261857	0.000045
C31	C	0.770978	-0.299747	0.000044
C32	C	1.050568	-0.480882	0.000062
C33	C	1.115641	-0.442998	0.000061
C34	C	1.087520	-0.344730	0.000051
C35	C	0.994326	-0.284349	0.000049
C36	C	1.152598	-0.306840	0.000053
C37	C	1.124477	-0.208574	0.000050
C38	C	0.966206	-0.186083	0.000046
C39	C	1.097403	0.121703	0.000062
C40	C	1.189147	0.123533	0.000062
C41	C	0.885260	0.300870	0.000058
C42	C	0.855340	0.405453	0.000059
N43	N	0.943303	0.128624	0.228231
N44	N	0.943324	0.128624	-0.228119
C45	C	1.019171	0.064581	0.453956
C46	C	1.019174	0.064579	0.546145
C47	C	0.867450	0.192669	0.546150
C48	C	0.867445	0.192666	0.453962
C49	C	0.943310	0.128623	0.407867
C50	C	0.943318	0.128624	0.592245
C51	C	0.943321	0.128622	0.692201
C52	C	0.943306	0.128624	0.307905
H53	H	0.890314	-0.136921	0.000035
C54	C	0.784012	0.263164	0.403262
N55	N	0.721181	0.316274	0.365074
H56	H	0.695087	-0.250585	0.000033
H57	H	1.080946	0.012429	0.583668
C58	C	0.690568	-0.575840	0.000047
N59	N	0.636644	-0.607224	0.000044
H60	H	0.300146	0.282773	0.000064
C61	C	0.428015	-0.053427	0.000050
N62	N	0.421978	-0.125254	0.000044
C63	C	1.102620	-0.005875	0.403255
N64	N	1.165474	-0.058948	0.365069
C65	C	1.022935	-0.623087	0.000064
N66	N	1.100151	-0.673117	0.000064
C67	C	0.609040	-0.049809	0.000050
N68	N	0.674425	-0.120207	0.000049
C69	C	0.805122	-0.153761	0.000040
N70	N	0.781823	-0.072342	0.000034
C71	C	0.784002	0.263111	0.596863
N72	N	0.721147	0.316168	0.635059
C73	C	1.218156	-0.509422	0.000065
N74	N	1.295372	-0.559451	0.000065
C75	C	0.458598	0.310682	0.000060
N76	N	0.464622	0.382515	0.000069
C77	C	0.631502	-0.369478	0.000042
N78	N	0.554285	-0.319451	0.000041
H79	H	1.073460	-0.560896	0.000056
H80	H	1.228479	-0.356012	0.000065
H81	H	1.177466	-0.177729	0.000050
