data_functionalizedCrystal
_audit_creation_method	'MofGen! by Chris Wilmer'
_symmetry_space_group_name_H-M	'P1'
_symmetry_Int_Tables_number	1
_symmetry_cell_setting	triclinic
loop_
_symmetry_equiv_pos_as_xyz
  x,y,z
_cell_length_a	8.634740
_cell_length_b	11.792254
_cell_length_c	7.088929
_cell_angle_alpha	83.733108
_cell_angle_beta	97.174953
_cell_angle_gamma	92.384452
loop_
_atom_site_label
_atom_site_type_symbol
_atom_site_fract_x
_atom_site_fract_y
_atom_site_fract_z
O1	O	2.033434	0.380327	-0.158989
O2	O	2.533434	0.880327	0.341011
O3	O	1.584220	0.349269	-0.158993
O4	O	2.084220	0.849269	0.341007
O5	O	1.819720	0.200769	-0.158977
O6	O	2.319720	0.700769	0.341023
O7	O	1.797935	0.528827	-0.159005
O8	O	2.297935	1.028827	0.340995
O9	O	1.851191	0.180871	0.159000
O10	O	2.351191	0.680871	0.659000
O11	O	1.615692	0.329371	0.158984
O12	O	2.115692	0.829371	0.658984
O13	O	2.064906	0.360429	0.158988
O14	O	2.564906	0.860429	0.658988
Cu15	Cu	1.843172	0.343083	0.188020
Cu16	Cu	2.343172	0.843083	0.688020
Cu17	Cu	1.805954	0.366615	-0.188025
Cu18	Cu	2.305954	0.866615	0.311975
O19	O	1.829407	0.508929	0.158972
O20	O	2.329407	1.008929	0.658972
C21	C	1.542447	0.332284	-0.000005
C22	C	2.042447	0.832284	0.499995
C23	C	1.371087	0.311306	-0.000006
C24	C	1.871087	0.811306	0.499994
C25	C	1.834083	0.148386	0.000011
C26	C	2.334083	0.648386	0.500011
C27	C	1.829976	0.021942	0.000009
C28	C	2.329976	0.521942	0.500009
C29	C	1.826639	-0.080744	0.000002
C30	C	2.326639	0.419256	0.500002
C31	C	1.822464	-0.209567	-0.000016
C32	C	2.322464	0.290433	0.499984
C33	C	2.106679	0.377414	-0.000004
C34	C	2.606679	0.877414	0.499996
C35	C	2.278038	0.398393	-0.000016
C36	C	2.778038	0.898393	0.499984
C37	C	1.815042	0.561313	-0.000020
C38	C	2.315042	1.061313	0.499980
C39	C	1.819148	0.687757	-0.000031
C40	C	2.319148	1.187757	0.499969
N41	N	1.869362	0.326532	0.452510
N42	N	2.369362	0.826532	0.952510
N43	N	1.779777	0.383158	-0.452515
N44	N	2.279777	0.883158	0.047485
H45	H	1.329479	0.489005	-0.000011
H46	H	1.829479	0.989005	0.499989
Cl47	Cl	1.636427	0.473757	0.421423
Cl48	Cl	2.136427	0.973757	0.921423
H49	H	1.962223	0.267859	0.534172
H50	H	2.462223	0.767859	1.034172
H51	H	1.319649	0.220702	-0.000048
H52	H	1.819649	0.720702	0.499952
