data_functionalizedCrystal
_audit_creation_method	'MofGen! by Chris Wilmer'
_symmetry_space_group_name_H-M	'P1'
_symmetry_Int_Tables_number	1
_symmetry_cell_setting	triclinic
loop_
_symmetry_equiv_pos_as_xyz
  x,y,z
_cell_length_a	15.538191
_cell_length_b	17.019234
_cell_length_c	14.185569
_cell_angle_alpha	73.119618
_cell_angle_beta	97.875798
_cell_angle_gamma	65.374203
loop_
_atom_site_label
_atom_site_type_symbol
_atom_site_fract_x
_atom_site_fract_y
_atom_site_fract_z
O1	O	1.234155	-0.238223	-0.062843
O2	O	0.957694	-0.144776	-0.070918
O3	O	1.106251	-0.311516	-0.056502
O4	O	1.085597	-0.071483	-0.077258
O5	O	1.150136	-0.360768	0.114590
O6	O	1.001579	-0.194028	0.100175
O7	O	1.278040	-0.287475	0.108250
Cu8	Cu	1.143816	-0.245249	0.119835
Cu9	Cu	1.091917	-0.187002	-0.082502
O10	O	1.129482	-0.120735	0.093835
C11	C	0.944310	-0.159625	0.013784
C12	C	0.839050	-0.130502	0.011267
C13	C	0.558078	-0.419828	0.036270
C14	C	0.459166	-0.392442	0.033901
C15	C	0.433091	-0.238402	0.020582
C16	C	0.532004	-0.265777	0.022954
C17	C	0.594490	-0.356491	0.030797
C18	C	0.568416	-0.202440	0.017482
C19	C	0.667319	-0.229811	0.019849
C20	C	0.729810	-0.320520	0.027689
C21	C	0.693393	-0.383862	0.033165
C22	C	0.505926	-0.111724	0.009631
C23	C	0.542338	-0.048387	0.004159
C24	C	0.641245	-0.075760	0.006533
C25	C	0.703736	-0.166469	0.014373
C26	C	0.677662	-0.012417	0.001057
C27	C	0.776565	-0.039789	0.003424
C28	C	0.802638	-0.193840	0.016740
C29	C	1.128280	-0.366112	0.031633
C30	C	1.128525	-0.455408	0.039349
C31	C	1.131017	-0.961750	0.087617
C32	C	1.130797	-0.877851	0.080372
C33	C	1.106771	-0.809048	-0.016514
C34	C	1.082955	-0.824142	-0.106163
C35	C	1.083169	-0.908036	-0.098918
C36	C	1.104923	-0.554396	-0.043055
C37	C	1.104714	-0.470499	-0.050293
C38	C	1.152554	-0.524213	0.136243
C39	C	1.152771	-0.608109	0.143480
C40	C	1.128950	-0.623194	0.053831
C41	C	1.106549	-0.723291	-0.023921
C42	C	1.129166	-0.708947	0.061238
C43	C	1.291422	-0.272626	0.023546
C44	C	1.396681	-0.301746	0.026056
C45	C	1.107453	-0.066139	0.005697
C46	C	1.107205	0.023159	-0.002025
N47	N	1.180326	-0.286219	0.262148
N48	N	1.055415	-0.146041	-0.224815
C49	C	0.948149	-0.025705	0.607275
C50	C	0.975811	-0.056736	0.714979
C51	C	1.107384	-0.204351	0.727702
C52	C	1.079730	-0.173335	0.619997
C53	C	1.000112	-0.084010	0.559792
C54	C	1.131693	-0.231640	0.572514
C55	C	1.104044	-0.200623	0.464818
C56	C	1.024431	-0.111302	0.404605
C57	C	0.972463	-0.052994	0.452096
C58	C	1.211315	-0.320961	0.632721
C59	C	1.263278	-0.379266	0.585237
C60	C	1.235624	-0.348252	0.477540
C61	C	1.156012	-0.258931	0.417327
C62	C	1.287593	-0.406560	0.430049
C63	C	1.259944	-0.375543	0.322353
C64	C	1.128363	-0.227914	0.309631
H65	H	0.608960	-0.493698	0.042663
C66	C	1.373976	-0.503521	0.495602
C67	C	1.387057	-0.518210	0.600081
C68	C	1.466617	-0.607525	0.660497
H69	H	1.432607	-0.508180	0.478894
H70	H	1.360430	-0.549489	0.482430
H71	H	1.400610	-0.472256	0.613246
H72	H	1.328448	-0.513570	0.616820
H73	H	1.453070	-0.653493	0.647326
H74	H	1.525241	-0.612176	0.643780
H75	H	1.475497	-0.617507	0.731392
C76	C	0.861817	0.071307	0.541765
C77	C	0.895286	0.123939	0.476893
C78	C	0.815787	0.213300	0.416520
H79	H	0.834760	0.101714	0.585338
H80	H	0.812244	0.065813	0.501225
H81	H	0.944841	0.129436	0.517429
H82	H	0.922334	0.093560	0.433299
H83	H	0.766215	0.207807	0.375980
H84	H	0.788736	0.243699	0.460101
H85	H	0.838483	0.249019	0.372491
H86	H	1.085534	-0.566669	-0.116054
C87	C	0.419832	-0.461366	0.039906
C88	C	0.495733	-0.546670	0.047303
C89	C	0.459537	-0.610184	0.052845
H90	H	0.366511	-0.436835	-0.020379
H91	H	0.397128	-0.471128	0.098951
H92	H	0.518422	-0.536906	-0.011736
H93	H	0.549060	-0.571227	0.107587
H94	H	0.436833	-0.619946	0.111890
H95	H	0.406216	-0.585645	-0.007442
H96	H	0.511032	-0.668072	0.057874
H97	H	1.328106	-0.451993	0.634269
H98	H	1.233826	-0.346209	0.720413
C99	C	1.178989	-0.682915	0.248637
C100	C	1.262278	-0.765571	0.261132
C101	C	1.286448	-0.834499	0.357989
H102	H	1.124705	-0.694539	0.253466
H103	H	1.193187	-0.661981	0.301042
H104	H	1.248075	-0.786502	0.208742
H105	H	1.316580	-0.753978	0.256324
H106	H	1.300646	-0.813565	0.410394
H107	H	1.232159	-0.846114	0.362809
H108	H	1.342967	-0.890586	0.366483
H109	H	1.063388	-0.768114	-0.185051
H110	H	1.085148	-0.414477	-0.129194
H111	H	1.171946	-0.511921	0.209230
H112	H	1.063524	-0.155181	0.260609
C113	C	0.886131	0.044018	0.386585
C114	C	0.919601	0.096650	0.321714
C115	C	0.840101	0.186012	0.261340
H116	H	0.859074	0.074425	0.430158
H117	H	0.836559	0.038525	0.346045
H118	H	0.969155	0.102147	0.362250
H119	H	0.946648	0.066272	0.278119
H120	H	0.790529	0.180518	0.220801
H121	H	0.813050	0.216410	0.304922
H122	H	0.862797	0.221730	0.217312
H123	H	1.063774	-0.920318	-0.171915
C124	C	1.155080	-0.783662	0.166356
C125	C	1.074838	-0.800500	0.173104
C126	C	1.098681	-0.869338	0.269918
H127	H	1.169207	-0.762760	0.218804
H128	H	1.211553	-0.839849	0.174996
H129	H	1.018382	-0.744324	0.164475
H130	H	1.060699	-0.821415	0.120679
H131	H	1.155155	-0.925525	0.278558
H132	H	1.112809	-0.848429	0.322358
H133	H	1.044246	-0.880777	0.274506
C134	C	0.919224	0.006688	0.766342
C135	C	0.843566	0.091539	0.690562
C136	C	0.791410	0.149980	0.737839
H137	H	0.963213	0.018455	0.806292
H138	H	0.891160	-0.022992	0.809857
H139	H	0.871629	0.121213	0.647065
H140	H	0.799555	0.079801	0.650608
H141	H	0.763346	0.120300	0.781355
H142	H	0.835407	0.161740	0.777788
H143	H	0.740064	0.207555	0.686431
C144	C	0.609965	0.086054	-0.007309
C145	C	0.648737	0.100541	0.077258
C146	C	0.586410	0.191247	0.069577
H147	H	0.545824	0.093396	-0.007899
H148	H	0.605541	0.130420	-0.069294
H149	H	0.653149	0.056188	0.139227
H150	H	0.712870	0.093218	0.077865
H151	H	0.581986	0.235612	0.007593
H152	H	0.522272	0.198581	0.068985
H153	H	0.612712	0.201091	0.126949
H154	H	0.382201	-0.164542	0.014191
H155	H	1.172212	-0.277079	0.776734
C156	C	1.080391	-0.648455	-0.129036
C157	C	0.997130	-0.565786	-0.141507
C158	C	0.973032	-0.496822	-0.238313
H159	H	1.066181	-0.669304	-0.181505
H160	H	1.134734	-0.636890	-0.133765
H161	H	0.942799	-0.577351	-0.136788
H162	H	1.011317	-0.544909	-0.089061
H163	H	1.027376	-0.485257	-0.243043
H164	H	0.958827	-0.517680	-0.290775
H165	H	0.916544	-0.440721	-0.246784
H166	H	1.001923	-0.086047	0.316912
H167	H	1.302259	-0.423021	0.283692
H168	H	0.425393	-0.089441	0.007701
H169	H	0.853520	-0.267710	0.023133
C170	C	0.474352	0.050042	-0.004297
C171	C	0.379948	0.060452	-0.005174
C172	C	0.317300	0.151107	-0.012945
H173	H	0.469781	0.094473	-0.066297
H174	H	0.500458	0.060038	0.053045
H175	H	0.353848	0.050465	-0.062511
H176	H	0.384487	0.016042	0.056820
H177	H	0.343407	0.161103	0.044397
H178	H	0.312738	0.195531	-0.074945
H179	H	0.253243	0.158179	-0.013532
H180	H	0.806213	0.011784	-0.001023
H181	H	1.150585	-1.017768	0.166512
H182	H	0.810339	-0.342800	0.029602
H183	H	0.744274	-0.457732	0.039557
H184	H	1.150200	-0.865576	0.153369
