data_functionalizedCrystal
_audit_creation_method	'MofGen! by Chris Wilmer'
_symmetry_space_group_name_H-M	'P1'
_symmetry_Int_Tables_number	1
_symmetry_cell_setting	triclinic
loop_
_symmetry_equiv_pos_as_xyz
  x,y,z
_cell_length_a	21.295418
_cell_length_b	18.050591
_cell_length_c	18.050583
_cell_angle_alpha	90.027308
_cell_angle_beta	89.965047
_cell_angle_gamma	89.979518
loop_
_atom_site_label
_atom_site_type_symbol
_atom_site_fract_x
_atom_site_fract_y
_atom_site_fract_z
Zn1	Zn	-0.250704	-1.135321	-0.420079
Zn2	Zn	0.249296	-0.635321	0.079921
Zn3	Zn	-0.355983	-1.135226	-0.295884
Zn4	Zn	0.144017	-0.635226	0.204116
Zn5	Zn	-0.250719	-1.011133	-0.295884
Zn6	Zn	0.249281	-0.511133	0.204116
Zn7	Zn	-0.355926	-1.011090	-0.420013
Zn8	Zn	0.144074	-0.511090	0.079987
O9	O	-0.303333	-1.073193	-0.357965
O10	O	0.196667	-0.573193	0.142035
O11	O	-0.264687	-1.239233	-0.403633
O12	O	0.235313	-0.739233	0.096367
O13	O	-0.342050	-1.118743	-0.191959
O14	O	0.157950	-0.618743	0.308041
O15	O	-0.162628	-1.027665	-0.312386
O16	O	0.337372	-0.527665	0.187614
O17	O	-0.342035	-1.239163	-0.312387
O18	O	0.157965	-0.739163	0.187613
O19	O	-0.162617	-1.118905	-0.403632
O20	O	0.337383	-0.618905	0.096368
O21	O	-0.264713	-1.027573	-0.191959
O22	O	0.235287	-0.527573	0.308041
O23	O	-0.264658	-0.907203	-0.312322
O24	O	0.235342	-0.407203	0.187678
O25	O	-0.341938	-1.027591	-0.523946
O26	O	0.158062	-0.527591	-0.023946
O27	O	-0.341953	-0.907171	-0.403519
O28	O	0.158047	-0.407171	0.096481
O29	O	-0.264632	-1.118863	-0.523995
O30	O	0.235368	-0.618863	-0.023995
O31	O	-0.444065	-1.118702	-0.312322
O32	O	0.055935	-0.618702	0.187678
O33	O	-0.444023	-1.027499	-0.403519
O34	O	0.055977	-0.527499	0.096481
C35	C	-0.466885	-1.073106	-0.357930
C36	C	0.033115	-0.573106	0.142070
C37	C	-0.536853	-1.073137	-0.357939
C38	C	-0.036853	-0.573137	0.142061
C39	C	-0.303301	-0.880241	-0.357914
C40	C	0.196699	-0.380241	0.142086
C41	C	-0.303303	-0.797695	-0.357909
C42	C	0.196697	-0.297695	0.142091
C43	C	-1.036312	-1.120860	-0.310599
C44	C	-0.536312	-0.620860	0.189401
C45	C	-0.970569	-1.120832	-0.310581
C46	C	-0.470569	-0.620832	0.189419
C47	C	-0.937692	-1.073297	-0.358017
C48	C	-0.437692	-0.573297	0.141983
C49	C	-0.970563	-1.025774	-0.405461
C50	C	-0.470563	-0.525774	0.094539
C51	C	-1.036305	-1.025798	-0.405472
C52	C	-0.536305	-0.525798	0.094528
N53	N	-0.834434	-1.067522	-0.423001
N54	N	-0.334434	-0.567522	0.076999
N55	N	-0.771983	-1.067503	-0.422988
N56	N	-0.271983	-0.567503	0.077012
C57	C	-0.739618	-1.073220	-0.357986
C58	C	-0.239618	-0.573220	0.142014
N59	N	-0.772063	-1.078970	-0.292995
N60	N	-0.272063	-0.578970	0.207005
N61	N	-0.834520	-1.078993	-0.293008
N62	N	-0.334520	-0.578993	0.206992
C63	C	-0.866407	-1.073265	-0.358010
C64	C	-0.366407	-0.573265	0.141990
C65	C	-0.635469	-1.120706	-0.310522
C66	C	-0.135469	-0.620706	0.189478
C67	C	-0.569725	-1.120672	-0.310504
C68	C	-0.069725	-0.620672	0.189496
C69	C	-0.569721	-1.025618	-0.405390
C70	C	-0.069721	-0.525618	0.094610
C71	C	-0.635463	-1.025648	-0.405402
C72	C	-0.135463	-0.525648	0.094598
C73	C	-0.668333	-1.073196	-0.357969
C74	C	-0.168333	-0.573196	0.142031
C75	C	-0.261212	-0.598240	-0.308420
C76	C	0.238788	-0.098240	0.191580
C77	C	-0.318628	-0.548820	-0.290138
C78	C	0.181372	-0.048820	0.209862
C79	C	-0.303316	-0.646564	-0.357935
C80	C	0.196684	-0.146564	0.142065
C81	C	-0.245914	-0.548902	-0.376207
C82	C	0.254086	-0.048902	0.123793
C83	C	-0.303323	-0.500579	-0.357958
C84	C	0.196677	-0.000579	0.142042
C85	C	-0.360761	-0.598232	-0.339618
C86	C	0.139239	-0.098232	0.160382
C87	C	-0.288008	-0.598319	-0.425718
C88	C	0.211992	-0.098319	0.074282
C89	C	-0.345463	-0.548921	-0.407462
C90	C	0.154537	-0.048921	0.092538
C91	C	-0.303311	-0.730663	-0.357919
C92	C	0.196689	-0.230663	0.142081
C93	C	-0.303334	-0.416483	-0.357973
C94	C	0.196666	0.083517	0.142027
C95	C	-0.139143	-1.073300	-0.358017
C96	C	0.360857	-0.573300	0.141983
C97	C	-0.069175	-1.073346	-0.358039
C98	C	0.430825	-0.573346	0.141961
C99	C	-0.303277	-1.073233	-0.551671
C100	C	0.196723	-0.573233	-0.051671
C101	C	-0.303253	-1.073250	-0.634217
C102	C	0.196747	-0.573250	-0.134217
C103	C	-0.303355	-0.266898	-0.358004
C104	C	0.196645	0.233102	0.141996
C105	C	-0.303336	-0.349444	-0.357986
C106	C	0.196664	0.150556	0.142014
C107	C	-0.261171	-1.122930	-0.883069
C108	C	0.238829	-0.622930	-0.383069
C109	C	-0.318611	-1.141053	-0.833655
C110	C	0.181389	-0.641053	-0.333655
C111	C	-0.303213	-1.073298	-0.931337
C112	C	0.196787	-0.573298	-0.431337
C113	C	-0.245796	-1.055187	-0.833670
C114	C	0.254204	-0.555187	-0.333670
C115	C	-0.303230	-1.073276	-0.785352
C116	C	0.196770	-0.573276	-0.285352
C117	C	-0.360683	-1.091456	-0.883010
C118	C	0.139317	-0.591456	-0.383010
C119	C	-0.287829	-1.005558	-0.883029
C120	C	0.212171	-0.505558	-0.383029
C121	C	-0.345309	-1.023655	-0.833637
C122	C	0.154691	-0.523655	-0.333637
C123	C	-0.303202	-1.073312	-1.015435
C124	C	0.196798	-0.573312	-0.515435
C125	C	-0.303246	-1.073262	-0.701255
C126	C	0.196754	-0.573262	-0.201255
C127	C	-0.303344	-1.073195	-0.165013
C128	C	0.196656	-0.573195	0.334987
C129	C	-0.303190	-1.073322	-0.082468
C130	C	0.196810	-0.573322	0.417532
H131	H	-1.063070	-1.159575	-0.271973
H132	H	-0.563070	-0.659575	0.228027
N133	N	-0.936984	-0.977231	-0.453928
N134	N	-0.436984	-0.477231	0.046072
N135	N	-0.944281	-0.982118	-0.522463
N136	N	-0.444281	-0.482118	-0.022463
H137	H	-0.920565	-0.947832	-0.556694
H138	H	-0.420565	-0.447832	-0.056694
H139	H	-0.197373	-0.527195	-0.391626
H140	H	0.302627	-0.027195	0.108374
H141	H	-0.331633	-1.198330	-0.811964
H142	H	0.168367	-0.698330	-0.311964
H143	H	-0.542953	-0.986912	-0.444010
H144	H	-0.042953	-0.486912	0.055990
H145	H	-0.225655	-1.164944	-0.904772
H146	H	0.274345	-0.664944	-0.404772
N147	N	-0.937000	-1.169370	-0.262112
N148	N	-0.437000	-0.669370	0.237888
N149	N	-0.966356	-1.211815	-0.219764
N150	N	-0.466356	-0.711815	0.280236
H151	H	-0.942651	-1.246097	-0.185533
H152	H	-0.442651	-0.746097	0.314467
H153	H	-0.409257	-1.106848	-0.904593
H154	H	0.090743	-0.606848	-0.404593
N155	N	-0.389974	-0.970992	-0.806588
N156	N	0.110026	-0.470992	-0.306588
N157	N	-0.446793	-0.977757	-0.822543
N158	N	0.053207	-0.477757	-0.322543
H159	H	-0.478340	-0.940566	-0.803439
H160	H	0.021660	-0.440566	-0.303439
N161	N	-0.271466	-0.933725	-0.910254
N162	N	0.228534	-0.433725	-0.410254
N163	N	-0.219342	-0.906102	-0.894478
N164	N	0.280658	-0.406102	-0.394478
H165	H	-0.207778	-0.855370	-0.913707
H166	H	0.292222	-0.355370	-0.413707
H167	H	-0.225648	-0.619894	-0.266505
H168	H	0.274352	-0.119894	0.233495
H169	H	-0.197233	-1.039878	-0.811993
H170	H	0.302767	-0.539878	-0.311993
H171	H	-1.063062	-0.987107	-0.444106
H172	H	-0.563062	-0.487107	0.055894
N173	N	-0.669040	-1.169268	-0.262061
N174	N	-0.169040	-0.669268	0.237939
N175	N	-0.639686	-1.211680	-0.219695
N176	N	-0.139686	-0.711680	0.280305
H177	H	-0.663394	-1.245975	-0.185465
H178	H	-0.163394	-0.745975	0.314535
H179	H	-0.662221	-0.986959	-0.444036
H180	H	-0.162221	-0.486959	0.055964
N181	N	-0.536164	-1.169208	-0.262030
N182	N	-0.036164	-0.669208	0.237970
N183	N	-0.565523	-1.211653	-0.219685
N184	N	-0.065523	-0.711653	0.280315
H185	H	-0.541820	-1.245932	-0.185449
H186	H	-0.041820	-0.745932	0.314551
H187	H	-0.331582	-0.527079	-0.232825
H188	H	0.168418	-0.027079	0.267175
H189	H	-0.409322	-0.619810	-0.324109
H190	H	0.090678	-0.119810	0.175891
H191	H	-0.381113	-0.527403	-0.449345
H192	H	0.118887	-0.027403	0.050655
N193	N	-0.271731	-0.625608	-0.497596
N194	N	0.228269	-0.125608	0.002404
N195	N	-0.219639	-0.609847	-0.525364
N196	N	0.280361	-0.109847	-0.025364
H197	H	-0.208137	-0.629121	-0.576129
H198	H	0.291863	-0.129121	-0.076129
