data_functionalizedCrystal
_audit_creation_method	'MofGen! by Chris Wilmer'
_symmetry_space_group_name_H-M	'P1'
_symmetry_Int_Tables_number	1
_symmetry_cell_setting	triclinic
loop_
_symmetry_equiv_pos_as_xyz
  x,y,z
_cell_length_a	14.809374
_cell_length_b	14.809374
_cell_length_c	23.196401
_cell_angle_alpha	65.416661
_cell_angle_beta	90.013004
_cell_angle_gamma	57.530506
loop_
_atom_site_label
_atom_site_type_symbol
_atom_site_fract_x
_atom_site_fract_y
_atom_site_fract_z
Zr1	Zr	1.106517	0.651442	0.066797
O2	O	0.975889	0.841336	-0.015565
O3	O	1.126972	0.482753	0.079694
O4	O	1.155173	0.642079	-0.022766
O5	O	0.947727	0.682001	0.181769
O6	O	1.318879	0.610572	-0.014396
O7	O	0.947688	0.682010	0.086895
O8	O	1.268433	0.325566	0.168887
O9	O	0.998173	0.967006	-0.001515
O10	O	1.281536	0.520770	0.106364
O11	O	1.159393	0.544276	0.170920
O12	O	1.192596	0.731862	0.050286
O13	O	1.070452	0.755369	0.114843
Zr14	Zr	1.367672	0.601176	0.231459
Zr15	Zr	1.367610	0.601191	0.080147
Zr16	Zr	1.106579	0.651427	0.218109
Zr17	Zr	1.142058	0.851871	0.089206
Zr18	Zr	1.332131	0.400747	0.209050
O19	O	1.347218	0.769865	0.218562
O20	O	1.347130	0.769886	0.003416
O21	O	0.975977	0.841315	0.199581
O22	O	1.498301	0.411281	0.313821
O23	O	1.498213	0.411303	0.098675
O24	O	1.127060	0.482732	0.294840
O25	O	1.526463	0.570617	0.116487
O26	O	1.319017	0.610538	0.321022
O27	O	1.155310	0.642046	0.312652
O28	O	1.526502	0.570608	0.211361
O29	O	1.205707	0.927064	0.009096
O30	O	1.268482	0.325554	0.289160
O31	O	1.476016	0.285612	0.299771
O32	O	1.475967	0.285624	0.179498
O33	O	0.998222	0.966994	0.118758
O34	O	1.205757	0.927052	0.129369
O35	O	1.281594	0.520755	0.247970
O36	O	1.403737	0.497249	0.183413
O37	O	1.314797	0.708342	0.127336
O38	O	1.192654	0.731848	0.191892
C39	C	1.192639	0.375603	0.121098
C40	C	1.177550	0.290516	0.111585
C41	C	1.244887	0.170285	0.154041
C42	C	1.229294	0.082341	0.144209
C43	C	0.910507	0.689165	0.132430
C44	C	0.799666	0.710498	0.126763
C45	C	0.794370	0.615292	0.152055
C46	C	0.679811	0.637338	0.146198
C47	C	1.563682	0.563453	0.165826
C48	C	1.674523	0.542120	0.171493
C49	C	1.237017	0.626328	-0.040140
C50	C	1.236991	0.626334	-0.104376
C51	C	1.281551	0.877015	0.177158
C52	C	1.296639	0.962102	0.186671
C53	C	1.190571	0.736518	-0.163821
C54	C	1.190602	0.736514	-0.224174
C55	C	1.237036	0.626323	-0.225080
C56	C	1.283468	0.516123	-0.165624
C57	C	1.283446	0.516129	-0.105271
C58	C	1.214675	0.553052	-0.301247
C59	C	1.214689	0.553052	-0.361600
C60	C	1.237112	0.626300	-0.411225
C61	C	1.259498	0.699571	-0.400496
C62	C	1.259475	0.699576	-0.340144
C63	C	1.237066	0.626304	-0.290519
C64	C	1.190723	0.736486	-0.536114
C65	C	1.190762	0.736476	-0.596467
C66	C	1.283620	0.516084	-0.537915
C67	C	1.283589	0.516096	-0.477563
C68	C	1.237135	0.626301	-0.476667
C69	C	1.237172	0.626290	0.338396
C70	C	1.237199	0.626284	0.402632
C71	C	1.519226	0.312747	0.137796
C72	C	1.614979	0.206327	0.133950
C73	C	1.192716	0.375584	0.310366
C74	C	1.177654	0.290490	0.365088
C75	C	1.519304	0.312728	0.327064
C76	C	1.615083	0.206301	0.387454
C77	C	0.954886	0.939890	-0.028808
C78	C	0.859107	1.046317	-0.089198
C79	C	0.954963	0.939871	0.160460
C80	C	0.859211	1.046291	0.164306
C81	C	1.281474	0.877034	-0.012110
C82	C	1.296535	0.962128	-0.066832
C83	C	1.234369	0.238252	0.431012
C84	C	1.220214	0.158309	0.482437
C85	C	1.149350	0.130600	0.467936
C86	C	1.092629	0.182848	0.402006
C87	C	1.106778	0.262796	0.350583
C88	C	1.723830	0.144050	0.382116
C89	C	1.813837	0.044060	0.438855
C90	C	1.795093	0.006318	0.500929
C91	C	1.686334	0.068580	0.506266
C92	C	1.596331	0.168573	0.449529
C93	C	0.750361	1.108578	-0.083859
C94	C	0.660359	1.208592	-0.140595
C95	C	0.679104	1.246338	-0.202669
C96	C	0.787861	1.184072	-0.208006
C97	C	0.877862	1.084065	-0.151270
C98	C	1.367407	0.989809	-0.052311
C99	C	1.381581	1.069749	-0.103723
C100	C	1.324876	1.122012	-0.169656
C101	C	1.254001	1.094323	-0.184176
C102	C	1.239834	1.014378	-0.132765
C103	C	1.647690	0.087102	0.176671
C104	C	1.737647	-0.012900	0.173058
C105	C	1.794898	0.006324	0.126726
C106	C	1.762180	0.125562	0.084000
C107	C	1.672219	0.225562	0.087611
C108	C	0.801987	1.027027	0.210645
C109	C	0.712025	1.127007	0.214273
C110	C	0.679284	1.246251	0.171557
C111	C	0.736517	1.265513	0.125216
C112	C	0.826482	1.165533	0.121592
H113	H	0.874647	0.517462	0.178047
H114	H	1.868389	-0.075105	0.547123
C115	C	1.135810	0.133459	0.085267
N116	N	1.065401	0.171958	0.040872
H117	H	0.599535	0.735176	0.120208
C118	C	1.933460	-0.024420	0.432969
N119	N	2.023557	-0.076000	0.428533
C120	C	0.808461	1.225598	-0.276296
N121	N	0.823972	1.256872	-0.327734
H122	H	0.828628	0.929941	0.245429
C123	C	1.284115	0.780159	-0.328340
N124	N	1.302680	0.840850	-0.319448
H125	H	0.719389	0.808328	0.100775
H126	H	0.571812	1.259275	-0.136237
C127	C	1.312320	0.268723	0.446979
N128	N	1.371029	0.291674	0.459012
C129	C	1.825173	0.146687	0.033041
N130	N	1.872628	0.162594	-0.005339
H131	H	0.665435	1.111300	0.252008
H132	H	1.336422	1.187107	-0.211512
H133	H	1.365832	-0.075734	0.230304
H134	H	0.735076	1.077854	-0.033321
C135	C	1.191676	1.151776	-0.256709
N136	N	1.144745	1.195039	-0.311343
H137	H	1.321384	0.426373	-0.429160
C138	C	0.782969	0.409944	0.206607
N139	N	0.864651	0.310390	0.233054
H140	H	1.034931	0.160275	0.390208
C141	C	1.084072	0.341625	0.052645
N142	N	1.013662	0.380124	0.008250
C143	C	1.161851	0.983957	-0.148749
N144	N	1.103108	0.961052	-0.160794
C145	C	1.893861	-0.103694	0.122766
N146	N	1.968402	-0.186565	0.119788
H147	H	1.671089	0.037835	0.556815
H148	H	1.314075	0.132459	0.197669
H149	H	1.645598	0.322637	0.052822
C150	C	1.282630	0.100837	0.554955
N151	N	1.329645	0.057547	0.609574
C152	C	1.133809	0.042640	0.524510
N153	N	1.122113	-0.023619	0.567124
H154	H	1.601086	0.071426	0.214401
H155	H	1.196407	0.493407	-0.260846
C156	C	0.580210	1.356240	0.175484
N157	N	0.505547	1.439087	0.178420
C158	C	1.044394	0.320236	0.278066
N159	N	0.997404	0.363496	0.223446
C160	C	1.429802	0.932325	0.020211
N161	N	1.476808	0.889026	0.074834
H162	H	0.605809	1.327772	-0.248862
C163	C	0.700472	1.396696	0.078223
N164	N	0.673311	1.495507	0.042823
H165	H	1.439292	1.092283	-0.091887
H166	H	1.507786	0.219248	0.453883
H167	H	1.196455	0.493396	-0.370331
H168	H	0.966405	1.033372	-0.155625
H169	H	1.764273	-0.109980	0.207853
H170	H	0.873065	1.181237	0.083855
C171	C	1.139636	0.857711	-0.535126
N172	N	1.101159	0.949018	-0.534384
C173	C	1.139533	0.857730	-0.289574
N174	N	1.101068	0.949030	-0.338832
C175	C	1.284168	0.780147	-0.455079
N176	N	1.302749	0.840835	-0.496194
H177	H	1.152749	0.826255	-0.163097
H178	H	1.152966	0.826204	-0.644871
H179	H	1.321276	0.426405	-0.166365
C180	C	1.334506	0.394914	-0.039878
N181	N	1.372961	0.303613	0.009378
H182	H	1.321429	0.426364	-0.538651
C183	C	1.744477	0.185551	0.313840
N184	N	1.760039	0.216809	0.262416
