data_functionalizedCrystal
_audit_creation_method	'MofGen! by Chris Wilmer'
_symmetry_space_group_name_H-M	'P1'
_symmetry_Int_Tables_number	1
_symmetry_cell_setting	triclinic
loop_
_symmetry_equiv_pos_as_xyz
  x,y,z
_cell_length_a	12.645330
_cell_length_b	13.897449
_cell_length_c	13.897441
_cell_angle_alpha	89.981404
_cell_angle_beta	89.973671
_cell_angle_gamma	90.018972
loop_
_atom_site_label
_atom_site_type_symbol
_atom_site_fract_x
_atom_site_fract_y
_atom_site_fract_z
Zn1	Zn	-0.421980	1.474682	-0.545403
Zn2	Zn	-0.599272	1.474582	-0.384114
Zn3	Zn	-0.422027	1.313377	-0.384122
Zn4	Zn	-0.599205	1.313353	-0.545367
O5	O	-0.510621	1.393999	-0.464751
O6	O	-0.445506	1.609651	-0.524020
O7	O	-0.575808	1.453166	-0.249133
O8	O	-0.273673	1.334827	-0.405535
O9	O	-0.575762	1.609577	-0.405521
O10	O	-0.273639	1.453337	-0.524028
O11	O	-0.445587	1.334730	-0.249139
O12	O	-0.445522	1.178393	-0.405499
O13	O	-0.575648	1.334785	-0.680353
O14	O	-0.575694	1.178375	-0.523965
O15	O	-0.445441	1.453313	-0.680380
O16	O	-0.747610	1.453143	-0.405486
O17	O	-0.747561	1.334689	-0.523957
C18	C	-0.510607	1.143384	-0.464729
C19	C	-0.510626	1.036171	-0.464743
C20	C	-0.786051	1.393928	-0.464738
C21	C	-0.903881	1.393987	-0.464764
C22	C	-0.510630	0.839875	-0.464768
C23	C	-0.510625	0.949108	-0.464751
C24	C	-1.071458	1.319774	-0.539525
C25	C	-0.948899	1.319395	-0.539284
C26	C	-0.948478	1.366471	-0.363109
C27	C	-1.071077	1.366018	-0.363563
C28	C	-1.070967	1.496168	-0.490835
C29	C	-0.948360	1.495542	-0.493058
C30	C	-0.234116	1.394096	-0.464786
C31	C	-0.116286	1.394137	-0.464801
C32	C	-0.510532	1.394058	-0.716344
C33	C	-0.510494	1.394083	-0.823558
C34	C	-0.510636	1.645592	-0.464774
C35	C	-0.510642	1.752806	-0.464784
C36	C	-0.510464	1.394103	-0.910628
C37	C	-0.510416	1.394130	-1.019861
C38	C	-0.510633	1.393995	-0.214137
C39	C	-0.510372	1.394157	-0.106924
H40	H	-0.918742	1.336610	-0.614661
F41	F	-0.910369	1.435019	-0.288346
H42	H	-0.917870	1.292663	-0.340655
H43	H	-0.919207	1.516293	-0.567871
H44	H	-0.917709	1.553863	-0.442596
F45	F	-1.108873	1.568587	-0.419711
F46	F	-1.111277	1.528978	-0.586078
H47	H	-1.100867	1.336831	-0.615149
H48	H	-0.919666	1.243753	-0.522036
F49	F	-1.111869	1.221525	-0.517285
F50	F	-1.108585	1.268530	-0.334736
F51	F	-1.109845	1.433732	-0.288305
