data_functionalizedCrystal
_audit_creation_method	'MofGen! by Chris Wilmer'
_symmetry_space_group_name_H-M	'P1'
_symmetry_Int_Tables_number	1
_symmetry_cell_setting	triclinic
loop_
_symmetry_equiv_pos_as_xyz
  x,y,z
_cell_length_a	11.792254
_cell_length_b	11.792253
_cell_length_c	14.421503
_cell_angle_alpha	90.003475
_cell_angle_beta	90.007906
_cell_angle_gamma	95.801402
loop_
_atom_site_label
_atom_site_type_symbol
_atom_site_fract_x
_atom_site_fract_y
_atom_site_fract_z
O1	O	1.506888	-0.155626	-0.077123
O2	O	2.006888	0.344374	0.422877
O3	O	1.176549	-0.171644	-0.077127
O4	O	1.676549	0.328356	0.422873
O5	O	1.349728	0.001534	-0.077106
O6	O	1.849728	0.501534	0.422894
O7	O	1.333710	-0.328804	-0.077144
O8	O	1.833710	0.171196	0.422856
O9	O	1.349751	0.001521	0.077118
O10	O	1.849751	0.501521	0.577118
O11	O	1.176573	-0.171657	0.077097
O12	O	1.676573	0.328343	0.577097
O13	O	1.506912	-0.155639	0.077100
O14	O	2.006912	0.344361	0.577100
Cu15	Cu	1.341745	-0.163649	0.091180
Cu16	Cu	1.841745	0.336351	0.591180
Cu17	Cu	1.341716	-0.163634	-0.091207
Cu18	Cu	1.841716	0.336366	0.408793
O19	O	1.333733	-0.328817	0.077079
O20	O	1.833733	0.171183	0.577079
C21	C	1.134271	-0.170642	-0.000015
C22	C	1.634271	0.329358	0.499985
C23	C	1.008257	-0.167621	-0.000015
C24	C	1.508257	0.332379	0.499985
C25	C	1.348730	0.043818	0.000009
C26	C	1.848730	0.543818	0.500009
C27	C	1.345710	0.169832	0.000018
C28	C	1.845710	0.669832	0.500018
C29	C	0.905921	-0.165168	-0.000019
C30	C	1.405921	0.334832	0.499981
C31	C	0.777534	-0.162099	-0.000019
C32	C	1.277534	0.337901	0.499981
C33	C	1.549190	-0.156642	-0.000013
C34	C	2.049190	0.343358	0.499987
C35	C	1.675204	-0.159662	-0.000019
C36	C	2.175204	0.340338	0.499981
C37	C	1.343256	0.272168	0.000022
C38	C	1.843256	0.772168	0.500022
C39	C	1.340188	0.400555	0.000024
C40	C	1.840188	0.900555	0.500024
N41	N	1.341772	-0.163660	0.219462
N42	N	1.841772	0.336340	0.719462
C43	C	1.334731	0.628898	-0.000018
C44	C	1.834731	1.128898	0.499982
C45	C	1.337751	0.502885	0.000024
C46	C	1.837751	1.002885	0.500024
C47	C	1.421871	-0.083567	0.469100
C48	C	1.921871	0.416433	0.969100
C49	C	1.319177	-0.060889	0.530899
C50	C	1.819177	0.439111	1.030899
C51	C	1.341750	-0.163648	0.408623
C52	C	1.841750	0.336352	0.908623
C53	C	1.444423	-0.186261	0.530918
C54	C	1.944423	0.313739	1.030918
C55	C	1.341738	-0.163634	0.591344
C56	C	1.841738	0.336366	1.091344
C57	C	1.239004	-0.140919	0.469061
C58	C	1.739004	0.359081	0.969061
C59	C	1.364317	-0.266336	0.469074
C60	C	1.864317	0.233664	0.969074
C61	C	1.261549	-0.243701	0.530846
C62	C	1.761549	0.256299	1.030846
C63	C	1.341759	-0.163653	0.303362
C64	C	1.841759	0.336347	0.803362
C65	C	1.341717	-0.163630	0.696603
C66	C	1.841717	0.336370	1.196603
N67	N	1.341713	-0.163626	0.780512
N68	N	1.841713	0.336374	1.280512
H69	H	1.489554	-0.015806	0.441988
H70	H	1.989554	0.484194	0.941988
H71	H	1.152149	-0.121687	0.442005
H72	H	1.652149	0.378313	0.942005
H73	H	1.193714	-0.311420	0.557786
H74	H	1.693714	0.188580	1.057786
H75	H	1.383450	-0.353156	0.441898
H76	H	1.883450	0.146844	0.941898
H77	H	1.531256	-0.205395	0.558089
H78	H	2.031256	0.294605	1.058089
H79	H	1.300076	0.025958	0.558056
H80	H	1.800076	0.525958	1.058056
