data_functionalizedCrystal
_audit_creation_method	'MofGen! by Chris Wilmer'
_symmetry_space_group_name_H-M	'P1'
_symmetry_Int_Tables_number	1
_symmetry_cell_setting	triclinic
loop_
_symmetry_equiv_pos_as_xyz
  x,y,z
_cell_length_a	16.992698
_cell_length_b	16.053802
_cell_length_c	16.109301
_cell_angle_alpha	87.436620
_cell_angle_beta	92.935789
_cell_angle_gamma	87.242832
loop_
_atom_site_label
_atom_site_type_symbol
_atom_site_fract_x
_atom_site_fract_y
_atom_site_fract_z
O1	O	-1.043656	0.069450	0.172995
O2	O	-0.710323	0.402783	0.506329
O3	O	-0.376990	0.736116	0.839662
O4	O	-0.815371	0.069448	0.171064
O5	O	-0.482038	0.402781	0.504397
O6	O	-0.148705	0.736114	0.837731
O7	O	-0.935785	0.069440	0.051417
O8	O	-0.602451	0.402774	0.384751
O9	O	-0.269118	0.736107	0.718084
O10	O	-0.923243	0.069457	0.292642
O11	O	-0.589910	0.402791	0.625975
O12	O	-0.256576	0.736124	0.959308
O13	O	-0.929157	-0.069418	0.057974
O14	O	-0.595823	0.263915	0.391307
O15	O	-0.262490	0.597248	0.724641
O16	O	-0.808743	-0.069411	0.177621
O17	O	-0.475410	0.263923	0.510954
O18	O	-0.142077	0.597256	0.844287
O19	O	-1.037028	-0.069409	0.179552
O20	O	-0.703695	0.263925	0.512885
O21	O	-0.370362	0.597258	0.846219
Zn22	Zn	-0.921834	-0.091457	0.179627
Zn23	Zn	-0.588500	0.241877	0.512961
Zn24	Zn	-0.255167	0.575210	0.846294
Zn25	Zn	-0.930566	0.091496	0.170989
Zn26	Zn	-0.597233	0.424829	0.504322
Zn27	Zn	-0.263899	0.758162	0.837655
O28	O	-0.916615	-0.069401	0.299199
O29	O	-0.583282	0.263932	0.632532
O30	O	-0.249949	0.597265	0.965865
C31	C	-0.782845	0.000018	0.171855
C32	C	-0.449512	0.333352	0.505188
C33	C	-0.116179	0.666685	0.838521
C34	C	-0.695803	0.000017	0.164432
C35	C	-0.362470	0.333351	0.497766
C36	C	-0.029136	0.666684	0.831099
N37	N	-0.915880	-0.216316	0.185523
N38	N	-0.582546	0.117017	0.518856
N39	N	-0.249213	0.450350	0.852190
C40	C	-0.206856	0.000012	0.114560
C41	C	0.126477	0.333345	0.447894
C42	C	0.459811	0.666679	0.781227
C43	C	-0.288640	0.000008	0.121541
C44	C	0.044693	0.333342	0.454874
C45	C	0.378026	0.666675	0.788208
C46	C	-0.320164	0.000018	0.200148
C47	C	0.013169	0.333351	0.533481
C48	C	0.346503	0.666685	0.866814
C49	C	-0.269898	0.000023	0.271779
C50	C	0.063435	0.333356	0.605112
C51	C	0.396769	0.666690	0.938445
C52	C	-0.188115	0.000021	0.264797
C53	C	0.145219	0.333354	0.598131
C54	C	0.478552	0.666687	0.931464
C55	C	-0.563754	0.000020	0.229082
C56	C	-0.230420	0.333353	0.562415
C57	C	0.102913	0.666687	0.895749
C58	C	-0.645544	0.000025	0.236058
C59	C	-0.312210	0.333358	0.569391
C60	C	0.021123	0.666691	0.902724
C61	C	-0.664280	0.000009	0.085820
C62	C	-0.330947	0.333342	0.419153
C63	C	0.002386	0.666675	0.752486
C64	C	-0.582495	0.000011	0.078845
C65	C	-0.249162	0.333345	0.412178
C66	C	0.084172	0.666678	0.745512
C67	C	-0.532236	0.000012	0.150476
C68	C	-0.198903	0.333345	0.483809
C69	C	0.134431	0.666679	0.817143
N70	N	-0.403761	0.000017	0.207285
N71	N	-0.070427	0.333350	0.540618
N72	N	0.262906	0.666683	0.873952
N73	N	-0.448640	0.000007	0.143338
N74	N	-0.115307	0.333340	0.476672
N75	N	0.218026	0.666674	0.810005
C76	C	-0.967134	-0.260014	0.134634
C77	C	-0.633801	0.073320	0.467967
C78	C	-0.300468	0.406653	0.801300
C79	C	-0.962977	-0.347420	0.138766
C80	C	-0.629643	-0.014087	0.472100
C81	C	-0.296310	0.319247	0.805433
C82	C	-0.907568	-0.391128	0.193793
C83	C	-0.574234	-0.057795	0.527126
C84	C	-0.240901	0.275539	0.860459
C85	C	-0.856308	-0.347425	0.244684
C86	C	-0.522974	-0.014091	0.578017
C87	C	-0.189641	0.319242	0.911351
C88	C	-0.860462	-0.260020	0.240547
C89	C	-0.527129	0.073314	0.573880
C90	C	-0.193795	0.406647	0.907213
C91	C	-0.889421	-0.652536	0.211841
C92	C	-0.556087	-0.319203	0.545174
C93	C	-0.222754	0.014130	0.878508
C94	C	-0.885272	-0.739947	0.215976
C95	C	-0.551938	-0.406614	0.549309
C96	C	-0.218605	-0.073281	0.882643
C97	C	-0.991940	-0.739937	0.110057
C98	C	-0.658607	-0.406604	0.443390
C99	C	-0.325274	-0.073270	0.776723
C100	C	-0.996093	-0.652530	0.105928
C101	C	-0.662760	-0.319197	0.439261
C102	C	-0.329426	0.014136	0.772595
C103	C	-0.944830	-0.608835	0.156816
C104	C	-0.611497	-0.275501	0.490149
C105	C	-0.278164	0.057832	0.823483
N106	N	-0.903318	-0.480471	0.198020
N107	N	-0.569985	-0.147138	0.531353
N108	N	-0.236652	0.186195	0.864686
N109	N	-0.949076	-0.519493	0.152584
N110	N	-0.615743	-0.186159	0.485917
N111	N	-0.282410	0.147174	0.819251
C112	C	-0.069554	0.000020	0.178762
C113	C	0.263779	0.333354	0.512095
C114	C	0.597112	0.666687	0.845428
C115	C	-0.156596	0.000020	0.186186
C116	C	0.176737	0.333353	0.519519
C117	C	0.510070	0.666686	0.852853
C118	C	-0.931963	0.000011	0.023687
C119	C	-0.598629	0.333344	0.357020
C120	C	-0.265296	0.666677	0.690354
C121	C	-0.930439	0.000009	-0.068710
C122	C	-0.597106	0.333343	0.264623
C123	C	-0.263773	0.666676	0.597957
N124	N	-0.936526	0.216355	0.165087
N125	N	-0.603193	0.549689	0.498420
N126	N	-0.269860	0.883022	0.831753
C127	C	-0.998349	0.000023	-0.286452
C128	C	-0.665016	0.333357	0.046881
C129	C	-0.331683	0.666690	0.380215
C130	C	-0.996912	0.000030	-0.373269
C131	C	-0.663579	0.333363	-0.039935
C132	C	-0.330246	0.666697	0.293398
C133	C	-0.854045	0.000026	-0.362926
C134	C	-0.520712	0.333359	-0.029593
C135	C	-0.187379	0.666692	0.303741
C136	C	-0.855484	0.000025	-0.276111
C137	C	-0.522150	0.333358	0.057222
C138	C	-0.188817	0.666691	0.390555
C139	C	-0.927638	0.000019	-0.237877
C140	C	-0.594304	0.333353	0.095457
C141	C	-0.260971	0.666686	0.428790
C142	C	-0.924763	0.000027	-0.411508
C143	C	-0.591429	0.333360	-0.078175
C144	C	-0.258096	0.666694	0.255159
C145	C	-0.923204	0.000034	-0.505638
C146	C	-0.589871	0.333368	-0.172305
C147	C	-0.256537	0.666701	0.161028
C148	C	-0.929197	0.000013	-0.143740
C149	C	-0.595863	0.333347	0.189593
C150	C	-0.262530	0.666680	0.522926
C151	C	-0.920437	0.000030	0.326929
C152	C	-0.587104	0.333364	0.660262
C153	C	-0.253771	0.666697	0.993596
C154	C	-0.921961	0.000037	0.419325
C155	C	-0.588627	0.333370	0.752659
C156	C	-0.255294	0.666704	1.085992
H157	H	-0.181197	0.000010	0.050550
H158	H	0.152137	0.333343	0.383884
H159	H	0.485470	0.666676	0.717217
H160	H	-0.811188	-0.383017	0.289485
H161	H	-0.477855	-0.049683	0.622818
H162	H	-0.144522	0.283650	0.956151
F163	F	-1.017527	-0.393926	0.084603
F164	F	-0.684193	-0.060593	0.417937
F165	F	-0.350860	0.272741	0.751270
F166	F	-0.342127	-0.000004	0.045307
F167	F	-0.008794	0.333329	0.378640
F168	F	0.324540	0.666663	0.711974
F169	F	-1.072174	0.000036	-0.424963
F170	F	-0.738841	0.333369	-0.091630
F171	F	-0.405507	0.666703	0.241704
F172	F	-0.826295	-0.786459	0.274548
F173	F	-0.492961	-0.453126	0.607881
F174	F	-0.159628	-0.119792	0.941215
F175	F	-0.834866	-0.606039	0.266002
F176	F	-0.501532	-0.272706	0.599335
F177	F	-0.168199	0.060628	0.932668
H178	H	-0.705210	0.000007	0.027502
H179	H	-0.371876	0.333340	0.360835
H180	H	-0.038543	0.666674	0.694169
F181	F	-1.055066	-0.606014	0.047364
F182	F	-0.721733	-0.272681	0.380697
F183	F	-0.388399	0.060652	0.714031
F184	F	-0.780219	0.000027	-0.224410
F185	F	-0.446885	0.333360	0.108923
F186	F	-0.113552	0.666693	0.442256
F187	F	-1.026113	-0.213505	0.076071
F188	F	-0.692779	0.119829	0.409404
F189	F	-0.359446	0.453162	0.742737
F190	F	-0.303450	0.000031	0.355438
F191	F	0.029884	0.333364	0.688772
F192	F	0.363217	0.666697	1.022105
F193	F	-0.548953	0.000025	-0.004820
F194	F	-0.215620	0.333358	0.328513
F195	F	0.117714	0.666691	0.661847
F196	F	-1.046493	-0.786446	0.055900
F197	F	-0.713159	-0.453113	0.389233
F198	F	-0.379826	-0.119779	0.722566
H199	H	-1.057102	0.000021	-0.255324
H200	H	-0.723769	0.333354	0.078009
H201	H	-0.390435	0.666687	0.411342
F202	F	-0.679091	0.000034	0.319726
F203	F	-0.345757	0.333368	0.653059
F204	F	-0.012424	0.666701	0.986392
H205	H	-0.795300	0.000028	-0.394067
H206	H	-0.461967	0.333362	-0.060734
H207	H	-0.128633	0.666695	0.272599
F208	F	-0.510275	0.000029	0.305319
F209	F	-0.176942	0.333363	0.638652
F210	F	0.156392	0.666696	0.971986
F211	F	-0.134624	0.000024	0.341032
F212	F	0.198709	0.333357	0.674365
F213	F	0.532042	0.666691	1.007698
F214	F	-0.805907	-0.213515	0.294708
F215	F	-0.472574	0.119818	0.628041
F216	F	-0.139240	0.453151	0.961375
