data_functionalizedCrystal
_audit_creation_method	'MofGen! by Chris Wilmer'
_symmetry_space_group_name_H-M	'P1'
_symmetry_Int_Tables_number	1
_symmetry_cell_setting	triclinic
loop_
_symmetry_equiv_pos_as_xyz
  x,y,z
_cell_length_a	16.109301
_cell_length_b	16.992695
_cell_length_c	15.186229
_cell_angle_alpha	89.995943
_cell_angle_beta	89.999362
_cell_angle_gamma	87.064852
loop_
_atom_site_label
_atom_site_type_symbol
_atom_site_fract_x
_atom_site_fract_y
_atom_site_fract_z
O1	O	1.109856	0.100784	-0.073174
O2	O	0.868631	0.113326	-0.073188
O3	O	0.988276	-0.007088	-0.073174
O4	O	0.990210	0.221197	-0.073188
O5	O	0.988268	-0.007089	0.073284
O6	O	0.868622	0.113324	0.073270
O7	O	1.109847	0.100782	0.073284
Zn8	Zn	0.989233	0.107053	0.096530
Zn9	Zn	0.989245	0.107055	-0.096434
O10	O	0.990202	0.221196	0.073270
C11	C	0.837618	0.112817	0.000039
C12	C	0.745221	0.111294	0.000034
C13	C	0.527480	0.179203	0.000040
C14	C	0.440664	0.177766	0.000046
C15	C	0.451005	0.034899	0.000051
C16	C	0.537819	0.036337	0.000051
C17	C	0.576055	0.108492	0.000042
C18	C	0.402424	0.105616	0.000047
C19	C	0.308294	0.104057	0.000053
C20	C	0.670191	0.110051	0.000037
C21	C	0.985784	-0.036300	0.000055
C22	C	0.978361	-0.123343	0.000054
C23	C	1.049987	-0.173601	0.000059
C24	C	1.043007	-0.255386	0.000050
C25	C	0.964400	-0.286911	0.000043
C26	C	0.892768	-0.236645	0.000035
C27	C	0.899749	-0.154862	0.000038
C28	C	0.935467	-0.530501	0.000029
C29	C	0.928491	-0.612291	0.000029
C30	C	1.078731	-0.631026	0.000043
C31	C	1.085704	-0.549240	0.000051
C32	C	1.014073	-0.498982	0.000038
N33	N	0.957263	-0.370508	0.000037
N34	N	1.021210	-0.415387	0.000038
C35	C	1.140860	0.101291	0.000055
C36	C	1.233257	0.102814	0.000054
C37	C	0.992694	0.250408	0.000039
C38	C	1.000118	0.337451	0.000034
N39	N	0.989232	0.107051	0.228223
N40	N	0.989253	0.107051	-0.228127
C41	C	1.042231	0.053750	0.453952
C42	C	1.042234	0.053748	0.546141
C43	C	0.936247	0.160355	0.546138
C44	C	0.936241	0.160352	0.453950
C45	C	0.989238	0.107051	0.407859
C46	C	0.989246	0.107051	0.592237
C47	C	0.989249	0.107050	0.692193
C48	C	0.989235	0.107051	0.307897
H49	H	1.113997	-0.147941	0.000071
O50	O	1.093791	0.001943	0.590779
C51	C	1.140546	-0.045113	0.530325
H52	H	1.143616	-0.012964	0.464608
H53	H	1.206148	-0.057056	0.556958
H54	H	1.109684	-0.103369	0.520526
O55	O	1.093759	0.002062	0.409119
C56	C	1.147827	0.044033	0.355739
H57	H	1.153396	0.105864	0.383511
H58	H	1.211762	0.012021	0.354656
H59	H	1.122043	0.048152	0.285887
H60	H	0.893100	0.203753	0.583674
H61	H	0.419863	-0.023846	0.000064
O62	O	0.884735	0.212208	0.409306
C63	C	0.837950	0.259246	0.469753
H64	H	0.872097	0.260147	0.535466
H65	H	0.829424	0.321858	0.443106
H66	H	0.774500	0.233769	0.479566
H67	H	0.558608	0.237956	0.000039
H68	H	1.101332	-0.296304	0.000056
O69	O	0.393602	0.246528	0.000002
C70	C	0.445970	0.310517	0.000018
H71	H	0.509369	0.290599	-0.027711
H72	H	0.417271	0.360061	-0.042505
H73	H	0.453615	0.332632	0.070279
O74	O	1.148393	-0.679735	0.000084
C75	C	1.219269	-0.634372	0.000064
H76	H	1.202221	-0.573331	0.027796
H77	H	1.269790	-0.664558	0.042583
H78	H	1.243108	-0.628547	-0.070198
O79	O	0.584974	-0.032377	-0.000105
C80	C	0.566896	-0.076192	-0.075944
H81	H	0.540005	-0.034791	-0.128963
H82	H	0.626336	-0.107644	-0.101402
H83	H	0.519730	-0.121570	-0.058795
O84	O	1.162020	-0.518531	-0.000065
C85	C	1.170569	-0.471796	-0.075926
H86	H	1.106397	-0.451403	-0.101218
H87	H	1.207272	-0.418255	-0.058864
H88	H	1.204949	-0.507936	-0.129039
O89	O	0.830256	-0.105926	-0.000003
C90	C	0.853272	-0.026983	0.000020
H91	H	0.918786	-0.023865	-0.027701
H92	H	0.807955	0.010086	-0.042505
H93	H	0.851686	-0.003334	0.070283
H94	H	0.877139	-0.489590	0.000019
O95	O	0.852064	-0.642784	-0.000027
C96	C	0.790336	-0.580889	-0.000019
H97	H	0.817335	-0.525334	-0.027740
H98	H	0.735793	-0.597968	-0.042552
H99	H	0.767966	-0.569316	0.070239
O100	O	0.816473	-0.267396	0.000066
C101	C	0.825668	-0.350357	0.000046
H102	H	0.889270	-0.369582	0.027778
H103	H	0.775038	-0.375457	0.042564
H104	H	0.820131	-0.373118	-0.070217
