data_functionalizedCrystal
_audit_creation_method	'MofGen! by Chris Wilmer'
_symmetry_space_group_name_H-M	'P1'
_symmetry_Int_Tables_number	1
_symmetry_cell_setting	triclinic
loop_
_symmetry_equiv_pos_as_xyz
  x,y,z
_cell_length_a	38.066833
_cell_length_b	38.077713
_cell_length_c	38.067077
_cell_angle_alpha	59.999223
_cell_angle_beta	90.000726
_cell_angle_gamma	60.000126
loop_
_atom_site_label
_atom_site_type_symbol
_atom_site_fract_x
_atom_site_fract_y
_atom_site_fract_z
O1	O	-0.299394	-0.251383	0.010441
O2	O	-0.248315	-0.179464	-0.010408
O3	O	-0.248309	-0.251380	0.061526
O4	O	-0.299400	-0.179467	-0.061492
O5	O	-0.189880	-0.309788	0.061525
O6	O	-0.189886	-0.237873	-0.010408
O7	O	-0.240965	-0.309791	0.010441
Cu8	Cu	-0.210091	-0.279165	0.000016
Cu9	Cu	-0.279189	-0.210091	0.000017
O10	O	-0.240971	-0.237876	-0.061493
C11	C	-0.128206	-0.102969	-0.025261
C12	C	-0.149442	-0.060407	-0.025558
C13	C	-0.064589	-0.102976	-0.025258
C14	C	-0.085922	-0.060414	-0.025554
C15	C	-0.128200	-0.039378	-0.025258
C16	C	-0.085928	-0.123908	-0.025557
C17	C	-0.128046	-0.171864	-0.020102
C18	C	-0.148073	-0.195274	-0.016846
C19	C	-0.189965	-0.175175	-0.015213
C20	C	-0.211680	-0.200556	-0.011680
C21	C	-0.211837	-0.131662	-0.016839
C22	C	-0.191811	-0.108252	-0.020097
C23	C	-0.149916	-0.128355	-0.021727
C24	C	-0.191954	0.024196	-0.020097
C25	C	-0.212114	0.064370	-0.016838
C26	C	-0.190374	0.084515	-0.015201
C27	C	-0.212229	0.128072	-0.011665
C28	C	-0.148475	0.064494	-0.016827
C29	C	-0.128317	0.024324	-0.020088
C30	C	-0.150057	0.004175	-0.021721
C31	C	0.004162	-0.171877	-0.020095
C32	C	0.047608	-0.195297	-0.016830
C33	C	0.069400	-0.175204	-0.015194
C34	C	0.116506	-0.200593	-0.011657
C35	C	0.047753	-0.131695	-0.016818
C36	C	0.004308	-0.108275	-0.020081
C37	C	-0.017485	-0.128368	-0.021720
C38	C	-0.463668	-0.431950	0.031670
C39	C	-0.442331	-0.474513	0.031968
C40	C	-0.400057	-0.431945	0.031667
C41	C	-0.378816	-0.474508	0.031965
C42	C	-0.400053	-0.495543	0.031669
C43	C	-0.442334	-0.411012	0.031966
C44	C	-0.617072	-0.317431	0.020155
C45	C	-0.660514	-0.294020	0.016900
C46	C	-0.682305	-0.314119	0.015267
C47	C	-0.729410	-0.288732	0.011729
C48	C	-0.660650	-0.357633	0.016892
C49	C	-0.617210	-0.381044	0.020153
C50	C	-0.595421	-0.360941	0.021785
C51	C	-0.361202	-0.637392	0.020156
C52	C	-0.341178	-0.677567	0.016900
C53	C	-0.299285	-0.697717	0.015262
C54	C	-0.277572	-0.741271	0.011726
C55	C	-0.277414	-0.677692	0.016886
C56	C	-0.297435	-0.637525	0.020149
C57	C	-0.339333	-0.617375	0.021781
C58	C	-0.361221	-0.317411	0.020146
C59	C	-0.341202	-0.293992	0.016882
C60	C	-0.299308	-0.314086	0.015247
C61	C	-0.277601	-0.288694	0.011707
C62	C	-0.277435	-0.357596	0.016871
C63	C	-0.297456	-0.381012	0.020132
C64	C	-0.339348	-0.360918	0.021774
C65	C	-0.548318	-0.386328	0.025317
C66	C	-0.510771	-0.406563	0.028134
C67	C	-0.378352	-0.406553	0.028129
C68	C	-0.361051	-0.386313	0.025310
C69	C	-0.378344	-0.539098	0.028133
C70	C	-0.361040	-0.573817	0.025316
C71	C	-0.400356	-0.057335	-0.406382
C72	C	-0.442635	-0.014773	-0.427622
C73	C	-0.400357	-0.057334	-0.342769
C74	C	-0.442636	-0.014773	-0.364106
C75	C	-0.463972	0.006259	-0.406383
C76	C	-0.379117	-0.078270	-0.364105
C77	C	-0.297310	-0.171859	-0.445224
C78	C	-0.277145	-0.195272	-0.465246
C79	C	-0.298883	-0.175177	-0.507141
C80	C	-0.277024	-0.200566	-0.528849
C81	C	-0.340785	-0.131664	-0.529014
C82	C	-0.360944	-0.108251	-0.508994
C83	C	-0.339205	-0.128350	-0.467097
C84	C	-0.617379	0.148100	-0.509426
C85	C	-0.660822	0.188274	-0.529591
C86	C	-0.682618	0.208426	-0.507856
C87	C	-0.729723	0.251979	-0.529712
C88	C	-0.660964	0.188404	-0.465956
C89	C	-0.617521	0.148238	-0.445795
C90	C	-0.595731	0.128086	-0.467535
C91	C	-0.297312	-0.171857	-0.189365
C92	C	-0.277149	-0.195274	-0.145921
C93	C	-0.298887	-0.175178	-0.124129
C94	C	-0.277029	-0.200566	-0.077024
C95	C	-0.340787	-0.131669	-0.145781
C96	C	-0.360948	-0.108256	-0.189224
C97	C	-0.339205	-0.128352	-0.211014
C98	C	-0.361069	-0.102961	-0.445391
C99	C	-0.378496	-0.082724	-0.428089
C100	C	-0.378497	-0.082723	-0.295666
C101	C	-0.361070	-0.102960	-0.258119
C102	C	-0.511077	0.049812	-0.428244
C103	C	-0.548624	0.084530	-0.445670
O104	O	0.255055	-0.309827	0.010457
O105	O	0.132036	-0.237907	-0.010392
O106	O	0.203968	-0.309825	0.061542
O107	O	0.183123	-0.237909	-0.061476
O108	O	0.203973	-0.251418	0.061545
O109	O	0.132041	-0.179500	-0.010389
O110	O	0.255060	-0.251420	0.010460
Cu111	Cu	0.193551	-0.210127	0.000036
Cu112	Cu	0.193545	-0.279200	0.000033
O113	O	0.183128	-0.179502	-0.061474
O114	O	-0.240936	0.244468	0.010457
O115	O	-0.189856	0.142327	-0.010391
O116	O	-0.189853	0.142323	0.061542
O117	O	-0.240939	0.244472	-0.061476
O118	O	-0.248283	0.142328	0.061539
O119	O	-0.248286	0.142333	-0.010394
O120	O	-0.299366	0.244473	0.010454
Cu121	Cu	-0.279161	0.193404	0.000030
Cu122	Cu	-0.210061	0.193397	0.000034
O123	O	-0.299369	0.244478	-0.061479
O124	O	-0.868276	0.368376	-0.558429
O125	O	-0.745256	0.266237	-0.507341
O126	O	-0.817185	0.266231	-0.507340
O127	O	-0.796348	0.368382	-0.558430
O128	O	-0.817184	0.266230	-0.565766
O129	O	-0.745255	0.266236	-0.565767
O130	O	-0.868275	0.368374	-0.616855
Cu131	Cu	-0.806765	0.317305	-0.596646
Cu132	Cu	-0.806766	0.317306	-0.527550
O133	O	-0.796346	0.368380	-0.616856
O134	O	-0.248308	-0.251381	-0.616568
O135	O	-0.299397	-0.179470	-0.565483
O136	O	-0.299392	-0.251385	-0.565481
O137	O	-0.248313	-0.179466	-0.616571
O138	O	-0.240963	-0.309794	-0.507053
O139	O	-0.240967	-0.237880	-0.507056
O140	O	-0.189879	-0.309790	-0.558141
Cu141	Cu	-0.210088	-0.279168	-0.527264
Cu142	Cu	-0.279187	-0.210092	-0.596361
O143	O	-0.189884	-0.237875	-0.558143
C144	C	-0.064592	-0.449891	0.321766
C145	C	-0.085929	-0.428859	0.343005
C146	C	-0.128208	-0.386297	0.258152
C147	C	-0.149448	-0.365362	0.279488
C148	C	-0.128208	-0.386297	0.321765
C149	C	-0.085929	-0.428859	0.279488
C150	C	0.004162	-0.513462	0.321601
C151	C	0.047608	-0.553635	0.341625
C152	C	0.069397	-0.573783	0.383517
C153	C	0.116504	-0.617340	0.405230
C154	C	0.047745	-0.553765	0.405391
C155	C	0.004302	-0.513596	0.385368
C156	C	-0.017488	-0.493444	0.343473
C157	C	-0.128043	-0.381302	0.385521
C158	C	-0.148068	-0.358027	0.405682
C159	C	-0.189960	-0.314514	0.383945
C160	C	-0.211674	-0.289274	0.405802
C161	C	-0.211836	-0.294273	0.342047
C162	C	-0.191812	-0.317548	0.321887
C163	C	-0.149916	-0.361061	0.343624
C164	C	-0.128043	-0.381301	0.189399
C165	C	-0.148067	-0.358022	0.145953
C166	C	-0.189959	-0.314509	0.124164
C167	C	-0.211673	-0.289269	0.077058
C168	C	-0.211832	-0.294269	0.145813
C169	C	-0.191811	-0.317544	0.189257
C170	C	-0.149916	-0.361061	0.211049
C171	C	0.218836	-0.386343	0.321785
C172	C	0.219130	-0.428904	0.343023
C173	C	0.218833	-0.386340	0.258170
C174	C	0.219127	-0.428901	0.279505
C175	C	0.218830	-0.449934	0.321783
C176	C	0.219133	-0.365406	0.279507
C177	C	0.213679	-0.317447	0.321621
C178	C	0.210424	-0.294036	0.341646
C179	C	0.208789	-0.314133	0.383538
C180	C	0.205258	-0.288750	0.405251
C181	C	0.210414	-0.357645	0.405411
C182	C	0.213671	-0.381057	0.385388
C183	C	0.215302	-0.360956	0.343493
C184	C	0.213665	-0.513506	0.385538
C185	C	0.210404	-0.553678	0.405699
C186	C	0.208767	-0.573825	0.383961
C187	C	0.205229	-0.617381	0.405817
C188	C	0.210394	-0.553806	0.342062
C189	C	0.213657	-0.513636	0.321903
C190	C	0.215290	-0.493487	0.343641
C191	C	0.213674	-0.317441	0.189418
C192	C	0.210410	-0.294024	0.145972
C193	C	0.208772	-0.314118	0.124182
C194	C	0.205238	-0.288731	0.077076
C195	C	0.210395	-0.357626	0.145830
C196	C	0.213657	-0.381044	0.189275
C197	C	0.215296	-0.360950	0.211067
C198	C	-0.128181	-0.103012	0.321772
C199	C	-0.085901	-0.123953	0.343012
C200	C	-0.128181	-0.039412	0.258163
C201	C	-0.085901	-0.060450	0.279499
C202	C	-0.064564	-0.103018	0.321775
C203	C	-0.149421	-0.060444	0.279496
C204	C	-0.191941	-0.108000	0.321603
C205	C	-0.212104	-0.131275	0.341624
C206	C	-0.190366	-0.174793	0.383514
C207	C	-0.212225	-0.200033	0.405224
C208	C	-0.148465	-0.195041	0.405389
C209	C	-0.128304	-0.171766	0.385370
C210	C	-0.150042	-0.128248	0.343476
C211	C	0.004191	-0.171927	0.385531
C212	C	0.047637	-0.195346	0.405693
C213	C	0.069427	-0.175249	0.383958
C214	C	0.116534	-0.200640	0.405816
C215	C	0.047775	-0.131731	0.342061
C216	C	0.004331	-0.108313	0.321901
C217	C	-0.017459	-0.128413	0.343636
C218	C	-0.191941	0.024173	0.189409
C219	C	-0.212102	0.064349	0.145964
C220	C	-0.190364	0.084498	0.124178
C221	C	-0.212223	0.128062	0.077073
C222	C	-0.148465	0.064473	0.145828
C223	C	-0.128302	0.024297	0.189272
C224	C	-0.150042	0.004149	0.211060
C225	C	0.161911	0.005958	-0.406365
C226	C	0.161611	-0.015072	-0.427605
C227	C	0.161908	-0.057636	-0.342752
C228	C	0.161608	-0.078570	-0.364088
C229	C	0.161905	-0.057633	-0.406366
C230	C	0.161614	-0.015074	-0.364087
C231	C	0.173439	0.147797	-0.445207
C232	C	0.176698	0.187970	-0.465229
C233	C	0.178332	0.208122	-0.507124
C234	C	0.181874	0.251675	-0.528832
C235	C	0.176704	0.188102	-0.528997
C236	C	0.173440	0.147937	-0.508977
C237	C	0.171807	0.127784	-0.467080
C238	C	0.173414	-0.107975	-0.509409
C239	C	0.176667	-0.131246	-0.529574
C240	C	0.178301	-0.174762	-0.507839
C241	C	0.181835	-0.200000	-0.529695
C242	C	0.176676	-0.195003	-0.465938
C243	C	0.173415	-0.171729	-0.445778
C244	C	0.171787	-0.128213	-0.467518
C245	C	0.173428	-0.107987	-0.189348
C246	C	0.176690	-0.131263	-0.145903
C247	C	0.178321	-0.174779	-0.124111
C248	C	0.181860	-0.200020	-0.077006
C249	C	0.176695	-0.195018	-0.145764
C250	C	0.173435	-0.171742	-0.189206
C251	C	0.171798	-0.128222	-0.210996
C252	C	0.168271	0.084228	-0.445374
C253	C	0.165451	0.049511	-0.428071
C254	C	0.165445	-0.082873	-0.295648
C255	C	0.168263	-0.102989	-0.258102
C256	C	0.165439	-0.082868	-0.428226
C257	C	0.168255	-0.102982	-0.445652
O258	O	0.183134	-0.237928	0.492966
O259	O	0.203985	-0.309842	0.441884
O260	O	0.132050	-0.237928	0.441877
O261	O	0.255068	-0.309843	0.492973
O262	O	0.132053	-0.179519	0.383451
O263	O	0.203988	-0.251433	0.383458
O264	O	0.183137	-0.179519	0.434540
Cu265	Cu	0.193562	-0.210143	0.403664
Cu266	Cu	0.193559	-0.279218	0.472760
O267	O	0.255071	-0.251433	0.434547
C268	C	-0.463670	0.568101	-0.406360
C269	C	-0.442334	0.589038	-0.427597
C270	C	-0.400054	0.504496	-0.342747
C271	C	-0.378815	0.525529	-0.364080
C272	C	-0.400055	0.568097	-0.406356
C273	C	-0.442334	0.525534	-0.364084
C274	C	-0.617078	0.618461	-0.445210
C275	C	-0.660522	0.641737	-0.465233
C276	C	-0.682315	0.685260	-0.507127
C277	C	-0.729422	0.710505	-0.528837
C278	C	-0.660662	0.705502	-0.528997
C279	C	-0.617220	0.682222	-0.508975
C280	C	-0.595428	0.638699	-0.467080
C281	C	-0.361209	0.682628	-0.509387
C282	C	-0.341185	0.706041	-0.529548
C283	C	-0.299290	0.685943	-0.507811
C284	C	-0.277579	0.711328	-0.529664
C285	C	-0.277417	0.642425	-0.465912
C286	C	-0.297436	0.619008	-0.445755
C287	C	-0.339337	0.639117	-0.467497
C288	C	-0.361206	0.362633	-0.189349
C289	C	-0.341184	0.322456	-0.145906
C290	C	-0.299287	0.302299	-0.124112
C291	C	-0.277577	0.258739	-0.077008
C292	C	-0.277416	0.322322	-0.145761
C293	C	-0.297440	0.362498	-0.189203
C294	C	-0.339335	0.382648	-0.210995
C295	C	-0.548323	0.613462	-0.445372
C296	C	-0.510775	0.593343	-0.428068
C297	C	-0.378346	0.460936	-0.295645
C298	C	-0.361042	0.426212	-0.258099
C299	C	-0.378347	0.593486	-0.428213
C300	C	-0.361043	0.613724	-0.445636
H301	H	-0.209660	0.007796	-0.021430
C302	C	-0.257920	-0.109553	-0.015039
C303	C	-0.266833	-0.140332	0.024265
C304	C	-0.312916	-0.118221	0.026064
C305	C	-0.350086	-0.065331	-0.011442
C306	C	-0.341175	-0.034548	-0.050749
C307	C	-0.295092	-0.056659	-0.052548
H308	H	-0.239316	-0.179488	0.052032
H309	H	-0.319512	-0.141008	0.055163
H310	H	-0.384200	-0.048963	-0.010110
H311	H	-0.368692	0.004607	-0.078516
H312	H	-0.288495	-0.033872	-0.081647
C313	C	-0.231331	-0.699857	0.015090
C314	C	-0.222419	-0.700254	-0.024214
C315	C	-0.176336	-0.722418	-0.026012
C316	C	-0.139164	-0.744185	0.011493
C317	C	-0.148075	-0.743789	0.050800
C318	C	-0.194158	-0.721625	0.052599
H319	H	-0.249937	-0.684140	-0.051981
H320	H	-0.169740	-0.722711	-0.055110
H321	H	-0.105051	-0.760592	0.010162
H322	H	-0.120557	-0.759903	0.078567
H323	H	-0.200754	-0.721332	0.081696
H324	H	-0.358998	0.741473	-0.563660
C325	C	-0.465475	0.501755	-0.340942
C326	C	-0.442007	0.454837	-0.294341
C327	C	-0.465147	0.431060	-0.271198
C328	C	-0.511755	0.454203	-0.294657
C329	C	-0.535225	0.501124	-0.341260
C330	C	-0.512085	0.524900	-0.364403
H331	H	-0.407502	0.437703	-0.276974
H332	H	-0.447772	0.396326	-0.236699
H333	H	-0.528884	0.436602	-0.277525
H334	H	-0.569729	0.518257	-0.358628
H335	H	-0.529460	0.559634	-0.398903
H336	H	0.065494	-0.570176	0.439504
H337	H	0.161132	0.002533	-0.462342
C338	C	-0.215871	-0.295285	0.275800
C339	C	-0.197254	-0.279085	0.239569
C340	C	-0.221314	-0.256820	0.193481
C341	C	-0.263990	-0.250754	0.183625
C342	C	-0.282609	-0.266954	0.219858
C343	C	-0.258550	-0.289219	0.265945
H344	H	-0.165661	-0.283575	0.246864
H345	H	-0.207530	-0.244827	0.166660
H346	H	-0.281800	-0.234271	0.149509
H347	H	-0.314203	-0.262464	0.212562
H348	H	-0.272333	-0.301212	0.292767
H349	H	-0.459765	0.002828	-0.346975
H350	H	-0.094189	-0.188251	0.403182
C351	C	-0.124007	-0.380292	0.122143
C352	C	-0.081327	-0.386366	0.118362
C353	C	-0.057267	-0.408635	0.094549
C354	C	-0.075887	-0.424829	0.074518
C355	C	-0.118570	-0.418755	0.078299
C356	C	-0.142630	-0.396486	0.102111
H357	H	-0.067541	-0.374378	0.133191
H358	H	-0.025670	-0.413132	0.091751
H359	H	-0.058076	-0.441314	0.056891
H360	H	-0.132356	-0.430743	0.063470
H361	H	-0.174226	-0.391989	0.104909
C362	C	0.160961	0.008712	-0.340952
C363	C	0.123473	0.027635	-0.324493
C364	C	0.122816	0.051424	-0.301361
C365	C	0.159646	0.056292	-0.294689
C366	C	0.197136	0.037369	-0.311148
C367	C	0.197793	0.013579	-0.334280
H368	H	0.096207	0.024032	-0.329432
H369	H	0.095063	0.065432	-0.289177
H370	H	0.159159	0.073903	-0.277565
H371	H	0.224402	0.040972	-0.306209
H372	H	0.225546	-0.000428	-0.346464
C373	C	0.208591	-0.575968	0.318148
C374	C	0.171976	-0.543257	0.275503
C375	C	0.170174	-0.565417	0.251587
C376	C	0.204988	-0.620288	0.270318
C377	C	0.241607	-0.653002	0.312966
C378	C	0.243408	-0.630842	0.336881
H379	H	0.146202	-0.502636	0.261635
H380	H	0.143067	-0.541200	0.220017
H381	H	0.203655	-0.636693	0.252614
H382	H	0.267380	-0.693624	0.326833
H383	H	0.270516	-0.655059	0.368452
C384	C	0.215442	-0.491608	0.275816
C385	C	0.177925	-0.469940	0.238715
C386	C	0.179708	-0.447908	0.192626
C387	C	0.219009	-0.447545	0.183638
C388	C	0.256529	-0.469215	0.220740
C389	C	0.254746	-0.491246	0.266829
H390	H	0.148829	-0.470207	0.245367
H391	H	0.151932	-0.431867	0.165161
H392	H	0.220329	-0.431236	0.149521
H393	H	0.285625	-0.468947	0.214088
H394	H	0.282521	-0.507288	0.294295
H395	H	-0.599893	0.131942	-0.411682
H396	H	-0.279643	-0.416439	0.021455
H397	H	-0.209621	-0.072822	-0.021424
C398	C	0.208614	-0.575696	0.451784
C399	C	0.243435	-0.630530	0.488018
C400	C	0.241645	-0.652552	0.534104
C401	C	0.205033	-0.619739	0.543957
C402	C	0.170210	-0.564902	0.507722
C403	C	0.172000	-0.542881	0.461636
H404	H	0.270539	-0.654823	0.480726
H405	H	0.267424	-0.693146	0.560928
H406	H	0.203708	-0.636041	0.578072
H407	H	0.143105	-0.540609	0.515014
H408	H	0.146221	-0.502286	0.434813
C409	C	-0.407304	-0.295306	0.021946
C410	C	-0.431367	-0.247444	0.020154
C411	C	-0.477450	-0.225340	0.021952
C412	C	-0.499471	-0.251097	0.025543
C413	C	-0.475408	-0.298962	0.027335
C414	C	-0.429325	-0.321066	0.025537
H415	H	-0.415066	-0.228374	0.017495
H416	H	-0.495263	-0.189907	0.020625
H417	H	-0.533584	-0.234735	0.026874
H418	H	-0.491709	-0.318032	0.029993
H419	H	-0.411512	-0.356499	0.026863
H420	H	0.065261	-0.230777	0.439806
H421	H	-0.599581	-0.416473	0.021479
C422	C	-0.062780	-0.036637	-0.026199
C423	C	-0.081336	0.017298	-0.063680
C424	C	-0.058195	0.041074	-0.064326
C425	C	-0.016496	0.010916	-0.027490
C426	C	0.002063	-0.043021	0.009993
C427	C	-0.021079	-0.066798	0.010639
H428	H	-0.112206	0.039625	-0.090950
H429	H	-0.071933	0.081002	-0.092074
H430	H	0.000635	0.028517	-0.027968
H431	H	0.032932	-0.065349	0.037263
H432	H	-0.007340	-0.106726	0.038387
H433	H	0.178033	0.204515	-0.563108
C434	C	-0.196368	-0.036622	-0.026201
C435	C	-0.207901	-0.066775	0.010636
C436	C	-0.254825	-0.042990	0.009995
C437	C	-0.290215	0.010948	-0.027483
C438	C	-0.278683	0.041104	-0.064323
C439	C	-0.231759	0.017319	-0.063681
H440	H	-0.181703	-0.106706	0.038381
H441	H	-0.263362	-0.065314	0.037266
H442	H	-0.324950	0.028555	-0.027958
H443	H	-0.304882	0.081035	-0.092068
H444	H	-0.223223	0.039643	-0.090953
H445	H	0.209105	-0.258612	0.323835
C446	C	0.171628	-0.193993	-0.399691
C447	C	0.209141	-0.246928	-0.362592
C448	C	0.207355	-0.269193	-0.316504
C449	C	0.168057	-0.238525	-0.307515
C450	C	0.130541	-0.185587	-0.344615
C451	C	0.132326	-0.163322	-0.390703
H452	H	0.238234	-0.269633	-0.369245
H453	H	0.235127	-0.308381	-0.289040
H454	H	0.166735	-0.255007	-0.273398
H455	H	0.101447	-0.162882	-0.337962
H456	H	0.104554	-0.124134	-0.418167
C457	C	-0.081963	-0.193973	-0.021901
C458	C	-0.045807	-0.210067	0.012923
C459	C	0.000278	-0.232178	0.011128
C460	C	0.010206	-0.238197	-0.025491
C461	C	-0.025952	-0.222103	-0.060318
C462	C	-0.072036	-0.199991	-0.058523
H463	H	-0.053155	-0.205612	0.040033
H464	H	0.027044	-0.244092	0.036909
H465	H	0.044320	-0.254566	-0.026820
H466	H	-0.018604	-0.226558	-0.087428
H467	H	-0.098803	-0.188078	-0.084304
C468	C	-0.258192	0.086379	0.122154
C469	C	-0.268058	0.053573	0.118368
C470	C	-0.314150	0.075603	0.094556
C471	C	-0.350376	0.130439	0.074530
C472	C	-0.340511	0.163247	0.078315
C473	C	-0.294419	0.141217	0.102127
H474	H	-0.241241	0.012978	0.133193
H475	H	-0.321453	0.051316	0.091754
H476	H	-0.384496	0.146747	0.056903
H477	H	-0.367328	0.203843	0.063490
H478	H	-0.287116	0.165505	0.104929
C479	C	-0.231059	-0.243136	-0.441185
C480	C	-0.194825	-0.244551	-0.459798
C481	C	-0.148739	-0.292416	-0.435736
C482	C	-0.138888	-0.338867	-0.393061
C483	C	-0.175123	-0.337453	-0.374445
C484	C	-0.221209	-0.289588	-0.398507
H485	H	-0.202117	-0.210164	-0.491391
H486	H	-0.121915	-0.293462	-0.449517
H487	H	-0.104773	-0.374299	-0.375249
H488	H	-0.167832	-0.371840	-0.342852
H489	H	-0.248033	-0.288542	-0.384727
C490	C	0.171608	-0.060101	-0.533331
C491	C	0.132301	-0.011902	-0.541843
C492	C	0.130492	0.035973	-0.565765
C493	C	0.167990	0.035649	-0.581175
C494	C	0.207299	-0.012553	-0.572662
C495	C	0.209108	-0.060428	-0.548740
H496	H	0.104541	-0.011660	-0.530436
H497	H	0.101392	0.071655	-0.572067
H498	H	0.166651	0.071089	-0.598883
H499	H	0.235060	-0.012795	-0.584069
H500	H	0.238208	-0.096110	-0.542439
C501	C	0.178495	0.209985	-0.441168
C502	C	0.215109	0.177166	-0.398493
C503	C	0.216907	0.199180	-0.374430
C504	C	0.182092	0.254014	-0.393044
C505	C	0.145475	0.286837	-0.435721
C506	C	0.143676	0.264823	-0.459783
H507	H	0.240884	0.136572	-0.384712
H508	H	0.244014	0.174882	-0.342838
H509	H	0.183423	0.270311	-0.375232
H510	H	0.119700	0.327431	-0.449502
H511	H	0.116570	0.289121	-0.491376
C512	C	-0.365235	-0.699588	0.015108
C513	C	-0.380672	-0.721248	0.052618
C514	C	-0.404731	-0.743268	0.050824
C515	C	-0.413353	-0.743628	0.011521
C516	C	-0.397916	-0.721967	-0.025991
C517	C	-0.373857	-0.699947	-0.024198
H518	H	-0.374290	-0.720982	0.081715
H519	H	-0.416159	-0.759302	0.078594
H520	H	-0.431163	-0.759928	0.010194
H521	H	-0.404298	-0.722233	-0.055088
H522	H	-0.362429	-0.683913	-0.051968
H523	H	-0.013577	-0.497057	0.287489
H524	H	-0.013296	-0.072882	0.287787
C525	C	-0.062798	-0.452638	0.389935
C526	C	-0.046327	-0.506574	0.425323
C527	C	-0.023202	-0.530352	0.472253
C528	C	-0.016547	-0.500193	0.483794
C529	C	-0.033018	-0.446254	0.448405
C530	C	-0.056143	-0.422476	0.401475
H531	H	-0.051253	-0.528902	0.416781
H532	H	-0.011009	-0.570281	0.498450
H533	H	0.000572	-0.517795	0.518534
H534	H	-0.028092	-0.423926	0.456947
H535	H	-0.068336	-0.382546	0.375277
H536	H	-0.279624	0.583575	-0.411643
C537	C	0.178461	-0.108985	-0.575658
C538	C	0.140953	-0.056050	-0.612761
C539	C	0.142748	-0.033790	-0.658846
C540	C	0.182050	-0.064464	-0.667827
C541	C	0.219560	-0.117403	-0.630723
C542	C	0.217766	-0.139663	-0.584638
H543	H	0.111857	-0.033340	-0.606114
H544	H	0.114980	0.005399	-0.686313
H545	H	0.183379	-0.047986	-0.701942
H546	H	0.248657	-0.140113	-0.637370
H547	H	0.245534	-0.178852	-0.557171
H548	H	-0.279625	-0.621224	0.021472
H549	H	-0.243322	-0.373957	0.015538
C550	C	-0.258191	-0.109006	0.317564
C551	C	-0.268050	-0.102939	0.274887
C552	C	-0.314140	-0.080670	0.250829
C553	C	-0.350369	-0.064468	0.269447
C554	C	-0.340511	-0.070535	0.312126
C555	C	-0.294421	-0.092804	0.336184
H556	H	-0.241230	-0.114933	0.261103
H557	H	-0.321438	-0.076178	0.219235
H558	H	-0.384487	-0.047983	0.251638
H559	H	-0.367331	-0.058541	0.325910
H560	H	-0.287123	-0.097296	0.367778
C561	C	-0.684340	0.619476	-0.441176
C562	C	-0.668497	0.566545	-0.425743
C563	C	-0.692315	0.544284	-0.401685
C564	C	-0.731977	0.574954	-0.393060
C565	C	-0.747822	0.627888	-0.408493
C566	C	-0.724004	0.650149	-0.432551
H567	H	-0.639135	0.543839	-0.432128
H568	H	-0.680585	0.505099	-0.390260
H569	H	-0.749608	0.558475	-0.375250
H570	H	-0.777184	0.650594	-0.402108
H571	H	-0.735734	0.689334	-0.443976
C572	C	-0.684334	-0.246155	0.015106
C573	C	-0.724000	-0.197884	-0.024198
C574	C	-0.747819	-0.150018	-0.025993
C575	C	-0.731973	-0.150423	0.011515
C576	C	-0.692305	-0.198697	0.050821
C577	C	-0.668486	-0.246563	0.052617
H578	H	-0.735732	-0.197582	-0.051966
H579	H	-0.777184	-0.114283	-0.055090
H580	H	-0.749606	-0.114990	0.010186
H581	H	-0.680573	-0.198998	0.078589
H582	H	-0.639121	-0.282298	0.081714
C583	C	-0.364694	-0.109560	-0.575096
C584	C	-0.373205	-0.140343	-0.584006
C585	C	-0.397117	-0.118237	-0.630090
C586	C	-0.412517	-0.065348	-0.667263
C587	C	-0.404005	-0.034562	-0.658353
C588	C	-0.380094	-0.056668	-0.612270
H589	H	-0.361805	-0.179498	-0.556488
H590	H	-0.403417	-0.141028	-0.636685
H591	H	-0.430217	-0.048984	-0.701376
H592	H	-0.415406	0.004593	-0.685872
H593	H	-0.373793	-0.033877	-0.605675
H594	H	-0.013581	-0.188239	-0.021432
C595	C	0.178489	-0.242886	-0.121796
C596	C	0.217790	-0.291092	-0.082092
C597	C	0.219584	-0.338958	-0.058127
C598	C	0.182076	-0.338617	-0.073866
C599	C	0.142772	-0.290408	-0.113572
C600	C	0.140978	-0.242543	-0.137537
H601	H	0.245558	-0.291347	-0.070440
H602	H	0.248680	-0.374645	-0.028734
H603	H	0.183404	-0.374049	-0.056125
H604	H	0.115003	-0.290154	-0.125224
H605	H	0.111882	-0.206856	-0.166930
C606	C	-0.684619	-0.379740	0.015097
C607	C	-0.704685	-0.395823	0.049916
C608	C	-0.728653	-0.417933	0.048119
C609	C	-0.732556	-0.423958	0.011504
C610	C	-0.712490	-0.407875	-0.023317
C611	C	-0.688521	-0.385765	-0.021521
H612	H	-0.701796	-0.391363	0.077023
H613	H	-0.743508	-0.429839	0.073897
H614	H	-0.750299	-0.440325	0.010175
H615	H	-0.715379	-0.412335	-0.050424
H616	H	-0.673667	-0.373859	-0.047299
C617	C	-0.081961	-0.429173	0.213368
C618	C	-0.044790	-0.428840	0.197635
C619	C	0.001292	-0.476712	0.221601
C620	C	0.010204	-0.524916	0.261301
C621	C	-0.026969	-0.525250	0.277037
C622	C	-0.073051	-0.477379	0.253070
H623	H	-0.051386	-0.393155	0.168245
H624	H	0.028809	-0.476464	0.209953
H625	H	0.044317	-0.560353	0.279043
H626	H	-0.020373	-0.560935	0.306427
H627	H	-0.100568	-0.477627	0.264718
H628	H	-0.130263	-0.230700	-0.015524
C629	C	-0.684934	0.210571	-0.442046
C630	C	-0.724634	0.210965	-0.433531
C631	C	-0.748606	0.233130	-0.409620
C632	C	-0.732877	0.254901	-0.394224
C633	C	-0.693175	0.254508	-0.402739
C634	C	-0.669203	0.232342	-0.426650
H635	H	-0.736279	0.194848	-0.444928
H636	H	-0.777996	0.233421	-0.403317
H637	H	-0.750622	0.271309	-0.376524
H638	H	-0.681530	0.270625	-0.391342
H639	H	-0.639813	0.232051	-0.432953
H640	H	-0.209622	-0.301060	0.206883
C641	C	-0.407035	-0.060395	-0.213041
C642	C	-0.430946	-0.038287	-0.189074
C643	C	-0.477034	0.009575	-0.212891
C644	C	-0.499211	0.035328	-0.260676
C645	C	-0.475300	0.013220	-0.284645
C646	C	-0.429212	-0.034641	-0.260828
H647	H	-0.414530	-0.057351	-0.153699
H648	H	-0.494735	0.025940	-0.195147
H649	H	-0.533328	0.070758	-0.278307
H650	H	-0.491716	0.032284	-0.320020
H651	H	-0.411511	-0.051007	-0.278572
C652	C	-0.407285	-0.615231	0.021955
C653	C	-0.431341	-0.637256	0.020171
C654	C	-0.477424	-0.615091	0.021969
C655	C	-0.499452	-0.570903	0.025550
C656	C	-0.475397	-0.548875	0.027334
C657	C	-0.429313	-0.571040	0.025536
H658	H	-0.415034	-0.669969	0.017520
H659	H	-0.495232	-0.631398	0.020648
H660	H	-0.533566	-0.554495	0.026881
H661	H	-0.491703	-0.516162	0.029985
H662	H	-0.411506	-0.554733	0.026857
C663	C	0.178469	-0.242868	-0.442028
C664	C	0.215084	-0.289402	-0.399385
C665	C	0.216879	-0.337269	-0.375474
C666	C	0.182059	-0.338601	-0.394207
C667	C	0.145441	-0.292065	-0.436853
C668	C	0.143646	-0.244198	-0.460764
H669	H	0.240862	-0.288418	-0.385515
H670	H	0.243987	-0.371718	-0.343904
H671	H	0.183389	-0.374035	-0.376507
H672	H	0.119663	-0.293049	-0.450723
H673	H	0.116539	-0.209749	-0.492334
H674	H	-0.395058	-0.072822	-0.526807
H675	H	0.219602	-0.446501	0.377758
C676	C	0.071424	-0.575652	0.317566
C677	C	0.075215	-0.542841	0.274892
C678	C	0.099033	-0.564862	0.250834
C679	C	0.119059	-0.619695	0.269450
C680	C	0.115268	-0.652510	0.312126
C681	C	0.091451	-0.630488	0.336184
H682	H	0.060390	-0.502247	0.261109
H683	H	0.101839	-0.540570	0.219242
H684	H	0.136691	-0.635997	0.251641
H685	H	0.130094	-0.693104	0.325909
H686	H	0.088644	-0.654780	0.367776
C687	C	-0.332180	-0.124519	-0.340970
C688	C	-0.308708	-0.147644	-0.364435
C689	C	-0.261769	-0.193883	-0.341305
C690	C	-0.238302	-0.216995	-0.294710
C691	C	-0.261773	-0.193869	-0.271243
C692	C	-0.308712	-0.147631	-0.294373
H693	H	-0.326081	-0.130535	-0.398929
H694	H	-0.244395	-0.211002	-0.358677
H695	H	-0.203555	-0.251223	-0.277588
H696	H	-0.244401	-0.210978	-0.236749
H697	H	-0.326087	-0.130512	-0.277001
H698	H	-0.245945	-0.258833	0.128067
C699	C	-0.124004	-0.380291	0.451768
C700	C	-0.108560	-0.433227	0.488870
C701	C	-0.084499	-0.455488	0.534955
C702	C	-0.075883	-0.424813	0.543938
C703	C	-0.091327	-0.371874	0.506835
C704	C	-0.115388	-0.349613	0.460750
H705	H	-0.114938	-0.455937	0.482221
H706	H	-0.073066	-0.494677	0.562421
H707	H	-0.058072	-0.441292	0.578054
H708	H	-0.084949	-0.349163	0.513484
H709	H	-0.126821	-0.310423	0.433284
H710	H	-0.459468	-0.376760	0.032440
C711	C	0.208593	-0.379734	0.121862
C712	C	0.246097	-0.432624	0.137596
C713	C	0.244297	-0.454731	0.113627
C714	C	0.204993	-0.423948	0.073923
C715	C	0.167487	-0.371054	0.058187
C716	C	0.169287	-0.348947	0.082156
H717	H	0.275195	-0.455415	0.166989
H718	H	0.272062	-0.493887	0.125277
H719	H	0.203661	-0.440312	0.056180
H720	H	0.138389	-0.348263	0.028794
H721	H	0.141521	-0.309792	0.070506
H722	H	-0.599592	0.698704	-0.526785
H723	H	-0.243301	0.305908	-0.128014
C724	C	-0.019779	-0.194033	0.409442
C725	C	-0.004046	-0.246922	0.424838
C726	C	-0.028015	-0.269031	0.448748
C727	C	-0.067718	-0.238251	0.457262
C728	C	-0.083453	-0.185359	0.441865
C729	C	-0.059484	-0.163251	0.417955
H730	H	0.025346	-0.269709	0.418536
H731	H	-0.016367	-0.308185	0.460146
H732	H	-0.085461	-0.254617	0.474962
H733	H	-0.112845	-0.162572	0.448168
H734	H	-0.071132	-0.124097	0.406558
C735	C	0.178476	-0.108998	-0.122089
C736	C	0.143653	-0.092799	-0.102063
C737	C	0.145436	-0.070530	-0.078250
C738	C	0.182042	-0.064459	-0.074463
C739	C	0.216868	-0.080658	-0.094489
C740	C	0.215085	-0.102927	-0.118302
H741	H	0.116553	-0.097293	-0.104866
H742	H	0.119656	-0.058539	-0.063425
H743	H	0.183362	-0.047974	-0.056835
H744	H	0.243968	-0.076165	-0.091686
H745	H	0.240865	-0.114919	-0.133127
H746	H	0.065500	-0.115335	-0.015484
C747	C	0.215477	-0.295336	0.213387
C748	C	0.252094	-0.289312	0.217289
C749	C	0.253893	-0.267204	0.241257
C750	C	0.219075	-0.251118	0.261322
C751	C	0.182455	-0.257142	0.257421
C752	C	0.180656	-0.279250	0.233453
H753	H	0.277870	-0.301220	0.202435
H754	H	0.281001	-0.262745	0.244145
H755	H	0.220407	-0.234752	0.279065
H756	H	0.156678	-0.245234	0.272275
H757	H	0.153547	-0.283709	0.230566
C758	C	-0.082213	0.002269	0.213090
C759	C	-0.045117	-0.019385	0.197238
C760	C	0.000973	-0.041413	0.221056
C761	C	0.009965	-0.041787	0.260725
C762	C	-0.027133	-0.020132	0.276579
C763	C	-0.073222	0.001896	0.252761
H764	H	-0.051772	-0.019109	0.167871
H765	H	0.028435	-0.057444	0.209320
H766	H	0.044083	-0.058094	0.278357
H767	H	-0.020478	-0.020408	0.305947
H768	H	-0.100685	0.017927	0.264497
C769	C	-0.465779	0.009006	-0.474548
C770	C	-0.442321	-0.014129	-0.498011
C771	C	-0.465466	0.009649	-0.544934
C772	C	-0.512069	0.056563	-0.568395
C773	C	-0.535530	0.079700	-0.544932
C774	C	-0.512386	0.055922	-0.498009
H775	H	-0.407820	-0.048859	-0.480644
H776	H	-0.448098	-0.007479	-0.562303
H777	H	-0.529202	0.074165	-0.603131
H778	H	-0.570031	0.114431	-0.562299
H779	H	-0.529753	0.073050	-0.480640
H780	H	-0.068771	-0.042849	0.262369
C781	C	-0.331885	0.501744	-0.340942
C782	C	-0.308419	0.454827	-0.294340
C783	C	-0.261490	0.431043	-0.271204
C784	C	-0.238028	0.454176	-0.294671
C785	C	-0.261494	0.501095	-0.341275
C786	C	-0.308423	0.524879	-0.364411
H787	H	-0.325787	0.437701	-0.276966
H788	H	-0.244119	0.396310	-0.236704
H789	H	-0.203289	0.436569	-0.277544
H790	H	-0.244126	0.518221	-0.358649
H791	H	-0.325794	0.559612	-0.398911
C792	C	0.071747	-0.109625	0.318151
C793	C	0.091821	-0.093552	0.336887
C794	C	0.115790	-0.071443	0.312975
C795	C	0.119685	-0.065408	0.270328
C796	C	0.099610	-0.081481	0.251590
C797	C	0.075641	-0.103590	0.275501
H798	H	0.088939	-0.098019	0.368459
H799	H	0.130651	-0.059545	0.326846
H800	H	0.137428	-0.049041	0.252627
H801	H	0.102492	-0.077014	0.220018
H802	H	0.060780	-0.115488	0.261630
H803	H	-0.344080	-0.492106	0.032440
C804	C	-0.684641	0.210291	-0.575675
C805	C	-0.724303	0.210648	-0.584656
C806	C	-0.748121	0.232664	-0.630741
C807	C	-0.732277	0.254323	-0.667844
C808	C	-0.692613	0.253967	-0.658864
C809	C	-0.668795	0.231951	-0.612779
H810	H	-0.736033	0.194614	-0.557189
H811	H	-0.777483	0.232928	-0.637388
H812	H	-0.749909	0.270621	-0.701958
H813	H	-0.680883	0.270001	-0.686331
H814	H	-0.639433	0.231687	-0.606132
C815	C	0.208635	-0.246172	0.122165
C816	C	0.172038	-0.199721	0.118385
C817	C	0.170263	-0.151868	0.094578
C818	C	0.205086	-0.150466	0.074550
C819	C	0.241686	-0.196918	0.078329
C820	C	0.243460	-0.244772	0.102137
H821	H	0.146257	-0.200758	0.133212
H822	H	0.143170	-0.117481	0.091780
H823	H	0.203773	-0.115042	0.056926
H824	H	0.267466	-0.195882	0.063503
H825	H	0.270554	-0.279159	0.104934
C826	C	-0.257921	-0.246404	0.318134
C827	C	-0.294074	-0.245069	0.336865
C828	C	-0.340159	-0.197202	0.312951
C829	C	-0.350091	-0.150670	0.270305
C830	C	-0.313936	-0.152004	0.251571
C831	C	-0.267851	-0.199871	0.275486
H832	H	-0.286724	-0.279516	0.368436
H833	H	-0.366923	-0.196214	0.326818
H834	H	-0.384205	-0.115236	0.252602
H835	H	-0.321287	-0.117557	0.220001
H836	H	-0.241087	-0.200858	0.261618
C837	C	-0.364704	-0.109558	-0.121814
C838	C	-0.373216	-0.140341	-0.082110
C839	C	-0.397133	-0.118231	-0.058145
C840	C	-0.412539	-0.065338	-0.073883
C841	C	-0.404027	-0.034553	-0.113588
C842	C	-0.380110	-0.056663	-0.137553
H843	H	-0.361812	-0.179498	-0.070459
H844	H	-0.403434	-0.141021	-0.028752
H845	H	-0.430244	-0.048971	-0.056142
H846	H	-0.415431	0.004604	-0.125240
H847	H	-0.373809	-0.033873	-0.166946
C848	C	0.208613	-0.379752	0.451494
C849	C	0.243430	-0.395837	0.487652
C850	C	0.241630	-0.417946	0.533735
C851	C	0.205012	-0.423969	0.543660
C852	C	0.170192	-0.407883	0.507501
C853	C	0.171993	-0.385774	0.461419
H854	H	0.270539	-0.391379	0.480306
H855	H	0.267406	-0.429854	0.560502
H856	H	0.203680	-0.440335	0.577773
H857	H	0.143084	-0.412341	0.514847
H858	H	0.146217	-0.373866	0.434652
C859	C	-0.258200	0.086390	-0.015048
C860	C	-0.268054	0.053580	0.021563
C861	C	-0.314141	0.075604	0.023352
C862	C	-0.350373	0.130438	-0.011471
C863	C	-0.340519	0.163252	-0.048085
C864	C	-0.294433	0.141228	-0.049874
H865	H	-0.241232	0.012986	0.047343
H866	H	-0.321435	0.051313	0.050457
H867	H	-0.384489	0.146742	-0.010146
H868	H	-0.367341	0.203846	-0.073865
H869	H	-0.287139	0.165519	-0.076978
C870	C	0.215458	-0.428917	0.409443
C871	C	0.252066	-0.475373	0.452120
C872	C	0.253852	-0.523233	0.476173
C873	C	0.219030	-0.524638	0.457550
C874	C	0.182419	-0.478181	0.414871
C875	C	0.180633	-0.430321	0.390817
H876	H	0.277846	-0.474334	0.465907
H877	H	0.280954	-0.557624	0.507767
H878	H	0.220353	-0.560068	0.475356
H879	H	0.156640	-0.479220	0.401083
H880	H	0.153531	-0.395930	0.359223
H881	H	-0.459465	0.623289	-0.462334
H882	H	-0.359016	-0.258563	0.015557
C883	C	-0.231059	-0.243130	-0.122104
C884	C	-0.193965	-0.242703	-0.137954
C885	C	-0.147872	-0.290557	-0.114137
C886	C	-0.138874	-0.338837	-0.074471
C887	C	-0.175969	-0.339266	-0.058619
C888	C	-0.222062	-0.291412	-0.082435
H889	H	-0.200625	-0.206961	-0.167320
H890	H	-0.120412	-0.290239	-0.125873
H891	H	-0.104754	-0.374261	-0.056840
H892	H	-0.169309	-0.375008	-0.029253
H893	H	-0.249522	-0.291730	-0.070700
H894	H	-0.459460	-0.492116	0.032446
H895	H	0.172110	-0.188224	-0.206833
C896	C	-0.196347	-0.036657	0.256345
C897	C	-0.207879	-0.066807	0.249662
C898	C	-0.254802	-0.043021	0.226507
C899	C	-0.290193	0.010915	0.210034
C900	C	-0.278662	0.041068	0.216716
C901	C	-0.231739	0.017282	0.239871
H902	H	-0.181679	-0.106736	0.261857
H903	H	-0.263337	-0.065342	0.221561
H904	H	-0.324928	0.028523	0.192894
H905	H	-0.304861	0.080998	0.204522
H906	H	-0.223203	0.039604	0.244818
H907	H	-0.279602	-0.188219	-0.207107
H908	H	0.172097	-0.072553	-0.207087
C909	C	-0.124559	0.086655	-0.015025
C910	C	-0.116040	0.087047	0.024281
C911	C	-0.092123	0.109206	0.026082
C912	C	-0.076725	0.130973	-0.011423
C913	C	-0.085245	0.130582	-0.050733
C914	C	-0.109162	0.108423	-0.052533
H915	H	-0.127438	0.070932	0.052048
H916	H	-0.085816	0.109495	0.055182
H917	H	-0.059020	0.147377	-0.010090
H918	H	-0.073846	0.146696	-0.078499
H919	H	-0.115468	0.108134	-0.081633
C920	C	-0.124549	0.086636	0.121863
C921	C	-0.143275	0.141503	0.101804
C922	C	-0.119362	0.163667	0.077838
C923	C	-0.076721	0.130965	0.073933
C924	C	-0.057992	0.076094	0.093993
C925	C	-0.081906	0.053929	0.117958
H926	H	-0.174843	0.165714	0.104694
H927	H	-0.133227	0.204287	0.062988
H928	H	-0.059019	0.147372	0.056192
H929	H	-0.026425	0.051883	0.091102
H930	H	-0.068041	0.013310	0.132808
H931	H	-0.279604	-0.188229	-0.411111
H932	H	0.172109	0.131393	-0.411094
H933	H	-0.184184	-0.331109	0.262354
C934	C	-0.684634	0.753373	-0.575077
C935	C	-0.688535	0.799902	-0.585002
C936	C	-0.712508	0.847775	-0.631084
C937	C	-0.732580	0.849118	-0.667241
C938	C	-0.728680	0.802586	-0.657317
C939	C	-0.704707	0.754714	-0.611235
H940	H	-0.673676	0.798910	-0.558236
H941	H	-0.715395	0.882221	-0.638430
H942	H	-0.750326	0.884556	-0.701354
H943	H	-0.743538	0.803579	-0.684083
H944	H	-0.701820	0.720268	-0.603889
C945	C	-0.407294	0.704741	-0.533303
C946	C	-0.431352	0.752603	-0.579388
C947	C	-0.477437	0.774714	-0.603302
C948	C	-0.499463	0.748964	-0.581131
C949	C	-0.475405	0.701099	-0.535044
C950	C	-0.429320	0.678988	-0.511130
H951	H	-0.415046	0.771668	-0.595803
H952	H	-0.495246	0.810147	-0.637419
H953	H	-0.533578	0.765332	-0.598833
H954	H	-0.491710	0.682035	-0.518629
H955	H	-0.411511	0.643555	-0.477013
C956	C	-0.231331	0.620311	-0.442000
C957	C	-0.195179	0.604233	-0.460734
C958	C	-0.149094	0.582121	-0.436821
C959	C	-0.139161	0.576087	-0.394174
C960	C	-0.175314	0.592165	-0.375438
C961	C	-0.221399	0.614277	-0.399351
H962	H	-0.202532	0.608700	-0.492306
H963	H	-0.122331	0.570219	-0.450691
H964	H	-0.105046	0.559718	-0.376472
H965	H	-0.167962	0.587698	-0.343866
H966	H	-0.248162	0.626178	-0.385481
H967	H	-0.599640	0.131697	-0.527131
H968	H	-0.068802	-0.158157	-0.026036
H969	H	-0.068793	-0.446454	0.262356
H970	H	0.065230	-0.230722	-0.015509
H971	H	-0.094204	0.008025	-0.021414
H972	H	-0.013326	-0.497299	0.403179
H973	H	-0.013316	-0.072848	-0.021404
H974	H	-0.599335	-0.301059	0.021485
H975	H	-0.093929	-0.416734	0.403225
H976	H	0.172114	0.131639	-0.526789
H977	H	0.219610	-0.446504	0.262375
H978	H	0.219612	-0.331157	0.262380
H979	H	0.215011	-0.301080	0.287509
H980	H	0.214998	-0.497104	0.403242
H981	H	0.214976	-0.416469	0.206900
H982	H	-0.068774	-0.158204	0.377750
H983	H	-0.209645	0.007771	0.207149
H984	H	-0.209645	-0.072563	0.287492
H985	H	-0.130768	-0.230479	0.439501
H986	H	-0.279628	0.378797	-0.206827
H987	H	0.161128	-0.112818	-0.346958
H988	H	-0.358997	0.306160	-0.128281
H989	H	-0.395319	0.379038	-0.207090
H990	H	-0.599339	0.583023	-0.411098
