data_functionalizedCrystal
_audit_creation_method	'MofGen! by Chris Wilmer'
_symmetry_space_group_name_H-M	'P1'
_symmetry_Int_Tables_number	1
_symmetry_cell_setting	triclinic
loop_
_symmetry_equiv_pos_as_xyz
  x,y,z
_cell_length_a	27.732048
_cell_length_b	13.339070
_cell_length_c	11.804365
_cell_angle_alpha	105.124870
_cell_angle_beta	101.725897
_cell_angle_gamma	80.864026
loop_
_atom_site_label
_atom_site_type_symbol
_atom_site_fract_x
_atom_site_fract_y
_atom_site_fract_z
O1	O	0.234806	-1.359069	-0.099120
O2	O	0.203067	-1.065035	-0.099106
O3	O	0.149799	-1.221179	-0.099091
O4	O	0.288074	-1.202924	-0.099136
O5	O	0.163802	-1.180073	0.098961
O6	O	0.217071	-1.023928	0.098945
O7	O	0.248810	-1.317962	0.098932
Cu8	Cu	0.234219	-1.167192	0.117022
Cu9	Cu	0.217658	-1.215805	-0.117197
O10	O	0.302078	-1.161818	0.098916
C11	C	0.204708	-1.006876	-0.000078
C12	C	0.188727	-0.894822	-0.000072
C13	C	0.138741	-1.200242	-0.000062
C14	C	0.084928	-1.199085	-0.000052
N15	N	0.245868	-1.133007	0.281760
C16	C	-0.242187	-1.284104	-0.000117
C17	C	-0.444438	-1.279824	-0.000134
O18	O	-0.464995	-1.357567	-0.000189
N19	N	-0.476310	-1.187234	-0.000128
C20	C	-0.457617	-1.095709	-0.000126
O21	O	-0.489368	-1.016860	-0.000134
C22	C	-0.255368	-1.099992	-0.000118
C23	C	-0.223497	-1.192585	-0.000112
C24	C	-0.210317	-1.376690	-0.000112
C25	C	-0.159757	-1.377758	-0.000101
C26	C	-0.141067	-1.286239	-0.000096
C27	C	-0.172937	-1.193653	-0.000101
C28	C	-0.236677	-1.008469	-0.000125
C29	C	-0.186111	-1.009549	-0.000126
C30	C	-0.154240	-1.102143	-0.000120
C31	C	-0.103688	-1.103202	-0.000085
N32	N	-0.071816	-1.195792	-0.000091
C33	C	-0.090505	-1.287311	-0.000096
C34	C	-0.563800	-1.093466	-0.000128
C35	C	-0.614362	-1.092395	-0.000128
C36	C	-0.601180	-1.276511	-0.000137
C37	C	-0.550616	-1.277580	-0.000129
C38	C	-0.531928	-1.186057	-0.000134
C39	C	0.015674	-1.289545	-0.000073
C40	C	0.066238	-1.290604	-0.000057
C41	C	0.053051	-1.106490	-0.000054
C42	C	0.002491	-1.105429	-0.000063
C43	C	-0.016196	-1.196966	-0.000077
O44	O	-0.083098	-1.025503	-0.000043
O45	O	-0.058749	-1.366154	-0.000115
C46	C	-0.292747	-1.283036	-0.000128
C47	C	-0.324617	-1.190450	-0.000133
C48	C	-0.305928	-1.098931	-0.000128
C49	C	-0.375179	-1.189379	-0.000133
C50	C	-0.393869	-1.280897	-0.000138
C51	C	-0.361997	-1.373487	-0.000144
C52	C	-0.311437	-1.374555	-0.000133
C53	C	-0.337800	-1.006341	-0.000122
C54	C	-0.388359	-1.005281	-0.000131
C55	C	-0.407049	-1.096799	-0.000137
C56	C	0.313135	-1.182756	-0.000116
C57	C	0.366948	-1.183914	-0.000133
C58	C	0.247169	-1.376122	-0.000099
C59	C	0.263149	-1.488177	-0.000113
C60	C	0.312985	-0.528099	-0.000131
C61	C	0.328001	-0.633379	-0.000141
C62	C	0.293183	-0.698745	-0.000123
C63	C	0.243348	-0.658821	-0.000097
C64	C	0.228329	-0.553532	-0.000096
C65	C	0.208528	-0.724178	-0.000089
C66	C	0.158692	-0.684254	-0.000062
C67	C	0.143677	-0.578976	-0.000061
C68	C	0.178494	-0.513610	-0.000079
C69	C	0.223546	-0.829467	-0.000089
C70	C	0.138891	-0.854900	-0.000054
C71	C	0.123875	-0.749620	-0.000045
N72	N	0.206006	-1.249998	-0.281934
C73	C	0.178023	-1.332087	0.655728
C74	C	0.169209	-1.357947	0.531069
C75	C	0.188373	-1.301714	0.468735
C76	C	0.216353	-1.219618	0.531073
C77	C	0.225172	-1.193761	0.655745
C78	C	0.235521	-1.163387	0.468752
C79	C	0.263501	-1.081291	0.531090
C80	C	0.272318	-1.055438	0.655749
C81	C	0.253154	-1.111671	0.718083
C82	C	0.226702	-1.189244	0.344081
C83	C	0.273850	-1.050918	0.344097
C84	C	0.282665	-1.025058	0.468757
H85	H	0.092186	-1.366007	-0.000049
H86	H	0.000465	-1.364085	-0.000088
H87	H	0.166270	-0.427881	-0.000070
F88	F	-0.270586	-0.909918	-0.000137
F89	F	0.294250	-0.991070	0.277763
F90	F	0.090634	-0.536495	-0.000067
F91	F	0.350032	-0.458532	-0.000166
H92	H	0.305412	-0.784469	-0.000134
H93	H	0.068277	-1.031977	-0.000046
H94	H	0.083297	-0.717101	-0.000033
F95	F	-0.648275	-0.993840	-0.000114
F96	F	0.101833	-0.924464	-0.000044
H97	H	-0.133812	-1.453158	-0.000101
H98	H	0.162426	-1.377870	0.706488
F99	F	0.196925	-1.276614	0.277750
F100	F	-0.166226	-0.912135	-0.000134
H101	H	0.181194	-1.322772	0.367232
H102	H	-0.548590	-1.018933	-0.000132
F103	F	0.139432	-1.445316	0.464728
H104	H	-0.616405	-1.351029	-0.000141
F105	F	0.381037	-0.675863	-0.000173
F106	F	0.262533	-1.084145	0.850761
H107	H	0.305448	-0.958214	0.519528
F108	F	0.302103	-0.968075	0.722094
F109	F	-0.031428	-1.006877	-0.000049
H110	H	-0.414304	-0.929872	-0.000126
F111	F	-0.230200	-1.474106	-0.000118
H112	H	-0.524670	-1.352978	-0.000125
H113	H	-0.285492	-1.449954	-0.000128
H114	H	-0.322588	-0.931814	-0.000121
F115	F	-0.381897	-1.470887	-0.000143
H116	H	0.264123	-0.861961	-0.000105
