data_functionalizedCrystal
_audit_creation_method	'MofGen! by Chris Wilmer'
_symmetry_space_group_name_H-M	'P1'
_symmetry_Int_Tables_number	1
_symmetry_cell_setting	triclinic
loop_
_symmetry_equiv_pos_as_xyz
  x,y,z
_cell_length_a	17.000371
_cell_length_b	17.038272
_cell_length_c	16.176319
_cell_angle_alpha	89.993159
_cell_angle_beta	89.992005
_cell_angle_gamma	83.355402
loop_
_atom_site_label
_atom_site_type_symbol
_atom_site_fract_x
_atom_site_fract_y
_atom_site_fract_z
O1	O	1.058005	0.028044	-0.068750
O2	O	0.828185	0.056289	-0.068751
O3	O	0.941729	-0.071555	-0.068744
O4	O	0.944461	0.155888	-0.068757
O5	O	0.941711	-0.071562	0.068749
O6	O	0.828167	0.056283	0.068742
O7	O	1.057987	0.028038	0.068743
Cu8	Cu	0.943076	0.042160	0.081297
Cu9	Cu	0.943096	0.042167	-0.081305
O10	O	0.944443	0.155882	0.068736
C11	C	0.939235	-0.100516	0.000002
C12	C	0.931823	-0.186802	0.000002
C13	C	0.798625	0.057803	-0.000005
C14	C	0.710572	0.062314	-0.000005
C15	C	0.999881	-0.241577	0.000003
C16	C	0.992911	-0.322650	-0.000005
C17	C	0.917882	-0.348946	-0.000008
C18	C	0.849819	-0.294164	-0.000012
C19	C	0.856789	-0.213093	-0.000010
C20	C	0.893256	-0.593018	-0.000019
C21	C	0.886291	-0.674096	-0.000019
C22	C	1.029384	-0.702577	-0.000014
C23	C	1.036348	-0.621502	-0.000007
C24	C	0.968285	-0.566727	-0.000015
C25	C	0.910756	-0.431816	-0.000013
C26	C	0.975411	-0.483859	-0.000015
C27	C	0.673845	-0.007108	0.000000
C28	C	0.591110	-0.002864	-0.000006
C29	C	0.545102	0.070802	-0.000012
C30	C	0.581834	0.140229	-0.000020
C31	C	0.664568	0.135985	-0.000019
C32	C	0.295066	0.087196	-0.000018
C33	C	0.212327	0.091434	-0.000016
C34	C	0.221608	-0.051659	-0.000004
C35	C	0.304344	-0.055897	0.000001
C36	C	0.341068	0.013530	-0.000011
C37	C	0.460533	0.075141	-0.000015
C38	C	0.425636	0.009190	-0.000013
C39	C	1.087547	0.026524	-0.000005
C40	C	1.175600	0.022013	-0.000011
C41	C	0.946936	0.184843	-0.000013
C42	C	0.954349	0.271129	-0.000018
N43	N	0.943067	0.042153	0.195662
N44	N	0.943111	0.042167	-0.195670
C45	C	0.993362	-0.014436	0.238929
C46	C	0.993366	-0.014437	0.325476
C47	C	0.943079	0.042155	0.368754
C48	C	0.892778	0.098747	0.325481
C49	C	0.892770	0.098744	0.238935
C50	C	0.892806	0.098760	0.674509
C51	C	0.892819	0.098760	0.761061
C52	C	0.993402	-0.014421	0.761050
C53	C	0.993394	-0.014424	0.674504
C54	C	0.943091	0.042165	0.631239
C55	C	0.943086	0.042165	0.537394
C56	C	0.943087	0.042160	0.462597
H57	H	1.060978	-0.220174	0.000011
O58	O	1.042307	-0.069434	0.367378
C59	C	1.086684	-0.119388	0.310621
H60	H	1.089721	-0.087543	0.248921
H61	H	1.149155	-0.135558	0.335610
H62	H	1.057062	-0.175457	0.301437
O63	O	1.042065	-0.069532	0.632442
C64	C	0.996274	-0.114645	0.582515
H65	H	0.936442	-0.079321	0.569494
H66	H	1.028483	-0.129394	0.521676
H67	H	0.986868	-0.171696	0.616000
O68	O	1.042218	-0.069505	0.802991
C69	C	1.024112	-0.145665	0.781870
H70	H	0.993578	-0.143486	0.719038
H71	H	1.081069	-0.188052	0.778903
H72	H	0.983050	-0.167043	0.830590
H73	H	1.036500	-0.462446	-0.000031
O74	O	0.330835	0.154573	0.000067
C75	C	0.378404	0.156419	0.071274
H76	H	0.394817	0.093669	0.095035
H77	H	0.434624	0.183701	0.055234
H78	H	0.344238	0.193377	0.121131
H79	H	0.801369	-0.168494	-0.000011
H80	H	0.544368	0.200209	-0.000030
O81	O	0.776918	-0.319668	-0.000163
C82	C	0.735100	-0.291171	-0.071364
H83	H	0.778885	-0.277212	-0.121133
H84	H	0.698068	-0.338025	-0.095267
H85	H	0.694532	-0.235234	-0.055266
H86	H	0.463099	-0.050788	-0.000013
H87	H	0.851866	0.144846	0.796296
H88	H	1.097445	-0.600099	-0.000004
H89	H	0.851849	0.144838	0.639289
O90	O	0.718501	-0.078686	-0.000142
C91	C	0.701099	-0.121175	-0.071340
H92	H	0.675647	-0.078142	-0.121111
H93	H	0.757614	-0.156418	-0.095242
H94	H	0.655964	-0.163323	-0.055239
O95	O	0.844002	0.153818	0.196940
C96	C	0.862080	0.229983	0.218084
H97	H	0.925537	0.226042	0.241859
H98	H	0.855603	0.269659	0.161162
H99	H	0.819719	0.255836	0.268325
O100	O	0.844002	0.153686	0.367647
C101	C	0.854780	0.141546	0.453313
H102	H	0.915800	0.108166	0.465123
H103	H	0.849957	0.201085	0.486194
H104	H	0.807300	0.105571	0.477893
H105	H	0.423064	0.135120	-0.000019
H106	H	1.048332	-0.367246	-0.000002
O107	O	1.095416	-0.755891	-0.000050
C108	C	1.073180	-0.833086	-0.000032
H109	H	1.010743	-0.831918	-0.026061
H110	H	1.116228	-0.872987	-0.039952
H111	H	1.074587	-0.856777	0.065930
O112	O	0.700156	0.203476	-0.000133
C113	C	0.677140	0.248029	-0.071356
H114	H	0.618391	0.230768	-0.095093
H115	H	0.670064	0.313625	-0.055347
H116	H	0.724352	0.235723	-0.121219
O117	O	0.813463	-0.699775	0.000012
C118	C	0.821911	-0.783076	-0.000003
H119	H	0.882443	-0.806386	0.026032
H120	H	0.773565	-0.804798	0.039914
H121	H	0.816554	-0.805406	-0.065964
O122	O	0.827082	-0.539895	-0.000128
C123	C	0.781872	-0.551026	-0.071345
H124	H	0.797165	-0.613934	-0.095088
H125	H	0.716181	-0.540781	-0.055326
H126	H	0.795710	-0.507363	-0.121208
O127	O	0.837830	-0.457264	0.000098
C128	C	0.796006	-0.428820	0.071319
H129	H	0.821403	-0.374009	0.095065
H130	H	0.730795	-0.413019	0.055305
H131	H	0.801999	-0.476432	0.121179
O132	O	0.555341	-0.070244	0.000109
C133	C	0.507762	-0.072080	0.071325
H134	H	0.491339	-0.009327	0.095060
H135	H	0.451548	-0.099373	0.055307
H136	H	0.541925	-0.109025	0.121193
O137	O	0.348915	-0.127521	-0.000028
C138	C	0.298758	-0.187886	-0.000001
H139	H	0.238426	-0.163890	-0.026039
H140	H	0.325915	-0.239152	-0.039910
H141	H	0.291373	-0.209431	0.065964
O142	O	0.185806	-0.119019	-0.000036
C143	C	0.102918	-0.099481	-0.000017
H144	H	0.087633	-0.037413	-0.026049
H145	H	0.074444	-0.143559	-0.039934
H146	H	0.079651	-0.101675	0.065945
H147	H	0.174868	0.151425	-0.000017
O148	O	1.042084	-0.069465	0.196820
C149	C	0.996373	-0.114594	0.146820
H150	H	0.936495	-0.079345	0.133843
H151	H	1.028599	-0.129213	0.085964
H152	H	0.987064	-0.171717	0.180220
