data_functionalizedCrystal
_audit_creation_method	'MofGen! by Chris Wilmer'
_symmetry_space_group_name_H-M	'P1'
_symmetry_Int_Tables_number	1
_symmetry_cell_setting	triclinic
loop_
_symmetry_equiv_pos_as_xyz
  x,y,z
_cell_length_a	6.817900
_cell_length_b	10.943624
_cell_length_c	14.858329
_cell_angle_alpha	93.400022
_cell_angle_beta	104.519616
_cell_angle_gamma	108.838799
loop_
_atom_site_label
_atom_site_type_symbol
_atom_site_fract_x
_atom_site_fract_y
_atom_site_fract_z
V1	V	-4.093423	-0.402919	-0.128646
O2	O	-4.074269	-0.394870	0.006207
O3	O	-4.049676	-0.400528	-0.255108
O4	O	-4.071727	-0.578480	-0.126656
O5	O	-4.052065	-0.215686	-0.123134
V6	V	-4.572988	-0.380480	-0.112517
O7	O	-4.363364	-0.452140	-0.164026
O8	O	-4.753244	-0.331259	-0.077138
O9	O	-4.393528	-0.382872	0.013944
O10	O	-4.709539	-0.388529	-0.247370
O11	O	-4.731742	-0.567713	-0.118030
O12	O	-4.371477	-0.204919	-0.114507
C13	C	-3.894945	-0.394265	-0.285936
C14	C	-3.940641	-0.393480	-0.389320
C15	C	-3.977744	-0.392830	-0.473278
C16	C	-4.024311	-0.392022	-0.578608
C17	C	-4.061443	-0.391378	-0.662560
C18	C	-4.108013	-0.390567	-0.767896
C19	C	-3.923072	-0.621259	-0.122083
C20	C	-3.986647	-0.764784	-0.121293
C21	C	-3.832390	-0.841916	-0.115972
C22	C	-4.008198	-0.948132	-0.194950
C23	C	-3.924145	-0.914305	-0.040915
C24	C	-4.161653	-0.869123	-0.200345
C25	C	-4.077531	-0.835272	-0.046240
C26	C	-4.253472	-0.941458	-0.125241
C27	C	-4.211601	-0.389130	0.044768
C28	C	-4.145144	-0.389924	0.148151
C29	C	-4.183474	-0.162133	-0.119084
C30	C	-4.099137	-0.018608	-0.119869
H31	H	-3.979549	-0.997260	-0.257819
O32	O	-4.466482	-0.993093	-0.129765
C33	C	-4.729516	-1.109731	-0.054215
C34	C	-4.488209	-1.051283	-0.048957
H35	H	-4.747163	-1.156816	0.011100
H36	H	-4.801795	-1.029001	-0.058051
H37	H	-4.818252	-1.186732	-0.119634
H38	H	-4.399294	-0.974298	0.016456
H39	H	-4.416096	-1.132086	-0.045172
H40	H	-4.261462	-0.848772	-0.267799
H41	H	-4.106096	-0.786109	0.016632
H42	H	-3.653844	-0.798457	-0.112158
O43	O	-3.804770	-0.938629	0.039454
C44	C	-3.448757	-0.915532	0.135095
C45	C	-3.583699	-0.887879	0.044061
H46	H	-3.270000	-0.874538	0.138841
H47	H	-3.476443	-0.867127	0.198548
H48	H	-3.499965	-1.025502	0.135258
H49	H	-3.532575	-0.777934	0.043806
H50	H	-3.556002	-0.936373	-0.019351
