data_functionalizedCrystal
_audit_creation_method	'MofGen! by Chris Wilmer'
_symmetry_space_group_name_H-M	'P1'
_symmetry_Int_Tables_number	1
_symmetry_cell_setting	triclinic
loop_
_symmetry_equiv_pos_as_xyz
  x,y,z
_cell_length_a	17.917603
_cell_length_b	14.809374
_cell_length_c	14.809374
_cell_angle_alpha	57.530506
_cell_angle_beta	98.933690
_cell_angle_gamma	64.657176
loop_
_atom_site_label
_atom_site_type_symbol
_atom_site_fract_x
_atom_site_fract_y
_atom_site_fract_z
Zr1	Zr	0.818021	0.909382	-0.175656
O2	O	0.688714	1.114502	-0.351673
O3	O	0.847038	0.715442	-0.107691
O4	O	0.836641	0.907306	-0.320348
O5	O	0.719396	0.920376	0.012797
O6	O	0.965413	0.892950	-0.311570
O7	O	0.699111	0.922638	-0.139017
O8	O	0.984010	0.549740	0.068833
O9	O	0.700798	1.263586	-0.367606
O10	O	0.968348	0.780358	-0.089077
O11	O	0.887386	0.789383	0.017670
O12	O	0.875146	1.015279	-0.232706
O13	O	0.794183	1.024304	-0.125959
Zr14	Zr	1.055750	0.882879	0.080469
Zr15	Zr	1.023397	0.886486	-0.161658
Zr16	Zr	0.850374	0.905775	0.066470
Zr17	Zr	0.837294	1.147154	-0.201068
Zr18	Zr	1.036477	0.645107	0.105880
O19	O	1.026734	1.076819	0.012503
O20	O	0.980732	1.081947	-0.331769
O21	O	0.734716	1.109374	-0.007401
O22	O	1.185057	0.677759	0.256485
O23	O	1.139056	0.682887	-0.087787
O24	O	0.893039	0.710313	0.236581
O25	O	1.154375	0.871884	-0.107985
O26	O	1.037130	0.884955	0.225160
O27	O	0.908359	0.899311	0.216382
O28	O	1.174661	0.869623	0.043829
O29	O	0.864045	1.245387	-0.356479
O30	O	1.009727	0.546874	0.261291
O31	O	1.172973	0.528675	0.272418
O32	O	1.147257	0.531542	0.079960
O33	O	0.726515	1.260719	-0.175148
O34	O	0.889761	1.242520	-0.164021
O35	O	0.998626	0.776982	0.137518
O36	O	1.079588	0.767957	0.030771
O37	O	0.986385	1.002878	-0.112858
O38	O	0.905423	1.011903	-0.006111
C39	C	0.912778	0.598714	-0.015809
C40	C	0.904596	0.497773	-0.005021
C41	C	0.941111	0.448293	-0.053165
C42	C	0.932656	0.343966	-0.042016
C43	C	0.679992	0.924769	-0.065105
C44	C	0.592804	0.934489	-0.071047
C45	C	0.433190	0.952243	-0.081901
C46	C	0.440575	0.840023	-0.013290
C47	C	0.351760	0.849902	-0.019329
C48	C	0.522011	0.942367	-0.075864
C49	C	1.193780	0.867492	-0.030083
C50	C	1.280967	0.857772	-0.024141
C51	C	0.896417	0.900642	-0.350457
C52	C	0.882683	0.902173	-0.453246
C53	C	0.960993	1.193547	-0.079379
C54	C	0.969175	1.294488	-0.090167
C55	C	0.943979	0.895340	-0.494477
C56	C	0.929785	0.896922	-0.600714
C57	C	0.977354	0.891619	0.255269
C58	C	0.991089	0.890088	0.358058
C59	C	1.169672	0.570075	0.001702
C60	C	1.248678	0.459414	0.018433
C61	C	0.953247	0.594202	0.287054
C62	C	0.958799	0.491730	0.400631
C63	C	1.210141	0.565563	0.304565
C64	C	1.302881	0.453372	0.424084
C65	C	0.663631	1.226698	-0.399753
C66	C	0.570891	1.338889	-0.519272
C67	C	0.704099	1.222186	-0.096890
C68	C	0.625094	1.332846	-0.113621
C69	C	0.920525	1.198059	-0.382242
C70	C	0.914972	1.300530	-0.495819
C71	C	1.227712	0.413921	-0.036280
C72	C	1.301937	0.309958	-0.020584
C73	C	1.397126	0.251484	0.049832
C74	C	1.418091	0.296988	0.104545
C75	C	1.343867	0.400955	0.088841
C76	C	1.388703	0.395973	0.424492
C77	C	1.475849	0.290570	0.536783
C78	C	1.477172	0.242561	0.648666
C79	C	1.391341	0.299970	0.648254
C80	C	1.304197	0.405378	0.535964
C81	C	0.485070	1.396299	-0.519681
C82	C	0.397925	1.501732	-0.631975
C83	C	0.396603	1.549746	-0.743859
C84	C	0.482434	1.492331	-0.743447
C85	C	0.569577	1.386907	-0.631155
C86	C	0.646059	1.378350	-0.058919
C87	C	0.571833	1.482340	-0.074644
C88	C	0.476643	1.540817	-0.145064
C89	C	0.455679	1.495309	-0.199772
C90	C	0.529904	1.391328	-0.184054
C91	C	0.897113	0.533654	0.440355
C92	C	0.902311	0.437387	0.547060
C93	C	0.969200	0.299196	0.614045
C94	C	1.030889	0.257273	0.574313
C95	C	1.025686	0.353540	0.467604
C96	C	0.848078	1.438706	-0.562772
C97	C	0.842859	1.535002	-0.669481
C98	C	0.904532	1.493121	-0.709241
C99	C	0.971434	1.354932	-0.642277
C100	C	0.976656	1.258638	-0.535565
H101	H	0.978638	0.483161	-0.102631
H102	H	0.895134	0.309092	0.007462
N103	N	0.899180	1.591510	-0.818247
N104	N	0.839442	1.714877	-0.878009
H105	H	0.835657	1.784372	-0.954997
N106	N	0.839293	0.480250	0.587620
N107	N	0.779590	0.603639	0.527806
H108	H	0.735084	0.633916	0.556450
H109	H	1.006704	0.329353	-0.139637
N110	N	1.216543	0.463986	0.535580
N111	N	1.217748	0.421096	0.635491
H112	H	1.155844	0.462484	0.635230
N113	N	0.974528	0.200852	0.723053
N114	N	1.034252	0.077469	0.782860
H115	H	1.038012	0.008015	0.859848
N116	N	0.358450	1.555008	-0.271677
N117	N	0.339731	1.514365	-0.320503
H118	H	0.271062	1.556519	-0.371276
N119	N	1.280492	0.263507	-0.076486
N120	N	1.195496	0.315723	-0.139339
H121	H	1.180348	0.282921	-0.178820
N122	N	1.070123	0.881264	-0.587580
N123	N	1.130739	0.783877	-0.474618
H124	H	1.186558	0.777648	-0.436232
N125	N	1.515327	0.237225	0.176502
N126	N	1.549415	0.179999	0.288107
H127	H	1.618091	0.137782	0.338936
H128	H	1.021645	1.320850	-0.674666
H129	H	0.819700	0.909188	-0.496592
N130	N	0.857542	0.453999	0.057059
N131	N	0.850748	0.369303	0.066038
H132	H	0.817518	0.338384	0.109887
H133	H	1.548137	0.156730	0.740091
N134	N	1.365275	0.447414	0.144749
N135	N	1.299007	0.540233	0.130740
H136	H	1.314131	0.573041	0.170229
N137	N	1.387383	0.444977	0.310228
N138	N	1.464028	0.393702	0.310632
H139	H	1.463105	0.428307	0.229937
H140	H	0.513599	0.736529	0.049984
H141	H	0.360170	1.055729	-0.145172
H142	H	0.328048	1.548463	-0.632286
H143	H	1.150209	0.461529	-0.093633
H144	H	1.006968	0.888311	-0.451123
N145	N	1.563503	0.231939	0.537164
N146	N	1.576901	0.177048	0.494095
H147	H	1.638804	0.135641	0.494360
H148	H	1.085349	0.144746	0.628868
H149	H	1.075924	0.319385	0.435275
H150	H	1.031127	1.146130	-0.481062
N151	N	0.486388	1.347280	-0.405416
N152	N	0.409745	1.398573	-0.405822
H153	H	0.410668	1.363963	-0.325126
N154	N	0.785103	1.481525	-0.522153
N155	N	0.725413	1.604906	-0.581929
H156	H	0.680949	1.635158	-0.553231
N157	N	1.392682	0.250920	0.762536
N158	N	1.316053	0.302161	0.762173
H159	H	1.317000	0.267513	0.842887
H160	H	0.866797	0.903937	-0.644057
H161	H	0.512820	1.354283	-0.228597
N162	N	1.472933	0.145176	0.065975
N163	N	1.454194	0.104501	0.017197
H164	H	1.507731	0.029376	0.028643
H165	H	0.481346	1.531438	-0.834556
H166	H	0.639452	1.340164	-0.630835
N167	N	0.307576	1.657439	-0.858547
N168	N	0.230961	1.708676	-0.858880
H169	H	0.168081	1.784734	-0.939875
H170	H	0.723562	1.330746	-0.001570
N171	N	0.593277	1.528796	-0.018750
N172	N	0.678274	1.476556	0.044131
H173	H	0.693423	1.509362	0.083608
N174	N	0.400841	1.647033	-0.161106
N175	N	0.419584	1.687639	-0.112251
H176	H	0.366053	1.762653	-0.123574
N177	N	0.828780	0.674801	0.371961
N178	N	0.773711	0.712192	0.407458
H179	H	0.725445	0.811877	0.359158
H180	H	0.788376	1.647516	-0.723992
