data_functionalizedCrystal
_audit_creation_method	'MofGen! by Chris Wilmer'
_symmetry_space_group_name_H-M	'P1'
_symmetry_Int_Tables_number	1
_symmetry_cell_setting	triclinic
loop_
_symmetry_equiv_pos_as_xyz
  x,y,z
_cell_length_a	14.853567
_cell_length_b	15.995350
_cell_length_c	13.930277
_cell_angle_alpha	89.997676
_cell_angle_beta	89.995755
_cell_angle_gamma	83.563653
loop_
_atom_site_label
_atom_site_type_symbol
_atom_site_fract_x
_atom_site_fract_y
_atom_site_fract_z
O1	O	1.196221	0.109317	-0.079760
O2	O	0.933744	0.122339	-0.079776
O3	O	1.072157	-0.006051	-0.079766
O4	O	1.057808	0.237707	-0.079769
O5	O	1.072138	-0.006054	0.079895
O6	O	0.933725	0.122336	0.079886
O7	O	1.196202	0.109314	0.079902
Zn8	Zn	1.064960	0.115825	0.105244
Zn9	Zn	1.064986	0.115828	-0.105117
O10	O	1.057788	0.237705	0.079893
C11	C	0.900146	0.121748	0.000053
C12	C	0.800065	0.119980	0.000047
C13	C	0.387644	0.036238	0.000069
C14	C	0.366158	0.188769	0.000067
C15	C	0.460189	0.190432	0.000064
C16	C	0.517953	0.114996	0.000062
C17	C	0.481685	0.037899	0.000063
C18	C	0.496464	0.267528	0.000053
C19	C	0.590501	0.269194	0.000048
C20	C	0.648266	0.193758	0.000054
C21	C	0.611993	0.116657	0.000056
C22	C	0.669757	0.041221	0.000054
C23	C	0.633485	-0.035880	0.000064
C24	C	0.539450	-0.037538	0.000069
C25	C	0.742302	0.195415	0.000049
C26	C	0.763797	0.042882	0.000048
C27	C	1.071555	-0.037248	0.000063
C28	C	1.069776	-0.130201	0.000057
C29	C	1.063389	-0.467956	0.000060
C30	C	0.964813	-0.420636	-0.000304
C31	C	0.966592	-0.323944	0.000056
C32	C	1.066557	-0.300391	0.000058
C33	C	1.115167	-0.341414	0.091234
C34	C	1.112691	-0.438052	0.091310
C35	C	1.114749	-0.438405	-0.090255
C36	C	1.114726	-0.341460	-0.091460
C37	C	1.068353	-0.205692	0.000060
C38	C	1.061596	-0.562655	0.000064
C39	C	1.229799	0.109906	0.000071
C40	C	1.329881	0.111674	0.000071
C41	C	1.058391	0.268901	0.000062
C42	C	1.060170	0.361854	0.000061
N43	N	1.064950	0.115822	0.248810
N44	N	1.065003	0.115825	-0.248684
C45	C	1.003694	0.172657	0.701075
C46	C	1.126302	0.058993	0.701053
C47	C	1.126292	0.058990	0.600557
C48	C	1.064982	0.115823	0.550316
C49	C	1.003683	0.172658	0.600570
C50	C	1.187595	0.002162	0.550295
C51	C	1.187588	0.002158	0.449793
C52	C	1.126273	0.058987	0.399550
C53	C	1.064971	0.115824	0.449811
C54	C	1.003661	0.172656	0.399569
C55	C	0.942354	0.229490	0.449828
C56	C	0.942368	0.229487	0.550327
C57	C	1.126259	0.058989	0.299051
C58	C	1.003651	0.172657	0.299064
H59	H	0.928381	-0.295565	-0.065303
H60	H	1.176179	0.012720	0.258135
O61	O	0.500330	-0.120692	0.000078
H62	H	0.458010	-0.125098	-0.065000
H63	H	1.082528	-0.458981	-0.159361
O64	O	0.912840	-0.446633	0.085821
H65	H	0.956911	-0.493109	0.128886
O66	O	0.937522	0.233950	0.244868
H67	H	0.949004	0.299245	0.264142
H68	H	1.237517	-0.044106	0.591205
H69	H	0.449427	0.328943	0.000044
O70	O	1.067716	-0.305350	-0.180810
H71	H	1.102158	-0.334696	-0.245169
H72	H	0.892455	0.275760	0.591254
H73	H	1.077228	-0.456396	0.159464
O74	O	0.937580	0.233958	0.755281
H75	H	0.949065	0.299249	0.735979
O76	O	1.211294	-0.321010	-0.098758
H77	H	1.226535	-0.281083	-0.036990
H78	H	1.187428	-0.470081	-0.090866
O79	O	0.912625	-0.445258	-0.086901
H80	H	0.947997	-0.428699	-0.153266
O81	O	0.826100	-0.038482	0.000048
H82	H	0.785077	-0.092369	0.000050
H83	H	1.176223	0.012726	0.741962
H84	H	0.319121	0.250185	0.000060
O85	O	1.253697	-0.059146	0.395586
H86	H	1.296325	-0.098669	0.447408
H87	H	1.081389	-0.313073	0.159082
H88	H	0.358108	-0.026536	0.000081
H89	H	0.680529	-0.097299	0.000056
O90	O	0.629623	0.352348	0.000061
H91	H	0.573657	0.404522	0.000075
H92	H	1.185063	-0.470216	0.095448
O93	O	0.876230	0.290779	0.395621
H94	H	0.887710	0.356076	0.414890
H95	H	0.771830	0.258190	0.000043
H96	H	0.928108	-0.296125	0.065521
O97	O	1.212445	-0.322582	0.095744
H98	H	1.249055	-0.348198	0.030803
