data_functionalizedCrystal
_audit_creation_method	'MofGen! by Chris Wilmer'
_symmetry_space_group_name_H-M	'P1'
_symmetry_Int_Tables_number	1
_symmetry_cell_setting	triclinic
loop_
_symmetry_equiv_pos_as_xyz
  x,y,z
_cell_length_a	10.489746
_cell_length_b	19.288865
_cell_length_c	18.366186
_cell_angle_alpha	90.011479
_cell_angle_beta	89.993894
_cell_angle_gamma	96.161226
loop_
_atom_site_label
_atom_site_type_symbol
_atom_site_fract_x
_atom_site_fract_y
_atom_site_fract_z
O1	O	1.691842	-0.098011	-0.060510
O2	O	1.320439	-0.107205	-0.060523
O3	O	1.516872	-0.001550	-0.060502
O4	O	1.495408	-0.203667	-0.060531
O5	O	1.516839	-0.001545	0.060597
O6	O	1.320406	-0.107200	0.060576
O7	O	1.691808	-0.098006	0.060589
Zn8	Zn	1.506102	-0.102602	0.079810
Zn9	Zn	1.506145	-0.102609	-0.079744
O10	O	1.495375	-0.203661	0.060568
C11	C	1.272906	-0.106508	0.000025
C12	C	1.131324	-0.104428	0.000021
C13	C	0.980015	-0.035971	0.000041
C14	C	1.056618	-0.070194	0.059742
C15	C	1.056606	-0.070215	-0.059652
C16	C	0.955661	-0.134980	0.059790
C17	C	0.955644	-0.134991	-0.059659
C18	C	1.032197	-0.169262	0.000057
C19	C	1.516165	0.024334	0.000050
C20	C	1.514092	0.101451	0.000056
C21	C	1.739341	-0.098704	0.000039
C22	C	1.880923	-0.100783	0.000039
C23	C	1.496082	-0.229545	0.000014
C24	C	1.498156	-0.306662	0.000003
N25	N	1.506081	-0.102597	0.188701
C26	C	1.629350	0.145373	0.000064
C27	C	1.627402	0.217834	0.000052
C28	C	1.510190	0.246368	0.000048
C29	C	1.394916	0.202436	0.000036
C30	C	1.396867	0.129978	0.000040
C31	C	1.418035	0.355277	0.042463
C32	C	1.416089	0.427734	0.042463
C33	C	1.504167	0.469854	0.000031
C34	C	1.594213	0.439510	-0.042392
C35	C	1.596164	0.367051	-0.042387
C36	C	1.508061	0.324937	0.000043
C37	C	1.617322	0.592347	0.000025
C38	C	1.615369	0.664808	0.000009
C39	C	1.382880	0.649409	0.000000
C40	C	1.384836	0.576950	0.000009
C41	C	1.502060	0.548423	0.000025
N42	N	1.506176	-0.102609	-0.188635
C43	C	1.593090	-0.055836	0.226811
C44	C	1.593098	-0.055833	0.303039
C45	C	1.506109	-0.102603	0.341154
C46	C	1.419084	-0.149367	0.303035
C47	C	1.419070	-0.149364	0.226808
C48	C	1.489035	-0.165776	0.461904
C49	C	1.489058	-0.165780	0.538129
C50	C	1.506146	-0.102612	0.576261
C51	C	1.523237	-0.039437	0.538159
C52	C	1.523223	-0.039434	0.461932
C53	C	1.506114	-0.102611	0.423808
C54	C	1.593168	-0.055843	0.697026
C55	C	1.593167	-0.055839	0.773255
C56	C	1.419159	-0.149380	0.773250
C57	C	1.419154	-0.149378	0.697022
C58	C	1.506165	-0.102610	0.658915
H59	H	1.724803	0.122152	0.000074
H60	H	1.100699	-0.042831	0.110225
H61	H	1.712772	0.569119	0.000035
H62	H	1.721262	0.253602	0.000056
H63	H	0.911539	-0.162330	-0.110143
H64	H	1.665935	0.473803	-0.076944
H65	H	1.664014	-0.017760	0.665998
H66	H	1.100682	-0.042845	-0.110127
H67	H	0.956568	0.020386	0.000109
H68	H	1.475099	-0.217218	0.430864
H69	H	1.664017	-0.017757	0.804285
H70	H	1.663936	-0.017754	0.195786
H71	H	1.348254	-0.187447	0.334072
H72	H	1.669480	0.342348	-0.076931
H73	H	1.709230	0.700569	0.000011
H74	H	1.342763	0.452434	0.077002
H75	H	1.287444	0.672641	-0.000007
H76	H	1.346308	0.320987	0.077020
H77	H	1.299481	0.225674	0.000031
H78	H	1.348308	-0.187458	0.665991
H79	H	1.290980	0.541187	0.000007
H80	H	1.303007	0.094216	0.000034
H81	H	1.348215	-0.187443	0.195779
H82	H	0.911750	-0.162319	0.110321
H83	H	1.348327	-0.187458	0.804283
H84	H	1.475150	-0.217220	0.569147
H85	H	1.663953	-0.017753	0.334073
H86	H	1.537135	0.012005	0.430912
H87	H	1.537150	0.012001	0.569204
H88	H	1.055398	-0.225661	0.000082
