data_functionalizedCrystal
_audit_creation_method	'MofGen! by Chris Wilmer'
_symmetry_space_group_name_H-M	'P1'
_symmetry_Int_Tables_number	1
_symmetry_cell_setting	triclinic
loop_
_symmetry_equiv_pos_as_xyz
  x,y,z
_cell_length_a	14.044191
_cell_length_b	10.723022
_cell_length_c	12.503572
_cell_angle_alpha	93.558947
_cell_angle_beta	86.155253
_cell_angle_gamma	88.829501
loop_
_atom_site_label
_atom_site_type_symbol
_atom_site_fract_x
_atom_site_fract_y
_atom_site_fract_z
O1	O	1.254230	0.307694	0.089264
O2	O	0.978189	0.296823	0.089278
O3	O	1.122578	0.121319	0.089267
O4	O	1.109842	0.483198	0.089275
O5	O	1.133442	0.108103	-0.089376
O6	O	0.989053	0.283607	-0.089365
O7	O	1.265094	0.294478	-0.089379
Cu8	Cu	1.128065	0.287836	-0.105683
Cu9	Cu	1.115218	0.303465	0.105582
O10	O	1.120705	0.469982	-0.089368
C11	C	1.127083	0.068119	-0.000053
C12	C	1.124311	-0.070713	-0.000050
C13	C	0.948276	0.285458	-0.000042
C14	C	0.842957	0.271271	-0.000037
C15	C	1.202236	-0.281092	-0.000048
C16	C	1.205103	-0.137603	-0.000052
C17	C	0.593157	0.345956	-0.000046
C18	C	0.650132	0.245352	-0.000046
C19	C	0.757430	0.259777	-0.000041
C20	C	0.485849	0.331533	-0.000051
C21	C	1.295008	0.305843	-0.000057
C22	C	1.400326	0.320031	-0.000055
C23	C	1.116200	0.523182	-0.000045
C24	C	1.118972	0.662014	-0.000042
N25	N	1.106182	0.314449	0.254175
N26	N	1.137108	0.276843	-0.254276
C27	C	1.092883	0.330606	0.473292
C28	C	1.150405	0.260690	0.526614
C29	C	1.143005	0.269680	0.648538
C30	C	1.100282	0.321618	0.351357
H31	H	1.271399	-0.338613	-0.000056
H32	H	1.276391	-0.088653	-0.000019
H33	H	1.053017	-0.119650	-0.000039
H34	H	0.618322	0.148394	0.000027
C35	C	0.611448	0.535029	-0.091859
C36	C	0.636085	0.476848	-0.000031
H37	H	0.637964	0.615832	-0.091847
H38	H	0.543935	0.542386	-0.091855
H39	H	0.635751	0.486334	-0.154152
H40	H	0.611775	0.525539	0.062263
H41	H	0.703611	0.469497	-0.000025
C42	C	0.948060	-0.340391	-0.000035
C43	C	1.025597	-0.260349	-0.000040
H44	H	0.890414	-0.292461	-0.000040
H45	H	0.946796	-0.386874	0.062260
H46	H	0.954378	-0.396109	-0.062334
H47	H	1.019282	-0.204637	0.062263
H48	H	1.026860	-0.213846	-0.062342
H49	H	1.205209	0.194080	0.480697
C50	C	1.025788	0.412114	0.645804
C51	C	1.018893	0.420510	0.535269
H52	H	0.980104	0.467608	0.684073
H53	H	1.088078	0.434094	0.664161
H54	H	1.013843	0.328945	0.664142
H55	H	1.030846	0.503677	0.516930
H56	H	0.956589	0.398537	0.516904
