data_functionalizedCrystal
_audit_creation_method	'MofGen! by Chris Wilmer'
_symmetry_space_group_name_H-M	'P1'
_symmetry_Int_Tables_number	1
_symmetry_cell_setting	triclinic
loop_
_symmetry_equiv_pos_as_xyz
  x,y,z
_cell_length_a	21.395362
_cell_length_b	21.295417
_cell_length_c	21.395355
_cell_angle_alpha	89.978549
_cell_angle_beta	89.956060
_cell_angle_gamma	90.046383
loop_
_atom_site_label
_atom_site_type_symbol
_atom_site_fract_x
_atom_site_fract_y
_atom_site_fract_z
Zn1	Zn	0.957860	-0.250415	-0.354573
Zn2	Zn	1.457860	0.249585	0.145427
Zn3	Zn	0.957763	-0.355667	-0.249790
Zn4	Zn	1.457763	0.144333	0.250210
Zn5	Zn	0.853075	-0.250445	-0.249774
Zn6	Zn	1.353075	0.249555	0.250226
Zn7	Zn	0.853045	-0.355680	-0.354495
Zn8	Zn	1.353045	0.144320	0.145505
O9	O	0.905436	-0.303052	-0.302158
O10	O	1.405436	0.196948	0.197842
O11	O	1.045525	-0.264359	-0.340713
O12	O	1.545525	0.235641	0.159287
O13	O	0.943848	-0.341716	-0.162110
O14	O	1.443848	0.158284	0.337890
O15	O	0.867029	-0.162351	-0.263702
O16	O	1.367029	0.337649	0.236298
O17	O	1.045454	-0.341687	-0.263729
O18	O	1.545454	0.158313	0.236271
O19	O	0.944014	-0.162330	-0.340697
O20	O	1.444014	0.337670	0.159303
O21	O	0.866934	-0.264409	-0.162098
O22	O	1.366934	0.235591	0.337902
O23	O	0.765393	-0.264422	-0.263626
O24	O	1.265393	0.235578	0.236374
O25	O	0.866977	-0.341709	-0.442183
O26	O	1.366977	0.158291	0.057817
O27	O	0.765371	-0.341738	-0.340564
O28	O	1.265371	0.158262	0.159436
O29	O	0.943984	-0.264372	-0.442240
O30	O	1.443984	0.235628	0.057760
O31	O	0.943819	-0.443758	-0.263653
O32	O	1.443819	0.056242	0.236347
O33	O	0.866883	-0.443767	-0.340579
O34	O	1.366883	0.056233	0.159421
C35	C	0.742648	-0.303085	-0.302085
C36	C	1.242648	0.196915	0.197915
C37	C	0.673007	-0.303114	-0.302069
C38	C	1.173007	0.196886	0.197931
C39	C	0.640299	-0.343426	-0.342070
C40	C	1.140299	0.156574	0.157930
C41	C	0.574863	-0.343411	-0.342098
C42	C	1.074863	0.156589	0.157902
C43	C	0.542139	-0.303090	-0.302114
C44	C	1.042139	0.196910	0.197886
C45	C	0.574855	-0.262771	-0.262109
C46	C	1.074855	0.237229	0.237891
C47	C	0.640289	-0.262783	-0.262087
C48	C	1.140289	0.237217	0.237913
C49	C	0.438414	-0.298019	-0.245709
C50	C	0.938414	0.201981	0.254291
C51	C	0.372981	-0.298011	-0.245730
C52	C	0.872981	0.201989	0.254270
C53	C	0.340318	-0.303049	-0.302183
C54	C	0.840318	0.196951	0.197817
C55	C	0.373096	-0.308108	-0.358616
C56	C	0.873096	0.191892	0.141384
C57	C	0.438530	-0.308120	-0.358594
C58	C	0.938530	0.191880	0.141406
C59	C	0.471186	-0.303072	-0.302134
C60	C	0.971186	0.196928	0.197866
C61	C	0.236657	-0.343346	-0.342218
C62	C	0.736657	0.156654	0.157782
C63	C	0.171221	-0.343326	-0.342247
C64	C	0.671221	0.156674	0.157753
C65	C	0.171214	-0.262690	-0.262252
C66	C	0.671214	0.237310	0.237748
C67	C	0.236649	-0.262706	-0.262229
C68	C	0.736649	0.237294	0.237771
C69	C	0.269367	-0.303038	-0.302211
C70	C	0.769367	0.196962	0.197789
C71	C	0.905354	-0.466603	-0.302123
C72	C	1.405354	0.033397	0.197877
C73	C	0.905376	-0.536571	-0.302129
C74	C	1.405376	-0.036571	0.197871
C75	C	0.945472	-0.569412	-0.262115
C76	C	1.445472	-0.069412	0.237885
C77	C	0.945502	-0.635155	-0.262129
C78	C	1.445502	-0.135155	0.237871
C79	C	0.905424	-0.668054	-0.302151
C80	C	1.405424	-0.168054	0.197849
C81	C	0.865324	-0.635205	-0.342173
C82	C	1.365324	-0.135205	0.157827
C83	C	0.865301	-0.569464	-0.342162
C84	C	1.365301	-0.069464	0.157838
N85	N	0.850614	-0.771336	-0.306903
N86	N	1.350614	-0.271336	0.193097
N87	N	0.850638	-0.833787	-0.306910
N88	N	1.350638	-0.333787	0.193090
C89	C	0.905494	-0.866129	-0.302187
C90	C	1.405494	-0.366129	0.197813
N91	N	0.960325	-0.833659	-0.297445
N92	N	1.460325	-0.333659	0.202555
N93	N	0.960300	-0.771202	-0.297435
N94	N	1.460300	-0.271202	0.202565
C95	C	0.905445	-0.739339	-0.302167
C96	C	1.405445	-0.239339	0.197833
C97	C	0.945625	-0.970255	-0.262186
C98	C	1.445625	-0.470255	0.237814
C99	C	0.945656	-1.035999	-0.262204
C100	C	1.445656	-0.535999	0.237796
C101	C	0.865473	-1.036048	-0.342245
C102	C	1.365473	-0.536048	0.157755
C103	C	0.865448	-0.970305	-0.342230
C104	C	1.365448	-0.470305	0.157770
C105	C	0.905523	-0.937413	-0.302197
C106	C	1.405523	-0.437413	0.197803
C107	C	1.068859	-0.303019	-0.302231
C108	C	1.568859	0.196981	0.197769
C109	C	1.138501	-0.303005	-0.302262
C110	C	1.638501	0.196995	0.197738
C111	C	0.905488	-0.303039	-0.465581
C112	C	1.405488	0.196961	0.034419
C113	C	0.905510	-0.303033	-0.535223
C114	C	1.405510	0.196967	-0.035223
C115	C	0.905535	-0.138861	-0.302206
C116	C	1.405535	0.361139	0.197794
C117	C	0.905578	-0.068893	-0.302227
C118	C	1.405578	0.431107	0.197773
C119	C	0.945606	-0.262762	-0.567967
C120	C	1.445606	0.237238	-0.067967
C121	C	0.945605	-0.262735	-0.633402
C122	C	1.445605	0.237265	-0.133402
C123	C	0.905515	-0.302991	-0.666091
C124	C	1.405515	0.197009	-0.166091
C125	C	0.865411	-0.343265	-0.633339
C126	C	1.365411	0.156735	-0.133339
C127	C	0.865409	-0.343286	-0.567905
C128	C	1.365409	0.156714	-0.067905
C129	C	0.900539	-0.359672	-0.769752
C130	C	1.400539	0.140328	-0.269752
C131	C	0.900546	-0.359652	-0.835185
C132	C	1.400546	0.140348	-0.335185
C133	C	0.905519	-0.302924	-0.867912
C134	C	1.405519	0.197076	-0.367912
C135	C	0.910498	-0.246215	-0.835198
C136	C	1.410498	0.253785	-0.335198
C137	C	0.910496	-0.246237	-0.769763
C138	C	1.410496	0.253763	-0.269763
C139	C	0.905513	-0.302972	-0.737043
C140	C	1.405513	0.197028	-0.237043
C141	C	0.945616	-0.262620	-0.971608
C142	C	1.445616	0.237380	-0.471608
C143	C	0.945611	-0.262592	-1.037045
C144	C	1.445611	0.237408	-0.537045
C145	C	0.865420	-0.343127	-1.036981
C146	C	1.365420	0.156873	-0.536981
C147	C	0.865422	-0.343150	-0.971545
C148	C	1.365422	0.156850	-0.471545
C149	C	0.905523	-0.302897	-0.938863
C150	C	1.405523	0.197103	-0.438863
C151	C	0.905420	-0.303019	-0.139370
C152	C	1.405420	0.196981	0.360630
C153	C	0.905519	-0.302847	-0.069729
C154	C	1.405519	0.197153	0.430271
H155	H	0.144590	-0.376152	-0.374825
H156	H	0.644590	0.123848	0.125175
N157	N	0.271923	-0.219229	-0.219074
N158	N	0.771923	0.280771	0.280926
H159	H	0.299014	-0.244771	-0.189981
H160	H	0.799014	0.255229	0.310019
H161	H	0.299092	-0.190106	-0.244623
H162	H	0.799092	0.309894	0.255377
H163	H	0.914548	-0.200022	-0.861842
H164	H	1.414548	0.299978	-0.361842
H165	H	0.465215	-0.312237	-0.404544
H166	H	0.965215	0.187763	0.095456
N167	N	0.822051	-0.534038	-0.385321
N168	N	1.322051	-0.034038	0.114679
H169	H	0.796666	-0.564853	-0.410679
H170	H	1.296666	-0.064853	0.089321
H171	H	0.793058	-0.506812	-0.359774
H172	H	1.293058	-0.006812	0.140226
N173	N	0.135928	-0.219195	-0.219129
N174	N	0.635928	0.280805	0.280871
H175	H	0.089511	-0.225302	-0.225214
H176	H	0.589511	0.274698	0.274786
H177	H	0.147304	-0.228927	-0.174359
H178	H	0.647304	0.271073	0.325641
N179	N	0.822239	-1.071518	-0.385410
N180	N	1.322239	-0.571518	0.114590
H181	H	0.831943	-1.060040	-0.430188
H182	H	1.331943	-0.560040	0.069812
H183	H	0.828355	-1.118138	-0.379296
H184	H	1.328355	-0.618138	0.120704
H185	H	0.346503	-0.312209	-0.404586
H186	H	0.846503	0.187791	0.095414
N187	N	0.473637	-0.292585	-0.184814
N188	N	0.973637	0.207415	0.315186
H189	H	0.500742	-0.330929	-0.178860
H190	H	1.000742	0.169071	0.321140
H191	H	0.500788	-0.253778	-0.185758
H192	H	1.000788	0.246222	0.314242
N193	N	0.539564	-0.219289	-0.218975
N194	N	1.039564	0.280711	0.281025
H195	H	0.493148	-0.225403	-0.225053
H196	H	0.993148	0.274597	0.274947
H197	H	0.550949	-0.229031	-0.174209
H198	H	1.050949	0.270969	0.325791
H199	H	0.263297	-0.376183	-0.374777
H200	H	0.763297	0.123817	0.125223
H201	H	0.666920	-0.229954	-0.229513
H202	H	1.166920	0.270046	0.270487
N203	N	0.822160	-0.386674	-0.668592
N204	N	1.322160	0.113326	-0.168592
H205	H	0.828244	-0.380548	-0.715013
H206	H	1.328244	0.119452	-0.215013
H207	H	0.831875	-0.431636	-0.657162
H208	H	1.331875	0.068364	-0.157162
H209	H	0.346298	-0.293896	-0.199778
H210	H	0.846298	0.206104	0.300222
N211	N	0.988703	-0.533937	-0.218946
N212	N	1.488703	-0.033937	0.281054
H213	H	1.017715	-0.506615	-0.244445
H214	H	1.517715	-0.006615	0.255555
H215	H	0.963204	-0.506741	-0.189882
H216	H	1.463204	-0.006741	0.310118
N217	N	0.675579	-0.386920	-0.385203
N218	N	1.175579	0.113080	0.114797
H219	H	0.702783	-0.361385	-0.414278
H220	H	1.202783	0.138615	0.085722
H221	H	0.702637	-0.416053	-0.359638
H222	H	1.202637	0.083947	0.140362
N223	N	0.822099	-0.670685	-0.385342
N224	N	1.322099	-0.170685	0.114658
H225	H	0.828196	-0.717315	-0.379276
H226	H	1.328196	-0.217315	0.120724
H227	H	0.777352	-0.659250	-0.375533
H228	H	1.277352	-0.159250	0.124467
H229	H	0.978311	-1.062736	-0.229621
H230	H	1.478311	-0.562736	0.270379
N231	N	0.822179	-0.386549	-1.072226
N232	N	1.322179	0.113451	-0.572226
H233	H	0.777418	-0.376785	-1.060805
H234	H	1.277418	0.123215	-0.560805
H235	H	0.828315	-0.380406	-1.118637
H236	H	1.328315	0.119594	-0.618637
N237	N	0.822165	-0.386575	-0.936224
N238	N	1.322165	0.113425	-0.436224
H239	H	0.796763	-0.412070	-0.966859
H240	H	1.296763	0.087930	-0.466859
H241	H	0.847638	-0.415715	-0.909085
H242	H	1.347638	0.084285	-0.409085
N243	N	0.988750	-0.670587	-0.218970
N244	N	1.488750	-0.170587	0.281030
H245	H	1.014135	-0.639774	-0.193609
H246	H	1.514135	-0.139774	0.306391
H247	H	0.963265	-0.697908	-0.189951
H248	H	1.463265	-0.197908	0.310049
H249	H	0.978259	-0.943473	-0.229590
H250	H	1.478259	-0.443473	0.270410
N251	N	0.822197	-0.934879	-0.385384
N252	N	1.322197	-0.434879	0.114616
H253	H	0.796810	-0.965694	-0.410740
H254	H	1.296810	-0.465694	0.089260
H255	H	0.793205	-0.907652	-0.359836
H256	H	1.293205	-0.407652	0.140164
H257	H	0.978259	-0.229985	-0.541361
H258	H	1.478259	0.270015	-0.041361
H259	H	0.978255	-0.229938	-0.660067
H260	H	1.478255	0.270062	-0.160067
N261	N	0.915867	-0.185078	-0.734478
N262	N	1.415867	0.314922	-0.234478
H263	H	0.919020	-0.149136	-0.765134
H264	H	1.419020	0.350864	-0.265134
H265	H	0.877695	-0.179250	-0.707300
H266	H	1.377695	0.320750	-0.207300
N267	N	0.988864	-0.219206	-0.936352
N268	N	1.488864	0.280794	-0.436352
H269	H	1.014262	-0.193685	-0.967028
H270	H	1.514262	0.306315	-0.467028
H271	H	0.963377	-0.190090	-0.909183
H272	H	1.463377	0.309910	-0.409183
N273	N	0.895178	-0.420811	-0.870469
N274	N	1.395178	0.079189	-0.370469
H275	H	0.931386	-0.448982	-0.859103
H276	H	1.431386	0.051018	-0.359103
H277	H	0.854592	-0.442187	-0.859038
H278	H	1.354592	0.057813	-0.359038
N279	N	0.988848	-0.219143	-1.072365
N280	N	1.488848	0.280857	-0.572365
H281	H	1.014248	-0.193647	-1.041730
H282	H	1.514248	0.306353	-0.541730
H283	H	1.017828	-0.244746	-1.099541
H284	H	1.517828	0.255254	-0.599541
H285	H	0.896322	-0.405855	-0.743111
H286	H	1.396322	0.094145	-0.243111
H287	H	0.832755	-0.376079	-0.541245
H288	H	1.332755	0.123921	-0.041245
H289	H	0.548227	-0.376237	-0.374675
H290	H	1.048227	0.123763	0.125325
