data_functionalizedCrystal
_audit_creation_method	'MofGen! by Chris Wilmer'
_symmetry_space_group_name_H-M	'P1'
_symmetry_Int_Tables_number	1
_symmetry_cell_setting	triclinic
loop_
_symmetry_equiv_pos_as_xyz
  x,y,z
_cell_length_a	19.188930
_cell_length_b	19.188930
_cell_length_c	17.666332
_cell_angle_alpha	90.023234
_cell_angle_beta	89.988397
_cell_angle_gamma	96.855221
loop_
_atom_site_label
_atom_site_type_symbol
_atom_site_fract_x
_atom_site_fract_y
_atom_site_fract_z
O1	O	0.087169	-0.926150	-0.063200
O2	O	0.098903	-0.722838	-0.063149
O3	O	-0.008620	-0.830361	-0.063161
O4	O	0.194692	-0.818627	-0.063188
O5	O	-0.008625	-0.830342	0.062735
O6	O	0.098897	-0.722820	0.062747
O7	O	0.087163	-0.926131	0.062697
Cu8	Cu	0.093030	-0.824473	0.074217
Cu9	Cu	0.093036	-0.824496	-0.074670
O10	O	0.194686	-0.818608	0.062709
C11	C	-0.034634	-0.829972	-0.000211
C12	C	-0.112138	-0.828831	-0.000204
C13	C	0.098520	-0.696818	-0.000194
C14	C	0.097380	-0.619313	-0.000174
C15	C	0.087546	-0.952151	-0.000260
C16	C	0.088687	-1.029656	-0.000285
C17	C	-0.157062	-0.891922	-0.000216
C18	C	-0.229886	-0.890850	-0.000228
C19	C	-0.257782	-0.826684	-0.000212
C20	C	-0.212849	-0.763585	-0.000205
C21	C	-0.140026	-0.764658	-0.000200
N22	N	-0.365789	-0.777630	0.042645
N23	N	-0.434968	-0.776615	0.042642
C24	C	-0.477191	-0.823446	-0.000227
N25	N	-0.447624	-0.871341	-0.043084
N26	N	-0.378439	-0.872359	-0.043079
C27	C	-0.336745	-0.825513	-0.000218
C28	C	-0.601079	-0.885379	-0.000253
C29	C	-0.673904	-0.884305	-0.000270
C30	C	-0.656865	-0.757038	-0.000239
C31	C	-0.584042	-0.758114	-0.000230
C32	C	-0.556154	-0.822287	-0.000233
C33	C	0.220700	-0.818997	-0.000244
C34	C	0.298204	-0.820138	-0.000255
N35	N	0.093025	-0.824463	0.178937
C36	C	0.160470	-0.574389	-0.000194
C37	C	0.159399	-0.501566	-0.000203
C38	C	0.095233	-0.473669	-0.000206
C39	C	0.032133	-0.518603	-0.000181
C40	C	0.033207	-0.591425	-0.000166
N41	N	0.046188	-0.365695	-0.043078
N42	N	0.045172	-0.296517	-0.043095
C43	C	0.091994	-0.254260	-0.000252
N44	N	0.139881	-0.283795	0.042599
N45	N	0.140899	-0.352979	0.042612
C46	C	0.094062	-0.394707	-0.000222
C47	C	0.153928	-0.130372	-0.000280
C48	C	0.152853	-0.057547	-0.000283
C49	C	0.025586	-0.074586	-0.000270
C50	C	0.026662	-0.147409	-0.000258
C51	C	0.090835	-0.175298	-0.000267
N52	N	0.093036	-0.824512	-0.179390
C53	C	0.045437	-0.872089	0.218541
C54	C	0.045433	-0.872093	0.297789
C55	C	0.093030	-0.824478	0.337429
C56	C	0.140621	-0.776842	0.297815
C57	C	0.140619	-0.776835	0.218569
N58	N	0.154837	-0.815401	0.461841
N59	N	0.154837	-0.815413	0.537121
C60	C	0.093040	-0.824496	0.576193
N61	N	0.031239	-0.833582	0.537140
N62	N	0.031240	-0.833574	0.461853
C63	C	0.093038	-0.824480	0.423358
C64	C	0.045444	-0.872130	0.701727
C65	C	0.045440	-0.872129	0.780976
C66	C	0.140634	-0.776881	0.781000
C67	C	0.140632	-0.776878	0.701753
C68	C	0.093038	-0.824506	0.662121
H69	H	-0.134360	-0.944176	-0.000222
N70	N	0.220906	-0.009092	-0.000311
H71	H	0.210491	0.041274	-0.000317
H72	H	0.248884	-0.018076	0.046355
N73	N	-0.043624	-0.044511	-0.000275
H74	H	-0.071257	-0.060884	0.046402
H75	H	-0.034676	0.008434	-0.000315
H76	H	0.179374	-0.738072	0.330094
N77	N	-0.278352	-0.958900	-0.000243
H78	H	-0.249634	-0.999715	-0.000246
H79	H	-0.308946	-0.961213	0.046428
N80	N	-0.034844	-0.639884	-0.000140
H81	H	-0.075657	-0.611165	-0.000140
H82	H	-0.037170	-0.670495	-0.046806
N83	N	-0.242932	-0.694376	-0.000192
H84	H	-0.295882	-0.703269	-0.000194
H85	H	-0.226492	-0.666769	0.046485
N86	N	-0.570993	-0.954589	-0.000260
H87	H	-0.610505	-0.994396	-0.000276
H88	H	-0.541136	-0.957813	-0.046928
N89	N	-0.041386	-0.195869	-0.000237
H90	H	-0.082199	-0.167148	-0.000239
H91	H	-0.043713	-0.226482	-0.046900
N92	N	-0.686953	-0.687833	-0.000216
H93	H	-0.670567	-0.660196	0.046463
H94	H	-0.670540	-0.660260	-0.046908
H95	H	-0.020111	-0.495885	-0.000194
N96	N	-0.091567	-0.696608	-0.000188
H97	H	-0.120287	-0.655794	-0.000182
H98	H	-0.060994	-0.694274	0.046488
H99	H	0.006681	-0.910869	0.186275
H100	H	0.206181	-0.153080	-0.000276
H101	H	0.179386	-0.738099	0.669505
H102	H	-0.547464	-0.706738	-0.000216
N103	N	0.229687	-0.604459	-0.000193
H104	H	0.232971	-0.634265	0.046484
H105	H	0.232935	-0.634284	-0.046887
N106	N	0.227449	-0.453100	-0.000226
H107	H	0.268264	-0.481817	-0.000229
H108	H	0.229769	-0.422543	-0.046907
N109	N	0.191965	-0.725517	0.823745
H110	H	0.222818	-0.752097	0.856603
H111	H	0.222065	-0.695358	0.786577
H112	H	0.006680	-0.910878	0.330041
H113	H	0.179371	-0.738051	0.186322
N114	N	-0.005888	-0.923494	0.658973
H115	H	-0.036040	-0.953663	0.696091
H116	H	-0.036688	-0.896860	0.626113
H117	H	0.006684	-0.910910	0.813222
H118	H	-0.710481	-0.935683	-0.000284
