data_functionalizedCrystal
_audit_creation_method	'MofGen! by Chris Wilmer'
_symmetry_space_group_name_H-M	'P1'
_symmetry_Int_Tables_number	1
_symmetry_cell_setting	triclinic
loop_
_symmetry_equiv_pos_as_xyz
  x,y,z
_cell_length_a	11.026607
_cell_length_b	9.616153
_cell_length_c	11.026607
_cell_angle_alpha	90.004793
_cell_angle_beta	108.586017
_cell_angle_gamma	90.001087
loop_
_atom_site_label
_atom_site_type_symbol
_atom_site_fract_x
_atom_site_fract_y
_atom_site_fract_z
O1	O	1.726730	0.115642	0.533626
O2	O	1.360150	0.115644	0.472863
O3	O	1.513058	0.115638	0.319955
O4	O	1.573821	0.115648	0.686535
O5	O	1.513047	-0.115653	0.319939
O6	O	1.360139	-0.115647	0.472848
O7	O	1.726719	-0.115649	0.533611
Zn8	Zn	1.543427	-0.152371	0.503227
Zn9	Zn	1.543441	0.152366	0.503247
O10	O	1.573811	-0.115643	0.686519
C11	C	1.312485	-0.000001	0.461645
C12	C	1.170471	-0.000000	0.428228
N13	N	1.543427	-0.360345	0.503214
C14	C	1.116821	0.000003	0.520498
C15	C	0.970043	0.000004	0.485962
C16	C	1.625685	-0.580675	0.421857
C17	C	1.625322	-0.419508	0.421405
C18	C	1.404134	-0.418876	0.445131
C19	C	1.404600	-0.580094	0.444537
C20	C	1.599375	-0.580216	0.642772
C21	C	1.602192	-0.418988	0.642528
C22	C	1.774384	-0.000001	0.544828
C23	C	1.916398	0.000008	0.578245
C24	C	1.501843	-0.000006	0.272287
C25	C	1.468426	-0.000000	0.130273
N26	N	1.543450	0.360340	0.503252
C27	C	1.560695	0.000001	0.076624
C28	C	1.526160	0.000006	-0.070155
C29	C	1.585026	0.000004	0.734187
C30	C	1.618443	0.000008	0.876200
H31	H	1.179555	-0.000002	0.625061
H32	H	1.359749	-0.617714	0.341898
H33	H	1.358944	-0.378515	0.343471
C34	C	0.885303	0.000000	0.344692
N35	N	0.821475	-0.000000	0.238289
C36	C	1.759714	0.000005	-0.039062
N37	N	1.866118	0.000001	0.024763
H38	H	1.340067	-0.619114	0.500056
C39	C	1.317824	-0.367098	0.521426
N40	N	1.252817	-0.328094	0.578891
H41	H	1.587313	-0.621208	0.319537
H42	H	1.363863	0.000009	0.067540
C43	C	1.384889	0.000005	-0.154894
N44	N	1.278487	0.000000	-0.218722
H45	H	0.979125	0.000001	0.682816
C46	C	1.085727	-0.000004	0.286965
N47	N	1.021899	-0.000004	0.180562
C48	C	1.763938	-0.366041	0.473922
N49	N	1.868350	-0.325776	0.513471
C50	C	1.764671	-0.633044	0.474105
N51	N	1.869358	-0.672502	0.513458
H52	H	1.700349	-0.620864	0.691413
H53	H	1.586574	-0.380956	0.318463
C54	C	1.740823	-0.367306	0.701166
N55	N	1.845240	-0.328371	0.745329
H56	H	1.539748	-0.618368	0.703687
C57	C	1.529529	-0.364576	0.731219
N58	N	1.474791	-0.323591	0.798017
H59	H	1.665258	-0.000008	0.139357
