data_functionalizedCrystal
_audit_creation_method	'MofGen! by Chris Wilmer'
_symmetry_space_group_name_H-M	'P1'
_symmetry_Int_Tables_number	1
_symmetry_cell_setting	triclinic
loop_
_symmetry_equiv_pos_as_xyz
  x,y,z
_cell_length_a	14.044220
_cell_length_b	12.503572
_cell_length_c	14.971486
_cell_angle_alpha	93.527305
_cell_angle_beta	91.598497
_cell_angle_gamma	93.835250
loop_
_atom_site_label
_atom_site_type_symbol
_atom_site_fract_x
_atom_site_fract_y
_atom_site_fract_z
O1	O	1.263405	0.089207	-0.210929
O2	O	0.987428	0.089234	-0.203145
O3	O	1.132813	0.089212	-0.077420
O4	O	1.118020	0.089229	-0.336654
O5	O	1.121879	-0.089428	-0.086892
O6	O	0.976495	-0.089406	-0.212617
O7	O	1.252471	-0.089433	-0.220401
Cu8	Cu	1.113484	-0.105731	-0.217374
Cu9	Cu	1.126415	0.105532	-0.206172
O10	O	1.107086	-0.089411	-0.346126
C11	C	0.946643	-0.000083	-0.204475
C12	C	0.841407	-0.000072	-0.194313
N13	N	1.104397	-0.254322	-0.225253
C14	C	0.648723	-0.000095	-0.175737
C15	C	0.591171	-0.000095	-0.247804
C16	C	0.483956	-0.000107	-0.237469
C17	C	0.755949	-0.000082	-0.186072
C18	C	1.091028	-0.473435	-0.236851
C19	C	1.148875	-0.526771	-0.186691
C20	C	1.141437	-0.648693	-0.193145
C21	C	1.098466	-0.351502	-0.230399
C22	C	1.293256	-0.000114	-0.219072
C23	C	1.398493	-0.000117	-0.229233
C24	C	1.126685	-0.000108	-0.048779
C25	C	1.124702	-0.000106	0.050674
N26	N	1.135510	0.254123	-0.198287
C27	C	1.113215	-0.000089	-0.374767
C28	C	1.115198	-0.000083	-0.474220
C29	C	1.210112	-0.000116	0.101170
C30	C	1.208244	-0.000105	0.194618
C31	C	1.120965	-0.000092	0.237566
C32	C	1.035549	-0.000080	0.187063
C33	C	1.037418	-0.000083	0.093618
C34	C	1.031658	-0.000075	0.381832
C35	C	1.029788	-0.000074	0.475284
C36	C	1.202484	-0.000097	0.482832
C37	C	1.204353	-0.000100	0.389387
C38	C	1.118937	-0.000090	0.338890
H39	H	0.617474	-0.000105	-0.106282
C40	C	1.222399	-0.465766	-0.122887
C41	C	1.274295	-0.538939	-0.077865
C42	C	1.342024	-0.482776	-0.019078
H43	H	1.264681	-0.421890	-0.155793
H44	H	1.190849	-0.421918	-0.080631
H45	H	1.305843	-0.582769	-0.120115
H46	H	1.232039	-0.582817	-0.044941
H47	H	1.310474	-0.438928	0.023178
H48	H	1.384299	-0.438903	-0.051991
H49	H	1.377238	-0.532416	0.011482
H50	H	0.622422	-0.000085	-0.317265
C51	C	1.017648	-0.534828	-0.300556
C52	C	1.024795	-0.645302	-0.294396
C53	C	0.957226	-0.701904	-0.353078
H54	H	0.955393	-0.516601	-0.284976
H55	H	1.029234	-0.516521	-0.360130
H56	H	1.013203	-0.663601	-0.234835
H57	H	1.087036	-0.663561	-0.309984
H58	H	0.968811	-0.683597	-0.412652
H59	H	0.894975	-0.683668	-0.337492
H60	H	0.962072	-0.776866	-0.348912
H61	H	1.281184	-0.000132	0.066208
H62	H	1.277793	-0.000114	0.235728
C63	C	1.299212	-0.000064	0.342923
C64	C	1.373618	-0.000043	0.407145
C65	C	1.461016	0.000007	0.364376
H66	H	1.299849	-0.062345	0.303331
H67	H	1.307395	0.062255	0.309948
H68	H	1.365438	-0.062356	0.440104
H69	H	1.373012	0.062233	0.446740
H70	H	1.469199	0.062325	0.331402
H71	H	1.461644	-0.062275	0.324785
H72	H	1.511512	0.000030	0.407945
C73	C	1.295211	0.000125	0.537707
C74	C	1.304826	0.092052	0.596420
C75	C	1.390236	0.092296	0.646979
H76	H	1.294357	-0.062094	0.571104
H77	H	1.347487	0.000171	0.498775
H78	H	1.252564	0.091996	0.635348
H79	H	1.305697	0.154285	0.563047
H80	H	1.442512	0.092342	0.608046
H81	H	1.389375	0.030074	0.680369
H82	H	1.396776	0.154672	0.686815
C83	C	0.938965	0.000155	0.326970
C84	C	0.940606	0.092072	0.277986
C85	C	0.855231	0.092322	0.227445
H86	H	0.932208	-0.062070	0.286988
H87	H	0.886691	0.000217	0.365902
H88	H	0.992865	0.092000	0.239057
H89	H	0.947347	0.154312	0.317946
H90	H	0.802957	0.092384	0.266377
H91	H	0.848482	0.030094	0.187468
H92	H	0.856330	0.154691	0.194210
H93	H	0.958717	-0.000081	0.510249
C94	C	0.944624	0.000093	0.038909
C95	C	0.897693	0.091994	0.064247
C96	C	0.812201	0.092192	0.013878
H97	H	0.958106	0.000148	-0.022910
H98	H	0.904973	-0.062165	0.049388
H99	H	0.937335	0.154236	0.053760
H100	H	0.884187	0.091958	0.126058
H101	H	0.772551	0.029934	0.024357
H102	H	0.825693	0.092244	-0.047939
H103	H	0.780344	0.154540	0.031068
H104	H	0.964485	-0.000063	0.222040
