data_functionalizedCrystal
_audit_creation_method	'MofGen! by Chris Wilmer'
_symmetry_space_group_name_H-M	'P1'
_symmetry_Int_Tables_number	1
_symmetry_cell_setting	triclinic
loop_
_symmetry_equiv_pos_as_xyz
  x,y,z
_cell_length_a	16.109301
_cell_length_b	17.019294
_cell_length_c	15.186229
_cell_angle_alpha	86.117288
_cell_angle_beta	89.999362
_cell_angle_gamma	83.427968
loop_
_atom_site_label
_atom_site_type_symbol
_atom_site_fract_x
_atom_site_fract_y
_atom_site_fract_z
O1	O	1.103039	0.101395	-0.080860
O2	O	1.603039	0.601395	0.419140
O3	O	0.860966	0.114013	-0.081831
O4	O	1.360966	0.614013	0.418169
O5	O	0.988756	-0.007131	-0.072633
O6	O	1.488756	0.492869	0.427367
O7	O	0.975249	0.222538	-0.090058
O8	O	1.475249	0.722538	0.409942
O9	O	0.988747	-0.007132	0.073824
O10	O	1.488747	0.492868	0.573824
O11	O	0.860957	0.114011	0.064627
O12	O	1.360957	0.614011	0.564627
O13	O	1.103031	0.101393	0.065597
O14	O	1.603031	0.601393	0.565597
Zn15	Zn	0.981993	0.107702	0.088365
Zn16	Zn	1.481993	0.607702	0.588365
Zn17	Zn	0.982004	0.107704	-0.104599
Zn18	Zn	1.482004	0.607704	0.395401
O19	O	0.975241	0.222537	0.056400
O20	O	1.475241	0.722537	0.556400
C21	C	0.829987	0.113501	-0.008565
C22	C	1.329987	0.613501	0.491435
C23	C	0.737693	0.111969	-0.008454
C24	C	1.237693	0.611969	0.491546
C25	C	0.988239	-0.036520	0.002823
C26	C	1.488239	0.463480	0.502823
C27	C	0.986703	-0.124090	0.009461
C28	C	1.486703	0.375910	0.509461
C29	C	0.515359	0.180290	-0.013627
C30	C	1.015359	0.680290	0.486373
C31	C	0.428640	0.178844	-0.013512
C32	C	0.928640	0.678844	0.486488
C33	C	0.448644	0.035111	-0.002611
C34	C	0.948644	0.535111	0.497389
C35	C	0.535362	0.036558	-0.002720
C36	C	1.035362	0.536558	0.497280
C37	C	0.568717	0.109150	-0.008233
C38	C	1.068717	0.609150	0.491767
C39	C	0.395280	0.106257	-0.008008
C40	C	0.895280	0.606257	0.491992
C41	C	0.301255	0.104688	-0.007883
C42	C	0.801255	0.604688	0.492117
C43	C	0.662747	0.110718	-0.008356
C44	C	1.162747	0.610718	0.491644
C45	C	0.985988	-0.165225	-0.067254
C46	C	1.485988	0.334775	0.432746
C47	C	0.984539	-0.247506	-0.061014
C48	C	1.484539	0.252494	0.438986
C49	C	0.983811	-0.288651	0.021941
C50	C	1.483811	0.211349	0.521941
C51	C	0.984524	-0.247510	0.098662
C52	C	1.484524	0.252490	0.598662
C53	C	0.985967	-0.165230	0.092421
C54	C	1.485967	0.334770	0.592421
C55	C	0.979449	-0.537082	0.044778
C56	C	1.479449	-0.037082	0.544778
C57	C	0.978009	-0.619368	0.051013
C58	C	1.478009	-0.119368	0.551013
C59	C	0.978022	-0.619359	-0.108664
C60	C	1.478022	-0.119359	0.391336
C61	C	0.979470	-0.537078	-0.114897
C62	C	1.479470	-0.037078	0.385103
C63	C	0.980178	-0.495944	-0.038177
C64	C	1.480178	0.004056	0.461823
C65	C	0.982333	-0.372755	0.028321
C66	C	1.482333	0.127245	0.528321
C67	C	0.981651	-0.411840	-0.044558
C68	C	1.481651	0.088160	0.455442
C69	C	1.134009	0.101905	-0.007670
C70	C	1.634009	0.601905	0.492330
C71	C	1.226303	0.103437	-0.007787
C72	C	1.726303	0.603437	0.492213
C73	C	0.975757	0.251927	-0.019059
C74	C	1.475757	0.751927	0.480941
C75	C	0.977294	0.339496	-0.025702
C76	C	1.477294	0.839496	0.474298
N77	N	0.981991	0.107700	0.220058
N78	N	1.481991	0.607700	0.720058
N79	N	0.982012	0.107700	-0.236291
N80	N	1.482012	0.607700	0.263709
C81	C	1.038596	0.054076	0.449852
C82	C	1.538596	0.554076	0.949852
C83	C	1.038598	0.054074	0.542042
C84	C	1.538598	0.554074	1.042042
C85	C	0.925402	0.161327	0.533908
C86	C	1.425402	0.661327	1.033908
C87	C	0.925396	0.161324	0.441720
C88	C	1.425396	0.661324	0.941720
C89	C	0.981997	0.107700	0.399695
C90	C	1.481997	0.607700	0.899695
C91	C	0.982006	0.107700	0.584072
C92	C	1.482006	0.607700	1.084072
C93	C	0.982008	0.107699	0.684029
C94	C	1.482008	0.607699	1.184029
C95	C	0.981994	0.107700	0.299732
C96	C	1.481994	0.607700	0.799732
H97	H	0.385200	0.236773	-0.017903
H98	H	0.885200	0.736773	0.482097
N99	N	1.096368	-0.000716	0.406895
N100	N	1.596368	0.499284	0.906895
N101	N	1.070001	-0.049667	0.359176
N102	N	1.570001	0.450333	0.859176
H103	H	1.110793	-0.088368	0.328828
H104	H	1.610793	0.411632	0.828828
N105	N	0.589859	-0.036122	0.002800
N106	N	1.089859	0.463878	0.502800
N107	N	0.560070	-0.100930	0.007717
N108	N	1.060070	0.399070	0.507717
H109	H	0.598558	-0.152258	0.011620
H110	H	1.098558	0.347742	0.511620
H111	H	0.980043	-0.503603	0.107249
H112	H	1.480043	-0.003603	0.607249
H113	H	0.977412	-0.652866	0.118568
H114	H	1.477412	-0.152866	0.618568
N115	N	0.867591	0.216117	0.390480
N116	N	1.367591	0.716117	0.890480
N117	N	0.893910	0.265088	0.335319
N118	N	1.393910	0.765088	0.835319
H119	H	0.853087	0.303783	0.299130
H120	H	1.353087	0.803783	0.799130
N121	N	0.983762	-0.289534	0.183399
N122	N	1.483762	0.210466	0.683399
N123	N	0.924377	-0.328161	0.204134
N124	N	1.424377	0.171839	0.704134
H125	H	0.923838	-0.357841	0.263982
H126	H	1.423838	0.142159	0.763982
H127	H	0.879319	0.204988	0.568135
H128	H	1.379319	0.704988	1.068135
H129	H	0.542514	0.239399	-0.018110
H130	H	1.042514	0.739399	0.481890
N131	N	1.096414	-0.000711	0.593263
N132	N	1.596414	0.499289	1.093263
N133	N	1.146940	-0.048586	0.555726
N134	N	1.646940	0.451414	1.055726
H135	H	1.187774	-0.087283	0.591900
H136	H	1.687774	0.412717	1.091900
N137	N	0.414557	-0.039029	0.003020
N138	N	0.914557	0.460971	0.503020
N139	N	0.337130	-0.040312	0.003116
N140	N	0.837130	0.459688	0.503116
H141	H	0.313056	-0.092675	0.007090
H142	H	0.813056	0.407325	0.507090
H143	H	0.986585	-0.131732	-0.134805
H144	H	1.486585	0.368268	0.365195
H145	H	0.983960	-0.280995	-0.123484
H146	H	1.483960	0.219005	0.376516
H147	H	0.980064	-0.503584	-0.182448
H148	H	1.480064	-0.003584	0.317552
H149	H	0.977444	-0.652859	-0.171126
H150	H	1.477444	-0.152859	0.328874
H151	H	0.986538	-0.131737	0.154891
H152	H	1.486538	0.368263	0.654891
H153	H	0.982237	-0.378336	-0.112100
H154	H	1.482237	0.121664	0.387900
H155	H	0.981743	-0.406265	0.095864
H156	H	1.481743	0.093735	0.595864
