data_functionalizedCrystal
_audit_creation_method	'MofGen! by Chris Wilmer'
_symmetry_space_group_name_H-M	'P1'
_symmetry_Int_Tables_number	1
_symmetry_cell_setting	triclinic
loop_
_symmetry_equiv_pos_as_xyz
  x,y,z
_cell_length_a	10.654551
_cell_length_b	9.730223
_cell_length_c	17.699083
_cell_angle_alpha	90.002740
_cell_angle_beta	83.884222
_cell_angle_gamma	89.997362
loop_
_atom_site_label
_atom_site_type_symbol
_atom_site_fract_x
_atom_site_fract_y
_atom_site_fract_z
O1	O	0.158805	-0.114092	1.005085
O2	O	0.179467	-0.114136	0.784838
O3	O	-0.013692	-0.114110	0.900024
O4	O	0.351964	-0.114118	0.889898
O5	O	-0.013697	0.114470	0.900017
O6	O	0.179461	0.114444	0.784830
O7	O	0.158800	0.114488	1.005077
Zn8	Zn	0.169130	0.150758	0.894952
Zn9	Zn	0.169137	-0.150406	0.894962
O10	O	0.351959	0.114462	0.889890
C11	C	0.178724	0.000148	0.756632
C12	C	0.176503	0.000131	0.672600
N13	N	0.169125	0.356294	0.894951
C14	C	-0.060479	0.000178	0.899277
C15	C	-0.199884	0.000171	0.897052
C16	C	-0.265366	-0.124430	0.896011
C17	C	-0.396350	-0.124431	0.893914
C18	C	-0.396357	0.124779	0.893901
C19	C	-0.265375	0.124779	0.895993
C20	C	0.398746	0.000171	0.890638
C21	C	0.538150	0.000169	0.892863
N22	N	0.169132	-0.355942	0.894969
C23	C	0.083630	0.428232	0.945974
C24	C	0.083630	0.572115	0.945981
C25	C	0.254631	0.572110	0.843942
C26	C	0.254624	0.428230	0.843931
C27	C	0.289883	0.000129	0.624700
C28	C	0.287788	0.000147	0.545743
C29	C	0.172313	0.000157	0.514688
C30	C	0.058924	0.000163	0.562594
C31	C	0.061020	0.000155	0.641549
C32	C	0.050470	0.000197	0.244177
C33	C	0.048383	0.000201	0.165216
C34	C	0.277238	0.000189	0.148372
C35	C	0.279334	0.000181	0.227327
C36	C	0.165946	0.000194	0.275226
C37	C	0.168218	0.000178	0.360839
C38	C	0.170039	0.000164	0.429076
C39	C	0.159543	0.000201	1.033283
C40	C	0.161764	0.000209	1.117315
H41	H	-0.212047	-0.225894	0.896872
O42	O	-0.459897	0.245851	0.892747
C43	C	-0.485513	0.458873	0.826674
C44	C	-0.413478	0.321794	0.827875
H45	H	-0.447993	0.520324	0.774239
H46	H	-0.590382	0.437550	0.824954
H47	H	-0.471433	0.520272	0.879980
H48	H	-0.427455	0.260327	0.774580
H49	H	-0.308635	0.343214	0.829634
O50	O	0.000450	0.358566	0.995555
C51	C	-0.169115	0.373763	1.096792
C52	C	-0.074997	0.452825	1.040670
H53	H	-0.230121	0.449938	1.133292
H54	H	-0.231875	0.306453	1.063824
H55	H	-0.114955	0.306352	1.134844
H56	H	-0.129054	0.520311	1.002603
H57	H	-0.012239	0.520049	1.073685
O58	O	0.397962	-0.000105	0.499248
C59	C	0.592962	-0.118501	0.460722
C60	C	0.468217	-0.118406	0.513407
H61	H	0.649811	-0.214122	0.472163
H62	H	0.571716	-0.118575	0.398940
H63	H	0.649753	-0.022806	0.472097
H64	H	0.411365	-0.214084	0.502100
H65	H	0.489553	-0.118260	0.575172
H66	H	-0.035098	0.000191	0.537303
O67	O	-0.059787	0.000144	0.290591
C68	C	-0.287009	0.000243	0.298960
C69	C	-0.162231	0.000270	0.246305
H70	H	-0.369868	0.000375	0.263176
H71	H	-0.291843	-0.095438	0.336329
H72	H	-0.291683	0.095882	0.336363
H73	H	-0.157474	-0.095304	0.208854
H74	H	-0.157449	0.096015	0.208987
H75	H	0.014011	0.630682	0.987527
H76	H	0.324244	0.369654	0.802379
O77	O	-0.063719	0.000402	0.134959
C78	C	-0.198920	0.118883	0.055628
C79	C	-0.071919	0.118814	0.089830
H80	H	-0.205603	0.214623	0.019147
H81	H	-0.205643	0.023289	0.019031
H82	H	-0.279581	0.118828	0.103437
H83	H	0.008815	0.118917	0.042070
H84	H	-0.065306	0.214399	0.126446
O85	O	-0.049034	-0.000032	0.688160
C86	C	-0.179522	-0.118492	0.787045
C87	C	-0.054825	-0.118444	0.734316
H88	H	-0.184257	-0.214233	0.824365
H89	H	-0.184279	-0.022899	0.824488
H90	H	-0.262398	-0.118420	0.751274
H91	H	0.028121	-0.118565	0.770028
H92	H	-0.050178	-0.214029	0.696870
O93	O	-0.201671	0.245788	0.896871
C94	C	-0.039306	0.390353	0.833793
C95	C	-0.111373	0.253286	0.832701
H96	H	0.033734	0.396447	0.781926
H97	H	-0.108544	0.479469	0.832635
H98	H	0.010304	0.396574	0.887667
H99	H	-0.160987	0.246930	0.778836
H100	H	-0.042075	0.164235	0.833899
O101	O	0.402027	-0.000128	0.654899
C102	C	0.537192	-0.118526	0.734286
C103	C	0.410154	-0.118425	0.700126
H104	H	0.543792	-0.214144	0.770873
H105	H	0.617916	-0.118611	0.686514
H106	H	0.543879	-0.022827	0.770804
H107	H	0.403344	-0.214107	0.663617
H108	H	0.329491	-0.118268	0.747935
O109	O	-0.460119	-0.245381	0.893005
C110	C	-0.622372	-0.390036	0.956126
C111	C	-0.550275	-0.252991	0.957241
H112	H	-0.695260	-0.396245	1.008062
H113	H	-0.672127	-0.396305	0.902307
H114	H	-0.553026	-0.479065	0.957204
H115	H	-0.619536	-0.163883	0.956190
H116	H	-0.500499	-0.246841	1.011055
O117	O	0.391479	-0.000085	0.257525
C118	C	0.526637	-0.118501	0.336908
C119	C	0.399598	-0.118385	0.302750
H120	H	0.533231	-0.214122	0.373494
H121	H	0.607360	-0.118590	0.289136
H122	H	0.533332	-0.022805	0.373427
H123	H	0.392779	-0.214064	0.266239
H124	H	0.318936	-0.118224	0.350559
O125	O	0.387421	-0.000054	0.101872
C126	C	0.582421	-0.118448	0.063342
C127	C	0.457679	-0.118353	0.116030
H128	H	0.639271	-0.214068	0.074781
H129	H	0.561169	-0.118523	0.001561
H130	H	0.639211	-0.022752	0.074715
H131	H	0.400827	-0.214033	0.104725
H132	H	0.479019	-0.118206	0.177794
H133	H	0.324245	0.630694	0.802403
