data_functionalizedCrystal
_audit_creation_method	'MofGen! by Chris Wilmer'
_symmetry_space_group_name_H-M	'P1'
_symmetry_Int_Tables_number	1
_symmetry_cell_setting	triclinic
loop_
_symmetry_equiv_pos_as_xyz
  x,y,z
_cell_length_a	19.805407
_cell_length_b	19.805405
_cell_length_c	19.805399
_cell_angle_alpha	90.029301
_cell_angle_beta	90.017803
_cell_angle_gamma	90.023727
loop_
_atom_site_label
_atom_site_type_symbol
_atom_site_fract_x
_atom_site_fract_y
_atom_site_fract_z
Zn1	Zn	1.034736	-0.269527	0.382680
Zn2	Zn	1.034650	-0.382716	0.269488
Zn3	Zn	0.921550	-0.269541	0.269508
Zn4	Zn	0.921514	-0.382674	0.382638
O5	O	0.978113	-0.326115	0.326078
O6	O	1.129441	-0.284554	0.367674
O7	O	1.019627	-0.367726	0.174774
O8	O	0.936615	-0.174822	0.284546
O9	O	1.129378	-0.367713	0.284512
O10	O	1.019772	-0.174813	0.367693
O11	O	0.936533	-0.284576	0.174788
O12	O	0.826829	-0.284536	0.284506
O13	O	0.936553	-0.367642	0.477360
O14	O	0.826802	-0.367655	0.367622
O15	O	1.019737	-0.284514	0.477391
O16	O	1.019592	-0.477427	0.284472
O17	O	0.936471	-0.477397	0.367603
C18	C	0.978036	-0.501971	0.326046
C19	C	0.978066	-0.577203	0.326054
C20	C	0.802257	-0.326093	0.326062
C21	C	0.727025	-0.326101	0.326071
C22	C	1.021389	-0.612540	0.282813
C23	C	1.021418	-0.683228	0.282828
C24	C	0.978119	-0.718578	0.326081
C25	C	0.934794	-0.683236	0.369327
C26	C	0.934769	-0.612549	0.369315
C27	C	0.934894	-0.968309	0.369377
C28	C	0.934921	-1.039001	0.369384
C29	C	1.021542	-1.038989	0.282890
C30	C	1.021517	-0.968302	0.282878
C31	C	0.978195	-0.932965	0.326126
C32	C	0.978165	-0.856317	0.326110
C33	C	0.978145	-0.795225	0.326094
C34	C	0.691714	-0.282876	0.369439
C35	C	0.621025	-0.282880	0.369442
C36	C	0.585649	-0.326112	0.326079
C37	C	0.620965	-0.369338	0.282706
C38	C	0.691652	-0.369330	0.282701
C39	C	0.335892	-0.369368	0.282727
C40	C	0.265199	-0.369374	0.282737
C41	C	0.265265	-0.282918	0.369468
C42	C	0.335952	-0.282910	0.369462
C43	C	0.371262	-0.326134	0.326087
C44	C	0.447910	-0.326128	0.326084
C45	C	0.509002	-0.326121	0.326085
C46	C	1.154655	-0.326136	0.326095
C47	C	1.229887	-0.326146	0.326102
C48	C	0.978151	-0.326072	0.502621
C49	C	0.978167	-0.326054	0.577853
C50	C	0.978207	-0.149572	0.326126
C51	C	0.978248	-0.074340	0.326146
C52	C	0.978114	-0.326108	0.150222
C53	C	0.978229	-0.325936	0.074991
C54	C	1.021481	-0.282767	0.613214
C55	C	1.021488	-0.282747	0.683903
C56	C	0.978184	-0.326018	0.719229
C57	C	0.934864	-0.369308	0.683863
C58	C	0.934854	-0.369323	0.613176
C59	C	0.934902	-0.369244	0.968936
C60	C	0.934917	-0.369227	1.039628
C61	C	1.021536	-0.282668	1.039663
C62	C	1.021527	-0.282684	0.968976
C63	C	0.978205	-0.325970	0.933616
C64	C	0.978197	-0.325990	0.856968
C65	C	0.978194	-0.326002	0.795876
H66	H	1.056695	-0.711997	0.247617
C67	C	0.374238	-0.235897	0.416567
C68	C	0.328183	-0.198029	0.454535
C69	C	0.363426	-0.154705	0.497927
H70	H	0.401820	-0.261748	0.446069
H71	H	0.401796	-0.206334	0.390739
H72	H	0.300636	-0.227589	0.480361
H73	H	0.300600	-0.172165	0.425051
H74	H	0.390985	-0.125142	0.472099
H75	H	0.391007	-0.180561	0.527424
H76	H	0.332184	-0.129002	0.523689
C77	C	0.887853	-0.416249	0.574659
C78	C	0.897099	-0.406988	0.505193
C79	C	0.853804	-0.450197	0.469692
H80	H	0.897692	-0.461753	0.586149
H81	H	0.842369	-0.406327	0.586200
H82	H	0.942573	-0.416915	0.493657
H83	H	0.887256	-0.361493	0.493683
H84	H	0.808319	-0.440275	0.481234
H85	H	0.863646	-0.495698	0.481187
H86	H	0.860066	-0.443915	0.422556
H87	H	0.899650	-0.404465	1.068389
H88	H	1.056761	-0.247500	0.712691
H89	H	0.899663	-1.067781	0.404611
C90	C	1.068569	-0.235628	0.930745
C91	C	1.106491	-0.197700	0.976843
C92	C	1.149825	-0.154336	0.941651
H93	H	1.098102	-0.261453	0.903164
H94	H	1.042701	-0.206104	0.903189
H95	H	1.132356	-0.227220	1.004387
H96	H	1.076976	-0.171861	1.004426
H97	H	1.123958	-0.124812	0.914095
H98	H	1.179354	-0.180166	0.914071
H99	H	1.175556	-0.128592	0.972923
C100	C	1.068454	-0.235579	1.078091
C101	C	1.030160	-0.192166	1.118662
C102	C	1.073356	-0.148775	1.154061
H103	H	1.097948	-0.261387	1.105721
H104	H	1.094232	-0.209773	1.046948
H105	H	1.004393	-0.217969	1.149801
H106	H	1.000667	-0.166343	1.091049
H107	H	1.099134	-0.122970	1.122918
H108	H	1.102849	-0.174590	1.181687
H109	H	1.047380	-0.119311	1.181588
H110	H	1.056644	-0.583763	0.247589
C111	C	0.226911	-0.416336	0.235578
C112	C	0.272962	-0.454175	0.197576
C113	C	0.237716	-0.497435	0.154123
H114	H	0.199336	-0.445926	0.261341
H115	H	0.199346	-0.390419	0.206104
H116	H	0.300517	-0.480090	0.227046
H117	H	0.300539	-0.424603	0.171799
H118	H	0.210150	-0.471518	0.124650
H119	H	0.210142	-0.527020	0.179892
H120	H	0.268956	-0.523109	0.128330
C121	C	0.226805	-0.236008	0.416483
C122	C	0.157328	-0.245249	0.407197
C123	C	0.121881	-0.202045	0.450490
H124	H	0.238323	-0.245932	0.461969
H125	H	0.238364	-0.190502	0.406655
H126	H	0.145774	-0.290745	0.417030
H127	H	0.145791	-0.235320	0.361721
H128	H	0.133439	-0.156539	0.440661
H129	H	0.133404	-0.211972	0.495972
H130	H	0.074737	-0.208304	0.444190
C131	C	0.729997	-0.235865	0.416547
C132	C	0.683939	-0.198000	0.454515
C133	C	0.719179	-0.154678	0.497912
H134	H	0.757577	-0.261718	0.446050
H135	H	0.757557	-0.206300	0.390724
H136	H	0.656391	-0.227561	0.480337
H137	H	0.656358	-0.172134	0.425030
H138	H	0.746739	-0.125113	0.472088
H139	H	0.746758	-0.180536	0.527410
H140	H	0.687934	-0.128977	0.523673
H141	H	1.056773	-0.939522	0.247655
C142	C	0.887943	-0.416350	0.930595
C143	C	0.902650	-0.483320	0.947759
C144	C	0.859404	-0.526732	0.912447
H145	H	0.842455	-0.406515	0.942159
H146	H	0.894131	-0.410213	0.883429
H147	H	0.896456	-0.489454	0.994915
H148	H	0.948131	-0.493176	0.936194
H149	H	0.865591	-0.520595	0.865280
H150	H	0.813917	-0.516891	0.924014
H151	H	0.869380	-0.572176	0.924083
H152	H	0.899602	-0.404538	0.712631
C153	C	0.887675	-0.721526	0.416251
C154	C	0.820710	-0.704377	0.401463
C155	C	0.777283	-0.739627	0.444681
H156	H	0.893799	-0.768696	0.410109
H157	H	0.897511	-0.709888	0.461746
H158	H	0.810877	-0.716019	0.355978
H159	H	0.814564	-0.657212	0.407609
H160	H	0.787119	-0.727989	0.490176
H161	H	0.783414	-0.786796	0.438536
H162	H	0.731843	-0.727992	0.434657
C163	C	0.887774	-0.930072	0.416345
C164	C	0.849845	-0.976162	0.454206
C165	C	0.806419	-0.940960	0.497471
H166	H	0.913554	-0.902452	0.445920
H167	H	0.858254	-0.902555	0.390431
H168	H	0.879361	-1.003667	0.480118
H169	H	0.824051	-1.003784	0.424649
H170	H	0.776899	-0.913443	0.471557
H171	H	0.832204	-0.913341	0.527042
H172	H	0.780674	-0.972226	0.523161
C173	C	0.582604	-0.236063	0.416572
C174	C	0.542014	-0.274450	0.459874
C175	C	0.506606	-0.231343	0.503297
H176	H	0.613721	-0.210304	0.442463
H177	H	0.554989	-0.206546	0.390760
H178	H	0.569626	-0.303955	0.485684
H179	H	0.510884	-0.300207	0.434002
H180	H	0.478992	-0.201826	0.477484
H181	H	0.537728	-0.205587	0.529182
H182	H	0.479057	-0.257382	0.532678
C183	C	1.068701	-1.077262	0.235979
C184	C	1.135650	-1.059980	0.250767
C185	C	1.179110	-1.095212	0.207560
H186	H	1.062618	-1.124435	0.242132
H187	H	1.058858	-1.065699	0.190480
H188	H	1.145490	-1.071548	0.296255
H189	H	1.141755	-1.012813	0.244609
H190	H	1.169267	-1.083649	0.162061
H191	H	1.173021	-1.142383	0.213717
H192	H	1.224539	-1.083486	0.217583
C193	C	0.374344	-0.416229	0.235670
C194	C	0.443821	-0.406962	0.244928
C195	C	0.479267	-0.450117	0.201584
H196	H	0.362828	-0.461747	0.245455
H197	H	0.362782	-0.406262	0.190196
H198	H	0.455378	-0.416934	0.290391
H199	H	0.455357	-0.361454	0.235138
H200	H	0.467706	-0.440149	0.156111
H201	H	0.467746	-0.495631	0.211373
H202	H	0.526411	-0.443830	0.207855
C203	C	0.582681	-0.416304	0.235554
C204	C	0.628737	-0.454144	0.197560
C205	C	0.593496	-0.497413	0.154111
H206	H	0.555106	-0.445892	0.261320
H207	H	0.555115	-0.390393	0.206075
H208	H	0.656291	-0.480053	0.227035
H209	H	0.656313	-0.424574	0.171780
H210	H	0.565930	-0.471502	0.124633
H211	H	0.565923	-0.526996	0.179883
H212	H	0.624740	-0.523088	0.128323
H213	H	0.899492	-0.583777	0.404527
H214	H	0.720401	-0.404528	0.247386
H215	H	1.056747	-0.247532	0.584457
