data_functionalizedCrystal
_audit_creation_method	'MofGen! by Chris Wilmer'
_symmetry_space_group_name_H-M	'P1'
_symmetry_Int_Tables_number	1
_symmetry_cell_setting	triclinic
loop_
_symmetry_equiv_pos_as_xyz
  x,y,z
_cell_length_a	14.044220
_cell_length_b	14.044191
_cell_length_c	16.053802
_cell_angle_alpha	87.186691
_cell_angle_beta	92.799619
_cell_angle_gamma	93.190327
loop_
_atom_site_label
_atom_site_type_symbol
_atom_site_fract_x
_atom_site_fract_y
_atom_site_fract_z
O1	O	0.226523	1.280858	-0.069392
O2	O	0.726523	1.780858	0.430608
O3	O	0.218210	1.004186	-0.069403
O4	O	0.718210	1.504186	0.430597
O5	O	0.084031	1.138369	-0.069390
O6	O	0.584031	1.638369	0.430610
O7	O	0.360702	1.146676	-0.069406
O8	O	0.860702	1.646676	0.430594
O9	O	0.091383	1.130980	0.069469
O10	O	0.591383	1.630980	0.569469
O11	O	0.225562	0.996798	0.069455
O12	O	0.725562	1.496798	0.569455
O13	O	0.233875	1.273470	0.069466
O14	O	0.733875	1.773470	0.569466
Zn15	Zn	0.230886	1.133961	0.091507
Zn16	Zn	0.730886	1.633961	0.591507
Zn17	Zn	0.221199	1.143695	-0.091444
Zn18	Zn	0.721199	1.643695	0.408556
O19	O	0.368054	1.139287	0.069452
O20	O	0.868054	1.639287	0.569452
C21	C	0.218249	0.964870	0.000025
C22	C	0.718249	1.464870	0.500025
C23	C	0.207402	0.858727	0.000021
C24	C	0.707402	1.358727	0.500021
C25	C	0.264502	0.613269	0.000026
C26	C	0.764502	1.113269	0.500026
C27	C	0.187586	0.664394	0.000029
C28	C	0.687586	1.164394	0.500029
C29	C	0.198614	0.772531	0.000025
C30	C	0.698614	1.272531	0.500025
C31	C	0.253476	0.505122	0.000031
C32	C	0.753476	1.005122	0.500031
C33	C	0.052085	1.131039	0.000040
C34	C	0.552085	1.631039	0.500040
C35	C	-0.054058	1.120194	0.000040
C36	C	0.445942	1.620194	0.500040
C37	C	-0.248397	1.100369	0.000028
C38	C	0.251603	1.600369	0.500028
C39	C	-0.299525	1.177283	0.000028
C40	C	0.200475	1.677283	0.500028
C41	C	-0.407662	1.166252	0.000021
C42	C	0.092338	1.666252	0.500021
C43	C	-0.140250	1.111399	0.000035
C44	C	0.359750	1.611399	0.500035
C45	C	0.400000	1.146617	0.000021
C46	C	0.900000	1.646617	0.500021
C47	C	0.506142	1.157462	0.000015
C48	C	1.006142	1.657462	0.500015
C49	C	0.233836	1.312786	0.000036
C50	C	0.733836	1.812786	0.500036
C51	C	0.244683	1.418929	0.000034
C52	C	0.744683	1.918929	0.500034
N53	N	0.237497	1.127324	0.216367
N54	N	0.737497	1.627324	0.716367
N55	N	0.214581	1.150339	-0.216304
N56	N	0.714581	1.650339	0.283696
C57	C	0.180428	1.184443	0.260067
C58	C	0.680428	1.684443	0.760067
C59	C	0.185062	1.179811	0.347473
C60	C	0.685062	1.679811	0.847473
C61	C	0.246771	1.118062	0.391178
C62	C	0.746771	1.618062	0.891178
C63	C	0.303843	1.060937	0.347472
C64	C	0.803843	1.560937	0.847472
C65	C	0.299203	1.065565	0.260068
C66	C	0.799203	1.565565	0.760068
C67	C	0.267012	1.097842	0.652586
C68	C	0.767012	1.597842	1.152586
C69	C	0.271650	1.093220	0.739996
C70	C	0.771650	1.593220	1.239996
C71	C	0.152868	1.212093	0.739991
C72	C	0.652868	1.712093	1.239991
C73	C	0.148237	1.216720	0.652585
C74	C	0.648237	1.716720	1.152585
C75	C	0.205305	1.159591	0.608887
C76	C	0.705305	1.659591	1.108887
N77	N	0.251512	1.113328	0.480521
N78	N	0.751512	1.613328	0.980521
N79	N	0.200559	1.164321	0.519545
N80	N	0.700559	1.664321	1.019545
H81	H	-0.262086	1.251420	-0.000025
H82	H	0.237914	1.751420	0.499975
H83	H	0.138591	1.226321	0.383053
H84	H	0.638591	1.726321	0.883053
H85	H	0.113451	0.626953	-0.000025
H86	H	0.613451	1.126953	0.499975
H87	H	0.338629	0.650710	0.000019
H88	H	0.838629	1.150710	0.500019
N89	N	-0.297981	1.002174	0.000023
N90	N	0.202019	1.502174	0.500023
H91	H	-0.369321	1.008115	0.000021
H92	H	0.130679	1.508115	0.500021
H93	H	-0.276133	0.963628	0.051502
H94	H	0.223867	1.463628	0.551502
H95	H	0.130182	1.234730	0.224488
H96	H	0.630182	1.734730	0.724488
N97	N	0.081681	1.283321	0.605447
N98	N	0.581681	1.783321	1.105447
H99	H	0.046229	1.318804	0.646394
H100	H	0.546229	1.818804	1.146394
H101	H	0.034438	1.245125	0.569194
H102	H	0.534438	1.745125	1.069194
H103	H	0.345673	1.019051	0.224488
H104	H	0.845673	1.519051	0.724488
H105	H	0.106405	1.258604	0.775578
H106	H	0.606405	1.758604	1.275578
H107	H	0.321905	1.042934	0.775577
H108	H	0.821905	1.542934	1.275577
N109	N	0.328556	1.036221	0.605460
N110	N	0.828556	1.536221	1.105460
H111	H	0.368351	0.996405	0.646413
H112	H	0.868351	1.496405	1.146413
H113	H	0.371952	1.078249	0.569177
H114	H	0.871952	1.578249	1.069177
N115	N	0.370395	0.994328	0.394606
N116	N	0.870395	1.494328	0.894606
H117	H	0.364677	1.000064	0.456609
H118	H	0.864677	1.500064	0.956609
H119	H	0.438251	1.011886	0.379315
H120	H	0.938251	1.511886	0.879315
