data_functionalizedCrystal
_audit_creation_method	'MofGen! by Chris Wilmer'
_symmetry_space_group_name_H-M	'P1'
_symmetry_Int_Tables_number	1
_symmetry_cell_setting	triclinic
loop_
_symmetry_equiv_pos_as_xyz
  x,y,z
_cell_length_a	18.101398
_cell_length_b	18.101395
_cell_length_c	15.299448
_cell_angle_alpha	99.699061
_cell_angle_beta	99.704834
_cell_angle_gamma	90.028835
loop_
_atom_site_label
_atom_site_type_symbol
_atom_site_fract_x
_atom_site_fract_y
_atom_site_fract_z
Zn1	Zn	1.204680	-0.222378	0.510277
Zn2	Zn	1.704680	0.277622	1.010277
Zn3	Zn	1.183123	-0.367661	0.359409
Zn4	Zn	1.683123	0.132339	0.859409
Zn5	Zn	1.059386	-0.243833	0.359407
Zn6	Zn	1.559386	0.256167	0.859407
Zn7	Zn	1.080781	-0.346186	0.510215
Zn8	Zn	1.580781	0.153814	1.010215
O9	O	1.131992	-0.295014	0.434827
O10	O	1.631992	0.204986	0.934827
O11	O	1.305457	-0.241658	0.490291
O12	O	1.805457	0.258342	0.990291
O13	O	1.148734	-0.369201	0.233157
O14	O	1.648734	0.130799	0.733157
O15	O	1.078727	-0.137350	0.379445
O16	O	1.578727	0.362650	0.879445
O17	O	1.289619	-0.348397	0.379449
O18	O	1.789619	0.151603	0.879449
O19	O	1.185474	-0.121587	0.490288
O20	O	1.685474	0.378413	0.990288
O21	O	1.057825	-0.278225	0.233155
O22	O	1.557825	0.221775	0.733155
O23	O	0.958587	-0.257402	0.379386
O24	O	1.458587	0.242598	0.879386
O25	O	1.115192	-0.311796	0.636475
O26	O	1.615192	0.188204	1.136475
O27	O	0.974306	-0.332600	0.490183
O28	O	1.474306	0.167400	0.990183
O29	O	1.206220	-0.220835	0.636521
O30	O	1.706220	0.279165	1.136521
O31	O	1.169479	-0.468448	0.379389
O32	O	1.669479	0.031552	0.879389
O33	O	1.094289	-0.452671	0.490185
O34	O	1.594289	0.047329	0.990185
C35	C	0.939575	-0.295000	0.434778
C36	C	1.439575	0.205000	0.934778
C37	C	0.857261	-0.295008	0.434779
C38	C	1.357261	0.204992	0.934779
C39	C	1.131890	-0.487429	0.434801
C40	C	1.631890	0.012571	0.934801
C41	C	1.131918	-0.569740	0.434819
C42	C	1.631918	-0.069740	0.934819
C43	C	0.706558	-0.295017	0.434819
C44	C	1.206558	0.204983	0.934819
C45	C	0.665306	-0.247606	0.365224
C46	C	1.165306	0.252394	0.865224
C47	C	0.579721	-0.247358	0.365453
C48	C	1.079721	0.252642	0.865453
C49	C	0.558181	-0.295027	0.434857
C50	C	1.058181	0.204973	0.934857
C51	C	0.602856	-0.260669	0.530046
C52	C	1.102856	0.239331	1.030046
C53	C	0.688441	-0.260305	0.529621
C54	C	1.188441	0.239695	1.029621
C55	C	0.671435	-0.376815	0.410065
C56	C	1.171435	0.123185	0.910065
C57	C	0.585488	-0.376697	0.407991
C58	C	1.085488	0.123303	0.907991
C59	C	0.474326	-0.295033	0.434885
C60	C	0.974326	0.204967	0.934885
C61	C	0.790415	-0.295009	0.434798
C62	C	1.290415	0.204991	0.934798
C63	C	1.132087	-0.868824	0.434868
C64	C	1.632087	-0.368824	0.934868
C65	C	1.084937	-0.827578	0.504751
C66	C	1.584937	-0.327578	1.004751
C67	C	1.084634	-0.741992	0.504532
C68	C	1.584634	-0.241992	1.004532
C69	C	1.132003	-0.720445	0.434845
C70	C	1.632003	-0.220445	0.934845
C71	C	1.097353	-0.765105	0.339757
C72	C	1.597353	-0.265105	0.839757
C73	C	1.097044	-0.850691	0.340175
C74	C	1.597044	-0.350691	0.840175
C75	C	1.213894	-0.833709	0.459235
C76	C	1.713894	-0.333709	0.959235
C77	C	1.213729	-0.747762	0.461321
C78	C	1.713729	-0.247762	0.961321
C79	C	1.131956	-0.636588	0.434826
C80	C	1.631956	-0.136588	0.934826
C81	C	1.132131	-0.952682	0.434881
C82	C	1.632131	-0.452682	0.934881
C83	C	1.325161	-0.295030	0.434877
C84	C	1.825161	0.204970	0.934877
C85	C	1.407478	-0.295036	0.434898
C86	C	1.907478	0.204964	0.934898
C87	C	1.165497	-0.261527	0.670149
C88	C	1.665497	0.238473	1.170149
C89	C	1.179774	-0.247257	0.770429
C90	C	1.679774	0.252743	1.270429
C91	C	1.132119	-0.101846	0.434874
C92	C	1.632119	0.398154	0.934874
C93	C	1.132172	-0.019529	0.434893
C94	C	1.632172	0.480471	0.934893
C95	C	1.098661	-0.328318	0.200421
C96	C	1.598661	0.171682	0.700421
C97	C	1.084527	-0.342380	0.100141
C98	C	1.584527	0.157620	0.600141
C99	C	1.233876	-0.193192	0.817562
C100	C	1.733876	0.306808	1.317562
C101	C	1.247284	-0.179774	0.911780
C102	C	1.747284	0.320226	1.411780
C103	C	1.206597	-0.220425	0.958875
C104	C	1.706597	0.279575	1.458875
C105	C	1.152497	-0.274494	0.911742
C106	C	1.652497	0.225506	1.411742
C107	C	1.139084	-0.287909	0.817515
C108	C	1.639084	0.212091	1.317515
C109	C	1.111804	-0.315142	0.958828
C110	C	1.611804	0.184858	1.458828
C111	C	1.057705	-0.369212	0.911695
C112	C	1.557705	0.130788	1.411695
C113	C	1.044294	-0.382624	0.817477
C114	C	1.544294	0.117376	1.317477
C115	C	1.084982	-0.341974	0.770382
C116	C	1.584982	0.158026	1.270382
C117	C	1.125218	-0.301727	1.053055
C118	C	1.625218	0.198273	1.553055
C119	C	1.030425	-0.396445	1.053008
C120	C	1.530425	0.103555	1.553008
C121	C	1.017017	-0.409862	0.958790
C122	C	1.517017	0.090138	1.458790
H123	H	0.548629	-0.270382	0.294883
H124	H	1.048629	0.229618	0.794883
H125	H	1.217516	-0.209496	1.035592
H126	H	1.717516	0.290504	1.535592
Br127	Br	0.682791	-0.285763	0.247214
Br128	Br	1.182791	0.214237	0.747214
Br129	Br	0.943599	-0.483240	0.894814
Br130	Br	1.443599	0.016760	1.394814
H131	H	1.107879	-0.710911	0.575038
H132	H	1.607879	-0.210911	1.075038
H133	H	0.584464	-0.201066	0.551339
H134	H	1.084464	0.298934	1.051339
H135	H	1.037705	-0.746703	0.318747
H136	H	1.537705	-0.246703	0.818747
H137	H	0.683290	-0.405537	0.341812
H138	H	1.183290	0.094463	0.841812
H139	H	0.590093	-0.293561	0.583335
H140	H	1.090093	0.206439	1.083335
H141	H	0.555171	-0.402365	0.337936
H142	H	1.055171	0.097635	0.837936
H143	H	0.570778	-0.414980	0.454951
H144	H	1.070778	0.085020	0.954951
Br145	Br	1.066791	-0.360185	0.642509
Br146	Br	1.566791	0.139815	1.142509
H147	H	1.036842	-0.873664	0.319535
H148	H	1.536842	-0.373664	0.819535
H149	H	0.997289	-0.429541	1.091353
H150	H	1.497289	0.070459	1.591353
H151	H	1.242849	-0.845574	0.527392
H152	H	1.742849	-0.345574	1.027392
Br153	Br	1.289060	-0.138001	0.753645
Br154	Br	1.789060	0.361999	1.253645
Br155	Br	0.705062	-0.147632	0.392259
Br156	Br	1.205062	0.352368	0.892259
H157	H	0.698916	-0.412300	0.460754
H158	H	1.198916	0.087700	0.960754
H159	H	0.711421	-0.200121	0.550545
H160	H	1.211421	0.299879	1.050545
H161	H	0.561595	-0.187022	0.381887
H162	H	1.061595	0.312978	0.881887
Br163	Br	0.735738	-0.314164	0.619036
Br164	Br	1.235738	0.185836	1.119036
H165	H	1.108083	-0.838077	0.575485
H166	H	1.608083	-0.338077	1.075485
Br167	Br	1.320730	-0.106426	0.975740
Br168	Br	1.820730	0.393574	1.475740
H169	H	1.024954	-0.851427	0.488813
H170	H	1.524954	-0.351427	0.988813
Br171	Br	0.984023	-0.711762	0.477636
Br172	Br	1.484023	-0.211762	0.977636
H173	H	1.129164	-0.879060	0.286331
H174	H	1.629164	-0.379060	0.786331
Br175	Br	0.970861	-0.455991	0.753513
Br176	Br	1.470861	0.044009	1.253513
H177	H	1.130019	-0.752336	0.286269
H178	H	1.630019	-0.252336	0.786269
H179	H	1.239614	-0.717457	0.531300
H180	H	1.739614	-0.217457	1.031300
H181	H	1.251803	-0.733055	0.414132
H182	H	1.751803	-0.233055	0.914132
Br183	Br	1.272727	-0.879528	0.374417
Br184	Br	1.772727	-0.379528	0.874417
H185	H	1.169264	-0.257702	1.091422
H186	H	1.669264	0.242298	1.591422
