data_functionalizedCrystal
_audit_creation_method	'MofGen! by Chris Wilmer'
_symmetry_space_group_name_H-M	'P1'
_symmetry_Int_Tables_number	1
_symmetry_cell_setting	triclinic
loop_
_symmetry_equiv_pos_as_xyz
  x,y,z
_cell_length_a	23.532355
_cell_length_b	23.532357
_cell_length_c	10.268362
_cell_angle_alpha	89.989189
_cell_angle_beta	90.001234
_cell_angle_gamma	82.827896
loop_
_atom_site_label
_atom_site_type_symbol
_atom_site_fract_x
_atom_site_fract_y
_atom_site_fract_z
O1	O	0.755266	0.068996	-0.108139
O2	O	0.589397	0.079031	-0.108182
O3	O	0.677348	-0.008921	-0.108132
O4	O	0.667315	0.156948	-0.108189
O5	O	0.677341	-0.008925	0.108468
O6	O	0.589389	0.079027	0.108418
O7	O	0.755259	0.068993	0.108462
Cu8	Cu	0.672323	0.074010	0.128218
Cu9	Cu	0.672332	0.074014	-0.127938
O10	O	0.667307	0.156945	0.108412
C11	C	0.568177	0.078778	0.000113
C12	C	0.504958	0.078024	0.000097
C13	C	0.112941	0.073284	0.118223
C14	C	0.053542	0.072566	0.118228
O15	O	0.022820	0.072174	0.218640
N16	N	0.023837	0.072212	0.000159
C17	C	0.053536	0.072570	-0.117922
O18	O	0.022816	0.072203	-0.218348
C19	C	0.112935	0.073284	-0.117926
C20	C	0.142636	0.073643	0.000150
C21	C	0.142642	0.073643	0.236289
C22	C	0.202037	0.074361	0.236283
C23	C	0.231731	0.074721	0.118211
C24	C	0.202031	0.074362	0.000144
C25	C	0.142633	0.073637	-0.236006
C26	C	0.202036	0.074350	-0.236000
C27	C	0.231737	0.074710	-0.117924
C28	C	0.291120	0.075440	-0.117934
N29	N	0.320824	0.075794	0.000135
C30	C	0.291130	0.075434	0.118207
C31	C	-0.071205	0.071071	-0.117905
C32	C	-0.130603	0.070362	-0.117902
C33	C	-0.130593	0.070357	0.118248
C34	C	-0.071195	0.071070	0.118244
C35	C	-0.041501	0.071425	0.000164
C36	C	0.415864	0.076943	0.118186
C37	C	0.475264	0.077664	0.118170
C38	C	0.475249	0.077666	-0.117980
C39	C	0.415854	0.076949	-0.117964
C40	C	0.386163	0.076585	0.000129
O41	O	0.321880	0.075830	-0.218294
O42	O	0.321858	0.075794	0.218616
C43	C	0.677094	-0.030140	0.000172
C44	C	0.676339	-0.093358	0.000184
C45	C	0.671606	-0.485366	-0.117957
C46	C	0.670889	-0.544766	-0.117964
O47	O	0.670502	-0.575480	-0.218377
N48	N	0.670529	-0.574479	0.000103
C49	C	0.670881	-0.544789	0.118186
O50	O	0.670508	-0.575516	0.218610
C51	C	0.671594	-0.485390	0.118192
C52	C	0.671960	-0.455681	0.000117
C53	C	0.671971	-0.455657	-0.236022
C54	C	0.672689	-0.396262	-0.236014
C55	C	0.673043	-0.366576	-0.117940
C56	C	0.672678	-0.396286	0.000125
C57	C	0.671942	-0.455700	0.236273
C58	C	0.672654	-0.396297	0.236269
C59	C	0.673020	-0.366588	0.118194
C60	C	0.673750	-0.307205	0.118207
N61	N	0.674109	-0.277492	0.000139
C62	C	0.673756	-0.307178	-0.117934
C63	C	0.669382	-0.669530	0.118164
C64	C	0.668673	-0.728928	0.118159
C65	C	0.668680	-0.728901	-0.117992
C66	C	0.669393	-0.669502	-0.117986
C67	C	0.669742	-0.639817	0.000096
C68	C	0.675265	-0.182444	-0.117908
C69	C	0.675986	-0.123044	-0.117890
C70	C	0.675975	-0.123076	0.118260
C71	C	0.675258	-0.182471	0.118242
C72	C	0.674901	-0.212153	0.000148
O73	O	0.674134	-0.276452	0.218569
O74	O	0.674121	-0.276442	-0.218342
C75	C	0.776479	0.069245	0.000164
C76	C	0.839698	0.069999	0.000171
C77	C	0.667562	0.178163	0.000105
C78	C	0.668317	0.241381	0.000084
N79	N	0.672321	0.074006	0.308383
N80	N	0.672339	0.074013	-0.308104
C81	C	0.672329	0.074013	0.574054
C82	C	0.672323	0.074011	0.426216
H83	H	-0.047017	0.071364	0.214392
C84	C	0.676359	-0.090409	0.248135
N85	N	0.676641	-0.065802	0.345957
H86	H	0.671645	-0.479879	0.332423
C87	C	0.676386	-0.090367	-0.247787
N88	N	0.676686	-0.065756	-0.345623
H89	H	-0.047032	0.071365	-0.214066
H90	H	0.391669	0.076665	-0.214112
H91	H	0.668391	-0.753082	-0.214134
C92	C	0.669790	-0.636827	-0.247876
N93	N	0.670087	-0.612219	-0.345715
C94	C	0.674882	-0.215087	-0.247818
N95	N	0.674600	-0.239674	-0.345667
H96	H	-0.154781	0.070078	-0.214052
H97	H	0.674965	-0.206662	0.214388
H98	H	0.672985	-0.372078	-0.332163
C99	C	0.507931	0.078057	0.248068
N100	N	0.532534	0.078351	0.345905
C101	C	-0.163268	0.069955	0.248131
N102	N	-0.187880	0.069652	0.345953
H103	H	0.118462	0.073344	-0.332157
H104	H	0.672930	-0.372130	0.332428
C105	C	0.234696	0.074743	-0.365902
N106	N	0.259294	0.075040	-0.463743
C107	C	0.671607	-0.488305	-0.365924
N108	N	0.671346	-0.512894	-0.463775
C109	C	0.507925	0.078058	-0.247853
N110	N	0.532539	0.078348	-0.345675
C111	C	0.669775	-0.636883	0.248071
N112	N	0.670071	-0.612296	0.345918
H113	H	0.668384	-0.753114	0.214307
H114	H	0.226214	0.074651	0.332433
C115	C	0.109986	0.073255	0.366190
N116	N	0.085393	0.072970	0.464040
C117	C	0.383211	0.076550	0.248095
N118	N	0.358617	0.076258	0.345942
