data_functionalizedCrystal
_audit_creation_method	'MofGen! by Chris Wilmer'
_symmetry_space_group_name_H-M	'P1'
_symmetry_Int_Tables_number	1
_symmetry_cell_setting	triclinic
loop_
_symmetry_equiv_pos_as_xyz
  x,y,z
_cell_length_a	19.288862
_cell_length_b	19.288864
_cell_length_c	8.140239
_cell_angle_alpha	89.975083
_cell_angle_beta	90.018115
_cell_angle_gamma	96.864241
loop_
_atom_site_label
_atom_site_type_symbol
_atom_site_fract_x
_atom_site_fract_y
_atom_site_fract_z
O1	O	-0.921346	0.086639	-0.137325
O2	O	-0.719086	0.098329	-0.137200
O3	O	-0.826060	-0.008647	-0.137165
O4	O	-0.814372	0.193614	-0.137360
O5	O	-0.826057	-0.008647	0.136062
O6	O	-0.719082	0.098328	0.136027
O7	O	-0.921343	0.086638	0.135902
Zn8	Zn	-0.820212	0.092483	0.179345
Zn9	Zn	-0.820217	0.092484	-0.180643
O10	O	-0.814368	0.193613	0.135867
C11	C	-0.693207	0.097953	-0.000569
C12	C	-0.616104	0.096824	-0.000516
C13	C	-0.571407	0.159593	-0.000597
C14	C	-0.498960	0.158533	-0.000606
C15	C	-0.471213	0.094701	-0.000566
C16	C	-0.515919	0.031924	-0.000475
C17	C	-0.588364	0.032986	-0.000450
C18	C	-0.362952	0.044523	-0.096283
C19	C	-0.290507	0.043464	-0.096319
C20	C	-0.247767	0.091423	-0.000636
C21	C	-0.277478	0.140454	0.095060
C22	C	-0.349924	0.141515	0.095085
C23	C	-0.392659	0.093542	-0.000592
C24	C	-0.124514	0.153046	-0.000725
C25	C	-0.052066	0.151983	-0.000724
C26	C	-0.069026	0.025373	-0.000609
C27	C	-0.141473	0.026438	-0.000594
C28	C	-0.169212	0.090276	-0.000660
C29	C	-0.825683	-0.034523	-0.000528
C30	C	-0.824554	-0.111627	-0.000460
N31	N	-0.820214	0.092482	0.425028
C32	C	0.052779	0.087016	-0.000704
C33	C	-0.024324	0.088151	-0.000681
C34	C	-0.814746	0.219490	-0.000773
C35	C	-0.815875	0.296594	-0.000852
C36	C	-0.753107	0.341291	-0.000780
C37	C	-0.754168	0.413738	-0.000744
C38	C	-0.818000	0.441485	-0.000746
C39	C	-0.880776	0.396778	-0.000828
C40	C	-0.879714	0.324333	-0.000881
C41	C	-0.868178	0.549734	0.095033
C42	C	-0.869238	0.622179	0.095096
C43	C	-0.821280	0.664930	-0.000590
C44	C	-0.772250	0.635230	-0.096319
C45	C	-0.771187	0.562785	-0.096372
C46	C	-0.819159	0.520039	-0.000690
C47	C	-0.759657	0.788183	-0.000481
C48	C	-0.760721	0.860631	-0.000455
C49	C	-0.887331	0.843670	-0.000522
C50	C	-0.886266	0.771223	-0.000565
C51	C	-0.822427	0.743485	-0.000537
N52	N	-0.820220	0.092480	-0.426326
H53	H	-0.177866	-0.024675	-0.000536
H54	H	-0.624757	-0.018129	-0.000384
F55	F	-0.953073	0.723652	-0.000628
H56	H	-0.707676	0.765597	-0.000449
H57	H	-0.242680	0.179506	0.172975
F58	F	-0.693911	0.908202	-0.000396
F59	F	-0.687359	0.461316	-0.000662
H60	H	-0.493322	-0.020048	-0.000465
H61	H	-0.266322	0.003543	-0.174247
F62	F	-0.955267	0.873195	-0.000539
F63	F	-0.154039	0.220987	-0.000783
H64	H	-0.015674	0.203099	-0.000781
F65	F	-0.921390	0.653785	0.197057
F66	F	-0.948711	0.426309	-0.000839
H67	H	-0.046435	-0.026600	-0.000678
H68	H	-0.930829	0.287940	-0.000941
F69	F	-0.685164	0.311773	-0.000763
F70	F	-0.919229	0.504240	0.196873
H71	H	-0.733194	0.670038	-0.174226
F72	F	-0.600925	0.227536	-0.000662
H73	H	-0.462561	0.209648	-0.000668
F74	F	-0.381543	0.193694	0.196934
F75	F	-0.719011	0.531178	-0.198257
F76	F	-0.408433	-0.006526	-0.198127
