data_functionalizedCrystal
_audit_creation_method	'MofGen! by Chris Wilmer'
_symmetry_space_group_name_H-M	'P1'
_symmetry_Int_Tables_number	1
_symmetry_cell_setting	triclinic
loop_
_symmetry_equiv_pos_as_xyz
  x,y,z
_cell_length_a	17.077404
_cell_length_b	14.908178
_cell_length_c	17.077404
_cell_angle_alpha	93.309702
_cell_angle_beta	90.008318
_cell_angle_gamma	93.314115
loop_
_atom_site_label
_atom_site_type_symbol
_atom_site_fract_x
_atom_site_fract_y
_atom_site_fract_z
Zn1	Zn	1.181957	-0.359332	0.425789
Zn2	Zn	1.174330	-0.510166	0.286945
Zn3	Zn	1.050715	-0.359317	0.294538
Zn4	Zn	1.043097	-0.510159	0.418169
O5	O	1.112525	-0.434743	0.356361
O6	O	1.290792	-0.379349	0.407383
O7	O	1.157928	-0.490152	0.178106
O8	O	1.074505	-0.233067	0.318315
O9	O	1.285188	-0.490167	0.305375
O10	O	1.170928	-0.233077	0.414745
O11	O	1.067109	-0.379324	0.183684
O12	O	0.939858	-0.379317	0.310927
O13	O	1.061521	-0.490154	0.529027
O14	O	0.934261	-0.490140	0.401758
O15	O	1.163541	-0.379342	0.534625
O16	O	1.150541	-0.636417	0.297986
O17	O	1.054125	-0.636412	0.394396
C18	C	0.908578	-0.434727	0.356340
C19	C	0.821327	-0.434742	0.356348
C20	C	1.100700	-0.669150	0.344557
C21	C	1.095713	-0.769431	0.339534
C22	C	0.777439	-0.492534	0.403559
C23	C	0.695458	-0.492536	0.403572
C24	C	0.657367	-0.434749	0.356368
C25	C	0.701262	-0.376951	0.309156
C26	C	0.783241	-0.376945	0.309148
C27	C	0.530391	-0.376968	0.309174
C28	C	0.448406	-0.376975	0.309180
C29	C	0.442608	-0.492560	0.403597
C30	C	0.524587	-0.492554	0.403590
C31	C	0.568476	-0.434756	0.356376
C32	C	1.186671	-0.957730	0.430614
C33	C	1.181988	-1.051952	0.425897
C34	C	1.081660	-1.052100	0.325387
C35	C	1.086343	-0.957877	0.330104
C36	C	1.138851	-0.910696	0.382719
C37	C	1.143538	-0.816471	0.387431
C38	C	1.043207	-0.816621	0.286925
C39	C	1.038524	-0.910843	0.282208
C40	C	1.317268	-0.434760	0.356382
C41	C	1.404518	-0.434768	0.356391
C42	C	1.112532	-0.434749	0.561105
C43	C	1.112535	-0.434751	0.648354
C44	C	1.124417	-0.199421	0.368227
C45	C	1.129485	-0.099140	0.373284
C46	C	1.165650	-0.377061	0.692260
C47	C	1.165644	-0.377060	0.774241
C48	C	1.112525	-0.434754	0.812313
C49	C	1.059404	-0.492447	0.768402
C50	C	1.059408	-0.492443	0.686423
C51	C	1.059402	-0.492453	0.939271
C52	C	1.059400	-0.492458	1.021256
C53	C	1.165638	-0.377070	1.027089
C54	C	1.165642	-0.377066	0.945110
C55	C	1.112522	-0.434760	0.901204
C56	C	1.112512	-0.434761	1.152412
C57	C	1.112515	-0.434768	1.065162
H58	H	0.808446	-0.539594	0.441995
H59	H	1.229430	-0.919313	0.473450
N60	N	1.222933	-0.314833	0.904053
H61	H	1.193144	-0.273021	0.872144
H62	H	1.257446	-0.351561	0.868238
H63	H	1.208889	-0.330092	1.062842
H64	H	1.186294	-0.778057	0.430271
N65	N	1.233549	-1.102684	0.477570
H66	H	1.267517	-1.058493	0.511619
H67	H	1.267966	-1.141762	0.443710
N68	N	0.830586	-0.314619	0.258225
H69	H	0.866710	-0.272866	0.292287
H70	H	0.793968	-0.278072	0.228327
N71	N	0.648120	-0.554882	0.454480
H72	H	0.684689	-0.591497	0.484373
H73	H	0.612002	-0.596570	0.420358
N74	N	1.222949	-0.314842	0.651197
H75	H	1.214019	-0.250377	0.668707
H76	H	1.214863	-0.323676	0.592612
H77	H	1.038908	-1.090531	0.282554
N78	N	0.981897	-0.961734	0.225459
H79	H	0.986186	-1.028561	0.229736
H80	H	0.994989	-0.945274	0.170235
H81	H	1.016149	-0.539411	0.650676
N82	N	0.991630	-0.765893	0.235257
H83	H	1.002564	-0.699043	0.246225
H84	H	0.934736	-0.782410	0.246590
N85	N	1.002110	-0.554684	1.062323
H86	H	0.968455	-0.591228	1.022071
H87	H	0.967644	-0.517952	1.098185
H88	H	1.016152	-0.539419	0.799407
H89	H	0.417395	-0.329910	0.270753
N90	N	1.002109	-0.554685	0.891920
H91	H	1.031900	-0.596494	0.855804
H92	H	0.967597	-0.517955	0.859798
H93	H	0.555598	-0.539614	0.442022
H94	H	0.566123	-0.329895	0.270734
H95	H	0.670242	-0.329896	0.270725
N96	N	0.395276	-0.554903	0.454519
H97	H	0.363118	-0.518314	0.492801
H98	H	0.431898	-0.591500	0.484362
H99	H	1.208897	-0.330085	0.809986
