data_functionalizedCrystal
_audit_creation_method	'MofGen! by Chris Wilmer'
_symmetry_space_group_name_H-M	'P1'
_symmetry_Int_Tables_number	1
_symmetry_cell_setting	triclinic
loop_
_symmetry_equiv_pos_as_xyz
  x,y,z
_cell_length_a	14.853569
_cell_length_b	14.853567
_cell_length_c	9.198806
_cell_angle_alpha	89.999639
_cell_angle_beta	90.001722
_cell_angle_gamma	83.635248
loop_
_atom_site_label
_atom_site_type_symbol
_atom_site_fract_x
_atom_site_fract_y
_atom_site_fract_z
O1	O	1.196363	0.117709	0.120813
O2	O	1.696363	0.617709	0.620813
O3	O	0.933904	0.131729	0.120829
O4	O	1.433904	0.631729	0.620829
O5	O	1.072144	-0.006511	0.120825
O6	O	1.572144	0.493489	0.620825
O7	O	1.058123	0.255949	0.120817
O8	O	1.558123	0.755949	0.620817
O9	O	1.072134	-0.006512	-0.120960
O10	O	1.572134	0.493488	0.379040
O11	O	0.933893	0.131728	-0.120956
O12	O	1.433893	0.631728	0.379044
O13	O	1.196353	0.117708	-0.120972
O14	O	1.696353	0.617708	0.379028
Cu15	Cu	1.065122	0.124718	-0.143041
Cu16	Cu	1.565122	0.624718	0.356959
Cu17	Cu	1.065134	0.124719	0.142898
Cu18	Cu	1.565134	0.624719	0.642898
O19	O	1.058112	0.255948	-0.120968
O20	O	1.558112	0.755948	0.379032
C21	C	0.900310	0.131093	-0.000061
C22	C	1.400310	0.631093	0.499939
C23	C	0.800226	0.129189	-0.000054
C24	C	1.300226	0.629189	0.499946
C25	C	0.763850	0.046178	-0.000047
C26	C	1.263850	0.546178	0.499953
C27	C	0.742560	0.210410	-0.000068
C28	C	1.242560	0.710410	0.499932
C29	C	0.648526	0.208624	-0.000069
C30	C	1.148526	0.708624	0.499931
C31	C	0.612150	0.125613	-0.000062
C32	C	1.112150	0.625613	0.499938
C33	C	0.669807	0.044389	-0.000053
C34	C	1.169807	0.544389	0.499947
C35	C	0.590862	0.289847	-0.000094
C36	C	1.090862	0.789847	0.499906
C37	C	0.496821	0.288064	-0.000097
C38	C	0.996821	0.788064	0.499903
C39	C	0.460443	0.205052	-0.000079
C40	C	0.960443	0.705052	0.499921
C41	C	0.518107	0.123824	-0.000068
C42	C	1.018107	0.623824	0.499932
C43	C	0.481730	0.040813	-0.000060
C44	C	0.981730	0.540813	0.499940
C45	C	0.539393	-0.040415	-0.000039
C46	C	1.039393	0.459585	0.499961
C47	C	0.633429	-0.038623	-0.000035
C48	C	1.133429	0.461377	0.499965
C49	C	0.366407	0.203259	-0.000083
C50	C	0.866407	0.703259	0.499917
C51	C	0.387688	0.039024	-0.000066
C52	C	0.887688	0.539024	0.499934
C53	C	1.071504	-0.040100	-0.000063
C54	C	1.571504	0.459900	0.499937
C55	C	1.069600	-0.140183	-0.000050
C56	C	1.569600	0.359817	0.499950
C57	C	0.979434	-0.552718	-0.000072
C58	C	1.479434	-0.052718	0.499928
C59	C	1.143667	-0.573998	-0.000082
C60	C	1.643667	-0.073998	0.499918
C61	C	1.145457	-0.479964	-0.000074
C62	C	1.645457	0.020036	0.499926
C63	C	1.064234	-0.422303	-0.000067
C64	C	1.564234	0.077697	0.499933
C65	C	0.981222	-0.458675	-0.000068
C66	C	1.481222	0.041325	0.499932
C67	C	1.228468	-0.443585	-0.000087
C68	C	1.728468	0.056415	0.499913
C69	C	1.230262	-0.349545	-0.000080
C70	C	1.730262	0.150455	0.499920
C71	C	1.149038	-0.291882	-0.000063
C72	C	1.649038	0.208118	0.499937
C73	C	1.066022	-0.328260	-0.000063
C74	C	1.566022	0.171740	0.499937
C75	C	0.984800	-0.270599	-0.000056
C76	C	1.484800	0.229401	0.499944
C77	C	0.901783	-0.306974	-0.000045
C78	C	1.401783	0.193026	0.499955
C79	C	0.899998	-0.401012	-0.000051
C80	C	1.399998	0.098988	0.499949
C81	C	1.150822	-0.197845	-0.000057
C82	C	1.650822	0.302155	0.499943
C83	C	0.986587	-0.176556	-0.000052
C84	C	1.486587	0.323444	0.499948
C85	C	1.229947	0.118344	-0.000078
C86	C	1.729947	0.618344	0.499922
C87	C	1.330030	0.120249	-0.000075
C88	C	1.830030	0.620249	0.499925
C89	C	1.058753	0.289537	-0.000076
C90	C	1.558753	0.789537	0.499924
C91	C	1.060657	0.389621	-0.000079
C92	C	1.560657	0.889621	0.499921
N93	N	1.065120	0.124717	-0.344155
N94	N	1.565120	0.624717	0.155845
C95	C	1.123307	0.066548	-0.583757
C96	C	1.623307	0.566548	-0.083757
C97	C	1.123295	0.066549	-0.416345
C98	C	1.623295	0.566549	0.083655
N99	N	1.065143	0.124714	0.344012
N100	N	1.565143	0.624714	0.844012
H101	H	0.319463	0.269395	-0.000113
H102	H	0.819463	0.769395	0.499887
H103	H	0.509763	-0.108003	-0.000023
H104	H	1.009763	0.391997	0.499977
H105	H	0.920445	-0.129613	-0.000040
H106	H	1.420445	0.370387	0.499960
Cl107	Cl	1.245769	-0.646486	-0.000115
Cl108	Cl	1.745769	-0.146486	0.499885
Cl109	Cl	0.988250	0.201608	-0.560121
Cl110	Cl	1.488250	0.701608	-0.060121
H111	H	0.680385	-0.104755	-0.000020
H112	H	1.180385	0.395245	0.499980
H113	H	1.173115	0.016751	-0.645855
H114	H	1.673115	0.516751	-0.145855
Cl115	Cl	0.424341	0.390177	-0.000111
Cl116	Cl	0.924341	0.890177	0.499889
Cl117	Cl	0.341966	-0.065339	-0.000045
Cl118	Cl	0.841966	0.434661	0.499955
Cl119	Cl	0.795644	-0.446748	-0.000034
Cl120	Cl	1.295644	0.053252	0.499966
Cl121	Cl	0.836335	-0.055933	-0.000017
Cl122	Cl	1.336335	0.444067	0.499983
Cl123	Cl	1.255177	-0.152118	-0.000098
Cl124	Cl	1.755177	0.347882	0.499902
H125	H	1.173088	0.016747	-0.354230
H126	H	1.673088	0.516747	0.145770
H127	H	0.772184	0.277994	-0.000084
H128	H	1.272184	0.777994	0.499916
H129	H	1.015318	0.174514	-0.406260
H130	H	1.515318	0.674514	0.093740
Cl131	Cl	0.636596	0.394196	-0.000097
Cl132	Cl	1.136596	0.894196	0.499903
H133	H	0.835651	-0.260014	-0.000050
H134	H	1.335651	0.239986	0.499950
Cl135	Cl	1.334623	-0.303824	-0.000069
Cl136	Cl	1.834623	0.196176	0.499931
H137	H	0.911844	-0.582339	-0.000058
H138	H	1.411844	-0.082339	0.499942
Cl139	Cl	1.330569	-0.516076	-0.000127
Cl140	Cl	1.830569	-0.016076	0.499873
