data_functionalizedCrystal
_audit_creation_method	'MofGen! by Chris Wilmer'
_symmetry_space_group_name_H-M	'P1'
_symmetry_Int_Tables_number	1
_symmetry_cell_setting	triclinic
loop_
_symmetry_equiv_pos_as_xyz
  x,y,z
_cell_length_a	12.594517
_cell_length_b	29.839131
_cell_length_c	12.594510
_cell_angle_alpha	89.958912
_cell_angle_beta	89.978880
_cell_angle_gamma	90.041220
loop_
_atom_site_label
_atom_site_type_symbol
_atom_site_fract_x
_atom_site_fract_y
_atom_site_fract_z
Zn1	Zn	1.627077	-0.178815	-0.601810
Zn2	Zn	2.127077	0.321185	-0.101810
Zn3	Zn	1.626890	-0.253958	-0.423811
Zn4	Zn	2.126890	0.246042	0.076189
Zn5	Zn	1.449082	-0.178842	-0.423839
Zn6	Zn	1.949082	0.321158	0.076161
Zn7	Zn	1.448984	-0.253919	-0.601741
Zn8	Zn	1.948984	0.246081	-0.101741
O9	O	1.538008	-0.216383	-0.512800
O10	O	2.038008	0.283617	-0.012800
O11	O	1.775998	-0.188788	-0.578215
O12	O	2.275998	0.311212	-0.078215
O13	O	1.603266	-0.244021	-0.274869
O14	O	2.103266	0.255979	0.225131
O15	O	1.472812	-0.115972	-0.447488
O16	O	1.972812	0.384028	0.052512
O17	O	1.775860	-0.243995	-0.447440
O18	O	2.275860	0.256005	0.052560
O19	O	1.603585	-0.115952	-0.578243
O20	O	2.103585	0.384048	-0.078243
O21	O	1.472631	-0.188834	-0.274889
O22	O	1.972631	0.311166	0.225111
O23	O	1.300123	-0.188796	-0.447421
O24	O	1.800123	0.311204	0.052579
O25	O	1.472647	-0.243928	-0.750696
O26	O	1.972647	0.256072	-0.250696
O27	O	1.300052	-0.243954	-0.578124
O28	O	1.800052	0.256046	-0.078124
O29	O	1.603491	-0.188750	-0.750747
O30	O	2.103491	0.311250	-0.250747
O31	O	1.603171	-0.316820	-0.447373
O32	O	2.103171	0.183180	0.052627
O33	O	1.472465	-0.316791	-0.578097
O34	O	1.972465	0.183209	-0.078097
C35	C	1.261467	-0.216374	-0.512769
C36	C	1.761467	0.283626	-0.012769
C37	C	1.143162	-0.216381	-0.512781
C38	C	1.643162	0.283619	-0.012781
C39	C	1.073917	-0.186340	-0.441827
C40	C	1.573917	0.313660	0.058173
C41	C	1.003063	-0.227320	-0.415635
C42	C	1.503063	0.272680	0.084365
C43	C	1.003217	-0.175421	-0.538990
C44	C	1.503217	0.324579	-0.038990
C45	C	1.073866	-0.257383	-0.486538
C46	C	1.573866	0.242617	0.013462
C47	C	1.074026	-0.205456	-0.609939
C48	C	1.574026	0.294544	-0.109939
C49	C	1.003204	-0.246465	-0.583784
C50	C	1.503204	0.253535	-0.083784
C51	C	1.537816	-0.333106	-0.512747
C52	C	2.037816	0.166894	-0.012747
C53	C	1.537831	-0.383040	-0.512760
C54	C	2.037831	0.116960	-0.012760
C55	C	1.606191	-0.692686	-0.444831
C56	C	2.106191	-0.192686	0.055169
C57	C	1.606322	-0.880359	-0.444873
C58	C	2.106322	-0.380359	0.055127
O59	O	1.664292	-0.904626	-0.387076
O60	O	2.164292	-0.404626	0.112924
N61	N	1.538229	-0.903825	-0.512880
N62	N	2.038229	-0.403825	-0.012880
C63	C	1.470103	-0.880371	-0.580888
C64	C	1.970103	-0.380371	-0.080888
O65	O	1.412196	-0.904636	-0.638741
O66	O	1.912196	-0.404636	-0.138741
C67	C	1.469978	-0.692698	-0.580851
C68	C	1.969978	-0.192698	-0.080851
C69	C	1.538068	-0.669235	-0.512831
C70	C	2.038068	-0.169235	-0.012831
C71	C	1.674276	-0.669222	-0.376818
C72	C	2.174276	-0.169222	0.123182
C73	C	1.674239	-0.622307	-0.376804
C74	C	2.174239	-0.122307	0.123196
C75	C	1.606116	-0.598855	-0.444804
C76	C	2.106116	-0.098855	0.055196
C77	C	1.538030	-0.622319	-0.512817
C78	C	2.038030	-0.122319	-0.012817
C79	C	1.401858	-0.669244	-0.648863
C80	C	1.901858	-0.169244	-0.148863
C81	C	1.401835	-0.622323	-0.648849
C82	C	1.901835	-0.122323	-0.148849
C83	C	1.469925	-0.598860	-0.580830
C84	C	1.969925	-0.098860	-0.080830
C85	C	1.469870	-0.551952	-0.580803
C86	C	1.969870	-0.051952	-0.080803
N87	N	1.537963	-0.528486	-0.512796
N88	N	2.037963	-0.028486	-0.012796
C89	C	1.606086	-0.551937	-0.444796
C90	C	2.106086	-0.051937	0.055204
C91	C	1.470172	-0.978901	-0.580901
C92	C	1.970172	-0.478901	-0.080901
C93	C	1.470202	-1.025819	-0.580909
C94	C	1.970202	-0.525819	-0.080909
C95	C	1.606423	-1.025804	-0.444895
C96	C	2.106423	-0.525804	0.055105
C97	C	1.606387	-0.978886	-0.444882
C98	C	2.106387	-0.478886	0.055118
C99	C	1.538265	-0.955435	-0.512893
C100	C	2.038265	-0.455435	-0.012893
C101	C	1.606001	-0.453412	-0.444772
C102	C	2.106001	0.046588	0.055228
C103	C	1.605954	-0.406492	-0.444761
C104	C	2.105954	0.093508	0.055239
C105	C	1.469738	-0.406511	-0.580778
C106	C	1.969738	0.093489	-0.080778
C107	C	1.469780	-0.453426	-0.580785
C108	C	1.969780	0.046574	-0.080785
C109	C	1.537920	-0.476876	-0.512779
C110	C	2.037920	0.023124	-0.012779
O111	O	1.411939	-0.527656	-0.638578
O112	O	1.911939	-0.027656	-0.138578
O113	O	1.664001	-0.527664	-0.386968
O114	O	2.164001	-0.027664	0.113032
C115	C	1.606228	-0.739602	-0.444845
C116	C	2.106228	-0.239602	0.055155
C117	C	1.538143	-0.763065	-0.512859
C118	C	2.038143	-0.263065	-0.012859
C119	C	1.470020	-0.739614	-0.580858
C120	C	1.970020	-0.239614	-0.080858
C121	C	1.538173	-0.809983	-0.512867
C122	C	2.038173	-0.309983	-0.012867
C123	C	1.606296	-0.833435	-0.444867
C124	C	2.106296	-0.333435	0.055133
C125	C	1.674389	-0.809969	-0.376859
C126	C	2.174389	-0.309969	0.123141
C127	C	1.674351	-0.763053	-0.376846
C128	C	2.174351	-0.263053	0.123154
C129	C	1.401927	-0.763080	-0.648866
C130	C	1.901927	-0.263080	-0.148866
C131	C	1.401969	-0.809996	-0.648873
C132	C	1.901969	-0.309996	-0.148873
C133	C	1.470092	-0.833447	-0.580874
C134	C	1.970092	-0.333447	-0.080874
C135	C	1.815629	-0.216393	-0.512832
C136	C	2.315629	0.283607	-0.012832
C137	C	1.933935	-0.216397	-0.512846
C138	C	2.433935	0.283603	-0.012846
C139	C	1.538079	-0.216332	-0.790421
C140	C	2.038079	0.283668	-0.290421
C141	C	1.538109	-0.216309	-0.908727
C142	C	2.038109	0.283691	-0.408727
C143	C	1.538230	-0.099205	-0.512876
C144	C	2.038230	0.400795	-0.012876
C145	C	1.538325	-0.049271	-0.512909
C146	C	2.038325	0.450729	-0.012909
C147	C	1.609296	-0.186296	-0.978008
C148	C	2.109296	0.313704	-0.478008
C149	C	1.512231	-0.175299	-1.048802
C150	C	2.012231	0.324701	-0.548802
C151	C	1.635230	-0.227275	-1.048732
C152	C	2.135230	0.272725	-0.548732
C153	C	1.440992	-0.205292	-0.977963
C154	C	1.940992	0.294708	-0.477963
C155	C	1.564057	-0.257286	-0.977887
C156	C	2.064057	0.242714	-0.477887
C157	C	1.466925	-0.246305	-1.048649
C158	C	1.966925	0.253695	-0.548649
C159	C	1.538000	-0.216403	-0.236259
C160	C	2.038000	0.283597	0.263741
C161	C	1.538176	-0.216298	-0.117954
C162	C	2.038176	0.283702	0.382046
H163	H	1.661401	-0.387389	-0.389367
H164	H	2.161401	0.112611	0.110633
H165	H	1.490307	-0.140642	-1.079951
H166	H	1.990307	0.359358	-0.579951
H167	H	1.729854	-0.829071	-0.321488
H168	H	2.229854	-0.329071	0.178512
H169	H	0.972126	-0.140779	-0.561094
H170	H	1.472126	0.359221	-0.061094
H171	H	1.346407	-0.688341	-0.704247
H172	H	1.846407	-0.188341	-0.204247
O173	O	1.114788	-0.303289	-0.457067
O174	O	1.614788	0.196711	0.042933
H175	H	1.202914	-0.302917	-0.457226
H176	H	1.702914	0.197083	0.042774
H177	H	1.105220	-0.196194	-0.692051
H178	H	1.605220	0.303806	-0.192051
O179	O	1.115067	-0.152723	-0.362257
O180	O	1.615067	0.347277	0.137743
H181	H	1.086646	-0.161908	-0.281693
H182	H	1.586646	0.338092	0.218307
O183	O	1.747765	-0.694514	-0.303479
O184	O	2.247765	-0.194514	0.196521
H185	H	1.700178	-0.715931	-0.249286
H186	H	2.200178	-0.215931	0.250714
H187	H	1.414697	-0.959811	-0.636284
H188	H	1.914697	-0.459811	-0.136284
H189	H	0.971895	-0.236570	-0.333498
H190	H	1.471895	0.263430	0.166502
O191	O	1.679901	-1.051106	-0.371555
O192	O	2.179901	-0.551106	0.128445
H193	H	1.727249	-1.026911	-0.324255
H194	H	2.227249	-0.526911	0.175745
O195	O	1.387145	-0.279926	-1.089477
O196	O	1.887145	0.220074	-0.589477
H197	H	1.388220	-0.279894	-1.177600
H198	H	1.888220	0.220106	-0.677600
H199	H	1.346363	-0.603232	-0.704235
H200	H	1.846363	-0.103232	-0.204235
H201	H	1.586010	-0.291934	-0.946716
H202	H	2.086010	0.208066	-0.446716
O203	O	1.743986	-0.239565	-1.089917
O204	O	2.243986	0.260435	-0.589917
H205	H	1.738252	-0.270532	-1.138356
H206	H	2.238252	0.229468	-0.638356
O207	O	1.328425	-0.737788	-0.722189
O208	O	1.828425	-0.237788	-0.222189
H209	H	1.281076	-0.761992	-0.769463
H210	H	1.781076	-0.261992	-0.269463
O211	O	0.962308	-0.280161	-0.663296
O212	O	1.462308	0.219839	-0.163296
H213	H	0.990750	-0.314120	-0.641313
H214	H	1.490750	0.185880	-0.141313
H215	H	1.661490	-0.472498	-0.389396
H216	H	2.161490	0.027502	0.110604
O217	O	1.747694	-0.597001	-0.303456
O218	O	2.247694	-0.097001	0.196544
H219	H	1.795074	-0.621197	-0.256191
H220	H	2.295074	-0.121197	0.243809
H221	H	1.669391	-0.160900	-0.946986
H222	H	2.169391	0.339100	-0.446986
H223	H	1.661832	-0.959784	-0.389495
H224	H	2.161832	-0.459784	0.110505
H225	H	1.414746	-1.044919	-0.636287
H226	H	1.914746	-0.544919	-0.136287
O227	O	1.332206	-0.192936	-0.936971
O228	O	1.832206	0.307064	-0.436971
H229	H	1.273151	-0.217700	-0.965921
H230	H	1.773151	0.282300	-0.465921
O231	O	1.396341	-0.478738	-0.654144
O232	O	1.896341	0.021262	-0.154144
H233	H	1.348968	-0.454547	-0.701428
H234	H	1.848968	0.045453	-0.201428
H235	H	1.414270	-0.387409	-0.636139
H236	H	1.914270	0.112591	-0.136139
H237	H	1.346513	-0.829096	-0.704262
H238	H	1.846513	-0.329096	-0.204262
O239	O	1.747802	-0.737748	-0.303492
O240	O	2.247802	-0.237748	0.196508
H241	H	1.795180	-0.761944	-0.256225
H242	H	2.295180	-0.261944	0.243775
