data_functionalizedCrystal
_audit_creation_method	'MofGen! by Chris Wilmer'
_symmetry_space_group_name_H-M	'P1'
_symmetry_Int_Tables_number	1
_symmetry_cell_setting	triclinic
loop_
_symmetry_equiv_pos_as_xyz
  x,y,z
_cell_length_a	14.908571
_cell_length_b	17.637651
_cell_length_c	14.908308
_cell_angle_alpha	98.643595
_cell_angle_beta	89.824947
_cell_angle_gamma	97.315537
loop_
_atom_site_label
_atom_site_type_symbol
_atom_site_fract_x
_atom_site_fract_y
_atom_site_fract_z
Zn1	Zn	1.257978	-0.403217	0.489413
Zn2	Zn	1.757978	0.096783	0.989413
Zn3	Zn	1.240094	-0.525429	0.309299
Zn4	Zn	1.740094	-0.025429	0.809299
Zn5	Zn	1.119507	-0.388376	0.334024
Zn6	Zn	1.619507	0.111624	0.834024
Zn7	Zn	1.081320	-0.524511	0.451174
Zn8	Zn	1.581320	-0.024511	0.951174
O9	O	1.174725	-0.460383	0.395977
O10	O	1.674725	0.039617	0.895977
O11	O	1.380004	-0.426024	0.471176
O12	O	1.880004	0.073976	0.971176
O13	O	1.232594	-0.501422	0.188173
O14	O	1.732594	-0.001422	0.688173
O15	O	1.161342	-0.282226	0.380987
O16	O	1.661342	0.217774	0.880987
O17	O	1.366864	-0.515812	0.338847
O18	O	1.866864	-0.015812	0.838847
O19	O	1.263076	-0.293130	0.495151
O20	O	1.763076	0.206870	0.995151
O21	O	1.144000	-0.400730	0.206338
O22	O	1.644000	0.099270	0.706338
O23	O	0.990044	-0.399840	0.343908
O24	O	1.490044	0.100160	0.843908
O25	O	1.096258	-0.514248	0.580653
O26	O	1.596258	-0.014248	1.080653
O27	O	0.961988	-0.499858	0.429978
O28	O	1.461988	0.000142	0.929978
O29	O	1.226048	-0.425134	0.608746
O30	O	1.726048	0.074866	1.108746
O31	O	1.195566	-0.633426	0.301768
O32	O	1.695566	-0.133426	0.801768
O33	O	1.078915	-0.632752	0.406003
O34	O	1.578915	-0.132752	0.906003
C35	C	0.943761	-0.448139	0.385477
C36	C	1.443761	0.051861	0.885477
C37	C	0.844948	-0.442921	0.381002
C38	C	1.344948	0.057079	0.881002
C39	C	1.131179	-0.661125	0.347074
C40	C	1.631179	-0.161125	0.847074
C41	C	1.112629	-0.747009	0.326186
C42	C	1.612629	-0.247009	0.826186
C43	C	0.630079	-0.537409	0.462026
C44	C	1.130079	-0.037409	0.962026
C45	C	0.537235	-0.532508	0.457824
C46	C	1.037235	-0.032508	0.957824
C47	C	0.566414	-0.428216	0.368400
C48	C	1.066414	0.071784	0.868400
C49	C	0.659258	-0.433116	0.372603
C50	C	1.159258	0.066884	0.872603
C51	C	0.691087	-0.487716	0.419416
C52	C	1.191087	0.012284	0.919416
C53	C	0.783932	-0.492620	0.423613
C54	C	1.283932	0.007380	0.923613
C55	C	0.813110	-0.388324	0.334195
C56	C	1.313110	0.111676	0.834195
C57	C	0.720266	-0.383423	0.329992
C58	C	1.220266	0.116577	0.829992
C59	C	1.316205	-1.057562	0.554965
C60	C	1.816205	-0.557562	1.054965
C61	C	1.298747	-1.138260	0.535321
C62	C	1.798747	-0.638260	1.035321
C63	C	1.192895	-1.127013	0.416336
C64	C	1.692895	-0.627013	0.916336
C65	C	1.210347	-1.046312	0.435967
C66	C	1.710347	-0.546312	0.935967
C67	C	1.272002	-1.011592	0.505283
C68	C	1.772002	-0.511592	1.005283
C69	C	1.166144	-1.000342	0.386285
C70	C	1.666144	-0.500342	0.886285
C71	C	1.183592	-0.919648	0.405918
C72	C	1.683592	-0.419648	0.905918
C73	C	1.245242	-0.884923	0.475233
C74	C	1.745242	-0.384923	0.975233
C75	C	1.289450	-0.930898	0.524916
C76	C	1.789450	-0.430898	1.024916
C77	C	1.104485	-1.035063	0.316974
C78	C	1.604485	-0.535063	0.816974
C79	C	1.060282	-0.989094	0.267292
C80	C	1.560282	-0.489094	0.767292
C81	C	1.077734	-0.908398	0.286920
C82	C	1.577734	-0.408398	0.786920
C83	C	1.139384	-0.873673	0.356235
C84	C	1.639384	-0.373673	0.856235
C85	C	1.033526	-0.862423	0.237237
C86	C	1.533526	-0.362423	0.737237
C87	C	1.050974	-0.781728	0.256870
C88	C	1.550974	-0.281728	0.756870
C89	C	1.156832	-0.792978	0.375868
C90	C	1.656832	-0.292978	0.875868
C91	C	1.406591	-0.472676	0.406519
C92	C	1.906591	0.027324	0.906519
C93	C	1.505398	-0.477914	0.411011
C94	C	2.005398	0.022086	0.911011
C95	C	1.158888	-0.471244	0.627859
C96	C	1.658888	0.028756	1.127859
C97	C	1.152139	-0.475872	0.726672
C98	C	1.652139	0.024128	1.226672
C99	C	1.218464	-0.258860	0.445092
C100	C	1.718464	0.241140	0.945092
C101	C	1.237103	-0.172983	0.466022
C102	C	1.737103	0.327017	0.966022
C103	C	1.190563	-0.449512	0.165014
C104	C	1.690563	0.050488	0.665014
C105	C	1.197532	-0.444676	0.066262
C106	C	1.697532	0.055324	0.566262
C107	C	1.274609	-0.391756	0.941615
C108	C	1.774609	0.108244	1.441615
C109	C	1.268271	-0.396102	1.034460
C110	C	1.768271	0.103898	1.534460
C111	C	1.133123	-0.488905	1.005211
C112	C	1.633123	0.011095	1.505211
C113	C	1.139461	-0.484559	0.912366
C114	C	1.639461	0.015441	1.412366
C115	C	1.210207	-0.435984	0.880571
C116	C	1.710207	0.064016	1.380571
C117	C	1.216548	-0.431642	0.787723
C118	C	1.716548	0.068358	1.287723
C119	C	1.081396	-0.524441	0.758477
C120	C	1.581396	-0.024441	1.258477
C121	C	1.075059	-0.528787	0.851322
C122	C	1.575059	-0.028787	1.351322
H123	H	0.809845	-0.537078	0.461729
H124	H	1.309845	-0.037078	0.961729
O125	O	1.350917	-0.339377	0.907311
O126	O	1.850917	0.160623	1.407311
H127	H	1.322553	-0.295982	0.872772
H128	H	1.822553	0.204018	1.372772
H129	H	0.540482	-0.383759	0.330294
H130	H	1.040482	0.116241	0.830294
H131	H	1.090272	-1.100770	0.300999
H132	H	1.590272	-0.600770	0.800999
H133	H	1.142693	-1.155292	0.359901
H134	H	1.642693	-0.655292	0.859901
H135	H	0.983320	-0.890703	0.180806
H136	H	1.483320	-0.390703	0.680806
O137	O	0.993799	-1.026541	0.192519
O138	O	1.493799	-0.526541	0.692519
H139	H	0.989099	-1.090376	0.187204
H140	H	1.489099	-0.590376	0.687204
H141	H	0.655993	-0.581870	0.500138
H142	H	1.155993	-0.081870	1.000138
O143	O	0.998753	-0.581172	0.885620
O144	O	1.498753	-0.081172	1.385620
H145	H	1.027120	-0.624571	0.920147
H146	H	1.527120	-0.124571	1.420147
O147	O	1.223342	-0.755522	0.450622
O148	O	1.723342	-0.255522	0.950622
H149	H	1.188381	-0.718770	0.502948
H150	H	1.688381	-0.218770	1.002948
H151	H	1.320713	-0.360085	1.084160
H152	H	1.820713	0.139915	1.584160
O153	O	0.471420	-0.586170	0.503685
O154	O	0.971420	-0.086170	1.003685
H155	H	0.509150	-0.624983	0.536903
H156	H	1.009150	-0.124983	1.036903
O157	O	1.355956	-0.893448	0.599677
O158	O	1.855956	-0.393448	1.099677
H159	H	1.411883	-0.857208	0.570923
H160	H	1.911883	-0.357208	1.070923
H161	H	1.014978	-0.744299	0.216415
H162	H	1.514978	-0.244299	0.716415
O163	O	1.346432	-1.187836	0.588918
O164	O	1.846432	-0.687836	1.088918
H165	H	1.295566	-1.224610	0.623364
H166	H	1.795566	-0.724610	1.123364
O167	O	1.292851	-0.379251	0.753432
O168	O	1.792851	0.120749	1.253432
H169	H	1.333471	-0.414247	0.704770
H170	H	1.833471	0.085753	1.204770
H171	H	0.694338	-0.338968	0.291881
H172	H	1.194338	0.161032	0.791881
H173	H	0.862793	-0.347861	0.299496
H174	H	1.362793	0.152139	0.799496
O175	O	1.264073	-0.797888	0.496407
O176	O	1.764073	-0.297888	0.996407
H177	H	1.200380	-0.773924	0.516431
H178	H	1.700380	-0.273924	1.016431
H179	H	1.366418	-1.029293	0.611403
H180	H	1.866418	-0.529293	1.111403
O181	O	1.056811	-0.541281	1.039513
O182	O	1.556811	-0.041281	1.539513
H183	H	1.063225	-0.536867	1.114330
H184	H	1.563225	-0.036867	1.614330
O185	O	1.011923	-0.572147	0.692639
O186	O	1.511923	-0.072147	1.192639
H187	H	1.028210	-0.560963	0.622735
H188	H	1.528210	-0.060963	1.122735
