data_functionalizedCrystal
_audit_creation_method	'MofGen! by Chris Wilmer'
_symmetry_space_group_name_H-M	'P1'
_symmetry_Int_Tables_number	1
_symmetry_cell_setting	triclinic
loop_
_symmetry_equiv_pos_as_xyz
  x,y,z
_cell_length_a	13.897449
_cell_length_b	12.759399
_cell_length_c	12.759393
_cell_angle_alpha	89.967969
_cell_angle_beta	89.976851
_cell_angle_gamma	90.015943
loop_
_atom_site_label
_atom_site_type_symbol
_atom_site_fract_x
_atom_site_fract_y
_atom_site_fract_z
Zn1	Zn	1.474718	-0.418181	-0.594110
Zn2	Zn	1.808051	-0.084847	-0.260777
Zn3	Zn	2.141384	0.248486	0.072557
Zn4	Zn	1.474620	-0.593900	-0.418429
Zn5	Zn	1.807953	-0.260566	-0.085095
Zn6	Zn	2.141286	0.072767	0.248238
Zn7	Zn	1.313407	-0.418238	-0.418435
Zn8	Zn	1.646741	-0.084904	-0.085102
Zn9	Zn	1.980074	0.248429	0.248232
Zn10	Zn	1.313396	-0.593821	-0.594056
Zn11	Zn	1.646729	-0.260487	-0.260723
Zn12	Zn	1.980062	0.072846	0.072611
O13	O	1.394035	-0.506035	-0.506257
O14	O	1.727368	-0.172701	-0.172924
O15	O	2.060702	0.160632	0.160409
O16	O	1.609686	-0.441499	-0.570826
O17	O	1.943020	-0.108166	-0.237492
O18	O	2.276353	0.225167	0.095841
O19	O	1.453198	-0.570655	-0.271408
O20	O	1.786532	-0.237321	0.061925
O21	O	2.119865	0.096012	0.395258
O22	O	1.334851	-0.271209	-0.441764
O23	O	1.668185	0.062124	-0.108431
O24	O	2.001518	0.395458	0.224903
O25	O	1.609614	-0.570599	-0.441753
O26	O	1.942947	-0.237266	-0.108420
O27	O	2.276281	0.096067	0.224913
O28	O	1.453365	-0.271167	-0.570831
O29	O	1.786699	0.062166	-0.237498
O30	O	2.120032	0.395500	0.095835
O31	O	1.334756	-0.441597	-0.271413
O32	O	1.668090	-0.108263	0.061920
O33	O	2.001423	0.225070	0.395254
O34	O	1.178424	-0.441520	-0.441711
O35	O	1.511758	-0.108187	-0.108378
O36	O	1.845091	0.225147	0.224955
O37	O	1.334832	-0.570465	-0.741084
O38	O	1.668165	-0.237131	-0.407751
O39	O	2.001498	0.096202	-0.074418
O40	O	1.178416	-0.570520	-0.570739
O41	O	1.511749	-0.237187	-0.237406
O42	O	1.845082	0.096147	0.095927
O43	O	1.453354	-0.441423	-0.741124
O44	O	1.786687	-0.108089	-0.407791
O45	O	2.120021	0.225244	-0.074457
O46	O	1.453187	-0.740910	-0.441701
O47	O	1.786520	-0.407577	-0.108368
O48	O	2.119854	-0.074243	0.224966
O49	O	1.334736	-0.740852	-0.570733
O50	O	1.668070	-0.407519	-0.237400
O51	O	2.001403	-0.074185	0.095933
C52	C	1.393976	-0.779002	-0.506233
C53	C	1.727309	-0.445669	-0.172900
C54	C	2.060643	-0.112335	0.160433
C55	C	1.394039	-0.895779	-0.506258
C56	C	1.727372	-0.562445	-0.172925
C57	C	2.060706	-0.229112	0.160408
C58	C	1.143421	-0.506018	-0.506221
C59	C	1.476754	-0.172685	-0.172887
C60	C	1.810087	0.160648	0.160446
C61	C	1.036207	-0.506037	-0.506230
C62	C	1.369540	-0.172704	-0.172897
C63	C	1.702873	0.160630	0.160437
C64	C	1.455786	-0.950636	-0.439148
C65	C	1.789120	-0.617303	-0.105814
C66	C	2.122453	-0.283969	0.227519
C67	C	1.455848	-1.060360	-0.439183
C68	C	1.789182	-0.727027	-0.105850
C69	C	2.122515	-0.393693	0.227484
C70	C	1.332407	-1.060360	-0.573443
C71	C	1.665740	-0.727026	-0.240109
C72	C	1.999074	-0.393693	0.093224
C73	C	1.332351	-0.950638	-0.573412
C74	C	1.665684	-0.617304	-0.240079
C75	C	1.999017	-0.283971	0.093255
C76	C	0.949137	-0.506040	-0.506248
C77	C	1.282470	-0.172707	-0.172914
C78	C	1.615804	0.160626	0.160419
C79	C	0.839905	-0.506048	-0.506279
C80	C	1.173238	-0.172714	-0.172946
C81	C	1.506571	0.160619	0.160387
C82	C	1.645628	-0.506052	-0.506295
C83	C	1.978961	-0.172718	-0.172961
C84	C	2.312295	0.160615	0.160372
C85	C	1.752842	-0.506059	-0.506311
C86	C	2.086175	-0.172726	-0.172977
C87	C	2.419509	0.160608	0.160356
C88	C	1.394102	-0.505928	-0.780291
C89	C	1.727436	-0.172595	-0.446958
C90	C	2.060769	0.160738	-0.113624
C91	C	1.394131	-0.505883	-0.897068
C92	C	1.727464	-0.172550	-0.563734
C93	C	2.060798	0.160784	-0.230401
C94	C	1.394121	-0.232001	-0.506304
C95	C	1.727454	0.101332	-0.172971
C96	C	2.060787	0.434665	0.160362
C97	C	1.394157	-0.115225	-0.506324
C98	C	1.727491	0.218109	-0.172991
C99	C	2.060824	0.551442	0.160342
C100	C	1.332481	-0.438670	-0.951931
C101	C	1.665814	-0.105337	-0.618598
C102	C	1.999147	0.227996	-0.285265
C103	C	1.332503	-0.438638	-1.061656
C104	C	1.665836	-0.105305	-0.728322
C105	C	1.999170	0.228029	-0.394989
C106	C	1.455835	-0.573034	-1.061642
C107	C	1.789168	-0.239701	-0.728309
C108	C	2.122502	0.093633	-0.394976
C109	C	1.455807	-0.573071	-0.951920
C110	C	1.789140	-0.239738	-0.618587
C111	C	2.122473	0.093596	-0.285254
C112	C	1.394023	-0.506065	-0.233290
C113	C	1.727357	-0.172731	0.100043
C114	C	2.060690	0.160602	0.433377
C115	C	1.394182	-0.505814	-0.116514
C116	C	1.727515	-0.172481	0.216819
C117	C	2.060848	0.160853	0.550153
H118	H	1.506018	-0.905972	-0.384469
H119	H	1.839352	-0.572639	-0.051135
H120	H	2.172685	-0.239306	0.282198
O121	O	1.515608	-0.638331	-0.898456
O122	O	1.848941	-0.304998	-0.565123
O123	O	2.182274	0.028335	-0.231789
C124	C	1.570255	-0.697903	-0.729412
C125	C	1.903588	-0.364570	-0.396079
C126	C	2.236921	-0.031237	-0.062746
C127	C	1.502475	-0.623961	-0.789829
C128	C	1.835808	-0.290628	-0.456496
C129	C	2.169141	0.042705	-0.123163
H130	H	1.559675	-0.686295	-0.641577
H131	H	1.893008	-0.352962	-0.308244
H132	H	2.226341	-0.019628	0.025089
H133	H	1.553291	-0.782634	-0.750885
H134	H	1.886624	-0.449301	-0.417552
H135	H	2.219958	-0.115967	-0.084218
H136	H	1.648037	-0.679468	-0.751059
H137	H	1.981370	-0.346135	-0.417725
H138	H	2.314703	-0.012801	-0.084392
H139	H	1.424670	-0.642302	-0.768216
H140	H	1.758004	-0.308969	-0.434882
H141	H	2.091337	0.024365	-0.101549
H142	H	1.519521	-0.539253	-0.768352
H143	H	1.852855	-0.205919	-0.435018
H144	H	2.186188	0.127414	-0.101685
H145	H	1.282300	-0.383908	-1.106321
H146	H	1.615633	-0.050574	-0.772988
H147	H	1.948967	0.282759	-0.439654
H148	H	1.282260	-0.383962	-0.907274
H149	H	1.615593	-0.050629	-0.573940
H150	H	1.948927	0.282705	-0.240607
H151	H	1.506131	-1.105020	-0.384536
H152	H	1.839464	-0.771686	-0.051203
H153	H	2.172797	-0.438353	0.282131
H154	H	1.282181	-1.105039	-0.628115
H155	H	1.615514	-0.771706	-0.294782
H156	H	1.948848	-0.438373	0.038552
H157	H	1.282068	-0.905970	-0.628067
H158	H	1.615401	-0.572637	-0.294733
H159	H	1.948735	-0.239303	0.038600
H160	H	1.506050	-0.627735	-1.106317
H161	H	1.839383	-0.294402	-0.772983
H162	H	2.172716	0.038931	-0.439650
