data_functionalizedCrystal
_audit_creation_method	'MofGen! by Chris Wilmer'
_symmetry_space_group_name_H-M	'P1'
_symmetry_Int_Tables_number	1
_symmetry_cell_setting	triclinic
loop_
_symmetry_equiv_pos_as_xyz
  x,y,z
_cell_length_a	13.635800
_cell_length_b	19.452420
_cell_length_c	11.168136
_cell_angle_alpha	85.454015
_cell_angle_beta	108.508683
_cell_angle_gamma	78.303285
loop_
_atom_site_label
_atom_site_type_symbol
_atom_site_fract_x
_atom_site_fract_y
_atom_site_fract_z
V1	V	2.037781	-0.097194	0.394317
O2	O	2.035556	0.004660	0.386175
O3	O	2.009060	-0.192708	0.392232
O4	O	2.026189	-0.095703	0.566013
O5	O	2.018309	-0.093017	0.211190
V6	V	2.278546	-0.085010	0.372339
O7	O	2.170594	-0.123919	0.442527
O8	O	2.370832	-0.058285	0.324129
O9	O	2.195663	0.010504	0.374425
O10	O	2.339470	-0.186863	0.380481
O11	O	2.356717	-0.089187	0.555466
O12	O	2.178535	-0.086500	0.200643
V13	V	2.537781	-0.097194	0.394317
O14	O	2.535556	0.004660	0.386175
O15	O	2.509060	-0.192708	0.392232
O16	O	2.526189	-0.095703	0.566013
O17	O	2.518309	-0.093017	0.211190
V18	V	2.778546	-0.085010	0.372339
O19	O	2.670594	-0.123919	0.442527
O20	O	2.870832	-0.058285	0.324129
O21	O	2.695663	0.010504	0.374425
O22	O	2.839470	-0.186863	0.380481
O23	O	2.856717	-0.089187	0.555466
O24	O	2.678535	-0.086500	0.200643
C25	C	1.930053	-0.215992	0.386169
C26	C	1.947299	-0.294076	0.385608
C27	C	1.927281	-0.320702	0.269631
C28	C	1.943518	-0.394069	0.269065
C29	C	1.979753	-0.440807	0.384482
C30	C	1.999777	-0.414173	0.500475
C31	C	1.983550	-0.340808	0.501038
N32	N	1.969121	-0.561257	0.465768
N33	N	1.984532	-0.630950	0.465226
C34	C	2.028648	-0.661852	0.382793
N35	N	2.056753	-0.620426	0.300904
N36	N	2.041335	-0.550726	0.301443
C37	C	1.997352	-0.520360	0.383885
C38	C	2.026235	-0.768030	0.266195
C39	C	2.042480	-0.841399	0.265635
C40	C	2.098730	-0.861502	0.497047
C41	C	2.082495	-0.788135	0.497605
C42	C	2.046243	-0.741403	0.382175
C43	C	1.951902	-0.092252	0.607843
C44	C	1.983036	-0.091666	0.748210
C45	C	2.106341	0.033785	0.380484
C46	C	2.078715	0.111868	0.381053
C47	C	2.084492	-0.089954	0.158807
C48	C	2.042977	-0.090537	0.018439
C49	C	2.430053	-0.215992	0.386169
C50	C	2.447299	-0.294076	0.385608
C51	C	2.451902	-0.092252	0.607843
C52	C	2.483036	-0.091666	0.748210
C53	C	2.083748	-0.094736	0.816921
C54	C	2.115929	-0.094130	0.961998
C55	C	2.606341	0.033785	0.380484
C56	C	2.578715	0.111868	0.381053
C57	C	2.584492	-0.089954	0.158807
C58	C	2.542977	-0.090537	0.018439
C59	C	2.546764	-0.334327	0.391676
C60	C	2.562986	-0.407698	0.391169
C61	C	2.479740	-0.440816	0.384584
C62	C	2.380268	-0.400560	0.378519
C63	C	2.364049	-0.327191	0.379036
C64	C	2.651744	0.152119	0.374988
C65	C	2.625794	0.225489	0.375502
C66	C	2.526817	0.258607	0.382089
C67	C	2.453782	0.218351	0.388151
C68	C	2.479730	0.144983	0.387628
C69	C	2.583748	-0.094736	0.816921
C70	C	2.615929	-0.094130	0.961998
H71	H	1.897770	-0.282657	0.175639
N72	N	2.400962	0.101574	0.394197
H73	H	2.432408	0.050068	0.392870
H74	H	2.333128	0.119663	0.318370
H75	H	2.128233	-0.899555	0.591022
N76	N	2.400393	-0.087606	0.812570
H77	H	2.367964	-0.129919	0.799404
H78	H	2.342794	-0.042402	0.774307
N79	N	2.666410	-0.098801	0.752588
H80	H	2.631703	-0.098654	0.658068
H81	H	2.724043	-0.143981	0.790933
H82	H	1.999855	-0.319131	0.595484
H83	H	1.927215	-0.415752	0.174619
H84	H	2.029282	-0.452232	0.594449
H85	H	2.146146	-0.097808	0.768342
N86	N	2.730218	-0.097616	1.040226
H87	H	2.737007	-0.096690	1.132775
H88	H	2.752438	-0.055497	1.007513
N89	N	2.498838	0.337738	0.382667
H90	H	2.500620	0.363638	0.301632
H91	H	2.552119	0.349918	0.459049
H92	H	2.098788	-0.766456	0.592046
N93	N	1.987145	-0.717621	0.141705
H94	H	1.976937	-0.745624	0.068145
H95	H	2.041312	-0.689161	0.141204
N96	N	2.020900	-0.870121	0.140539
H97	H	1.995472	-0.829381	0.067506
H98	H	1.964286	-0.897707	0.130970
H99	H	2.456700	-0.087913	0.959381
H100	H	2.202207	-0.096761	1.021066
H101	H	1.956700	-0.087913	0.959381
N102	N	1.900382	-0.087615	0.812552
H103	H	1.828752	-0.085657	0.746768
H104	H	1.895976	-0.043496	0.854473
N105	N	2.636558	-0.298614	0.398788
H106	H	2.660208	-0.306126	0.322789
H107	H	2.698369	-0.319786	0.480198
N108	N	2.670255	-0.451125	0.397678
H109	H	2.726519	-0.446748	0.479201
H110	H	2.688136	-0.433077	0.321777
N111	N	2.497241	-0.519949	0.384027
H112	H	2.572887	-0.540417	0.388867
H113	H	2.446101	-0.529342	0.302728
H114	H	2.283051	-0.294423	0.374087
H115	H	2.312494	-0.427535	0.373158
N116	N	2.758502	0.116409	0.367885
H117	H	2.800815	0.153049	0.364116
H118	H	2.747275	0.092947	0.288706
H119	H	2.685276	0.258255	0.370567
H120	H	2.373194	0.245327	0.393513
