data_functionalizedCrystal
_audit_creation_method	'MofGen! by Chris Wilmer'
_symmetry_space_group_name_H-M	'P1'
_symmetry_Int_Tables_number	1
_symmetry_cell_setting	triclinic
loop_
_symmetry_equiv_pos_as_xyz
  x,y,z
_cell_length_a	17.699077
_cell_length_b	23.532357
_cell_length_c	16.176319
_cell_angle_alpha	89.987656
_cell_angle_beta	89.993140
_cell_angle_gamma	83.054434
loop_
_atom_site_label
_atom_site_type_symbol
_atom_site_fract_x
_atom_site_fract_y
_atom_site_fract_z
O1	O	1.003699	0.072006	-0.068746
O2	O	0.783270	0.081379	-0.068751
O3	O	0.900151	-0.006222	-0.068731
O4	O	0.886818	0.159607	-0.068765
O5	O	0.900135	-0.006228	0.068762
O6	O	0.783254	0.081374	0.068742
O7	O	1.003683	0.072000	0.068748
Cu8	Cu	0.893467	0.076686	0.081299
Cu9	Cu	0.893486	0.076693	-0.081303
O10	O	0.886802	0.159601	0.068728
C11	C	0.755067	0.081041	-0.000005
C12	C	0.671054	0.080035	-0.000006
C13	C	0.631580	0.079558	0.074942
C14	C	0.552643	0.078604	0.074943
C15	C	0.513180	0.078131	-0.000005
C16	C	0.552659	0.078606	-0.074959
C17	C	0.631596	0.079556	-0.074959
C18	C	0.234316	0.074774	-0.074960
C19	C	0.155374	0.073825	-0.074954
C20	C	0.155363	0.073821	0.074943
C21	C	0.234300	0.074771	0.074943
C22	C	0.273773	0.075244	-0.000011
C23	C	0.359366	0.076277	-0.000011
C24	C	0.427587	0.077101	-0.000005
C25	C	0.899810	-0.027443	0.000018
C26	C	0.898807	-0.090664	0.000026
C27	C	0.892521	-0.482690	-0.074967
C28	C	0.891568	-0.542092	-0.074971
O29	O	0.891057	-0.572808	-0.138711
N30	N	0.891086	-0.571808	-0.000025
C31	C	0.891551	-0.542118	0.074931
O32	O	0.891053	-0.572847	0.138679
C33	C	0.892498	-0.482716	0.074935
C34	C	0.892987	-0.453004	-0.000016
C35	C	0.893009	-0.452978	-0.149912
C36	C	0.893964	-0.393581	-0.149907
C37	C	0.894430	-0.363894	-0.074956
C38	C	0.893942	-0.393606	-0.000011
C39	C	0.892957	-0.453026	0.149890
C40	C	0.893904	-0.393620	0.149888
C41	C	0.894393	-0.363909	0.074936
C42	C	0.895363	-0.304522	0.074944
N43	N	0.895844	-0.274807	-0.000002
C44	C	0.895378	-0.304493	-0.074953
C45	C	0.889559	-0.666865	0.074917
C46	C	0.888617	-0.726266	0.074914
C47	C	0.888633	-0.726237	-0.074989
C48	C	0.889580	-0.666835	-0.074985
C49	C	0.890040	-0.637149	-0.000029
C50	C	0.897383	-0.179753	-0.074936
C51	C	0.898341	-0.120350	-0.074925
C52	C	0.898321	-0.120384	0.074978
C53	C	0.897367	-0.179782	0.074967
C54	C	0.896896	-0.209465	0.000003
O55	O	0.895872	-0.273769	0.138652
O56	O	0.895866	-0.273755	-0.138689
C57	C	1.031886	0.072338	-0.000000
C58	C	1.115899	0.073344	-0.000005
C59	C	0.887143	0.180822	-0.000023
C60	C	0.888146	0.244043	-0.000036
N61	N	0.893460	0.076681	0.195664
N62	N	0.893500	0.076693	-0.195668
C63	C	0.945230	0.037907	0.238937
C64	C	0.945234	0.037907	0.325484
C65	C	0.893470	0.076683	0.368757
C66	C	0.841694	0.115459	0.325478
C67	C	0.841688	0.115457	0.238932
C68	C	0.841720	0.115470	0.674506
C69	C	0.841733	0.115471	0.761058
C70	C	0.945266	0.037920	0.761058
C71	C	0.945260	0.037917	0.674513
C72	C	0.893481	0.076691	0.631241
C73	C	0.893477	0.076690	0.537397
C74	C	0.893478	0.076687	0.462599
H75	H	0.520509	0.078206	0.135974
H76	H	0.266427	0.075159	0.135973
H77	H	0.266446	0.075156	-0.135992
H78	H	0.898704	-0.096204	0.136000
O79	O	1.001087	-0.003907	0.372150
H80	H	0.991807	-0.048299	0.355551
O81	O	0.674139	0.080077	0.155782
H82	H	0.666042	0.041091	0.191733
H83	H	0.123215	0.073434	0.135974
O84	O	0.785880	0.157293	0.627844
H85	H	0.817518	0.184939	0.588390
H86	H	0.123245	0.073439	-0.135990
O87	O	0.894411	-0.361605	0.230737
H88	H	0.842634	-0.367863	0.266677
O89	O	0.510101	0.078098	-0.155800
H90	H	0.448578	0.077364	-0.143210
O91	O	0.892488	-0.484991	-0.230758
H92	H	0.892983	-0.454341	-0.282862
H93	H	0.896995	-0.203913	-0.135979
O94	O	0.785854	0.157280	0.192253
H95	H	0.749865	0.184248	0.236881
H96	H	0.799544	0.147030	0.360715
H97	H	0.799578	0.147048	0.796289
H98	H	0.987413	0.006344	0.639283
H99	H	0.663734	0.079946	-0.135990
H100	H	0.898741	-0.096162	-0.135962
O101	O	0.894471	-0.361535	-0.230747
H102	H	0.893975	-0.392164	-0.282858
O103	O	1.001110	-0.003909	0.807728
H104	H	0.992415	0.002600	0.875178
H105	H	0.987385	0.006333	0.203710
H106	H	0.888250	-0.750417	-0.136017
O107	O	0.890093	-0.634791	-0.155826
H108	H	0.941504	-0.651340	-0.191769
O109	O	0.888102	-0.758314	0.155752
H110	H	0.836685	-0.741768	0.191689
O111	O	0.890076	-0.634849	0.155767
H112	H	0.889591	-0.665497	0.207875
O113	O	0.892422	-0.485064	0.230731
H114	H	0.892894	-0.454431	0.282841
O115	O	0.896842	-0.211835	0.155803
H116	H	0.897324	-0.181210	0.207921
