data_functionalizedCrystal
_audit_creation_method	'MofGen! by Chris Wilmer'
_symmetry_space_group_name_H-M	'P1'
_symmetry_Int_Tables_number	1
_symmetry_cell_setting	triclinic
loop_
_symmetry_equiv_pos_as_xyz
  x,y,z
_cell_length_a	14.560438
_cell_length_b	14.560438
_cell_length_c	18.878441
_cell_angle_alpha	59.997261
_cell_angle_beta	90.002577
_cell_angle_gamma	60.002099
loop_
_atom_site_label
_atom_site_type_symbol
_atom_site_fract_x
_atom_site_fract_y
_atom_site_fract_z
Zr1	Zr	0.884747	1.005328	-0.092984
O2	O	0.738096	1.196937	-0.206099
O3	O	0.929704	0.813720	-0.058303
O4	O	0.929697	1.005334	-0.206090
O5	O	0.738109	1.005318	0.058260
O6	O	1.080835	1.005336	-0.206088
O7	O	0.738103	1.005324	-0.058312
O8	O	1.080848	0.662574	0.058276
O9	O	0.738095	1.348080	-0.206105
O10	O	1.061670	0.892532	-0.043516
O11	O	0.948882	0.892526	0.043479
O12	O	0.948873	1.118127	-0.130522
O13	O	0.836085	1.118121	-0.043527
Zr14	Zr	1.125805	1.005323	0.092938
Zr15	Zr	1.125795	1.005332	-0.092981
Zr16	Zr	0.884757	1.005319	0.092935
Zr17	Zr	0.884747	1.246383	-0.092992
Zr18	Zr	1.125805	0.764268	0.092947
O19	O	1.080848	1.196931	0.058258
O20	O	1.080835	1.196943	-0.206095
O21	O	0.738109	1.196925	0.058253
O22	O	1.272457	0.813713	0.206054
O23	O	1.272443	0.813726	-0.058299
O24	O	0.929717	0.813708	0.206050
O25	O	1.272443	1.005333	-0.058305
O26	O	1.080855	1.005317	0.206045
O27	O	0.929717	1.005315	0.206043
O28	O	1.272449	1.005327	0.058267
O29	O	0.929697	1.348084	-0.206102
O30	O	1.080856	0.662567	0.206057
O31	O	1.272457	0.662570	0.206059
O32	O	1.272449	0.662577	0.058279
O33	O	0.738103	1.348074	-0.058324
O34	O	0.929704	1.348077	-0.058321
O35	O	1.061679	0.892524	0.130477
O36	O	1.174467	0.892530	0.043482
O37	O	1.061670	1.118125	-0.043524
O38	O	0.948882	1.118119	0.043471
C39	C	1.005276	0.703802	-0.000012
C40	C	1.005276	0.601467	-0.000009
C41	C	0.922010	0.540530	-0.064257
C42	C	0.922007	0.636673	-0.064241
C43	C	1.088547	0.470107	0.064218
C44	C	1.088544	0.373967	0.064205
C45	C	0.838741	0.575747	-0.128499
C46	C	0.755469	0.707101	-0.192725
C47	C	0.755467	0.803244	-0.192710
C48	C	0.838736	0.768033	-0.128468
C49	C	0.703762	1.005320	-0.000026
C50	C	0.601430	1.005318	-0.000028
C51	C	0.612231	0.887563	0.045388
C52	C	0.516076	0.887569	0.045396
C53	C	0.398323	1.123097	-0.045435
C54	C	0.494477	1.123090	-0.045437
C55	C	0.719184	0.769791	0.090798
C56	C	0.729989	0.652026	0.136216
C57	C	0.633834	0.652032	0.136224
C58	C	0.526874	0.769804	0.090813
C59	C	1.306790	1.005331	-0.000019
C60	C	1.409122	1.005332	-0.000018
C61	C	1.005265	1.005336	-0.232579
C62	C	1.005261	1.005340	-0.311506
C63	C	1.005276	1.306849	-0.000033
C64	C	1.005276	1.409184	-0.000037
C65	C	0.946382	1.123097	-0.394002
C66	C	0.946393	1.123092	-0.468160
C67	C	1.005277	1.005330	-0.459820
C68	C	1.064163	0.887564	-0.377315
C69	C	1.064158	0.887570	-0.303159
C70	C	1.064167	0.887560	-0.531882
C71	C	1.064170	0.887554	-0.606043
C72	C	0.946402	1.123083	-0.696883
C73	C	0.946397	1.123089	-0.622727
C74	C	1.005281	1.005322	-0.540227
C75	C	1.005288	1.005315	0.232534
C76	C	1.005291	1.005311	0.311461
C77	C	1.306791	0.703807	-0.000008
C78	C	1.409122	0.601474	-0.000003
C79	C	1.005288	0.703791	0.232544
C80	C	1.005292	0.601453	0.311475
C81	C	1.306802	0.703796	0.232548
C82	C	1.409137	0.601460	0.311480
C83	C	0.703750	1.306855	-0.232593
C84	C	0.601415	1.409191	-0.311525
C85	C	0.703762	1.306844	-0.000037
C86	C	0.601430	1.409177	-0.000042
C87	C	1.005264	1.306860	-0.232589
C88	C	1.005260	1.409198	-0.311520
C89	C	1.064172	0.553393	0.393962
C90	C	1.064172	0.457249	0.468133
C91	C	1.005297	0.409160	0.459815
C92	C	0.946408	0.457229	0.377320
C93	C	0.946403	0.553378	0.303151
C94	C	1.516079	0.553405	0.303137
C95	C	1.612243	0.457262	0.377295
C96	C	1.601463	0.409170	0.459795
C97	C	1.494509	0.457235	0.468137
C98	C	1.398348	0.553382	0.393980
C99	C	0.494473	1.457258	-0.303182
C100	C	0.398309	1.553430	-0.377340
C101	C	0.409089	1.601527	-0.459841
C102	C	0.516043	1.553457	-0.468182
C103	C	0.612204	1.457293	-0.394025
C104	C	1.064147	1.457256	-0.303175
C105	C	1.064166	1.553401	-0.377332
C106	C	1.005290	1.601492	-0.459833
C107	C	0.946401	1.553425	-0.468177
C108	C	0.946390	1.457275	-0.394021
C109	C	1.398321	0.553395	-0.045410
C110	C	1.494476	0.457251	-0.045409
C111	C	1.612229	0.457268	0.045414
C112	C	1.516075	0.553417	0.045407
C113	C	1.291368	0.601452	-0.090820
C114	C	1.280563	0.553372	-0.136230
C115	C	1.376718	0.457228	-0.136229
C116	C	1.483678	0.409162	-0.090817
H117	H	1.156342	0.441451	0.116520
H118	H	0.898459	0.592496	0.235989
H119	H	1.311274	0.592496	0.400785
Cl120	Cl	1.604558	0.288306	-0.090826
Cl121	Cl	1.529662	0.613852	0.199431
H122	H	0.485673	1.418102	-0.236013
Cl123	Cl	1.363134	0.396797	-0.193322
Cl124	Cl	0.872380	1.271132	-0.800597
Cl125	Cl	1.005317	0.288283	0.553067
H126	H	1.679773	0.330880	0.520172
Cl127	Cl	0.872341	1.396883	-0.404527
H128	H	1.485748	0.418064	0.535318
H129	H	1.213067	0.679732	-0.090822
H130	H	1.112091	1.418115	-0.236005
Cl131	Cl	1.138193	0.739526	-0.199446
Cl132	Cl	1.746685	0.396852	0.366789
Cl133	Cl	0.872402	0.396758	0.366879
Cl134	Cl	1.146105	0.613807	-0.193325
H135	H	0.898450	1.218982	-0.535330
H136	H	0.817080	0.556141	0.173194
H137	H	0.311232	1.592553	-0.370532
Cl138	Cl	1.746688	0.396837	0.102502
H139	H	1.112116	0.592536	0.400750
H140	H	0.330779	1.679830	-0.520217
H141	H	0.838738	0.497472	-0.128522
Cl142	Cl	1.138195	1.613817	-0.366823
Cl143	Cl	0.529577	1.613931	-0.571904
Cl144	Cl	1.138213	0.396834	0.571830
H145	H	1.524873	0.592564	0.082381
H146	H	0.699279	1.418157	-0.400828
Cl147	Cl	1.005311	1.722372	-0.553051
H148	H	0.687670	0.735759	-0.245024
H149	H	0.898442	1.218981	-0.629524
Cl150	Cl	0.872378	1.613908	-0.571899
H151	H	0.838718	0.846326	-0.128453
Cl152	Cl	0.650775	0.968369	-0.273442
H153	H	0.642637	0.556142	0.173213
Cl154	Cl	0.872350	1.271150	-0.404498
H155	H	1.156345	0.267016	0.116501
H156	H	0.797485	0.769773	0.090795
Cl157	Cl	1.138205	0.739508	-0.595556
Cl158	Cl	0.263864	1.271142	-0.102521
Cl159	Cl	0.405995	0.769807	0.090832
Cl160	Cl	1.138214	0.739508	-0.428168
H161	H	1.112113	0.791680	-0.370529
Cl162	Cl	0.480903	1.271129	-0.102530
