data_functionalizedCrystal
_audit_creation_method	'MofGen! by Chris Wilmer'
_symmetry_space_group_name_H-M	'P1'
_symmetry_Int_Tables_number	1
_symmetry_cell_setting	triclinic
loop_
_symmetry_equiv_pos_as_xyz
  x,y,z
_cell_length_a	15.298114
_cell_length_b	15.297327
_cell_length_c	12.759401
_cell_angle_alpha	80.340282
_cell_angle_beta	80.310932
_cell_angle_gamma	88.422361
loop_
_atom_site_label
_atom_site_type_symbol
_atom_site_fract_x
_atom_site_fract_y
_atom_site_fract_z
Zn1	Zn	1.278465	-0.580285	0.452755
Zn2	Zn	1.253039	-0.726732	0.311699
Zn3	Zn	1.132037	-0.554968	0.301555
Zn4	Zn	1.106607	-0.701409	0.511801
O5	O	1.192537	-0.640849	0.394452
O6	O	1.397655	-0.620905	0.413578
O7	O	1.236989	-0.703950	0.163333
O8	O	1.172744	-0.435752	0.292656
O9	O	1.378975	-0.728499	0.309944
O10	O	1.280325	-0.454353	0.403742
O11	O	1.148089	-0.577756	0.155880
O12	O	1.006100	-0.553200	0.349911
O13	O	1.129402	-0.685339	0.650989
O14	O	0.987417	-0.660790	0.504377
O15	O	1.255666	-0.596350	0.607608
O16	O	1.212331	-0.845947	0.367199
O17	O	1.104748	-0.827342	0.514213
C18	C	0.964979	-0.601500	0.432451
C19	C	0.867625	-0.584688	0.448737
C20	C	0.554356	-0.761014	0.278314
C21	C	0.645825	-0.776809	0.263005
C22	C	0.701279	-0.728781	0.309437
C23	C	0.665256	-0.664954	0.371181
C24	C	0.573779	-0.649153	0.386485
C25	C	0.720702	-0.616919	0.417607
C26	C	0.684679	-0.553092	0.479351
C27	C	0.593211	-0.537294	0.494652
C28	C	0.537756	-0.585323	0.448221
C29	C	0.812179	-0.632720	0.402303
C30	C	0.831603	-0.520858	0.510473
C31	C	0.740134	-0.505063	0.525783
C32	C	1.153044	-0.868431	0.448233
C33	C	1.136229	-0.965805	0.471262
C34	C	1.313076	-1.278943	0.230157
C35	C	1.328874	-1.187455	0.208515
C36	C	1.280715	-1.132038	0.274200
C37	C	1.216754	-1.168118	0.361531
C38	C	1.200950	-1.259615	0.383170
C39	C	1.168588	-1.112710	0.427213
C40	C	1.104627	-1.148790	0.514544
C41	C	1.088826	-1.240278	0.536180
C42	C	1.136986	-1.295694	0.470495
C43	C	1.184392	-1.021213	0.405573
C44	C	1.072266	-1.001885	0.558586
C45	C	1.056468	-1.093373	0.580229
C46	C	1.420983	-0.680351	0.356306
C47	C	1.518333	-0.697185	0.340050
C48	C	1.192534	-0.640844	0.668485
C49	C	1.192532	-0.640841	0.785262
C50	C	1.232207	-0.412382	0.340481
C51	C	1.249112	-0.315023	0.317482
C52	C	1.258271	-0.594516	0.817541
C53	C	1.258265	-0.594517	0.927266
C54	C	1.126779	-0.687177	0.972426
C55	C	1.126782	-0.687170	0.862702
C56	C	1.334185	-0.541022	0.791469
C57	C	1.334180	-0.541023	0.901194
C58	C	1.192528	-0.640866	1.121490
C59	C	1.192524	-0.640849	1.004711
H60	H	1.236470	-0.991845	0.334468
H61	H	1.352276	-1.324070	0.176681
H62	H	1.073249	-0.724889	0.836427
O63	O	0.994330	-1.128286	0.665128
C64	C	0.955191	-1.059761	0.718452
H65	H	1.002329	-1.000709	0.700704
H66	H	0.941233	-1.084555	0.809037
H67	H	0.890364	-1.038609	0.688738
H68	H	1.398857	-0.570926	0.923938
O69	O	0.705277	-0.443056	0.585824
C70	C	0.773831	-0.404032	0.623506
H71	H	0.832816	-0.451174	0.624642
H72	H	0.749015	-0.390237	0.708539
H73	H	0.795095	-0.339132	0.567809
O74	O	1.318512	-0.459203	0.928683
C75	C	1.319446	-0.464048	1.039817
H76	H	1.304553	-0.534922	1.082728
H77	H	1.266957	-0.417548	1.074356
H78	H	1.387582	-0.443590	1.052232
O79	O	0.680964	-0.838752	0.203032
C80	C	0.773587	-0.842415	0.199503
H81	H	0.797804	-0.777018	0.215988
H82	H	0.807324	-0.854261	0.116363
H83	H	0.790530	-0.898928	0.263302
O84	O	0.847106	-0.694841	0.342485
C85	C	0.809589	-0.778307	0.389636
H86	H	0.783674	-0.778495	0.478833
H87	H	0.862236	-0.831964	0.380660
H88	H	0.752523	-0.791955	0.347542
H89	H	0.509198	-0.800107	0.240508
H90	H	0.463273	-0.572468	0.460686
H91	H	1.073246	-0.724893	1.035491
H92	H	0.563885	-0.485316	0.544920
H93	H	1.036735	-1.269649	0.607280
H94	H	1.327802	-0.470039	0.748707
H95	H	0.876754	-0.481747	0.548278
H96	H	1.033048	-0.956764	0.612071
O97	O	1.296201	-1.043191	0.253061
C98	C	1.362966	-1.023226	0.161883
H99	H	1.405044	-1.084761	0.151126
H100	H	1.406763	-0.967724	0.173585
H101	H	1.331080	-1.001048	0.087209
O102	O	0.790155	-0.743986	0.294449
C103	C	0.835286	-0.665273	0.242711
H104	H	0.788862	-0.619889	0.197227
H105	H	0.895398	-0.682049	0.183555
H106	H	0.858093	-0.630232	0.305513
H107	H	1.380950	-1.158081	0.137410
O108	O	1.121561	-1.384555	0.491704
C109	C	1.054764	-1.404518	0.582849
H110	H	1.051555	-1.349649	0.633795
H111	H	1.070611	-1.470248	0.632807
H112	H	0.988113	-1.409801	0.555648
O113	O	1.405998	-0.583421	0.745021
C114	C	1.406384	-0.672326	0.797022
H115	H	1.366246	-0.678268	0.881704
H116	H	1.477552	-0.694276	0.802300
H117	H	1.375667	-0.716324	0.749112
