data_functionalizedCrystal
_audit_creation_method	'MofGen! by Chris Wilmer'
_symmetry_space_group_name_H-M	'P1'
_symmetry_Int_Tables_number	1
_symmetry_cell_setting	triclinic
loop_
_symmetry_equiv_pos_as_xyz
  x,y,z
_cell_length_a	15.944551
_cell_length_b	15.944493
_cell_length_c	14.421503
_cell_angle_alpha	90.010165
_cell_angle_beta	90.003141
_cell_angle_gamma	96.513109
loop_
_atom_site_label
_atom_site_type_symbol
_atom_site_fract_x
_atom_site_fract_y
_atom_site_fract_z
O1	O	1.114507	-0.108323	0.077003
O2	O	1.447840	0.225010	0.410336
O3	O	1.781173	0.558343	0.743669
O4	O	0.869954	-0.121680	0.077024
O5	O	1.203288	0.211653	0.410358
O6	O	1.536621	0.544987	0.743691
O7	O	0.998934	0.007276	0.077021
O8	O	1.332267	0.340610	0.410354
O9	O	1.665601	0.673943	0.743687
O10	O	0.985527	-0.237280	0.077006
O11	O	1.318860	0.096053	0.410340
O12	O	1.652194	0.429387	0.743673
O13	O	0.998913	0.007257	-0.077203
O14	O	1.332246	0.340591	0.256131
O15	O	1.665579	0.673924	0.589464
O16	O	0.869933	-0.121699	-0.077199
O17	O	1.203266	0.211634	0.256134
O18	O	1.536600	0.544967	0.589467
O19	O	1.114485	-0.108343	-0.077221
O20	O	1.447819	0.224991	0.256113
O21	O	1.781152	0.558324	0.589446
Cu22	Cu	0.992207	-0.115023	-0.091292
Cu23	Cu	1.325541	0.218311	0.242042
Cu24	Cu	1.658874	0.551644	0.575375
Cu25	Cu	0.992232	-0.115000	0.091095
Cu26	Cu	1.325566	0.218333	0.424429
Cu27	Cu	1.658899	0.551667	0.757762
O28	O	0.985506	-0.237299	-0.077217
O29	O	1.318839	0.096034	0.256116
O30	O	1.652172	0.429368	0.589450
C31	C	0.838650	-0.121135	-0.000084
C32	C	1.171983	0.212198	0.333249
C33	C	1.505316	0.545532	0.666582
C34	C	0.745404	-0.119473	-0.000076
C35	C	1.078737	0.213861	0.333258
C36	C	1.412071	0.547194	0.666591
C37	C	0.530565	-0.035566	-0.000089
C38	C	0.863898	0.297767	0.333245
C39	C	1.197231	0.631101	0.666578
C40	C	0.469547	-0.074520	0.075949
C41	C	0.802881	0.258813	0.409283
C42	C	1.136214	0.592147	0.742616
C43	C	0.574679	-0.116465	-0.000086
C44	C	0.908012	0.216868	0.333247
C45	C	1.241346	0.550201	0.666580
C46	C	0.469548	-0.074558	-0.076103
C47	C	0.802882	0.258775	0.257230
C48	C	1.136215	0.592108	0.590564
C49	C	0.409767	-0.113555	-0.000101
C50	C	0.743100	0.219779	0.333232
C51	C	1.076433	0.553112	0.666566
C52	C	0.514889	-0.155442	0.076014
C53	C	0.848223	0.177892	0.409348
C54	C	1.181556	0.511225	0.742681
C55	C	0.514897	-0.155468	-0.076106
C56	C	0.848230	0.177865	0.257227
C57	C	1.181564	0.511198	0.590561
C58	C	0.453897	-0.194481	-0.000050
C59	C	0.787230	0.138852	0.333284
C60	C	1.120563	0.472186	0.666617
C61	C	0.669681	-0.118140	-0.000077
C62	C	1.003014	0.215193	0.333256
C63	C	1.336347	0.548527	0.666589
C64	C	0.314766	-0.111886	-0.000103
C65	C	0.648099	0.221447	0.333230
C66	C	0.981433	0.554780	0.666563
C67	C	0.998375	0.038562	-0.000087
C68	C	1.331709	0.371895	0.333246
C69	C	1.665042	0.705228	0.666580
C70	C	0.996733	0.131810	-0.000075
C71	C	1.330066	0.465144	0.333258
C72	C	1.663399	0.798477	0.666591
C73	C	1.145790	-0.108888	-0.000110
C74	C	1.479123	0.224446	0.333223
C75	C	1.812457	0.557779	0.666557
C76	C	1.239036	-0.110550	-0.000113
C77	C	1.572369	0.222783	0.333221
C78	C	1.905702	0.556117	0.666554
C79	C	0.986064	-0.268584	-0.000107
C80	C	1.319398	0.064749	0.333226
C81	C	1.652731	0.398082	0.666559
C82	C	0.987707	-0.361833	-0.000113
C83	C	1.321040	-0.028500	0.333220
C84	C	1.654374	0.304834	0.666553
C85	C	1.072653	0.367570	-0.000099
C86	C	1.405986	0.700903	0.333234
C87	C	1.739320	1.034237	0.666567
C88	C	1.031722	0.418148	0.075944
C89	C	1.365056	0.751481	0.409277
C90	C	1.698389	1.084814	0.742611
C91	C	0.993688	0.302531	-0.000086
C92	C	1.327022	0.635865	0.333247
C93	C	1.660355	0.969198	0.666580
C94	C	1.031683	0.418105	-0.076108
C95	C	1.365016	0.751438	0.257225
C96	C	1.698350	1.084771	0.590558
C97	C	0.990754	0.467441	-0.000101
C98	C	1.324087	0.800774	0.333232
C99	C	1.657421	1.134108	0.666566
C100	C	0.952779	0.351881	0.076020
C101	C	1.286113	0.685214	0.409353
C102	C	1.619446	1.018547	0.742687
C103	C	0.952751	0.351834	-0.076101
C104	C	1.286085	0.685168	0.257233
C105	C	1.619418	1.018501	0.590566
C106	C	0.911763	0.402379	-0.000039
C107	C	1.245096	0.735712	0.333295
C108	C	1.578430	1.069046	0.666628
C109	C	0.995381	0.207531	-0.000077
C110	C	1.328715	0.540865	0.333256
C111	C	1.662048	0.874198	0.666590
C112	C	0.989055	0.562438	-0.000104
C113	C	1.322388	0.895771	0.333230
C114	C	1.655722	1.229105	0.666563
N115	N	0.992196	-0.115038	-0.219573
N116	N	1.325529	0.218295	0.113760
N117	N	1.658862	0.551629	0.447094
C118	C	0.932545	-0.174641	-0.469225
C119	C	1.265878	0.158693	-0.135892
C120	C	1.599211	0.492026	0.197442
C121	C	1.008441	-0.190949	-0.531036
C122	C	1.341775	0.142385	-0.197702
C123	C	1.675108	0.475718	0.135631
C124	C	0.992216	-0.115018	-0.408734
C125	C	1.325549	0.218315	-0.075401
C126	C	1.658883	0.551649	0.257932
C127	C	0.916339	-0.098730	-0.531018
C128	C	1.249672	0.234603	-0.197684
C129	C	1.583006	0.567937	0.135649
C130	C	0.992229	-0.115001	-0.591456
C131	C	1.325562	0.218333	-0.258123
C132	C	1.658896	0.551666	0.075211
C133	C	1.068151	-0.131364	-0.469184
C134	C	1.401484	0.201970	-0.135851
C135	C	1.734818	0.535303	0.197482
C136	C	0.975998	-0.039112	-0.469161
C137	C	1.309332	0.294221	-0.135827
C138	C	1.642665	0.627555	0.197506
C139	C	1.051950	-0.055388	-0.530944
C140	C	1.385283	0.277946	-0.197610
C141	C	1.718617	0.611279	0.135723
C142	C	0.992207	-0.115030	-0.303473
C143	C	1.325541	0.218303	0.029860
C144	C	1.658874	0.551636	0.363193
C145	C	0.992246	-0.114988	-0.696715
C146	C	1.325580	0.218346	-0.363381
C147	C	1.658913	0.551679	-0.030048
N148	N	0.992251	-0.114978	0.219377
N149	N	1.325584	0.218355	0.552710
N150	N	1.658917	0.551689	0.886043
H151	H	0.535012	-0.189665	-0.140398
H152	H	0.868345	0.143668	0.192935
H153	H	1.201679	0.477002	0.526269
H154	H	0.449460	-0.040334	-0.140385
H155	H	0.782794	0.292999	0.192949
H156	H	1.116127	0.626333	0.526282
H157	H	0.919459	0.323069	0.140377
H158	H	1.252793	0.656402	0.473710
H159	H	1.586126	0.989735	0.807044
Cl160	Cl	0.901313	0.307085	-0.175355
Cl161	Cl	1.234646	0.640419	0.157978
Cl162	Cl	1.567980	0.973752	0.491311
H163	H	0.852166	-0.084961	-0.558181
H164	H	1.185499	0.248372	-0.224848
H165	H	1.518832	0.581705	0.108486
Cl166	Cl	1.083221	0.462854	0.175192
Cl167	Cl	1.416554	0.796187	0.508525
Cl168	Cl	1.749888	1.129520	0.841858
Cl169	Cl	0.582012	0.068107	0.000030
Cl170	Cl	0.915346	0.401440	0.333363
Cl171	Cl	1.248679	0.734773	0.666696
Cl172	Cl	1.083178	0.462758	-0.175360
Cl173	Cl	1.416511	0.796091	0.157973
Cl174	Cl	1.749845	1.129424	0.491306
H175	H	1.140671	0.351942	-0.000029
H176	H	1.474004	0.685275	0.333304
H177	H	1.807338	1.018608	0.666638
Cl178	Cl	0.402676	-0.298244	0.000007
Cl179	Cl	0.736009	0.035089	0.333340
Cl180	Cl	1.069342	0.368422	0.666673
H181	H	0.962246	0.025052	-0.441962
H182	H	1.295579	0.358385	-0.108628
H183	H	1.628912	0.691718	0.224705
Cl184	Cl	0.854716	-0.252545	-0.427378
Cl185	Cl	1.188049	0.080788	-0.094045
Cl186	Cl	1.521383	0.414121	0.239288
H187	H	0.449453	-0.040295	0.140238
H188	H	0.782786	0.293038	0.473571
H189	H	1.116120	0.626372	0.806905
Cl190	Cl	1.029640	-0.290042	-0.572998
Cl191	Cl	1.362973	0.043291	-0.239665
Cl192	Cl	1.696306	0.376624	0.093669
H193	H	1.132338	-0.145209	-0.442138
H194	H	1.465672	0.188124	-0.108804
H195	H	1.799005	0.521457	0.224529
H196	H	1.102473	-0.004956	-0.557873
H197	H	1.435806	0.328377	-0.224540
H198	H	1.769139	0.661711	0.108794
H199	H	0.534879	-0.189625	0.140369
H200	H	0.868212	0.143708	0.473702
H201	H	1.201545	0.477042	0.807035
H202	H	0.843692	0.417845	0.000009
H203	H	1.177025	0.751178	0.333342
H204	H	1.510359	1.084512	0.666676
