data_functionalizedCrystal
_audit_creation_method	'MofGen! by Chris Wilmer'
_symmetry_space_group_name_H-M	'P1'
_symmetry_Int_Tables_number	1
_symmetry_cell_setting	triclinic
loop_
_symmetry_equiv_pos_as_xyz
  x,y,z
_cell_length_a	10.654556
_cell_length_b	11.792254
_cell_length_c	9.130313
_cell_angle_alpha	89.995304
_cell_angle_beta	89.998135
_cell_angle_gamma	84.343067
loop_
_atom_site_label
_atom_site_type_symbol
_atom_site_fract_x
_atom_site_fract_y
_atom_site_fract_z
O1	O	1.667392	0.159453	-0.121745
O2	O	1.301872	0.174634	-0.121760
O3	O	1.493494	0.001895	-0.121742
O4	O	1.475770	0.332193	-0.121763
O5	O	1.493481	0.001890	0.121857
O6	O	1.301859	0.174629	0.121839
O7	O	1.667379	0.159448	0.121854
Cu8	Cu	1.484618	0.167038	0.144089
Cu9	Cu	1.484633	0.167044	-0.143995
O10	O	1.475757	0.332188	0.121836
C11	C	1.255071	0.173516	0.000038
C12	C	1.115637	0.170176	0.000032
C13	C	0.919112	0.165477	-0.132742
C14	C	1.050126	0.168608	-0.132751
C15	C	1.050130	0.168602	0.132834
C16	C	0.919120	0.165463	0.132841
C17	C	1.492371	-0.040401	0.000057
C18	C	1.489029	-0.166422	0.000056
C19	C	1.486314	-0.268765	0.000051
C20	C	1.482919	-0.397159	0.000037
C21	C	1.714180	0.160567	0.000053
C22	C	1.853613	0.163906	0.000049
C23	C	1.476880	0.374484	0.000034
C24	C	1.480222	0.500504	0.000026
N25	N	1.484616	0.167033	0.346712
N26	N	1.484645	0.167040	-0.346617
C27	C	1.569495	0.090577	0.423372
C28	C	1.569507	0.090577	0.576708
C29	C	1.399757	0.243500	0.576712
C30	C	1.399740	0.243494	0.423378
H31	H	1.103449	0.169885	-0.240883
H32	H	1.103481	0.169872	0.240948
H33	H	0.865790	0.164183	0.240982
O34	O	0.855394	0.164155	-0.261692
C35	C	0.766042	0.260452	-0.269631
H36	H	0.796053	0.329984	-0.194287
H37	H	0.669815	0.235889	-0.233947
C38	C	0.721024	0.219495	-0.520822
C39	C	0.757890	0.304899	-0.428292
H40	H	0.715990	0.246910	-0.618692
H41	H	0.781218	0.154615	-0.515472
H42	H	0.640838	0.199033	-0.491067
H43	H	0.838081	0.325348	-0.458035
H44	H	0.697709	0.369783	-0.433650
H45	H	1.330615	0.305754	0.360957
H46	H	1.638604	0.028317	0.360954
H47	H	1.638621	0.028318	0.639121
H48	H	1.330654	0.305754	0.639149
