data_functionalizedCrystal
_audit_creation_method	'MofGen! by Chris Wilmer'
_symmetry_space_group_name_H-M	'P1'
_symmetry_Int_Tables_number	1
_symmetry_cell_setting	triclinic
loop_
_symmetry_equiv_pos_as_xyz
  x,y,z
_cell_length_a	16.109301
_cell_length_b	11.792254
_cell_length_c	14.586319
_cell_angle_alpha	89.996031
_cell_angle_beta	89.999213
_cell_angle_gamma	83.830039
loop_
_atom_site_label
_atom_site_type_symbol
_atom_site_fract_x
_atom_site_fract_y
_atom_site_fract_z
O1	O	1.103822	0.145884	-0.076183
O2	O	0.861846	0.164039	-0.076197
O3	O	0.988701	-0.010259	-0.076183
O4	O	0.976968	0.320183	-0.076197
O5	O	0.988692	-0.010262	0.076298
O6	O	0.861837	0.164037	0.076283
O7	O	1.103813	0.145882	0.076298
Cu8	Cu	0.982825	0.154959	0.090213
Cu9	Cu	0.982835	0.154962	-0.090113
O10	O	0.976959	0.320180	0.076284
C11	C	0.987957	-0.052545	0.000057
C12	C	0.985745	-0.178538	0.000056
C13	C	0.830863	0.163303	0.000041
C14	C	0.738558	0.161098	0.000036
C15	C	0.516751	0.259397	0.000042
C16	C	0.430021	0.257316	0.000048
C17	C	0.448915	0.050517	0.000053
C18	C	0.535644	0.052598	0.000054
C19	C	0.569559	0.157042	0.000044
C20	C	0.396100	0.152880	0.000049
C21	C	0.302064	0.150623	0.000055
C22	C	0.663602	0.159299	0.000039
C23	C	0.983948	-0.280859	0.000053
C24	C	0.981700	-0.409226	0.000044
C25	C	1.134796	0.146618	0.000057
C26	C	1.227102	0.148823	0.000057
C27	C	0.977702	0.362466	0.000042
C28	C	0.979915	0.488459	0.000037
N29	N	0.982823	0.154956	0.217045
N30	N	0.982843	0.154956	-0.216944
C31	C	1.039013	0.077803	0.452058
C32	C	1.039016	0.077800	0.548039
C33	C	0.926647	0.232113	0.548036
C34	C	0.926641	0.232110	0.452057
C35	C	0.982829	0.154956	0.404070
C36	C	0.982837	0.154957	0.596031
C37	C	0.982839	0.154954	0.700098
C38	C	0.982826	0.154956	0.299996
H39	H	0.544362	0.344441	0.000041
H40	H	0.421290	-0.034517	0.000067
Cl41	Cl	0.363637	0.385997	0.000048
Cl42	Cl	0.602036	-0.076087	0.000063
H43	H	0.880901	0.294932	0.587116
H44	H	1.084765	0.014974	0.587108
H45	H	1.084764	0.014978	0.412989
H46	H	0.880885	0.294937	0.412982
