data_functionalizedCrystal
_audit_creation_method	'MofGen! by Chris Wilmer'
_symmetry_space_group_name_H-M	'P1'
_symmetry_Int_Tables_number	1
_symmetry_cell_setting	triclinic
loop_
_symmetry_equiv_pos_as_xyz
  x,y,z
_cell_length_a	17.699104
_cell_length_b	8.597304
_cell_length_c	16.776229
_cell_angle_alpha	82.293521
_cell_angle_beta	89.991971
_cell_angle_gamma	84.318364
loop_
_atom_site_label
_atom_site_type_symbol
_atom_site_fract_x
_atom_site_fract_y
_atom_site_fract_z
O1	O	1.005715	0.198623	-0.079942
O2	O	1.505715	0.698623	0.420058
O3	O	0.785553	0.224410	-0.081711
O4	O	1.285553	0.724410	0.418289
O5	O	0.899966	-0.016967	-0.065133
O6	O	1.399966	0.483033	0.434867
O7	O	0.891303	0.440001	-0.096520
O8	O	1.391303	0.940001	0.403480
O9	O	0.899950	-0.016982	0.067444
O10	O	1.399950	0.483018	0.567444
O11	O	0.785538	0.224395	0.050866
O12	O	1.285538	0.724395	0.550866
O13	O	1.005700	0.198608	0.052635
O14	O	1.505700	0.698608	0.552635
Zn15	Zn	0.895616	0.211499	0.072800
Zn16	Zn	1.395616	0.711499	0.572800
Zn17	Zn	0.895637	0.211519	-0.101876
Zn18	Zn	1.395637	0.711519	0.398124
O19	O	0.891287	0.439986	0.036057
O20	O	1.391287	0.939986	0.536057
C21	C	0.757341	0.223473	-0.015358
C22	C	1.257341	0.723473	0.484642
C23	C	0.673301	0.220684	-0.015166
C24	C	1.173301	0.720684	0.484834
C25	C	0.149474	0.346641	-0.023826
C26	C	0.649474	0.846641	0.476174
C27	C	0.228439	0.349252	-0.024007
C28	C	0.728439	0.849252	0.475993
C29	C	0.275882	0.207554	-0.014275
C30	C	0.775882	0.707554	0.485725
C31	C	0.244356	0.063236	-0.004368
C32	C	0.744356	0.563236	0.495632
C33	C	0.165391	0.060627	-0.004192
C34	C	0.665391	0.560627	0.495808
C35	C	0.562809	0.073755	-0.005077
C36	C	1.062809	0.573755	0.494923
C37	C	0.641778	0.076376	-0.005251
C38	C	1.141778	0.576376	0.494749
C39	C	0.625857	0.362380	-0.024893
C40	C	1.125857	0.862380	0.475107
C41	C	0.546893	0.359771	-0.024717
C42	C	1.046893	0.859771	0.475283
C43	C	0.515373	0.215454	-0.014814
C44	C	1.015373	0.715454	0.485186
C45	C	0.429750	0.212625	-0.014619
C46	C	0.929750	0.712625	0.485381
C47	C	0.361504	0.210382	-0.014464
C48	C	0.861504	0.710382	0.485536
C49	C	0.899027	-0.075443	0.005170
C50	C	1.399027	0.424557	0.505170
C51	C	0.896244	-0.249661	0.017131
C52	C	1.396244	0.250339	0.517131
C53	C	1.033912	0.199545	-0.013720
C54	C	1.533912	0.699545	0.486280
C55	C	1.117953	0.202334	-0.013917
C56	C	1.617953	0.702334	0.486083
C57	C	0.892226	0.498462	-0.034248
C58	C	1.392226	0.998462	0.465752
C59	C	0.895009	0.672679	-0.046214
C60	C	1.395009	1.172679	0.453786
N61	N	0.895608	0.211485	0.192012
N62	N	1.395608	0.711485	0.692012
N63	N	0.895651	0.211521	-0.221088
N64	N	1.395651	0.711521	0.278912
C65	C	0.946286	0.104647	0.241067
C66	C	1.446286	0.604647	0.741067
C67	C	0.946290	0.104646	0.324520
C68	C	1.446290	0.604646	0.824520
C69	C	0.895619	0.211491	0.358915
C70	C	1.395619	0.711491	0.858915
C71	C	0.844936	0.318335	0.309854
C72	C	1.344936	0.818335	0.809854
C73	C	0.844929	0.318327	0.226404
C74	C	1.344929	0.818327	0.726404
C75	C	0.844963	0.318365	0.646399
C76	C	1.344963	0.818365	1.146399
C77	C	0.844976	0.318368	0.729855
C78	C	1.344976	0.818368	1.229855
C79	C	0.946325	0.104684	0.744515
C80	C	1.446325	0.604684	1.244515
C81	C	0.946318	0.104676	0.661065
C82	C	1.446318	0.604676	1.161065
C83	C	0.895632	0.211513	0.612011
C84	C	1.395632	0.711513	1.112011
C85	C	0.895627	0.211512	0.521523
C86	C	1.395627	0.711512	1.021523
C87	C	0.895627	0.211502	0.449401
C88	C	1.395627	0.711502	0.949401
H89	H	0.282990	-0.052137	0.003552
H90	H	0.782990	0.447863	0.503552
H91	H	0.803675	0.405325	0.337864
H92	H	1.303675	0.905325	0.837864
H93	H	0.508268	0.475156	-0.032639
H94	H	1.008268	0.975156	0.467361
H95	H	0.896079	-0.260526	-0.109603
H96	H	1.396079	0.239474	0.390397
F97	F	0.790988	0.432035	0.174197
F98	F	1.290988	0.932035	0.674197
H99	H	0.110851	0.462028	-0.031745
H100	H	0.610851	0.962028	0.468255
F101	F	0.791042	0.432092	0.766459
F102	F	1.291042	0.932092	1.266459
F103	F	1.000221	-0.009068	0.204469
F104	F	1.500221	0.490932	0.704469
F105	F	0.261983	0.502843	-0.034557
F106	F	0.761983	1.002843	0.465443
F107	F	1.000250	-0.009037	0.624462
F108	F	1.500250	0.490963	1.124462
F109	F	0.894832	-0.336966	0.099991
F110	F	1.394832	0.163034	0.599991
H111	H	0.987555	0.017649	0.364460
H112	H	1.487555	0.517649	0.864460
F113	F	1.000268	-0.009028	0.796728
F114	F	1.500268	0.490972	1.296728
H115	H	0.803695	0.405358	0.606466
H116	H	1.303695	0.905358	1.106466
H117	H	0.651529	0.479891	-0.032960
H118	H	1.151529	0.979891	0.467040
H119	H	0.537156	-0.043756	0.002988
H120	H	1.037156	0.456244	0.502988
F121	F	0.131845	-0.092964	0.006354
F122	F	0.631845	0.407036	0.506354
F123	F	0.692269	-0.074446	0.005107
F124	F	1.192269	0.425554	0.505107
