data_functionalizedCrystal
_audit_creation_method	'MofGen! by Chris Wilmer'
_symmetry_space_group_name_H-M	'P1'
_symmetry_Int_Tables_number	1
_symmetry_cell_setting	triclinic
loop_
_symmetry_equiv_pos_as_xyz
  x,y,z
_cell_length_a	19.077212
_cell_length_b	13.031981
_cell_length_c	19.076919
_cell_angle_alpha	95.212724
_cell_angle_beta	90.114942
_cell_angle_gamma	99.167303
loop_
_atom_site_label
_atom_site_type_symbol
_atom_site_fract_x
_atom_site_fract_y
_atom_site_fract_z
Zn1	Zn	1.027259	-0.379268	0.406872
Zn2	Zn	1.527259	0.120732	0.906872
Zn3	Zn	1.018199	-0.546697	0.274483
Zn4	Zn	1.518199	-0.046697	0.774483
Zn5	Zn	0.914519	-0.378718	0.284696
Zn6	Zn	1.414519	0.121282	0.784696
Zn7	Zn	0.894878	-0.560632	0.385977
Zn8	Zn	1.394878	-0.060632	0.885977
O9	O	0.963714	-0.466329	0.338007
O10	O	1.463714	0.033671	0.838007
O11	O	1.124849	-0.395876	0.393780
O12	O	1.624849	0.104124	0.893780
O13	O	1.008874	-0.518351	0.178046
O14	O	1.508874	-0.018351	0.678046
O15	O	0.941486	-0.232590	0.313922
O16	O	1.441486	0.267410	0.813922
O17	O	1.118193	-0.518885	0.296515
O18	O	1.618193	-0.018885	0.796515
O19	O	1.024315	-0.232994	0.403684
O20	O	1.524315	0.267006	0.903684
O21	O	0.932701	-0.394938	0.185550
O22	O	1.432701	0.105062	0.685550
O23	O	0.813122	-0.408451	0.293661
O24	O	1.313122	0.091549	0.793661
O25	O	0.908010	-0.542636	0.486541
O26	O	1.408010	-0.042636	0.986541
O27	O	0.798691	-0.542103	0.368072
O28	O	1.298691	-0.042103	0.868072
O29	O	1.005270	-0.409389	0.501892
O30	O	1.505270	0.090611	1.001892
O31	O	0.989829	-0.694746	0.276254
O32	O	1.489829	-0.194746	0.776254
O33	O	0.899225	-0.704985	0.358169
O34	O	1.399225	-0.204985	0.858169
C35	C	0.780291	-0.476730	0.329708
C36	C	1.280291	0.023270	0.829708
C37	C	0.701819	-0.481206	0.326172
C38	C	1.201819	0.018794	0.826172
C39	C	0.259732	-0.513267	0.300848
C40	C	0.759732	-0.013267	0.800848
C41	C	0.333465	-0.509055	0.304165
C42	C	0.833465	-0.009055	0.804165
C43	C	0.373787	-0.443019	0.356528
C44	C	0.873787	0.056981	0.856528
C45	C	0.340373	-0.381183	0.405572
C46	C	0.840373	0.118817	0.905572
C47	C	0.266641	-0.385390	0.402251
C48	C	0.766641	0.114610	0.902251
C49	C	0.594673	-0.423577	0.371895
C50	C	1.094673	0.076423	0.871895
C51	C	0.668409	-0.419377	0.375214
C52	C	1.168409	0.080623	0.875214
C53	C	0.661496	-0.547249	0.273806
C54	C	1.161496	-0.047249	0.773806
C55	C	0.587763	-0.551454	0.270492
C56	C	1.087763	-0.051454	0.770492
C57	C	0.554356	-0.489614	0.319533
C58	C	1.054356	0.010386	0.819533
N59	N	0.449155	-0.438715	0.359922
N60	N	0.949155	0.061285	0.859922
N61	N	0.478990	-0.493913	0.316136
N62	N	0.978990	0.006087	0.816136
C63	C	0.941431	-0.737774	0.313852
C64	C	1.441431	-0.237774	0.813852
C65	C	0.931962	-0.853897	0.303545
C66	C	1.431962	-0.353897	0.803545
C67	C	0.968693	-0.905789	0.343402
C68	C	1.468693	-0.405789	0.843402
C69	C	0.958907	-1.025808	0.332750
C70	C	1.458907	-0.525808	0.832750
C71	C	1.147853	-0.455887	0.346339
C72	C	1.647853	0.044113	0.846339
C73	C	1.226322	-0.451438	0.349889
C74	C	1.726322	0.048562	0.849889
C75	C	0.955459	-0.477628	0.520282
C76	C	1.455459	0.022372	1.020282
C77	C	0.951942	-0.482443	0.597956
C78	C	1.451942	0.017557	1.097956
C79	C	0.986102	-0.193823	0.362273
C80	C	1.486102	0.306177	0.862273
C81	C	0.995643	-0.077698	0.372613
C82	C	1.495643	0.422302	0.872613
C83	C	0.971983	-0.454995	0.156450
C84	C	1.471983	0.045005	0.656450
C85	C	0.975661	-0.449878	0.078808
C86	C	1.475661	0.050122	0.578808
C87	C	1.000925	-0.415334	0.642441
C88	C	1.500925	0.084666	1.142441
C89	C	0.997612	-0.419855	0.715425
C90	C	1.497612	0.080145	1.215425
C91	C	0.945318	-0.491491	0.743921
C92	C	1.445318	0.008509	1.243921
C93	C	0.896330	-0.558604	0.699431
C94	C	1.396330	-0.058604	1.199431
C95	C	0.899641	-0.554077	0.626449
C96	C	1.399641	-0.054077	1.126449
C97	C	0.929984	-0.512464	0.961336
C98	C	1.429984	-0.012464	1.461336
C99	C	0.926678	-0.516988	1.034323
C100	C	1.426678	-0.016988	1.534323
C101	C	1.027959	-0.378237	1.050312
C102	C	1.527959	0.121763	1.550312
C103	C	1.031268	-0.373721	0.977328
C104	C	1.531268	0.126279	1.477328
C105	C	0.982278	-0.440829	0.932844
C106	C	1.482278	0.059171	1.432844
N107	N	0.941931	-0.496116	0.818522
N108	N	1.441931	0.003884	1.318522
N109	N	0.985662	-0.436199	0.858245
N110	N	1.485662	0.063801	1.358245
H111	H	0.239441	-0.335038	0.442184
H112	H	0.739441	0.164962	0.942184
H113	H	1.034334	-1.033276	0.414628
H114	H	1.534334	-0.533276	0.914628
H115	H	0.859748	-0.608714	0.590230
H116	H	1.359748	-0.108714	1.090230
C117	C	0.384730	-0.308538	0.463170
C118	C	0.884730	0.191462	0.963170
N119	N	0.418140	-0.253823	0.506555
N120	N	0.918140	0.246177	1.006555
H121	H	1.067843	-0.323600	1.086538
H122	H	1.567843	0.176400	1.586538
C123	C	0.698252	-0.615257	0.219857
C124	C	1.198252	-0.115257	0.719857
N125	N	0.725937	-0.666478	0.179217
N126	N	1.225937	-0.166478	0.679217
H127	H	0.893267	-0.898324	0.261538
H128	H	1.393267	-0.398324	0.761538
H129	H	0.226906	-0.567046	0.258211
H130	H	0.726906	-0.067046	0.758211
C131	C	1.058452	-0.336527	0.611102
C132	C	1.558452	0.163473	1.111102
N133	N	1.101781	-0.277163	0.587500
N134	N	1.601781	0.222837	1.087500
H135	H	0.701238	-0.365595	0.417854
H136	H	1.201238	0.134405	0.917854
C137	C	0.370212	-0.577073	0.250215
C138	C	0.870212	-0.077073	0.750215
N139	N	0.397889	-0.628307	0.209577
N140	N	0.897889	-0.128307	0.709577
H141	H	0.554937	-0.605227	0.227851
H142	H	1.054937	-0.105227	0.727851
C143	C	0.876091	-0.586283	0.912413
C144	C	1.376091	-0.086283	1.412413
N145	N	0.835495	-0.641885	0.875562
N146	N	1.335495	-0.141885	1.375562
H147	H	0.567481	-0.373227	0.411831
H148	H	1.067481	0.126773	0.911831
H149	H	0.884092	-0.575325	1.057522
H150	H	1.384092	-0.075325	1.557522
C151	C	0.838801	-0.637395	0.730781
C152	C	1.338801	-0.137395	1.230781
N153	N	0.795468	-0.696741	0.754392
N154	N	1.295468	-0.196741	1.254392
H155	H	1.037500	-0.365210	0.751642
H156	H	1.537500	0.134790	1.251642
C157	C	1.020965	-0.845775	0.400156
C158	C	1.520965	-0.345775	0.900156
N159	N	1.060339	-0.800574	0.442904
N160	N	1.560339	-0.300574	0.942904
C161	C	0.906650	-1.085816	0.275977
C162	C	1.406650	-0.585816	0.775977
N163	N	0.867298	-1.131015	0.233209
N164	N	1.367298	-0.631015	0.733209
C165	C	1.088788	-0.294905	0.945988
C166	C	1.588788	0.205095	1.445988
N167	N	1.132113	-0.235539	0.922383
N168	N	1.632113	0.264461	1.422383
