data_functionalizedCrystal
_audit_creation_method	'MofGen! by Chris Wilmer'
_symmetry_space_group_name_H-M	'P1'
_symmetry_Int_Tables_number	1
_symmetry_cell_setting	triclinic
loop_
_symmetry_equiv_pos_as_xyz
  x,y,z
_cell_length_a	13.635800
_cell_length_b	23.752963
_cell_length_c	23.753277
_cell_angle_alpha	82.879326
_cell_angle_beta	79.927496
_cell_angle_gamma	100.066732
loop_
_atom_site_label
_atom_site_type_symbol
_atom_site_fract_x
_atom_site_fract_y
_atom_site_fract_z
V1	V	-1.985934	-0.079914	0.178732
O2	O	-1.988875	0.003068	0.174984
O3	O	-1.953550	-0.157713	0.177842
O4	O	-1.953564	-0.079023	0.256532
O5	O	-1.988861	-0.076166	0.095750
V6	V	-2.229867	-0.069948	0.168766
O7	O	-2.111800	-0.101774	0.200593
O8	O	-2.329100	-0.048088	0.146906
O9	O	-2.150648	0.007851	0.169657
O10	O	-2.285625	-0.152930	0.172514
O11	O	-2.285639	-0.073695	0.251749
O12	O	-2.150634	-0.070839	0.090967
V13	V	-1.485934	-0.079914	0.178732
O14	O	-1.488875	0.003068	0.174984
O15	O	-1.453550	-0.157713	0.177842
O16	O	-1.453564	-0.079023	0.256532
O17	O	-1.488861	-0.076166	0.095750
V18	V	-1.729867	-0.069948	0.168766
O19	O	-1.611800	-0.101774	0.200593
O20	O	-1.829100	-0.048088	0.146906
O21	O	-1.650648	0.007851	0.169657
O22	O	-1.785625	-0.152930	0.172514
O23	O	-1.785639	-0.073695	0.251749
O24	O	-1.650634	-0.070839	0.090967
C25	C	-1.874324	-0.176668	0.175108
C26	C	-1.888435	-0.240272	0.174899
C27	C	-1.962360	-0.626288	0.121108
C28	C	-1.975632	-0.686050	0.120904
O29	O	-1.970908	-0.709824	0.076209
N30	N	-1.995929	-0.724330	0.173234
C31	C	-2.002966	-0.702846	0.225773
O32	O	-2.021450	-0.740894	0.270266
C33	C	-1.989702	-0.643085	0.225977
C34	C	-1.969394	-0.604807	0.173643
C35	C	-1.942055	-0.588011	0.068778
C36	C	-1.928782	-0.528253	0.068983
C37	C	-1.935816	-0.506772	0.121517
C38	C	-1.956121	-0.545049	0.173847
C39	C	-1.996745	-0.621602	0.278516
C40	C	-1.983480	-0.561836	0.278715
C41	C	-1.963172	-0.523559	0.226381
C42	C	-1.949882	-0.463811	0.226587
N43	N	-1.929585	-0.425530	0.174256
C44	C	-1.922551	-0.447011	0.121721
C45	C	-2.030823	-0.828347	0.225340
C46	C	-2.044080	-0.888107	0.225137
C47	C	-2.016747	-0.871307	0.120267
C48	C	-2.003482	-0.811546	0.120471
C49	C	-2.010525	-0.790067	0.173010
C50	C	-1.894678	-0.321516	0.122155
C51	C	-1.881402	-0.261753	0.122364
C52	C	-1.908741	-0.278559	0.227234
C53	C	-1.922011	-0.338316	0.227025
C54	C	-1.914982	-0.359792	0.174481
O55	O	-1.954595	-0.439995	0.271259
O56	O	-1.904081	-0.408958	0.077237
C57	C	-1.874341	-0.076291	0.275484
C58	C	-1.888463	-0.076077	0.339088
C59	C	-2.061545	0.026804	0.172389
C60	C	-2.037053	0.090407	0.172602
C61	C	-2.061528	-0.073573	0.072012
C62	C	-2.037026	-0.073783	0.008407
C63	C	-1.374324	-0.176668	0.175108
C64	C	-1.388435	-0.240272	0.174899
C65	C	-1.374341	-0.076291	0.275484
C66	C	-1.388463	-0.076077	0.339088
C67	C	-1.963124	-0.127572	0.622392
C68	C	-1.949857	-0.127776	0.562630
O69	O	-1.954576	-0.172470	0.538855
N70	N	-1.929571	-0.075446	0.524350
C71	C	-1.922541	-0.022907	0.545835
O72	O	-1.904067	0.021585	0.507788
C73	C	-1.935801	-0.022703	0.605596
C74	C	-1.956097	-0.075038	0.643873
C75	C	-1.983418	-0.179902	0.660668
C76	C	-1.996686	-0.179698	0.720426
C77	C	-1.989659	-0.127163	0.741907
C78	C	-1.969365	-0.074833	0.703631
C79	C	-1.928764	0.029835	0.627079
C80	C	-1.942024	0.030034	0.686845
C81	C	-1.962321	-0.022300	0.725122
C82	C	-1.975606	-0.022095	0.784870
N83	N	-1.995892	-0.074425	0.823149
C84	C	-2.002919	-0.126960	0.801668
C85	C	-1.894695	-0.023339	0.420334
C86	C	-1.881442	-0.023543	0.360575
C87	C	-1.908758	-0.128412	0.377373
C88	C	-1.922017	-0.128208	0.437134
C89	C	-1.914981	-0.075670	0.458614
C90	C	-2.030781	-0.126527	0.927163
C91	C	-2.044053	-0.126318	0.986926
C92	C	-2.016732	-0.021449	0.970122
C93	C	-2.003466	-0.021657	0.910365
C94	C	-2.010489	-0.074201	0.888887
O95	O	-1.970897	0.022577	0.808686
O96	O	-2.021379	-0.171444	0.839721
C97	C	-1.561545	0.026804	0.172389
C98	C	-1.537053	0.090407	0.172602
C99	C	-1.561528	-0.073573	0.072012
C100	C	-1.537026	-0.073783	0.008407
C101	C	-1.485513	-0.273071	0.177672
C102	C	-1.498788	-0.332836	0.177484
C103	C	-1.414983	-0.359800	0.174519
C104	C	-1.317898	-0.326997	0.171748
C105	C	-1.304625	-0.267234	0.171940
C106	C	-1.485544	-0.078842	0.371886
C107	C	-1.498825	-0.078634	0.431647
C108	C	-1.415024	-0.075665	0.458611
C109	C	-1.317934	-0.072899	0.425809
C110	C	-1.304654	-0.073102	0.366048
C111	C	-1.612468	0.123206	0.169830
C112	C	-1.589465	0.182970	0.170021
C113	C	-1.491046	0.209934	0.172987
C114	C	-1.415625	0.177132	0.175757
C115	C	-1.438627	0.117369	0.175562
C116	C	-1.438596	-0.076746	-0.018542
C117	C	-1.415557	-0.076937	-0.078306
C118	C	-1.490952	-0.074169	-0.111119
C119	C	-1.589390	-0.071205	-0.084166
C120	C	-1.612426	-0.071010	-0.024404
H121	H	-1.888952	-0.338994	0.079369
C122	C	-1.719300	-0.067895	0.004942
C123	C	-1.759659	-0.117097	0.047005
C124	C	-1.858108	-0.114244	0.074052
H125	H	-1.761016	-0.066304	-0.023095
H126	H	-1.716985	-0.034175	0.022804
H127	H	-1.761980	-0.150808	0.029144
H128	H	-1.717972	-0.118698	0.075054
H129	H	-1.855793	-0.080524	0.091914
H130	H	-1.899814	-0.112651	0.046011
H131	H	-1.885500	-0.147624	0.102599
C132	C	-1.981272	0.035125	0.868734
C133	C	-1.887501	0.040771	0.831170
C134	C	-1.867016	0.093069	0.792813
H135	H	-1.978912	0.066489	0.890016
H136	H	-2.033341	0.035401	0.846904
H137	H	-1.835444	0.040500	0.852998
H138	H	-1.889837	0.009419	0.809875
H139	H	-1.919086	0.093345	0.770982
H140	H	-1.864661	0.124430	0.814099
H141	H	-1.803396	0.096904	0.767318
H142	H	-1.225571	-0.240533	0.169679
H143	H	-2.013281	-0.652759	0.321132
C144	C	-1.576650	-0.082154	0.342708
C145	C	-1.647356	-0.133311	0.366946
C146	C	-1.731306	-0.136375	0.340091
H147	H	-1.554997	-0.081914	0.302419
H148	H	-1.607302	-0.049772	0.348350
H149	H	-1.616709	-0.165684	0.361299
H150	H	-1.669037	-0.133562	0.407232
H151	H	-1.761958	-0.103993	0.345733
H152	H	-1.709642	-0.136133	0.299803
H153	H	-1.779294	-0.171081	0.356536
C154	C	-1.199257	-0.070019	0.330387
C155	C	-1.173401	-0.020488	0.287973
C156	C	-1.076316	-0.017637	0.255115
H157	H	-1.198990	-0.103492	0.312284
H158	H	-1.151201	-0.068200	0.354974
H159	H	-1.221445	-0.022312	0.263388
H160	H	-1.173646	0.012993	0.306059
H161	H	-1.028259	-0.015818	0.279703
H162	H	-1.076057	-0.051112	0.237016
H163	H	-1.058756	0.015972	0.226337
H164	H	-1.989140	-0.222684	0.643186
H165	H	-1.577846	-0.359536	0.179739
H166	H	-1.249709	-0.070482	0.447772
H167	H	-1.989227	-0.544353	0.321500
C168	C	-1.859417	-0.220290	0.065482
C169	C	-1.856131	-0.251899	0.019434
C170	C	-1.835898	-0.213726	-0.032972
H171	H	-1.795807	-0.194746	0.061462
H172	H	-1.911548	-0.198504	0.065186
H173	H	-1.804003	-0.273676	0.019729
H174	H	-1.919732	-0.277442	0.023434
H175	H	-1.888030	-0.191940	-0.033268
H176	H	-1.772289	-0.188184	-0.036986
H177	H	-1.833675	-0.235168	-0.064222
C178	C	-1.465870	0.274817	0.173180
C179	C	-1.363533	0.291420	0.176358
C180	C	-1.340308	0.351187	0.176531
H181	H	-1.507643	0.284113	0.205702
H182	H	-1.477747	0.294804	0.138611
H183	H	-1.351666	0.271441	0.210923
H184	H	-1.321737	0.282140	0.143839
H185	H	-1.352185	0.371173	0.141962
H186	H	-1.382087	0.360476	0.209053
H187	H	-1.270869	0.362460	0.178682
H188	H	-1.914473	-0.171188	0.359873
C189	C	-1.429669	-0.075483	0.523508
C190	C	-1.532635	-0.078556	0.546456
C191	C	-1.546173	-0.078399	0.606238
H192	H	-1.390622	-0.040848	0.530657
H193	H	-1.408068	-0.107937	0.541346
H194	H	-1.554224	-0.046105	0.528624
H195	H	-1.571704	-0.113190	0.539322
H196	H	-1.524573	-0.110853	0.624076
H197	H	-1.507121	-0.043763	0.613382
H198	H	-1.616037	-0.080489	0.621817
H199	H	-1.335399	-0.079350	-0.100242
H200	H	-1.912254	-0.497092	0.026367
C201	C	-1.308705	0.206400	0.178864
C202	C	-1.239768	0.198043	0.131056
C203	C	-1.141269	0.225005	0.133899
H204	H	-1.291589	0.190068	0.213520
H205	H	-1.305765	0.246698	0.178555
H206	H	-1.242704	0.157753	0.131370
H207	H	-1.256850	0.214377	0.096393
H208	H	-1.138329	0.265302	0.133590
H209	H	-1.124164	0.208670	0.168556
H210	H	-1.094484	0.219342	0.101460
C211	C	-1.719373	0.094051	0.166573
C212	C	-1.780473	0.135578	0.164169
C213	C	-1.878957	0.108749	0.161156
H214	H	-1.747073	0.065495	0.199905
H215	H	-1.717033	0.076244	0.132819
H216	H	-1.782817	0.153375	0.197920
H217	H	-1.752805	0.164136	0.130838
H218	H	-1.876616	0.090943	0.127402
H219	H	-1.906646	0.080194	0.194489
H220	H	-1.920422	0.136922	0.159519
C221	C	-2.018856	-0.236567	0.761916
C222	C	-2.109213	-0.270966	0.755195
C223	C	-2.129655	-0.323365	0.793395
H224	H	-2.025824	-0.229015	0.800611
H225	H	-1.964463	-0.256336	0.753685
H226	H	-2.163593	-0.251202	0.763430
H227	H	-2.102268	-0.278534	0.716508
H228	H	-2.075262	-0.343133	0.785164
H229	H	-2.136619	-0.315807	0.832087
H230	H	-2.190958	-0.346713	0.788836
H231	H	-2.011017	0.021323	0.987623
C232	C	-1.671268	0.218623	0.166902
C233	C	-1.641094	0.261011	0.117350
C234	C	-1.716431	0.293859	0.114454
H235	H	-1.680927	0.236747	0.200359
H236	H	-1.733183	0.194025	0.165081
H237	H	-1.579197	0.285606	0.119175
H238	H	-1.631442	0.242903	0.083885
H239	H	-1.778346	0.269260	0.112634
H240	H	-1.726085	0.311979	0.147914
H241	H	-1.695973	0.322619	0.080831
H242	H	-1.377192	-0.078999	0.008167
H243	H	-1.472185	-0.074336	-0.159779
C244	C	-1.934321	-0.611211	0.011673
C245	C	-1.913674	-0.564887	-0.034105
C246	C	-1.906519	-0.586230	-0.086723
H247	H	-1.996744	-0.636032	0.011156
H248	H	-1.881030	-0.632284	0.007545
H249	H	-1.966961	-0.543823	-0.029979
H250	H	-1.851250	-0.540062	-0.033607
H251	H	-1.853228	-0.607304	-0.090851
H252	H	-1.968944	-0.611051	-0.087234
H253	H	-1.892500	-0.554803	-0.117790
C254	C	-1.671116	-0.068238	-0.119891
C255	C	-1.629868	-0.069062	-0.177991
C256	C	-1.705127	-0.066341	-0.210917
H257	H	-1.695703	-0.033495	-0.116744
H258	H	-1.725558	-0.100587	-0.105966
H259	H	-1.575445	-0.036716	-0.191912
H260	H	-1.605288	-0.103802	-0.181156
H261	H	-1.759569	-0.098690	-0.196992
H262	H	-1.729710	-0.031598	-0.207766
H263	H	-1.677154	-0.066905	-0.250341
H264	H	-1.377212	0.090668	0.177824
H265	H	-1.577887	-0.080889	0.458347
C266	C	-1.943989	-0.185087	0.478594
C267	C	-1.947281	-0.231133	0.446982
C268	C	-1.967504	-0.283540	0.485151
H269	H	-2.007595	-0.189106	0.504146
H270	H	-1.891851	-0.185387	0.500373
H271	H	-1.999416	-0.230835	0.425213
H272	H	-1.883684	-0.227134	0.421432
H273	H	-1.915366	-0.283840	0.506930
H274	H	-2.031109	-0.287553	0.510701
H275	H	-1.969732	-0.314789	0.463708
H276	H	-1.936299	0.072818	0.704329
H277	H	-1.986946	-0.780383	0.077856
H278	H	-2.011021	-0.888807	0.077490
H279	H	-1.425805	-0.408463	0.174364
H280	H	-2.060599	-0.919268	0.267752
H281	H	-2.036555	-0.810864	0.268126
H282	H	-1.864932	0.019073	0.329414
H283	H	-1.938531	-0.369483	0.269639
C284	C	-1.916563	-0.255313	0.284316
C285	C	-2.013391	-0.277680	0.318609
C286	C	-2.020637	-0.256284	0.371201
H287	H	-1.905824	-0.214246	0.277021
H288	H	-1.866540	-0.266705	0.304031
H289	H	-2.063400	-0.266285	0.298899
H290	H	-2.024151	-0.318745	0.325921
H291	H	-1.970614	-0.267675	0.390915
H292	H	-2.009895	-0.215217	0.363900
H293	H	-2.086331	-0.271461	0.394477
C294	C	-1.227034	-0.356379	0.168498
C295	C	-1.259446	-0.415733	0.168906
C296	C	-1.175769	-0.442817	0.165901
H297	H	-1.196367	-0.350822	0.200880
H298	H	-1.178956	-0.340051	0.133792
H299	H	-1.307507	-0.432056	0.203608
H300	H	-1.290103	-0.421307	0.136526
H301	H	-1.127691	-0.426490	0.131195
H302	H	-1.145108	-0.437256	0.198283
H303	H	-1.197748	-0.483091	0.166172
H304	H	-1.888974	0.019446	0.437818
H305	H	-2.060582	-0.168936	1.018090
H306	H	-2.036499	-0.169312	0.909684
H307	H	-1.912239	0.072451	0.595924
H308	H	-1.553762	-0.251125	0.180083
