data_functionalizedCrystal
_audit_creation_method	'MofGen! by Chris Wilmer'
_symmetry_space_group_name_H-M	'P1'
_symmetry_Int_Tables_number	1
_symmetry_cell_setting	triclinic
loop_
_symmetry_equiv_pos_as_xyz
  x,y,z
_cell_length_a	10.654562
_cell_length_b	8.597304
_cell_length_c	9.730223
_cell_angle_alpha	82.298743
_cell_angle_beta	89.996961
_cell_angle_gamma	84.911941
loop_
_atom_site_label
_atom_site_type_symbol
_atom_site_fract_x
_atom_site_fract_y
_atom_site_fract_z
O1	O	1.668995	0.220551	-0.140490
O2	O	1.303630	0.241535	-0.142957
O3	O	1.493504	0.002656	-0.114678
O4	O	1.479121	0.459430	-0.168770
O5	O	1.493501	0.002662	0.113902
O6	O	1.303628	0.241541	0.085622
O7	O	1.668993	0.220557	0.088089
Zn8	Zn	1.486310	0.231050	0.123147
Zn9	Zn	1.486313	0.231042	-0.178016
O10	O	1.479119	0.459436	0.059809
C11	C	1.256823	0.239993	-0.028483
C12	C	1.117356	0.235371	-0.027929
C13	C	1.051812	0.233218	0.096914
C14	C	0.920767	0.228888	0.097404
C15	C	0.920820	0.228869	-0.151804
C16	C	1.051863	0.233189	-0.152291
C17	C	1.051780	0.233236	0.240792
C18	C	0.920735	0.228905	0.241282
C19	C	1.491958	-0.055829	0.006536
C20	C	1.487342	-0.230106	0.027166
C21	C	1.715800	0.222099	-0.026389
C22	C	1.855267	0.226721	-0.026952
C23	C	1.480664	0.517921	-0.061407
C24	C	1.485281	0.692198	-0.082046
N25	N	1.486317	0.231055	0.328683
N26	N	1.486315	0.231025	-0.383550
C27	C	1.570415	0.125315	0.413127
C28	C	1.570412	0.125296	0.557012
C29	C	1.402208	0.336770	0.531995
C30	C	1.402206	0.336780	0.388114
C31	C	1.667530	0.003227	0.427571
C32	C	1.667527	0.003208	0.571456
H33	H	0.867480	0.227093	-0.253055
H34	H	1.487045	-0.240995	-0.191338
N35	N	1.795549	0.038838	0.618967
H36	H	1.815171	0.145724	0.571756
H37	H	1.795512	0.038748	0.722774
N38	N	1.788579	0.053852	0.362438
H39	H	1.769456	0.151033	0.292500
H40	H	1.847012	0.078223	0.436880
N41	N	1.484999	-0.318600	0.171946
H42	H	1.563407	-0.302052	0.224483
H43	H	1.408051	-0.278258	0.221572
N44	N	1.311494	0.450791	0.596105
H45	H	1.360330	0.520850	0.647511
H46	H	1.258236	0.517672	0.520701
N47	N	1.626344	-0.147827	0.648448
H48	H	1.538007	-0.162621	0.618177
H49	H	1.685672	-0.239617	0.627247
N50	N	1.122563	0.235469	-0.286937
H51	H	1.061187	0.233428	-0.365641
H52	H	1.167966	0.334387	-0.304091
N53	N	0.880718	0.077290	0.318384
H54	H	0.832507	0.021493	0.253306
H55	H	0.957825	0.007334	0.355272
N56	N	1.112297	0.089557	0.330997
H57	H	1.089808	-0.008681	0.293743
H58	H	1.206825	0.092761	0.330659
H59	H	1.645447	-0.117421	0.402806
N60	N	1.091775	0.384869	0.281961
H61	H	1.014715	0.454955	0.302215
H62	H	1.147417	0.360472	0.367539
N63	N	1.311479	0.450798	0.297035
H64	H	1.258197	0.517767	0.356521
H65	H	1.360390	0.520771	0.229047
N66	N	0.860179	0.372597	0.297421
H67	H	0.882683	0.470827	0.236900
H68	H	0.765652	0.369384	0.297807
