data_functionalizedCrystal
_audit_creation_method	'MofGen! by Chris Wilmer'
_symmetry_space_group_name_H-M	'P1'
_symmetry_Int_Tables_number	1
_symmetry_cell_setting	triclinic
loop_
_symmetry_equiv_pos_as_xyz
  x,y,z
_cell_length_a	18.215407
_cell_length_b	18.215404
_cell_length_c	18.215399
_cell_angle_alpha	89.972485
_cell_angle_beta	90.019833
_cell_angle_gamma	89.975729
loop_
_atom_site_label
_atom_site_type_symbol
_atom_site_fract_x
_atom_site_fract_y
_atom_site_fract_z
Zn1	Zn	1.125077	0.292983	0.416118
Zn2	Zn	1.124988	0.416054	0.293053
Zn3	Zn	1.002010	0.293007	0.293065
Zn4	Zn	1.001978	0.416013	0.416078
O5	O	1.063513	0.354514	0.354578
O6	O	1.228050	0.309316	0.399805
O7	O	1.108651	0.399759	0.190070
O8	O	1.018386	0.190020	0.309411
O9	O	1.227984	0.399736	0.309389
O10	O	1.108803	0.190002	0.399817
O11	O	1.018299	0.309357	0.190079
O12	O	0.899021	0.309317	0.309372
O13	O	1.018332	0.399666	0.519067
O14	O	0.898998	0.399689	0.399748
O15	O	1.108772	0.309276	0.519097
O16	O	1.108620	0.519033	0.309350
O17	O	1.018245	0.519003	0.399736
C18	C	0.872307	0.354502	0.354557
C19	C	0.790508	0.354514	0.354566
C20	C	0.602321	0.401645	0.401566
C21	C	0.525463	0.401647	0.401575
C22	C	0.525457	0.307397	0.307607
C23	C	0.602315	0.307392	0.307602
C24	C	0.640745	0.354520	0.354581
C25	C	0.487029	0.354528	0.354595
C26	C	0.403695	0.354530	0.354604
C27	C	0.724084	0.354517	0.354572
C28	C	1.063439	0.545721	0.354553
C29	C	1.063475	0.627520	0.354567
C30	C	1.110647	0.815705	0.307600
C31	C	1.110681	0.892563	0.307622
C32	C	1.016492	0.892572	0.401663
C33	C	1.016462	0.815715	0.401644
C34	C	1.063539	0.777283	0.354609
C35	C	1.063603	0.930999	0.354649
C36	C	1.063640	1.014333	0.354673
C37	C	1.063503	0.693944	0.354585
C38	C	1.255466	0.354528	0.354600
C39	C	1.337265	0.354533	0.354609
C40	C	1.063613	1.162561	0.354633
C41	C	1.063667	1.080763	0.354691
C42	C	1.063558	0.354464	0.546531
C43	C	1.063577	0.354442	0.628330
C44	C	1.063511	0.354512	0.163372
C45	C	1.063635	0.354326	0.081574
C46	C	1.110687	0.307332	0.816541
C47	C	1.110695	0.307311	0.893400
C48	C	1.016520	0.401438	0.893358
C49	C	1.016508	0.401455	0.816500
C50	C	1.063596	0.354403	0.778094
C51	C	1.063616	0.354365	0.931810
C52	C	1.063625	0.354342	1.015144
C53	C	1.063586	0.354425	0.694755
H54	H	0.494158	0.269028	0.269358
H55	H	1.148980	0.784415	0.269301
C56	C	1.162499	0.255533	0.935691
C57	C	1.220268	0.287411	0.988535
C58	C	1.272074	0.235630	1.030825
C59	C	1.266110	0.151971	1.020271
C60	C	1.208339	0.120089	0.967425
C61	C	1.156533	0.171870	0.925135
H62	H	1.224685	0.349345	0.996349
H63	H	1.314840	0.259232	1.069945
H64	H	1.304460	0.113640	1.051577
H65	H	1.203922	0.058155	0.959611
H66	H	1.113767	0.148268	0.886015
C67	C	0.964704	0.934847	0.453396
C68	C	0.970654	0.924215	0.537061
C69	C	0.918862	0.966487	0.588794
C70	C	0.861121	1.019391	0.556861
C71	C	0.855169	1.030025	0.473192
C72	C	0.906961	0.987753	0.421459
H73	H	1.013399	0.885051	0.560703
H74	H	0.923268	0.958615	0.650731
H75	H	0.822782	1.050683	0.595157
H76	H	0.812424	1.069190	0.449549
H77	H	0.902555	0.995625	0.359521
H78	H	0.978185	0.439748	0.924637
C79	C	0.964705	0.453238	0.774202
C80	C	0.912917	0.505000	0.816444
C81	C	0.861115	0.556778	0.774146
C82	C	0.861100	0.556793	0.689606
C83	C	0.912890	0.505029	0.647359
C84	C	0.964692	0.453252	0.689658
H85	H	0.912926	0.504991	0.879030
H86	H	0.822776	0.595097	0.805420
H87	H	0.822753	0.595122	0.658294
H88	H	0.912881	0.505039	0.584773
H89	H	1.003031	0.414933	0.658383
H90	H	1.149026	0.269017	0.785273
H91	H	0.633609	0.440018	0.439820
H92	H	0.978101	0.784430	0.439928
H93	H	0.494182	0.440020	0.439836
C94	C	0.644586	0.255554	0.255911
C95	C	0.602319	0.203724	0.204228
C96	C	0.644591	0.151889	0.152540
C97	C	0.729131	0.151884	0.152536
C98	C	0.771403	0.203716	0.204221
C99	C	0.729131	0.255551	0.255909
H100	H	0.539733	0.203726	0.204229
H101	H	0.613297	0.113519	0.114280
H102	H	0.760423	0.113512	0.114274
H103	H	0.833989	0.203714	0.204220
H104	H	0.760425	0.293921	0.294170
C105	C	1.162501	0.934827	0.255910
C106	C	1.214283	0.892551	0.204177
C107	C	1.266106	0.934814	0.152465
C108	C	1.266149	1.019354	0.152487
C109	C	1.214366	1.061636	0.204222
C110	C	1.162542	1.019372	0.255934
H111	H	1.214253	0.829965	0.204160
H112	H	1.304440	0.903515	0.114168
H113	H	1.304512	1.050641	0.114207
H114	H	1.214396	1.124222	0.204239
H115	H	1.124208	1.050672	0.294231
