data_functionalizedCrystal
_audit_creation_method	'MofGen! by Chris Wilmer'
_symmetry_space_group_name_H-M	'P1'
_symmetry_Int_Tables_number	1
_symmetry_cell_setting	triclinic
loop_
_symmetry_equiv_pos_as_xyz
  x,y,z
_cell_length_a	21.295417
_cell_length_b	21.295418
_cell_length_c	21.295411
_cell_angle_alpha	90.047857
_cell_angle_beta	89.979403
_cell_angle_gamma	89.952090
loop_
_atom_site_label
_atom_site_type_symbol
_atom_site_fract_x
_atom_site_fract_y
_atom_site_fract_z
Zn1	Zn	-0.250375	-0.962359	-0.356307
Zn2	Zn	0.249625	-0.462359	0.143693
Zn3	Zn	-0.355627	-0.962263	-0.251035
Zn4	Zn	0.144373	-0.462263	0.248965
Zn5	Zn	-0.250409	-0.857083	-0.251010
Zn6	Zn	0.249591	-0.357083	0.248990
Zn7	Zn	-0.355644	-0.857053	-0.356224
Zn8	Zn	0.144356	-0.357053	0.143776
O9	O	-0.303014	-0.909690	-0.303644
O10	O	0.196986	-0.409690	0.196356
O11	O	-0.264316	-1.050436	-0.342388
O12	O	0.235684	-0.550436	0.157612
O13	O	-0.341677	-0.948283	-0.162942
O14	O	0.158323	-0.448283	0.337058
O15	O	-0.162315	-0.871100	-0.265002
O16	O	0.337685	-0.371100	0.234998
O17	O	-0.341644	-1.050365	-0.265045
O18	O	0.158356	-0.550365	0.234955
O19	O	-0.162290	-0.948447	-0.342364
O20	O	0.337710	-0.448447	0.157636
O21	O	-0.264373	-0.871007	-0.162924
O22	O	0.235627	-0.371007	0.337076
O23	O	-0.264390	-0.768989	-0.264921
O24	O	0.235610	-0.268989	0.235079
O25	O	-0.341672	-0.871051	-0.444324
O26	O	0.158328	-0.371051	0.055676
O27	O	-0.341705	-0.768968	-0.342221
O28	O	0.158295	-0.268968	0.157779
O29	O	-0.264332	-0.948418	-0.444386
O30	O	0.235668	-0.448418	0.055614
O31	O	-0.443718	-0.948255	-0.264964
O32	O	0.056282	-0.448255	0.235036
O33	O	-0.443731	-0.870957	-0.342245
O34	O	0.056269	-0.370957	0.157755
C35	C	-0.303054	-0.746138	-0.303560
C36	C	0.196946	-0.246138	0.196440
C37	C	-0.303086	-0.676170	-0.303538
C38	C	0.196914	-0.176170	0.196462
C39	C	-0.343399	-0.643309	-0.343726
C40	C	0.156601	-0.143309	0.156274
C41	C	-0.343386	-0.577566	-0.343750
C42	C	0.156614	-0.077566	0.156250
C43	C	-0.303067	-0.544687	-0.303574
C44	C	0.196933	-0.044687	0.196426
C45	C	-0.262746	-0.577557	-0.263384
C46	C	0.237254	-0.077557	0.236616
C47	C	-0.262756	-0.643298	-0.263366
C48	C	0.237244	-0.143298	0.236634
N49	N	-0.298144	-0.441411	-0.248509
N50	N	0.201856	0.058589	0.251491
N51	N	-0.298139	-0.378960	-0.248528
N52	N	0.201861	0.121040	0.251472
C53	C	-0.303035	-0.346613	-0.303627
C54	C	0.196965	0.153387	0.196373
N55	N	-0.307949	-0.379076	-0.358707
N56	N	0.192051	0.120924	0.141293
N57	N	-0.307958	-0.441533	-0.358688
N58	N	0.192042	0.058467	0.141312
C59	C	-0.303052	-0.473402	-0.303590
C60	C	0.196948	0.026598	0.196410
C61	C	-0.343336	-0.242466	-0.343843
C62	C	0.156664	0.257534	0.156157
C63	C	-0.343319	-0.176722	-0.343868
C64	C	0.156681	0.323278	0.156132
C65	C	-0.262683	-0.176714	-0.263497
C66	C	0.237317	0.323286	0.236503
C67	C	-0.262696	-0.242456	-0.263478
C68	C	0.237304	0.257544	0.236522
C69	C	-0.303027	-0.275328	-0.303650
C70	C	0.196973	0.224672	0.196350
C71	C	-0.466565	-0.909609	-0.303612
C72	C	0.033435	-0.409609	0.196388
C73	C	-0.536533	-0.909633	-0.303619
C74	C	-0.036533	-0.409633	0.196381
C75	C	-0.569330	-0.949884	-0.343930
C76	C	-0.069330	-0.449884	0.156070
C77	C	-0.635072	-0.949906	-0.343946
C78	C	-0.135072	-0.449906	0.156054
C79	C	-0.668016	-0.909684	-0.303639
C80	C	-0.168016	-0.409684	0.196361
C81	C	-0.635211	-0.869425	-0.263325
C82	C	-0.135211	-0.369425	0.236675
C83	C	-0.569470	-0.869399	-0.263315
C84	C	-0.069470	-0.369399	0.236685
N85	N	-0.771270	-0.904924	-0.248546
N86	N	-0.271270	-0.404924	0.251454
N87	N	-0.833721	-0.904952	-0.248557
N88	N	-0.333721	-0.404952	0.251443
C89	C	-0.866090	-0.909757	-0.303668
C90	C	-0.366090	-0.409757	0.196332
N91	N	-0.833649	-0.914546	-0.358767
N92	N	-0.333649	-0.414546	0.141233
N93	N	-0.771192	-0.914521	-0.358755
N94	N	-0.271192	-0.414521	0.141245
C95	C	-0.739301	-0.909707	-0.303646
C96	C	-0.239301	-0.409707	0.196354
C97	C	-0.970173	-0.950035	-0.343999
C98	C	-0.470173	-0.450035	0.156001
C99	C	-1.035916	-0.950053	-0.344016
C100	C	-0.535916	-0.450053	0.155984
C101	C	-1.036054	-0.869574	-0.263389
C102	C	-0.536054	-0.369574	0.236611
C103	C	-0.970312	-0.869553	-0.263378
C104	C	-0.470312	-0.369553	0.236622
C105	C	-0.937375	-0.909787	-0.303682
C106	C	-0.437375	-0.409787	0.196318
C107	C	-0.138823	-0.909787	-0.303690
C108	C	0.361177	-0.409787	0.196310
C109	C	-0.068855	-0.909829	-0.303709
C110	C	0.431145	-0.409829	0.196291
C111	C	-0.303000	-0.909742	-0.467834
C112	C	0.197000	-0.409742	0.032166
C113	C	-0.302995	-0.909764	-0.537802
C114	C	0.197005	-0.409764	-0.037802
C115	C	-0.302984	-0.073880	-0.303711
C116	C	0.197016	0.426120	0.196289
C117	C	-0.302999	-0.143848	-0.303693
C118	C	0.197001	0.356152	0.196307
C119	C	-0.262722	-0.950048	-0.570702
C120	C	0.237278	-0.450048	-0.070702
C121	C	-0.262694	-0.950047	-0.636445
C122	C	0.237306	-0.450047	-0.136445
C123	C	-0.302951	-0.909769	-0.669285
C124	C	0.197049	-0.409769	-0.169285
C125	C	-0.343227	-0.869478	-0.636377
C126	C	0.156773	-0.369478	-0.136377
C127	C	-0.343249	-0.869475	-0.570636
C128	C	0.156751	-0.369475	-0.070636
N129	N	-0.358021	-0.904913	-0.772499
N130	N	0.141979	-0.404913	-0.272499
N131	N	-0.357998	-0.904919	-0.834951
N132	N	0.142002	-0.404919	-0.334951
C133	C	-0.302887	-0.909773	-0.867360
C134	C	0.197113	-0.409773	-0.367360
N135	N	-0.247799	-0.914633	-0.834958
N136	N	0.252201	-0.414633	-0.334958
N137	N	-0.247822	-0.914630	-0.772501
N138	N	0.252178	-0.414630	-0.272501
C139	C	-0.302932	-0.909767	-0.740570
C140	C	0.197068	-0.409767	-0.240570
C141	C	-0.262581	-0.950058	-0.971545
C142	C	0.237419	-0.450058	-0.471545
C143	C	-0.262553	-0.950053	-1.037289
C144	C	0.237447	-0.450053	-0.537289
C145	C	-0.343092	-0.869487	-1.037220
C146	C	0.156908	-0.369487	-0.537220
C147	C	-0.343114	-0.869488	-0.971478
C148	C	0.156886	-0.369488	-0.471478
C149	C	-0.302860	-0.909778	-0.938644
C150	C	0.197140	-0.409778	-0.438644
C151	C	-0.302981	-0.909674	-0.140092
C152	C	0.197019	-0.409674	0.359908
C153	C	-0.302810	-0.909774	-0.070125
C154	C	0.197190	-0.409774	0.429875
H155	H	-0.376145	-0.149968	-0.376598
H156	H	0.123855	0.350032	0.123402
C157	C	-0.387194	-0.278192	-0.387359
C158	C	0.112806	0.221808	0.112641
C159	C	-0.427508	-0.315840	-0.351632
C160	C	0.072492	0.184160	0.148368
C161	C	-0.467923	-0.348751	-0.391696
C162	C	0.032077	0.151249	0.108304
H163	H	-0.363232	-0.303946	-0.414834
H164	H	0.136768	0.196054	0.085166
H165	H	-0.411234	-0.249222	-0.411289
H166	H	0.088766	0.250778	0.088711
H167	H	-0.403470	-0.344807	-0.327712
H168	H	0.096530	0.155193	0.172288
H169	H	-0.451484	-0.290102	-0.324158
H170	H	0.048516	0.209898	0.175842
H171	H	-0.491964	-0.319780	-0.415627
H172	H	0.008036	0.180220	0.084373
H173	H	-0.443956	-0.374500	-0.419170
H174	H	0.056044	0.125500	0.080830
H175	H	-0.495286	-0.374294	-0.367462
H176	H	0.004714	0.125706	0.132538
C177	C	-0.218804	-0.993816	-0.936005
C178	C	0.281196	-0.493816	-0.436005
C179	C	-0.183511	-1.029080	-0.978893
C180	C	0.316489	-0.529080	-0.478893
C181	C	-0.143170	-1.069389	-0.946179
C182	C	0.356830	-0.569389	-0.446179
H183	H	-0.242815	-1.021286	-0.910380
H184	H	0.257185	-0.521286	-0.410380
H185	H	-0.191359	-0.969764	-0.910353
H186	H	0.308641	-0.469764	-0.410353
H187	H	-0.210953	-1.053129	-1.004534
H188	H	0.289047	-0.553129	-0.504534
H189	H	-0.159487	-1.001626	-1.004519
H190	H	0.340513	-0.501626	-0.504519
H191	H	-0.115725	-1.045338	-0.920527
H192	H	0.384275	-0.545338	-0.420527
H193	H	-0.167187	-1.096855	-0.920555
H194	H	0.332813	-0.596855	-0.420555
H195	H	-0.119215	-1.093316	-0.975273
H196	H	0.380785	-0.593316	-0.475273
C197	C	-0.218869	-0.993753	-0.672095
C198	C	0.281131	-0.493753	-0.172095
C199	C	-0.156592	-0.980102	-0.656088
C200	C	0.343408	-0.480102	-0.156088
C201	C	-0.116204	-1.020356	-0.688909
C202	C	0.383796	-0.520356	-0.188909
H203	H	-0.224538	-0.988023	-0.715960
H204	H	0.275462	-0.488023	-0.215960
H205	H	-0.228042	-1.036051	-0.661341
H206	H	0.271958	-0.536051	-0.161341
H207	H	-0.147421	-0.937814	-0.666846
H208	H	0.352579	-0.437814	-0.166846
H209	H	-0.150902	-0.985835	-0.612229
H210	H	0.349098	-0.485835	-0.112229
H211	H	-0.125378	-1.062655	-0.678155
H212	H	0.374622	-0.562655	-0.178155
H213	H	-0.121879	-1.014624	-0.732772
H214	H	0.378121	-0.514624	-0.232772
H215	H	-0.073945	-1.011104	-0.678049
H216	H	0.426055	-0.511104	-0.178049
C217	C	-0.934813	-0.825834	-0.219535
C218	C	-0.434813	-0.325834	0.280465
C219	C	-0.977732	-0.790624	-0.184226
C220	C	-0.477732	-0.290624	0.315774
C221	C	-0.945054	-0.750346	-0.143825
C222	C	-0.445054	-0.250346	0.356175
H223	H	-0.909185	-0.798328	-0.243503
H224	H	-0.409185	-0.298328	0.256497
H225	H	-0.909167	-0.849906	-0.192102
H226	H	-0.409167	-0.349906	0.307898
H227	H	-1.003367	-0.766554	-0.211656
H228	H	-0.503367	-0.266554	0.288344
H229	H	-1.003361	-0.818113	-0.160246
H230	H	-0.503361	-0.318113	0.339754
H231	H	-0.919408	-0.774419	-0.116392
H232	H	-0.419408	-0.274419	0.383608
H233	H	-0.919427	-0.722845	-0.167797
H234	H	-0.419427	-0.222845	0.332203
H235	H	-0.974169	-0.726456	-0.119859
H236	H	-0.474169	-0.226456	0.380141
H237	H	-0.229851	-0.149945	-0.230788
H238	H	0.270149	0.350055	0.269212
C239	C	-0.218908	-0.278025	-0.219770
C240	C	0.281092	0.221975	0.280230
C241	C	-0.183605	-0.235163	-0.184579
C242	C	0.316395	0.264837	0.315421
C243	C	-0.143263	-0.267906	-0.144303
C244	C	0.356737	0.232094	0.355697
H245	H	-0.191464	-0.303727	-0.243823
H246	H	0.308536	0.196273	0.256177
H247	H	-0.242938	-0.303603	-0.192257
H248	H	0.257062	0.196397	0.307743
H249	H	-0.159577	-0.209596	-0.212088
H250	H	0.340423	0.290404	0.287912
H251	H	-0.211033	-0.209460	-0.160513
H252	H	0.288967	0.290540	0.339487
H253	H	-0.167293	-0.293484	-0.116790
H254	H	0.332707	0.206516	0.383210
H255	H	-0.115823	-0.293607	-0.168361
H256	H	0.384177	0.206393	0.331639
H257	H	-0.119310	-0.238829	-0.120417
H258	H	0.380690	0.261171	0.379583
H259	H	-0.542515	-0.982643	-0.376750
H260	H	-0.042515	-0.482643	0.123250
H261	H	-1.062876	-0.836821	-0.230575
H262	H	-0.562876	-0.336821	0.269425
C263	C	-1.071444	-0.993723	-0.387886
C264	C	-0.571444	-0.493723	0.112114
C265	C	-1.055423	-0.979999	-0.450149
C266	C	-0.555423	-0.479999	0.049851
C267	C	-1.088133	-1.020223	-0.490578
C268	C	-0.588133	-0.520223	0.009422
H269	H	-1.115325	-0.988017	-0.382209
H270	H	-0.615325	-0.488017	0.117791
H271	H	-1.060610	-1.036028	-0.378758
H272	H	-0.560610	-0.536028	0.121242
H273	H	-1.066262	-0.937705	-0.459273
H274	H	-0.566262	-0.437705	0.040727
H275	H	-1.011548	-0.985709	-0.455845
H276	H	-0.511548	-0.485709	0.044155
H277	H	-1.077298	-1.062528	-0.481450
H278	H	-0.577298	-0.562528	0.018550
H279	H	-1.132012	-1.014514	-0.484896
H280	H	-0.632012	-0.514514	0.015104
H281	H	-1.077262	-1.010921	-0.532828
H282	H	-0.577262	-0.510921	-0.032828
C283	C	-0.218741	-0.993684	-1.073041
C284	C	0.281259	-0.493684	-0.573041
C285	C	-0.178374	-0.958065	-1.110737
C286	C	0.321626	-0.458065	-0.610737
C287	C	-0.137998	-0.998235	-1.143674
C288	C	0.362002	-0.498235	-0.643674
H289	H	-0.242729	-1.021110	-1.098764
H290	H	0.257271	-0.521110	-0.598764
H291	H	-0.194736	-1.017663	-1.044086
H292	H	0.305264	-0.517663	-0.544086
H293	H	-0.202376	-0.934096	-1.139689
H294	H	0.297624	-0.434096	-0.639689
H295	H	-0.154372	-0.930640	-1.085030
H296	H	0.345628	-0.430640	-0.585030
H297	H	-0.113993	-1.022215	-1.114718
H298	H	0.386007	-0.522215	-0.614718
H299	H	-0.161991	-1.025660	-1.169393
H300	H	0.338009	-0.525660	-0.669393
H301	H	-0.110600	-0.974073	-1.169250
H302	H	0.389400	-0.474073	-0.669250
H303	H	-0.661780	-0.982678	-0.376779
H304	H	-0.161780	-0.482678	0.123221
H305	H	-0.376043	-0.836668	-0.543849
H306	H	0.123957	-0.336668	-0.043849
H307	H	-0.662038	-0.836674	-0.230509
H308	H	-0.162038	-0.336674	0.269491
C309	C	-0.533972	-0.825674	-0.219475
C310	C	-0.033972	-0.325674	0.280525
C311	C	-0.576890	-0.790461	-0.184169
C312	C	-0.076890	-0.290461	0.315831
C313	C	-0.544211	-0.750181	-0.143770
C314	C	-0.044211	-0.250181	0.356230
H315	H	-0.508343	-0.798171	-0.243444
H316	H	-0.008343	-0.298171	0.256556
H317	H	-0.508327	-0.849745	-0.192040
H318	H	-0.008327	-0.349745	0.307960
H319	H	-0.602524	-0.766391	-0.211600
H320	H	-0.102524	-0.266391	0.288400
H321	H	-0.602520	-0.817947	-0.160186
H322	H	-0.102520	-0.317947	0.339814
H323	H	-0.518565	-0.774253	-0.116335
H324	H	-0.018565	-0.274253	0.383665
H325	H	-0.518583	-0.722682	-0.167744
H326	H	-0.018583	-0.222682	0.332256
H327	H	-0.573325	-0.726289	-0.119805
H328	H	-0.073325	-0.226289	0.380195
H329	H	-0.376238	-0.670069	-0.376439
H330	H	0.123762	-0.170069	0.123561
H331	H	-0.375863	-0.836685	-1.063958
H332	H	0.124137	-0.336685	-0.563958
H333	H	-0.943354	-0.982793	-0.376819
H334	H	-0.443354	-0.482793	0.123181
C335	C	-0.219107	-0.993843	-0.535012
C336	C	0.280893	-0.493843	-0.035012
C337	C	-0.254738	-1.034179	-0.497299
C338	C	0.245262	-0.534179	0.002701
C339	C	-0.214577	-1.074528	-0.464413
C340	C	0.285423	-0.574528	0.035587
H341	H	-0.191689	-0.969834	-0.509305
H342	H	0.308311	-0.469834	-0.009305
H343	H	-0.195119	-1.017872	-0.563997
H344	H	0.304881	-0.517872	-0.063997
H345	H	-0.278715	-1.010153	-0.468317
H346	H	0.221285	-0.510153	0.031683
H347	H	-0.282154	-1.058203	-0.522990
H348	H	0.217846	-0.558203	-0.022990
H349	H	-0.190588	-1.098556	-0.493398
H350	H	0.309412	-0.598556	0.006602
H351	H	-0.187161	-1.050513	-0.438709
H352	H	0.312839	-0.550513	0.061291
H353	H	-0.238746	-1.101904	-0.438825
H354	H	0.261254	-0.601904	0.061175
H355	H	-0.376003	-0.836681	-0.663120
H356	H	0.123997	-0.336681	-0.163120
C357	C	-0.387222	-0.541991	-0.387412
C358	C	0.112778	-0.041991	0.112588
C359	C	-0.422550	-0.584850	-0.422581
C360	C	0.077450	-0.084850	0.077419
C361	C	-0.462941	-0.552104	-0.462804
C362	C	0.037059	-0.052104	0.037196
H363	H	-0.363246	-0.516399	-0.414945
H364	H	0.136754	-0.016399	0.085055
H365	H	-0.414643	-0.516304	-0.363302
H366	H	0.085357	-0.016304	0.136698
H367	H	-0.395132	-0.610527	-0.446689
H368	H	0.104868	-0.110527	0.053311
H369	H	-0.446539	-0.610444	-0.395064
H370	H	0.053461	-0.110444	0.104936
H371	H	-0.490363	-0.526417	-0.438695
H372	H	0.009637	-0.026417	0.061305
H373	H	-0.438961	-0.526513	-0.490334
H374	H	0.061039	-0.026513	0.009666
H375	H	-0.486920	-0.581179	-0.486667
H376	H	0.013080	-0.081179	0.013333
C377	C	-0.386913	-0.825730	-0.935867
C378	C	0.113087	-0.325730	-0.435867
C379	C	-0.422174	-0.790465	-0.978696
C380	C	0.077826	-0.290465	-0.478696
C381	C	-0.462533	-0.750150	-0.945915
C382	C	0.037467	-0.250150	-0.445915
H383	H	-0.362916	-0.798261	-0.910198
H384	H	0.137084	-0.298261	-0.410198
H385	H	-0.414378	-0.849778	-0.910253
H386	H	0.085622	-0.349778	-0.410253
H387	H	-0.394712	-0.766419	-1.004299
H388	H	0.105288	-0.266419	-0.504299
H389	H	-0.446183	-0.817918	-1.004366
H390	H	0.053817	-0.317918	-0.504366
H391	H	-0.489998	-0.774198	-0.920300
H392	H	0.010002	-0.274198	-0.420300
H393	H	-0.438531	-0.722685	-0.920247
H394	H	0.061469	-0.222685	-0.420247
H395	H	-0.486466	-0.726223	-0.974968
H396	H	0.013534	-0.226223	-0.474968
H397	H	-0.229917	-0.550783	-0.230674
H398	H	0.270083	-0.050783	0.269326
H399	H	-0.229926	-0.670053	-0.230640
H400	H	0.270074	-0.170053	0.269360
