data_functionalizedCrystal
_audit_creation_method	'MofGen! by Chris Wilmer'
_symmetry_space_group_name_H-M	'P1'
_symmetry_Int_Tables_number	1
_symmetry_cell_setting	triclinic
loop_
_symmetry_equiv_pos_as_xyz
  x,y,z
_cell_length_a	8.634740
_cell_length_b	8.597304
_cell_length_c	17.766277
_cell_angle_alpha	82.293845
_cell_angle_beta	89.991564
_cell_angle_gamma	92.879790
loop_
_atom_site_label
_atom_site_type_symbol
_atom_site_fract_x
_atom_site_fract_y
_atom_site_fract_z
O1	O	2.053812	0.512874	-0.095847
O2	O	1.604211	0.469868	-0.093060
O3	O	1.837856	0.264240	-0.079722
O4	O	1.820167	0.718501	-0.109185
O5	O	1.837814	0.264222	0.045468
O6	O	1.604169	0.469849	0.032130
O7	O	2.053770	0.512855	0.029343
Cu8	Cu	1.828966	0.491350	0.042167
Cu9	Cu	1.829015	0.491372	-0.105884
O10	O	1.820125	0.718483	0.016005
C11	C	1.546593	0.460116	-0.029834
C12	C	1.374971	0.431067	-0.027951
C13	C	1.835933	0.205472	-0.013318
C14	C	1.830249	0.030384	-0.001967
C15	C	2.111388	0.522607	-0.033885
C16	C	2.283010	0.551655	-0.035773
C17	C	1.822047	0.777251	-0.050401
C18	C	1.827732	0.952338	-0.061757
N19	N	1.828942	0.491336	0.146298
N20	N	1.829051	0.491377	-0.210015
C21	C	1.932435	0.400342	0.191588
C22	C	1.932444	0.400336	0.270390
C23	C	1.828975	0.491353	0.303898
C24	C	1.725462	0.582352	0.258599
C25	C	1.725446	0.582344	0.179799
C26	C	1.810886	0.631554	0.419643
C27	C	1.810913	0.631566	0.498441
C28	C	1.829016	0.491378	0.546943
C29	C	1.847125	0.351177	0.516637
C30	C	1.847108	0.351168	0.437837
C31	C	1.828980	0.491372	0.389342
C32	C	1.932524	0.400370	0.677679
C33	C	1.932523	0.400360	0.756483
C34	C	1.725549	0.582392	0.744689
C35	C	1.725543	0.582387	0.665888
C36	C	1.829039	0.491379	0.632387
H37	H	1.829921	0.019467	-0.121635
C38	C	1.611731	0.682512	0.781535
H39	H	1.550087	0.736703	0.743272
H40	H	1.668314	0.756436	0.807471
H41	H	1.546544	0.616150	0.816587
H42	H	1.828037	-0.036752	0.057915
C43	C	1.611610	0.682454	0.129978
H44	H	1.549991	0.736669	0.161217
H45	H	1.546423	0.616103	0.103548
H46	H	1.668200	0.756382	0.094438
H47	H	1.322407	0.305604	-0.019833
C48	C	2.046293	0.300248	0.320220
H49	H	2.031472	0.313284	0.371949
H50	H	2.149690	0.332998	0.305168
H51	H	2.027930	0.192703	0.314293
H52	H	2.016704	0.326233	0.164314
C53	C	2.046374	0.300265	0.806301
H54	H	2.108015	0.246079	0.775059
H55	H	1.989811	0.226337	0.841846
H56	H	2.111561	0.366641	0.832725
C57	C	1.354007	0.721161	-0.046766
H58	H	1.273301	0.792916	-0.051416
H59	H	1.416271	0.737581	-0.091485
H60	H	1.416232	0.737565	-0.004166
H61	H	1.861849	0.237011	0.413166
H62	H	1.861865	0.237022	0.556126
C63	C	2.046347	0.300249	0.640826
H64	H	2.107970	0.246034	0.679089
H65	H	2.111530	0.366596	0.605772
H66	H	1.989748	0.226321	0.614891
H67	H	1.641276	0.656490	0.629010
H68	H	1.796178	0.745728	0.523109
C69	C	1.790983	0.785773	0.366297
H70	H	1.780228	0.869273	0.395630
H71	H	1.701037	0.775303	0.336244
H72	H	1.879433	0.807894	0.334114
H73	H	1.641214	0.656457	0.285885
