data_functionalizedCrystal
_audit_creation_method	'MofGen! by Chris Wilmer'
_symmetry_space_group_name_H-M	'P1'
_symmetry_Int_Tables_number	1
_symmetry_cell_setting	triclinic
loop_
_symmetry_equiv_pos_as_xyz
  x,y,z
_cell_length_a	17.038272
_cell_length_b	14.519709
_cell_length_c	13.596369
_cell_angle_alpha	89.999709
_cell_angle_beta	89.993837
_cell_angle_gamma	92.604149
loop_
_atom_site_label
_atom_site_type_symbol
_atom_site_fract_x
_atom_site_fract_y
_atom_site_fract_z
O1	O	0.102502	-1.231711	-0.081664
O2	O	0.114573	-0.964158	-0.081694
O3	O	-0.005280	-1.096344	-0.081671
O4	O	0.222356	-1.099525	-0.081686
O5	O	-0.005286	-1.096330	0.081912
O6	O	0.114567	-0.964143	0.081889
O7	O	0.102496	-1.231696	0.081919
Zn8	Zn	0.108530	-1.097918	0.107877
Zn9	Zn	0.108539	-1.097937	-0.107651
O10	O	0.222349	-1.099510	0.081897
C11	C	0.114008	-0.929748	0.000094
C12	C	0.112322	-0.827237	0.000083
C13	C	-0.034416	-1.093444	0.000120
C14	C	-0.121223	-1.084814	0.000119
N15	N	0.108524	-1.097911	0.254968
C16	C	-0.171209	-1.164047	0.000129
C17	C	-0.252773	-1.155933	0.000118
C18	C	-0.284349	-1.068585	0.000105
C19	C	-0.234357	-0.989347	0.000092
C20	C	-0.152795	-0.997462	0.000096
C21	C	-0.530153	-1.039916	0.000089
C22	C	-0.611722	-1.031807	0.000088
C23	C	-0.630132	-1.198394	0.000112
C24	C	-0.548568	-1.206502	0.000122
C25	C	-0.498583	-1.127263	0.000104
C26	C	-0.367720	-1.060289	0.000098
C27	C	-0.415213	-1.135560	0.000104
C28	C	0.251486	-1.102410	0.000103
C29	C	0.338292	-1.111040	0.000098
C30	C	0.103062	-1.266107	0.000129
C31	C	0.104748	-1.368617	0.000134
C32	C	0.106116	-0.451867	0.000128
C33	C	0.107839	-0.556307	0.000115
C34	C	0.109219	-0.639549	0.000104
C35	C	0.110942	-0.743995	0.000093
N36	N	0.108539	-1.097950	-0.254743
C37	C	0.108540	-1.097936	0.656259
C38	C	0.108538	-1.097926	0.544608
C39	C	0.108533	-1.097924	0.455617
C40	C	0.108530	-1.097913	0.343959
H41	H	-0.145506	-1.235175	0.000145
H42	H	-0.393438	-0.989170	0.000089
N43	N	-0.645779	-0.937590	0.000064
H44	H	-0.705033	-0.944477	0.000070
H45	H	-0.627506	-0.902626	0.060699
H46	H	-0.293468	-1.220453	0.000129
N47	N	-0.098869	-0.912012	0.000089
H48	H	-0.109029	-0.874189	-0.060555
H49	H	-0.109064	-0.874250	0.060765
H50	H	-0.389500	-1.206678	0.000093
H51	H	-0.670838	-1.262906	0.000125
H52	H	-0.522865	-1.277629	0.000132
H53	H	-0.260072	-0.918226	0.000075
H54	H	-0.489465	-0.975394	0.000074
