data_functionalizedCrystal
_audit_creation_method	'MofGen! by Chris Wilmer'
_symmetry_space_group_name_H-M	'P1'
_symmetry_Int_Tables_number	1
_symmetry_cell_setting	triclinic
loop_
_symmetry_equiv_pos_as_xyz
  x,y,z
_cell_length_a	10.723024
_cell_length_b	12.837942
_cell_length_c	9.198806
_cell_angle_alpha	89.997396
_cell_angle_beta	89.996352
_cell_angle_gamma	89.648405
loop_
_atom_site_label
_atom_site_type_symbol
_atom_site_fract_x
_atom_site_fract_y
_atom_site_fract_z
O1	O	1.672992	0.145513	-0.120882
O2	O	1.311352	0.159441	-0.120887
O3	O	1.484153	0.001517	-0.120876
O4	O	1.500191	0.303437	-0.120894
O5	O	1.484138	0.001517	0.120909
O6	O	1.311337	0.159441	0.120898
O7	O	1.672977	0.145512	0.120903
Cu8	Cu	1.492155	0.152477	0.142977
Cu9	Cu	1.492173	0.152477	-0.142962
O10	O	1.500176	0.303436	0.120892
C11	C	1.264735	0.158427	0.000005
C12	C	1.125851	0.155395	0.000003
C13	C	1.060466	0.243761	-0.000003
C14	C	0.916922	0.240629	-0.000005
C15	C	1.478728	-0.037142	0.000016
C16	C	1.462569	-0.152334	0.000013
C17	C	1.656825	-0.391911	-0.000015
C18	C	1.641648	-0.500145	-0.000017
C19	C	1.417040	-0.477037	-0.000005
C20	C	1.432217	-0.368804	-0.000002
C21	C	1.552113	-0.326245	-0.000005
C22	C	1.567289	-0.218009	0.000008
C23	C	1.342681	-0.194904	0.000010
C24	C	1.327505	-0.303137	0.000007
C25	C	1.719594	0.146526	0.000008
C26	C	1.858478	0.149559	-0.000000
C27	C	1.505601	0.342096	-0.000003
C28	C	1.521760	0.457288	-0.000010
N29	N	1.492152	0.152476	0.344091
N30	N	1.492186	0.152470	-0.344076
C31	C	1.564674	0.085875	0.416293
C32	C	1.564693	0.085872	0.583705
H33	H	0.860706	0.316277	-0.000016
N34	N	1.127076	0.347046	-0.000013
H35	H	1.102840	0.387850	-0.089647
H36	H	1.102806	0.387769	0.089672
N37	N	1.646891	0.010352	0.333990
H38	H	1.737019	0.022739	0.360367
H39	H	1.623428	-0.063325	0.360434
N40	N	0.932933	0.049349	0.000014
H41	H	0.911875	0.007558	0.089648
H42	H	0.911859	0.007634	-0.089671
N43	N	1.059241	0.052110	0.000022
H44	H	1.005256	0.046776	-0.089605
H45	H	1.122669	-0.006373	0.000084
N46	N	1.754586	-0.570973	-0.000030
H47	H	1.832838	-0.527584	-0.000032
H48	H	1.753180	-0.616387	0.089602
N49	N	1.287733	-0.522950	-0.000018
H50	H	1.294014	-0.601480	-0.000027
H51	H	1.241339	-0.498998	0.089618
H52	H	1.754449	-0.357259	-0.000002
H53	H	1.664914	-0.183360	0.000011
N54	N	1.198194	-0.349043	0.000005
H55	H	1.204466	-0.427573	0.000000
H56	H	1.151810	-0.325085	0.089645
H57	H	1.257417	-0.141426	0.000029
N58	N	1.646952	0.010347	0.665939
H59	H	1.593581	-0.035791	0.729108
H60	H	1.695323	-0.034023	0.594640
H61	H	1.430098	0.209496	0.593843
N62	N	1.409915	0.227997	0.426371
H63	H	1.463303	0.274129	0.489513
H64	H	1.361526	0.272371	0.355097
