data_functionalizedCrystal
_audit_creation_method	'MofGen! by Chris Wilmer'
_symmetry_space_group_name_H-M	'P1'
_symmetry_Int_Tables_number	1
_symmetry_cell_setting	triclinic
loop_
_symmetry_equiv_pos_as_xyz
  x,y,z
_cell_length_a	17.640112
_cell_length_b	17.077402
_cell_length_c	17.077396
_cell_angle_alpha	90.030619
_cell_angle_beta	101.178573
_cell_angle_gamma	78.751909
loop_
_atom_site_label
_atom_site_type_symbol
_atom_site_fract_x
_atom_site_fract_y
_atom_site_fract_z
Zn1	Zn	1.208324	0.069651	-0.201631
Zn2	Zn	1.208235	0.200946	-0.070379
Zn3	Zn	1.076154	0.096244	-0.096872
Zn4	Zn	1.076117	0.227450	-0.228086
O5	O	1.142207	0.148573	-0.149242
O6	O	1.318917	0.064847	-0.162061
O7	O	1.190693	0.187094	0.035949
O8	O	1.093739	-0.017141	-0.110784
O9	O	1.318852	0.161308	-0.065632
O10	O	1.190844	-0.036679	-0.187750
O11	O	1.093654	0.110170	0.016485
O12	O	0.965544	0.135870	-0.136436
O13	O	1.093675	0.206481	-0.334419
O14	O	0.965516	0.232267	-0.232839
O15	O	1.190807	0.090547	-0.314983
O16	O	1.190657	0.314319	-0.091284
O17	O	1.093590	0.333792	-0.207150
C18	C	0.936851	0.189831	-0.190383
C19	C	0.848999	0.207500	-0.208002
C20	C	1.142131	0.352536	-0.149226
C21	C	1.142171	0.439778	-0.149231
C22	C	1.142247	0.148504	-0.353978
C23	C	1.142264	0.148475	-0.441225
C24	C	0.560026	0.014329	-0.015398
C25	C	0.477475	0.030948	-0.031965
C26	C	0.477501	0.131464	-0.132175
C27	C	0.560053	0.114851	-0.115620
C28	C	0.601309	0.056283	-0.057230
C29	C	0.601337	0.156805	-0.157452
C30	C	0.683882	0.140196	-0.140895
C31	C	0.725143	0.081633	-0.082506
C32	C	0.683854	0.039674	-0.040673
C33	C	0.560079	0.215376	-0.215838
C34	C	0.601362	0.257330	-0.257669
C35	C	0.683909	0.240718	-0.241117
C36	C	0.725171	0.182154	-0.182728
C37	C	0.725198	0.282676	-0.282949
C38	C	0.807743	0.266067	-0.266392
C39	C	0.807716	0.165545	-0.166170
C40	C	1.348365	0.107155	-0.107940
C41	C	1.436218	0.089505	-0.090340
C42	C	1.142305	-0.056191	-0.149271
C43	C	1.142347	-0.143449	-0.149283
C44	C	1.192765	0.470592	-0.088943
C45	C	1.192804	0.552565	-0.088955
C46	C	1.142243	0.603723	-0.149253
C47	C	1.091647	0.572903	-0.209547
C48	C	1.091613	0.490931	-0.209537
C49	C	1.091720	0.743758	-0.209562
C50	C	1.091753	0.825736	-0.209571
C51	C	1.192911	0.805392	-0.088980
C52	C	1.192877	0.723420	-0.088970
C53	C	1.142279	0.692606	-0.149263
C54	C	1.091751	0.108411	-0.492346
C55	C	1.091764	0.108391	-0.574324
C56	C	1.142294	0.148430	-0.605178
C57	C	1.192810	0.188498	-0.554051
C58	C	1.192792	0.188523	-0.472075
C59	C	1.192844	0.188442	-0.724914
C60	C	1.192863	0.188417	-0.806895
C61	C	1.091816	0.108310	-0.827163
C62	C	1.091798	0.108335	-0.745187
C63	C	1.142315	0.148402	-0.694065
C64	C	1.142213	0.148576	0.054707
C65	C	1.142350	0.148353	0.141984
H66	H	0.841309	0.117842	-0.118635
H67	H	1.050655	0.075728	-0.720068
H68	H	1.050597	0.867385	-0.258683
Cl69	Cl	1.256325	0.406288	-0.013131
H70	H	0.792357	0.068112	-0.069024
H71	H	0.492866	0.228897	-0.229316
Cl72	Cl	0.735725	-0.033961	0.032728
Cl73	Cl	1.256392	0.238746	-0.845681
Cl74	Cl	1.028311	0.057938	-0.891429
H75	H	1.050483	0.614562	-0.258645
Cl76	Cl	1.256348	0.238817	-0.660648
H77	H	0.841357	0.300230	-0.300457
Cl78	Cl	1.256293	0.238895	-0.407808
H79	H	0.593619	-0.033374	0.032137
Cl80	Cl	0.425579	-0.021796	0.020637
Cl81	Cl	1.256329	0.238839	-0.592840
H82	H	0.443899	0.179152	-0.179714
H83	H	0.567761	0.305018	-0.305208
Cl84	Cl	0.673324	0.356316	-0.356336
H85	H	1.050415	0.465844	-0.258630
Cl86	Cl	1.256414	0.591298	-0.013163
H87	H	1.234043	0.681768	-0.039868
H88	H	1.050521	0.718673	-0.258661
Cl89	Cl	1.256512	0.844130	-0.013177
Cl90	Cl	1.028227	0.058069	-0.453566
H91	H	1.050628	0.075771	-0.615945
