data_functionalizedCrystal
_audit_creation_method	'MofGen! by Chris Wilmer'
_symmetry_space_group_name_H-M	'P1'
_symmetry_Int_Tables_number	1
_symmetry_cell_setting	triclinic
loop_
_symmetry_equiv_pos_as_xyz
  x,y,z
_cell_length_a	10.489741
_cell_length_b	9.565339
_cell_length_c	14.853567
_cell_angle_alpha	90.004026
_cell_angle_beta	95.912948
_cell_angle_gamma	90.000900
loop_
_atom_site_label
_atom_site_type_symbol
_atom_site_fract_x
_atom_site_fract_y
_atom_site_fract_z
O1	O	1.692625	0.116161	-0.127189
O2	O	1.321296	0.116181	-0.139128
O3	O	1.516879	0.116175	-0.001984
O4	O	1.497042	0.116167	-0.264332
O5	O	1.516864	-0.116346	-0.001993
O6	O	1.321280	-0.116339	-0.139136
O7	O	1.692610	-0.116360	-0.127197
Zn8	Zn	1.506942	-0.153267	-0.133168
Zn9	Zn	1.506963	0.153088	-0.133157
O10	O	1.497026	-0.116353	-0.264341
C11	C	1.273766	-0.000076	-0.138230
C12	C	1.132167	-0.000068	-0.135533
C13	C	1.065006	-0.000078	-0.048272
C14	C	0.972425	0.114562	-0.089489
C15	C	0.972443	-0.114685	-0.089518
C16	C	1.041450	0.114667	-0.176785
C17	C	1.041478	-0.114682	-0.176802
C18	C	0.948923	-0.000014	-0.218083
N19	N	1.506938	-0.362346	-0.133175
C20	C	1.416460	-0.453546	-0.196578
C21	C	1.531752	-0.546732	-0.214820
C22	C	1.391696	-0.546715	-0.114941
C23	C	1.622288	-0.453481	-0.151458
C24	C	1.482156	-0.453455	-0.051543
C25	C	1.597532	-0.546599	-0.069750
C26	C	1.740139	-0.000099	-0.128095
C27	C	1.881738	-0.000098	-0.130793
C28	C	1.515973	-0.000081	0.031605
C29	C	1.513279	-0.000069	0.131704
N30	N	1.506978	0.362168	-0.133143
C31	C	1.497933	-0.000094	-0.297930
C32	C	1.500626	-0.000097	-0.398029
C33	C	1.385712	-0.000089	0.544953
C34	C	1.618070	-0.000101	0.564931
C35	C	1.620602	-0.000093	0.470883
C36	C	1.505688	-0.000085	0.413866
C37	C	1.388241	-0.000085	0.450896
C38	C	1.738047	-0.000108	0.433846
C39	C	1.740585	-0.000101	0.339793
C40	C	1.625669	-0.000083	0.282773
C41	C	1.508217	-0.000081	0.319809
C42	C	1.393303	-0.000073	0.262791
C43	C	1.275850	-0.000061	0.299825
C44	C	1.273325	-0.000067	0.393877
C45	C	1.628193	-0.000077	0.188722
C46	C	1.395832	-0.000069	0.168735
H47	H	1.115501	0.000067	0.023462
H48	H	0.898693	0.000047	-0.289892
H49	H	1.461132	-0.412452	0.017456
H50	H	0.941831	0.211486	-0.052563
H51	H	1.719785	-0.412699	-0.166950
O52	O	1.754859	-0.000095	0.148776
H53	H	1.761575	0.094676	0.106408
O54	O	1.742008	-0.000129	0.626424
H55	H	1.746428	0.094639	0.669760
O56	O	1.699012	-0.600391	0.001293
H57	H	1.653107	-0.664240	0.051369
H58	H	1.340015	-0.412689	-0.250246
H59	H	1.182287	-0.000064	0.253390
O60	O	1.262587	-0.600974	-0.094520
H61	H	1.197978	-0.511474	-0.084998
O62	O	1.081733	0.243230	-0.225617
H63	H	1.187288	0.242270	-0.227195
O64	O	1.559517	-0.601092	-0.306232
H65	H	1.484254	-0.563863	-0.358759
O66	O	1.271887	-0.000073	0.107236
H67	H	1.189798	-0.000079	0.148792
H68	H	1.177701	-0.000058	0.424039
H69	H	1.290084	-0.000074	0.575111
O70	O	1.861986	-0.000137	0.495338
H71	H	1.840493	-0.000126	0.566959
H72	H	0.941873	-0.211604	-0.052584
O73	O	1.082080	-0.243066	-0.225670
H74	H	1.054769	-0.338099	-0.189313
O75	O	1.867257	-0.000081	0.299849
H76	H	1.946737	-0.000072	0.355298
