data_functionalizedCrystal
_audit_creation_method	'MofGen! by Chris Wilmer'
_symmetry_space_group_name_H-M	'P1'
_symmetry_Int_Tables_number	1
_symmetry_cell_setting	triclinic
loop_
_symmetry_equiv_pos_as_xyz
  x,y,z
_cell_length_a	6.817900
_cell_length_b	10.943867
_cell_length_c	10.943881
_cell_angle_alpha	91.772156
_cell_angle_beta	108.843448
_cell_angle_gamma	108.843261
loop_
_atom_site_label
_atom_site_type_symbol
_atom_site_fract_x
_atom_site_fract_y
_atom_site_fract_z
V1	V	-4.115582	-0.178597	-0.402538
O2	O	-4.073255	0.008620	-0.394890
O3	O	-4.093564	-0.354163	-0.399771
O4	O	-4.093567	-0.175833	-0.578105
O5	O	-4.073252	-0.170945	-0.215321
V6	V	-4.592372	-0.156205	-0.380147
O7	O	-4.391609	-0.227714	-0.451654
O8	O	-4.766543	-0.107088	-0.331031
O9	O	-4.391183	0.019361	-0.382914
O10	O	-4.752096	-0.343422	-0.387795
O11	O	-4.752099	-0.163857	-0.567364
O12	O	-4.391180	-0.158969	-0.204580
C13	C	-3.944129	-0.396963	-0.393417
C14	C	-4.007590	-0.540491	-0.392324
C15	C	-4.237033	-0.631374	-0.398404
C16	C	-4.234149	-0.730481	-0.501329
C17	C	-4.123542	-0.697128	-0.287478
C18	C	-4.003915	-0.637721	-0.495352
C19	C	-3.893282	-0.604347	-0.281406
C20	C	-3.890254	-0.703414	-0.384353
C21	C	-3.944132	-0.169483	-0.620898
C22	C	-4.007591	-0.168385	-0.764426
C23	C	-4.237035	-0.174466	-0.855308
C24	C	-4.123559	-0.063484	-0.921054
C25	C	-4.234077	-0.277331	-0.954406
C26	C	-3.893233	-0.057330	-0.828267
C27	C	-4.003824	-0.271275	-0.861628
C28	C	-3.890178	-0.160263	-0.927326
C29	C	-4.203961	0.062155	-0.389265
C30	C	-4.119740	0.205681	-0.390366
C31	C	-4.203957	-0.165323	-0.161780
C32	C	-4.119736	-0.166414	-0.018251
H33	H	-4.383050	-0.599537	-0.404488
O34	O	-3.701717	-0.531787	-0.158240
H35	H	-3.558342	-0.561835	-0.151559
H36	H	-3.952878	-0.611360	-0.583307
H37	H	-4.174794	-0.723668	-0.199627
H38	H	-4.378854	-0.785222	-0.594300
H39	H	-4.174772	0.024380	-0.947594
O40	O	-3.696656	-0.745321	-0.376501
H41	H	-3.647982	-0.721755	-0.462848
H42	H	-3.748608	0.035728	-0.773674
O43	O	-4.430286	-0.182260	-0.813070
H44	H	-4.478881	-0.095855	-0.836442
O45	O	-3.696510	-0.152254	-0.969219
H46	H	-3.555960	-0.060888	-0.917940
H47	H	-3.952675	-0.359148	-0.835066
O48	O	-4.425767	-0.400479	-1.026909
H49	H	-4.570057	-0.406099	-0.998205
