data_functionalizedCrystal
_audit_creation_method	'MofGen! by Chris Wilmer'
_symmetry_space_group_name_H-M	'P1'
_symmetry_Int_Tables_number	1
_symmetry_cell_setting	triclinic
loop_
_symmetry_equiv_pos_as_xyz
  x,y,z
_cell_length_a	15.944545
_cell_length_b	15.944493
_cell_length_c	15.021413
_cell_angle_alpha	90.009890
_cell_angle_beta	89.995468
_cell_angle_gamma	83.485608
loop_
_atom_site_label
_atom_site_type_symbol
_atom_site_fract_x
_atom_site_fract_y
_atom_site_fract_z
O1	O	1.114510	0.108299	-0.073963
O2	O	1.447843	0.441632	0.259371
O3	O	1.781176	0.774965	0.592704
O4	O	0.869956	0.121661	-0.073976
O5	O	1.203290	0.454994	0.259358
O6	O	1.536623	0.788327	0.592691
O7	O	0.998937	-0.007299	-0.073976
O8	O	1.332270	0.326035	0.259357
O9	O	1.665603	0.659368	0.592690
O10	O	0.985529	0.237258	-0.073962
O11	O	1.318863	0.570591	0.259371
O12	O	1.652196	0.903925	0.592705
O13	O	0.998916	-0.007280	0.074088
O14	O	1.332249	0.326053	0.407421
O15	O	1.665583	0.659387	0.740755
O16	O	0.869936	0.121679	0.074089
O17	O	1.203269	0.455013	0.407422
O18	O	1.536603	0.788346	0.740755
O19	O	1.114489	0.108317	0.074102
O20	O	1.447822	0.441650	0.407435
O21	O	1.781156	0.774984	0.740768
Zn22	Zn	0.992209	0.115001	0.097603
Zn23	Zn	1.325543	0.448334	0.430937
Zn24	Zn	1.658876	0.781668	0.764270
Zn25	Zn	0.992236	0.114977	-0.097478
Zn26	Zn	1.325570	0.448310	0.235856
Zn27	Zn	1.658903	0.781643	0.569189
O28	O	0.985509	0.237276	0.074102
O29	O	1.318842	0.570610	0.407435
O30	O	1.652176	0.903943	0.740769
C31	C	0.838652	0.121116	0.000055
C32	C	1.171986	0.454450	0.333388
C33	C	1.505319	0.787783	0.666721
C34	C	0.745406	0.119456	0.000049
C35	C	1.078740	0.452789	0.333382
C36	C	1.412073	0.786123	0.666716
C37	C	0.474791	0.034560	0.000054
C38	C	0.808125	0.367893	0.333387
C39	C	1.141458	0.701227	0.666720
C40	C	0.525354	0.075499	0.073061
C41	C	0.858688	0.408832	0.406395
C42	C	1.192021	0.742166	0.739728
C43	C	0.409764	0.113535	0.000064
C44	C	0.743097	0.446869	0.333397
C45	C	1.076430	0.780202	0.666731
C46	C	0.525355	0.075502	-0.072918
C47	C	0.858688	0.408835	0.260415
C48	C	1.192022	0.742169	0.593748
C49	C	0.574677	0.116440	0.000055
C50	C	0.908010	0.449773	0.333388
C51	C	1.241343	0.783107	0.666722
C52	C	0.459098	0.154453	0.073132
C53	C	0.792432	0.487786	0.406465
C54	C	1.125765	0.821120	0.739799
C55	C	0.459096	0.154445	-0.072913
C56	C	0.792429	0.487778	0.260420
C57	C	1.125763	0.821111	0.593754
C58	C	0.509626	0.195442	0.000113
C59	C	0.842959	0.528775	0.333446
C60	C	1.176293	0.862108	0.666779
C61	C	0.314762	0.111860	0.000070
C62	C	0.648095	0.445193	0.333403
C63	C	0.981429	0.778526	0.666736
C64	C	0.669676	0.118122	0.000056
C65	C	1.003009	0.451455	0.333389
C66	C	1.336342	0.784788	0.666722
C67	C	0.998378	-0.038584	0.000052
C68	C	1.331712	0.294749	0.333385
C69	C	1.665045	0.628083	0.666719
C70	C	0.996735	-0.131833	0.000041
C71	C	1.330069	0.201501	0.333374
C72	C	1.663402	0.534834	0.666707
C73	C	1.072656	-0.367594	0.000062
C74	C	1.405990	-0.034261	0.333395
C75	C	1.739323	0.299072	0.666728
C76	C	1.031725	-0.418171	-0.072944
C77	C	1.365058	-0.084837	0.260390
C78	C	1.698392	0.248496	0.593723
C79	C	0.993691	-0.302554	0.000051
C80	C	1.327025	0.030780	0.333385
C81	C	1.660358	0.364113	0.666718
C82	C	1.031687	-0.418128	0.073036
C83	C	1.365020	-0.084795	0.406370
C84	C	1.698353	0.248538	0.739703
C85	C	0.990757	-0.467463	0.000066
C86	C	1.324090	-0.134130	0.333399
C87	C	1.657424	0.199203	0.666732
C88	C	0.952782	-0.351902	-0.073014
C89	C	1.286115	-0.018568	0.260319
C90	C	1.619448	0.314765	0.593653
C91	C	0.952755	-0.351856	0.073031
C92	C	1.286088	-0.018523	0.406365
C93	C	1.619421	0.314810	0.739698
C94	C	0.911766	-0.402400	0.000008
C95	C	1.245099	-0.069066	0.333342
C96	C	1.578432	0.264267	0.666675
C97	C	0.995384	-0.207554	0.000042
C98	C	1.328718	0.125780	0.333376
C99	C	1.662051	0.459113	0.666709
C100	C	0.989058	-0.562460	0.000068
C101	C	1.322391	-0.229127	0.333402
C102	C	1.655725	0.104206	0.666735
C103	C	1.145793	0.108862	0.000069
C104	C	1.479127	0.442195	0.333403
C105	C	1.812460	0.775528	0.666736
C106	C	1.239039	0.110522	0.000069
C107	C	1.572373	0.443855	0.333402
C108	C	1.905706	0.777189	0.666736
C109	C	0.986067	0.268562	0.000072
C110	C	1.319400	0.601895	0.333405
C111	C	1.652734	0.935229	0.666739
C112	C	0.987710	0.361811	0.000077
C113	C	1.321043	0.695144	0.333411
C114	C	1.654377	1.028477	0.666744
N115	N	0.992197	0.115017	0.230741
N116	N	1.325530	0.448350	0.564074
N117	N	1.658864	0.781684	0.897408
N118	N	0.992255	0.114954	-0.230615
N119	N	1.325589	0.448287	0.102718
N120	N	1.658922	0.781621	0.436052
C121	C	0.932547	0.174620	0.470425
C122	C	1.265881	0.507953	0.803758
C123	C	1.599214	0.841287	1.137091
C124	C	1.008445	0.190926	0.529764
C125	C	1.341778	0.524259	0.863098
C126	C	1.675111	0.857592	1.196431
C127	C	0.992218	0.114996	0.412348
C128	C	1.325552	0.448329	0.745681
C129	C	1.658885	0.781663	1.079015
C130	C	0.916342	0.098709	0.529750
C131	C	1.249675	0.432042	0.863083
C132	C	1.583008	0.765376	1.196417
C133	C	0.992232	0.114978	0.587772
C134	C	1.325566	0.448311	0.921105
C135	C	1.658899	0.781644	1.254439
C136	C	1.068154	0.131340	0.470381
C137	C	1.401487	0.464673	0.803715
C138	C	1.734821	0.798006	1.137048
C139	C	0.976001	0.039090	0.470362
C140	C	1.309335	0.372424	0.803695
C141	C	1.642668	0.705757	1.137028
C142	C	1.051953	0.055364	0.529675
C143	C	1.385287	0.388697	0.863008
C144	C	1.718620	0.722030	1.196341
C145	C	0.992209	0.115009	0.311291
C146	C	1.325542	0.448342	0.644624
C147	C	1.658876	0.781676	0.977957
C148	C	0.992250	0.114964	0.688827
C149	C	1.325584	0.448298	1.022161
C150	C	1.658917	0.781631	1.355494
H151	H	0.554283	0.042153	0.134780
H152	H	0.887617	0.375487	0.468113
H153	H	1.220950	0.708820	0.801447
Br154	Br	0.411062	0.210017	0.176118
Br155	Br	0.744395	0.543351	0.509452
Br156	Br	1.077728	0.876684	0.842785
H157	H	0.919427	-0.322887	0.134751
H158	H	1.252760	0.010446	0.468084
H159	H	1.586093	0.343780	0.801418
H160	H	0.525104	0.263508	0.000159
H161	H	0.858437	0.596842	0.333493
H162	H	1.191770	0.930175	0.666826
H163	H	0.962248	-0.025073	0.444249
H164	H	1.295581	0.308260	0.777582
H165	H	1.628915	0.641593	1.110916
Br166	Br	0.448721	-0.078799	0.000159
Br167	Br	0.782054	0.254534	0.333493
Br168	Br	1.115388	0.587868	0.666826
H169	H	0.843695	-0.417864	-0.000035
H170	H	1.177028	-0.084531	0.333298
H171	H	1.510361	0.248803	0.666631
Br172	Br	0.410849	0.209976	-0.175786
Br173	Br	0.744182	0.543310	0.157548
Br174	Br	1.077516	0.876643	0.490881
Br175	Br	1.136157	-0.028695	0.572770
Br176	Br	1.469490	0.304639	0.906104
Br177	Br	1.802823	0.637972	1.239437
H178	H	0.554288	0.042128	-0.134637
H179	H	0.887621	0.375461	0.198697
H180	H	1.220955	0.708794	0.532030
H181	H	1.065042	-0.447053	0.134752
H182	H	1.398376	-0.113719	0.468086
H183	H	1.731709	0.219614	0.801419
Br184	Br	0.848525	0.258722	0.427058
Br185	Br	1.181859	0.592056	0.760391
Br186	Br	1.515192	0.925389	1.093725
Br187	Br	1.186022	-0.341546	-0.000048
Br188	Br	1.519355	-0.008212	0.333285
Br189	Br	1.852689	0.325121	0.666618
H190	H	1.065082	-0.447125	-0.134661
H191	H	1.398415	-0.113791	0.198672
H192	H	1.731748	0.219542	0.532005
H193	H	1.022174	0.255110	0.555856
H194	H	1.355507	0.588443	0.889189
H195	H	1.688841	0.921776	1.222523
Br196	Br	1.175141	0.154410	0.427106
Br197	Br	1.508474	0.487743	0.760439
Br198	Br	1.841807	0.821077	1.093773
H199	H	0.852169	0.084942	0.555830
H200	H	1.185502	0.418275	0.889164
H201	H	1.518835	0.751609	1.222497
Br202	Br	0.897247	-0.303885	-0.175998
Br203	Br	1.230580	0.029448	0.157336
Br204	Br	1.563913	0.362781	0.490669
