data_functionalizedCrystal
_audit_creation_method	'MofGen! by Chris Wilmer'
_symmetry_space_group_name_H-M	'P1'
_symmetry_Int_Tables_number	1
_symmetry_cell_setting	triclinic
loop_
_symmetry_equiv_pos_as_xyz
  x,y,z
_cell_length_a	10.489716
_cell_length_b	15.944493
_cell_length_c	9.565339
_cell_angle_alpha	89.993895
_cell_angle_beta	90.003220
_cell_angle_gamma	84.002090
loop_
_atom_site_label
_atom_site_type_symbol
_atom_site_fract_x
_atom_site_fract_y
_atom_site_fract_z
O1	O	1.692392	0.118406	0.116229
O2	O	1.321034	0.129551	0.116232
O3	O	1.516893	0.001761	0.116242
O4	O	1.496534	0.246196	0.116219
O5	O	1.516877	0.001769	-0.116278
O6	O	1.321019	0.129559	-0.116288
O7	O	1.692377	0.118413	-0.116292
Zn8	Zn	1.506695	0.123988	-0.153207
Zn9	Zn	1.506716	0.123977	0.153148
O10	O	1.496518	0.246204	-0.116301
C11	C	1.273506	0.128718	-0.000027
C12	C	1.131911	0.126212	-0.000025
C13	C	1.516053	-0.029535	-0.000012
C14	C	1.513558	-0.122798	0.000006
C15	C	1.033126	0.204577	-0.000029
C16	C	0.956359	0.163172	-0.114676
C17	C	0.956382	0.163145	0.114570
C18	C	1.057010	0.084839	-0.114767
C19	C	1.057037	0.084824	0.114583
C20	C	0.980320	0.043361	-0.000092
C21	C	1.628845	-0.357872	-0.000022
C22	C	1.566683	-0.408814	0.114622
C23	C	1.508936	-0.293547	-0.000012
C24	C	1.566640	-0.408782	-0.114624
C25	C	1.504480	-0.458483	-0.000034
C26	C	1.446806	-0.343261	0.114727
C27	C	1.446780	-0.343226	-0.114622
C28	C	1.384530	-0.394135	0.000050
C29	C	1.511506	-0.198532	0.000003
C30	C	1.501900	-0.553496	-0.000038
C31	C	1.739905	0.119247	-0.000029
C32	C	1.881500	0.121752	-0.000022
C33	C	1.497358	0.277500	-0.000044
C34	C	1.499853	0.370763	-0.000053
N35	N	1.506691	0.123994	-0.362287
C36	C	1.416085	0.183073	-0.453494
C37	C	1.531343	0.200063	-0.546677
C38	C	1.391483	0.107011	-0.546660
C39	C	1.622006	0.141022	-0.453417
C40	C	1.482071	0.047937	-0.453393
C41	C	1.597411	0.064895	-0.546532
N42	N	1.506730	0.123964	0.362227
H43	H	1.056829	0.272743	-0.000143
H44	H	0.912401	0.196256	-0.211606
O45	O	1.109387	0.045274	0.230182
C46	C	1.081104	-0.039250	0.231171
H47	H	0.992132	-0.045313	0.165019
H48	H	1.062686	-0.059325	0.343133
H49	H	1.165622	-0.081458	0.186162
O50	O	0.952378	-0.038029	-0.000405
C51	C	1.004133	-0.079029	-0.121413
H52	H	1.018120	-0.030164	-0.205519
H53	H	0.935640	-0.124593	-0.161426
H54	H	1.100486	-0.115483	-0.095146
O55	O	1.688834	0.005284	-0.595209
C56	C	1.687185	0.005471	-0.742599
H57	H	1.589021	0.033583	-0.780997
H58	H	1.707346	-0.061941	-0.782679
H59	H	1.763851	0.044921	-0.783303
O60	O	1.109390	0.045330	-0.230376
C61	C	1.197874	-0.022928	-0.189456
H62	H	1.232792	-0.011750	-0.078817
H63	H	1.282946	-0.028557	-0.264252
H64	H	1.149437	-0.083670	-0.192211
H65	H	1.552194	0.264369	-0.587650
O66	O	1.738359	0.158107	-0.404803
C67	C	1.833822	0.096128	-0.453302
H68	H	1.788474	0.036203	-0.480028
H69	H	1.909248	0.081789	-0.368418
H70	H	1.880938	0.120271	-0.550674
H71	H	1.339533	0.233081	-0.412644
O72	O	1.456931	-0.028722	-0.404525
C73	C	1.335308	-0.046375	-0.451979
H74	H	1.274753	0.015189	-0.478199
H75	H	1.285834	-0.080982	-0.366661
H76	H	1.346986	-0.087606	-0.549446
O77	O	1.386226	-0.308971	-0.230106
C78	C	1.281160	-0.251894	-0.189010
H79	H	1.249623	-0.268482	-0.079268
H80	H	1.198398	-0.256011	-0.265103
H81	H	1.310497	-0.185035	-0.189429
O82	O	0.904104	0.202733	0.230163
C83	C	0.930439	0.287655	0.229702
H84	H	1.018613	0.294303	0.162574
H85	H	0.949236	0.308427	0.341195
H86	H	0.844764	0.328905	0.184970
O87	O	1.752064	-0.338495	0.000385
C88	C	1.814837	-0.372053	0.121489
H89	H	1.740766	-0.381837	0.205526
H90	H	1.883139	-0.326373	0.161533
H91	H	1.871364	-0.435083	0.095338
H92	H	1.617298	-0.437409	-0.211541
H93	H	1.617328	-0.437462	0.211546
H94	H	1.281163	-0.410217	0.000114
O95	O	1.386550	-0.309119	0.230454
C96	C	1.389696	-0.220935	0.229084
H97	H	1.472807	-0.204453	0.161128
H98	H	1.403092	-0.197604	0.340240
H99	H	1.295735	-0.189440	0.184780
O100	O	1.275129	0.089983	-0.595352
C101	C	1.179886	0.152457	-0.547975
H102	H	1.215083	0.183447	-0.449854
H103	H	1.088725	0.122290	-0.522859
H104	H	1.158833	0.202149	-0.632899
