data_functionalizedCrystal
_audit_creation_method	'MofGen! by Chris Wilmer'
_symmetry_space_group_name_H-M	'P1'
_symmetry_Int_Tables_number	1
_symmetry_cell_setting	triclinic
loop_
_symmetry_equiv_pos_as_xyz
  x,y,z
_cell_length_a	16.625548
_cell_length_b	16.625546
_cell_length_c	16.625539
_cell_angle_alpha	89.969603
_cell_angle_beta	89.979432
_cell_angle_gamma	90.023536
loop_
_atom_site_label
_atom_site_type_symbol
_atom_site_fract_x
_atom_site_fract_y
_atom_site_fract_z
Zn1	Zn	1.232680	-0.320977	-0.455898
Zn2	Zn	1.482680	-0.070977	-0.205898
Zn3	Zn	1.732680	0.179023	0.044102
Zn4	Zn	1.982680	0.429023	0.294102
Zn5	Zn	1.232584	-0.455820	-0.321060
Zn6	Zn	1.482584	-0.205820	-0.071060
Zn7	Zn	1.732584	0.044180	0.178940
Zn8	Zn	1.982584	0.294180	0.428940
Zn9	Zn	1.097842	-0.321008	-0.321078
Zn10	Zn	1.347842	-0.071008	-0.071078
Zn11	Zn	1.597842	0.178992	0.178922
Zn12	Zn	1.847842	0.428992	0.428922
Zn13	Zn	1.097813	-0.455774	-0.455850
Zn14	Zn	1.347813	-0.205774	-0.205850
Zn15	Zn	1.597813	0.044226	0.044150
Zn16	Zn	1.847813	0.294226	0.294150
O17	O	1.165230	-0.388395	-0.388471
O18	O	1.415230	-0.138395	-0.138471
O19	O	1.665230	0.111605	0.111529
O20	O	1.915230	0.361605	0.361529
O21	O	1.345500	-0.338871	-0.438024
O22	O	1.595500	-0.088871	-0.188024
O23	O	1.845500	0.161129	0.061976
O24	O	2.095500	0.411129	0.311976
O25	O	1.214682	-0.437969	-0.208230
O26	O	1.464682	-0.187969	0.041770
O27	O	1.714682	0.062031	0.291770
O28	O	1.964682	0.312031	0.541770
O29	O	1.115782	-0.208171	-0.338990
O30	O	1.365782	0.041829	-0.088990
O31	O	1.615782	0.291829	0.161010
O32	O	1.865782	0.541829	0.411010
O33	O	1.345429	-0.437940	-0.338959
O34	O	1.595429	-0.187940	-0.088959
O35	O	1.845429	0.062060	0.161041
O36	O	2.095429	0.312060	0.411041
O37	O	1.214847	-0.208149	-0.438041
O38	O	1.464847	0.041851	-0.188041
O39	O	1.714847	0.291851	0.061959
O40	O	1.964847	0.541851	0.311959
O41	O	1.115688	-0.338923	-0.208243
O42	O	1.365688	-0.088923	0.041757
O43	O	1.615688	0.161077	0.291757
O44	O	1.865688	0.411077	0.541757
O45	O	0.985006	-0.338878	-0.338944
O46	O	1.235006	-0.088878	-0.088944
O47	O	1.485006	0.161122	0.161056
O48	O	1.735006	0.411122	0.411056
O49	O	1.115731	-0.437861	-0.568689
O50	O	1.365731	-0.187861	-0.318689
O51	O	1.615731	0.062139	-0.068689
O52	O	1.865731	0.312139	0.181311
O53	O	0.984984	-0.437890	-0.437960
O54	O	1.234984	-0.187890	-0.187960
O55	O	1.484984	0.062110	0.062040
O56	O	1.734984	0.312110	0.312040
O57	O	1.214818	-0.338826	-0.568724
O58	O	1.464818	-0.088826	-0.318724
O59	O	1.714818	0.161174	-0.068724
O60	O	1.964818	0.411174	0.181276
O61	O	1.214653	-0.568647	-0.338912
O62	O	1.464653	-0.318647	-0.088912
O63	O	1.714653	-0.068647	0.161088
O64	O	1.964653	0.181353	0.411088
O65	O	1.115637	-0.568613	-0.437942
O66	O	1.365637	-0.318613	-0.187942
O67	O	1.615637	-0.068613	0.062058
O68	O	1.865637	0.181387	0.312058
C69	C	0.955739	-0.388383	-0.388449
C70	C	1.205739	-0.138383	-0.138449
C71	C	1.455739	0.111617	0.111551
C72	C	1.705739	0.361617	0.361551
C73	C	0.866118	-0.388398	-0.388458
C74	C	1.116118	-0.138398	-0.138458
C75	C	1.366118	0.111602	0.111542
C76	C	1.616118	0.361602	0.361542
C77	C	1.165153	-0.597886	-0.388438
C78	C	1.415153	-0.347886	-0.138438
C79	C	1.665153	-0.097886	0.111562
C80	C	1.915153	0.152114	0.361562
C81	C	1.165195	-0.687507	-0.388450
C82	C	1.415195	-0.437507	-0.138450
C83	C	1.665195	-0.187507	0.111550
C84	C	1.915195	0.062493	0.361550
C85	C	0.537942	-0.388403	-0.388493
C86	C	0.787942	-0.138403	-0.138493
C87	C	1.037942	0.111597	0.111507
C88	C	1.287942	0.361597	0.361507
C89	C	0.629251	-0.388399	-0.388481
C90	C	0.879251	-0.138399	-0.138481
C91	C	1.129251	0.111601	0.111519
C92	C	1.379251	0.361601	0.361519
C93	C	0.702027	-0.388401	-0.388475
C94	C	0.952027	-0.138401	-0.138475
C95	C	1.202027	0.111599	0.111525
C96	C	1.452027	0.361599	0.361525
C97	C	0.793341	-0.388396	-0.388464
C98	C	1.043341	-0.138396	-0.138464
C99	C	1.293341	0.111604	0.111536
C100	C	1.543341	0.361604	0.361536
C101	C	1.165335	-1.015682	-0.388534
C102	C	1.415335	-0.765682	-0.138534
C103	C	1.665335	-0.515682	0.111466
C104	C	1.915335	-0.265682	0.361466
C105	C	1.165294	-0.924374	-0.388513
C106	C	1.415294	-0.674374	-0.138513
C107	C	1.665294	-0.424374	0.111487
C108	C	1.915294	-0.174374	0.361487
C109	C	1.165264	-0.851598	-0.388492
C110	C	1.415264	-0.601598	-0.138492
C111	C	1.665264	-0.351598	0.111508
C112	C	1.915264	-0.101598	0.361508
C113	C	1.165224	-0.760283	-0.388471
C114	C	1.415224	-0.510283	-0.138471
C115	C	1.665224	-0.260283	0.111529
C116	C	1.915224	-0.010283	0.361529
C117	C	1.375539	-0.388407	-0.388494
C118	C	1.625539	-0.138407	-0.138494
C119	C	1.875539	0.111593	0.111506
C120	C	2.125539	0.361593	0.361506
C121	C	1.465160	-0.388412	-0.388504
C122	C	1.715160	-0.138412	-0.138504
C123	C	1.965160	0.111588	0.111496
C124	C	2.215160	0.361588	0.361496
C125	C	1.165282	-0.388335	-0.598780
C126	C	1.415282	-0.138335	-0.348780
C127	C	1.665282	0.111665	-0.098780
C128	C	1.915282	0.361665	0.151220
C129	C	1.165305	-0.388309	-0.688402
C130	C	1.415305	-0.138309	-0.438402
C131	C	1.665305	0.111691	-0.188402
C132	C	1.915305	0.361691	0.061598
C133	C	1.165328	-0.178086	-0.388523
C134	C	1.415328	0.071914	-0.138523
C135	C	1.665328	0.321914	0.111477
C136	C	1.915328	0.571914	0.361477
C137	C	1.165370	-0.088465	-0.388545
C138	C	1.415370	0.161535	-0.138545
C139	C	1.665370	0.411535	0.111455
C140	C	1.915370	0.661535	0.361455
C141	C	1.165342	-0.388219	-1.016577
C142	C	1.415342	-0.138219	-0.766577
C143	C	1.665342	0.111781	-0.516577
C144	C	1.915342	0.361781	-0.266577
C145	C	1.165329	-0.388247	-0.925269
C146	C	1.415329	-0.138247	-0.675269
C147	C	1.665329	0.111753	-0.425269
C148	C	1.915329	0.361753	-0.175269
C149	C	1.165324	-0.388265	-0.852492
C150	C	1.415324	-0.138265	-0.602492
C151	C	1.665324	0.111735	-0.352492
C152	C	1.915324	0.361735	-0.102492
C153	C	1.165310	-0.388291	-0.761178
C154	C	1.415310	-0.138291	-0.511178
C155	C	1.665310	0.111709	-0.261178
C156	C	1.915310	0.361709	-0.011178
C157	C	1.165224	-0.388397	-0.178981
C158	C	1.415224	-0.138397	0.071019
C159	C	1.665224	0.111603	0.321019
C160	C	1.915224	0.361603	0.571019
C161	C	1.165358	-0.388195	-0.089360
C162	C	1.415358	-0.138195	0.160640
C163	C	1.665358	0.111805	0.410640
C164	C	1.915358	0.361805	0.660640
