data_functionalizedCrystal
_audit_creation_method	'MofGen! by Chris Wilmer'
_symmetry_space_group_name_H-M	'P1'
_symmetry_Int_Tables_number	1
_symmetry_cell_setting	triclinic
loop_
_symmetry_equiv_pos_as_xyz
  x,y,z
_cell_length_a	12.645331
_cell_length_b	12.645330
_cell_length_c	12.645323
_cell_angle_alpha	90.024870
_cell_angle_beta	90.015738
_cell_angle_gamma	90.016927
loop_
_atom_site_label
_atom_site_type_symbol
_atom_site_fract_x
_atom_site_fract_y
_atom_site_fract_z
Zn1	Zn	1.620731	-0.422053	0.599250
Zn2	Zn	2.120731	0.077947	1.099250
Zn3	Zn	1.620613	-0.599341	0.421990
Zn4	Zn	2.120613	-0.099341	0.921990
Zn5	Zn	1.443446	-0.422089	0.422016
Zn6	Zn	1.943446	0.077911	0.922016
Zn7	Zn	1.443428	-0.599272	0.599227
Zn8	Zn	1.943428	-0.099272	1.099227
O9	O	1.532054	-0.510689	0.510621
O10	O	2.032054	-0.010689	1.010621
O11	O	1.769063	-0.445584	0.575735
O12	O	2.269063	0.054416	1.075735
O13	O	1.597069	-0.575872	0.273646
O14	O	2.097069	-0.075872	0.773646
O15	O	1.467020	-0.273737	0.445547
O16	O	1.967020	0.226263	0.945547
O17	O	1.768976	-0.575836	0.445503
O18	O	2.268976	-0.075836	0.945503
O19	O	1.597271	-0.273710	0.575760
O20	O	2.097271	0.226290	1.075760
O21	O	1.466905	-0.445646	0.273665
O22	O	1.966905	0.054354	0.773665
O23	O	1.295096	-0.445580	0.445524
O24	O	1.795096	0.054420	0.945524
O25	O	1.466989	-0.575720	0.747577
O26	O	1.966989	-0.075720	1.247577
O27	O	1.295083	-0.575755	0.575721
O28	O	1.795083	-0.075755	1.075721
O29	O	1.597253	-0.445517	0.747594
O30	O	2.097253	0.054483	1.247594
O31	O	1.597052	-0.747679	0.445481
O32	O	2.097052	-0.247679	0.945481
O33	O	1.466874	-0.747629	0.575696
O34	O	1.966874	-0.247629	1.075696
C35	C	1.256625	-0.510665	0.510623
C36	C	1.756625	-0.010665	1.010623
C37	C	1.138795	-0.510680	0.510650
C38	C	1.638795	-0.010680	1.010650
C39	C	0.971258	-0.593022	0.592129
C40	C	1.471258	-0.093022	1.092129
C41	C	1.093818	-0.592757	0.592470
C42	C	1.593818	-0.092757	1.092470
C43	C	1.094316	-0.399025	0.541171
C44	C	1.594316	0.100975	1.041171
C45	C	0.971718	-0.399528	0.541745
C46	C	1.471718	0.100472	1.041745
C47	C	0.971549	-0.539093	0.398390
C48	C	1.471549	-0.039093	0.898390
C49	C	1.094155	-0.541535	0.398996
C50	C	1.594155	-0.041535	0.898996
C51	C	1.531977	-0.786118	0.510606
C52	C	2.031977	-0.286118	1.010606
C53	C	1.532041	-0.903948	0.510635
C54	C	2.032041	-0.403948	1.010635
C55	C	1.450484	-1.071525	0.592806
C56	C	1.950484	-0.571525	1.092806
C57	C	1.450067	-0.948966	0.592542
C58	C	1.950067	-0.448966	1.092542
C59	C	1.501796	-0.948542	0.398917
C60	C	2.001796	-0.448542	0.898917
C61	C	1.501298	-1.071141	0.399415
C62	C	2.001298	-0.571141	0.899415
C63	C	1.644342	-1.071039	0.539276
C64	C	2.144342	-0.571039	1.039276
C65	C	1.643654	-0.948432	0.541719
C66	C	2.143654	-0.448432	1.041719
C67	C	1.808560	-0.510714	0.510619
C68	C	2.308560	-0.010714	1.010619
C69	C	1.926390	-0.510724	0.510618
C70	C	2.426390	-0.010724	1.010618
C71	C	1.532132	-0.510607	0.787126
C72	C	2.032132	-0.010607	1.287126
C73	C	1.532166	-0.510572	0.904956
C74	C	2.032166	-0.010572	1.404956
C75	C	1.532161	-0.234183	0.510659
C76	C	2.032161	0.265817	1.010659
C77	C	1.532206	-0.116353	0.510675
C78	C	2.032206	0.383647	1.010675
C79	C	1.532038	-0.510694	0.235191
C80	C	2.032038	-0.010694	0.735191
C81	C	1.532210	-0.510430	0.117361
C82	C	2.032210	-0.010430	0.617361
C83	C	1.449964	-0.592096	1.072510
C84	C	1.949964	-0.092096	1.572510
C85	C	1.450179	-0.592500	0.949950
C86	C	1.950179	-0.092500	1.449950
C87	C	1.643865	-0.540892	0.949463
C88	C	2.143865	-0.040892	1.449463
C89	C	1.643414	-0.541403	1.072061
C90	C	2.143414	-0.041403	1.572061
C91	C	1.503724	-0.398272	1.072158
C92	C	2.003724	0.101728	1.572158
C93	C	1.501232	-0.398944	0.949551
C94	C	2.001232	0.101056	1.449551
H95	H	0.941766	-0.676095	0.573212
H96	H	1.441766	-0.176095	1.073212
H97	H	1.423691	-0.370634	1.103071
H98	H	1.923691	0.129366	1.603071
F99	F	1.723928	-1.108946	0.461102
F100	F	2.223928	-0.608946	0.961102
F101	F	1.474986	-1.109971	0.701440
F102	F	1.974986	-0.609971	1.201440
F103	F	0.931117	-0.643690	0.362120
F104	F	1.431117	-0.143690	0.862120
H105	H	1.706788	-0.483292	0.920320
H106	H	2.206788	0.016708	1.420320
H107	H	1.559431	-0.919385	0.336051
H108	H	2.059431	-0.419385	0.836051
F109	F	0.934366	-0.368079	0.648981
F110	F	1.434366	0.131921	1.148981
H111	H	1.706772	-0.484504	1.101732
H112	H	2.206772	0.015496	1.601732
F113	F	1.341374	-0.567531	1.111037
F114	F	1.841374	-0.067531	1.611037
H115	H	1.667559	-0.623393	1.100669
H116	H	2.167559	-0.123393	1.600669
H117	H	0.940466	-0.574491	0.674802
H118	H	1.440466	-0.074491	1.174802
F119	F	1.395767	-0.908536	0.366672
F120	F	1.895767	-0.408536	0.866672
F121	F	1.341917	-0.567695	0.910614
F122	F	1.841917	-0.067695	1.410614
H123	H	1.671932	-1.101884	0.619356
H124	H	2.171932	-0.601884	1.119356
H125	H	1.123449	-0.336041	0.483657
H126	H	1.623449	0.163959	0.983657
H127	H	1.556760	-0.334882	0.918923
H128	H	2.056760	0.165118	1.418923
H129	H	1.558238	-1.100799	0.336136
H130	H	2.058238	-0.600799	0.836136
F131	F	1.342506	-1.111931	0.568375
F132	F	1.842506	-0.611931	1.068375
H133	H	1.123166	-0.573982	0.675626
H134	H	1.623166	-0.073982	1.175626
F135	F	1.474252	-0.700086	1.112851
F136	F	1.974252	-0.200086	1.612851
H137	H	0.942038	-0.336011	0.485098
H138	H	1.442038	0.163989	0.985098
H139	H	1.563628	-0.337427	1.101164
H140	H	2.063628	0.162573	1.601164
F141	F	1.393784	-0.369060	0.911542
F142	F	1.893784	0.130940	1.411542
F143	F	1.675968	-0.646936	0.909349
F144	F	2.175968	-0.146936	1.409349
H145	H	1.123238	-0.623697	0.375976
H146	H	1.623238	-0.123697	0.875976
H147	H	1.123890	-0.675555	0.573341
H148	H	1.623890	-0.175555	1.073341
F149	F	1.134473	-0.366998	0.647246
F150	F	1.634473	0.133002	1.147246
H151	H	1.124772	-0.485941	0.335006
H152	H	1.624772	0.014059	0.835006
H153	H	1.419326	-1.099831	0.375185
H154	H	1.919326	-0.599831	0.875185
F155	F	0.933620	-0.460743	0.319006
F156	F	1.433620	0.039257	0.819006
H157	H	1.468983	-0.675648	0.920633
H158	H	1.968983	-0.175648	1.420633
F159	F	1.341406	-0.910747	0.567781
F160	F	1.841406	-0.410747	1.067781
F161	F	1.474798	-0.909549	0.700819
F162	F	1.974798	-0.409549	1.200819
H163	H	1.666463	-0.919282	0.623938
H164	H	2.166463	-0.419282	1.123938
H165	H	1.707747	-0.917783	0.486255
H166	H	2.207747	-0.417783	0.986255
