data_functionalizedCrystal
_audit_creation_method	'MofGen! by Chris Wilmer'
_symmetry_space_group_name_H-M	'P1'
_symmetry_Int_Tables_number	1
_symmetry_cell_setting	triclinic
loop_
_symmetry_equiv_pos_as_xyz
  x,y,z
_cell_length_a	12.827893
_cell_length_b	12.759394
_cell_length_c	12.827885
_cell_angle_alpha	89.968586
_cell_angle_beta	89.980728
_cell_angle_gamma	90.014808
loop_
_atom_site_label
_atom_site_type_symbol
_atom_site_fract_x
_atom_site_fract_y
_atom_site_fract_z
Zn1	Zn	1.597674	-0.418214	-0.590838
Zn2	Zn	1.597569	-0.593931	-0.416094
Zn3	Zn	1.422915	-0.418266	-0.416112
Zn4	Zn	1.422902	-0.593852	-0.590794
O5	O	1.510265	-0.506066	-0.503460
O6	O	1.743896	-0.441535	-0.567669
O7	O	1.574363	-0.570683	-0.269860
O8	O	1.446146	-0.271238	-0.439316
O9	O	1.743819	-0.570633	-0.439285
O10	O	1.574541	-0.271200	-0.567686
O11	O	1.446045	-0.441623	-0.269873
O12	O	1.276677	-0.441547	-0.439273
O13	O	1.446124	-0.570499	-0.737036
O14	O	1.276668	-0.570549	-0.567611
O15	O	1.574528	-0.441459	-0.737069
O16	O	1.574350	-0.740941	-0.439243
O17	O	1.446023	-0.740884	-0.567594
C18	C	1.238755	-0.506046	-0.503440
C19	C	1.122602	-0.506062	-0.503456
C20	C	1.510202	-0.779033	-0.503434
C21	C	1.510271	-0.895810	-0.503458
C22	C	1.070840	-0.569996	-0.566864
C23	C	0.950790	-0.570015	-0.566882
C24	C	1.643999	-0.895817	-0.369906
C25	C	1.710890	-0.950681	-0.303143
C26	C	1.710951	-1.060403	-0.303171
C27	C	1.644116	-1.115263	-0.369973
C28	C	1.577225	-1.060398	-0.436736
C29	C	1.577169	-0.950674	-0.436698
C30	C	1.443504	-1.060391	-0.570292
C31	C	1.443436	-0.950670	-0.570260
C32	C	1.376670	-1.115251	-0.637094
C33	C	1.309772	-1.060387	-0.703854
C34	C	1.309712	-0.950659	-0.703822
C35	C	1.376545	-0.895806	-0.637024
C36	C	1.782835	-0.506087	-0.503480
C37	C	1.898988	-0.506096	-0.503489
C38	C	1.510336	-0.505964	-0.776030
C39	C	1.510366	-0.505921	-0.892183
C40	C	1.510356	-0.232032	-0.503508
C41	C	1.510395	-0.115256	-0.503528
C42	C	1.446924	-0.442002	-1.064019
C43	C	1.446891	-0.442045	-0.943968
C44	C	1.510254	-0.506091	-0.231950
C45	C	1.510426	-0.505839	-0.115797
H46	H	0.906276	-0.624754	-0.621165
H47	H	0.943496	-0.451360	-0.449197
H48	H	1.078041	-0.451336	-0.449188
N49	N	1.783083	-1.119593	-0.231158
H50	H	1.831512	-1.165046	-0.273677
H51	H	1.825346	-1.068135	-0.188846
N52	N	1.643924	-0.777475	-0.369869
H53	H	1.572228	-0.751129	-0.350596
H54	H	1.696454	-0.751132	-0.317429
H55	H	1.765308	-0.906005	-0.248755
H56	H	1.392585	-0.387313	-1.108566
H57	H	1.644181	-1.204604	-0.369999
H58	H	1.564773	-0.560520	-1.071250
H59	H	1.376729	-1.204592	-0.637117
N60	N	1.582394	-0.578316	-0.951151
H61	H	1.624749	-0.620948	-0.900092
H62	H	1.539812	-0.626877	-0.996425
N63	N	1.237698	-1.119553	-0.775902
H64	H	1.247892	-1.197386	-0.765794
H65	H	1.163060	-1.100457	-0.759569
H66	H	1.255246	-0.905994	-0.758193
H67	H	1.115402	-0.624715	-0.621140
H68	H	1.376497	-0.806465	-0.636984
N69	N	1.374864	-0.369652	-0.884998
H70	H	1.385049	-0.379946	-0.807597
H71	H	1.391142	-0.294594	-0.904035
