data_functionalizedCrystal
_audit_creation_method	'MofGen! by Chris Wilmer'
_symmetry_space_group_name_H-M	'P1'
_symmetry_Int_Tables_number	1
_symmetry_cell_setting	triclinic
loop_
_symmetry_equiv_pos_as_xyz
  x,y,z
_cell_length_a	8.559649
_cell_length_b	8.559649
_cell_length_c	16.176319
_cell_angle_alpha	89.994559
_cell_angle_beta	89.992630
_cell_angle_gamma	69.778664
loop_
_atom_site_label
_atom_site_type_symbol
_atom_site_fract_x
_atom_site_fract_y
_atom_site_fract_z
O1	O	2.126887	-0.055032	-0.068734
O2	O	1.651402	0.028749	-0.068737
O3	O	1.931036	-0.250884	-0.068734
O4	O	1.847254	0.224601	-0.068736
O5	O	1.931003	-0.250895	0.068759
O6	O	1.651370	0.028738	0.068756
O7	O	2.126855	-0.055043	0.068760
Cu8	Cu	1.889110	-0.013154	0.081312
Cu9	Cu	1.889148	-0.013140	-0.081289
O10	O	1.847222	0.224590	0.068757
C11	C	1.591077	0.035093	0.000009
C12	C	1.411378	0.053992	0.000008
C13	C	1.937369	-0.311198	0.000011
C14	C	1.956268	-0.490898	0.000007
C15	C	2.187180	-0.061387	0.000012
C16	C	2.366879	-0.080286	0.000008
C17	C	1.840889	0.284904	0.000010
C18	C	1.821990	0.464604	0.000009
N19	N	1.889095	-0.013166	0.195677
N20	N	1.889177	-0.013142	-0.195655
C21	C	2.012944	-0.136947	0.238943
C22	C	2.012952	-0.136949	0.325490
C23	C	1.889117	-0.013163	0.368770
C24	C	1.765255	0.110624	0.325499
C25	C	1.765242	0.110618	0.238953
C26	C	1.765307	0.110648	0.674527
C27	C	1.765333	0.110646	0.761078
C28	C	2.013018	-0.136920	0.761064
C29	C	2.013004	-0.136926	0.674518
C30	C	1.889138	-0.013144	0.631254
C31	C	1.889129	-0.013145	0.537410
C32	C	1.889132	-0.013155	0.462613
H33	H	1.466258	-0.209705	0.000004
H34	H	1.311990	0.183420	0.000003
C35	C	2.149174	-0.273124	0.191343
N36	N	2.251783	-0.375702	0.155493
C37	C	2.149162	-0.273152	0.373078
N38	N	2.251749	-0.375759	0.408921
H39	H	1.692570	-0.436018	0.000011
H40	H	2.085696	-0.590286	0.000014
H41	H	2.113847	-0.237719	0.639282
H42	H	2.113872	-0.237714	0.796298
H43	H	1.664485	0.211452	0.796316
H44	H	1.664454	0.211437	0.639308
H45	H	1.664419	0.211409	0.360742
C46	C	1.629009	0.246798	0.191362
N47	N	1.526395	0.349374	0.155517
