data_functionalizedCrystal
_audit_creation_method	'MofGen! by Chris Wilmer'
_symmetry_space_group_name_H-M	'P1'
_symmetry_Int_Tables_number	1
_symmetry_cell_setting	triclinic
loop_
_symmetry_equiv_pos_as_xyz
  x,y,z
_cell_length_a	9.065218
_cell_length_b	10.654550
_cell_length_c	9.730223
_cell_angle_alpha	90.003749
_cell_angle_beta	90.000469
_cell_angle_gamma	95.249606
loop_
_atom_site_label
_atom_site_type_symbol
_atom_site_fract_x
_atom_site_fract_y
_atom_site_fract_z
O1	O	0.207228	-1.668655	-0.114397
O2	O	0.226972	-1.303254	-0.114374
O3	O	0.002417	-1.493507	-0.114383
O4	O	0.431784	-1.478402	-0.114388
O5	O	0.002422	-1.493505	0.114197
O6	O	0.226978	-1.303252	0.114206
O7	O	0.207234	-1.668653	0.114183
Zn8	Zn	0.217107	-1.485952	0.150486
Zn9	Zn	0.217099	-1.485955	-0.150678
O10	O	0.431790	-1.478400	0.114192
C11	C	-0.052559	-1.492055	-0.000096
C12	C	-0.216378	-1.487714	-0.000102
C13	C	0.225525	-1.256450	-0.000082
C14	C	0.221188	-1.116989	-0.000073
C15	C	0.208681	-1.715457	-0.000113
C16	C	0.213018	-1.854918	-0.000130
C17	C	0.486766	-1.479852	-0.000099
C18	C	0.650585	-1.484193	-0.000102
N19	N	0.217111	-1.485959	0.356023
C20	C	0.353403	-1.038027	-0.000095
C21	C	0.349319	-0.906990	-0.000118
C22	C	0.080793	-0.933890	-0.000105
C23	C	0.084879	-1.064925	-0.000071
C24	C	0.508434	-1.022496	-0.000108
C25	C	0.504350	-0.891459	-0.000132
N26	N	0.217084	-1.485958	-0.356214
C27	C	0.117712	-1.570225	0.427945
C28	C	0.117694	-1.570222	0.571828
C29	C	0.316488	-1.401682	0.571854
C30	C	0.316497	-1.401681	0.427973
C31	C	0.002944	-1.667534	0.427931
C32	C	0.002926	-1.667531	0.571814
H33	H	-0.030185	-0.891483	-0.000124
H34	H	0.397423	-1.333054	0.369416
C35	C	0.567645	-0.830000	0.133172
H36	H	0.598667	-0.893304	0.192550
H37	H	0.493416	-0.787224	0.177465
H38	H	0.649924	-0.771566	0.111734
H39	H	0.562761	-0.849958	-0.095800
C40	C	0.425811	-1.308991	0.651004
H41	H	0.411577	-1.321064	0.746995
H42	H	0.408876	-1.224991	0.627427
H43	H	0.524442	-1.323755	0.627432
C44	C	-0.060552	-1.151784	-0.000035
H45	H	-0.038601	-1.237281	-0.000004
H46	H	-0.116401	-1.135859	-0.079743
H47	H	-0.116371	-1.135812	0.079688
H48	H	0.569069	-1.052066	0.095557
H49	H	-0.104243	-1.636593	0.616432
C50	C	0.575130	-1.070937	-0.133414
H51	H	0.602011	-1.001834	-0.192799
H52	H	0.504015	-1.128276	-0.177696
H53	H	0.660534	-1.112571	-0.111986
C54	C	0.037080	-1.798035	0.624570
H55	H	0.051154	-1.851705	0.548629
H56	H	-0.043370	-1.833456	0.678796
H57	H	0.124555	-1.789452	0.678817
H58	H	-0.110463	-1.645642	0.388879
C59	C	0.051473	-1.790907	0.367625
H60	H	0.073070	-1.845851	0.440334
H61	H	0.137390	-1.772736	0.312678
H62	H	-0.026123	-1.830260	0.312674
