data_functionalizedCrystal
_audit_creation_method	'MofGen! by Chris Wilmer'
_symmetry_space_group_name_H-M	'P1'
_symmetry_Int_Tables_number	1
_symmetry_cell_setting	triclinic
loop_
_symmetry_equiv_pos_as_xyz
  x,y,z
_cell_length_a	27.731993
_cell_length_b	27.732048
_cell_length_c	11.892095
_cell_angle_alpha	93.851775
_cell_angle_beta	86.145793
_cell_angle_gamma	82.631525
loop_
_atom_site_label
_atom_site_type_symbol
_atom_site_fract_x
_atom_site_fract_y
_atom_site_fract_z
O1	O	0.644049	0.054287	-0.093709
O2	O	0.503254	0.063058	-0.093780
O3	O	0.578023	-0.011724	-0.093721
O4	O	0.569279	0.129069	-0.093768
O5	O	0.571789	-0.005499	0.094282
O6	O	0.497020	0.069284	0.094223
O7	O	0.637815	0.060513	0.094293
Zn8	Zn	0.566427	0.065887	0.124108
Zn9	Zn	0.574641	0.057684	-0.123594
O10	O	0.563045	0.135295	0.094234
C11	C	0.482130	0.065990	0.000213
C12	C	0.428474	0.065447	0.000187
C13	C	0.048710	0.058125	-0.102237
C14	C	0.250369	0.060191	-0.102269
O15	O	0.279332	0.057552	-0.189426
N16	N	0.272191	0.063843	0.000209
C17	C	0.243596	0.066976	0.102702
O18	O	0.266785	0.070124	0.189865
C19	C	0.041939	0.064906	0.102732
C20	C	0.020119	0.061259	0.000248
C21	C	0.026890	0.054477	-0.204714
C22	C	-0.023522	0.053963	-0.204705
C23	C	-0.052114	0.057097	-0.102220
C24	C	-0.030293	0.060745	0.000257
C25	C	0.013345	0.068035	0.205224
C26	C	-0.037072	0.067516	0.205222
C27	C	-0.058892	0.063869	0.102738
C28	C	-0.109297	0.063365	0.102750
N29	N	-0.131119	0.059713	0.000273
C30	C	-0.102528	0.056579	-0.102212
C31	C	0.349468	0.068063	0.102679
C32	C	0.399882	0.068581	0.102672
C33	C	0.406652	0.061795	-0.102299
C34	C	0.356237	0.061281	-0.102291
C35	C	0.327646	0.064411	0.000201
C36	C	-0.208397	0.055501	-0.102186
C37	C	-0.258814	0.054989	-0.102168
C38	C	-0.265579	0.061772	0.102802
C39	C	-0.215167	0.062287	0.102785
C40	C	-0.186576	0.059149	0.000282
O41	O	-0.138289	0.065996	0.189862
O42	O	-0.125724	0.053420	-0.189362
C43	C	0.099122	0.058639	-0.102246
C44	C	0.120943	0.062286	0.000230
C45	C	0.092351	0.065420	0.102715
C46	C	0.171356	0.062805	0.000223
C47	C	0.199948	0.059671	-0.102262
C48	C	0.178126	0.056018	-0.204740
C49	C	0.127714	0.055505	-0.204731
C50	C	0.114173	0.069072	0.205193
C51	C	0.164585	0.069586	0.205175
C52	C	0.193177	0.066453	0.102690
C53	C	0.574723	-0.026618	0.000284
C54	C	0.574169	-0.080273	0.000293
C55	C	0.614876	-0.419097	0.000255
C56	C	0.612825	-0.620757	0.000238
O57	O	0.650048	-0.652021	0.000207
N58	N	0.568489	-0.639873	0.000217
C59	C	0.524663	-0.608570	0.000193
O60	O	0.486907	-0.629457	0.000162
C61	C	0.526715	-0.406912	0.000201
C62	C	0.571053	-0.387798	0.000234
C63	C	0.659210	-0.399983	0.000286
C64	C	0.659722	-0.349571	0.000297
C65	C	0.615899	-0.318273	0.000276
C66	C	0.571565	-0.337386	0.000244
C67	C	0.482890	-0.375610	0.000169
C68	C	0.483406	-0.325193	0.000168
C69	C	0.527745	-0.306080	0.000201
C70	C	0.528254	-0.255676	0.000234
N71	N	0.572590	-0.236560	0.000255
C72	C	0.616412	-0.267858	0.000276
C73	C	0.523589	-0.714444	0.000190
C74	C	0.523076	-0.764858	0.000190
C75	C	0.611238	-0.777042	0.000234
C76	C	0.611751	-0.726626	0.000242
C77	C	0.567925	-0.695328	0.000211
C78	C	0.617484	-0.161989	0.000299
C79	C	0.617992	-0.111571	0.000314
C80	C	0.529831	-0.099393	0.000264
C81	C	0.529322	-0.149805	0.000255
C82	C	0.573153	-0.181103	0.000268
O83	O	0.491052	-0.224384	0.000252
O84	O	0.654165	-0.246963	0.000281
C85	C	0.614364	-0.469509	0.000245
C86	C	0.570029	-0.488623	0.000213
C87	C	0.526206	-0.457324	0.000192
C88	C	0.569516	-0.539037	0.000213
C89	C	0.613339	-0.570336	0.000234
C90	C	0.657674	-0.551220	0.000255
C91	C	0.658186	-0.500808	0.000266
C92	C	0.481871	-0.476440	0.000171
C93	C	0.481362	-0.526853	0.000162
C94	C	0.525185	-0.558151	0.000183
C95	C	0.658939	0.057580	0.000298
C96	C	0.712595	0.058123	0.000317
C97	C	0.566346	0.150189	0.000228
C98	C	0.566899	0.203843	0.000211
N99	N	0.560825	0.071484	0.293157
N100	N	0.580247	0.052082	-0.292644
C101	C	0.619229	0.013103	0.529851
C102	C	0.615317	0.017019	0.648190
C103	C	0.549086	0.083230	0.648176
C104	C	0.552999	0.079314	0.529837
C105	C	0.588072	0.044250	0.470679
C106	C	0.591986	0.040336	0.352338
C107	C	0.525754	0.106545	0.352326
C108	C	0.521841	0.110461	0.470665
H109	H	-0.041283	0.050991	-0.288158
O110	O	0.626003	0.006203	0.294945
C111	C	0.617537	-0.040626	0.323934
H112	H	0.577758	-0.039494	0.356448
H113	H	0.625852	-0.067514	0.246139
H114	H	0.642153	-0.052736	0.392652
H115	H	0.446184	-0.450961	0.000151
O116	O	0.660097	-0.192342	0.000166
C117	C	0.690263	-0.186951	-0.097196
H118	H	0.679173	-0.149688	-0.129662
H119	H	0.729879	-0.190069	-0.075269
H120	H	0.686132	-0.216735	-0.165384
O121	O	0.335089	0.057798	-0.201915
C122	C	0.343665	0.097748	-0.264257
H123	H	0.377373	0.113053	-0.235117
H124	H	0.349795	0.085245	-0.358009
H125	H	0.310764	0.127252	-0.250059
O126	O	0.514994	0.117224	0.705783
C127	C	0.483100	0.093805	0.774213
H128	H	0.502051	0.056427	0.791931
H129	H	0.472553	0.116783	0.857435
H130	H	0.448906	0.089269	0.728611
H131	H	0.693356	-0.576712	0.000277
H132	H	-0.288867	0.064326	0.186243
H133	H	0.493284	0.139009	0.518845
O134	O	0.106603	0.051934	-0.304387
C135	C	0.142656	0.049291	-0.394832
H136	H	0.179715	0.035346	-0.364773
H137	H	0.133711	0.023292	-0.466504
H138	H	0.143695	0.087097	-0.426354
H139	H	0.500385	0.131908	0.304134
H140	H	0.050165	0.051923	-0.288174
H141	H	0.486971	-0.780415	0.000183
O142	O	0.205947	0.053042	-0.304223
C143	C	0.229512	0.095022	-0.310378
H144	H	0.232186	0.112009	-0.221401
H145	H	0.267702	0.084528	-0.353738
H146	H	0.207703	0.122474	-0.360969
H147	H	-0.185124	0.052946	-0.185654
O148	O	0.185703	0.073112	0.304838
C149	C	0.149649	0.075778	0.395288
H150	H	0.116821	0.059111	0.365239
H151	H	0.165088	0.054818	0.466967
H152	H	0.137883	0.115560	0.426797
O153	O	0.086396	0.072029	0.304725
C154	C	0.062813	0.030061	0.310879
H155	H	0.083969	-0.000982	0.252720
H156	H	0.061199	0.018998	0.401525
H157	H	0.024202	0.038229	0.283370
O158	O	0.434390	0.058681	-0.201927
C159	C	0.429937	0.014602	-0.264238
H160	H	0.394299	0.001231	-0.235097
H161	H	0.430015	0.020894	-0.357998
H162	H	0.461895	-0.013962	-0.250006
H163	H	-0.197401	0.065266	0.186236
O164	O	0.702813	-0.331040	0.000117
C165	C	0.732732	-0.350299	-0.097227
H166	H	0.709050	-0.362836	-0.165292
H167	H	0.754154	-0.320994	-0.129903
H168	H	0.759183	-0.382639	-0.075204
O169	O	-0.279928	0.051421	-0.201828
C170	C	-0.243879	0.048776	-0.292281
H171	H	-0.206819	0.034827	-0.262233
H172	H	-0.252829	0.022778	-0.363951
H173	H	-0.242839	0.086582	-0.323804
O174	O	0.438294	-0.545433	0.000329
C175	C	0.432128	-0.571027	0.097669
H176	H	0.455037	-0.557049	0.165752
H177	H	0.392050	-0.565128	0.130318
H178	H	0.444309	-0.611600	0.075650
O179	O	0.421000	0.072111	0.202326
C180	C	0.384946	0.074776	0.292776
H181	H	0.352121	0.058104	0.262730
H182	H	0.400387	0.053821	0.364459
H183	H	0.373175	0.114559	0.324278
O184	O	0.321637	0.071166	0.202173
C185	C	0.286486	0.112955	0.208321
H186	H	0.279937	0.123895	0.119341
H187	H	0.250907	0.104606	0.251712
H188	H	0.300188	0.144155	0.258881
H189	H	0.640687	-0.008344	0.696365
H190	H	-0.060349	0.070070	0.288686
H191	H	0.647855	-0.711068	0.000267
H192	H	0.654099	-0.096012	0.000343
O193	O	0.034458	0.071557	0.304880
C194	C	-0.001599	0.074220	0.395322
H195	H	-0.034424	0.057551	0.365265
H196	H	0.013839	0.053260	0.467004
H197	H	-0.013369	0.114002	0.426832
H198	H	0.646921	-0.802534	0.000251
O199	O	0.701778	-0.430408	0.000109
C200	C	0.707352	-0.463164	-0.097241
H201	H	0.684748	-0.446770	-0.165315
H202	H	0.747418	-0.470196	-0.129896
H203	H	0.694400	-0.499011	-0.075232
O204	O	0.701238	-0.482215	0.000488
C205	C	0.700946	-0.450192	0.097843
H206	H	0.673520	-0.459673	0.165888
H207	H	0.738856	-0.453935	0.130542
H208	H	0.690228	-0.411073	0.075826
H209	H	0.487899	-0.688965	0.000166
O210	O	0.439778	-0.394090	0.000082
C211	C	0.401215	-0.355645	0.000084
H212	H	0.415692	-0.322673	-0.035492
H213	H	0.372047	-0.367746	-0.054526
H214	H	0.384721	-0.345427	0.090268
H215	H	0.447718	-0.299712	0.000142
H216	H	0.493218	-0.165367	0.000260
O217	O	0.487283	-0.068971	0.000040
C218	C	0.488186	-0.042655	-0.097315
H219	H	0.515303	-0.063559	-0.165350
H220	H	0.450291	-0.037768	-0.130029
H221	H	0.499692	-0.005359	-0.075290
O222	O	0.653311	-0.020995	0.472554
C223	C	0.679984	-0.047636	0.550158
H224	H	0.657382	-0.045252	0.634516
H225	H	0.688780	-0.087424	0.515974
H226	H	0.715358	-0.031777	0.562737
