data_functionalizedCrystal
_audit_creation_method	'MofGen! by Chris Wilmer'
_symmetry_space_group_name_H-M	'P1'
_symmetry_Int_Tables_number	1
_symmetry_cell_setting	triclinic
loop_
_symmetry_equiv_pos_as_xyz
  x,y,z
_cell_length_a	16.109301
_cell_length_b	8.140239
_cell_length_c	16.109302
_cell_angle_alpha	89.995336
_cell_angle_beta	83.461631
_cell_angle_gamma	89.995060
loop_
_atom_site_label
_atom_site_type_symbol
_atom_site_fract_x
_atom_site_fract_y
_atom_site_fract_z
O1	O	0.106869	-0.136692	1.103129
O2	O	0.120167	-0.136680	0.861068
O3	O	-0.007513	-0.136670	0.988748
O4	O	0.234549	-0.136703	0.975449
O5	O	-0.007514	0.136557	0.988741
O6	O	0.120166	0.136547	0.861061
O7	O	0.106867	0.136535	1.103122
Zn8	Zn	0.113516	0.179921	0.982090
Zn9	Zn	0.113518	-0.180067	0.982100
O10	O	0.234548	0.136524	0.975442
C11	C	0.119628	-0.000065	0.830089
C12	C	0.118013	-0.000060	0.737794
C13	C	-0.038488	-0.000056	0.988206
C14	C	-0.130784	-0.000053	0.986591
N15	N	0.113515	0.425604	0.982090
C16	C	-0.353056	-0.000083	1.058599
C17	C	-0.439776	-0.000096	1.057074
C18	C	-0.419902	-0.000082	0.905586
C19	C	-0.333184	-0.000080	0.907111
C20	C	-0.299763	-0.000072	0.983620
C21	C	-0.473202	-0.000088	0.980571
C22	C	-0.567228	-0.000102	0.978918
C23	C	-0.205731	-0.000061	0.985273
C24	C	0.265523	-0.000094	0.975984
C25	C	0.357819	-0.000107	0.977599
N26	N	0.113514	-0.425750	0.982107
C27	C	0.114277	0.148861	0.525449
C28	C	0.112750	0.148855	0.438729
C29	C	0.112756	-0.149032	0.438747
C30	C	0.114276	-0.149025	0.525467
C31	C	0.115041	-0.000074	0.568815
C32	C	0.111994	-0.000086	0.395375
C33	C	0.110338	-0.000093	0.301350
C34	C	0.116695	-0.000066	0.662847
C35	C	0.107407	-0.000084	1.134101
C36	C	0.109022	-0.000100	1.226396
H37	H	-0.325848	-0.000080	1.120897
C38	C	0.044562	-0.321831	0.632366
C39	C	0.115117	-0.312747	0.573140
H40	H	0.045078	-0.422906	0.661794
H41	H	0.045236	-0.233133	0.670589
H42	H	-0.004479	-0.315641	0.604879
H43	H	0.164159	-0.318925	0.600628
H44	H	0.114451	-0.401470	0.534912
C45	C	0.043302	0.402756	0.561505
C46	C	0.115104	0.312582	0.573102
H47	H	0.043810	0.503828	0.590928
H48	H	0.042294	0.424062	0.503658
H49	H	-0.004893	0.341537	0.582078
H50	H	0.163300	0.373796	0.552523
H51	H	0.116121	0.291280	0.630961
H52	H	-0.483165	-0.000108	1.118130
C53	C	-0.224127	0.140377	0.820942
C54	C	-0.274593	-0.000072	0.824689
H55	H	-0.187953	0.140368	0.770063
H56	H	-0.258372	0.235641	0.823485
H57	H	-0.191819	0.140356	0.866731
H58	H	-0.306906	-0.000044	0.778903
H59	H	-0.240344	-0.095361	0.822137
H60	H	-0.447124	-0.000085	0.843295
H61	H	0.112128	0.270132	0.403425
H62	H	0.112134	-0.270303	0.403442
