data_functionalizedCrystal
_audit_creation_method	'MofGen! by Chris Wilmer'
_symmetry_space_group_name_H-M	'P1'
_symmetry_Int_Tables_number	1
_symmetry_cell_setting	triclinic
loop_
_symmetry_equiv_pos_as_xyz
  x,y,z
_cell_length_a	21.295418
_cell_length_b	12.759394
_cell_length_c	12.759387
_cell_angle_alpha	90.031405
_cell_angle_beta	89.961191
_cell_angle_gamma	89.969348
loop_
_atom_site_label
_atom_site_type_symbol
_atom_site_fract_x
_atom_site_fract_y
_atom_site_fract_z
Zn1	Zn	0.962394	0.417770	-0.594604
Zn2	Zn	0.962334	0.593486	-0.418922
Zn3	Zn	0.857126	0.417870	-0.418875
Zn4	Zn	0.857115	0.593456	-0.594495
O5	O	0.909742	0.505646	-0.506724
O6	O	1.050475	0.441050	-0.571365
O7	O	0.948357	0.570245	-0.271894
O8	O	0.871119	0.270836	-0.442212
O9	O	1.050431	0.570148	-0.442292
O10	O	0.948459	0.270762	-0.571319
O11	O	0.871062	0.441221	-0.271860
O12	O	0.769035	0.441192	-0.442106
O13	O	0.871101	0.570096	-0.741530
O14	O	0.769027	0.570194	-0.571133
O15	O	0.948449	0.441021	-0.741611
O16	O	0.948347	0.740503	-0.442186
O17	O	0.871043	0.740481	-0.571179
C18	C	0.909704	0.778613	-0.506698
C19	C	0.909746	0.895390	-0.506723
C20	C	0.746190	0.505701	-0.506603
C21	C	0.676222	0.505750	-0.506576
C22	C	0.909780	0.505544	-0.780757
C23	C	0.909797	0.505501	-0.897534
C24	C	0.643368	0.573010	-0.573660
C25	C	0.577626	0.572984	-0.573707
C26	C	0.544740	0.505709	-0.506652
C27	C	0.577602	0.438436	-0.439563
C28	C	0.643343	0.438456	-0.439525
N29	N	0.441467	0.497513	-0.414760
N30	N	0.379016	0.497499	-0.414798
C31	C	0.346665	0.505642	-0.506763
N32	N	0.379125	0.513819	-0.598689
N33	N	0.441582	0.513838	-0.598649
C34	C	0.473455	0.505679	-0.506686
C35	C	0.242525	0.572878	-0.573904
C36	C	0.176782	0.572845	-0.573953
C37	C	0.176760	0.438302	-0.439799
C38	C	0.242502	0.438329	-0.439760
C39	C	0.275381	0.505623	-0.506811
C40	C	1.073932	0.505591	-0.506846
C41	C	1.143901	0.505568	-0.506898
C42	C	0.909797	0.231612	-0.506772
C43	C	0.909821	0.114836	-0.506793
C44	C	0.990303	0.895360	-0.372503
C45	C	1.030598	0.950205	-0.305406
C46	C	1.030634	1.059927	-0.305435
C47	C	0.990373	1.114805	-0.372570
C48	C	0.950079	1.059960	-0.439667
C49	C	0.950045	0.950236	-0.439629
C50	C	0.869526	1.059990	-0.573890
C51	C	0.869485	0.950268	-0.573858
C52	C	0.829265	1.114868	-0.641026
C53	C	0.788966	1.060023	-0.708119
C54	C	0.788930	0.950295	-0.708087
C55	C	0.829190	0.895423	-0.640955
C56	C	0.990329	0.639781	-1.116995
C57	C	1.030561	0.706978	-1.062142
C58	C	1.030540	0.707019	-0.952421
C59	C	0.990282	0.639856	-0.897550
C60	C	0.950049	0.572658	-0.952403
C61	C	0.950076	0.572623	-1.062127
C62	C	0.869564	0.438303	-0.952387
C63	C	0.869587	0.438256	-1.062109
C64	C	0.829306	0.371140	-0.897516
C65	C	0.789076	0.303936	-0.952370
C66	C	0.789099	0.303898	-1.062098
C67	C	0.829355	0.371058	-1.116962
C68	C	0.909740	0.505671	-0.233756
C69	C	0.909846	0.505419	-0.116980
H70	H	0.670134	0.627805	-0.628260
C71	C	0.709339	1.049038	-0.840799
C72	C	0.744718	1.120344	-0.781913
H73	H	0.682025	1.086283	-0.886360
H74	H	0.685256	1.006335	-0.794964
H75	H	0.736744	1.006149	-0.881022
H76	H	0.717313	1.163228	-0.741684
H77	H	0.768802	1.163065	-0.827754
H78	H	0.150033	0.627614	-0.628587
C79	C	0.316546	0.587665	-0.715148
C80	C	0.278674	0.646833	-0.647611
H81	H	0.338864	0.633324	-0.760646
H82	H	0.290946	0.541938	-0.755429
H83	H	0.345520	0.547618	-0.675168
H84	H	0.249697	0.686875	-0.687591
H85	H	0.304277	0.692578	-0.607326
C86	C	1.061155	0.884926	-0.918608
C87	C	1.074761	0.780885	-0.892119
H88	H	1.088457	0.930526	-0.881383
H89	H	1.018857	0.900307	-0.900598
H90	H	1.066935	0.894507	-0.991807
H91	H	1.068977	0.771302	-0.818920
H92	H	1.117069	0.765499	-0.910121
C93	C	0.183345	0.305313	-0.307197
C94	C	0.140620	0.364346	-0.366092
H95	H	0.161031	0.259649	-0.261700
H96	H	0.208939	0.351049	-0.266915
H97	H	0.209035	0.265193	-0.353039
H98	H	0.114933	0.404472	-0.320251
H99	H	0.115016	0.318604	-0.406377
H100	H	0.269252	0.383564	-0.385127
H101	H	0.829289	0.371182	-0.808175
H102	H	0.829381	0.371029	-1.206304
H103	H	0.990269	0.806019	-0.372460
H104	H	0.829161	0.806082	-0.640916
H105	H	0.550870	0.627755	-0.628339
C106	C	0.476814	0.378688	-0.380035
C107	C	0.541457	0.364495	-0.365844
H108	H	0.454502	0.333041	-0.334517
H109	H	0.466091	0.363385	-0.450647
H110	H	0.466011	0.449263	-0.364546
H111	H	0.552261	0.293921	-0.381340
H112	H	0.552185	0.379791	-0.295216
H113	H	1.063379	0.905514	-0.250747
C114	C	1.110256	1.048888	-0.172747
C115	C	1.074925	1.120219	-0.231680
H116	H	1.137596	1.086112	-0.127210
H117	H	1.134309	1.006015	-0.218554
H118	H	1.082822	1.006170	-0.132495
H119	H	1.102359	1.162932	-0.271938
H120	H	1.050870	1.163110	-0.185867
C121	C	0.785465	1.272058	-0.714166
C122	C	0.829308	1.235476	-0.641069
H123	H	0.785495	1.346517	-0.714197
H124	H	0.744845	1.247333	-0.695908
H125	H	0.796329	1.247148	-0.781972
H126	H	0.818441	1.260381	-0.573262
H127	H	0.869937	1.260213	-0.659321
H128	H	0.990413	1.204146	-0.372596
C129	C	0.780105	0.826804	-0.849362
C130	C	0.744638	0.890011	-0.781847
H131	H	0.752759	0.789596	-0.894902
H132	H	0.804067	0.778420	-0.809376
H133	H	0.807534	0.869535	-0.889608
H134	H	0.717212	0.847279	-0.741595
H135	H	0.720665	0.938400	-0.821837
H136	H	0.670093	0.383681	-0.384897
H137	H	0.990356	0.639745	-1.206337
H138	H	1.063337	0.761664	-1.106830
C139	C	1.034067	0.713072	-0.740383
C140	C	0.990256	0.639904	-0.776942
H141	H	1.034052	0.713094	-0.665924
H142	H	1.023168	0.780853	-0.765185
H143	H	1.074697	0.694877	-0.765234
H144	H	0.949625	0.658104	-0.752097
H145	H	1.001151	0.572109	-0.752129
C146	C	0.682486	0.252810	-0.918537
C147	C	0.744825	0.230123	-0.892052
H148	H	0.655168	0.207244	-0.881290
H149	H	0.676747	0.243155	-0.991723
H150	H	0.673263	0.323414	-0.900541
H151	H	0.754050	0.159521	-0.910055
H152	H	0.750567	0.239770	-0.818850
H153	H	0.756335	0.249179	-1.106753
