data_functionalizedCrystal
_audit_creation_method	'MofGen! by Chris Wilmer'
_symmetry_space_group_name_H-M	'P1'
_symmetry_Int_Tables_number	1
_symmetry_cell_setting	triclinic
loop_
_symmetry_equiv_pos_as_xyz
  x,y,z
_cell_length_a	14.971482
_cell_length_b	19.188924
_cell_length_c	17.666332
_cell_angle_alpha	90.007291
_cell_angle_beta	90.008698
_cell_angle_gamma	83.377286
loop_
_atom_site_label
_atom_site_type_symbol
_atom_site_fract_x
_atom_site_fract_y
_atom_site_fract_z
O1	O	1.186469	0.090974	0.062942
O2	O	1.686469	0.590974	0.562942
O3	O	0.926011	0.101873	0.062946
O4	O	1.426011	0.601873	0.562946
O5	O	1.063760	-0.005208	0.062935
O6	O	1.563760	0.494792	0.562935
O7	O	1.048721	0.198055	0.062953
O8	O	1.548721	0.698055	0.562953
O9	O	1.063736	-0.005211	-0.062962
O10	O	1.563736	0.494789	0.437038
O11	O	0.925987	0.101870	-0.062951
O12	O	1.425987	0.601870	0.437049
O13	O	1.186445	0.090971	-0.062955
O14	O	1.686445	0.590971	0.437045
Cu15	Cu	1.056214	0.096420	-0.074448
Cu16	Cu	1.556214	0.596420	0.425552
Cu17	Cu	1.056242	0.096424	0.074440
Cu18	Cu	1.556242	0.596424	0.574440
O19	O	1.048697	0.198052	-0.062944
O20	O	1.548697	0.698052	0.437056
C21	C	0.892677	0.101384	-0.000002
C22	C	1.392677	0.601384	0.499998
C23	C	0.793387	0.099925	-0.000001
C24	C	1.293387	0.599925	0.499999
C25	C	0.746733	0.099236	-0.068628
C26	C	1.246733	0.599236	0.431372
C27	C	0.653442	0.097854	-0.068629
C28	C	1.153442	0.597854	0.431371
C29	C	0.606806	0.097166	-0.000002
C30	C	1.106806	0.597166	0.499998
C31	C	0.653467	0.097853	0.068631
C32	C	1.153467	0.597853	0.568631
C33	C	0.746757	0.099230	0.068631
C34	C	1.246757	0.599230	0.568631
C35	C	0.459020	0.094984	0.068626
C36	C	0.959020	0.594984	0.568626
C37	C	0.365723	0.093608	0.068626
C38	C	0.865723	0.593608	0.568626
C39	C	0.365705	0.093608	-0.068634
C40	C	0.865705	0.593608	0.431366
C41	C	0.458995	0.094985	-0.068634
C42	C	0.958995	0.594985	0.431366
C43	C	0.505650	0.095673	-0.000001
C44	C	1.005650	0.595673	0.499999
C45	C	1.063262	-0.031223	-0.000014
C46	C	1.563262	0.468777	0.499986
C47	C	1.061803	-0.108732	-0.000016
C48	C	1.561803	0.391268	0.499984
C49	C	1.061135	-0.145131	0.068611
C50	C	1.561135	0.354869	0.568611
C51	C	1.059752	-0.217958	0.068616
C52	C	1.559752	0.282042	0.568616
C53	C	1.059054	-0.254385	-0.000008
C54	C	1.559054	0.245615	0.499992
C55	C	1.059717	-0.217977	-0.068644
C56	C	1.559717	0.282023	0.431356
C57	C	1.061091	-0.145150	-0.068648
C58	C	1.561091	0.354850	0.431352
N59	N	1.107786	-0.373893	-0.051085
N60	N	1.607786	0.126107	0.448915
N61	N	1.106483	-0.443076	-0.051076
N62	N	1.606483	0.056924	0.448924
C63	C	1.054911	-0.473808	-0.000001
C64	C	1.554911	0.026192	0.499999
N65	N	1.004703	-0.432745	0.051078
N66	N	1.504703	0.067255	0.551078
N67	N	1.006011	-0.363556	0.051071
N68	N	1.506011	0.136444	0.551071
C69	C	1.057563	-0.333354	-0.000012
C70	C	1.557563	0.166646	0.499988
C71	C	1.052742	-0.589174	0.068637
C72	C	1.552742	-0.089174	0.568637
C73	C	1.051353	-0.662002	0.068639
C74	C	1.551353	-0.162002	0.568639
C75	C	1.051327	-0.662020	-0.068623
C76	C	1.551327	-0.162020	0.431377
C77	C	1.052707	-0.589193	-0.068624
C78	C	1.552707	-0.089193	0.431376
C79	C	1.053418	-0.552775	0.000008
C80	C	1.553418	-0.052775	0.500008
C81	C	1.219780	0.091460	-0.000005
C82	C	1.719780	0.591460	0.499995
C83	C	1.319069	0.092919	-0.000001
C84	C	1.819069	0.592919	0.499999
C85	C	1.049195	0.224067	0.000007
C86	C	1.549195	0.724067	0.500007
C87	C	1.050653	0.301576	0.000014
C88	C	1.550653	0.801576	0.500014
N89	N	1.056200	0.096417	-0.179167
N90	N	1.556200	0.596417	0.320833
C91	C	1.110272	0.138836	-0.218768
C92	C	1.610272	0.638836	0.281232
C93	C	1.110286	0.138834	-0.298015
C94	C	1.610286	0.638834	0.201985
C95	C	1.056212	0.096421	-0.337660
C96	C	1.556212	0.596421	0.162340
C97	C	1.002137	0.053994	-0.298050
C98	C	1.502137	0.553994	0.201950
C99	C	1.002131	0.053991	-0.218804
C100	C	1.502131	0.553991	0.281196
N101	N	0.977876	0.094450	-0.462098
N102	N	1.477876	0.594450	0.037902
N103	N	0.977884	0.094456	-0.537379
N104	N	1.477884	0.594456	-0.037379
C105	C	1.056228	0.096424	-0.576424
C106	C	1.556228	0.596424	-0.076424
N107	N	1.134565	0.098399	-0.537344
N108	N	1.634565	0.598399	-0.037344
N109	N	1.134556	0.098397	-0.462057
N110	N	1.634556	0.598397	0.037943
C111	C	1.056213	0.096418	-0.423589
C112	C	1.556213	0.596418	0.076411
C113	C	1.110320	0.138843	-0.701953
C114	C	1.610320	0.638843	-0.201953
C115	C	1.110337	0.138836	-0.781202
C116	C	1.610337	0.638836	-0.281202
C117	C	1.002179	0.053999	-0.781235
C118	C	1.502179	0.553999	-0.281235
C119	C	1.002171	0.054002	-0.701988
C120	C	1.502171	0.554002	-0.201988
C121	C	1.056240	0.096428	-0.662351
C122	C	1.556240	0.596428	-0.162351
N123	N	1.056263	0.096421	0.179159
N124	N	1.556263	0.596421	0.679159
H125	H	0.784742	0.099792	0.124514
H126	H	1.284742	0.599792	0.624514
H127	H	0.496963	0.095550	-0.124516
H128	H	0.996963	0.595550	0.375484
H129	H	1.059146	-0.247640	-0.124519
H130	H	1.559146	0.252360	0.375481
C131	C	1.061834	-0.105110	-0.144140
C132	C	1.561834	0.394890	0.355860
H133	H	1.061224	-0.137232	-0.185012
H134	H	1.561224	0.362768	0.314988
H135	H	1.010225	-0.071414	-0.146994
H136	H	1.510225	0.428586	0.353006
H137	H	1.114528	-0.081989	-0.146993
H138	H	1.614528	0.418011	0.353007
H139	H	1.053316	-0.559521	0.124521
H140	H	1.553316	-0.059521	0.624521
H141	H	1.050804	-0.691637	0.124526
H142	H	1.550804	-0.191637	0.624526
C143	C	0.942698	0.007346	-0.824834
C144	C	1.442698	0.507346	-0.324834
H145	H	0.950441	0.013425	-0.877703
H146	H	1.450441	0.513425	-0.377703
H147	H	0.959504	-0.040405	-0.811851
H148	H	1.459504	0.459595	-0.311851
H149	H	0.881445	0.020246	-0.811856
H150	H	1.381445	0.520246	-0.311856
H151	H	0.327754	0.093048	0.124508
H152	H	0.827754	0.593048	0.624508
H153	H	1.154303	0.173380	-0.186501
H154	H	1.654303	0.673380	0.313499
C155	C	1.050552	-0.702080	-0.144109
C156	C	1.550552	-0.202080	0.355891
H157	H	1.049640	-0.750667	-0.134279
H158	H	1.549640	-0.250667	0.365721
H159	H	0.998623	-0.684863	-0.172304
H160	H	1.498623	-0.184863	0.327696
H161	H	1.102925	-0.695435	-0.172310
H162	H	1.602925	-0.195435	0.327690
H163	H	1.053258	-0.559557	-0.124507
H164	H	1.553258	-0.059557	0.375493
C165	C	1.169759	0.185504	-0.341585
C166	C	1.669759	0.685504	0.158415
H167	H	1.201953	0.210774	-0.306629
H168	H	1.701953	0.710774	0.193371
H169	H	1.211040	0.156953	-0.372501
H170	H	1.711040	0.656953	0.127499
H171	H	1.132962	0.217589	-0.372495
H172	H	1.632962	0.717589	0.127505
C173	C	0.798027	0.099981	-0.144119
C174	C	1.298027	0.599981	0.355881
H175	H	0.756878	0.099362	-0.184990
H176	H	1.256878	0.599362	0.315010
H177	H	0.827441	0.141197	-0.146979
H178	H	1.327441	0.641197	0.353021
H179	H	0.841398	0.059824	-0.146966
H180	H	1.341398	0.559824	0.353034
C181	C	0.942654	0.007343	-0.341655
C182	C	1.442654	0.507343	0.158345
H183	H	0.950394	0.013425	-0.394523
H184	H	1.450394	0.513425	0.105477
H185	H	0.959462	-0.040409	-0.328676
H186	H	1.459462	0.459591	0.171324
H187	H	0.881402	0.020242	-0.328674
H188	H	1.381402	0.520242	0.171326
C189	C	0.314337	0.093161	-0.144128
C190	C	0.814337	0.593161	0.355872
H191	H	0.252082	0.092329	-0.134301
H192	H	0.752082	0.592329	0.365699
H193	H	0.322766	0.134168	-0.172101
H194	H	0.822766	0.634168	0.327899
H195	H	0.336445	0.052793	-0.172549
H196	H	0.836445	0.552793	0.327451
H197	H	0.497003	0.095544	0.124514
H198	H	0.997003	0.595544	0.624514
H199	H	0.958098	0.019448	-0.186561
H200	H	1.458098	0.519448	0.313439
H201	H	1.154347	0.173388	-0.669680
H202	H	1.654347	0.673388	-0.169680
C203	C	0.602172	0.097107	0.144121
C204	C	1.102172	0.597107	0.644121
H205	H	0.643322	0.097712	0.184993
H206	H	1.143322	0.597712	0.684993
H207	H	0.558800	0.137257	0.146971
H208	H	1.058800	0.637257	0.646971
H209	H	0.572760	0.055884	0.146977
H210	H	1.072760	0.555884	0.646977
C211	C	1.061902	-0.105074	0.144102
C212	C	1.561902	0.394926	0.644102
H213	H	1.061297	-0.137186	0.184975
H214	H	1.561297	0.362814	0.684975
H215	H	1.114583	-0.081942	0.146957
H216	H	1.614583	0.418058	0.646957
H217	H	1.010281	-0.071384	0.146953
H218	H	1.510281	0.428616	0.646953
C219	C	1.169818	0.185500	-0.824763
C220	C	1.669818	0.685500	-0.324763
H221	H	1.202010	0.210769	-0.789804
H222	H	1.702010	0.710769	-0.289804
H223	H	1.211103	0.156945	-0.855673
H224	H	1.711103	0.656945	-0.355673
H225	H	1.133030	0.217586	-0.855679
H226	H	1.633030	0.717586	-0.355679
C227	C	0.942656	0.007371	-0.658421
C228	C	1.442656	0.507371	-0.158421
H229	H	0.950393	0.013447	-0.605548
H230	H	1.450393	0.513447	-0.105548
H231	H	0.881417	0.020283	-0.671430
H232	H	1.381417	0.520283	-0.171430
H233	H	0.959449	-0.040389	-0.671402
H234	H	1.459449	0.459611	-0.171402
C235	C	0.602125	0.097102	-0.144119
C236	C	1.102125	0.597102	0.355881
H237	H	0.643259	0.097718	-0.184990
H238	H	1.143259	0.597718	0.315010
H239	H	0.572717	0.055881	-0.146982
H240	H	1.072717	0.555881	0.353018
H241	H	0.558747	0.137254	-0.146963
H242	H	1.058747	0.637254	0.353037
H243	H	1.059202	-0.247600	0.124502
H244	H	1.559202	0.252400	0.624502
