data_functionalizedCrystal
_audit_creation_method	'MofGen! by Chris Wilmer'
_symmetry_space_group_name_H-M	'P1'
_symmetry_Int_Tables_number	1
_symmetry_cell_setting	triclinic
loop_
_symmetry_equiv_pos_as_xyz
  x,y,z
_cell_length_a	13.897447
_cell_length_b	13.032831
_cell_length_c	13.897441
_cell_angle_alpha	97.193526
_cell_angle_beta	90.029327
_cell_angle_gamma	82.824382
loop_
_atom_site_label
_atom_site_type_symbol
_atom_site_fract_x
_atom_site_fract_y
_atom_site_fract_z
Zn1	Zn	-0.571545	1.597699	0.732379
Zn2	Zn	-0.238212	1.931033	1.065712
Zn3	Zn	0.095121	2.264366	1.399046
Zn4	Zn	-0.732853	1.597579	0.571070
Zn5	Zn	-0.399520	1.930912	0.904403
Zn6	Zn	-0.066186	2.264246	1.237736
Zn7	Zn	-0.551071	1.422933	0.550643
Zn8	Zn	-0.217738	1.756266	0.883977
Zn9	Zn	0.115596	2.089600	1.217310
Zn10	Zn	-0.712280	1.422908	0.711880
Zn11	Zn	-0.378947	1.756241	1.045213
Zn12	Zn	-0.045614	2.089574	1.378546
O13	O	-0.641937	1.510280	0.641493
O14	O	-0.308604	1.843613	0.974826
O15	O	0.024729	2.176946	1.308160
O16	O	-0.610121	1.743924	0.728109
O17	O	-0.276788	2.077258	1.061442
O18	O	0.056545	2.410591	1.394775
O19	O	-0.708780	1.574372	0.433374
O20	O	-0.375447	1.907705	0.766707
O21	O	-0.042114	2.241039	1.100040
O22	O	-0.418812	1.446177	0.574781
O23	O	-0.085479	1.779511	0.908115
O24	O	0.247854	2.112844	1.241448
O25	O	-0.728633	1.743836	0.609596
O26	O	-0.395300	2.077169	0.942929
O27	O	-0.061967	2.410503	1.276262
O28	O	-0.433855	1.574577	0.708302
O29	O	-0.100522	1.907911	1.041635
O30	O	0.232812	2.241244	1.374969
O31	O	-0.575226	1.446060	0.418367
O32	O	-0.241892	1.779394	0.751700
O33	O	0.091441	2.112727	1.085033
O34	O	-0.555278	1.276689	0.554904
O35	O	-0.221944	1.610022	0.888237
O36	O	0.111389	1.943355	1.221571
O37	O	-0.693571	1.446134	0.849585
O38	O	-0.360237	1.779467	1.182918
O39	O	-0.026904	2.112801	1.516252
O40	O	-0.673717	1.276670	0.673363
O41	O	-0.340384	1.610003	1.006697
O42	O	-0.007051	1.943337	1.340030
O43	O	-0.590173	1.574553	0.864646
O44	O	-0.256840	1.907886	1.197979
O45	O	0.076494	2.241219	1.531313
O46	O	-0.865098	1.574347	0.589718
O47	O	-0.531765	1.907681	0.923051
O48	O	-0.198432	2.241014	1.256385
O49	O	-0.849984	1.446017	0.693170
O50	O	-0.516651	1.779350	1.026504
O51	O	-0.183317	2.112684	1.359837
C52	C	-0.610044	1.238761	0.609693
C53	C	-0.276711	1.572094	0.943027
C54	C	0.056623	1.905427	1.276360
C55	C	-0.596423	1.122604	0.596112
C56	C	-0.263090	1.455937	0.929445
C57	C	0.070243	1.789270	1.262779
C58	C	-0.892542	1.510195	0.641461
C59	C	-0.559208	1.843528	0.974794
C60	C	-0.225875	2.176861	1.308127
C61	C	-0.999763	1.510254	0.641490
C62	C	-0.666429	1.843587	0.974824
C63	C	-0.333096	2.176921	1.308157
C64	C	-0.649046	1.070836	0.648581
C65	C	-0.315713	1.404169	0.981914
C66	C	0.017620	1.737502	1.315248
C67	C	-0.634970	0.950781	0.634545
C68	C	-0.301637	1.284115	0.967879
C69	C	0.031697	1.617448	1.301212
C70	C	-1.086838	1.510305	0.641518
C71	C	-0.753505	1.843638	0.974851
C72	C	-0.420172	2.176971	1.308185
C73	C	-1.196079	1.510378	0.641551
C74	C	-0.862746	1.843711	0.974885
C75	C	-0.529413	2.177045	1.308218
C76	C	-0.390358	1.510394	0.641550
C77	C	-0.057024	1.843727	0.974883
C78	C	0.276309	2.177060	1.308216
C79	C	-0.283150	1.510442	0.641574
C80	C	0.050184	1.843775	0.974907
C81	C	0.383517	2.177109	1.308241
C82	C	-0.641861	1.510354	0.893095
C83	C	-0.308528	1.843687	1.226428
C84	C	0.024806	2.177021	1.559761
C85	C	-0.641828	1.510386	1.000312
C86	C	-0.308495	1.843719	1.333646
C87	C	0.024838	2.177052	1.666979
C88	C	-0.673956	1.782859	0.673417
C89	C	-0.340623	2.116192	1.006751
C90	C	-0.007289	2.449526	1.340084
C91	C	-0.687600	1.899016	0.687022
C92	C	-0.354267	2.232349	1.020355
C93	C	-0.020934	2.565683	1.353688
C94	C	-0.641951	1.510266	0.390877
C95	C	-0.308618	1.843599	0.724210
C96	C	0.024716	2.176933	1.057544
C97	C	-0.641736	1.510437	0.283684
C98	C	-0.308402	1.843770	0.617017
C99	C	0.024931	2.177104	0.950350
C100	C	-0.641766	1.510414	1.196611
C101	C	-0.308433	1.843747	1.529944
C102	C	0.024900	2.177081	1.863278
C103	C	-0.641803	1.510395	1.087376
C104	C	-0.308470	1.843728	1.420710
C105	C	0.024864	2.177062	1.754043
H106	H	-0.704517	1.115395	0.703896
H107	H	-0.371183	1.448728	1.037229
H108	H	-0.037850	1.782061	1.370562
H109	H	-0.540946	1.078045	0.540805
H110	H	-0.207612	1.411378	0.874138
H111	H	0.125721	1.744711	1.207471
N112	N	-0.565367	0.894881	0.565164
N113	N	-0.232034	1.228214	0.898498
N114	N	0.101299	1.561548	1.231831
N115	N	-0.554027	0.797436	0.553865
N116	N	-0.220694	1.130769	0.887198
N117	N	0.112639	1.464103	1.220532
H118	H	-0.504870	0.757954	0.504867
H119	H	-0.171537	1.091287	0.838200
H120	H	0.161796	1.424620	1.171534
H121	H	-0.743073	0.943570	0.742343
H122	H	-0.409739	1.276903	1.075676
H123	H	-0.076406	1.610236	1.409009
