data_functionalizedCrystal
_audit_creation_method	'MofGen! by Chris Wilmer'
_symmetry_space_group_name_H-M	'P1'
_symmetry_Int_Tables_number	1
_symmetry_cell_setting	triclinic
loop_
_symmetry_equiv_pos_as_xyz
  x,y,z
_cell_length_a	21.395362
_cell_length_b	13.897447
_cell_length_c	21.395355
_cell_angle_alpha	90.014356
_cell_angle_beta	90.043940
_cell_angle_gamma	90.035409
loop_
_atom_site_label
_atom_site_type_symbol
_atom_site_fract_x
_atom_site_fract_y
_atom_site_fract_z
Zn1	Zn	0.957908	-0.383718	0.354604
Zn2	Zn	1.457908	0.116282	0.854604
Zn3	Zn	0.957831	-0.544997	0.249834
Zn4	Zn	1.457831	-0.044997	0.749834
Zn5	Zn	0.853123	-0.383763	0.249805
Zn6	Zn	1.353123	0.116237	0.749805
Zn7	Zn	0.853113	-0.545017	0.354539
Zn8	Zn	1.353113	-0.045017	0.854539
O9	O	0.905494	-0.464374	0.302195
O10	O	1.405494	0.035626	0.802195
O11	O	1.045576	-0.405085	0.340745
O12	O	1.545576	0.094915	0.840745
O13	O	0.943913	-0.523620	0.162152
O14	O	1.443913	-0.023620	0.662152
O15	O	0.867060	-0.248775	0.263722
O16	O	1.367060	0.251225	0.763722
O17	O	1.045519	-0.523576	0.263771
O18	O	1.545519	-0.023576	0.763771
O19	O	0.944045	-0.248742	0.340717
O20	O	1.444045	0.251258	0.840717
O21	O	0.866985	-0.405161	0.162131
O22	O	1.366985	0.094839	0.662131
O23	O	0.765444	-0.405181	0.263659
O24	O	1.265444	0.094819	0.763659
O25	O	0.867042	-0.523610	0.442225
O26	O	1.367042	-0.023610	0.942225
O27	O	0.765436	-0.523654	0.340606
O28	O	1.265436	-0.023654	0.840606
O29	O	0.944035	-0.405104	0.442273
O30	O	1.444035	0.094896	0.942273
O31	O	0.943903	-0.679982	0.263708
O32	O	1.443903	-0.179982	0.763708
O33	O	0.866967	-0.679996	0.340634
O34	O	1.366967	-0.179996	0.840634
C35	C	0.742706	-0.464425	0.302123
C36	C	1.242706	0.035575	0.802123
C37	C	0.673065	-0.464470	0.302106
C38	C	1.173065	0.035530	0.802106
C39	C	0.640364	-0.526240	0.342113
C40	C	1.140364	-0.026240	0.842113
C41	C	0.574929	-0.526217	0.342141
C42	C	1.074929	-0.026217	0.842141
C43	C	0.542197	-0.464433	0.302151
C44	C	1.042197	0.035567	0.802151
C45	C	0.574905	-0.402650	0.262142
C46	C	1.074905	0.097350	0.762142
C47	C	0.640339	-0.402669	0.262119
C48	C	1.140339	0.097331	0.762119
C49	C	0.438471	-0.456662	0.245745
C50	C	0.938471	0.043338	0.745745
C51	C	0.373038	-0.456650	0.245767
C52	C	0.873038	0.043350	0.745767
C53	C	0.340376	-0.464370	0.302220
C54	C	0.840376	0.035630	0.802220
C55	C	0.373155	-0.472121	0.358654
C56	C	0.873155	0.027879	0.858654
C57	C	0.438589	-0.472140	0.358632
C58	C	0.938589	0.027860	0.858632
C59	C	0.471244	-0.464405	0.302171
C60	C	0.971244	0.035595	0.802171
C61	C	0.236723	-0.526118	0.342260
C62	C	0.736723	-0.026118	0.842260
C63	C	0.171286	-0.526088	0.342289
C64	C	0.671286	-0.026088	0.842289
C65	C	0.171264	-0.402526	0.262285
C66	C	0.671264	0.097474	0.762285
C67	C	0.236699	-0.402551	0.262261
C68	C	0.736699	0.097449	0.762261
C69	C	0.269425	-0.464352	0.302248
C70	C	0.769425	0.035648	0.802248
C71	C	0.905443	-0.714988	0.302181
C72	C	1.405443	-0.214988	0.802181
C73	C	0.905478	-0.822202	0.302196
C74	C	1.405478	-0.322202	0.802196
C75	C	0.905509	-0.909272	0.302210
C76	C	1.405509	-0.409272	0.802210
C77	C	0.905553	-1.018504	0.302226
C78	C	1.405553	-0.518504	0.802226
C79	C	1.068917	-0.464323	0.302269
C80	C	1.568917	0.035677	0.802269
C81	C	1.138558	-0.464302	0.302300
C82	C	1.638558	0.035698	0.802300
C83	C	0.905546	-0.464354	0.465619
C84	C	1.405546	0.035646	0.965619
C85	C	0.905568	-0.464346	0.535260
C86	C	1.405568	0.035654	1.035260
C87	C	0.905562	-0.212781	0.302224
C88	C	1.405562	0.287219	0.802224
C89	C	0.905591	-0.105567	0.302236
C90	C	1.405591	0.394433	0.802236
C91	C	0.905478	-0.464324	0.139408
C92	C	1.405478	0.035676	0.639408
C93	C	0.905577	-0.464060	0.069767
C94	C	1.405577	0.035940	0.569767
C95	C	0.945656	-0.402637	0.567999
C96	C	1.445656	0.097363	1.067999
C97	C	0.945655	-0.402596	0.633434
C98	C	1.445655	0.097404	1.133434
C99	C	0.905573	-0.464280	0.666128
C100	C	1.405573	0.035720	1.166128
C101	C	0.865477	-0.525993	0.633381
C102	C	1.365477	-0.025993	1.133381
C103	C	0.865474	-0.526026	0.567947
C104	C	1.365474	-0.026026	1.067947
C105	C	0.900608	-0.551135	0.769796
C106	C	1.400608	-0.051135	1.269796
C107	C	0.900615	-0.551103	0.835229
C108	C	1.400615	-0.051103	1.335229
C109	C	0.905577	-0.464178	0.867949
C110	C	1.405577	0.035822	1.367949
C111	C	0.910545	-0.377282	0.835228
C112	C	1.410545	0.122718	1.335228
C113	C	0.910543	-0.377315	0.769794
C114	C	1.410543	0.122685	1.269794
C115	C	0.905571	-0.464251	0.737081
C116	C	1.405571	0.035749	1.237081
C117	C	0.945666	-0.402419	0.971641
C118	C	1.445666	0.097581	1.471641
C119	C	0.945661	-0.402376	1.037077
C120	C	1.445661	0.097624	1.537077
C121	C	0.865485	-0.525782	1.037023
C122	C	1.365485	-0.025782	1.537023
C123	C	0.865487	-0.525817	0.971588
C124	C	1.365487	-0.025817	1.471588
C125	C	0.905581	-0.464137	0.938901
C126	C	1.405581	0.035863	1.438901
H127	H	0.548299	-0.576517	0.374721
H128	H	1.048299	-0.076517	0.874721
H129	H	0.666964	-0.352365	0.229541
H130	H	1.166964	0.147635	0.729541
H131	H	0.978299	-0.352340	0.660096
H132	H	1.478299	0.147660	1.160096
H133	H	0.465275	-0.478449	0.404582
H134	H	0.965275	0.021551	0.904582
Br135	Br	0.281082	-0.318715	0.207963
Br136	Br	0.781082	0.181285	0.707963
H137	H	0.832839	-0.576214	0.660005
H138	H	1.332839	-0.076214	1.160005
Br139	Br	0.684775	-0.610110	0.396382
Br140	Br	1.184775	-0.110110	0.896382
Br141	Br	0.328837	-0.482596	0.435276
Br142	Br	0.828837	0.017404	0.935276
Br143	Br	0.893881	-0.669033	0.879630
Br144	Br	1.393881	-0.169033	1.379630
Br145	Br	0.126849	-0.318665	0.208018
Br146	Br	0.626849	0.181335	0.708018
H147	H	0.548250	-0.352343	0.229583
H148	H	1.048250	0.147657	0.729583
Br149	Br	1.000066	-0.318925	0.523640
Br150	Br	1.500066	0.181075	1.023640
Br151	Br	0.917285	-0.259303	0.879625
Br152	Br	1.417285	0.240697	1.379625
H153	H	0.144662	-0.576387	0.374871
H154	H	0.644662	-0.076387	0.874871
Br155	Br	0.281140	-0.609985	0.396529
Br156	Br	0.781140	-0.109985	0.896529
H157	H	0.832843	-0.575997	1.063642
H158	H	1.332843	-0.075997	1.563642
H159	H	0.346354	-0.450344	0.199815
H160	H	0.846354	0.049656	0.699815
Br161	Br	0.811080	-0.609571	0.927153
Br162	Br	1.311080	-0.109571	1.427153
H163	H	0.978310	-0.352190	0.945025
H164	H	1.478310	0.147810	1.445025
Br165	Br	0.893892	-0.669118	0.725397
Br166	Br	1.393892	-0.169118	1.225397
H167	H	0.465059	-0.450372	0.199771
H168	H	0.965059	0.049628	0.699771
H169	H	0.914586	-0.306560	0.743155
H170	H	1.414586	0.193440	1.243155
Br171	Br	1.000081	-0.318636	1.081511
Br172	Br	1.500081	0.181364	1.581511
H173	H	0.832826	-0.576275	0.541291
H174	H	1.332826	-0.076275	1.041291
