data_functionalizedCrystal
_audit_creation_method	'MofGen! by Chris Wilmer'
_symmetry_space_group_name_H-M	'P1'
_symmetry_Int_Tables_number	1
_symmetry_cell_setting	triclinic
loop_
_symmetry_equiv_pos_as_xyz
  x,y,z
_cell_length_a	31.640172
_cell_length_b	31.640172
_cell_length_c	19.377476
_cell_angle_alpha	75.520623
_cell_angle_beta	111.045825
_cell_angle_gamma	59.990533
loop_
_atom_site_label
_atom_site_type_symbol
_atom_site_fract_x
_atom_site_fract_y
_atom_site_fract_z
Zr1	Zr	0.462618	0.392798	0.093746
O2	O	0.550812	0.307862	0.207568
O3	O	0.374432	0.418841	0.058836
O4	O	0.462618	0.396046	0.207559
O5	O	0.462624	0.348631	-0.058451
O6	O	0.462609	0.465601	0.207572
O7	O	0.462626	0.330656	0.058845
O8	O	0.304860	0.506377	-0.058467
O9	O	0.620372	0.307856	0.207588
O10	O	0.410694	0.481850	0.043978
O11	O	0.410699	0.443356	-0.043568
O12	O	0.514527	0.416518	0.131535
O13	O	0.514532	0.378024	0.043989
Zr14	Zr	0.462599	0.532398	-0.093306
Zr15	Zr	0.462603	0.503731	0.093767
Zr16	Zr	0.462614	0.421466	-0.093327
Zr17	Zr	0.573558	0.392788	0.093778
Zr18	Zr	0.351659	0.532408	-0.093338
O19	O	0.550785	0.506356	-0.058396
O20	O	0.550791	0.465594	0.207598
O21	O	0.550806	0.348624	-0.058425
O22	O	0.374405	0.617334	-0.207128
O23	O	0.374411	0.576573	0.058865
O24	O	0.374426	0.459603	-0.207158
O25	O	0.462594	0.576565	0.058891
O26	O	0.462599	0.529150	-0.207119
O27	O	0.462608	0.459595	-0.207132
O28	O	0.462591	0.594540	-0.058405
O29	O	0.620361	0.396033	0.207605
O30	O	0.304856	0.529164	-0.207165
O31	O	0.304845	0.617340	-0.207148
O32	O	0.304848	0.594553	-0.058450
O33	O	0.620369	0.330643	0.058890
O34	O	0.620357	0.418820	0.058907
O35	O	0.410690	0.508678	-0.131095
O36	O	0.410685	0.547172	-0.043549
O37	O	0.514518	0.481841	0.044008
O38	O	0.514523	0.443347	-0.043538
C39	C	0.323839	0.462610	0.000180
C40	C	0.276742	0.462614	0.000166
C41	C	0.023074	0.414372	0.064859
C42	C	-0.153907	0.414365	0.064883
O43	O	-0.144195	0.373361	0.119867
N44	N	-0.214365	0.462589	0.000259
C45	C	-0.230579	0.510819	-0.064371
O46	O	-0.286063	0.551839	-0.119332
C47	C	-0.053598	0.510828	-0.064391
C48	C	0.006861	0.462599	0.000231
C49	C	0.083530	0.366147	0.129477
C50	C	0.127772	0.366149	0.129467
C51	C	0.111559	0.414375	0.064840
C52	C	0.051103	0.462600	0.000222
C53	C	-0.069812	0.559060	-0.129018
C54	C	-0.025560	0.559058	-0.129016
C55	C	0.034899	0.510829	-0.064393
C56	C	0.079132	0.510827	-0.064415
N57	N	0.139590	0.462604	0.000209
C58	C	0.155804	0.414377	0.064836
C59	C	-0.323493	0.510811	-0.064357
C60	C	-0.367739	0.510808	-0.064354
C61	C	-0.291063	0.414354	0.064902
C62	C	-0.246818	0.414356	0.064894
C63	C	-0.263035	0.462587	0.000266
C64	C	0.248713	0.414383	0.064811
C65	C	0.292956	0.414388	0.064794
C66	C	0.216277	0.510843	-0.064459
C67	C	0.172038	0.510838	-0.064445
C68	C	0.188260	0.462604	0.000198
O69	O	0.069464	0.551813	-0.119364
O70	O	0.211291	0.373369	0.119800
C71	C	-0.021168	0.414371	0.064868
C72	C	-0.081624	0.462596	0.000250
C73	C	-0.097837	0.510823	-0.064377
C74	C	-0.125869	0.462594	0.000254
C75	C	-0.109655	0.414368	0.064882
C76	C	-0.049197	0.366144	0.129505
C77	C	-0.004954	0.366145	0.129496
C78	C	-0.158296	0.559047	-0.129001
C79	C	-0.202535	0.559041	-0.128987
C80	C	-0.186321	0.510815	-0.064359
C81	C	0.462627	0.323838	0.000194
C82	C	0.462633	0.276745	0.000185
C83	C	0.462595	-0.049629	-0.064414
C84	C	0.462612	0.127354	-0.064428
O85	O	0.462589	0.158672	-0.119405
N86	N	0.462616	0.139586	0.000191
C87	C	0.462612	0.107571	0.064815
O88	O	0.462609	0.122039	0.119772
C89	C	0.462590	-0.069409	0.064824
C90	C	0.462593	-0.081642	0.000206
C91	C	0.462597	-0.061862	-0.129028
C92	C	0.462596	-0.106108	-0.129021
C93	C	0.462593	-0.138120	-0.064401
C94	C	0.462592	-0.125887	0.000213
C95	C	0.462582	-0.101421	0.129444
C96	C	0.462575	-0.145667	0.129439
C97	C	0.462577	-0.157899	0.064821
C98	C	0.462588	-0.202145	0.064840
N99	N	0.462584	-0.214377	0.000221
C100	C	0.462587	-0.182364	-0.064400
C101	C	0.462624	0.200488	0.064807
C102	C	0.462631	0.244732	0.064806
C103	C	0.462630	0.264513	-0.064439
C104	C	0.462628	0.220266	-0.064433
C105	C	0.462620	0.188256	0.000188
C106	C	0.462585	-0.275284	-0.064380
C107	C	0.462587	-0.319536	-0.064366
C108	C	0.462584	-0.339311	0.064876
C109	C	0.462586	-0.295065	0.064864
C110	C	0.462584	-0.263051	0.000229
O111	O	0.462604	-0.233481	0.119783
O112	O	0.462576	-0.196833	-0.119360
C113	C	0.462596	-0.005384	-0.064421
C114	C	0.462595	0.006849	0.000192
C115	C	0.462592	-0.025163	0.064813
C116	C	0.462601	0.051093	0.000191
C117	C	0.462604	0.083106	-0.064429
C118	C	0.462600	0.070874	-0.129048
C119	C	0.462599	0.026629	-0.129042
C120	C	0.462596	-0.012932	0.129432
C121	C	0.462597	0.031314	0.129421
C122	C	0.462600	0.063327	0.064800
C123	C	0.601378	0.462586	0.000260
C124	C	0.648475	0.462582	0.000274
C125	C	0.462614	0.426739	0.234220
C126	C	0.462616	0.414569	0.313637
C127	C	0.462590	0.601358	0.000246
C128	C	0.462584	0.648452	0.000255
C129	C	0.462592	0.566122	0.574885
C130	C	0.462595	0.554672	0.649511
C131	C	0.462605	0.478040	0.649478
C132	C	0.462605	0.489481	0.574854
C133	C	0.462598	0.533523	0.537562
C134	C	0.462611	0.456882	0.537531
C135	C	0.462608	0.468325	0.462910
C136	C	0.462599	0.512366	0.425612
C137	C	0.462595	0.544965	0.462942
C138	C	0.462614	0.412843	0.574820
C139	C	0.462620	0.380244	0.537497
C140	C	0.462621	0.391684	0.462878
C141	C	0.462613	0.435725	0.425581
C142	C	0.462626	0.359084	0.425549
C143	C	0.462623	0.370527	0.350928
C144	C	0.462610	0.447168	0.350960
C145	C	0.462603	0.498461	0.766220
C146	C	0.462600	0.510641	0.686802
C147	C	0.323821	0.601370	0.000206
C148	C	0.276718	0.648468	0.000201
C149	C	0.323834	0.498469	-0.233820
C150	C	0.276735	0.510643	-0.313251
C151	C	0.323816	0.637229	-0.233794
C152	C	0.276710	0.696497	-0.313216
C153	C	0.601402	0.287967	0.234234
C154	C	0.648507	0.228699	0.313656
C155	C	0.601396	0.323826	0.000234
C156	C	0.648500	0.276729	0.000239
C157	C	0.601383	0.426727	0.234260
C158	C	0.648482	0.414553	0.313691
C159	C	0.254602	0.636486	0.045895
C160	C	0.210350	0.680733	0.045908
C161	C	0.188210	0.736961	0.000221
C162	C	0.210330	0.748942	-0.045474
C163	C	0.254585	0.704695	-0.045481
C164	C	0.254612	0.550459	-0.396248
C165	C	0.210364	0.561898	-0.470889
C166	C	0.188236	0.533522	-0.462531
C167	C	0.210364	0.493701	-0.379524
C168	C	0.254614	0.482261	-0.304885
C169	C	0.254587	0.744428	-0.304815
C170	C	0.210333	0.800120	-0.379434
C171	C	0.188200	0.807879	-0.462452
C172	C	0.210328	0.759943	-0.470851
C173	C	0.254584	0.704252	-0.396233
C174	C	0.670636	0.180768	0.305255
C175	C	0.714903	0.125077	0.379874
C176	C	0.737038	0.117317	0.462892
C177	C	0.714908	0.165254	0.471291
C178	C	0.670644	0.220944	0.396673
C179	C	0.670620	0.288709	-0.045447
C180	C	0.714884	0.244459	-0.045439
C181	C	0.737025	0.188230	0.000250
C182	C	0.714903	0.176250	0.045941
C183	C	0.670642	0.220499	0.045938
C184	C	0.670596	0.442938	0.305304
C185	C	0.714844	0.431510	0.379931
C186	C	0.736981	0.391694	0.462943
C187	C	0.714863	0.363308	0.471328
C188	C	0.670613	0.374739	0.396702
H189	H	0.096742	0.326874	0.182109
H190	H	0.652627	0.259969	0.403524
H191	H	0.192345	0.670967	0.083118
O192	O	0.649096	0.208848	0.090198
C193	C	0.623527	0.186684	0.056589
H194	H	0.610242	0.201057	-0.013064
H195	H	0.582202	0.203466	0.056696
H196	H	0.657458	0.137607	0.098956
H197	H	0.272620	0.449841	-0.237308
H198	H	0.272592	0.665228	-0.403086
H199	H	0.192298	0.794728	-0.082670
O200	O	0.275992	0.737001	-0.224243
C201	C	0.246935	0.791255	-0.232847
H202	H	0.228749	0.825052	-0.299397
H203	H	0.280103	0.789211	-0.179259
H204	H	0.208460	0.803373	-0.226843
O205	O	0.462777	0.489842	0.314883
C206	C	0.514299	0.466292	0.315208
H207	H	0.550233	0.418440	0.367986
H208	H	0.531653	0.489362	0.329082
H209	H	0.502673	0.472030	0.248820
H210	H	0.462605	0.096944	-0.181663
H211	H	0.192321	0.839145	-0.372580
H212	H	0.462593	0.601981	0.544527
O213	O	0.736463	0.121620	0.090453
C214	C	0.762053	0.102267	0.179656
H215	H	0.775334	0.127801	0.195860
H216	H	0.803383	0.054539	0.220981
H217	H	0.728136	0.108810	0.194258
O218	O	0.649201	0.343290	-0.089847
C219	C	0.678214	0.344366	-0.130180
H220	H	0.723075	0.299384	-0.094329
H221	H	0.685834	0.375725	-0.127714
H222	H	0.649195	0.358860	-0.201111
H223	H	0.192301	0.766270	-0.538454
H224	H	0.652579	0.475359	0.237718
H225	H	0.272586	0.714459	-0.082695
H226	H	0.462589	0.581222	0.679895
O227	O	0.736476	0.078455	0.371859
C228	C	0.780284	0.027632	0.455514
H229	H	0.799648	0.037284	0.504992
H230	H	0.817507	-0.006359	0.454671
H231	H	0.759122	0.010876	0.474523
H232	H	0.192341	0.470600	-0.372732
O233	O	0.145188	0.862019	-0.534842
C234	C	0.130421	0.902656	-0.509614
H235	H	0.142623	0.881933	-0.440732
H236	H	0.080401	0.941137	-0.556755
H237	H	0.156296	0.917759	-0.510955
O238	O	0.649229	0.188196	0.224683
C239	C	0.678254	0.133941	0.233287
H240	H	0.723109	0.100138	0.299888
H241	H	0.685886	0.135977	0.179777
H242	H	0.649238	0.121838	0.227154
O243	O	0.736282	0.459114	0.371619
C244	C	0.707247	0.496710	0.282346
H245	H	0.689018	0.481547	0.242560
H246	H	0.740442	0.496840	0.271948
H247	H	0.668805	0.542142	0.260343
O248	O	0.779951	0.380541	0.535521
C249	C	0.794765	0.339299	0.610595
H250	H	0.755960	0.339884	0.593477
H251	H	0.803961	0.349991	0.663292
H252	H	0.836352	0.294675	0.635722
H253	H	0.462592	-0.038993	0.182053
H254	H	0.462584	-0.365384	0.117491
H255	H	0.272624	0.573569	-0.403071
H256	H	0.773081	0.071967	0.523643
H257	H	0.732936	0.158928	0.538893
O258	O	0.736351	0.256051	-0.089901
C259	C	0.725528	0.241918	-0.154052
H260	H	0.720041	0.208807	-0.134841
H261	H	0.764829	0.223130	-0.159593
H262	H	0.682962	0.282387	-0.219596
O263	O	0.188919	0.600619	-0.551449
C264	C	0.217946	0.623202	-0.542811
H265	H	0.236176	0.618355	-0.476212
H266	H	0.184745	0.670768	-0.596324
H267	H	0.256387	0.598746	-0.548913
H268	H	0.462601	0.016673	-0.181660
H269	H	0.462590	-0.329494	-0.116986
O270	O	-0.188118	0.367470	0.127758
C271	C	-0.183304	0.324901	0.184780
H272	H	-0.226085	0.346020	0.181701
H273	H	-0.143711	0.301873	0.254321
H274	H	-0.176224	0.292388	0.164431
H275	H	0.152205	0.542843	-0.523314
O276	O	0.736279	0.324701	0.551951
C277	C	0.689061	0.343143	0.561520
H278	H	0.651431	0.391687	0.514263
H279	H	0.705951	0.332380	0.631324
H280	H	0.671621	0.320277	0.546712
H281	H	0.773065	0.152206	0.000245
H282	H	0.652613	0.351621	0.403543
H283	H	0.342185	0.375111	0.117416
H284	H	0.261930	0.375108	0.117450
H285	H	0.176998	0.326878	0.182097
H286	H	-0.277868	0.375087	0.117525
H287	H	-0.336708	0.550089	-0.116988
O288	O	-0.426446	0.557660	-0.127247
C289	C	-0.438958	0.567899	-0.209979
H290	H	-0.395931	0.547819	-0.206077
H291	H	-0.472509	0.616312	-0.259334
H292	H	-0.458551	0.547849	-0.231427
O293	O	-0.128507	0.605970	-0.191829
C294	C	-0.133316	0.648526	-0.248869
H295	H	-0.090529	0.641353	-0.214046
H296	H	-0.172900	0.692959	-0.269716
H297	H	-0.140407	0.645679	-0.308969
H298	H	0.122808	0.550106	-0.117074
O299	O	-0.041242	0.605848	-0.191821
C300	C	-0.017963	0.589650	-0.239132
H301	H	0.021950	0.541414	-0.197501
H302	H	-0.003077	0.614358	-0.256727
H303	H	-0.053937	0.600081	-0.301422
H304	H	0.044271	0.326871	0.182117
O305	O	0.200608	0.557625	-0.127254
C306	C	0.223892	0.541425	-0.174558
H307	H	0.263798	0.493187	-0.132930
H308	H	0.238790	0.566125	-0.192135
H309	H	0.187918	0.551864	-0.236859
H310	H	0.462600	0.041266	0.182048
O311	O	-0.033513	0.319288	0.192164
C312	C	-0.056804	0.297311	0.152593
H313	H	-0.096723	0.332829	0.082015
H314	H	-0.071685	0.281177	0.189711
H315	H	-0.020840	0.260157	0.154055
O316	O	0.462533	0.435324	0.685719
C317	C	0.411031	0.458814	0.685437
H318	H	0.393854	0.501174	0.682148
H319	H	0.422617	0.427264	0.747672
H320	H	0.374976	0.466998	0.626267
H321	H	-0.251764	0.598316	-0.181618
H322	H	-0.171507	0.598320	-0.181628
H323	H	0.462594	0.521683	0.364849
H324	H	0.462592	-0.285112	0.117490
O325	O	0.462699	-0.244276	-0.127085
C326	C	0.514193	-0.281491	-0.122964
H327	H	0.550176	-0.322089	-0.054796
H328	H	0.531489	-0.258792	-0.137695
H329	H	0.502553	-0.293684	-0.173068
O330	O	0.462564	-0.117890	-0.191885
C331	C	0.462579	-0.080148	-0.248903
H332	H	0.443762	-0.039668	-0.245820
H333	H	0.433705	-0.067838	-0.318446
H334	H	0.510280	-0.102420	-0.228553
H335	H	0.272627	0.590704	0.083109
O336	O	0.462682	-0.030781	-0.191691
C337	C	0.514191	-0.037020	-0.152136
H338	H	0.531356	-0.049775	-0.081557
H339	H	0.502619	0.005564	-0.189263
H340	H	0.550250	-0.071892	-0.153604
H341	H	0.462629	0.210310	-0.117051
H342	H	0.462634	0.290585	-0.117054
H343	H	0.462618	0.174427	0.117431
O344	O	0.462609	0.256549	0.127623
C345	C	0.462619	0.218793	0.184666
H346	H	0.443791	0.202002	0.149842
H347	H	0.433751	0.242823	0.205517
H348	H	0.510320	0.181025	0.244762
H349	H	0.462579	-0.091468	0.182062
O350	O	0.462548	0.337529	0.573738
C351	C	0.411046	0.361019	0.573456
H352	H	0.393869	0.403379	0.570167
H353	H	0.422633	0.329469	0.635690
H354	H	0.374991	0.369203	0.514286
H355	H	0.462567	-0.171727	0.182061
O356	O	0.462549	0.316372	0.461787
C357	C	0.411043	0.339869	0.461498
H358	H	0.393871	0.382229	0.458209
H359	H	0.422624	0.308323	0.523729
H360	H	0.374987	0.348056	0.402324
O361	O	0.462578	0.587733	0.426584
C362	C	0.411108	0.629068	0.339980
H363	H	0.393879	0.608361	0.314298
H364	H	0.422757	0.645957	0.297323
H365	H	0.375068	0.666312	0.338288
O366	O	0.462658	0.338789	0.314804
C367	C	0.462652	0.297471	0.363708
H368	H	0.481476	0.288703	0.432778
H369	H	0.491525	0.255815	0.366476
H370	H	0.414953	0.314483	0.331414
O371	O	0.462696	0.401624	0.647374
C372	C	0.514202	0.344385	0.715723
H373	H	0.531370	0.317801	0.687188
H374	H	0.502622	0.325181	0.755870
H375	H	0.550260	0.343886	0.759381
H376	H	0.152175	0.772985	0.000234
