data_functionalizedCrystal
_audit_creation_method	'MofGen! by Chris Wilmer'
_symmetry_space_group_name_H-M	'P1'
_symmetry_Int_Tables_number	1
_symmetry_cell_setting	triclinic
loop_
_symmetry_equiv_pos_as_xyz
  x,y,z
_cell_length_a	18.050589
_cell_length_b	16.625548
_cell_length_c	16.625539
_cell_angle_alpha	89.979432
_cell_angle_beta	90.024824
_cell_angle_gamma	89.970711
loop_
_atom_site_label
_atom_site_type_symbol
_atom_site_fract_x
_atom_site_fract_y
_atom_site_fract_z
Zn1	Zn	-0.295637	-1.232648	0.455929
Zn2	Zn	-0.045637	-0.982648	0.705929
Zn3	Zn	0.204363	-0.732648	0.955929
Zn4	Zn	0.454363	-0.482648	1.205929
Zn5	Zn	-0.419835	-1.232538	0.321104
Zn6	Zn	-0.169835	-0.982538	0.571104
Zn7	Zn	0.080165	-0.732538	0.821104
Zn8	Zn	0.330165	-0.482538	1.071104
Zn9	Zn	-0.295665	-1.097810	0.321109
Zn10	Zn	-0.045665	-0.847810	0.571109
Zn11	Zn	0.204335	-0.597810	0.821109
Zn12	Zn	0.454335	-0.347810	1.071109
Zn13	Zn	-0.419792	-1.097767	0.455894
Zn14	Zn	-0.169792	-0.847767	0.705894
Zn15	Zn	0.080208	-0.597767	0.955894
Zn16	Zn	0.330208	-0.347767	1.205894
O17	O	-0.357732	-1.165191	0.388509
O18	O	-0.107732	-0.915191	0.638509
O19	O	0.142268	-0.665191	0.888509
O20	O	0.392268	-0.415191	1.138509
O21	O	-0.312118	-1.345466	0.438056
O22	O	-0.062118	-1.095466	0.688056
O23	O	0.187882	-0.845466	0.938056
O24	O	0.437882	-0.595466	1.188056
O25	O	-0.403393	-1.214638	0.208272
O26	O	-0.153393	-0.964638	0.458272
O27	O	0.096607	-0.714638	0.708272
O28	O	0.346607	-0.464638	0.958272
O29	O	-0.191737	-1.115761	0.339010
O30	O	0.058263	-0.865761	0.589010
O31	O	0.308263	-0.615761	0.839010
O32	O	0.558263	-0.365761	1.089010
O33	O	-0.403366	-1.345385	0.339001
O34	O	-0.153366	-1.095385	0.589001
O35	O	0.096634	-0.845385	0.839001
O36	O	0.346634	-0.595385	1.089001
O37	O	-0.191716	-1.214826	0.438061
O38	O	0.058284	-0.964826	0.688061
O39	O	0.308284	-0.714826	0.938061
O40	O	0.558284	-0.464826	1.188061
O41	O	-0.312166	-1.115654	0.208276
O42	O	-0.062166	-0.865654	0.458276
O43	O	0.187834	-0.615654	0.708276
O44	O	0.437834	-0.365654	0.958276
O45	O	-0.312125	-0.984972	0.338976
O46	O	-0.062125	-0.734972	0.588976
O47	O	0.187875	-0.484972	0.838976
O48	O	0.437875	-0.234972	1.088976
O49	O	-0.403293	-1.115687	0.568731
O50	O	-0.153293	-0.865687	0.818731
O51	O	0.096707	-0.615687	1.068731
O52	O	0.346707	-0.365687	1.318731
O53	O	-0.403320	-0.984940	0.438002
O54	O	-0.153320	-0.734940	0.688002
O55	O	0.096680	-0.484940	0.938002
O56	O	0.346680	-0.234940	1.188002
O57	O	-0.312077	-1.214784	0.568757
O58	O	-0.062077	-0.964784	0.818757
O59	O	0.187923	-0.714784	1.068757
O60	O	0.437923	-0.464784	1.318757
O61	O	-0.523754	-1.214596	0.338968
O62	O	-0.273754	-0.964596	0.588968
O63	O	-0.023754	-0.714596	0.838968
O64	O	0.226246	-0.464596	1.088968
O65	O	-0.523722	-1.115580	0.437997
O66	O	-0.273722	-0.865580	0.687997
O67	O	-0.023722	-0.615580	0.937997
O68	O	0.226278	-0.365580	1.187997
C69	C	-0.550684	-1.165093	0.388496
C70	C	-0.300684	-0.915093	0.638496
C71	C	-0.050684	-0.665093	0.888496
C72	C	0.199316	-0.415093	1.138496
C73	C	-0.633230	-1.165126	0.388517
C74	C	-0.383230	-0.915126	0.638517
C75	C	-0.133230	-0.665126	0.888517
C76	C	0.116770	-0.415126	1.138517
C77	C	-0.357722	-0.955700	0.388487
C78	C	-0.107722	-0.705700	0.638487
C79	C	0.142278	-0.455700	0.888487
C80	C	0.392278	-0.205700	1.138487
C81	C	-0.357735	-0.866079	0.388496
C82	C	-0.107735	-0.616079	0.638496
C83	C	0.142265	-0.366079	0.888496
C84	C	0.392265	-0.116079	1.138496
C85	C	-0.357677	-1.165243	0.598818
C86	C	-0.107677	-0.915243	0.848818
C87	C	0.142323	-0.665243	1.098818
C88	C	0.392323	-0.415243	1.348818
C89	C	-0.357653	-1.165266	0.688439
C90	C	-0.107653	-0.915266	0.938439
C91	C	0.142347	-0.665266	1.188439
C92	C	0.392347	-0.415266	1.438439
C93	C	-0.832691	-1.111334	0.442350
C94	C	-0.582691	-0.861334	0.692350
C95	C	-0.332691	-0.611334	0.942350
C96	C	-0.082691	-0.361334	1.192350
C97	C	-0.882133	-1.091677	0.368775
C98	C	-0.632133	-0.841677	0.618775
C99	C	-0.382133	-0.591677	0.868775
C100	C	-0.132133	-0.341677	1.118775
C101	C	-0.784360	-1.165205	0.388528
C102	C	-0.534360	-0.915205	0.638528
C103	C	-0.284360	-0.665205	0.888528
C104	C	-0.034360	-0.415205	1.138528
C105	C	-0.882000	-1.184901	0.462112
C106	C	-0.632000	-0.934901	0.712112
C107	C	-0.382000	-0.684901	0.962112
C108	C	-0.132000	-0.434901	1.212112
C109	C	-0.930346	-1.165280	0.388544
C110	C	-0.680346	-0.915280	0.638544
C111	C	-0.430346	-0.665280	0.888544
C112	C	-0.180346	-0.415280	1.138544
C113	C	-0.832715	-1.145510	0.314913
C114	C	-0.582715	-0.895510	0.564913
C115	C	-0.332715	-0.645510	0.814913
C116	C	-0.082715	-0.395510	1.064913
C117	C	-0.832578	-1.238767	0.408300
C118	C	-0.582578	-0.988767	0.658300
C119	C	-0.332578	-0.738767	0.908300
C120	C	-0.082578	-0.488767	1.158300
C121	C	-0.881998	-1.219139	0.334673
C122	C	-0.631998	-0.969139	0.584673
C123	C	-0.381998	-0.719139	0.834673
C124	C	-0.131998	-0.469139	1.084673
C125	C	-0.700262	-1.165160	0.388519
C126	C	-0.450262	-0.915160	0.638519
C127	C	-0.200262	-0.665160	0.888519
C128	C	0.049738	-0.415160	1.138519
C129	C	-1.014442	-1.165325	0.388544
C130	C	-0.764442	-0.915325	0.638544
C131	C	-0.514442	-0.665325	0.888544
C132	C	-0.264442	-0.415325	1.138544
C133	C	-0.164027	-1.165310	0.388540
C134	C	0.085973	-0.915310	0.638540
C135	C	0.335973	-0.665310	0.888540
C136	C	0.585973	-0.415310	1.138540
C137	C	-0.081481	-1.165361	0.388553
C138	C	0.168519	-0.915361	0.638553
C139	C	0.418519	-0.665361	0.888553
C140	C	0.668519	-0.415361	1.138553
C141	C	-0.357743	-1.375500	0.388532
C142	C	-0.107743	-1.125500	0.638532
C143	C	0.142257	-0.875500	0.888532
C144	C	0.392257	-0.625500	1.138532
C145	C	-0.357748	-1.465121	0.388542
C146	C	-0.107748	-1.215121	0.638542
C147	C	0.142252	-0.965121	0.888542
C148	C	0.392252	-0.715121	1.138542
C149	C	-0.357740	-0.537903	0.388531
C150	C	-0.107740	-0.287903	0.638531
C151	C	0.142260	-0.037903	0.888531
C152	C	0.392260	0.212097	1.138531
C153	C	-0.357736	-0.629212	0.388518
C154	C	-0.107736	-0.379212	0.638518
C155	C	0.142264	-0.129212	0.888518
C156	C	0.392264	0.120788	1.138518
C157	C	-0.357738	-0.701988	0.388513
C158	C	-0.107738	-0.451988	0.638513
C159	C	0.142262	-0.201988	0.888513
C160	C	0.392262	0.048012	1.138513
C161	C	-0.357734	-0.793302	0.388502
C162	C	-0.107734	-0.543302	0.638502
C163	C	0.142266	-0.293302	0.888502
C164	C	0.392266	-0.043302	1.138502
C165	C	-0.357734	-1.165185	0.179018
C166	C	-0.107734	-0.915185	0.429018
C167	C	0.142266	-0.665185	0.679018
C168	C	0.392266	-0.415185	0.929018
C169	C	-0.357548	-1.165319	0.089398
C170	C	-0.107548	-0.915319	0.339398
C171	C	0.142452	-0.665319	0.589398
C172	C	0.392452	-0.415319	0.839398
C173	C	-0.357570	-1.165303	1.016615
C174	C	-0.107570	-0.915303	1.266615
C175	C	0.142430	-0.665303	1.516615
C176	C	0.392430	-0.415303	1.766615
C177	C	-0.357596	-1.165290	0.925307
C178	C	-0.107596	-0.915290	1.175307
C179	C	0.142404	-0.665290	1.425307
C180	C	0.392404	-0.415290	1.675307
C181	C	-0.357612	-1.165285	0.852530
C182	C	-0.107612	-0.915285	1.102530
C183	C	0.142388	-0.665285	1.352530
C184	C	0.392388	-0.415285	1.602530
C185	C	-0.357637	-1.165271	0.761216
C186	C	-0.107637	-0.915271	1.011216
C187	C	0.142363	-0.665271	1.261216
C188	C	0.392363	-0.415271	1.511216
H189	H	-0.903916	-1.029503	0.352066
H190	H	-0.653916	-0.779503	0.602066
H191	H	-0.403916	-0.529503	0.852066
H192	H	-0.153916	-0.279503	1.102066
O193	O	-0.910499	-1.279528	0.274325
O194	O	-0.660499	-1.029528	0.524325
O195	O	-0.410499	-0.779528	0.774325
O196	O	-0.160499	-0.529528	1.024325
H197	H	-0.944281	-1.325561	0.305806
H198	H	-0.694281	-1.075561	0.555806
H199	H	-0.444281	-0.825561	0.805806
H200	H	-0.194281	-0.575561	1.055806
O201	O	-0.804001	-1.050901	0.502551
O202	O	-0.554001	-0.800901	0.752551
O203	O	-0.304001	-0.550901	1.002551
O204	O	-0.054001	-0.300901	1.252551
H205	H	-0.824595	-1.066660	0.563445
H206	H	-0.574595	-0.816660	0.813445
H207	H	-0.324595	-0.566660	1.063445
H208	H	-0.074595	-0.316660	1.313445
H209	H	-0.811156	-1.128809	0.252673
H210	H	-0.561156	-0.878809	0.502673
H211	H	-0.311156	-0.628809	0.752673
H212	H	-0.061156	-0.378809	1.002673
O213	O	-0.803887	-1.321198	0.430382
O214	O	-0.553887	-1.071198	0.680382
O215	O	-0.303887	-0.821198	0.930382
O216	O	-0.053887	-0.571198	1.180382
H217	H	-0.823650	-1.337417	0.491480
H218	H	-0.573650	-1.087417	0.741480
H219	H	-0.323650	-0.837417	0.991480
H220	H	-0.073650	-0.587417	1.241480
H221	H	-0.903649	-1.201530	0.524335
H222	H	-0.653649	-0.951530	0.774335
H223	H	-0.403649	-0.701530	1.024335
H224	H	-0.153649	-0.451530	1.274335
