data_functionalizedCrystal
_audit_creation_method	'MofGen! by Chris Wilmer'
_symmetry_space_group_name_H-M	'P1'
_symmetry_Int_Tables_number	1
_symmetry_cell_setting	triclinic
loop_
_symmetry_equiv_pos_as_xyz
  x,y,z
_cell_length_a	15.995350
_cell_length_b	15.995350
_cell_length_c	8.140239
_cell_angle_alpha	89.998714
_cell_angle_beta	90.000925
_cell_angle_gamma	83.492375
loop_
_atom_site_label
_atom_site_type_symbol
_atom_site_fract_x
_atom_site_fract_y
_atom_site_fract_z
O1	O	1.110984	0.107925	-0.136466
O2	O	0.867208	0.121253	-0.136499
O3	O	0.995760	-0.007299	-0.136480
O4	O	0.982432	0.236477	-0.136485
O5	O	0.995753	-0.007300	0.136747
O6	O	0.867201	0.121251	0.136728
O7	O	1.110976	0.107924	0.136761
Zn8	Zn	0.989088	0.114587	0.180125
Zn9	Zn	0.989097	0.114589	-0.179863
O10	O	0.982425	0.236475	0.136742
C11	C	0.836010	0.120701	0.000110
C12	C	0.743060	0.119049	0.000098
C13	C	0.405312	0.113117	0.000132
C14	C	0.452746	0.021565	0.000743
C15	C	0.549436	0.023217	0.000116
C16	C	0.572873	0.116060	0.000116
C17	C	0.531790	0.161217	-0.155905
C18	C	0.435154	0.158917	-0.156024
C19	C	0.434807	0.160807	0.154687
C20	C	0.531752	0.160785	0.156737
C21	C	0.667570	0.117727	0.000101
C22	C	0.310614	0.111452	0.000135
C23	C	0.995205	-0.038494	0.000130
C24	C	0.993553	-0.131444	0.000121
C25	C	0.987621	-0.469192	0.000126
C26	C	0.896069	-0.421758	-0.000500
C27	C	0.897721	-0.325068	0.000116
C28	C	0.990564	-0.301631	0.000122
C29	C	1.035716	-0.342710	0.156152
C30	C	1.033416	-0.439345	0.156282
C31	C	1.035316	-0.439702	-0.154428
C32	C	1.035294	-0.342757	-0.156490
C33	C	0.992231	-0.206934	0.000126
C34	C	0.985956	-0.563890	0.000133
C35	C	1.142175	0.108476	0.000148
C36	C	1.235125	0.110127	0.000150
C37	C	0.982980	0.267671	0.000128
C38	C	0.984631	0.360621	0.000127
N39	N	0.989087	0.114586	0.425808
N40	N	0.989104	0.114584	-0.425546
H41	H	0.559066	0.127821	0.272161
Cl42	Cl	1.141026	-0.320903	0.165127
Cl43	Cl	0.406888	0.108075	-0.336087
H44	H	1.005386	-0.460241	-0.272689
Cl45	Cl	0.987290	-0.298897	0.335418
H46	H	1.000485	-0.457647	0.272912
Cl47	Cl	0.839572	-0.450366	-0.173254
Cl48	Cl	1.137189	-0.489138	0.167242
H49	H	0.434221	-0.015031	0.112632
Cl50	Cl	0.422496	-0.034681	-0.171038
H51	H	0.577297	-0.012517	-0.111919
H52	H	0.859636	-0.441353	0.110759
Cl53	Cl	0.984744	-0.300196	-0.334729
H54	H	0.547117	0.228489	0.166161
Cl55	Cl	0.385771	0.265022	0.156318
Cl56	Cl	1.139530	-0.488739	-0.156046
H57	H	0.414268	0.130876	0.272947
H58	H	0.560167	0.129854	-0.272018
H59	H	0.862228	-0.296645	-0.111732
Cl60	Cl	0.385361	0.262690	-0.166960
H61	H	0.861984	-0.297204	0.112146
H62	H	0.545915	0.229426	-0.161706
H63	H	0.577862	-0.012279	0.111958
Cl64	Cl	1.139825	-0.319036	-0.171041
