data_functionalizedCrystal
_audit_creation_method	'MofGen! by Chris Wilmer'
_symmetry_space_group_name_H-M	'P1'
_symmetry_Int_Tables_number	1
_symmetry_cell_setting	triclinic
loop_
_symmetry_equiv_pos_as_xyz
  x,y,z
_cell_length_a	18.101398
_cell_length_b	18.101395
_cell_length_c	11.169409
_cell_angle_alpha	90.038518
_cell_angle_beta	90.018516
_cell_angle_gamma	90.030104
loop_
_atom_site_label
_atom_site_type_symbol
_atom_site_fract_x
_atom_site_fract_y
_atom_site_fract_z
Zn1	Zn	1.132147	-0.294806	0.678449
Zn2	Zn	1.132032	-0.418673	0.477744
Zn3	Zn	1.008297	-0.294845	0.477788
Zn4	Zn	1.008255	-0.418606	0.678394
O5	O	1.070183	-0.356733	0.578094
O6	O	1.235765	-0.311249	0.651830
O7	O	1.115588	-0.402291	0.309800
O8	O	1.024792	-0.191207	0.504448
O9	O	1.235680	-0.402253	0.504373
O10	O	1.115784	-0.191178	0.651872
O11	O	1.024680	-0.311316	0.309832
O12	O	0.904659	-0.311251	0.504394
O13	O	1.024720	-0.402140	0.846351
O14	O	0.904628	-0.402178	0.651778
O15	O	1.115743	-0.311184	0.846392
O16	O	1.115547	-0.522297	0.504320
O17	O	1.024609	-0.522248	0.651736
C18	C	0.877772	-0.356712	0.578086
C19	C	0.795458	-0.356721	0.578111
C20	C	1.070081	-0.549143	0.578043
C21	C	1.070105	-0.631457	0.578062
C22	C	0.644750	-0.356735	0.578109
C23	C	0.613401	-0.414032	0.670695
C24	C	0.527783	-0.414264	0.670421
C25	C	0.496367	-0.356749	0.578109
C26	C	0.527414	-0.377588	0.451469
C27	C	0.613059	-0.377996	0.452005
C28	C	0.613231	-0.278458	0.611056
C29	C	0.527581	-0.278886	0.613845
C30	C	0.412508	-0.356755	0.578101
C31	C	0.728609	-0.356731	0.578108
C32	C	1.070190	-0.782166	0.578109
C33	C	1.012944	-0.813520	0.670788
C34	C	1.013161	-0.899138	0.671179
C35	C	1.070272	-0.930548	0.578156
C36	C	1.148349	-0.899364	0.612172
C37	C	1.147970	-0.813720	0.612818
C38	C	1.050059	-0.813815	0.451192
C39	C	1.048385	-0.899467	0.451895
C40	C	1.070324	-1.014408	0.578181
C41	C	1.070144	-0.698306	0.578088
C42	C	1.263345	-0.356754	0.578103
C43	C	1.345659	-0.356763	0.578107
C44	C	1.070240	-0.356650	0.891137
C45	C	1.070264	-0.356615	1.024537
C46	C	1.070305	-0.163571	0.578171
C47	C	1.070358	-0.081257	0.578204
C48	C	1.070169	-0.356761	0.266269
C49	C	1.070288	-0.356588	0.132870
H50	H	0.506793	-0.401263	0.764306
H51	H	0.507065	-0.337135	0.380591
H52	H	0.634026	-0.401182	0.764872
Cl53	Cl	0.646624	-0.249067	0.751229
H54	H	1.165706	-0.920752	0.703934
H55	H	0.994072	-0.792284	0.420155
Cl56	Cl	0.496259	-0.254612	0.757738
Cl57	Cl	0.959670	-0.930945	0.412278
Cl58	Cl	0.643848	-0.466328	0.409042
Cl59	Cl	0.494246	-0.464951	0.407737
Cl60	Cl	0.494562	-0.209491	0.517414
Cl61	Cl	1.108078	-0.932477	0.339632
H62	H	0.634888	-0.471706	0.649101
Cl63	Cl	0.496090	-0.503828	0.636705
Cl64	Cl	1.216078	-0.781684	0.513097
Cl65	Cl	0.644530	-0.212555	0.506950
Cl66	Cl	0.645079	-0.316346	0.341810
H67	H	0.954850	-0.793000	0.649767
H68	H	0.955273	-0.920227	0.649919
Cl69	Cl	1.033295	-0.780213	0.815161
Cl70	Cl	1.114429	-0.782507	0.344587
Cl71	Cl	1.033761	-0.930685	0.816405
Cl72	Cl	1.174275	-0.782778	0.756042
Cl73	Cl	1.216037	-0.930753	0.511166
