data_functionalizedCrystal
_audit_creation_method	'MofGen! by Chris Wilmer'
_symmetry_space_group_name_H-M	'P1'
_symmetry_Int_Tables_number	1
_symmetry_cell_setting	triclinic
loop_
_symmetry_equiv_pos_as_xyz
  x,y,z
_cell_length_a	10.540539
_cell_length_b	19.188940
_cell_length_c	9.616153
_cell_angle_alpha	89.997295
_cell_angle_beta	89.995174
_cell_angle_gamma	83.837103
loop_
_atom_site_label
_atom_site_type_symbol
_atom_site_fract_x
_atom_site_fract_y
_atom_site_fract_z
O1	O	1.683730	0.098388	-0.115582
O2	O	1.314114	0.107658	-0.115599
O3	O	1.509582	0.001439	-0.115579
O4	O	1.488262	0.204607	-0.115601
O5	O	1.509555	0.001441	0.115712
O6	O	1.314087	0.107661	0.115692
O7	O	1.683704	0.098390	0.115710
Zn8	Zn	1.498891	0.103026	0.152424
Zn9	Zn	1.498926	0.103023	-0.152313
O10	O	1.488235	0.204610	0.115690
C11	C	1.266813	0.106964	0.000045
C12	C	1.125910	0.104884	0.000038
C13	C	0.944235	0.025183	0.000587
C14	C	1.090806	0.027292	0.000051
C15	C	1.063432	0.142224	-0.132039
C16	C	0.916946	0.139576	-0.132135
C17	C	0.916393	0.141157	0.130886
C18	C	1.063359	0.141871	0.132617
C19	C	1.508876	-0.024575	0.000066
C20	C	1.506798	-0.102093	0.000066
C21	C	1.491994	-0.655450	0.126109
C22	C	1.493934	-0.582613	0.126117
C23	C	1.494924	-0.546188	0.000041
C24	C	1.493942	-0.582604	-0.126051
C25	C	1.491990	-0.655439	-0.126055
N26	N	1.570229	-0.436663	-0.093796
N27	N	1.572086	-0.367473	-0.093783
C28	C	1.500803	-0.326739	0.000046
N29	N	1.427608	-0.357811	0.093884
N30	N	1.425756	-0.427008	0.093876
C31	C	1.497040	-0.467210	0.000032
C32	C	1.503878	-0.211352	0.126139
C33	C	1.505809	-0.138513	0.126142
C34	C	1.505831	-0.138507	-0.126029
C35	C	1.503886	-0.211344	-0.126028
C36	C	1.502916	-0.247763	0.000060
C37	C	1.731005	0.099084	0.000063
C38	C	1.871907	0.101164	0.000060
C39	C	1.488941	0.230624	0.000041
C40	C	1.491020	0.308142	0.000033
N41	N	1.498876	0.103027	0.360398
N42	N	1.498951	0.103016	-0.360287
C43	C	1.394002	0.159657	0.580758
C44	C	1.394226	0.159869	0.419590
C45	C	1.631236	0.119600	0.418852
C46	C	1.630662	0.120001	0.580070
C47	C	1.472717	0.029639	0.580316
C48	C	1.469660	0.030115	0.419089
H49	H	1.084534	0.199206	-0.136960
H50	H	1.541157	-0.014059	0.378802
Cl51	Cl	1.590882	-0.035450	0.639177
Cl52	Cl	1.157585	-0.018071	0.146226
H53	H	1.295828	0.149897	0.380072
H54	H	1.106602	0.116284	-0.230329
Cl55	Cl	1.156239	-0.018192	-0.146619
Cl56	Cl	1.326958	0.005300	0.643158
H57	H	1.494703	-0.552962	0.228786
Cl58	Cl	1.241592	0.144489	0.640640
Cl59	Cl	1.490768	-0.701212	-0.284564
H60	H	1.372297	0.017553	0.380886
H61	H	0.916312	-0.005469	0.095308
Cl62	Cl	1.490761	-0.701229	0.284620
H63	H	1.503077	-0.241006	0.228808
Cl64	Cl	0.898645	-0.021950	-0.144820
Cl65	Cl	1.419456	0.243235	0.643244
Cl66	Cl	1.666445	0.202652	0.638102
Cl67	Cl	0.874340	0.096964	-0.284554
H68	H	1.506600	-0.108871	0.228812
Cl69	Cl	1.507024	-0.092719	-0.284526
Cl70	Cl	1.419963	0.243926	0.360008
H71	H	1.494743	-0.552942	-0.228702
H72	H	1.503102	-0.240988	-0.228693
H73	H	0.867751	0.195379	-0.138136
Cl74	Cl	1.754709	0.058715	0.640284
Cl75	Cl	1.754657	0.057646	0.359659
Cl76	Cl	0.868532	0.102386	0.285456
H77	H	1.104909	0.114594	0.230328
Cl78	Cl	1.098829	0.229215	0.144918
H79	H	0.867934	0.197201	0.131772
Cl80	Cl	1.667886	0.201318	0.356491
