data_functionalizedCrystal
_audit_creation_method	'MofGen! by Chris Wilmer'
_symmetry_space_group_name_H-M	'P1'
_symmetry_Int_Tables_number	1
_symmetry_cell_setting	triclinic
loop_
_symmetry_equiv_pos_as_xyz
  x,y,z
_cell_length_a	14.853567
_cell_length_b	10.723024
_cell_length_c	9.198806
_cell_angle_alpha	90.004274
_cell_angle_beta	90.000611
_cell_angle_gamma	95.948600
loop_
_atom_site_label
_atom_site_type_symbol
_atom_site_fract_x
_atom_site_fract_y
_atom_site_fract_z
O1	O	0.126445	-1.655909	-0.120891
O2	O	0.138549	-1.292634	-0.120890
O3	O	0.001318	-1.483975	-0.120895
O4	O	0.263675	-1.464568	-0.120886
O5	O	0.001318	-1.483960	0.120890
O6	O	0.138548	-1.292619	0.120895
O7	O	0.126445	-1.655894	0.120894
Cu8	Cu	0.132497	-1.474255	0.142972
Cu9	Cu	0.132497	-1.474273	-0.142967
O10	O	0.263675	-1.464553	0.120899
C11	C	0.137668	-1.246136	0.000003
C12	C	0.135032	-1.107608	0.000002
C13	C	-0.032275	-1.483088	-0.000006
C14	C	-0.132373	-1.480453	-0.000019
C15	C	0.211819	-1.031849	0.000005
C16	C	0.209097	-0.888673	0.000005
C17	C	-0.545565	-1.355653	0.000009
C18	C	-0.565646	-1.582971	0.000008
C19	C	-0.471599	-1.585448	-0.000000
C20	C	-0.414531	-1.473027	-0.000002
C21	C	-0.451510	-1.358127	0.000005
C22	C	-0.434614	-1.700345	0.000008
C23	C	-0.340562	-1.702828	0.000001
C24	C	-0.283491	-1.590405	-0.000011
C25	C	-0.320475	-1.475501	-0.000006
C26	C	-0.263407	-1.363079	-0.000008
C27	C	-0.300389	-1.248174	-0.000013
C28	C	-0.394440	-1.245704	-0.000007
C29	C	-0.189441	-1.592874	-0.000017
C30	C	-0.169351	-1.365554	-0.000012
C31	C	0.297269	-1.465439	0.000008
C32	C	0.397366	-1.468075	0.000011
N33	N	0.132496	-1.474251	0.344086
C34	C	0.127326	-0.702392	0.000002
C35	C	0.129961	-0.840919	0.000002
N36	N	0.132491	-1.474286	-0.344081
C37	C	0.074623	-1.554592	0.416281
C38	C	0.074619	-1.554612	0.583693
H39	H	0.279574	-1.072985	0.000015
O40	O	-0.304492	-1.814332	0.000053
C41	C	-0.168505	-1.918895	-0.000074
C42	C	-0.209235	-1.792531	-0.000090
H43	H	-0.091485	-1.901312	-0.000221
H44	H	-0.191876	-1.974476	0.101135
H45	H	-0.192013	-1.974454	-0.101239
H46	H	-0.185746	-1.736870	0.101006
H47	H	-0.185868	-1.737044	-0.101366
O48	O	-0.490006	-1.809580	0.000266
C49	C	-0.535913	-2.003139	0.125479
C50	C	-0.473141	-1.879459	0.125391
H51	H	-0.522287	-2.059683	0.226617
H52	H	-0.609504	-1.981711	0.125565
H53	H	-0.522377	-2.059628	0.024248
H54	H	-0.486596	-1.822909	0.226605
H55	H	-0.399570	-1.900975	0.125229
O56	O	0.191728	-1.392256	0.418033
C57	C	0.348082	-1.320074	0.464982
C58	C	0.281100	-1.412989	0.381128
H59	H	0.420353	-1.336822	0.435199
H60	H	0.335972	-1.219985	0.435132
H61	H	0.337502	-1.334687	0.586789
H62	H	0.291641	-1.398490	0.259302
H63	H	0.293227	-1.513045	0.411098
H64	H	-0.159334	-1.686428	-0.000003
O65	O	0.015405	-1.636514	0.342206
C66	C	-0.140931	-1.708826	0.295293
C67	C	-0.073977	-1.615957	0.379262
H68	H	-0.213210	-1.692256	0.325245
H69	H	-0.130450	-1.694168	0.173471
H70	H	-0.128690	-1.808879	0.325077
H71	H	-0.086177	-1.515868	0.349600
H72	H	-0.084473	-1.630724	0.501064
H73	H	0.067277	-1.066471	-0.000036
H74	H	0.025075	-1.623400	0.645777
H75	H	0.182044	-1.405504	0.593844
O76	O	0.051591	-0.918690	-0.000196
C77	C	-0.040725	-1.082835	-0.125510
C78	C	0.048071	-0.994841	-0.125449
H79	H	-0.043608	-1.144408	-0.226781
H80	H	-0.043623	-1.144588	-0.024394
H81	H	-0.100716	-1.024578	-0.125441
H82	H	0.108112	-1.052999	-0.125569
H83	H	0.050890	-0.933084	-0.226556
H84	H	0.274833	-0.823575	0.000001
H85	H	-0.253912	-1.156641	-0.000004
O86	O	-0.430472	-1.134174	-0.000193
C87	C	-0.524977	-0.999437	-0.125474
C88	C	-0.484241	-1.125797	-0.125434
H89	H	-0.568442	-0.992612	-0.226736
H90	H	-0.568560	-0.992579	-0.024348
H91	H	-0.468023	-0.919527	-0.125408
H92	H	-0.541136	-1.205780	-0.125552
H93	H	-0.440635	-1.132545	-0.226551
O94	O	-0.620988	-1.692251	-0.000183
C95	C	-0.666985	-1.885749	-0.125499
C96	C	-0.604239	-1.762044	-0.125441
H97	H	-0.653479	-1.942199	-0.226773
H98	H	-0.653433	-1.942371	-0.024386
H99	H	-0.740549	-1.864209	-0.125420
H100	H	-0.530652	-1.783470	-0.125571
H101	H	-0.617869	-1.705458	-0.226544
H102	H	-0.575681	-1.262100	-0.000001
H103	H	-0.122892	-1.274005	-0.000020
