data_functionalizedCrystal
_audit_creation_method	'MofGen! by Chris Wilmer'
_symmetry_space_group_name_H-M	'P1'
_symmetry_Int_Tables_number	1
_symmetry_cell_setting	triclinic
loop_
_symmetry_equiv_pos_as_xyz
  x,y,z
_cell_length_a	16.120530
_cell_length_b	12.759400
_cell_length_c	12.759393
_cell_angle_alpha	90.025341
_cell_angle_beta	92.919000
_cell_angle_gamma	87.099054
loop_
_atom_site_label
_atom_site_type_symbol
_atom_site_fract_x
_atom_site_fract_y
_atom_site_fract_z
Zn1	Zn	1.274707	-0.499760	0.675485
Zn2	Zn	1.274651	-0.675475	0.499821
Zn3	Zn	1.135282	-0.490894	0.490915
Zn4	Zn	1.135301	-0.666478	0.666557
O5	O	1.204985	-0.583152	0.583195
O6	O	1.391367	-0.530545	0.659647
O7	O	1.256132	-0.651045	0.351616
O8	O	1.153792	-0.345050	0.515408
O9	O	1.391327	-0.659642	0.530587
O10	O	1.256227	-0.351564	0.651011
O11	O	1.153738	-0.515434	0.345073
O12	O	1.018616	-0.506710	0.506751
O13	O	1.153825	-0.644308	0.814765
O14	O	1.018631	-0.635711	0.635795
O15	O	1.256245	-0.521821	0.821324
O16	O	1.256151	-0.821302	0.521930
O17	O	1.153771	-0.814692	0.644430
C18	C	0.988373	-0.569273	0.569338
C19	C	0.895705	-0.563361	0.563435
C20	C	1.204980	-0.856119	0.583202
C21	C	1.205054	-0.972900	0.583245
C22	C	1.205044	-0.583050	0.857232
C23	C	1.205068	-0.583006	0.974010
C24	C	0.726040	-0.552542	0.552667
C25	C	0.684771	-0.613839	0.613799
C26	C	0.590363	-0.607819	0.607808
C27	C	0.820456	-0.558560	0.558657
C28	C	1.422443	-0.597086	0.597106
C29	C	1.515111	-0.603024	0.603034
C30	C	1.205013	-0.309120	0.583212
C31	C	1.205025	-0.192344	0.583219
C32	C	1.151704	-0.134090	0.512622
C33	C	1.151715	-0.024367	0.512637
C34	C	1.258378	-0.031162	0.653850
C35	C	1.258361	-0.140883	0.653839
C36	C	1.098368	-0.185551	0.442002
C37	C	1.045042	-0.127297	0.371398
C38	C	1.045054	-0.017573	0.371414
C39	C	1.098391	0.033895	0.442033
C40	C	1.204975	-0.583181	0.310227
C41	C	1.205112	-0.582939	0.193459
C42	C	1.258406	-0.519221	1.032290
C43	C	1.258426	-0.519184	1.142015
C44	C	1.151768	-0.646727	1.135172
C45	C	1.151745	-0.646757	1.025448
C46	C	1.311730	-0.455470	0.980852
C47	C	1.365073	-0.391681	1.039132
C48	C	1.365092	-0.391644	1.148857
C49	C	1.311770	-0.455397	1.200303
H50	H	0.690472	-0.495549	0.495834
N51	N	0.731888	-0.689350	0.689074
H52	H	0.716778	-0.763450	0.671687
H53	H	0.716808	-0.672099	0.763204
H54	H	1.001612	-0.169209	0.313910
H55	H	1.001628	0.029857	0.313933
H56	H	1.311722	-0.455495	0.891509
N57	N	1.422584	-0.322927	0.983649
H58	H	1.456375	-0.282512	1.037221
H59	H	1.388647	-0.272146	0.935955
H60	H	1.098354	-0.274893	0.441980
H61	H	1.098394	0.123240	0.442042
N62	N	1.094271	-0.715498	1.190658
H63	H	1.060478	-0.755912	1.137088
H64	H	1.055704	-0.670249	1.233725
N65	N	1.315901	0.024345	0.730014
H66	H	1.307821	0.102692	0.719308
H67	H	1.375439	0.001342	0.717474
H68	H	1.301771	-0.188315	0.711337
H69	H	1.408520	-0.339696	1.196306
N70	N	1.311781	-0.455349	1.318649
H71	H	1.353658	-0.405263	1.347766
H72	H	1.327076	-0.528427	1.345970
N73	N	1.094217	-0.715550	0.962580
H74	H	1.060445	-0.755938	1.011813
H75	H	1.128140	-0.766356	0.919217
