data_functionalizedCrystal
_audit_creation_method	'MofGen! by Chris Wilmer'
_symmetry_space_group_name_H-M	'P1'
_symmetry_Int_Tables_number	1
_symmetry_cell_setting	triclinic
loop_
_symmetry_equiv_pos_as_xyz
  x,y,z
_cell_length_a	6.817900
_cell_length_b	14.125469
_cell_length_c	16.305550
_cell_angle_alpha	95.884114
_cell_angle_beta	103.455250
_cell_angle_gamma	100.398878
loop_
_atom_site_label
_atom_site_type_symbol
_atom_site_fract_x
_atom_site_fract_y
_atom_site_fract_z
V1	V	-4.010572	-0.133925	-0.262704
O2	O	-4.014497	0.005600	-0.258038
O3	O	-3.946712	-0.264747	-0.260584
O4	O	-3.962176	-0.132231	-0.377425
O5	O	-3.998925	-0.127833	-0.140389
V6	V	-4.496202	-0.117193	-0.248113
O7	O	-4.267207	-0.170628	-0.294709
O8	O	-4.689764	-0.080489	-0.216107
O9	O	-4.336856	0.013629	-0.250232
O10	O	-4.609674	-0.256718	-0.252778
O11	O	-4.625245	-0.123285	-0.370428
O12	O	-4.321392	-0.118886	-0.133392
C13	C	-3.787951	-0.296627	-0.256357
C14	C	-3.817025	-0.403578	-0.255389
C15	C	-3.807677	-0.127589	-0.405397
C16	C	-3.849289	-0.127070	-0.499180
C17	C	-3.870323	-0.599398	-0.253629
C18	C	-4.055817	-0.651731	-0.257190
C19	C	-4.085475	-0.760692	-0.256211
C20	C	-3.840658	-0.490427	-0.254608
C21	C	-4.000611	-0.125059	-0.839931
C22	C	-3.765262	-0.119090	-0.799017
C23	C	-3.721959	-0.120028	-0.701520
C24	C	-3.925537	-0.126056	-0.670880
C25	C	-4.081450	-0.221074	-0.721274
C26	C	-4.123376	-0.220536	-0.818825
C27	C	-4.065699	-0.036771	-0.794304
C28	C	-4.017858	-0.036019	-0.696463
C29	C	-3.883121	-0.126623	-0.575341
C30	C	-4.043036	-0.124499	-0.935471
C31	C	-4.158957	0.045504	-0.254457
C32	C	-4.109122	0.152455	-0.255431
C33	C	-4.139232	-0.123532	-0.105415
C34	C	-4.076859	-0.124046	-0.011631
H35	H	-4.192349	-0.614702	-0.260973
N36	N	-4.065143	-0.309068	-0.858856
H37	H	-3.914031	-0.306996	-0.833782
H38	H	-4.091866	-0.309555	-0.922492
N39	N	-3.689468	-0.648435	-0.248601
H40	H	-3.579166	-0.619349	-0.194401
H41	H	-3.631616	-0.638353	-0.299469
N42	N	-3.564984	-0.029539	-0.655340
H43	H	-3.523358	0.011319	-0.698282
H44	H	-3.439494	-0.048767	-0.620333
H45	H	-3.667157	-0.050450	-0.811548
N46	N	-3.695682	-0.203111	-0.840542
H47	H	-3.815948	-0.245024	-0.885741
H48	H	-3.642352	-0.243351	-0.795961
N49	N	-3.997662	-0.309633	-0.698798
H50	H	-4.099081	-0.370405	-0.731549
H51	H	-3.976016	-0.311134	-0.635568
N52	N	-4.352340	-0.231567	-0.855884
H53	H	-4.425615	-0.236761	-0.808838
H54	H	-4.405865	-0.292346	-0.899674
H55	H	-4.237352	-0.040300	-0.821111
H56	H	-4.233687	-0.228922	-0.702342
H57	H	-3.648023	-0.184191	-0.685069
N58	N	-3.955806	0.058596	-0.812242
H59	H	-3.862708	0.045532	-0.850134
H60	H	-3.870482	0.099703	-0.756735
H61	H	-3.905037	0.034261	-0.662257
H62	H	-4.165284	-0.034837	-0.675118
