data_functionalizedCrystal
_audit_creation_method	'MofGen! by Chris Wilmer'
_symmetry_space_group_name_H-M	'P1'
_symmetry_Int_Tables_number	1
_symmetry_cell_setting	triclinic
loop_
_symmetry_equiv_pos_as_xyz
  x,y,z
_cell_length_a	12.759401
_cell_length_b	16.120484
_cell_length_c	12.759393
_cell_angle_alpha	87.136314
_cell_angle_beta	90.018173
_cell_angle_gamma	92.925560
loop_
_atom_site_label
_atom_site_type_symbol
_atom_site_fract_x
_atom_site_fract_y
_atom_site_fract_z
Zn1	Zn	1.584968	-0.331860	0.615146
Zn2	Zn	1.575920	-0.471296	0.448359
Zn3	Zn	1.409268	-0.331902	0.439488
Zn4	Zn	1.400320	-0.471234	0.623996
O5	O	1.492619	-0.401573	0.531747
O6	O	1.730788	-0.350365	0.593030
O7	O	1.553772	-0.452848	0.300164
O8	O	1.440107	-0.215231	0.455373
O9	O	1.724141	-0.452808	0.470492
O10	O	1.569192	-0.215200	0.584428
O11	O	1.431334	-0.350436	0.293647
O12	O	1.261061	-0.350376	0.463955
O13	O	1.424855	-0.452702	0.769841
O14	O	1.254486	-0.452742	0.599512
O15	O	1.560515	-0.350305	0.763339
O16	O	1.545095	-0.587953	0.479074
O17	O	1.416082	-0.587907	0.608114
C18	C	1.219653	-0.401557	0.531732
C19	C	1.102875	-0.401571	0.531752
C20	C	1.044612	-0.454959	0.602231
C21	C	0.934887	-0.454969	0.602243
C22	C	0.941699	-0.348202	0.461288
C23	C	1.051422	-0.348188	0.461282
C24	C	1.096065	-0.508342	0.672701
C25	C	1.037801	-0.561734	0.743185
C26	C	0.928077	-0.561745	0.743197
C27	C	0.876616	-0.508363	0.672725
C28	C	1.478664	-0.618180	0.545540
C29	C	1.472791	-0.710846	0.551476
C30	C	1.462073	-0.880506	0.562334
C31	C	1.523354	-0.921799	0.501178
C32	C	1.517390	-1.016204	0.507220
C33	C	1.468035	-0.786093	0.556294
C34	C	1.766651	-0.401589	0.531763
C35	C	1.883427	-0.401596	0.531770
C36	C	1.492696	-0.401492	0.805776
C37	C	1.492729	-0.401457	0.922550
C38	C	1.506657	-0.184120	0.517924
C39	C	1.512639	-0.091454	0.512033
C40	C	1.492606	-0.401593	0.258781
C41	C	1.492792	-0.401393	0.141992
C42	C	1.422148	-0.454723	1.090521
C43	C	1.422114	-0.454753	0.980799
C44	C	1.563376	-0.348121	0.974029
C45	C	1.563405	-0.348087	1.083749
C46	C	1.351535	-0.508028	1.148765
C47	C	1.280887	-0.561363	1.097294
C48	C	1.280852	-0.561394	0.987572
C49	C	1.351467	-0.508089	0.929321
H50	H	0.899790	-0.304742	0.403912
Cl51	Cl	1.234004	-0.508335	0.672688
H52	H	1.223388	-0.604756	1.144729
H53	H	1.580296	-0.886249	0.444283
H54	H	1.351430	-0.508116	0.839978
Cl55	Cl	1.374159	-0.935389	0.650167
Cl56	Cl	0.738675	-0.508371	0.672751
H57	H	0.880642	-0.605214	0.800596
H58	H	1.351557	-0.508011	1.238107
Cl59	Cl	1.124672	-0.281071	0.372677
Cl60	Cl	1.652138	-0.281112	0.900798
Cl61	Cl	1.192030	-0.628434	0.922868
Cl62	Cl	1.652189	-0.281020	1.148459
Cl63	Cl	1.102494	-0.628834	0.831779
