data_functionalizedCrystal
_audit_creation_method	'MofGen! by Chris Wilmer'
_symmetry_space_group_name_H-M	'P1'
_symmetry_Int_Tables_number	1
_symmetry_cell_setting	triclinic
loop_
_symmetry_equiv_pos_as_xyz
  x,y,z
_cell_length_a	12.827893
_cell_length_b	14.908520
_cell_length_c	12.827885
_cell_angle_alpha	86.736484
_cell_angle_beta	90.019272
_cell_angle_gamma	93.320575
loop_
_atom_site_label
_atom_site_type_symbol
_atom_site_fract_x
_atom_site_fract_y
_atom_site_fract_z
Zn1	Zn	1.573615	-0.359115	0.614817
Zn2	Zn	2.073615	0.140885	1.114817
Zn3	Zn	1.563402	-0.509998	0.450147
Zn4	Zn	2.063402	-0.009998	0.950147
Zn5	Zn	1.398853	-0.359159	0.440093
Zn6	Zn	1.898853	0.140841	0.940093
Zn7	Zn	1.388739	-0.509931	0.624843
Zn8	Zn	1.888739	-0.009931	1.124843
O9	O	1.481152	-0.434551	0.532475
O10	O	1.981152	0.065449	1.032475
O11	O	1.718495	-0.379139	0.592984
O12	O	2.218495	0.120861	1.092984
O13	O	1.541533	-0.490036	0.302580
O14	O	2.041533	0.009964	0.802580
O15	O	1.430542	-0.232908	0.454867
O16	O	1.930542	0.267092	0.954867
O17	O	1.710992	-0.489993	0.472002
O18	O	2.210992	0.010007	0.972002
O19	O	1.558939	-0.232876	0.583236
O20	O	2.058939	0.267124	1.083236
O21	O	1.420640	-0.379214	0.295194
O22	O	1.920640	0.120786	0.795194
O23	O	1.251276	-0.379149	0.464589
O24	O	1.751276	0.120851	0.964589
O25	O	1.413304	-0.489879	0.769746
O26	O	1.913304	0.010121	1.269746
O27	O	1.243845	-0.489921	0.600323
O28	O	1.743845	0.010079	1.100323
O29	O	1.549132	-0.379074	0.762380
O30	O	2.049132	0.120926	1.262380
O31	O	1.531726	-0.636234	0.481724
O32	O	2.031726	-0.136234	0.981724
O33	O	1.403401	-0.636184	0.610072
O34	O	1.903401	-0.136184	1.110072
C35	C	1.209643	-0.434533	0.532454
C36	C	1.709643	0.065467	1.032454
C37	C	1.093489	-0.434548	0.532471
C38	C	1.593489	0.065452	1.032471
C39	C	1.465386	-0.668943	0.548100
C40	C	1.965386	-0.168943	1.048100
C41	C	1.458737	-0.769217	0.554820
C42	C	1.958737	-0.269217	1.054820
C43	C	1.038049	-0.489447	0.599545
C44	C	1.538049	0.010553	1.099545
C45	C	0.917998	-0.489463	0.599564
C46	C	1.417998	0.010537	1.099564
C47	C	1.580004	-0.957632	0.433905
C48	C	2.080004	-0.457632	0.933905
C49	C	1.573760	-1.051849	0.440215
C50	C	2.073760	-0.551849	0.940215
C51	C	1.440011	-1.051867	0.573755
C52	C	1.940011	-0.551867	1.073755
C53	C	1.446255	-0.957651	0.567444
C54	C	1.946255	-0.457651	1.067444
C55	C	1.516253	-0.910537	0.497516
C56	C	2.016253	-0.410537	0.997516
C57	C	1.522491	-0.816319	0.491201
C58	C	2.022491	-0.316319	0.991201
C59	C	1.388748	-0.816339	0.624745
C60	C	1.888748	-0.316339	1.124745
C61	C	1.382504	-0.910555	0.631056
C62	C	1.882504	-0.410555	1.131056
C63	C	1.753721	-0.434569	0.532497
C64	C	2.253721	0.065431	1.032497
C65	C	1.869874	-0.434576	0.532506
C66	C	2.369874	0.065424	1.032506
C67	C	1.481229	-0.434464	0.805039
C68	C	1.981229	0.065536	1.305039
C69	C	1.481262	-0.434427	0.921190
C70	C	1.981262	0.065573	1.421190
C71	C	1.497008	-0.199243	0.516811
C72	C	1.997008	0.300757	1.016811
C73	C	1.503765	-0.098969	0.510137
C74	C	2.003765	0.401031	1.010137
C75	C	1.481140	-0.434572	0.260966
C76	C	1.981140	0.065428	0.760966
C77	C	1.481327	-0.434355	0.144799
C78	C	1.981327	0.065645	0.644799
C79	C	1.548481	-0.379587	0.969329
C80	C	2.048481	0.120413	1.469329
C81	C	1.548517	-0.379547	1.089377
C82	C	2.048517	0.120453	1.589377
H83	H	1.079463	-0.536433	0.656958
H84	H	1.579463	-0.036433	1.156958
H85	H	1.625675	-1.090190	0.388418
H86	H	2.125675	-0.590190	0.888418
H87	H	1.052076	-0.387555	0.475065
H88	H	1.552076	0.112445	0.975065
C89	C	1.403548	-0.497817	0.985561
C90	C	1.903548	0.002183	1.485561
H91	H	1.361365	-0.532224	0.939792
H92	H	1.861365	-0.032224	1.439792
H93	H	1.440925	-0.537079	1.030760
H94	H	1.940925	-0.037079	1.530760
H95	H	1.360390	-0.463250	1.025832
H96	H	1.860390	0.036750	1.525832
C97	C	0.853618	-0.552958	0.677144
C98	C	1.353618	-0.052958	1.177144
H99	H	0.781376	-0.544635	0.666985
H100	H	1.281376	-0.044635	1.166985
H101	H	0.867378	-0.613570	0.665794
H102	H	1.367378	-0.113570	1.165794
H103	H	0.872369	-0.539830	0.746524
H104	H	1.372369	-0.039830	1.246524
C105	C	1.656988	-0.905800	0.356986
C106	C	2.156988	-0.405800	0.856986
H107	H	1.651570	-0.842943	0.362334
H108	H	2.151570	-0.342943	0.862334
H109	H	1.726175	-0.921176	0.373367
H110	H	2.226175	-0.421176	0.873367
H111	H	1.640696	-0.921295	0.287793
H112	H	2.140696	-0.421295	0.787793
C113	C	1.363021	-1.103703	0.650664
C114	C	1.863021	-0.603703	1.150664
H115	H	1.368432	-1.166559	0.645304
H116	H	1.868432	-0.666559	1.145304
H117	H	1.379290	-1.088209	0.719857
H118	H	1.879290	-0.588209	1.219857
H119	H	1.293831	-1.088330	0.634263
H120	H	1.793831	-0.588330	1.134263
C121	C	1.305509	-0.962386	0.707965
C122	C	1.805509	-0.462386	1.207965
H123	H	1.310914	-1.025243	0.702609
H124	H	1.810914	-0.525243	1.202609
H125	H	1.321777	-0.946890	0.777157
H126	H	1.821777	-0.446890	1.277157
H127	H	1.236321	-0.947008	0.691560
H128	H	1.736321	-0.447008	1.191560
H129	H	1.606069	-0.332600	1.130790
H130	H	2.106069	0.167400	1.630790
C131	C	1.318622	-0.764533	0.694724
C132	C	1.818622	-0.264533	1.194724
H133	H	1.332367	-0.701672	0.680957
H134	H	1.832367	-0.201672	1.180957
H135	H	1.247390	-0.780038	0.680405
H136	H	1.747390	-0.280038	1.180405
H137	H	1.332862	-0.779916	0.765986
H138	H	1.832862	-0.279916	1.265986
C139	C	1.599477	-0.764490	0.414282
C140	C	2.099477	-0.264490	0.914282
H141	H	1.594059	-0.701632	0.419623
H142	H	2.094059	-0.201632	0.919623
H143	H	1.668664	-0.779865	0.430668
H144	H	2.168664	-0.279865	0.930668
H145	H	1.583189	-0.779990	0.345090
H146	H	2.083189	-0.279990	0.845090
H147	H	1.606000	-0.332662	0.921668
H148	H	2.106000	0.167338	1.421668
C149	C	0.934243	-0.371074	0.454924
C150	C	1.434243	0.128926	0.954924
H151	H	0.888476	-0.336645	0.412852
H152	H	1.388476	0.163355	0.912852
H153	H	0.979476	-0.331836	0.492390
H154	H	1.479476	0.168164	0.992390
H155	H	0.974482	-0.405570	0.411652
H156	H	1.474482	0.094430	0.911652
H157	H	1.423778	-0.481311	1.103394
H158	H	1.923778	0.018689	1.603394
