data_functionalizedCrystal
_audit_creation_method	'MofGen! by Chris Wilmer'
_symmetry_space_group_name_H-M	'P1'
_symmetry_Int_Tables_number	1
_symmetry_cell_setting	triclinic
loop_
_symmetry_equiv_pos_as_xyz
  x,y,z
_cell_length_a	16.109301
_cell_length_b	17.699083
_cell_length_c	14.586319
_cell_angle_alpha	89.995320
_cell_angle_beta	89.999213
_cell_angle_gamma	83.372248
loop_
_atom_site_label
_atom_site_type_symbol
_atom_site_fract_x
_atom_site_fract_y
_atom_site_fract_z
O1	O	1.102963	0.097285	-0.076184
O2	O	0.860880	0.109391	-0.076199
O3	O	0.988761	-0.006841	-0.076183
O4	O	0.975082	0.213517	-0.076200
O5	O	0.988752	-0.006843	0.076298
O6	O	0.860872	0.109390	0.076282
O7	O	1.102954	0.097283	0.076297
Cu8	Cu	0.981912	0.103336	0.090212
Cu9	Cu	0.981923	0.103338	-0.090114
O10	O	0.975074	0.213516	0.076281
C11	C	0.829902	0.108900	0.000040
C12	C	0.737609	0.107430	0.000034
C13	C	0.515224	0.172981	0.000040
C14	C	0.428506	0.171594	0.000046
C15	C	0.448618	0.033688	0.000053
C16	C	0.535334	0.035076	0.000053
C17	C	0.568635	0.104725	0.000042
C18	C	0.395200	0.101949	0.000047
C19	C	0.301177	0.100445	0.000054
C20	C	0.662664	0.106230	0.000037
C21	C	0.988267	-0.035040	0.000057
C22	C	0.986796	-0.119060	0.000058
C23	C	1.061860	-0.167574	0.000064
C24	C	1.060473	-0.246519	0.000055
C25	C	0.984022	-0.276949	0.000048
C26	C	0.908953	-0.228429	0.000039
C27	C	0.910341	-0.149485	0.000041
C28	C	0.903356	-0.546800	0.000031
C29	C	0.901974	-0.625750	0.000033
C30	C	1.053488	-0.643834	0.000046
C31	C	1.054876	-0.564890	0.000048
C32	C	0.979807	-0.516377	0.000034
C33	C	0.981312	-0.430776	0.000041
C34	C	0.982517	-0.362549	0.000047
C35	C	1.133933	0.097774	0.000056
C36	C	1.226226	0.099244	0.000055
C37	C	0.975568	0.241714	0.000038
C38	C	0.977039	0.325734	0.000032
N39	N	0.981911	0.103334	0.217044
N40	N	0.981931	0.103334	-0.216946
C41	C	1.038555	0.051884	0.452057
C42	C	1.038558	0.051882	0.548038
C43	C	0.925280	0.154787	0.548034
C44	C	0.925274	0.154785	0.452054
C45	C	0.981917	0.103334	0.404068
C46	C	0.981925	0.103334	0.596029
C47	C	0.981927	0.103333	0.700096
C48	C	0.981914	0.103334	0.299995
H49	H	0.578824	-0.020510	0.000058
H50	H	1.114613	-0.683343	0.000052
H51	H	1.124115	-0.142805	0.000075
H52	H	0.421494	-0.023018	0.000067
O53	O	0.547612	0.240617	-0.000127
C54	C	0.633880	0.322208	-0.079098
C55	C	0.597245	0.245590	-0.079037
H56	H	0.674031	0.326247	-0.142880
H57	H	0.580838	0.370784	-0.079157
H58	H	0.673940	0.326293	-0.015257
H59	H	0.557194	0.241431	-0.142867
H60	H	0.650327	0.197052	-0.078931
O61	O	0.376658	0.237919	-0.000123
C62	C	0.332976	0.355384	-0.079101
C63	C	0.391726	0.280288	-0.079037
H64	H	0.345150	0.389667	-0.142886
H65	H	0.265259	0.342478	-0.079156
H66	H	0.345065	0.389627	-0.015263
H67	H	0.379712	0.246008	-0.142864
H68	H	0.459423	0.293247	-0.078934
O69	O	1.133467	-0.293537	0.000108
C70	C	1.283900	-0.303144	0.000082
C71	C	1.201293	-0.249810	0.000043
H72	H	1.338759	-0.267812	0.000010
H73	H	1.287087	-0.340547	0.063909
H74	H	1.287003	-0.340566	-0.063717
H75	H	1.198134	-0.212340	0.063799
H76	H	1.198140	-0.212459	-0.063826
H77	H	1.117130	-0.540119	0.000058
H78	H	0.839715	-0.650523	0.000028
O79	O	0.834740	-0.258077	-0.000091
C80	C	0.745224	-0.336669	-0.079119
C81	C	0.829308	-0.303160	-0.079079
H82	H	0.740797	-0.373113	-0.142984
H83	H	0.740770	-0.373229	-0.015349
H84	H	0.691825	-0.288420	-0.079080
H85	H	0.882755	-0.351360	-0.079150
H86	H	0.833689	-0.266580	-0.142843
O87	O	0.830361	-0.499790	0.000071
C88	C	0.679928	-0.490190	0.000020
C89	C	0.762537	-0.543521	-0.000008
H90	H	0.625071	-0.525526	-0.000064
H91	H	0.676729	-0.452798	0.063849
H92	H	0.676831	-0.452758	-0.063777
H93	H	0.765689	-0.581001	0.063745
H94	H	0.765701	-0.580861	-0.063880
O95	O	0.837347	-0.102464	0.000076
C96	C	0.686914	-0.092853	-0.000001
C97	C	0.769518	-0.146190	-0.000012
H98	H	0.632053	-0.128184	-0.000091
H99	H	0.683710	-0.055457	0.063825
H100	H	0.683830	-0.055425	-0.063801
H101	H	0.772658	-0.183666	0.063745
H102	H	0.772688	-0.183534	-0.063880
O103	O	1.093601	0.001829	0.405585
C104	C	1.205985	-0.100213	0.415725
C105	C	1.143679	-0.043576	0.468464
H106	H	1.246501	-0.136926	0.466539
H107	H	1.170209	-0.138086	0.370823
H108	H	1.247413	-0.067514	0.370756
H109	H	1.102236	-0.076213	0.513482
H110	H	1.179507	-0.005704	0.513308
O111	O	1.093464	0.001830	0.594695
C112	C	1.111383	-0.101504	0.703108
C113	C	1.049109	-0.044871	0.650311
H114	H	1.075547	-0.139265	0.748100
H115	H	1.151851	-0.138330	0.652362
H116	H	1.152863	-0.068799	0.747996
H117	H	1.007574	-0.077514	0.605421
H118	H	1.008699	-0.008045	0.701106
O119	O	0.870150	0.204691	0.594610
C120	C	0.725504	0.249031	0.623948
C121	C	0.787846	0.192460	0.571161
H122	H	0.658947	0.239172	0.604994
H123	H	0.735166	0.240195	0.700801
H124	H	0.736253	0.309649	0.605079
H125	H	0.777135	0.131819	0.589953
H126	H	0.778168	0.201361	0.494321
O127	O	0.870335	0.204873	0.405475
C128	C	0.821316	0.336464	0.376129
C129	C	0.883592	0.279829	0.428920
H130	H	0.832000	0.397078	0.395081
H131	H	0.831038	0.327689	0.299277
H132	H	0.754757	0.326546	0.394997
H133	H	0.950175	0.289713	0.410129
H134	H	0.873797	0.288618	0.505760
