data_functionalizedCrystal
_audit_creation_method	'MofGen! by Chris Wilmer'
_symmetry_space_group_name_H-M	'P1'
_symmetry_Int_Tables_number	1
_symmetry_cell_setting	triclinic
loop_
_symmetry_equiv_pos_as_xyz
  x,y,z
_cell_length_a	14.853567
_cell_length_b	9.016244
_cell_length_c	14.853559
_cell_angle_alpha	90.000043
_cell_angle_beta	83.633192
_cell_angle_gamma	90.004370
loop_
_atom_site_label
_atom_site_type_symbol
_atom_site_fract_x
_atom_site_fract_y
_atom_site_fract_z
O1	O	1.196365	0.123231	0.117701
O2	O	0.933905	0.123255	0.131722
O3	O	1.072150	0.123241	-0.006519
O4	O	1.058121	0.123245	0.255942
O5	O	1.072130	-0.123440	-0.006515
O6	O	0.933885	-0.123426	0.131726
O7	O	1.196345	-0.123450	0.117704
Cu8	Cu	1.065113	-0.145962	0.124715
Cu9	Cu	1.065137	0.145767	0.124711
O10	O	1.058100	-0.123436	0.255945
C11	C	0.900307	-0.000082	0.131089
C12	C	0.800223	-0.000072	0.129185
N13	N	1.065103	-0.351148	0.124717
C14	C	0.387692	-0.000107	0.039019
C15	C	0.366406	-0.000103	0.203252
C16	C	0.460440	-0.000098	0.205042
C17	C	0.518104	-0.000096	0.123819
C18	C	0.481735	-0.000098	0.040806
C19	C	0.496816	-0.000081	0.288054
C20	C	0.590855	-0.000074	0.289847
C21	C	0.648521	-0.000082	0.208623
C22	C	0.612147	-0.000086	0.125607
C23	C	0.669811	-0.000084	0.044384
C24	C	0.633438	-0.000098	-0.038633
C25	C	0.539401	-0.000106	-0.040417
C26	C	0.742559	-0.000075	0.210408
C27	C	0.763854	-0.000075	0.046172
C28	C	0.990928	-0.586173	0.198423
C29	C	0.991089	-0.414282	0.198695
C30	C	1.159198	-0.413495	0.145382
C31	C	1.158792	-0.585440	0.145903
C32	C	1.046121	-0.585691	0.030100
C33	C	1.043953	-0.413736	0.030731
C34	C	1.229944	-0.000110	0.118338
C35	C	1.330027	-0.000110	0.120242
C36	C	1.071506	-0.000097	-0.040106
C37	C	1.069605	-0.000088	-0.140190
N38	N	1.065155	0.350953	0.124702
C39	C	1.061552	0.134378	-0.563367
C40	C	1.061530	-0.134563	-0.563358
C41	C	1.063323	-0.134564	-0.469325
C42	C	1.064230	-0.000092	-0.422308
C43	C	1.063343	0.134381	-0.469324
C44	C	1.064201	-0.269035	-0.422300
C45	C	1.065994	-0.269042	-0.328261
C46	C	1.066907	-0.134568	-0.281243
C47	C	1.066021	-0.000090	-0.328266
C48	C	1.066927	0.134382	-0.281249
C49	C	1.066048	0.268862	-0.328270
C50	C	1.064256	0.268854	-0.422307
C51	C	1.068698	-0.134560	-0.187207
C52	C	1.068718	0.134385	-0.187206
C53	C	1.058745	-0.000095	0.289532
C54	C	1.060646	-0.000094	0.389616
H55	H	0.810799	-0.000078	-0.019971
Br56	Br	1.069959	0.316893	-0.123406
Br57	Br	0.490032	-0.000121	-0.153073
Br58	Br	0.711707	-0.000077	-0.148860
H59	H	0.358073	-0.000125	-0.028572
H60	H	0.620461	-0.000062	0.357445
H61	H	1.066779	0.378349	-0.289976
Br62	Br	1.060280	-0.317051	-0.627164
Br63	Br	0.288148	-0.000079	0.313478
Br64	Br	1.187784	-0.341700	0.259073
Br65	Br	0.418555	-0.000052	0.398278
Br66	Br	0.791920	-0.000038	0.323064
H67	H	1.060839	0.243869	-0.601656
Br68	Br	0.874502	-0.344019	0.178207
Br69	Br	1.062945	-0.451521	-0.486108
H70	H	1.063539	0.378341	-0.460600
H71	H	0.920768	-0.627560	0.186292
Br72	Br	0.928584	-0.345827	0.004592
Br73	Br	1.010935	-0.658129	0.314775
H74	H	1.066713	-0.378544	-0.289984
Br75	Br	1.011315	-0.345688	0.315715
H76	H	1.069394	-0.244052	-0.148923
H77	H	1.215757	-0.627028	0.094333
H78	H	1.215752	-0.372596	0.093123
Br79	Br	1.186719	-0.652267	0.260901
Br80	Br	0.934222	-0.658042	-0.002957
H81	H	1.094491	-0.370766	-0.026706
H82	H	1.100249	-0.626349	-0.024762
