data_functionalizedCrystal
_audit_creation_method	'MofGen! by Chris Wilmer'
_symmetry_space_group_name_H-M	'P1'
_symmetry_Int_Tables_number	1
_symmetry_cell_setting	triclinic
loop_
_symmetry_equiv_pos_as_xyz
  x,y,z
_cell_length_a	16.109301
_cell_length_b	10.489741
_cell_length_c	15.186229
_cell_angle_alpha	89.996534
_cell_angle_beta	89.999362
_cell_angle_gamma	84.000327
loop_
_atom_site_label
_atom_site_type_symbol
_atom_site_fract_x
_atom_site_fract_y
_atom_site_fract_z
O1	O	1.104141	0.163947	-0.073172
O2	O	1.604141	0.663947	0.426828
O3	O	0.862205	0.184350	-0.073186
O4	O	1.362205	0.684350	0.426814
O5	O	0.988678	-0.011529	-0.073174
O6	O	1.488678	0.488471	0.426826
O7	O	0.977668	0.359826	-0.073185
O8	O	1.477668	0.859826	0.426815
O9	O	0.988670	-0.011532	0.073284
O10	O	1.488670	0.488468	0.573284
O11	O	0.862196	0.184347	0.073271
O12	O	1.362196	0.684347	0.573271
O13	O	1.104133	0.163944	0.073285
O14	O	1.604133	0.663944	0.573285
Zn15	Zn	0.983163	0.174145	0.096531
Zn16	Zn	1.483163	0.674145	0.596531
Zn17	Zn	0.983174	0.174149	-0.096433
Zn18	Zn	1.483174	0.674149	0.403567
O19	O	0.977659	0.359823	0.073272
O20	O	1.477659	0.859823	0.573272
C21	C	0.831221	0.183522	0.000041
C22	C	1.331221	0.683522	0.500041
C23	C	0.738910	0.181044	0.000035
C24	C	1.238910	0.681044	0.500035
C25	C	0.517319	0.291514	0.000042
C26	C	1.017319	0.791514	0.500042
C27	C	0.430584	0.289175	0.000048
C28	C	0.930584	0.789175	0.500048
C29	C	0.449026	0.056771	0.000051
C30	C	0.949026	0.556771	0.500051
C31	C	0.535759	0.059111	0.000052
C32	C	1.035759	0.559111	0.500052
C33	C	0.569903	0.176486	0.000043
C34	C	1.069903	0.676486	0.500043
C35	C	0.396435	0.171808	0.000048
C36	C	0.896435	0.671808	0.500048
C37	C	0.302393	0.169272	0.000054
C38	C	0.802393	0.669272	0.500054
C39	C	0.663950	0.179022	0.000038
C40	C	1.163950	0.679022	0.500038
C41	C	0.987842	-0.059050	0.000054
C42	C	1.487842	0.440950	0.500054
C43	C	0.985354	-0.200644	0.000053
C44	C	1.485354	0.299356	0.500053
C45	C	0.904883	-0.267616	0.000042
C46	C	1.404883	0.232384	0.500042
C47	C	0.942893	-0.360292	0.072255
C48	C	1.442893	0.139708	0.572255
C49	C	0.942920	-0.360264	-0.072141
C50	C	1.442920	0.139736	0.427859
C51	C	1.023397	-0.291454	0.072325
C52	C	1.523397	0.208546	0.572325
C53	C	1.023413	-0.291417	-0.072135
C54	C	1.523413	0.208583	0.427865
C55	C	1.061482	-0.384066	0.000096
C56	C	1.561482	0.115934	0.500096
C57	C	1.135117	0.164772	0.000056
C58	C	1.635117	0.664772	0.500056
C59	C	1.227427	0.167250	0.000056
C60	C	1.727427	0.667250	0.500056
C61	C	0.978495	0.407344	0.000042
C62	C	1.478495	0.907344	0.500042
C63	C	0.980983	0.548938	0.000038
C64	C	1.480983	1.048938	0.500038
N65	N	0.983162	0.174142	0.228224
N66	N	1.483162	0.674142	0.728224
N67	N	0.983183	0.174142	-0.228125
N68	N	1.483183	0.674142	0.271875
C69	C	1.039183	0.087436	0.453952
C70	C	1.539183	0.587436	0.953952
C71	C	1.039186	0.087433	0.546142
C72	C	1.539186	0.587433	1.046142
C73	C	0.927155	0.260852	0.546140
C74	C	1.427155	0.760852	1.046140
C75	C	0.927149	0.260848	0.453952
C76	C	1.427149	0.760848	0.953952
C77	C	0.983168	0.174141	0.407860
C78	C	1.483168	0.674141	0.907860
C79	C	0.983176	0.174142	0.592238
C80	C	1.483176	0.674142	1.092238
C81	C	0.983179	0.174140	0.692194
C82	C	1.483179	0.674140	1.192194
C83	C	0.983165	0.174142	0.307898
C84	C	1.483165	0.674142	0.807898
H85	H	0.421215	-0.038791	0.000064
H86	H	0.921215	0.461209	0.500064
H87	H	1.084796	0.016832	0.416427
H88	H	1.584796	0.516832	0.916427
H89	H	0.578575	-0.034565	0.000055
H90	H	1.078575	0.465435	0.500055
H91	H	0.545116	0.387088	0.000042
H92	H	1.045116	0.887088	0.500042
O93	O	1.068458	-0.251293	0.153289
O94	O	1.568458	0.248707	0.653289
H95	H	1.025692	-0.183800	0.192691
H96	H	1.525692	0.316200	0.692691
O97	O	0.817252	-0.200545	0.000133
O98	O	1.317252	0.299455	0.500133
H99	H	0.783557	-0.229273	-0.059214
H100	H	1.283557	0.270727	0.440786
H101	H	0.881530	0.331455	0.416421
H102	H	1.381530	0.831455	0.916421
O103	O	1.099613	-0.006069	0.595859
O104	O	1.599613	0.493931	1.095859
H105	H	1.138569	-0.066347	0.548318
H106	H	1.638569	0.433653	1.048318
H107	H	0.881546	0.331449	0.583677
H108	H	1.381546	0.831449	1.083677
O109	O	0.897797	-0.400721	0.153124
O110	O	1.397797	0.099279	0.653124
H111	H	0.832807	-0.353631	0.152976
H112	H	1.332807	0.146369	0.652976
O113	O	1.149194	-0.450828	0.000148
O114	O	1.649194	0.049172	0.500148
H115	H	1.182383	-0.423279	0.060150
H116	H	1.682383	0.076721	0.560150
H117	H	1.057437	-0.260865	-0.133185
H118	H	1.557437	0.239135	0.366815
O119	O	0.373865	0.413240	0.000045
O120	O	0.873865	0.913240	0.500045
H121	H	0.412182	0.495245	0.000033
H122	H	0.912182	0.995245	0.500033
O123	O	0.897815	-0.400647	-0.153013
O124	O	1.397815	0.099353	0.346987
H125	H	0.832831	-0.353536	-0.152858
H126	H	1.332831	0.146464	0.347142
