data_functionalizedCrystal
_audit_creation_method	'MofGen! by Chris Wilmer'
_symmetry_space_group_name_H-M	'P1'
_symmetry_Int_Tables_number	1
_symmetry_cell_setting	triclinic
loop_
_symmetry_equiv_pos_as_xyz
  x,y,z
_cell_length_a	18.426585
_cell_length_b	14.560438
_cell_length_c	18.426585
_cell_angle_alpha	60.006228
_cell_angle_beta	90.003816
_cell_angle_gamma	59.999347
loop_
_atom_site_label
_atom_site_type_symbol
_atom_site_fract_x
_atom_site_fract_y
_atom_site_fract_z
Zr1	Zr	0.699167	1.005159	-0.095083
O2	O	0.583286	1.196756	-0.210949
O3	O	0.734687	0.813570	-0.059579
O4	O	0.734685	1.005163	-0.210962
O5	O	0.583294	1.005157	0.059865
O6	O	0.854116	1.005157	-0.210955
O7	O	0.583288	1.005163	-0.059566
O8	O	0.854119	0.662432	0.059841
O9	O	0.583291	1.347882	-0.210931
O10	O	0.838970	0.892366	-0.044414
O11	O	0.749845	0.892366	0.044711
O12	O	0.749843	1.117942	-0.133523
O13	O	0.660718	1.117942	-0.044398
Zr14	Zr	0.889656	1.005139	0.095407
Zr15	Zr	0.889646	1.005149	-0.095072
Zr16	Zr	0.699177	1.005149	0.095396
Zr17	Zr	0.699175	1.246187	-0.095055
Zr18	Zr	0.889648	0.764111	0.095379
O19	O	0.854136	1.196727	0.059903
O20	O	0.854122	1.196742	-0.210933
O21	O	0.583300	1.196742	0.059887
O22	O	1.005537	0.813541	0.211272
O23	O	1.005523	0.813556	-0.059564
O24	O	0.734701	0.813556	0.211257
O25	O	1.005529	1.005141	-0.059542
O26	O	0.854138	1.005134	0.211286
O27	O	0.734707	1.005141	0.211279
O28	O	1.005535	1.005134	0.059889
O29	O	0.734696	1.347874	-0.210922
O30	O	0.854127	0.662424	0.211246
O31	O	1.005532	0.662416	0.211255
O32	O	1.005524	0.662424	0.059850
O33	O	0.583299	1.347874	-0.059526
O34	O	0.734704	1.347866	-0.059517
O35	O	0.838980	0.892356	0.133846
O36	O	0.928105	0.892356	0.044721
O37	O	0.838978	1.117932	-0.044388
O38	O	0.749852	1.117932	0.044737
C39	C	0.794402	0.703660	0.000127
C40	C	0.794399	0.601338	0.000115
C41	C	0.728605	0.636471	-0.065650
C42	C	0.728619	0.540282	-0.065606
C43	C	0.860224	0.373827	0.065977
C44	C	0.860213	0.470015	0.065928
C45	C	0.652622	0.732572	-0.141617
C46	C	0.652636	0.636383	-0.141572
C47	C	0.556152	1.005162	0.000148
C48	C	0.475289	1.005166	0.000144
C49	C	0.409618	1.005171	0.000144
C50	C	0.327236	1.005165	0.000152
C51	C	0.261579	1.005152	0.000163
C52	C	0.179192	1.005146	0.000169
C53	C	1.032671	1.005136	0.000175
C54	C	1.113534	1.005132	0.000180
C55	C	0.794399	1.005162	-0.238098
C56	C	0.794395	1.005166	-0.318961
C57	C	0.794421	1.306638	0.000197
C58	C	0.794424	1.408960	0.000209
C59	C	0.794428	1.005127	-0.615045
C60	C	0.794421	1.005132	-0.532663
C61	C	0.794411	1.005146	-0.467005
C62	C	0.794405	1.005152	-0.384619
C63	C	0.794424	1.005136	0.238421
C64	C	0.794428	1.005132	0.319285
C65	C	1.032661	0.703647	0.000141
C66	C	1.113521	0.601320	0.000133
C67	C	0.794414	0.703647	0.238387
C68	C	0.794415	0.601320	0.319238
C69	C	1.032674	0.703635	0.238400
C70	C	1.113538	0.601303	0.319256
C71	C	0.556149	1.306663	-0.238076
C72	C	0.475285	1.408994	-0.318932
C73	C	0.556161	1.306650	0.000183
C74	C	0.475301	1.408977	0.000190
C75	C	0.794409	1.306650	-0.238063
C76	C	0.794408	1.408977	-0.318914
C77	C	1.104967	0.553272	-0.046406
C78	C	1.180936	0.457138	-0.046430
C79	C	1.265459	0.409048	0.000090
C80	C	1.274012	0.457107	0.046630
C81	C	1.198044	0.553245	0.046649
C82	C	0.840943	0.553262	0.403742
C83	C	0.840940	0.457128	0.479718
C84	C	0.794415	0.409049	0.471187
C85	C	0.747881	0.457117	0.386674
C86	C	0.747879	0.553255	0.310700
C87	C	1.198043	0.553248	0.310705
C88	C	1.274031	0.457110	0.386670
C89	C	1.265511	0.409023	0.471186
C90	C	1.180997	0.457088	0.479736
C91	C	1.105012	0.553231	0.403771
C92	C	0.390780	1.457062	-0.310381
C93	C	0.314792	1.553229	-0.386346
C94	C	0.323311	1.601321	-0.470862
C95	C	0.407825	1.553250	-0.479412
C96	C	0.483811	1.457090	-0.403448
C97	C	0.483856	1.457036	0.046721
C98	C	0.407887	1.553196	0.046725
C99	C	0.323364	1.601289	0.000202
C100	C	0.314811	1.553227	-0.046335
C101	C	0.390779	1.457075	-0.046343
C102	C	0.840942	1.457026	-0.310355
C103	C	0.840959	1.553161	-0.386316
C104	C	0.794435	1.601251	-0.470835
C105	C	0.747899	1.553192	-0.479393
C106	C	0.747888	1.457053	-0.403432
H107	H	0.913808	0.266895	0.119561
O108	O	0.382534	1.410164	-0.228270
C109	C	0.423702	1.275440	-0.181534
H110	H	0.427203	1.249116	-0.230830
H111	H	0.383406	1.247818	-0.139532
H112	H	0.493785	1.220444	-0.136449
H113	H	0.587751	0.647200	-0.135010
O114	O	0.416365	1.599681	0.092018
C115	C	0.507259	1.536616	0.133067
H116	H	0.547758	1.439171	0.142260
H117	H	0.517859	1.520029	0.200655
H118	H	0.529660	1.599651	0.089481
H119	H	0.913796	0.441398	0.119474
O120	O	0.702675	0.599740	0.228681
C121	C	0.661600	0.536699	0.237455
H122	H	0.698095	0.439259	0.305256
H123	H	0.664107	0.520102	0.182977
H124	H	0.589385	0.599756	0.231227
H125	H	0.592196	0.792248	-0.128348
O126	O	0.794384	1.694607	-0.544711
C127	C	0.743323	1.726786	-0.621152
H128	H	0.739818	1.642478	-0.603745
H129	H	0.775545	1.746769	-0.674798
H130	H	0.673318	1.817130	-0.646726
H131	H	0.665907	0.636352	-0.201988
H132	H	1.205021	0.592354	0.084552
O133	O	0.886144	0.599867	0.412199
C134	C	0.927214	0.536806	0.503084
H135	H	0.890725	0.497179	0.543591
H136	H	0.924694	0.608939	0.513678
H137	H	0.999433	0.453308	0.525474
H138	H	1.036151	0.592425	-0.084299
O139	O	1.172688	0.410571	0.561820
C140	C	1.125807	0.513156	0.571579
H141	H	1.132120	0.594899	0.523470
H142	H	1.154694	0.476465	0.642645
H143	H	1.052700	0.551056	0.556516
O144	O	0.702692	1.599733	-0.561431
C145	C	0.661591	1.536742	-0.552711
H146	H	0.698070	1.439278	-0.484927
H147	H	0.664089	1.520201	-0.607217
H148	H	0.589378	1.599809	-0.558938
H149	H	1.204997	0.592386	0.241894
H150	H	0.261513	1.679582	0.000216
H151	H	0.552672	1.417886	0.084612
H152	H	0.245982	1.592399	-0.084212
H153	H	0.414752	1.592418	-0.548234
O154	O	0.382304	1.410486	-0.091551
C155	C	0.291409	1.473581	-0.132622
H156	H	0.250907	1.513208	-0.096125
H157	H	0.280800	1.401471	-0.130120
H158	H	0.269021	1.557083	-0.204829
H159	H	1.342839	0.417985	0.379693
H160	H	1.036207	0.592346	0.410746
O161	O	0.886219	1.410422	-0.228326
C162	C	0.927274	1.473482	-0.237079
H163	H	0.936481	1.513098	-0.304875
H164	H	0.994861	1.401349	-0.182593
H165	H	0.883681	1.556986	-0.230845
O166	O	1.339420	0.315584	0.544882
C167	C	1.415830	0.283510	0.519200
H168	H	1.398370	0.310019	0.449068
H169	H	1.469493	0.174842	0.567182
H170	H	1.441412	0.339729	0.520584
H171	H	0.878852	1.592280	-0.379331
H172	H	1.173955	0.418021	-0.084329
O173	O	0.886073	0.410338	0.561873
C174	C	0.876120	0.315155	0.627109
H175	H	0.813277	0.330940	0.597515
H176	H	0.870804	0.322973	0.685694
H177	H	0.936229	0.214588	0.650872
O178	O	0.702584	1.410454	-0.411655
C179	C	0.637262	1.434029	-0.370529
H180	H	0.656846	1.445935	-0.318723
H181	H	0.631572	1.348683	-0.336838
H182	H	0.570547	1.526527	-0.422770
H183	H	0.659158	0.795550	-0.206517
O184	O	1.339223	0.315489	0.000174
C185	C	1.339052	0.204292	0.037128
H186	H	1.296097	0.204412	0.081646
H187	H	1.409924	0.113400	0.078144
H188	H	1.310999	0.205145	-0.018523
O189	O	0.794302	0.315694	0.544901
C190	C	0.743283	0.283526	0.519261
H191	H	0.694074	0.367839	0.449138
H192	H	0.705425	0.263545	0.567271
H193	H	0.789092	0.193184	0.520640
O194	O	1.356187	0.410197	0.091808
C195	C	1.421393	0.315059	0.081790
H196	H	1.391761	0.273046	0.064637
H197	H	1.479987	0.234147	0.146538
H198	H	1.445161	0.361052	0.026095
H199	H	0.710001	0.417956	0.379742
O200	O	0.232750	1.599926	-0.377916
C201	C	0.223023	1.655531	-0.331038
H202	H	0.291424	1.612091	-0.289114
H203	H	0.183076	1.634421	-0.285867
H204	H	0.186702	1.765041	-0.380223
H205	H	0.552617	1.417955	-0.410421
O206	O	0.249403	1.694684	-0.544559
C207	C	0.172993	1.726807	-0.518876
H208	H	0.190450	1.642470	-0.448752
H209	H	0.119326	1.746786	-0.566869
H210	H	0.147417	1.817138	-0.520242
