data_functionalizedCrystal
_audit_creation_method	'MofGen! by Chris Wilmer'
_symmetry_space_group_name_H-M	'P1'
_symmetry_Int_Tables_number	1
_symmetry_cell_setting	triclinic
loop_
_symmetry_equiv_pos_as_xyz
  x,y,z
_cell_length_a	10.654554
_cell_length_b	10.540539
_cell_length_c	9.130313
_cell_angle_alpha	90.000859
_cell_angle_beta	89.998999
_cell_angle_gamma	84.506167
loop_
_atom_site_label
_atom_site_type_symbol
_atom_site_fract_x
_atom_site_fract_y
_atom_site_fract_z
O1	O	1.667893	0.178324	-0.121818
O2	O	1.302422	0.195305	-0.121814
O3	O	1.493495	0.002105	-0.121814
O4	O	1.476819	0.371523	-0.121818
O5	O	1.493493	0.002110	0.121784
O6	O	1.302419	0.195310	0.121784
O7	O	1.667891	0.178329	0.121781
Cu8	Cu	1.485155	0.186820	0.144025
Cu9	Cu	1.485158	0.186814	-0.144059
O10	O	1.476817	0.371529	0.121781
C11	C	1.255622	0.194059	-0.000015
C12	C	1.116178	0.190325	-0.000014
C13	C	0.933573	0.069550	-0.000031
C14	C	1.064596	0.073058	-0.000017
C15	C	1.036729	0.304092	-0.000011
C16	C	0.905709	0.300583	-0.000015
C17	C	0.949664	-0.063835	-0.000041
C18	C	1.080686	-0.060328	-0.000026
C19	C	1.492244	-0.045195	-0.000018
C20	C	1.488502	-0.186142	-0.000026
C21	C	1.345131	-0.369520	-0.000571
C22	C	1.348924	-0.222903	-0.000023
C23	C	1.555672	-0.247820	0.139081
C24	C	1.550908	-0.394363	0.139198
C25	C	1.553750	-0.394888	-0.137819
C26	C	1.555036	-0.247906	-0.139659
C27	C	1.714690	0.179574	-0.000022
C28	C	1.854135	0.183308	-0.000033
C29	C	1.478069	0.418829	-0.000019
C30	C	1.481810	0.559775	-0.000021
N31	N	1.485162	0.186823	0.346648
N32	N	1.485160	0.186800	-0.346681
C33	C	1.569792	0.101304	0.423300
C34	C	1.569788	0.101289	0.576637
C35	C	1.400522	0.272324	0.576656
C36	C	1.400520	0.272332	0.423322
C37	C	1.667520	0.002562	0.423290
C38	C	1.667517	0.002546	0.576627
H39	H	0.920281	-0.116002	0.101898
C40	C	1.277512	-0.165322	-0.134729
N41	N	1.223714	-0.121957	-0.236190
H42	H	1.636971	-0.089660	0.624175
H43	H	1.289995	-0.398103	-0.100326
C44	C	1.694141	-0.217643	0.146091
N45	N	1.798432	-0.194903	0.151374
C46	C	1.307419	0.366376	0.661012
N47	N	1.237291	0.437218	0.724547
C48	C	1.483828	-0.432434	0.279669
N49	N	1.433296	-0.461103	0.385472
H50	H	1.646043	-0.095012	0.381671
C51	C	0.901508	-0.121232	-0.142128
N52	N	0.865237	-0.164465	-0.249148
C53	C	1.270958	-0.410260	0.133471
N54	N	1.215100	-0.440935	0.234445
C55	C	1.093473	0.433087	0.000002
N56	N	1.136211	0.530249	0.000009
C57	C	1.790722	0.044324	0.359032
N58	N	1.883518	0.075780	0.310632
H59	H	1.651291	-0.442365	0.145508
H60	H	1.126310	-0.100632	0.105158
C61	C	1.797876	0.032029	0.632854
N62	N	1.896047	0.054273	0.675204
C63	C	1.277023	-0.166460	0.134921
N64	N	1.222866	-0.123948	0.236568
C65	C	1.492628	-0.190256	0.278934
N66	N	1.445135	-0.146902	0.384268
H67	H	0.841033	0.393216	0.000001
H68	H	1.508576	-0.426427	-0.243253
C69	C	1.488703	-0.192616	-0.278687
N70	N	1.438729	-0.150974	-0.383401
C71	C	1.692519	-0.215243	-0.151004
N72	N	1.796078	-0.190645	-0.159536
H73	H	1.122427	-0.110581	-0.101974
C74	C	1.689945	-0.458742	-0.139092
N75	N	1.792522	-0.506845	-0.140041
H76	H	1.331597	0.341957	0.360913
