data_functionalizedCrystal
_audit_creation_method	'MofGen! by Chris Wilmer'
_symmetry_space_group_name_H-M	'P1'
_symmetry_Int_Tables_number	1
_symmetry_cell_setting	triclinic
loop_
_symmetry_equiv_pos_as_xyz
  x,y,z
_cell_length_a	10.654550
_cell_length_b	11.792241
_cell_length_c	9.130313
_cell_angle_alpha	89.995332
_cell_angle_beta	89.999724
_cell_angle_gamma	84.339173
loop_
_atom_site_label
_atom_site_type_symbol
_atom_site_fract_x
_atom_site_fract_y
_atom_site_fract_z
O1	O	1.667388	0.159420	-0.121691
O2	O	1.301867	0.174608	-0.121718
O3	O	1.493498	0.001864	-0.121693
O4	O	1.475758	0.332164	-0.121715
O5	O	1.493485	0.001859	0.121906
O6	O	1.301854	0.174603	0.121881
O7	O	1.667375	0.159415	0.121908
Cu8	Cu	1.484613	0.167009	0.144137
Cu9	Cu	1.484629	0.167015	-0.143947
O10	O	1.475744	0.332159	0.121884
C11	C	1.255066	0.173491	0.000078
C12	C	1.115632	0.170154	0.000068
C13	C	1.035859	0.271863	0.000066
C14	C	0.904847	0.268721	0.000092
C15	C	0.933394	0.062152	0.000116
C16	C	1.064403	0.065295	0.000101
C17	C	1.492377	-0.040432	0.000106
C18	C	1.489042	-0.166453	0.000104
C19	C	1.482908	-0.397180	0.000079
C20	C	1.486316	-0.268787	0.000093
C21	C	1.714177	0.160533	0.000109
C22	C	1.853611	0.163869	0.000109
C23	C	1.476865	0.374455	0.000082
C24	C	1.480201	0.500477	0.000074
N25	N	1.484612	0.167004	0.346760
N26	N	1.484641	0.167011	-0.346569
C27	C	1.569495	0.090545	0.423422
C28	C	1.569507	0.090545	0.576759
C29	C	1.399749	0.243473	0.576757
C30	C	1.399732	0.243466	0.423423
H31	H	1.129359	-0.017534	0.000107
C32	C	0.877941	-0.051769	-0.000096
C33	C	0.918440	-0.113324	-0.125402
C34	C	0.867398	-0.218282	-0.125643
H35	H	0.788494	-0.039236	-0.000168
H36	H	0.905315	-0.093756	0.084810
H37	H	0.891059	-0.071347	-0.210285
H38	H	1.007879	-0.125888	-0.125356
H39	H	0.894772	-0.260268	-0.040738
H40	H	0.777953	-0.205737	-0.125711
H41	H	0.894878	-0.260064	-0.210654
H42	H	1.638607	0.028283	0.361007
C43	C	0.818173	0.379113	0.000380
C44	C	0.742160	0.383366	0.125735
C45	C	0.662313	0.485052	0.126060
H46	H	0.766347	0.382284	-0.084462
H47	H	0.867405	0.442042	0.000437
H48	H	0.692932	0.320454	0.125665
H49	H	0.793953	0.380214	0.210597
H50	H	0.711545	0.547981	0.126117
H51	H	0.610495	0.488214	0.041213
H52	H	0.610737	0.487956	0.211118
H53	H	1.638624	0.028284	0.639174
H54	H	1.330643	0.305729	0.639192
C55	C	1.307714	0.326671	0.340258
C56	C	1.328854	0.438383	0.377498
C57	C	1.244124	0.515054	0.300902
H58	H	1.223766	0.313793	0.365340
H59	H	1.319864	0.315790	0.237944
H60	H	1.316694	0.449259	0.479789
H61	H	1.412785	0.451298	0.352412
H62	H	1.256274	0.504174	0.198588
H63	H	1.160182	0.502166	0.325989
H64	H	1.258464	0.590860	0.326148
C65	C	1.091237	0.385819	0.000120
C66	C	0.993327	0.474218	0.000164
C67	C	1.044289	0.579213	0.000238
H68	H	1.141726	0.391505	-0.084812
H69	H	1.141722	0.391399	0.085096
H70	H	0.942864	0.468641	-0.084804
H71	H	0.942831	0.468570	0.085089
H72	H	1.094774	0.584792	0.085214
H73	H	1.094777	0.584887	-0.084695
H74	H	0.977866	0.639203	0.000282
