data_functionalizedCrystal
_audit_creation_method	'MofGen! by Chris Wilmer'
_symmetry_space_group_name_H-M	'P1'
_symmetry_Int_Tables_number	1
_symmetry_cell_setting	triclinic
loop_
_symmetry_equiv_pos_as_xyz
  x,y,z
_cell_length_a	17.077404
_cell_length_b	19.121063
_cell_length_c	17.077395
_cell_angle_alpha	92.409894
_cell_angle_beta	89.984359
_cell_angle_gamma	92.469213
loop_
_atom_site_label
_atom_site_type_symbol
_atom_site_fract_x
_atom_site_fract_y
_atom_site_fract_z
Zn1	Zn	1.186666	-0.279619	-0.457152
Zn2	Zn	1.519999	0.053715	-0.123819
Zn3	Zn	1.853333	0.387048	0.209515
Zn4	Zn	1.180971	-0.397073	-0.331477
Zn5	Zn	1.514304	-0.063740	0.001857
Zn6	Zn	1.847637	0.269593	0.335190
Zn7	Zn	1.055406	-0.279641	-0.325901
Zn8	Zn	1.388739	0.053693	0.007432
Zn9	Zn	1.722072	0.387026	0.340766
Zn10	Zn	1.049756	-0.397034	-0.462698
Zn11	Zn	1.383090	-0.063701	-0.129365
Zn12	Zn	1.716423	0.269632	0.203968
O13	O	1.118200	-0.338342	-0.394307
O14	O	1.451533	-0.005008	-0.060974
O15	O	1.784866	0.328325	0.272360
O16	O	1.295757	-0.295206	-0.440493
O17	O	1.629090	0.038127	-0.107160
O18	O	1.962424	0.371460	0.226173
O19	O	1.164295	-0.381521	-0.220891
O20	O	1.497628	-0.048188	0.112442
O21	O	1.830962	0.285145	0.445775
O22	O	1.077565	-0.181353	-0.338657
O23	O	1.410899	0.151980	-0.005324
O24	O	1.744232	0.485313	0.328009
O25	O	1.291573	-0.381500	-0.348160
O26	O	1.624906	-0.048166	-0.014827
O27	O	1.958239	0.285167	0.318507
O28	O	1.174002	-0.181337	-0.435087
O29	O	1.507335	0.151996	-0.101753
O30	O	1.840669	0.485330	0.231580
O31	O	1.072043	-0.295244	-0.216795
O32	O	1.405376	0.038089	0.116538
O33	O	1.738710	0.371423	0.449872
O34	O	0.944810	-0.295206	-0.344035
O35	O	1.278143	0.038127	-0.010702
O36	O	1.611476	0.371461	0.322631
O37	O	1.067937	-0.381433	-0.571808
O38	O	1.401270	-0.048100	-0.238475
O39	O	1.734604	0.285234	0.094858
O40	O	0.940659	-0.381455	-0.444540
O41	O	1.273993	-0.048121	-0.111206
O42	O	1.607326	0.285212	0.222127
O43	O	1.168524	-0.295169	-0.567734
O44	O	1.501857	0.038165	-0.234400
O45	O	1.835191	0.371498	0.098933
O46	O	1.158817	-0.495353	-0.353538
O47	O	1.492150	-0.162019	-0.020205
O48	O	1.825484	0.171314	0.313129
O49	O	1.062415	-0.495324	-0.449946
O50	O	1.395748	-0.161991	-0.116613
O51	O	1.729081	0.171343	0.216721
C52	C	0.914252	-0.338329	-0.394285
C53	C	1.247586	-0.004996	-0.060951
C54	C	1.580919	0.328338	0.272382
C55	C	0.827002	-0.338340	-0.394295
C56	C	1.160335	-0.005007	-0.060961
C57	C	1.493669	0.328326	0.272372
C58	C	0.783868	-0.383318	-0.446550
C59	C	1.117201	-0.049984	-0.113217
C60	C	1.450535	0.283349	0.220117
C61	C	0.701888	-0.383319	-0.446563
C62	C	1.035221	-0.049986	-0.113229
C63	C	1.368554	0.283347	0.220104
C64	C	0.663042	-0.338347	-0.394315
C65	C	0.996376	-0.005013	-0.060982
C66	C	1.329709	0.328320	0.272351
C67	C	0.706182	-0.293364	-0.342058
C68	C	1.039516	0.039969	-0.008724
C69	C	1.372849	0.373302	0.324609
C70	C	0.788162	-0.293360	-0.342049
C71	C	1.121495	0.039974	-0.008716
C72	C	1.454828	0.373307	0.324617
C73	C	0.535312	-0.293378	-0.342077
C74	C	0.868645	0.039955	-0.008744
C75	C	1.201978	0.373289	0.324589
C76	C	0.453327	-0.293383	-0.342084
C77	C	0.786660	0.039950	-0.008751
C78	C	1.119994	0.373283	0.324582
C79	C	0.449038	-0.383338	-0.446590
C80	C	0.782371	-0.050004	-0.113257
C81	C	1.115704	0.283329	0.220076
C82	C	0.531017	-0.383333	-0.446582
C83	C	0.864350	-0.050000	-0.113249
C84	C	1.197684	0.283334	0.220085
C85	C	0.574151	-0.338352	-0.394323
C86	C	0.907485	-0.005018	-0.060990
C87	C	1.240818	0.328315	0.272344
C88	C	1.109406	-0.520823	-0.402966
C89	C	1.442739	-0.187489	-0.069633
C90	C	1.776073	0.145844	0.263701
C91	C	1.105716	-0.598889	-0.406697
C92	C	1.439049	-0.265555	-0.073363
C93	C	1.772383	0.067778	0.259970
C94	C	1.154213	-0.635556	-0.358296
C95	C	1.487546	-0.302222	-0.024963
C96	C	1.820880	0.031111	0.308370
C97	C	1.150747	-0.708907	-0.361810
C98	C	1.484080	-0.375574	-0.028476
C99	C	1.817414	-0.042240	0.304857
C100	C	1.098780	-0.745590	-0.413720
C101	C	1.432113	-0.412257	-0.080386
C102	C	1.765446	-0.078923	0.252947
C103	C	1.050281	-0.708918	-0.462125
C104	C	1.383614	-0.375584	-0.128792
C105	C	1.716947	-0.042251	0.204541
C106	C	1.053751	-0.635568	-0.458615
C107	C	1.387084	-0.302234	-0.125282
C108	C	1.720418	0.031099	0.208051
C109	C	1.085792	-0.967060	-0.426830
C110	C	1.419125	-0.633727	-0.093497
C111	C	1.752458	-0.300393	0.239837
C112	C	1.082323	-1.040415	-0.430335
C113	C	1.415657	-0.707082	-0.097001
C114	C	1.748990	-0.373748	0.236332
C115	C	1.182791	-1.040400	-0.330019
C116	C	1.516124	-0.707066	0.003314
C117	C	1.849458	-0.373733	0.336647
C118	C	1.186254	-0.967048	-0.326511
C119	C	1.519587	-0.633715	0.006822
C120	C	1.852920	-0.300382	0.340156
C121	C	1.137758	-0.930382	-0.374919
C122	C	1.471091	-0.597049	-0.041586
C123	C	1.804424	-0.263716	0.291747
C124	C	1.095234	-0.820567	-0.417310
C125	C	1.428567	-0.487233	-0.083977
C126	C	1.761900	-0.153900	0.249356
C127	C	1.141308	-0.855407	-0.371332
C128	C	1.474641	-0.522073	-0.037999
C129	C	1.807974	-0.188740	0.295335
C130	C	1.322943	-0.338355	-0.394330
C131	C	1.656277	-0.005022	-0.060997
C132	C	1.989610	0.328312	0.272337
C133	C	1.410193	-0.338361	-0.394340
C134	C	1.743526	-0.005027	-0.061006
C135	C	2.076860	0.328306	0.272327
C136	C	1.118236	-0.338294	-0.599049
C137	C	1.451569	-0.004961	-0.265716
C138	C	1.784902	0.328373	0.067618
C139	C	1.118251	-0.338274	-0.686298
C140	C	1.451584	-0.004940	-0.352965
C141	C	1.784918	0.328393	-0.019631
C142	C	1.127049	-0.155148	-0.385631
C143	C	1.460382	0.178185	-0.052298
C144	C	1.793716	0.511518	0.281035
C145	C	1.130820	-0.077082	-0.381934
C146	C	1.464154	0.256251	-0.048601
C147	C	1.797487	0.589584	0.284732
C148	C	1.170718	-0.293260	-1.059988
C149	C	1.504052	0.040073	-0.726654
C150	C	1.837385	0.373406	-0.393321
C151	C	1.170701	-0.293285	-0.978008
C152	C	1.504034	0.040048	-0.644675
C153	C	1.837368	0.373382	-0.311342
C154	C	1.118319	-0.338207	-0.939144
C155	C	1.451652	-0.004874	-0.605811
C156	C	1.784986	0.328459	-0.272477
C157	C	1.065956	-0.383113	-0.982264
C158	C	1.399289	-0.049780	-0.648930
C159	C	1.732623	0.283554	-0.315597
C160	C	1.065977	-0.383091	-1.064242
C161	C	1.399311	-0.049758	-0.730908
C162	C	1.732644	0.283575	-0.397575
C163	C	1.065913	-0.383154	-0.811395
C164	C	1.399247	-0.049820	-0.478062
C165	C	1.732580	0.283513	-0.144729
C166	C	1.065890	-0.383174	-0.729412
C167	C	1.399224	-0.049841	-0.396078
C168	C	1.732557	0.283492	-0.062745
C169	C	1.170637	-0.293347	-0.725162
C170	C	1.503970	0.039986	-0.391829
C171	C	1.837304	0.373319	-0.058495
C172	C	1.170658	-0.293326	-0.807140
C173	C	1.503992	0.040008	-0.473807
C174	C	1.837325	0.373341	-0.140473
C175	C	1.118294	-0.338231	-0.850254
C176	C	1.451628	-0.004897	-0.516921
C177	C	1.784961	0.328436	-0.183587
C178	C	1.118211	-0.338339	-0.190359
C179	C	1.451545	-0.005005	0.142974
C180	C	1.784878	0.328328	0.476308
C181	C	1.118358	-0.338161	-0.103101
C182	C	1.451691	-0.004828	0.230232
C183	C	1.785024	0.328506	0.563565
H184	H	0.815490	-0.419942	-0.489093
H185	H	1.148823	-0.086609	-0.155760
H186	H	1.482156	0.246724	0.177573
H187	H	1.023219	-0.419738	-0.697770
H188	H	1.356552	-0.086404	-0.364437
H189	H	1.689886	0.246929	-0.031103
Br190	Br	0.583735	-0.444375	-0.517482
Br191	Br	0.917068	-0.111042	-0.184149
Br192	Br	1.250402	0.222292	0.149184
Br193	Br	0.994918	-0.444034	-1.122754
Br194	Br	1.328251	-0.110701	-0.789421
Br195	Br	1.661584	0.222633	-0.456088
Br196	Br	1.256794	-0.917269	-0.256069
Br197	Br	1.590127	-0.583936	0.077264
Br198	Br	1.923460	-0.250603	0.410598
Br199	Br	1.216572	-0.758667	-0.296125
Br200	Br	1.549906	-0.425334	0.037208
Br201	Br	1.883239	-0.092001	0.370541
Br202	Br	1.241802	-0.232281	-1.112723
Br203	Br	1.575136	0.101052	-0.779390
Br204	Br	1.908469	0.434385	-0.446057
Br205	Br	1.024710	-0.870356	-0.487759
Br206	Br	1.358043	-0.537023	-0.154426
Br207	Br	1.691376	-0.203690	0.178907
H208	H	1.183623	-0.825538	-0.329070
H209	H	1.516956	-0.492204	0.004264
H210	H	1.850289	-0.158871	0.337597
H211	H	1.213310	-0.256743	-0.838781
H212	H	1.546643	0.076590	-0.505447
H213	H	1.879976	0.409924	-0.172114
Br214	Br	1.248607	-1.090164	-0.264330
Br215	Br	1.581941	-0.756831	0.069003
Br216	Br	1.915274	-0.423497	0.402337
Br217	Br	0.593851	-0.232330	-0.271155
Br218	Br	0.927184	0.101004	0.062178
Br219	Br	1.260518	0.434337	0.395511
Br220	Br	0.400608	-0.232354	-0.271171
Br221	Br	0.733941	0.100980	0.062162
Br222	Br	1.067275	0.434313	0.395496
Br223	Br	0.846702	-0.232313	-0.271133
Br224	Br	1.180035	0.101020	0.062201
Br225	Br	1.513369	0.434354	0.395534
H226	H	1.213272	-0.256783	-0.690055
H227	H	1.546606	0.076551	-0.356721
H228	H	1.879939	0.409884	-0.023388
Br229	Br	0.643351	-0.444361	-0.517486
Br230	Br	0.976685	-0.111028	-0.184152
Br231	Br	1.310018	0.222306	0.149181
Br232	Br	0.994848	-0.444097	-0.869907
Br233	Br	1.328181	-0.110764	-0.536574
Br234	Br	1.661515	0.222569	-0.203240
Br235	Br	0.653465	-0.232322	-0.271157
Br236	Br	0.986799	0.101011	0.062176
Br237	Br	1.320132	0.434344	0.395510
H238	H	1.007971	-0.738790	-0.504395
H239	H	1.341304	-0.405457	-0.171062
H240	H	1.674638	-0.072124	0.162272
Br241	Br	0.994868	-0.444083	-0.929520
Br242	Br	1.328201	-0.110749	-0.596187
Br243	Br	1.661534	0.222584	-0.262854
H244	H	1.040014	-1.070280	-0.472620
H245	H	1.373348	-0.736947	-0.139286
H246	H	1.706681	-0.403613	0.194047
H247	H	0.413914	-0.419961	-0.489144
H248	H	0.747247	-0.086628	-0.155810
H249	H	1.080581	0.246705	0.177523
H250	H	1.213340	-0.256724	-0.942909
H251	H	1.546674	0.076609	-0.609575
H252	H	1.880007	0.409942	-0.276242
H253	H	1.196527	-0.605694	-0.316022
H254	H	1.529860	-0.272360	0.017311
H255	H	1.863194	0.060973	0.350644
H256	H	1.046303	-0.937212	-0.466245
H257	H	1.379636	-0.603879	-0.132911
H258	H	1.712969	-0.270546	0.200422
H259	H	1.014261	-0.605714	-0.498029
H260	H	1.347594	-0.272380	-0.164696
H261	H	1.680927	0.060953	0.168638
