data_functionalizedCrystal
_audit_creation_method	'MofGen! by Chris Wilmer'
_symmetry_space_group_name_H-M	'P1'
_symmetry_Int_Tables_number	1
_symmetry_cell_setting	triclinic
loop_
_symmetry_equiv_pos_as_xyz
  x,y,z
_cell_length_a	8.597340
_cell_length_b	10.723023
_cell_length_c	7.088929
_cell_angle_alpha	83.717996
_cell_angle_beta	103.954719
_cell_angle_gamma	84.901714
loop_
_atom_site_label
_atom_site_type_symbol
_atom_site_fract_x
_atom_site_fract_y
_atom_site_fract_z
O1	O	2.103243	0.171370	0.187485
O2	O	1.638783	0.191739	0.110971
O3	O	1.881728	-0.000106	0.151001
O4	O	1.860298	0.363215	0.147455
O5	O	1.914195	-0.025802	0.474325
O6	O	1.671250	0.166043	0.434295
O7	O	2.135710	0.145673	0.510809
Cu8	Cu	1.906444	0.153512	0.502074
Cu9	Cu	1.868049	0.183901	0.119705
O10	O	1.892765	0.337519	0.470779
C11	C	1.595545	0.178135	0.262836
C12	C	1.418339	0.175867	0.233643
C13	C	1.896402	-0.059441	0.312404
C14	C	1.891737	-0.197959	0.311629
C15	C	1.872838	-0.246397	0.143792
C16	C	1.868016	-0.389561	0.142988
C17	C	2.178947	0.159278	0.358940
C18	C	2.356152	0.161547	0.388120
C19	C	1.878090	0.396854	0.309372
C20	C	1.882755	0.535373	0.310133
N21	N	1.933461	0.132138	0.771014
N22	N	1.841044	0.205265	-0.149232
H23	H	1.438482	0.151012	0.542714
O24	O	1.309294	0.189822	0.028840
H25	H	1.182547	0.185806	0.037263
H26	H	1.860222	-0.181876	0.000695
H27	H	1.851836	-0.431269	-0.000704
H28	H	1.898951	-0.422930	0.453835
H29	H	1.904336	-0.262477	0.454723
O30	O	1.714136	0.305628	0.721727
H31	H	1.716350	0.303839	0.566136
H32	H	2.029258	0.056360	0.868454
