data_functionalizedCrystal
_audit_creation_method	'MofGen! by Chris Wilmer'
_symmetry_space_group_name_H-M	'P1'
_symmetry_Int_Tables_number	1
_symmetry_cell_setting	triclinic
loop_
_symmetry_equiv_pos_as_xyz
  x,y,z
_cell_length_a	10.654550
_cell_length_b	10.489716
_cell_length_c	9.730223
_cell_angle_alpha	89.999635
_cell_angle_beta	89.999957
_cell_angle_gamma	84.507033
loop_
_atom_site_label
_atom_site_type_symbol
_atom_site_fract_x
_atom_site_fract_y
_atom_site_fract_z
O1	O	1.667907	0.179164	-0.114174
O2	O	2.167907	0.679164	0.385826
O3	O	1.302435	0.196233	-0.114198
O4	O	1.802435	0.696233	0.385802
O5	O	1.493504	0.002095	-0.114190
O6	O	1.993504	0.502095	0.385810
O7	O	1.476839	0.373302	-0.114181
O8	O	1.976839	0.873302	0.385819
O9	O	1.493491	0.002089	0.114390
O10	O	1.993491	0.502089	0.614390
O11	O	1.302423	0.196228	0.114382
O12	O	1.802423	0.696228	0.614382
O13	O	1.667895	0.179158	0.114406
O14	O	2.167895	0.679158	0.614406
Zn15	Zn	1.485157	0.187692	0.150686
Zn16	Zn	1.985157	0.687692	0.650686
Zn17	Zn	1.485173	0.187699	-0.150478
Zn18	Zn	1.985173	0.687699	0.349522
O19	O	1.476827	0.373297	0.114399
O20	O	1.976827	0.873297	0.614399
C21	C	1.255631	0.194977	0.000089
C22	C	1.755631	0.694977	0.500089
C23	C	1.116186	0.191228	0.000079
C24	C	1.616186	0.691228	0.500079
C25	C	1.492245	-0.045440	0.000096
C26	C	1.992245	0.454560	0.500096
C27	C	1.488499	-0.187069	0.000083
C28	C	1.988499	0.312931	0.500083
C29	C	1.036744	0.305533	0.000086
C30	C	1.536744	0.805533	0.500086
C31	C	0.905722	0.302002	0.000110
C32	C	1.405722	0.802002	0.500110
C33	C	0.933597	0.069850	0.000115
C34	C	1.433597	0.569850	0.500115
C35	C	1.064616	0.073382	0.000101
C36	C	1.564616	0.573382	0.500101
C37	C	1.605668	-0.284799	0.000103
C38	C	2.105668	0.215201	0.500103
C39	C	1.543760	-0.362127	-0.112599
C40	C	2.043760	0.137873	0.387401
C41	C	1.543720	-0.362097	0.112762
C42	C	2.043720	0.137903	0.612762
C43	C	1.426640	-0.262531	-0.112713
C44	C	1.926640	0.237469	0.387287
C45	C	1.426618	-0.262495	0.112750
C46	C	1.926618	0.237505	0.612750
C47	C	1.364623	-0.339774	0.000021
C48	C	1.864623	0.160226	0.500021
C49	C	1.714700	0.180414	0.000116
C50	C	2.214700	0.680414	0.500116
C51	C	1.854144	0.184164	0.000117
C52	C	2.354144	0.684164	0.500117
C53	C	1.478085	0.420831	0.000110
C54	C	1.978085	0.920831	0.500110
C55	C	1.481831	0.562461	0.000113
C56	C	1.981831	1.062461	0.500113
N57	N	1.485155	0.187687	0.356223
N58	N	1.985155	0.687687	0.856223
N59	N	1.485185	0.187695	-0.356014
N60	N	1.985185	0.687695	0.143986
C61	C	1.569789	0.101759	0.428152
C62	C	2.069789	0.601759	0.928152
C63	C	1.569802	0.101759	0.572035
C64	C	2.069802	0.601759	1.072035
C65	C	1.400542	0.273627	0.572046
C66	C	1.900542	0.773627	1.072046
C67	C	1.400524	0.273619	0.428166
C68	C	1.900524	0.773619	0.928166
H69	H	1.078728	0.401490	0.000079
H70	H	1.578728	0.901490	0.500079
H71	H	1.377210	-0.219201	-0.208099
H72	H	1.877210	0.280799	0.291901
F73	F	1.362037	-0.205559	0.237290
F74	F	1.862037	0.294441	0.737290
H75	H	1.262629	-0.364156	-0.000047
H76	H	1.762629	0.135844	0.499953
F77	F	1.608393	-0.418950	0.237301
F78	F	2.108393	0.081050	0.737301
F79	F	1.738879	-0.252606	-0.000033
F80	F	2.238879	0.247394	0.499967
F81	F	1.659858	0.010298	0.351590
F82	F	2.159858	0.510298	0.851590
H83	H	0.891592	-0.026096	0.000140
H84	H	1.391592	0.473904	0.500140
H85	H	1.638717	0.031788	0.630596
H86	H	2.138717	0.531788	1.130596
H87	H	1.331639	0.343593	0.630637
H88	H	1.831639	0.843593	1.130637
H89	H	1.331599	0.343593	0.369597
H90	H	1.831599	0.843593	0.869597
H91	H	1.129302	-0.019705	0.000099
H92	H	1.629302	0.480295	0.500099
F93	F	0.821179	0.423663	0.000119
F94	F	1.321179	0.923663	0.500119
H95	H	1.593226	-0.405644	-0.207876
H96	H	2.093226	0.094356	0.292124
