data_functionalizedCrystal
_audit_creation_method	'MofGen! by Chris Wilmer'
_symmetry_space_group_name_H-M	'P1'
_symmetry_Int_Tables_number	1
_symmetry_cell_setting	triclinic
loop_
_symmetry_equiv_pos_as_xyz
  x,y,z
_cell_length_a	6.817900
_cell_length_b	11.102183
_cell_length_c	16.305550
_cell_angle_alpha	93.871771
_cell_angle_beta	103.455250
_cell_angle_gamma	108.603876
loop_
_atom_site_label
_atom_site_type_symbol
_atom_site_fract_x
_atom_site_fract_y
_atom_site_fract_z
V1	V	-4.052574	-0.176911	-0.263030
O2	O	-4.012740	0.007398	-0.258024
O3	O	-4.029744	-0.349723	-0.261230
O4	O	-4.003648	-0.174674	-0.377747
O5	O	-4.039017	-0.168864	-0.140700
V6	V	-4.532957	-0.154808	-0.248398
O7	O	-4.320721	-0.225395	-0.295125
O8	O	-4.715008	-0.106324	-0.216303
O9	O	-4.332581	0.018004	-0.250199
O10	O	-4.690189	-0.339117	-0.253404
O11	O	-4.663911	-0.162856	-0.370728
O12	O	-4.358678	-0.157045	-0.133681
C13	C	-3.880983	-0.391836	-0.257080
C14	C	-3.943599	-0.533116	-0.256372
C15	C	-3.857871	-0.496208	-0.101856
C16	C	-3.844420	-0.544127	-0.024268
C17	C	-3.903261	-0.676872	-0.023608
C18	C	-3.975565	-0.761704	-0.100544
C19	C	-3.989016	-0.713785	-0.178132
C20	C	-3.930162	-0.581035	-0.178783
C21	C	-4.074758	-0.750693	-0.332647
C22	C	-4.015903	-0.617947	-0.333308
C23	C	-4.147062	-0.835525	-0.409583
C24	C	-4.160499	-0.787606	-0.487172
C25	C	-4.101650	-0.654851	-0.487829
C26	C	-4.029354	-0.570029	-0.410896
C27	C	-3.847692	-0.168542	-0.405708
C28	C	-3.889142	-0.167856	-0.499490
C29	C	-4.039834	-0.165200	-0.840236
C30	C	-3.802612	-0.157314	-0.799307
C31	C	-3.759603	-0.158553	-0.701812
C32	C	-3.965072	-0.166517	-0.671188
C33	C	-4.150785	-0.292032	-0.721813
C34	C	-4.192543	-0.291322	-0.819363
C35	C	-4.077232	-0.048574	-0.794393
C36	C	-4.029155	-0.047580	-0.696550
C37	C	-3.922834	-0.167266	-0.575650
C38	C	-4.082083	-0.164460	-0.935775
C39	C	-4.144686	0.060110	-0.254346
C40	C	-4.061307	0.201388	-0.255059
C41	C	-4.177976	-0.163182	-0.105716
C42	C	-4.115764	-0.163861	-0.011933
H43	H	-3.785551	-0.475043	0.038371
H44	H	-3.981401	-0.461937	-0.411423
O45	O	-3.764071	-0.257385	-0.836956
C46	C	-3.950539	-0.334466	-0.900170
H47	H	-4.097498	-0.319558	-0.885563
H48	H	-3.966546	-0.439947	-0.900837
H49	H	-3.938358	-0.306225	-0.965225
O50	O	-4.114361	-0.608145	-0.563139
C51	C	-3.908952	-0.526333	-0.564166
H52	H	-3.804914	-0.488365	-0.495857
H53	H	-3.924838	-0.442184	-0.598226
H54	H	-3.831004	-0.582292	-0.599245
H55	H	-3.619675	-0.068308	-0.666789
H56	H	-4.176210	-0.046019	-0.675203
O57	O	-3.695785	-0.259819	-0.682431
C58	C	-3.858604	-0.375324	-0.726402
H59	H	-4.019617	-0.359600	-0.743363
H60	H	-3.866793	-0.453428	-0.684059
H61	H	-3.821063	-0.406344	-0.787337
O62	O	-3.889983	-0.723210	0.051836
C63	C	-3.813613	-0.619882	0.119599
H64	H	-3.720651	-0.528408	0.097947
H65	H	-3.703134	-0.641882	0.176059
H66	H	-3.955293	-0.605801	0.139585
O67	O	-4.165476	-0.396741	-0.855672
C68	C	-4.358525	-0.473266	-0.915752
H69	H	-4.499226	-0.451946	-0.899605
H70	H	-4.381292	-0.579234	-0.913888
H71	H	-4.351164	-0.450501	-0.982343
H72	H	-4.368017	-0.302330	-0.847354
H73	H	-4.249991	-0.053235	-0.821209
H74	H	-3.809895	-0.388116	-0.102384
O75	O	-4.203998	-0.964488	-0.409043
C76	C	-4.073194	-1.012783	-0.447191
H77	H	-4.006349	-0.945004	-0.491354
H78	H	-4.172740	-1.112054	-0.485628
H79	H	-3.934728	-1.020343	-0.395442
O80	O	-4.335191	-0.304473	-0.699113
C81	C	-4.300241	-0.310606	-0.611043
H82	H	-4.158441	-0.344562	-0.588175
H83	H	-4.450236	-0.381057	-0.599024
H84	H	-4.263786	-0.211161	-0.574713
O85	O	-4.032568	-0.890613	-0.099750
C86	C	-4.005263	-0.914719	-0.014774
H87	H	-3.883490	-0.825521	0.030058
H88	H	-3.944541	-0.998960	-0.007401
H89	H	-4.165675	-0.939171	0.001734
H90	H	-3.682979	-0.066643	-0.811671
O91	O	-4.231034	-0.870144	-0.561850
C92	C	-4.441595	-0.954163	-0.570093
H93	H	-4.471176	-0.960068	-0.504247
H94	H	-4.462015	-1.053942	-0.601427
H95	H	-4.561856	-0.916422	-0.611272
H96	H	-3.971677	0.046528	-0.807762
H97	H	-3.894291	0.045258	-0.662173
O98	O	-4.100609	-0.397442	-0.701675
C99	C	-4.257043	-0.475783	-0.666333
H100	H	-4.340504	-0.415042	-0.638994
H101	H	-4.176467	-0.520059	-0.613309
H102	H	-4.380652	-0.555596	-0.718117
