data_functionalizedCrystal
_audit_creation_method	'MofGen! by Chris Wilmer'
_symmetry_space_group_name_H-M	'P1'
_symmetry_Int_Tables_number	1
_symmetry_cell_setting	triclinic
loop_
_symmetry_equiv_pos_as_xyz
  x,y,z
_cell_length_a	19.188905
_cell_length_b	19.188930
_cell_length_c	13.448316
_cell_angle_alpha	89.988273
_cell_angle_beta	89.986111
_cell_angle_gamma	83.139668
loop_
_atom_site_label
_atom_site_type_symbol
_atom_site_fract_x
_atom_site_fract_y
_atom_site_fract_z
O1	O	0.926158	0.087086	-0.082867
O2	O	0.722844	0.098839	-0.082834
O3	O	0.830368	-0.008694	-0.082832
O4	O	0.818634	0.194618	-0.082869
O5	O	0.830355	-0.008700	0.082552
O6	O	0.722831	0.098832	0.082550
O7	O	0.926145	0.087079	0.082517
Cu8	Cu	0.824486	0.092955	0.097634
Cu9	Cu	0.824502	0.092963	-0.097951
O10	O	0.818621	0.194612	0.082515
C11	C	0.696826	0.098458	-0.000138
C12	C	0.619321	0.097324	-0.000125
C13	C	0.829982	-0.034708	-0.000137
C14	C	0.828841	-0.112213	-0.000128
C15	C	0.582936	0.096783	-0.090278
C16	C	0.510113	0.095710	-0.090290
C17	C	0.473678	0.095164	-0.000144
C18	C	0.510071	0.095709	0.090021
C19	C	0.582892	0.096789	0.090031
N20	N	0.364652	0.053733	0.066951
N21	N	0.295475	0.052705	0.066935
C22	C	0.254272	0.091911	-0.000167
N23	N	0.284859	0.132175	-0.067269
N24	N	0.354043	0.133199	-0.067257
C25	C	0.394716	0.093993	-0.000144
C26	C	0.138923	0.090208	-0.090340
C27	C	0.066098	0.089139	-0.090348
C28	C	0.066058	0.089131	0.089966
C29	C	0.138881	0.090207	0.089971
C30	C	0.175310	0.090742	-0.000184
C31	C	0.891933	-0.157142	-0.000134
C32	C	0.890861	-0.229966	-0.000150
C33	C	0.826694	-0.257857	-0.000140
C34	C	0.763594	-0.212917	-0.000140
C35	C	0.764668	-0.140095	-0.000135
N36	N	0.777641	-0.365859	0.056151
N37	N	0.776626	-0.435038	0.056148
C38	C	0.823456	-0.477265	-0.000160
N39	N	0.871350	-0.447702	-0.056451
N40	N	0.872368	-0.378517	-0.056443
C41	C	0.825523	-0.336819	-0.000147
C42	C	0.885390	-0.601159	-0.000183
C43	C	0.884315	-0.673984	-0.000205
C44	C	0.757047	-0.656933	-0.000186
C45	C	0.758123	-0.584110	-0.000174
C46	C	0.822296	-0.556228	-0.000168
C47	C	0.952163	0.087460	-0.000181
C48	C	1.029668	0.088594	-0.000201
C49	C	0.819007	0.220626	-0.000182
C50	C	0.820148	0.298131	-0.000198
N51	N	0.824480	0.092949	0.235198
N52	N	0.824514	0.092963	-0.235516
C53	C	0.872107	0.045353	0.287240
C54	C	0.872111	0.045353	0.391343
C55	C	0.824492	0.092952	0.443403
C56	C	0.776861	0.140550	0.391354
C57	C	0.776853	0.140547	0.287253
C58	C	0.776880	0.140555	0.608334
C59	C	0.776888	0.140559	0.712443
C60	C	0.872138	0.045361	0.712424
C61	C	0.872130	0.045357	0.608323
C62	C	0.824500	0.092957	0.556282
H63	H	0.480483	0.095270	-0.163706
C64	C	0.693977	-0.243292	-0.000284
C65	C	0.689660	-0.284603	-0.085358
C66	C	0.625541	-0.312602	-0.085522
H67	H	0.656493	-0.206173	-0.000331
H68	H	0.690901	-0.271393	0.057359
H69	H	0.692729	-0.256503	-0.142986
H70	H	0.727129	-0.321733	-0.085329
H71	H	0.622465	-0.340703	-0.027879
H72	H	0.588062	-0.275478	-0.085567
H73	H	0.622606	-0.340640	-0.143239
C74	C	0.622543	0.097229	-0.188127
C75	C	0.672392	0.037788	-0.193390
C76	C	0.708886	0.038173	-0.283518
H77	H	0.645557	0.138312	-0.191973
H78	H	0.590469	0.096717	-0.241852
H79	H	0.704462	0.038306	-0.139680
H80	H	0.649397	-0.003304	-0.189561
H81	H	0.676811	0.037661	-0.337244
H82	H	0.731895	0.079258	-0.287356
H83	H	0.742708	-0.002161	-0.287105
H84	H	0.944187	-0.134445	-0.000132
H85	H	0.738085	0.179304	0.433748
C86	C	0.687449	-0.687341	-0.000131
C87	C	0.700011	-0.760733	-0.000118
C88	C	0.635913	-0.788771	-0.000060
H89	H	0.661434	-0.671969	-0.057785
H90	H	0.661467	-0.671956	0.057569
H91	H	0.725983	-0.776112	-0.057812
H92	H	0.726016	-0.776124	0.057531
H93	H	0.609931	-0.773386	0.057640
H94	H	0.609902	-0.773394	-0.057715
H95	H	0.644428	-0.838570	-0.000042
H96	H	0.168584	0.090651	-0.163750
H97	H	0.480401	0.095266	0.163419
C98	C	0.725087	0.192123	0.551779
C99	C	0.682446	0.155040	0.492068
C100	C	0.634725	0.202523	0.439965
H101	H	0.750028	0.221141	0.511065
H102	H	0.696689	0.220464	0.597661
H103	H	0.710841	0.126712	0.446191
H104	H	0.657490	0.126025	0.532757
H105	H	0.606327	0.230863	0.485848
H106	H	0.659672	0.231538	0.399257
H107	H	0.605783	0.177369	0.399452
H108	H	0.036393	0.088691	0.163364
H109	H	0.612516	0.097230	0.163447
C110	C	0.725226	0.192337	0.230799
C111	C	0.736348	0.260921	0.256069
C112	C	0.688805	0.308647	0.204074
H113	H	0.678624	0.184968	0.247843
H114	H	0.732043	0.185564	0.161335
H115	H	0.729524	0.267691	0.325517
H116	H	0.782940	0.268312	0.239022
H117	H	0.695622	0.301875	0.134610
H118	H	0.642206	0.301272	0.221123
H119	H	0.696348	0.355187	0.221205
H120	H	0.942239	-0.266555	-0.000158
C121	C	0.026722	0.088517	-0.188340
C122	C	0.074218	0.089197	-0.267286
C123	C	0.037971	0.088614	-0.357570
H124	H	-0.007141	0.128792	-0.192247
H125	H	0.003787	0.047374	-0.192131
H126	H	0.097141	0.130336	-0.263497
H127	H	0.108082	0.048925	-0.263411
H128	H	0.015036	0.047471	-0.361361
H129	H	0.004109	0.128890	-0.361467
H130	H	0.070192	0.089069	-0.411146
C131	C	0.178270	0.090748	0.187959
C132	C	0.130781	0.090022	0.266905
C133	C	0.167040	0.090513	0.357189
H134	H	0.201225	0.131864	0.191845
H135	H	0.212119	0.050445	0.191770
H136	H	0.096944	0.130320	0.263096
H137	H	0.107824	0.048909	0.263051
H138	H	0.200890	0.050210	0.361001
H139	H	0.189994	0.131630	0.361066
H140	H	0.134825	0.090014	0.410765
C141	C	0.696089	-0.091425	-0.000072
C142	C	0.639662	-0.131433	-0.000047
C143	C	0.576477	-0.086621	0.000027
H144	H	0.693769	-0.062635	-0.057724
H145	H	0.693820	-0.062686	0.057630
H146	H	0.641930	-0.160161	-0.057742
H147	H	0.641959	-0.160222	0.057601
H148	H	0.574207	-0.057882	0.057728
H149	H	0.574164	-0.057833	-0.057626
H150	H	0.538184	-0.113760	0.000053
H151	H	0.706747	-0.547527	-0.000164
H152	H	0.937644	-0.578456	-0.000183
C153	C	0.952895	-0.722652	-0.000161
C154	C	1.009320	-0.682643	-0.000127
C155	C	1.072507	-0.727453	-0.000072
H156	H	0.955231	-0.751419	-0.057823
H157	H	0.955150	-0.751416	0.057531
H158	H	1.007066	-0.653891	-0.057813
H159	H	1.007008	-0.653877	0.057530
H160	H	1.074762	-0.756216	0.057620
H161	H	1.074835	-0.756218	-0.057734
H162	H	1.110799	-0.700313	-0.000039
H163	H	0.910887	0.006595	0.244859
C164	C	0.923908	-0.006346	0.447665
C165	C	0.965628	-0.048012	0.379792
C166	C	1.013362	-0.095638	0.431639
H167	H	0.898978	-0.035419	0.488306
H168	H	0.952929	0.018689	0.488226
H169	H	0.936610	-0.073046	0.339248
H170	H	0.990573	-0.018959	0.339150
H171	H	1.042383	-0.070603	0.472200
H172	H	0.988426	-0.124706	0.472278
H173	H	1.041678	-0.123910	0.385595
C174	C	0.923820	-0.006432	0.768790
C175	C	0.912729	-0.075017	0.743474
C176	C	0.960333	-0.122741	0.795371
H177	H	0.917057	0.000283	0.838261
H178	H	0.970403	0.000995	0.751680
H179	H	0.866157	-0.082442	0.760591
H180	H	0.919497	-0.081755	0.674013
H181	H	1.006916	-0.115313	0.778261
H182	H	0.953566	-0.116019	0.864839
H183	H	0.952819	-0.169280	0.778195
H184	H	0.910909	0.006602	0.565936
H185	H	0.738111	0.179319	0.754825
