data_functionalizedCrystal
_audit_creation_method	'MofGen! by Chris Wilmer'
_symmetry_space_group_name_H-M	'P1'
_symmetry_Int_Tables_number	1
_symmetry_cell_setting	triclinic
loop_
_symmetry_equiv_pos_as_xyz
  x,y,z
_cell_length_a	16.959455
_cell_length_b	12.645330
_cell_length_c	16.959447
_cell_angle_alpha	90.028204
_cell_angle_beta	90.016723
_cell_angle_gamma	90.011594
loop_
_atom_site_label
_atom_site_type_symbol
_atom_site_fract_x
_atom_site_fract_y
_atom_site_fract_z
Zn1	Zn	1.208425	-0.422048	0.446971
Zn2	Zn	1.208364	-0.599340	0.314797
Zn3	Zn	1.076253	-0.422088	0.314803
Zn4	Zn	1.076235	-0.599267	0.446930
O5	O	1.142319	-0.510686	0.380875
O6	O	1.319027	-0.445580	0.429452
O7	O	1.190822	-0.575874	0.204187
O8	O	1.093819	-0.273735	0.332355
O9	O	1.318983	-0.575836	0.332345
O10	O	1.190925	-0.273706	0.429458
O11	O	1.093760	-0.445648	0.204191
O12	O	0.965640	-0.445577	0.332315
O13	O	1.093788	-0.575711	0.557547
O14	O	0.965626	-0.575750	0.429389
O15	O	1.190907	-0.445510	0.557577
O16	O	1.190804	-0.747677	0.332306
O17	O	1.093729	-0.747624	0.429383
C18	C	0.936953	-0.510660	0.380849
C19	C	0.849096	-0.510675	0.380856
C20	C	0.807806	-0.442803	0.330395
C21	C	0.807833	-0.578554	0.431328
C22	C	0.725287	-0.578567	0.431340
C23	C	0.683997	-0.510695	0.380879
C24	C	0.725252	-0.442811	0.330407
C25	C	0.684026	-0.646442	0.481817
C26	C	0.601475	-0.646456	0.481831
C27	C	0.560183	-0.578589	0.431366
C28	C	0.601443	-0.510703	0.380891
C29	C	0.560153	-0.442831	0.330430
C30	C	0.601412	-0.374950	0.279951
C31	C	0.683960	-0.374944	0.279942
C32	C	0.477634	-0.578595	0.431375
C33	C	0.477599	-0.442839	0.330442
C34	C	1.142280	-0.786115	0.380857
C35	C	1.142335	-0.903945	0.380875
C36	C	1.203307	-1.071499	0.319680
C37	C	1.203505	-0.948939	0.319829
C38	C	1.164917	-0.948326	0.464195
C39	C	1.165401	-1.070924	0.463870
C40	C	1.058757	-1.071271	0.359572
C41	C	1.059158	-0.948667	0.357703
C42	C	1.348487	-0.510712	0.380903
C43	C	1.436344	-0.510723	0.380914
C44	C	1.142352	-0.510598	0.587044
C45	C	1.142366	-0.510560	0.674900
C46	C	1.142380	-0.234180	0.380911
C47	C	1.142407	-0.116350	0.380927
C48	C	1.142332	-0.510696	0.175509
C49	C	1.142471	-0.510435	0.087653
C50	C	1.091895	-0.578239	1.046363
C51	C	1.193026	-0.442659	1.046389
C52	C	1.193005	-0.442681	0.963843
C53	C	1.142429	-0.510484	0.922553
C54	C	1.091874	-0.578265	0.963810
C55	C	1.243565	-0.374909	0.922581
C56	C	1.243546	-0.374930	0.840030
C57	C	1.192966	-0.442728	0.798739
C58	C	1.142408	-0.510511	0.840000
C59	C	1.091832	-0.578315	0.798710
C60	C	1.041270	-0.646093	0.839970
C61	C	1.041293	-0.646064	0.922518
C62	C	1.192942	-0.442757	0.716190
C63	C	1.091811	-0.578341	0.716156
H64	H	0.841402	-0.387539	0.289294
H65	H	1.000131	-0.701249	0.956119
O66	O	0.986711	-0.719217	0.795438
H67	H	1.022063	-0.773169	0.757816
O68	O	1.298074	-0.301827	0.795529
H69	H	1.333243	-0.254673	0.838110
O70	O	0.556876	-0.301766	0.225509
H71	H	0.492544	-0.313191	0.233995
O72	O	1.031554	-1.112334	0.280490
H73	H	1.021647	-1.044788	0.239910
H74	H	0.717561	-0.319678	0.238845
O75	O	1.184926	-1.111516	0.237816
H76	H	1.124815	-1.085729	0.220493
O77	O	1.107962	-0.909713	0.526272
H78	H	1.062849	-0.858355	0.498330
O79	O	1.246392	-1.108707	0.487820
H80	H	1.284846	-1.039415	0.499521
H81	H	0.841457	-0.633808	0.472415
H82	H	0.443986	-0.387570	0.289349
H83	H	1.122987	-1.100589	0.511076
O84	O	0.728556	-0.719600	0.536273
H85	H	0.792888	-0.708183	0.527788
O86	O	0.556975	-0.719809	0.536165
H87	H	0.599556	-0.767057	0.571210
H88	H	0.444045	-0.633856	0.472480
O89	O	1.037255	-0.651473	0.671629
H90	H	1.045729	-0.640103	0.607295
H91	H	1.265462	-0.919532	0.333954
O92	O	1.245037	-0.907840	0.488684
H93	H	1.243895	-0.820147	0.491302
O94	O	1.184809	-0.909184	0.237994
H95	H	1.175545	-0.977526	0.197953
H96	H	1.264931	-1.102230	0.333646
O97	O	1.037357	-0.651337	1.090855
H98	H	1.045865	-0.639933	1.155194
H99	H	1.234207	-0.387462	1.080012
O100	O	1.036589	-0.910256	0.276487
H101	H	1.084405	-0.859519	0.252718
O102	O	0.995804	-0.908110	0.412453
H103	H	1.009359	-0.932931	0.473742
O104	O	1.298084	-0.301742	0.967111
H105	H	1.289585	-0.313088	1.031443
H106	H	1.234111	-0.387576	0.682600
H107	H	1.013381	-1.100277	0.404181
