data_functionalizedCrystal
_audit_creation_method	'MofGen! by Chris Wilmer'
_symmetry_space_group_name_H-M	'P1'
_symmetry_Int_Tables_number	1
_symmetry_cell_setting	triclinic
loop_
_symmetry_equiv_pos_as_xyz
  x,y,z
_cell_length_a	12.645331
_cell_length_b	12.645330
_cell_length_c	12.645323
_cell_angle_alpha	89.975130
_cell_angle_beta	89.977324
_cell_angle_gamma	90.016671
loop_
_atom_site_label
_atom_site_type_symbol
_atom_site_fract_x
_atom_site_fract_y
_atom_site_fract_z
Zn1	Zn	1.620731	-0.422060	-0.599446
Zn2	Zn	1.620613	-0.599348	-0.422186
Zn3	Zn	1.443446	-0.422096	-0.422191
Zn4	Zn	1.443428	-0.599279	-0.599402
O5	O	1.532054	-0.510695	-0.510806
O6	O	1.769063	-0.445591	-0.575949
O7	O	1.597069	-0.575879	-0.273840
O8	O	1.467020	-0.273744	-0.445724
O9	O	1.768976	-0.575844	-0.445717
O10	O	1.597271	-0.273717	-0.575953
O11	O	1.466906	-0.445653	-0.273843
O12	O	1.295096	-0.445585	-0.445681
O13	O	1.466989	-0.575726	-0.747755
O14	O	1.295083	-0.575761	-0.575877
O15	O	1.597253	-0.445524	-0.747788
O16	O	1.597052	-0.747686	-0.445674
O17	O	1.466874	-0.747635	-0.575873
C18	C	1.256625	-0.510670	-0.510776
C19	C	1.138795	-0.510685	-0.510788
C20	C	0.971204	-0.428415	-0.429333
C21	C	1.093763	-0.428628	-0.428974
C22	C	1.094274	-0.622359	-0.480273
C23	C	0.971676	-0.621910	-0.479717
C24	C	0.971645	-0.482344	-0.623072
C25	C	1.094251	-0.479849	-0.622448
C26	C	1.531977	-0.786125	-0.510791
C27	C	1.532041	-0.903955	-0.510821
C28	C	1.450484	-1.071531	-0.592982
C29	C	1.450067	-0.948972	-0.592717
C30	C	1.501796	-0.948549	-0.399099
C31	C	1.501298	-1.071147	-0.399597
C32	C	1.644342	-1.071047	-0.539475
C33	C	1.643654	-0.948440	-0.541918
C34	C	1.808560	-0.510722	-0.510838
C35	C	1.926390	-0.510733	-0.510851
C36	C	1.532132	-0.510614	-0.787312
C37	C	1.532166	-0.510579	-0.905142
C38	C	1.532161	-0.234190	-0.510844
C39	C	1.532206	-0.116360	-0.510861
C40	C	1.449964	-0.592103	-1.072685
C41	C	1.450179	-0.592506	-0.950125
C42	C	1.643865	-0.540899	-0.949662
C43	C	1.643414	-0.541410	-1.072260
C44	C	1.503724	-0.398278	-1.072340
C45	C	1.501232	-0.398951	-0.949733
C46	C	1.532038	-0.510701	-0.235377
C47	C	1.532210	-0.510437	-0.117547
H48	H	1.123355	-0.397670	-0.645458
H49	H	1.367871	-1.102431	-0.574266
H50	H	1.367350	-0.573532	-0.920023
H51	H	1.468983	-0.675654	-0.920811
H52	H	1.563628	-0.337434	-1.101353
N53	N	0.934492	-0.701475	-0.550932
N54	N	0.958703	-0.796177	-0.536233
H55	H	0.932446	-0.852375	-0.586521
H56	H	1.558238	-1.100805	-0.336324
N57	N	0.932873	-0.381975	-0.657881
N58	N	0.871406	-0.330143	-0.600394
H59	H	0.844020	-0.259254	-0.624967
H60	H	1.419326	-1.099837	-0.375357
H61	H	1.668424	-0.622030	-0.918973
N62	N	1.398110	-0.370276	-0.913227
N63	N	1.347527	-0.431764	-0.854584
H64	H	1.274696	-0.411516	-0.828796
N65	N	1.403325	-0.363615	-1.111116
N66	N	1.351542	-0.421162	-1.172550
H67	H	1.280631	-0.396692	-1.199939
N68	N	1.345741	-0.568519	-1.109638
N69	N	1.304444	-0.481210	-1.088667
H70	H	1.230834	-0.464551	-1.114773
H71	H	1.671932	-1.101891	-0.619558
H72	H	0.943030	-0.645984	-0.397678
H73	H	1.124909	-0.535432	-0.686433
N74	N	0.934246	-0.324214	-0.453068
N75	N	0.955248	-0.282991	-0.540451
H76	H	0.929137	-0.209398	-0.557216
N77	N	1.130872	-0.701381	-0.552389
N78	N	1.103411	-0.795610	-0.540531
H79	H	1.129261	-0.851421	-0.591462
N80	N	1.132735	-0.653071	-0.378461
N81	N	1.192920	-0.592907	-0.328199
H82	H	1.220082	-0.614591	-0.256291
H83	H	1.123041	-0.447391	-0.345814
N84	N	0.935311	-0.557580	-0.699253
N85	N	0.876343	-0.631814	-0.671165
H86	H	0.850685	-0.684960	-0.724959
H87	H	1.666463	-0.919290	-0.624140
H88	H	1.468990	-0.918818	-0.675558
N89	N	1.345763	-0.912316	-0.568967
N90	N	1.270223	-0.936684	-0.627850
H91	H	1.196548	-0.910808	-0.611081
N92	N	1.131515	-0.324732	-0.452936
N93	N	1.067318	-0.251556	-0.470041
H94	H	1.093974	-0.178171	-0.486950
N95	N	0.932486	-0.451687	-0.325630
N96	N	0.872032	-0.528635	-0.311499
H97	H	0.844685	-0.545075	-0.238259
H98	H	1.469234	-1.100944	-0.676094
H99	H	1.559431	-0.919391	-0.336240
N100	N	1.400036	-0.910139	-0.368146
N101	N	1.349613	-0.849937	-0.428174
H102	H	1.277743	-0.822810	-0.406319
H103	H	1.707747	-0.917790	-0.486462
H104	H	1.556760	-0.334889	-0.919112
N105	N	1.673676	-0.644272	-1.108158
N106	N	1.611768	-0.697304	-1.164040
H107	H	1.633137	-0.769954	-1.189388
H108	H	1.468585	-0.674731	-1.103504
H109	H	1.706772	-0.484511	-1.101938
N110	N	1.720712	-1.107411	-0.464433
N111	N	1.692820	-1.166441	-0.390170
H112	H	1.746747	-1.192127	-0.337165
H113	H	1.706788	-0.483299	-0.920526
