data_functionalizedCrystal
_audit_creation_method	'MofGen! by Chris Wilmer'
_symmetry_space_group_name_H-M	'P1'
_symmetry_Int_Tables_number	1
_symmetry_cell_setting	triclinic
loop_
_symmetry_equiv_pos_as_xyz
  x,y,z
_cell_length_a	6.817900
_cell_length_b	17.078472
_cell_length_c	10.943624
_cell_angle_alpha	95.061537
_cell_angle_beta	108.838799
_cell_angle_gamma	99.306020
loop_
_atom_site_label
_atom_site_type_symbol
_atom_site_fract_x
_atom_site_fract_y
_atom_site_fract_z
V1	V	-4.067331	-0.109746	-0.402421
O2	O	-4.075528	0.005295	-0.394894
O3	O	-3.997934	-0.217629	-0.399541
O4	O	-4.046038	-0.108049	-0.577990
O5	O	-4.027091	-0.105044	-0.215210
V6	V	-4.550167	-0.095987	-0.380045
O7	O	-4.330096	-0.139928	-0.451506
O8	O	-4.737599	-0.065805	-0.330961
O9	O	-4.396356	0.011896	-0.382926
O10	O	-4.659366	-0.211029	-0.387572
O11	O	-4.707803	-0.100690	-0.567257
O12	O	-4.348253	-0.097685	-0.204477
C13	C	-3.836950	-0.243929	-0.393159
C14	C	-3.861678	-0.332125	-0.391974
C15	C	-4.055618	-0.377600	-0.397853
C16	C	-4.078844	-0.460470	-0.396747
C17	C	-3.908124	-0.497862	-0.389754
C18	C	-3.714170	-0.452381	-0.383879
C19	C	-3.690951	-0.369514	-0.384994
C20	C	-3.958020	-0.745266	-0.385737
C21	C	-3.981253	-0.828139	-0.384618
C22	C	-4.345927	-0.836222	-0.397490
C23	C	-4.322687	-0.753352	-0.398596
C24	C	-4.128740	-0.707879	-0.392728
N25	N	-3.931858	-0.582567	-0.388619
N26	N	-4.105012	-0.623176	-0.393872
C27	C	-3.898310	-0.104147	-0.620787
C28	C	-3.962046	-0.103473	-0.764315
C29	C	-3.808868	-0.098934	-0.841467
C30	C	-3.968657	-0.166310	-0.947378
C31	C	-3.915846	-0.034904	-0.914146
C32	C	-4.121018	-0.170912	-0.868348
C33	C	-4.068153	-0.039447	-0.835093
C34	C	-4.228070	-0.106842	-0.940974
C35	C	-4.220681	0.038191	-0.389304
C36	C	-4.175193	0.126386	-0.390497
C37	C	-4.159321	-0.101589	-0.161673
C38	C	-4.074824	-0.102259	-0.018144
H39	H	-4.194635	-0.347160	-0.403535
H40	H	-3.800096	-0.708251	-0.380951
H41	H	-4.405910	-0.110201	-0.984215
H42	H	-4.109469	0.014188	-0.786173
F43	F	-3.914549	-0.236412	-1.011278
H44	H	-4.207146	-0.228456	-0.847736
H45	H	-3.829718	0.022563	-0.934977
F46	F	-4.552329	-0.884623	-0.403735
F47	F	-4.285259	-0.508864	-0.403003
H48	H	-4.461714	-0.722914	-0.404300
F49	F	-3.799545	-0.867934	-0.377190
H50	H	-3.533029	-0.332489	-0.380212
F51	F	-3.532480	-0.492180	-0.376444
H52	H	-3.631095	-0.095681	-0.798023
