data_functionalizedCrystal
_audit_creation_method	'MofGen! by Chris Wilmer'
_symmetry_space_group_name_H-M	'P1'
_symmetry_Int_Tables_number	1
_symmetry_cell_setting	triclinic
loop_
_symmetry_equiv_pos_as_xyz
  x,y,z
_cell_length_a	13.339070
_cell_length_b	17.038272
_cell_length_c	11.804365
_cell_angle_alpha	102.699962
_cell_angle_beta	74.875130
_cell_angle_gamma	103.370425
loop_
_atom_site_label
_atom_site_type_symbol
_atom_site_fract_x
_atom_site_fract_y
_atom_site_fract_z
O1	O	1.396109	0.387847	-0.099077
O2	O	1.896109	0.887847	0.400923
O3	O	1.097069	0.335421	-0.099069
O4	O	1.597069	0.835421	0.400931
O5	O	1.244810	0.247434	-0.099063
O6	O	1.744810	0.747434	0.400937
O7	O	1.248368	0.475834	-0.099082
O8	O	1.748368	0.975834	0.400918
O9	O	1.205912	0.270565	0.098991
O10	O	1.705912	0.770565	0.598991
O11	O	1.058171	0.358552	0.098986
O12	O	1.558171	0.858552	0.598986
O13	O	1.357212	0.410978	0.098978
O14	O	1.857212	0.910978	0.598978
Cu15	Cu	1.204140	0.386877	0.117066
Cu16	Cu	1.704140	0.886877	0.617066
Cu17	Cu	1.250141	0.359522	-0.117157
Cu18	Cu	1.750141	0.859522	0.382843
O19	O	1.209471	0.498965	0.098972
O20	O	1.709471	0.998965	0.598972
C21	C	1.039168	0.338131	-0.000041
C22	C	1.539168	0.838131	0.499959
C23	C	0.924594	0.311734	-0.000037
C24	C	1.424594	0.811734	0.499963
C25	C	1.222128	0.229169	-0.000036
C26	C	1.722128	0.729169	0.499964
C27	C	1.212483	0.140282	-0.000036
C28	C	1.712483	0.640282	0.499964
C29	C	0.577473	0.516981	-0.000073
C30	C	1.077473	1.016981	0.499927
C31	C	0.685121	0.541784	-0.000080
C32	C	1.185121	1.041784	0.499920
C33	C	0.744995	0.484274	-0.000069
C34	C	1.244995	0.984274	0.499931
C35	C	0.697209	0.401956	-0.000052
C36	C	1.197209	0.901956	0.499948
C37	C	0.589551	0.377149	-0.000054
C38	C	1.089551	0.877149	0.499946
C39	C	0.757074	0.344442	-0.000050
C40	C	1.257074	0.844442	0.499950
C41	C	0.709288	0.262124	-0.000033
C42	C	1.209288	0.762124	0.499967
C43	C	0.601641	0.237322	-0.000034
C44	C	1.101641	0.737322	0.499966
C45	C	0.541767	0.294832	-0.000046
C46	C	1.041767	0.794832	0.499954
C47	C	0.864731	0.369249	-0.000048
C48	C	1.364731	0.869249	0.499952
C49	C	0.876810	0.229417	-0.000029
C50	C	1.376810	0.729417	0.499971
C51	C	0.769161	0.204614	-0.000022
C52	C	1.269161	0.704614	0.499978
C53	C	1.301040	0.109396	-0.000037
C54	C	1.801040	0.609396	0.499963
C55	C	1.291973	0.025875	-0.000048
C56	C	1.791973	0.525875	0.499952
C57	C	1.194346	-0.026758	-0.000050
C58	C	1.694346	0.473242	0.499950
C59	C	1.105783	0.004133	-0.000052
C60	C	1.605783	0.504133	0.499948
C61	C	1.114853	0.087651	-0.000050
C62	C	1.614853	0.587651	0.499950
C63	C	1.162306	-0.279475	-0.000065
C64	C	1.662306	0.220525	0.499935
C65	C	1.153243	-0.362998	-0.000064
C66	C	1.653243	0.137002	0.499936
C67	C	1.339434	-0.341250	-0.000063
C68	C	1.839434	0.158750	0.499937
C69	C	1.348493	-0.257730	-0.000053
C70	C	1.848493	0.242270	0.499947
C71	C	1.259932	-0.226848	-0.000062
C72	C	1.759932	0.273152	0.499938
C73	C	1.185075	-0.112129	-0.000057
C74	C	1.685075	0.387871	0.499943
C75	C	1.269205	-0.141478	-0.000063
C76	C	1.769205	0.358522	0.499937
C77	C	1.415113	0.408268	-0.000053
C78	C	1.915113	0.908268	0.499947
C79	C	1.529688	0.434664	-0.000064
C80	C	2.029688	0.934664	0.499936
C81	C	1.232153	0.517230	-0.000058
C82	C	1.732153	1.017230	0.499942
C83	C	1.241800	0.606116	-0.000065
C84	C	1.741800	1.106116	0.499935
N85	N	1.171793	0.406119	0.281805
N86	N	1.671793	0.906119	0.781805
N87	N	1.282495	0.340276	-0.281896
N88	N	1.782495	0.840276	0.218104
C89	C	1.360170	0.294055	0.655761
C90	C	1.860170	0.794055	1.155761
C91	C	1.384639	0.279495	0.531100
C92	C	1.884639	0.779495	1.031100
C93	C	1.331430	0.311149	0.468770
C94	C	1.831430	0.811149	0.968770
C95	C	1.253747	0.357367	0.531113
C96	C	1.753747	0.857367	1.031113
C97	C	1.229282	0.371933	0.655786
C98	C	1.729282	0.871933	1.155786
C99	C	1.200541	0.389028	0.468796
C100	C	1.700541	0.889028	0.968796
C101	C	1.122858	0.435245	0.531139
C102	C	1.622858	0.935245	1.031139
C103	C	1.098396	0.449809	0.655799
C104	C	1.598396	0.949809	1.155799
C105	C	1.151606	0.418154	0.718129
C106	C	1.651606	0.918154	1.218129
C107	C	1.225006	0.374461	0.344123
C108	C	1.725006	0.874461	0.844123
C109	C	1.094118	0.452340	0.344148
C110	C	1.594118	0.952340	0.844148
C111	C	1.069649	0.466900	0.468809
C112	C	1.569649	0.966900	0.968809
H113	H	0.903626	0.436273	-0.000057
H114	H	1.403626	0.936273	0.499943
F115	F	0.986975	0.516087	0.535172
F116	F	1.486975	1.016087	1.035172
F117	F	1.015731	0.499007	0.722150
F118	F	1.515731	0.999007	1.222150
F119	F	1.416800	0.260378	0.722100
F120	F	1.916800	0.760378	1.222100
F121	F	1.081177	-0.168153	-0.000064
F122	F	1.581177	0.331847	0.499936
F123	F	0.427192	0.268438	-0.000035
F124	F	0.927192	0.768438	0.499965
F125	F	1.068050	-0.246619	-0.000078
F126	F	1.568050	0.253381	0.499922
H127	H	1.050791	0.478118	0.293400
H128	H	1.550791	0.978118	0.793400
H129	H	1.380536	0.152246	-0.000029
H130	H	1.880536	0.652246	0.499971
F131	F	1.386228	-0.006991	-0.000047
F132	F	1.886228	0.493009	0.499953
F133	F	0.859564	0.510674	-0.000074
F134	F	1.359564	1.010674	0.499926
H135	H	0.724022	0.608806	-0.000103
H136	H	1.224022	1.108806	0.499897
H137	H	0.562740	0.170292	-0.000034
H138	H	1.062740	0.670292	0.499966
F139	F	0.513749	0.578175	-0.000101
F140	F	1.013749	1.078175	0.499899
H141	H	0.730241	0.137588	-0.000018
H142	H	1.230241	0.637588	0.499982
H143	H	0.925560	0.182587	-0.000025
H144	H	1.425560	0.682587	0.499975
F145	F	1.452407	-0.201723	-0.000082
F146	F	1.952407	0.298277	0.499918
H147	H	1.042740	0.112796	-0.000049
H148	H	1.542740	0.612796	0.499951
H149	H	1.411536	-0.366404	-0.000058
H150	H	1.911536	0.133596	0.499942
F151	F	1.467311	0.230311	0.464754
F152	F	1.967311	0.730311	0.964754
H153	H	1.351356	0.299293	0.367266
H154	H	1.851356	0.799293	0.867266
F155	F	1.049329	-0.419013	-0.000060
F156	F	1.549329	0.080987	0.499940
F157	F	1.001884	-0.051887	-0.000067
F158	F	1.501884	0.448113	0.499933
H159	H	1.288256	0.336832	0.293374
H160	H	1.788256	0.836832	0.793374
F161	F	1.373104	-0.085462	-0.000068
F162	F	1.873104	0.414538	0.499932
F163	F	1.125560	0.433646	0.850810
F164	F	1.625560	0.933646	1.350810
