data_functionalizedCrystal
_audit_creation_method	'MofGen! by Chris Wilmer'
_symmetry_space_group_name_H-M	'P1'
_symmetry_Int_Tables_number	1
_symmetry_cell_setting	triclinic
loop_
_symmetry_equiv_pos_as_xyz
  x,y,z
_cell_length_a	19.188930
_cell_length_b	15.944551
_cell_length_c	14.421503
_cell_angle_alpha	89.996660
_cell_angle_beta	89.978519
_cell_angle_gamma	96.678241
loop_
_atom_site_label
_atom_site_type_symbol
_atom_site_fract_x
_atom_site_fract_y
_atom_site_fract_z
O1	O	0.926420	-0.104854	-0.077412
O2	O	0.723145	-0.118971	-0.077348
O3	O	0.830334	0.010383	-0.077374
O4	O	0.819232	-0.234208	-0.077387
O5	O	0.830316	0.010364	0.076850
O6	O	0.723128	-0.118990	0.076875
O7	O	0.926402	-0.104874	0.076812
Cu8	Cu	0.824763	-0.111934	0.090925
Cu9	Cu	0.824784	-0.111911	-0.091462
O10	O	0.819214	-0.234228	0.076837
C11	C	0.697124	-0.118524	-0.000229
C12	C	0.619616	-0.117151	-0.000204
C13	C	0.829864	0.041666	-0.000261
C14	C	0.828482	0.134906	-0.000261
N15	N	0.824754	-0.111949	0.219206
C16	C	0.574889	-0.193052	-0.000223
C17	C	0.502061	-0.191763	-0.000233
C18	C	0.473965	-0.114568	-0.000243
C19	C	0.518703	-0.038658	-0.000219
C20	C	0.591528	-0.039949	-0.000200
N21	N	0.365839	-0.055556	-0.052766
N22	N	0.296657	-0.054335	-0.052787
C23	C	0.254547	-0.110673	-0.000300
N24	N	0.284230	-0.168291	0.052197
N25	N	0.353418	-0.169515	0.052213
C26	C	0.394999	-0.113160	-0.000263
C27	C	0.130851	-0.185181	-0.000328
C28	C	0.058023	-0.183888	-0.000332
C29	C	0.074666	-0.030781	-0.000328
C30	C	0.147492	-0.032076	-0.000314
C31	C	0.175580	-0.109278	-0.000319
C32	C	0.952423	-0.105321	-0.000310
C33	C	1.029932	-0.106693	-0.000341
C34	C	0.819684	-0.265510	-0.000277
C35	C	0.821066	-0.358751	-0.000284
C36	C	0.758739	0.349502	-0.000252
C37	C	0.791117	0.410631	0.075780
C38	C	0.825983	0.305623	-0.000267
C39	C	0.791150	0.410634	-0.076272
C40	C	0.823563	0.470527	-0.000277
C41	C	0.858379	0.365524	0.075827
C42	C	0.858403	0.365520	-0.076293
C43	C	0.890829	0.426631	-0.000243
C44	C	0.827374	0.210626	-0.000260
C45	C	0.822176	0.565522	-0.000277
N46	N	0.824800	-0.111889	-0.219743
C47	C	0.775181	-0.171736	0.468872
C48	C	0.838271	-0.187807	0.530653
C49	C	0.824771	-0.111929	0.408368
C50	C	0.761697	-0.095877	0.530680
C51	C	0.824781	-0.111912	0.591089
C52	C	0.887892	-0.128038	0.468789
C53	C	0.811277	-0.036076	0.468810
C54	C	0.874413	-0.052114	0.530564
C55	C	0.824764	-0.111941	0.303107
C56	C	0.824796	-0.111899	0.696348
H57	H	0.597753	-0.255916	-0.000228
O58	O	0.892219	0.341516	-0.153023
C59	C	0.884702	0.257184	-0.292091
C60	C	0.846335	0.284286	-0.205211
H61	H	0.847616	0.210924	-0.334319
H62	H	0.932373	0.225459	-0.270252
H63	H	0.902509	0.315164	-0.336054
H64	H	0.828481	0.226351	-0.161210
H65	H	0.798695	0.316041	-0.227114
O66	O	0.014601	-0.257646	-0.000514
C67	C	-0.021838	-0.388115	-0.080408
C68	C	0.027365	-0.304606	-0.080328
H69	H	-0.011525	-0.426113	-0.144921
H70	H	-0.078728	-0.373985	-0.080476
H71	H	-0.011651	-0.426096	-0.015839
H72	H	0.017242	-0.266583	-0.144886
H73	H	0.084239	-0.318795	-0.080212
H74	H	0.849694	-0.251947	0.557818
H75	H	0.702924	0.315986	-0.000158
H76	H	0.916399	-0.001527	0.557482
H77	H	0.799834	0.028044	0.441624
O78	O	0.698001	-0.079783	0.562999
C79	C	0.573747	-0.124702	0.568347
C80	C	0.645837	-0.143009	0.531672
H81	H	0.531555	-0.175819	0.543050
H82	H	0.561777	-0.060561	0.541819
H83	H	0.574550	-0.124200	0.647388
H84	H	0.645088	-0.143556	0.452634
H85	H	0.657779	-0.207137	0.558271
H86	H	0.051791	0.032072	-0.000393
H87	H	0.762708	0.430612	-0.140555
H88	H	0.762668	0.430625	0.140076
O89	O	0.158176	-0.260148	-0.000481
C90	C	0.230812	-0.350433	-0.080325
C91	C	0.199902	-0.265513	-0.080281
H92	H	0.264566	-0.354791	-0.144826
H93	H	0.186360	-0.404498	-0.080388
H94	H	0.264435	-0.354853	-0.015744
H95	H	0.166287	-0.261011	-0.144850
H96	H	0.244387	-0.211489	-0.080169
H97	H	0.465637	-0.253572	-0.000246
H98	H	0.495822	0.024194	-0.000240
H99	H	0.183911	0.029731	-0.000304
H100	H	0.733287	-0.222352	0.441784
H101	H	0.941248	-0.141684	0.441717
O102	O	0.634881	0.033862	-0.000229
C103	C	0.643703	0.185857	-0.000169
C104	C	0.594525	0.102329	-0.000154
H105	H	0.611095	0.241234	-0.000089
H106	H	0.678227	0.189145	-0.064720
H107	H	0.678203	0.189024	0.064364
H108	H	0.559981	0.099106	-0.064644
H109	H	0.560049	0.099075	0.064440
O110	O	0.892224	0.341652	0.152569
C111	C	0.931532	0.226447	0.238640
C112	C	0.893176	0.253366	0.151703
H113	H	0.932327	0.155068	0.237958
H114	H	0.903054	0.245343	0.303404
H115	H	0.987660	0.259019	0.238886
H116	H	0.837047	0.220807	0.151366
H117	H	0.921709	0.234485	0.086978
H118	H	0.946693	0.459999	-0.000218
