data_functionalizedCrystal
_audit_creation_method	'MofGen! by Chris Wilmer'
_symmetry_space_group_name_H-M	'P1'
_symmetry_Int_Tables_number	1
_symmetry_cell_setting	triclinic
loop_
_symmetry_equiv_pos_as_xyz
  x,y,z
_cell_length_a	6.394989
_cell_length_b	16.109301
_cell_length_c	15.186229
_cell_angle_alpha	89.999362
_cell_angle_beta	90.000778
_cell_angle_gamma	95.020404
loop_
_atom_site_label
_atom_site_type_symbol
_atom_site_fract_x
_atom_site_fract_y
_atom_site_fract_z
O1	O	-0.268480	1.105973	-0.073167
O2	O	-0.301892	0.864264	-0.073180
O3	O	0.018881	0.988549	-0.073174
O4	O	-0.589252	0.981688	-0.073173
O5	O	0.018885	0.988541	0.073283
O6	O	-0.301887	0.864256	0.073277
O7	O	-0.268475	1.105964	0.073290
Zn8	Zn	-0.285181	0.985109	0.096537
Zn9	Zn	-0.285187	0.985120	-0.096427
O10	O	-0.589248	0.981679	0.073284
C11	C	-0.300536	0.833271	0.000047
C12	C	-0.296479	0.740933	0.000041
N13	N	-0.285175	0.985107	0.228229
C14	C	-0.477384	0.520575	0.000052
C15	C	-0.473555	0.433814	0.000057
C16	C	-0.092969	0.449660	0.000053
C17	C	-0.096800	0.536419	0.000054
C18	C	-0.289014	0.571874	0.000049
C19	C	-0.281354	0.398354	0.000054
C20	C	-0.277201	0.304284	0.000060
C21	C	-0.293168	0.665950	0.000044
C22	C	0.096703	0.987189	0.000051
C23	C	0.332935	0.983042	0.000050
C24	C	-0.269831	1.136958	0.000061
C25	C	-0.273889	1.229296	0.000061
N26	N	-0.285175	0.985128	-0.228120
C27	C	-0.143185	1.040160	0.453955
C28	C	-0.143180	1.040163	0.546145
C29	C	-0.427172	0.930069	0.546148
C30	C	-0.427166	0.930063	0.453960
C31	C	-0.285175	0.985113	0.407866
C32	C	-0.285176	0.985122	0.592244
C33	C	-0.285172	0.985124	0.692200
C34	C	-0.285176	0.985110	0.307904
H35	H	-0.633896	0.549440	0.000054
C36	C	0.141161	1.055166	0.350335
C37	C	0.013002	1.100642	0.403309
H38	H	0.237609	1.092500	0.319074
H39	H	0.216206	1.019761	0.386320
H40	H	0.056578	1.022407	0.309674
H41	H	0.097583	1.133396	0.443974
H42	H	-0.062049	1.136062	0.367320
C43	C	0.137510	1.148991	0.536875
C44	C	0.012891	1.100676	0.596806
H45	H	0.233857	1.186353	0.568153
H46	H	0.212670	1.113598	0.500924
H47	H	0.050513	1.179800	0.500914
H48	H	0.099887	1.069862	0.632763
H49	H	-0.062274	1.136074	0.632772
H50	H	-0.626945	0.392050	0.000062
C51	C	-0.788744	0.885028	0.425564
C52	C	-0.583260	0.869553	0.403292
H53	H	-0.885098	0.847675	0.394278
H54	H	-0.809062	0.877150	0.487056
H55	H	-0.811436	0.940753	0.410446
H56	H	-0.560562	0.813830	0.418416
H57	H	-0.562934	0.877425	0.341786
C58	C	-0.553300	0.881201	0.687469
C59	C	-0.583264	0.869568	0.596819
H60	H	-0.649681	0.843853	0.718747
H61	H	-0.413911	0.870709	0.702578
H62	H	-0.576023	0.936928	0.702560
H63	H	-0.560526	0.813842	0.581726
H64	H	-0.722686	0.880054	0.581703
C65	C	0.132117	0.361290	-0.075245
C66	C	0.118306	0.410685	0.000047
H67	H	0.262559	0.337235	-0.075252
H68	H	0.020492	0.318324	-0.075237
H69	H	0.122700	0.394818	-0.126310
H70	H	0.127707	0.377155	0.051112
H71	H	0.229961	0.453656	0.000047
C72	C	0.226409	0.576650	-0.075245
C73	C	0.110271	0.592816	0.000047
H74	H	0.354232	0.611471	-0.075248
H75	H	0.256203	0.519913	-0.075240
H76	H	0.147563	0.587616	-0.126310
H77	H	0.189111	0.581844	0.051112
H78	H	0.080483	0.649566	0.000050
