data_functionalizedCrystal
_audit_creation_method	'MofGen! by Chris Wilmer'
_symmetry_space_group_name_H-M	'P1'
_symmetry_Int_Tables_number	1
_symmetry_cell_setting	triclinic
loop_
_symmetry_equiv_pos_as_xyz
  x,y,z
_cell_length_a	14.519709
_cell_length_b	23.532409
_cell_length_c	12.996460
_cell_angle_alpha	89.996917
_cell_angle_beta	90.000034
_cell_angle_gamma	83.264852
loop_
_atom_site_label
_atom_site_type_symbol
_atom_site_fract_x
_atom_site_fract_y
_atom_site_fract_z
O1	O	1.222986	0.074654	-0.085426
O2	O	1.556320	0.407987	0.247908
O3	O	1.889653	0.741321	0.581241
O4	O	0.954406	0.083445	-0.085456
O5	O	1.287739	0.416779	0.247877
O6	O	1.621072	0.750112	0.581210
O7	O	1.096794	-0.003845	-0.085441
O8	O	1.430127	0.329488	0.247892
O9	O	1.763461	0.662821	0.581225
O10	O	1.080598	0.161945	-0.085441
O11	O	1.413931	0.495278	0.247893
O12	O	1.747265	0.828611	0.581226
O13	O	1.096779	-0.003850	0.085692
O14	O	1.430113	0.329483	0.419026
O15	O	1.763446	0.662816	0.752359
O16	O	0.954391	0.083440	0.085678
O17	O	1.287724	0.416774	0.419011
O18	O	1.621058	0.750107	0.752344
O19	O	1.222972	0.074649	0.085708
O20	O	1.556305	0.407982	0.419041
O21	O	1.889638	0.741316	0.752375
Cu22	Cu	1.088680	0.079044	0.101319
Cu23	Cu	1.422013	0.412378	0.434652
Cu24	Cu	1.755347	0.745711	0.767985
Cu25	Cu	1.088697	0.079050	-0.101067
Cu26	Cu	1.422031	0.412383	0.232266
Cu27	Cu	1.755364	0.745717	0.565600
O28	O	1.080583	0.161940	0.085693
O29	O	1.413917	0.495273	0.419027
O30	O	1.747250	0.828606	0.752360
C31	C	0.920043	0.083033	0.000107
C32	C	1.253377	0.416366	0.333440
C33	C	1.586710	0.749700	0.666773
C34	C	0.817677	0.081805	0.000095
C35	C	1.151010	0.415139	0.333428
C36	C	1.484343	0.748472	0.666761
C37	C	0.442834	0.077285	0.000141
C38	C	0.776168	0.410619	0.333475
C39	C	1.109501	0.743952	0.666808
C40	C	0.547127	0.078541	0.000128
C41	C	0.880461	0.411874	0.333461
C42	C	1.213794	0.745207	0.666795
C43	C	0.630252	0.079545	0.000117
C44	C	0.963585	0.412879	0.333450
C45	C	1.296919	0.746212	0.666784
C46	C	0.734552	0.080801	0.000106
C47	C	1.067885	0.414134	0.333439
C48	C	1.401218	0.747467	0.666772
C49	C	1.096374	-0.025066	0.000123
C50	C	1.429707	0.308268	0.333456
C51	C	1.763041	0.641601	0.666790
C52	C	1.095133	-0.088288	0.000115
C53	C	1.428466	0.245045	0.333449
C54	C	1.761800	0.578378	0.666782
C55	C	1.089864	-0.361555	-0.093175
C56	C	1.423197	-0.028221	0.240159
C57	C	1.756530	0.305112	0.573492
C58	C	1.091016	-0.302149	-0.093175
C59	C	1.424349	0.031184	0.240158
C60	C	1.757683	0.364518	0.573492
O61	O	1.091651	-0.271419	-0.172507
O62	O	1.424984	0.061914	0.160826
O63	O	1.758318	0.395247	0.494159
N64	N	1.091579	-0.272447	0.000112
N65	N	1.424912	0.060886	0.333445
N66	N	1.758245	0.394220	0.666778
C67	C	1.090998	-0.302154	0.093405
C68	C	1.424331	0.031179	0.426738
C69	C	1.757665	0.364512	0.760071
O70	O	1.091583	-0.271436	0.172752
O71	O	1.424916	0.061898	0.506085
O72	O	1.758250	0.395231	0.839419
C73	C	1.089852	-0.361559	0.093404
C74	C	1.423185	-0.028226	0.426737
C75	C	1.756519	0.305108	0.760070
C76	C	1.089280	-0.391257	0.000111
C77	C	1.422614	-0.057924	0.333444
C78	C	1.755947	0.275409	0.666777
C79	C	1.089293	-0.391253	-0.186460
C80	C	1.422626	-0.057920	0.146873
C81	C	1.755960	0.275414	0.480207
C82	C	1.088139	-0.450654	-0.186460
C83	C	1.421472	-0.117321	0.146874
C84	C	1.754806	0.216013	0.480207
C85	C	1.087556	-0.480357	-0.093174
C86	C	1.420889	-0.147024	0.240159
C87	C	1.754222	0.186310	0.573493
C88	C	1.088126	-0.450659	0.000111
C89	C	1.421460	-0.117325	0.333445
C90	C	1.754793	0.216008	0.666778
C91	C	1.089278	-0.391266	0.186695
C92	C	1.422611	-0.057932	0.520029
C93	C	1.755945	0.275401	0.853362
C94	C	1.088133	-0.450675	0.186686
C95	C	1.421466	-0.117341	0.520020
C96	C	1.754800	0.215992	0.853353
C97	C	1.087561	-0.480373	0.093394
C98	C	1.420895	-0.147040	0.426727
C99	C	1.754228	0.186294	0.760060
C100	C	1.086389	-0.539762	0.093397
C101	C	1.419722	-0.206429	0.426731
C102	C	1.753056	0.126904	0.760064
N103	N	1.085827	-0.569465	0.000111
N104	N	1.419160	-0.236131	0.333444
N105	N	1.752493	0.097202	0.666777
C106	C	1.086410	-0.539762	-0.093175
C107	C	1.419743	-0.206428	0.240158
C108	C	1.753077	0.126905	0.573492
C109	C	1.093406	-0.177400	0.093400
C110	C	1.426739	0.155933	0.426733
C111	C	1.760072	0.489266	0.760066
C112	C	1.094545	-0.117996	0.093402
C113	C	1.427878	0.215337	0.426735
C114	C	1.761211	0.548671	0.760068
C115	C	1.094565	-0.117995	-0.093178
C116	C	1.427898	0.215338	0.240155
C117	C	1.761231	0.548672	0.573488
C118	C	1.093419	-0.177400	-0.093179
C119	C	1.426752	0.155933	0.240154
C120	C	1.760086	0.489267	0.573487
C121	C	1.092843	-0.207102	0.000113
C122	C	1.426177	0.126231	0.333446
C123	C	1.759510	0.459564	0.666780
C124	C	1.083986	-0.664508	-0.093167
C125	C	1.417319	-0.331175	0.240166
C126	C	1.750652	0.002158	0.573500
C127	C	1.082828	-0.723915	-0.093158
C128	C	1.416161	-0.390581	0.240175
C129	C	1.749494	-0.057248	0.573509
C130	C	1.082813	-0.723911	0.093421
C131	C	1.416146	-0.390577	0.426754
C132	C	1.749479	-0.057244	0.760088
C133	C	1.083966	-0.664509	0.093413
C134	C	1.417299	-0.331176	0.426746
C135	C	1.750632	0.002157	0.760080
C136	C	1.084555	-0.634810	0.000111
C137	C	1.417889	-0.301477	0.333444
C138	C	1.751222	0.031857	0.666777
O139	O	1.085757	-0.570530	0.172689
O140	O	1.419091	-0.237197	0.506022
O141	O	1.752424	0.096136	0.839356
O142	O	1.085837	-0.570489	-0.172509
O143	O	1.419170	-0.237155	0.160824
O144	O	1.752504	0.096178	0.494158
C145	C	1.257334	0.075061	0.000143
C146	C	1.590667	0.408395	0.333476
C147	C	1.924001	0.741728	0.666810
C148	C	1.359701	0.076289	0.000148
C149	C	1.693034	0.409622	0.333482
C150	C	2.026367	0.742956	0.666815
C151	C	1.081003	0.183160	0.000127
C152	C	1.414337	0.516493	0.333460
C153	C	1.747670	0.849827	0.666793
C154	C	1.082244	0.246383	0.000128
C155	C	1.415578	0.579716	0.333461
C156	C	1.748911	0.913049	0.666794
N157	N	1.088674	0.079040	0.243666
N158	N	1.422008	0.412373	0.576999
N159	N	1.755341	0.745707	0.910332
N160	N	1.088710	0.079050	-0.243414
N161	N	1.422044	0.412383	0.089919
N162	N	1.755377	0.745717	0.423253
C163	C	1.088696	0.079051	0.663480
C164	C	1.422029	0.412384	0.996813
C165	C	1.755363	0.745717	1.330147
C166	C	1.088687	0.079050	0.546675
C167	C	1.422021	0.412383	0.880008
C168	C	1.755354	0.745716	1.213342
C169	C	1.088686	0.079046	0.453577
C170	C	1.422019	0.412379	0.786910
C171	C	1.755352	0.745712	1.120243
C172	C	1.088676	0.079044	0.336764
C173	C	1.422009	0.412377	0.670097
C174	C	1.755343	0.745710	1.003431
H175	H	1.082359	-0.748092	-0.169132
H176	H	1.415692	-0.414759	0.164202
H177	H	1.749025	-0.081425	0.497535
H178	H	1.087680	-0.474830	-0.262428
H179	H	1.421013	-0.141496	0.070905
H180	H	1.754347	0.191837	0.404238
C181	C	1.092815	-0.210065	-0.195800
C182	C	1.426148	0.123269	0.137534
C183	C	1.759481	0.456602	0.470867
H184	H	1.093336	-0.183862	-0.251352
H185	H	1.426669	0.149471	0.081981
H186	H	1.760003	0.482804	0.415315
H187	H	1.038591	-0.228964	-0.199703
H188	H	1.371924	0.104370	0.133631
H189	H	1.705257	0.437703	0.466964
H190	H	1.146167	-0.237514	-0.199664
H191	H	1.479501	0.095819	0.133670
H192	H	1.812834	0.429153	0.467003
H193	H	1.087665	-0.474855	0.262658
H194	H	1.420998	-0.141522	0.595991
H195	H	1.754332	0.191811	0.929325
H196	H	1.094993	-0.093819	0.169370
H197	H	1.428326	0.239514	0.502703
H198	H	1.761659	0.572847	0.836037
H199	H	1.089753	-0.367096	0.262664
H200	H	1.423087	-0.033763	0.595998
H201	H	1.756420	0.299570	0.929331
H202	H	1.095037	-0.093800	-0.169137
H203	H	1.428370	0.239533	0.164197
H204	H	1.761703	0.572867	0.497530
C205	C	1.084584	-0.631839	0.196031
C206	C	1.417917	-0.298506	0.529365
C207	C	1.751251	0.034828	0.862698
H208	H	1.084073	-0.658040	0.251588
H209	H	1.417407	-0.324706	0.584921
H210	H	1.750740	0.008627	0.918255
H211	H	1.031253	-0.604379	0.199905
H212	H	1.364586	-0.271046	0.533238
H213	H	1.697919	0.062287	0.866571
H214	H	1.138829	-0.612954	0.199918
H215	H	1.472162	-0.279620	0.533251
H216	H	1.805495	0.053713	0.866584
C217	C	1.082171	-0.756589	0.196030
C218	C	1.415504	-0.423255	0.529363
C219	C	1.748838	-0.089922	0.862697
H220	H	1.082669	-0.730396	0.251595
H221	H	1.416002	-0.397063	0.584928
H222	H	1.749335	-0.063729	0.918262
H223	H	1.135506	-0.784046	0.199906
H224	H	1.468839	-0.450712	0.533239
H225	H	1.802173	-0.117379	0.866572
H226	H	1.027930	-0.775479	0.199898
H227	H	1.361263	-0.442145	0.533232
H228	H	1.694596	-0.108812	0.866565
H229	H	1.084467	-0.640334	-0.169142
H230	H	1.417800	-0.307001	0.164191
H231	H	1.751133	0.026332	0.497524
C232	C	1.092753	-0.210066	0.196027
C233	C	1.426087	0.123267	0.529361
C234	C	1.759420	0.456600	0.862694
H235	H	1.093243	-0.183864	0.251579
H236	H	1.426577	0.149469	0.584912
H237	H	1.759910	0.482802	0.918246
H238	H	1.146087	-0.237523	0.199926
H239	H	1.479421	0.095810	0.533259
H240	H	1.812754	0.429143	0.866592
H241	H	1.038511	-0.228955	0.199898
H242	H	1.371845	0.104378	0.533231
H243	H	1.705178	0.437712	0.866564
H244	H	1.089771	-0.367075	-0.262429
H245	H	1.423104	-0.033742	0.070905
H246	H	1.756438	0.299591	0.404238
