data_functionalizedCrystal
_audit_creation_method	'MofGen! by Chris Wilmer'
_symmetry_space_group_name_H-M	'P1'
_symmetry_Int_Tables_number	1
_symmetry_cell_setting	triclinic
loop_
_symmetry_equiv_pos_as_xyz
  x,y,z
_cell_length_a	19.805405
_cell_length_b	19.805407
_cell_length_c	19.805398
_cell_angle_alpha	90.017356
_cell_angle_beta	89.972363
_cell_angle_gamma	89.974605
loop_
_atom_site_label
_atom_site_type_symbol
_atom_site_fract_x
_atom_site_fract_y
_atom_site_fract_z
Zn1	Zn	-0.269508	-1.034711	-0.382738
Zn2	Zn	0.230492	-0.534711	0.117262
Zn3	Zn	-0.382693	-1.034633	-0.269547
Zn4	Zn	0.117307	-0.534633	0.230453
Zn5	Zn	-0.269522	-0.921533	-0.269560
Zn6	Zn	0.230478	-0.421533	0.230440
Zn7	Zn	-0.382659	-0.921489	-0.382691
Zn8	Zn	0.117341	-0.421489	0.117309
O9	O	-0.326096	-0.978091	-0.326134
O10	O	0.173904	-0.478091	0.173866
O11	O	-0.284531	-1.129417	-0.367738
O12	O	0.215469	-0.629417	0.132262
O13	O	-0.367701	-1.019616	-0.174832
O14	O	0.132299	-0.519616	0.325168
O15	O	-0.174803	-0.936597	-0.284599
O16	O	0.325197	-0.436597	0.215401
O17	O	-0.367688	-1.129360	-0.284576
O18	O	0.132312	-0.629360	0.215424
O19	O	-0.174793	-1.019748	-0.367751
O20	O	0.325207	-0.519748	0.132249
O21	O	-0.284554	-0.936522	-0.174842
O22	O	0.215446	-0.436522	0.325158
O23	O	-0.284521	-0.826810	-0.284553
O24	O	0.215479	-0.326810	0.215447
O25	O	-0.367629	-0.936522	-0.477414
O26	O	0.132371	-0.436522	0.022586
O27	O	-0.367642	-0.826778	-0.367669
O28	O	0.132358	-0.326778	0.132331
O29	O	-0.284498	-1.019706	-0.477449
O30	O	0.215502	-0.519706	0.022551
O31	O	-0.477405	-1.019573	-0.284530
O32	O	0.022595	-0.519573	0.215470
O33	O	-0.477380	-0.936447	-0.367656
O34	O	0.022620	-0.436447	0.132344
C35	C	-0.326079	-0.802235	-0.326108
C36	C	0.173921	-0.302235	0.173892
C37	C	-0.326089	-0.727003	-0.326112
C38	C	0.173911	-0.227003	0.173888
C39	C	-0.369435	-0.691660	-0.369320
C40	C	0.130565	-0.191660	0.130680
C41	C	-0.369435	-0.620972	-0.369328
C42	C	0.130565	-0.120972	0.130672
C43	C	-0.326092	-0.585628	-0.326124
C44	C	0.173908	-0.085628	0.173876
C45	C	-0.282741	-0.620976	-0.282914
C46	C	0.217259	-0.120976	0.217086
C47	C	-0.282738	-0.691663	-0.282910
C48	C	0.217262	-0.191663	0.217090
C49	C	-0.282751	-0.335903	-0.282929
C50	C	0.217249	0.164097	0.217071
C51	C	-0.282759	-0.265211	-0.282935
C52	C	0.217241	0.234789	0.217065
C53	C	-0.369447	-0.265211	-0.369346
C54	C	0.130553	0.234789	0.130654
C55	C	-0.369445	-0.335899	-0.369343
C56	C	0.130555	0.164101	0.130657
C57	C	-0.326092	-0.371241	-0.326136
C58	C	0.173908	0.128759	0.173864
C59	C	-0.326091	-0.447889	-0.326129
C60	C	0.173909	0.052111	0.173871
C61	C	-0.326095	-0.508981	-0.326127
C62	C	0.173905	-0.008981	0.173873
C63	C	-0.501952	-0.978015	-0.326101
C64	C	-0.001952	-0.478015	0.173899
C65	C	-0.577184	-0.978045	-0.326110
C66	C	-0.077184	-0.478045	0.173890
C67	C	-0.612518	-1.021371	-0.282871
C68	C	-0.112518	-0.521371	0.217129
C69	C	-0.683207	-1.021399	-0.282886
C70	C	-0.183207	-0.521399	0.217114
C71	C	-0.718559	-0.978098	-0.326137
C72	C	-0.218559	-0.478098	0.173863
C73	C	-0.683219	-0.934770	-0.369380
C74	C	-0.183219	-0.434770	0.130620
C75	C	-0.612532	-0.934746	-0.369368
C76	C	-0.112532	-0.434746	0.130632
C77	C	-0.968292	-0.934870	-0.369430
C78	C	-0.468292	-0.434870	0.130570
C79	C	-1.038985	-0.934897	-0.369438
C80	C	-0.538985	-0.434897	0.130562
C81	C	-1.038967	-1.021524	-0.282949
C82	C	-0.538967	-0.521524	0.217051
C83	C	-0.968280	-1.021499	-0.282936
C84	C	-0.468280	-0.521499	0.217064
C85	C	-0.932946	-0.978174	-0.326182
C86	C	-0.432946	-0.478174	0.173818
C87	C	-0.856298	-0.978144	-0.326166
C88	C	-0.356298	-0.478144	0.173834
C89	C	-0.795206	-0.978124	-0.326150
C90	C	-0.295206	-0.478124	0.173850
C91	C	-0.149553	-0.978186	-0.326182
C92	C	0.350447	-0.478186	0.173818
C93	C	-0.074321	-0.978227	-0.326202
C94	C	0.425679	-0.478227	0.173798
C95	C	-0.326058	-0.978118	-0.502677
C96	C	0.173942	-0.478118	-0.002677
C97	C	-0.326042	-0.978129	-0.577909
C98	C	0.173958	-0.478129	-0.077909
C99	C	-0.326108	-0.154634	-0.326154
C100	C	0.173892	0.345366	0.173846
C101	C	-0.326102	-0.229866	-0.326146
C102	C	0.173898	0.270134	0.173854
C103	C	-0.282636	-1.021525	-1.039719
C104	C	0.217364	-0.521525	-0.539719
C105	C	-0.282657	-1.021514	-0.969031
C106	C	0.217343	-0.521514	-0.469031
C107	C	-0.325948	-0.978199	-0.933671
C108	C	0.174052	-0.478199	-0.433671
C109	C	-0.369226	-0.934896	-0.969003
C110	C	0.130774	-0.434896	-0.469003
C111	C	-0.369208	-0.934911	-1.039690
C112	C	0.130792	-0.434911	-0.539690
C113	C	-0.369300	-0.934837	-0.683929
C114	C	0.130700	-0.434837	-0.183929
C115	C	-0.369313	-0.934825	-0.613237
C116	C	0.130687	-0.434825	-0.113237
C117	C	-0.282748	-1.021441	-0.613270
C118	C	0.217252	-0.521441	-0.113270
C119	C	-0.282730	-1.021455	-0.683958
C120	C	0.217270	-0.521455	-0.183958
C121	C	-0.326010	-0.978155	-0.719283
C122	C	0.173990	-0.478155	-0.219283
C123	C	-0.325988	-0.978168	-0.795932
C124	C	0.174012	-0.478168	-0.295932
C125	C	-0.325967	-0.978182	-0.857024
C126	C	0.174033	-0.478182	-0.357024
C127	C	-0.326084	-0.978104	-0.150278
C128	C	0.173916	-0.478104	0.349722
C129	C	-0.325909	-0.978224	-0.075046
C130	C	0.174091	-0.478224	0.424954
H131	H	-0.247459	-0.236436	-0.247753
H132	H	0.252541	0.263564	0.252247
H133	H	-0.247456	-0.364670	-0.247742
H134	H	0.252544	0.135330	0.252258
H135	H	-0.247448	-0.592193	-0.247740
H136	H	0.252552	-0.092193	0.252260
F137	F	-0.236683	-1.067524	-0.575669
F138	F	0.263317	-0.567524	-0.075669
F139	F	-1.076608	-0.888809	-0.415474
F140	F	-0.576608	-0.388809	0.084526
H141	H	-0.404732	-0.592199	-0.404511
H142	H	0.095268	-0.092199	0.095489
H143	H	-0.711974	-1.056679	-0.247677
H144	H	-0.211974	-0.556679	0.252323
F145	F	-0.236602	-0.729278	-0.236924
F146	F	0.263398	-0.229278	0.263076
F147	F	-0.415587	-0.227592	-0.415332
F148	F	0.084413	0.272408	0.084668
H149	H	-0.404478	-0.899631	-0.940207
H150	H	0.095522	-0.399631	-0.440207
F151	F	-0.574900	-1.067454	-0.236833
F152	F	-0.074900	-0.567454	0.263167
F153	F	-0.930660	-1.067585	-0.236903
F154	F	-0.430660	-0.567585	0.263097
F155	F	-1.076578	-1.067638	-0.236925
F156	F	-0.576578	-0.567638	0.263075
F157	F	-0.930697	-0.888759	-0.415455
F158	F	-0.430697	-0.388759	0.084545
F159	F	-0.720846	-0.888690	-0.415415
F160	F	-0.220846	-0.388690	0.084585
F161	F	-0.574926	-0.888634	-0.415390
F162	F	-0.074926	-0.388634	0.084610
F163	F	-0.415267	-0.888825	-1.077287
F164	F	0.084733	-0.388825	-0.577287
H165	H	-0.247379	-1.056793	-1.068505
H166	H	0.252621	-0.556793	-0.568505
F167	F	-0.236599	-1.067601	-0.931437
F168	F	0.263401	-0.567601	-0.431437
F169	F	-0.236658	-1.067562	-0.721587
F170	F	0.263342	-0.567562	-0.221587
F171	F	-0.415392	-0.888721	-0.575605
F172	F	0.084608	-0.388721	-0.075605
F173	F	-0.415578	-0.373510	-0.415324
F174	F	0.084422	0.126490	0.084676
H175	H	-0.404540	-0.899579	-0.712683
H176	H	0.095460	-0.399579	-0.212683
H177	H	-0.404732	-0.720432	-0.404500
H178	H	0.095268	-0.220432	0.095500
