data_functionalizedCrystal
_audit_creation_method	'MofGen! by Chris Wilmer'
_symmetry_space_group_name_H-M	'P1'
_symmetry_Int_Tables_number	1
_symmetry_cell_setting	triclinic
loop_
_symmetry_equiv_pos_as_xyz
  x,y,z
_cell_length_a	16.625548
_cell_length_b	16.625539
_cell_length_c	16.625546
_cell_angle_alpha	90.028532
_cell_angle_beta	89.976464
_cell_angle_gamma	89.982945
loop_
_atom_site_label
_atom_site_type_symbol
_atom_site_fract_x
_atom_site_fract_y
_atom_site_fract_z
Zn1	Zn	1.232652	-0.455898	0.320992
Zn2	Zn	1.482652	-0.205898	0.570992
Zn3	Zn	1.732652	0.044102	0.820992
Zn4	Zn	1.982652	0.294102	1.070992
Zn5	Zn	1.232564	-0.321060	0.455831
Zn6	Zn	1.482564	-0.071060	0.705831
Zn7	Zn	1.732564	0.178940	0.955831
Zn8	Zn	1.982564	0.428940	1.205831
Zn9	Zn	1.097823	-0.321078	0.321018
Zn10	Zn	1.347823	-0.071078	0.571018
Zn11	Zn	1.597823	0.178922	0.821018
Zn12	Zn	1.847823	0.428922	1.071018
Zn13	Zn	1.097785	-0.455850	0.455789
Zn14	Zn	1.347785	-0.205850	0.705789
Zn15	Zn	1.597785	0.044150	0.955789
Zn16	Zn	1.847785	0.294150	1.205789
O17	O	1.165206	-0.388471	0.388408
O18	O	1.415206	-0.138471	0.638408
O19	O	1.665206	0.111529	0.888408
O20	O	1.915206	0.361529	1.138408
O21	O	1.345473	-0.438024	0.338885
O22	O	1.595473	-0.188024	0.588885
O23	O	1.845473	0.061976	0.838885
O24	O	2.095473	0.311976	1.088885
O25	O	1.214669	-0.208230	0.437976
O26	O	1.464669	0.041770	0.687976
O27	O	1.714669	0.291770	0.937976
O28	O	1.964669	0.541770	1.187976
O29	O	1.115761	-0.338990	0.208182
O30	O	1.365761	-0.088990	0.458182
O31	O	1.615761	0.161010	0.708182
O32	O	1.865761	0.411010	0.958182
O33	O	1.345408	-0.338959	0.437951
O34	O	1.595408	-0.088959	0.687951
O35	O	1.845408	0.161041	0.937951
O36	O	2.095408	0.411041	1.187951
O37	O	1.214820	-0.438041	0.208163
O38	O	1.464820	-0.188041	0.458163
O39	O	1.714820	0.061959	0.708163
O40	O	1.964820	0.311959	0.958163
O41	O	1.115675	-0.208243	0.338930
O42	O	1.365675	0.041757	0.588930
O43	O	1.615675	0.291757	0.838930
O44	O	1.865675	0.541757	1.088930
O45	O	0.984985	-0.338944	0.338889
O46	O	1.234985	-0.088944	0.588889
O47	O	1.484985	0.161056	0.838889
O48	O	1.734985	0.411056	1.088889
O49	O	1.115696	-0.568689	0.437879
O50	O	1.365696	-0.318689	0.687879
O51	O	1.615696	-0.068689	0.937879
O52	O	1.865696	0.181311	1.187879
O53	O	0.984957	-0.437960	0.437905
O54	O	1.234957	-0.187960	0.687905
O55	O	1.484957	0.062040	0.937905
O56	O	1.734957	0.312040	1.187905
O57	O	1.214783	-0.568724	0.338845
O58	O	1.464783	-0.318724	0.588845
O59	O	1.714783	-0.068724	0.838845
O60	O	1.964783	0.181276	1.088845
O61	O	1.214632	-0.338912	0.568658
O62	O	1.464632	-0.088912	0.818658
O63	O	1.714632	0.161088	1.068658
O64	O	1.964632	0.411088	1.318658
O65	O	1.115611	-0.437942	0.568627
O66	O	1.365611	-0.187942	0.818627
O67	O	1.615611	0.062058	1.068627
O68	O	1.865611	0.312058	1.318627
C69	C	0.955715	-0.388449	0.388396
C70	C	1.205715	-0.138449	0.638396
C71	C	1.455715	0.111551	0.888396
C72	C	1.705715	0.361551	1.138396
C73	C	0.866094	-0.388458	0.388410
C74	C	1.116094	-0.138458	0.638410
C75	C	1.366094	0.111542	0.888410
C76	C	1.616094	0.361542	1.138410
C77	C	0.537918	-0.388493	0.388416
C78	C	0.787918	-0.138493	0.638416
C79	C	1.037918	0.111507	0.888416
C80	C	1.287918	0.361507	1.138416
C81	C	0.629227	-0.388481	0.388412
C82	C	0.879227	-0.138481	0.638412
C83	C	1.129227	0.111519	0.888412
C84	C	1.379227	0.361519	1.138412
C85	C	0.702003	-0.388475	0.388414
C86	C	0.952003	-0.138475	0.638414
C87	C	1.202003	0.111525	0.888414
C88	C	1.452003	0.361525	1.138414
C89	C	0.793318	-0.388464	0.388409
C90	C	1.043318	-0.138464	0.638409
C91	C	1.293318	0.111536	0.888409
C92	C	1.543318	0.361536	1.138409
C93	C	1.165245	-0.598780	0.388354
C94	C	1.415245	-0.348780	0.638354
C95	C	1.665245	-0.098780	0.888354
C96	C	1.915245	0.151220	1.138354
C97	C	1.165262	-0.688402	0.388332
C98	C	1.415262	-0.438402	0.638332
C99	C	1.665262	-0.188402	0.888332
C100	C	1.915262	0.061598	1.138332
C101	C	1.165275	-0.761184	0.388314
C102	C	1.415275	-0.511184	0.638314
C103	C	1.665275	-0.261184	0.888314
C104	C	1.915275	-0.011184	1.138314
C105	C	1.165294	-0.852493	0.388284
C106	C	1.415294	-0.602493	0.638284
C107	C	1.665294	-0.352493	0.888284
C108	C	1.915294	-0.102493	1.138284
C109	C	1.165313	-0.925269	0.388255
C110	C	1.415313	-0.675269	0.638255
C111	C	1.665313	-0.425269	0.888255
C112	C	1.915313	-0.175269	1.138255
C113	C	1.165333	-1.016583	0.388226
C114	C	1.415333	-0.766583	0.638226
C115	C	1.665333	-0.516583	0.888226
C116	C	1.915333	-0.266583	1.138226
C117	C	1.375515	-0.388494	0.388420
C118	C	1.625515	-0.138494	0.638420
C119	C	1.875515	0.111506	0.888420
C120	C	2.125515	0.361506	1.138420
C121	C	1.465136	-0.388504	0.388425
C122	C	1.715136	-0.138504	0.638425
C123	C	1.965136	0.111496	0.888425
C124	C	2.215136	0.361496	1.138425
C125	C	1.165130	-0.388438	0.597898
C126	C	1.415130	-0.138438	0.847898
C127	C	1.665130	0.111562	1.097898
C128	C	1.915130	0.361562	1.347898
C129	C	1.165171	-0.388450	0.687519
C130	C	1.415171	-0.138450	0.937519
C131	C	1.665171	0.111550	1.187519
C132	C	1.915171	0.361550	1.437519
C133	C	1.165213	-0.178981	0.388402
C134	C	1.415213	0.071019	0.638402
C135	C	1.665213	0.321019	0.888402
C136	C	1.915213	0.571019	1.138402
C137	C	1.165352	-0.089360	0.388198
C138	C	1.415352	0.160640	0.638198
C139	C	1.665352	0.410640	0.888198
C140	C	1.915352	0.660640	1.138198
C141	C	1.165305	-0.388523	0.178099
C142	C	1.415305	-0.138523	0.428099
C143	C	1.665305	0.111477	0.678099
C144	C	1.915305	0.361477	0.928099
C145	C	1.165347	-0.388545	0.088477
C146	C	1.415347	-0.138545	0.338477
C147	C	1.665347	0.111455	0.588477
C148	C	1.915347	0.361455	0.838477
C149	C	1.165311	-0.388534	1.015695
C150	C	1.415311	-0.138534	1.265695
C151	C	1.665311	0.111466	1.515695
C152	C	1.915311	0.361466	1.765695
C153	C	1.165270	-0.388513	0.924387
C154	C	1.415270	-0.138513	1.174387
C155	C	1.665270	0.111487	1.424387
C156	C	1.915270	0.361487	1.674387
C157	C	1.165240	-0.388492	0.851610
C158	C	1.415240	-0.138492	1.101610
C159	C	1.665240	0.111508	1.351610
C160	C	1.915240	0.361508	1.601610
C161	C	1.165200	-0.388471	0.760296
C162	C	1.415200	-0.138471	1.010296
C163	C	1.665200	0.111529	1.260296
C164	C	1.915200	0.361529	1.510296
