data_functionalizedCrystal
_audit_creation_method	'MofGen! by Chris Wilmer'
_symmetry_space_group_name_H-M	'P1'
_symmetry_Int_Tables_number	1
_symmetry_cell_setting	triclinic
loop_
_symmetry_equiv_pos_as_xyz
  x,y,z
_cell_length_a	9.065218
_cell_length_b	7.088929
_cell_length_c	9.065215
_cell_angle_alpha	96.315081
_cell_angle_beta	85.015291
_cell_angle_gamma	83.703834
loop_
_atom_site_label
_atom_site_type_symbol
_atom_site_fract_x
_atom_site_fract_y
_atom_site_fract_z
O1	O	1.945454	0.158989	0.231323
O2	O	1.516169	0.158991	0.249070
O3	O	1.739688	0.158982	0.025553
O4	O	1.721935	0.158998	0.454840
O5	O	1.769558	-0.158995	-0.004386
O6	O	1.546039	-0.158985	0.219131
O7	O	1.975324	-0.158988	0.201384
Cu8	Cu	1.763409	-0.188020	0.207524
Cu9	Cu	1.728084	0.188024	0.242930
O10	O	1.751806	-0.158978	0.424901
C11	C	1.476118	0.000003	0.232395
C12	C	1.312275	0.000004	0.227295
N13	N	1.788266	-0.452509	0.182620
C14	C	2.015376	0.000005	0.218059
C15	C	2.179217	0.000016	0.223160
C16	C	1.752918	-0.000004	-0.044403
C17	C	1.747819	0.000001	-0.208246
N18	N	1.703240	0.452513	0.267823
C19	C	1.738575	0.000012	0.494857
C20	C	1.743673	0.000019	0.658701
H21	H	1.615120	-0.465837	0.356117
H22	H	1.876402	-0.534169	0.094330
