data_functionalizedCrystal
_audit_creation_method	'MofGen! by Chris Wilmer'
_symmetry_space_group_name_H-M	'P1'
_symmetry_Int_Tables_number	1
_symmetry_cell_setting	triclinic
loop_
_symmetry_equiv_pos_as_xyz
  x,y,z
_cell_length_a	13.897449
_cell_length_b	18.101395
_cell_length_c	13.897441
_cell_angle_alpha	89.969302
_cell_angle_beta	89.979267
_cell_angle_gamma	90.032384
loop_
_atom_site_label
_atom_site_type_symbol
_atom_site_fract_x
_atom_site_fract_y
_atom_site_fract_z
Zn1	Zn	1.474613	-0.294781	-0.545380
Zn2	Zn	1.974613	0.205219	-0.045380
Zn3	Zn	1.474469	-0.418636	-0.384082
Zn4	Zn	1.974469	0.081364	0.115918
Zn5	Zn	1.313302	-0.294816	-0.384099
Zn6	Zn	1.813302	0.205184	0.115901
Zn7	Zn	1.313246	-0.418588	-0.545334
Zn8	Zn	1.813246	0.081412	-0.045334
O9	O	1.393907	-0.356705	-0.464724
O10	O	1.893907	0.143295	0.035276
O11	O	1.609575	-0.311216	-0.523996
O12	O	2.109575	0.188784	-0.023996
O13	O	1.453053	-0.402246	-0.249102
O14	O	1.953053	0.097754	0.250898
O15	O	1.334784	-0.191178	-0.405520
O16	O	1.834784	0.308822	0.094480
O17	O	1.609470	-0.402212	-0.405490
O18	O	2.109470	0.097788	0.094510
O19	O	1.453298	-0.191152	-0.524013
O20	O	1.953298	0.308848	-0.024013
O21	O	1.334644	-0.311276	-0.249115
O22	O	1.834644	0.188724	0.250885
O23	O	1.178313	-0.311229	-0.405475
O24	O	1.678313	0.188771	0.094525
O25	O	1.334688	-0.402129	-0.680322
O26	O	1.834688	0.097871	-0.180322
O27	O	1.178272	-0.402164	-0.523934
O28	O	1.678272	0.097836	-0.023934
O29	O	1.453244	-0.311169	-0.680356
O30	O	1.953244	0.188831	-0.180356
O31	O	1.452999	-0.522263	-0.405445
O32	O	1.952999	-0.022263	0.094555
O33	O	1.334549	-0.522227	-0.523917
O34	O	1.834549	-0.022227	-0.023917
C35	C	1.143293	-0.356695	-0.464702
C36	C	1.643293	0.143305	0.035298
C37	C	1.036079	-0.356709	-0.464715
C38	C	1.536079	0.143291	0.035285
C39	C	0.839784	-0.356712	-0.464741
C40	C	1.339784	0.143288	0.035259
C41	C	0.949016	-0.356708	-0.464724
C42	C	1.449016	0.143292	0.035276
C43	C	1.393778	-0.549116	-0.464695
C44	C	1.893778	-0.049116	0.035305
C45	C	1.393811	-0.631430	-0.464716
C46	C	1.893811	-0.131430	0.035284
C47	C	1.394023	-0.930521	-0.464767
C48	C	1.894023	-0.430521	0.035233
C49	C	1.319670	-0.899204	-0.539492
C50	C	1.819670	-0.399204	-0.039492
C51	C	1.319317	-0.813586	-0.539258
C52	C	1.819317	-0.313586	-0.039258
C53	C	1.393918	-0.782138	-0.464743
C54	C	1.893918	-0.282138	0.035257
C55	C	1.366392	-0.813295	-0.363084
C56	C	1.866392	-0.313295	0.136916
C57	C	1.365913	-0.898940	-0.363531
C58	C	1.865913	-0.398940	0.136469
C59	C	1.496064	-0.898862	-0.490807
C60	C	1.996064	-0.398862	0.009193
C61	C	1.495464	-0.813210	-0.493037
C62	C	1.995464	-0.313210	0.006963
C63	C	1.393860	-0.698279	-0.464722
C64	C	1.893860	-0.198279	0.035278
C65	C	1.394078	-1.014380	-0.464781
C66	C	1.894078	-0.514380	0.035219
C67	C	1.645500	-0.356716	-0.464746
C68	C	2.145500	0.143284	0.035254
C69	C	1.752714	-0.356720	-0.464756
C70	C	2.252714	0.143280	0.035244
C71	C	1.393976	-0.356640	-0.716317
C72	C	1.893976	0.143360	-0.216317
C73	C	1.394005	-0.356612	-0.823531
C74	C	1.894005	0.143388	-0.323531
C75	C	1.394063	-0.163543	-0.464773
C76	C	1.894063	0.336457	0.035227
C77	C	1.394130	-0.081229	-0.464795
C78	C	1.894130	0.418771	0.035205
C79	C	1.394031	-0.356562	-1.019826
C80	C	1.894031	0.143438	-0.519826
C81	C	1.394014	-0.356592	-0.910594
C82	C	1.894014	0.143408	-0.410594
C83	C	1.393895	-0.356717	-0.214109
C84	C	1.893895	0.143283	0.285891
C85	C	1.394052	-0.356536	-0.106896
C86	C	1.894052	0.143464	0.393104
H87	H	1.336722	-0.919748	-0.615115
H88	H	1.836722	-0.419748	-0.115115
H89	H	1.551460	-0.919113	-0.436383
H90	H	2.051460	-0.419113	0.063617
H91	H	1.243682	-0.793165	-0.522009
H92	H	1.743682	-0.293165	-0.022009
H93	H	1.244495	-0.920792	-0.522460
H94	H	1.744495	-0.420792	-0.022460
H95	H	1.291321	-0.918985	-0.341472
H96	H	1.791321	-0.418985	0.158528
H97	H	1.417719	-0.919659	-0.305957
H98	H	1.917719	-0.419659	0.194043
H99	H	1.418843	-0.792926	-0.305891
H100	H	1.918843	-0.292926	0.194109
C101	C	1.537280	-0.846388	-0.654982
C102	C	2.037280	-0.346388	-0.154982
C103	C	1.523450	-0.785731	-0.594052
C104	C	2.023450	-0.285731	-0.094052
H105	H	1.554536	-0.829424	-0.717352
H106	H	2.054536	-0.329424	-0.217352
H107	H	1.587248	-0.876664	-0.630140
H108	H	2.087248	-0.376664	-0.130140
H109	H	1.479428	-0.874207	-0.658789
H110	H	1.979428	-0.374207	-0.158789
H111	H	1.581305	-0.757914	-0.590240
H112	H	2.081305	-0.257914	-0.090240
H113	H	1.473479	-0.755443	-0.618900
H114	H	1.973479	-0.255443	-0.118900
C115	C	1.204416	-0.844228	-0.318326
C116	C	1.704416	-0.344228	0.181674
C117	C	1.266758	-0.784442	-0.332767
C118	C	1.766758	-0.284442	0.167233
H119	H	1.142907	-0.826415	-0.299608
H120	H	1.642907	-0.326415	0.200392
H121	H	1.198645	-0.871550	-0.376370
H122	H	1.698645	-0.371550	0.123630
H123	H	1.229413	-0.875258	-0.269194
H124	H	1.729413	-0.375258	0.230806
H125	H	1.241765	-0.753414	-0.381905
H126	H	1.741765	-0.253414	0.118095
H127	H	1.272527	-0.757108	-0.274716
H128	H	1.772527	-0.257108	0.225284
C129	C	1.532750	-0.737821	-0.355923
C130	C	2.032750	-0.237821	0.144077
C131	C	1.574210	-0.784311	-0.424922
C132	C	2.074210	-0.284311	0.075078
H133	H	1.581364	-0.719984	-0.313864
H134	H	2.081364	-0.219984	0.186136
H135	H	1.502536	-0.697325	-0.387151
H136	H	2.002536	-0.197325	0.112849
H137	H	1.486243	-0.764633	-0.319948
H138	H	1.986243	-0.264633	0.180052
H139	H	1.620713	-0.757498	-0.460902
H140	H	2.120713	-0.257498	0.039098
H141	H	1.604440	-0.824813	-0.393690
H142	H	2.104440	-0.324813	0.106310
H143	H	1.336539	-0.792518	-0.614637
H144	H	1.836539	-0.292518	-0.114637
H145	H	1.521159	-0.920406	-0.563673
H146	H	2.021159	-0.420406	-0.063673
