data_functionalizedCrystal
_audit_creation_method	'MofGen! by Chris Wilmer'
_symmetry_space_group_name_H-M	'P1'
_symmetry_Int_Tables_number	1
_symmetry_cell_setting	triclinic
loop_
_symmetry_equiv_pos_as_xyz
  x,y,z
_cell_length_a	29.839134
_cell_length_b	18.215405
_cell_length_c	18.215399
_cell_angle_alpha	90.030551
_cell_angle_beta	90.029416
_cell_angle_gamma	90.019746
loop_
_atom_site_label
_atom_site_type_symbol
_atom_site_fract_x
_atom_site_fract_y
_atom_site_fract_z
Zn1	Zn	-0.686804	0.293093	-0.416291
Zn2	Zn	-0.686748	0.416164	-0.293219
Zn3	Zn	-0.611677	0.293105	-0.293217
Zn4	Zn	-0.611656	0.416111	-0.416223
O5	O	-0.649222	0.354618	-0.354738
O6	O	-0.749664	0.309435	-0.399994
O7	O	-0.676775	0.399867	-0.190234
O8	O	-0.621675	0.190119	-0.309571
O9	O	-0.749623	0.399855	-0.309573
O10	O	-0.676871	0.190110	-0.399992
O11	O	-0.621621	0.309456	-0.190233
O12	O	-0.548807	0.309405	-0.309506
O13	O	-0.621640	0.399765	-0.519216
O14	O	-0.548792	0.399777	-0.399877
O15	O	-0.676850	0.309384	-0.519266
O16	O	-0.676755	0.519141	-0.309508
O17	O	-0.621585	0.519102	-0.399879
C18	C	-0.532499	0.354587	-0.354684
C19	C	-0.482565	0.354591	-0.354679
C20	C	-0.649174	0.545824	-0.354702
C21	C	-0.649195	0.627623	-0.354712
C22	C	-0.766400	0.354650	-0.354791
C23	C	-0.816334	0.354664	-0.354814
C24	C	-0.172923	0.401744	-0.401736
C25	C	0.014750	0.401765	-0.401769
O26	O	0.039014	0.441822	-0.441747
N27	N	0.038221	0.354645	-0.354793
C28	C	0.014770	0.307513	-0.307809
O29	O	0.039039	0.267430	-0.267859
C30	C	-0.172903	0.307489	-0.307780
C31	C	-0.196370	0.354618	-0.354754
C32	C	-0.196390	0.448868	-0.448707
C33	C	-0.243306	0.448866	-0.448696
C34	C	-0.266754	0.401739	-0.401713
C35	C	-0.243286	0.354615	-0.354743
C36	C	-0.196353	0.260354	-0.260800
C37	C	-0.243274	0.260351	-0.260799
C38	C	-0.266742	0.307479	-0.307772
C39	C	-0.313649	0.307485	-0.307749
N40	N	-0.337119	0.354605	-0.354725
C41	C	-0.313671	0.401732	-0.401707
C42	C	0.113300	0.307530	-0.307826
C43	C	0.160218	0.307537	-0.307832
C44	C	0.160196	0.401788	-0.401794
C45	C	0.113277	0.401784	-0.401783
C46	C	0.089830	0.354650	-0.354802
C47	C	-0.412197	0.401723	-0.401679
C48	C	-0.459117	0.401718	-0.401661
C49	C	-0.459090	0.307464	-0.307703
C50	C	-0.412175	0.307472	-0.307718
C51	C	-0.388729	0.354603	-0.354712
O52	O	-0.337941	0.267443	-0.267797
O53	O	-0.337949	0.441798	-0.441663
C54	C	-0.126007	0.401747	-0.401748
C55	C	-0.102539	0.354623	-0.354777
C56	C	-0.125987	0.307496	-0.307795
C57	C	-0.055622	0.354630	-0.354783
C58	C	-0.032174	0.401757	-0.401765
C59	C	-0.055644	0.448877	-0.448742
C60	C	-0.102560	0.448874	-0.448730
C61	C	-0.102517	0.260376	-0.260819
C62	C	-0.055602	0.260383	-0.260833
C63	C	-0.032154	0.307510	-0.307816
C64	C	-0.649249	0.354567	-0.546691
C65	C	-0.649261	0.354546	-0.628489
C66	C	-0.649281	0.162665	-0.354789
C67	C	-0.649307	0.080866	-0.354811
C68	C	-0.677989	0.815813	-0.307742
C69	C	-0.678009	0.892672	-0.307760
C70	C	-0.620511	0.892671	-0.401786
C71	C	-0.620494	0.815814	-0.401771
C72	C	-0.649232	0.777387	-0.354745
C73	C	-0.649270	0.931103	-0.354778
C74	C	-0.649291	1.014436	-0.354797
C75	C	-0.649211	0.694048	-0.354726
C76	C	-0.678019	0.307440	-0.816711
C77	C	-0.678025	0.307419	-0.893569
C78	C	-0.620534	0.401537	-0.893506
C79	C	-0.620527	0.401554	-0.816649
C80	C	-0.649272	0.354507	-0.778253
C81	C	-0.649284	0.354468	-0.931969
C82	C	-0.649290	0.354446	-1.015303
C83	C	-0.649266	0.354529	-0.694914
C84	C	-0.649220	0.354615	-0.163531
C85	C	-0.649296	0.354430	-0.081733
H86	H	-0.478222	0.440098	-0.439914
O87	O	-0.706017	0.929895	-0.262137
C88	C	-0.750774	0.911028	-0.278333
H89	H	-0.751660	0.855210	-0.306630
H90	H	-0.770945	0.908381	-0.225266
H91	H	-0.765910	0.954236	-0.316200
H92	H	-0.597113	0.923968	-0.440072
H93	H	-0.597131	0.439843	-0.924778
H94	H	-0.701424	0.269129	-0.785451
H95	H	-0.478190	0.269097	-0.269449
O96	O	-0.592586	0.447349	-0.779400
C97	C	-0.567211	0.488862	-0.829768
H98	H	-0.585616	0.491405	-0.884566
H99	H	-0.562401	0.546849	-0.807538
H100	H	-0.533100	0.461904	-0.837930
O101	O	-0.592515	0.778595	-0.447456
C102	C	-0.567159	0.828991	-0.488974
H103	H	-0.565624	0.883802	-0.458840
H104	H	-0.531756	0.806816	-0.496756
H105	H	-0.583592	0.837106	-0.544898
H106	H	-0.393114	0.440100	-0.439948
O107	O	-0.705971	0.261800	-0.931010
C108	C	-0.734985	0.303693	-0.975463
H109	H	-0.719126	0.359458	-0.986951
H110	H	-0.741017	0.273703	-1.029521
H111	H	-0.768275	0.311791	-0.945864
H112	H	-0.701390	0.784527	-0.269452
O113	O	-0.266030	0.214645	-0.215051
C114	C	-0.254523	0.230624	-0.141678
H115	H	-0.241613	0.289412	-0.137860
H116	H	-0.285363	0.224236	-0.105322
H117	H	-0.227288	0.191145	-0.122521
O118	O	-0.266030	0.494665	-0.494401
C119	C	-0.235265	0.536267	-0.535854
H120	H	-0.201828	0.506125	-0.538452
H121	H	-0.248836	0.544188	-0.593824
H122	H	-0.230255	0.592126	-0.508806
H123	H	-0.177304	0.487245	-0.486970
H124	H	0.179295	0.440161	-0.440048
O125	O	0.090552	0.447584	-0.447487
C126	C	0.121314	0.489192	-0.488937
H127	H	0.154752	0.459054	-0.491538
H128	H	0.107743	0.497115	-0.546907
H129	H	0.126322	0.545050	-0.461886
O130	O	-0.125332	0.494573	-0.494471
C131	C	-0.113884	0.478592	-0.567846
H132	H	-0.101002	0.419803	-0.571665
H133	H	-0.144748	0.484980	-0.604195
H134	H	-0.086646	0.518069	-0.587010
H135	H	0.094214	0.269147	-0.269565
O136	O	0.182942	0.261693	-0.262172
C137	C	0.152180	0.220112	-0.220695
H138	H	0.118725	0.217603	-0.250842
H139	H	0.165726	0.162118	-0.212951
H140	H	0.147214	0.246988	-0.164752
H141	H	-0.036498	0.222007	-0.222575
O142	O	-0.173553	0.214688	-0.215067
C143	C	-0.146391	0.256536	-0.167465
H144	H	-0.160512	0.314498	-0.162847
H145	H	-0.145866	0.229868	-0.110867
H146	H	-0.110833	0.259082	-0.190188
H147	H	-0.036545	0.487252	-0.486994
O148	O	-0.389421	0.261733	-0.261988
C149	C	-0.400835	0.277726	-0.188602
H150	H	-0.434895	0.306012	-0.187003
H151	H	-0.402433	0.224567	-0.155704
H152	H	-0.374409	0.315529	-0.163757
O153	O	-0.125221	0.214573	-0.215107
C154	C	-0.094440	0.172975	-0.173667
H155	H	-0.060990	0.203123	-0.171080
H156	H	-0.107969	0.165050	-0.115691
H157	H	-0.089470	0.117117	-0.200717
