data_functionalizedCrystal
_audit_creation_method	'MofGen! by Chris Wilmer'
_symmetry_space_group_name_H-M	'P1'
_symmetry_Int_Tables_number	1
_symmetry_cell_setting	triclinic
loop_
_symmetry_equiv_pos_as_xyz
  x,y,z
_cell_length_a	10.685980
_cell_length_b	10.685194
_cell_length_c	11.169409
_cell_angle_alpha	94.405531
_cell_angle_beta	94.396777
_cell_angle_gamma	98.380820
loop_
_atom_site_label
_atom_site_type_symbol
_atom_site_fract_x
_atom_site_fract_y
_atom_site_fract_z
Zn1	Zn	1.901989	-0.356539	0.791478
Zn2	Zn	2.401989	0.143461	1.291478
Zn3	Zn	1.885604	-0.568874	0.574103
Zn4	Zn	2.385604	-0.068874	1.074103
Zn5	Zn	1.689703	-0.372883	0.574111
Zn6	Zn	2.189703	0.127117	1.074111
Zn7	Zn	1.673457	-0.585028	0.758071
Zn8	Zn	2.173457	-0.085028	1.258071
O9	O	1.787688	-0.470831	0.674441
O10	O	2.287688	0.029169	1.174441
O11	O	2.077442	-0.371106	0.776621
O12	O	2.577442	0.128894	1.276621
O13	O	1.859560	-0.542955	0.406144
O14	O	2.359560	-0.042955	0.906144
O15	O	1.731519	-0.193069	0.616930
O16	O	2.231519	0.306931	1.116930
O17	O	2.065404	-0.527107	0.616917
O18	O	2.565404	-0.027107	1.116917
O19	O	1.887484	-0.181061	0.776628
O20	O	2.387484	0.318939	1.276628
O21	O	1.715632	-0.398961	0.406150
O22	O	2.215632	0.101039	0.906150
O23	O	1.509921	-0.414625	0.584536
O24	O	2.009921	0.085375	1.084536
O25	O	1.703831	-0.554639	0.930462
O26	O	2.203831	-0.054639	1.430462
O27	O	1.497986	-0.570486	0.719690
O28	O	1.997986	-0.070486	1.219690
O29	O	1.871732	-0.386769	0.955006
O30	O	2.371732	0.113231	1.455006
O31	O	1.843807	-0.748663	0.584522
O32	O	2.343807	-0.248663	1.084522
O33	O	1.687944	-0.760531	0.719682
O34	O	2.187944	-0.260531	1.219682
C35	C	1.457897	-0.496083	0.648489
C36	C	1.957897	0.003917	1.148489
C37	C	1.316808	-0.506916	0.637413
C38	C	1.816808	-0.006916	1.137413
C39	C	1.762369	-0.800656	0.648505
C40	C	2.262369	-0.300656	1.148505
C41	C	1.751653	-0.941747	0.637459
C42	C	2.251653	-0.441747	1.137459
C43	C	2.118768	-0.445481	0.700494
C44	C	2.618768	0.054519	1.200494
C45	C	2.259854	-0.434679	0.711597
C46	C	2.759854	0.065321	1.211597
C47	C	1.787797	-0.470683	0.987502
C48	C	2.287797	0.029317	1.487502
C49	C	1.787843	-0.470619	1.120910
C50	C	2.287843	0.029381	1.620910
C51	C	1.813141	-0.139716	0.700506
C52	C	2.313141	0.360284	1.200506
C53	C	1.823988	0.001386	0.711614
C54	C	2.323988	0.501386	1.211614
C55	C	1.787661	-0.470882	0.362610
C56	C	2.287661	0.029118	0.862610
C57	C	1.787888	-0.470568	0.229250
C58	C	2.287888	0.029432	0.729250
H59	H	1.319030	-0.364538	0.783581
H60	H	1.819030	0.135462	1.283581
Br61	Br	1.218178	-0.623814	0.517406
Br62	Br	1.718178	-0.123814	1.017406
H63	H	1.894116	-0.939362	0.783558
H64	H	2.394116	-0.439362	1.283558
H65	H	1.681510	-1.001009	0.565521
H66	H	2.181510	-0.501009	1.065521
