data_functionalizedCrystal
_audit_creation_method	'MofGen! by Chris Wilmer'
_symmetry_space_group_name_H-M	'P1'
_symmetry_Int_Tables_number	1
_symmetry_cell_setting	triclinic
loop_
_symmetry_equiv_pos_as_xyz
  x,y,z
_cell_length_a	15.995350
_cell_length_b	10.489741
_cell_length_c	14.472310
_cell_angle_alpha	89.999301
_cell_angle_beta	89.990621
_cell_angle_gamma	84.015774
loop_
_atom_site_label
_atom_site_type_symbol
_atom_site_fract_x
_atom_site_fract_y
_atom_site_fract_z
O1	O	1.111988	0.164399	-0.076762
O2	O	0.868335	0.184702	-0.076781
O3	O	0.995706	-0.011125	-0.076766
O4	O	0.984617	0.360226	-0.076777
O5	O	0.995673	-0.011114	0.076916
O6	O	0.868302	0.184713	0.076901
O7	O	1.111955	0.164411	0.076920
Cu8	Cu	0.990125	0.174563	0.090943
Cu9	Cu	0.990164	0.174549	-0.090804
O10	O	0.984584	0.360237	0.076905
C11	C	0.837119	0.183868	0.000058
C12	C	0.744153	0.181352	0.000050
C13	C	0.406351	0.172315	0.000070
C14	C	0.452944	0.032851	0.000417
C15	C	0.549650	0.035368	0.000064
C16	C	0.573939	0.176797	0.000061
C17	C	0.533285	0.245579	-0.087698
C18	C	0.436628	0.242076	-0.087765
C19	C	0.436269	0.244970	0.087001
C20	C	0.533214	0.244937	0.088154
C21	C	0.668651	0.179338	0.000053
C22	C	0.311638	0.169778	0.000072
C23	C	0.994852	-0.058639	0.000075
C24	C	0.992346	-0.200234	0.000073
C25	C	0.911304	-0.267240	0.000060
C26	C	0.949571	-0.359892	0.075836
C27	C	0.949623	-0.359878	-0.075682
C28	C	1.030647	-0.291021	0.075912
C29	C	1.030687	-0.290998	-0.075675
C30	C	1.069013	-0.383624	0.000120
C31	C	1.143171	0.165244	0.000079
C32	C	1.236137	0.167761	0.000080
C33	C	0.985438	0.407752	0.000062
C34	C	0.987944	0.549346	0.000058
N35	N	0.990104	0.174572	0.218774
N36	N	0.990192	0.174531	-0.218635
C37	C	0.990163	0.174544	0.592865
C38	C	0.921777	0.278976	0.553691
C39	C	0.921938	0.279357	0.446603
C40	C	0.990133	0.174558	0.407274
C41	C	1.077673	0.203626	0.446117
C42	C	1.077290	0.204368	0.553238
C43	C	0.971787	0.040735	0.553397
C44	C	0.969789	0.041628	0.446269
C45	C	0.990122	0.174563	0.302386
C46	C	0.990181	0.174542	0.697753
H47	H	0.405128	0.347796	0.087591
C48	C	0.903232	-0.401141	0.162370
H49	H	0.847202	-0.360895	0.162275
H50	H	0.931474	-0.376413	0.216180
H51	H	0.902417	-0.491567	0.162025
H52	H	1.093360	0.301954	0.578212
H53	H	0.856524	0.261942	0.579474
C54	C	0.937541	0.412375	0.590001
H55	H	0.895952	0.474906	0.565996
H56	H	0.991605	0.431700	0.570831
H57	H	0.934784	0.412820	0.655574
C58	C	0.937908	0.413493	0.411963
H59	H	0.944330	0.467961	0.463361
H60	H	0.891618	0.448147	0.375531
H61	H	0.987644	0.407127	0.375640
H62	H	0.548037	0.349484	-0.090963
H63	H	0.856894	0.262038	0.420342
H64	H	0.577193	-0.019074	-0.062951
C65	C	1.148150	0.105524	0.588249
H66	H	1.177049	0.065102	0.537001
H67	H	1.124750	0.042847	0.624731
H68	H	1.186380	0.147658	0.624600
H69	H	0.844671	-0.216656	0.000131
H70	H	0.433029	-0.022644	-0.062167
H71	H	0.905390	0.019568	0.420883
C72	C	1.076904	-0.250020	0.162557
H73	H	1.078187	-0.159680	0.162051
H74	H	1.132761	-0.290917	0.162784
H75	H	1.048286	-0.274150	0.216295
C76	C	0.408147	0.183386	0.176865
H77	H	0.426836	0.228663	0.228478
H78	H	0.431686	0.096502	0.179562
H79	H	0.348563	0.187014	0.177998
H80	H	0.915336	-0.390367	-0.139751
C81	C	1.076959	-0.249619	-0.162209
H82	H	1.124849	-0.209309	-0.144007
H83	H	1.040264	-0.191169	-0.197230
H84	H	1.094312	-0.322837	-0.198776
C85	C	1.159103	-0.451666	0.000183
H86	H	1.187739	-0.428109	0.054060
H87	H	1.188120	-0.427037	-0.053131
H88	H	1.157024	-0.541843	-0.000322
H89	H	1.021649	-0.036979	0.578729
H90	H	1.129811	0.129587	0.420640
H91	H	1.094107	0.300099	0.419278
C92	C	0.427446	-0.042456	0.085434
H93	H	0.388152	0.010474	0.121478
H94	H	0.475867	-0.068098	0.121568
H95	H	0.402568	-0.116200	0.065702
H96	H	0.418031	0.191907	-0.153364
C97	C	0.393890	0.380388	-0.093157
H98	H	0.334583	0.379186	-0.093228
H99	H	0.410729	0.419686	-0.148297
H100	H	0.409986	0.427616	-0.041259
H101	H	0.909296	0.012784	0.580461
H102	H	1.016301	-0.039726	0.419501
H103	H	0.561385	0.197797	-0.153007
H104	H	0.577739	-0.018699	0.062974
H105	H	0.560214	0.194727	0.153077
H106	H	0.549200	0.348073	0.093452
