data_functionalizedCrystal
_audit_creation_method	'MofGen! by Chris Wilmer'
_symmetry_space_group_name_H-M	'P1'
_symmetry_Int_Tables_number	1
_symmetry_cell_setting	triclinic
loop_
_symmetry_equiv_pos_as_xyz
  x,y,z
_cell_length_a	21.395362
_cell_length_b	19.121063
_cell_length_c	21.395355
_cell_angle_alpha	87.579260
_cell_angle_beta	90.043940
_cell_angle_gamma	92.485681
loop_
_atom_site_label
_atom_site_type_symbol
_atom_site_fract_x
_atom_site_fract_y
_atom_site_fract_z
Zn1	Zn	0.947241	-0.279403	0.365205
Zn2	Zn	1.447241	0.220597	0.865205
Zn3	Zn	0.942680	-0.396839	0.264891
Zn4	Zn	1.442680	0.103161	0.764891
Zn5	Zn	0.842454	-0.279436	0.260407
Zn6	Zn	1.342454	0.220564	0.760407
Zn7	Zn	0.837961	-0.396853	0.369596
Zn8	Zn	1.337961	0.103147	0.869596
O9	O	0.892584	-0.338133	0.315025
O10	O	1.392584	0.161867	0.815025
O11	O	1.034314	-0.294962	0.351936
O12	O	1.534314	0.205038	0.851936
O13	O	0.929357	-0.381273	0.176618
O14	O	1.429357	0.118727	0.676618
O15	O	0.860144	-0.181145	0.270595
O16	O	1.360144	0.318855	0.770595
O17	O	1.030964	-0.381241	0.278236
O18	O	1.530964	0.118759	0.778236
O19	O	0.937130	-0.181121	0.347589
O20	O	1.437130	0.318879	0.847589
O21	O	0.855721	-0.295017	0.173324
O22	O	1.355721	0.204983	0.673324
O23	O	0.754180	-0.295031	0.274853
O24	O	1.254180	0.204969	0.774853
O25	O	0.852486	-0.381266	0.456691
O26	O	1.352486	0.118734	0.956691
O27	O	0.750879	-0.381297	0.355073
O28	O	1.250879	0.118703	0.855073
O29	O	0.932773	-0.294976	0.453465
O30	O	1.432773	0.205024	0.953465
O31	O	0.925000	-0.495127	0.282494
O32	O	1.425000	0.004873	0.782494
O33	O	0.848063	-0.495138	0.359420
O34	O	1.348063	0.004862	0.859420
C35	C	0.729795	-0.338170	0.314953
C36	C	1.229795	0.161830	0.814953
C37	C	0.660152	-0.338203	0.314938
C38	C	1.160152	0.161797	0.814938
C39	C	0.625735	-0.383181	0.356651
C40	C	1.125735	0.116819	0.856651
C41	C	0.560300	-0.383164	0.356679
C42	C	1.060300	0.116836	0.856679
C43	C	0.529285	-0.338176	0.314982
C44	C	1.029285	0.161824	0.814982
C45	C	0.563711	-0.293189	0.273266
C46	C	1.063711	0.206811	0.773266
C47	C	0.629145	-0.293202	0.273244
C48	C	1.129145	0.206798	0.773244
C49	C	0.425776	-0.332517	0.258362
C50	C	0.925776	0.167483	0.758362
C51	C	0.360343	-0.332509	0.258383
C52	C	0.860343	0.167491	0.758383
C53	C	0.327466	-0.338130	0.315049
C54	C	0.827466	0.161870	0.815049
C55	C	0.360030	-0.343774	0.371698
C56	C	0.860030	0.156226	0.871698
C57	C	0.425463	-0.343788	0.371676
C58	C	0.925463	0.156212	0.871676
C59	C	0.458334	-0.338156	0.315001
C60	C	0.958334	0.161844	0.815001
C61	C	0.222096	-0.383092	0.356795
C62	C	0.722096	0.116908	0.856795
C63	C	0.156661	-0.383070	0.356824
C64	C	0.656661	0.116930	0.856824
C65	C	0.160073	-0.293098	0.273405
C66	C	0.660073	0.206902	0.773405
C67	C	0.225508	-0.293117	0.273383
C68	C	0.725508	0.206883	0.773383
C69	C	0.256516	-0.338117	0.315077
C70	C	0.756516	0.161883	0.815077
C71	C	0.885566	-0.520617	0.321934
C72	C	1.385566	-0.020617	0.821934
C73	C	0.882621	-0.598685	0.324911
C74	C	1.382621	-0.098685	0.824911
C75	C	0.921325	-0.635332	0.286291
C76	C	1.421325	-0.135332	0.786291
C77	C	0.918559	-0.708685	0.289094
C78	C	1.418559	-0.208685	0.789094
C79	C	0.877085	-0.745389	0.330515
C80	C	1.377085	-0.245389	0.830515
C81	C	0.838379	-0.708736	0.369139
C82	C	1.338379	-0.208736	0.869139
C83	C	0.841149	-0.635385	0.366338
C84	C	1.341149	-0.135385	0.866338
C85	C	0.866720	-0.966864	0.340976
C86	C	1.366720	-0.466864	0.840976
C87	C	0.863952	-1.040221	0.343772
C88	C	1.363952	-0.540221	0.843772
C89	C	0.944133	-1.040164	0.263728
C90	C	1.444133	-0.540164	0.763728
C91	C	0.946896	-0.966812	0.260928
C92	C	1.446896	-0.466812	0.760928
C93	C	0.908193	-0.930165	0.299555
C94	C	1.408193	-0.430165	0.799555
C95	C	0.874256	-0.820367	0.333380
C96	C	1.374256	-0.320367	0.833380
C97	C	0.911026	-0.855188	0.296692
C98	C	1.411026	-0.355188	0.796692
C99	C	1.056009	-0.338096	0.315097
C100	C	1.556009	0.161904	0.815097
C101	C	1.125651	-0.338080	0.315127
C102	C	1.625651	0.161920	0.815127
C103	C	0.892637	-0.338119	0.478447
C104	C	1.392637	0.161881	0.978447
C105	C	0.892659	-0.338112	0.548089
C106	C	1.392659	0.161888	1.048089
C107	C	0.899647	-0.154936	0.308102
C108	C	1.399647	0.345064	0.808102
C109	C	0.902656	-0.076868	0.305152
C110	C	1.402656	0.423132	0.805152
C111	C	0.892570	-0.338096	0.152236
C112	C	1.392570	0.161904	0.652236
C113	C	0.892676	-0.337904	0.082588
C114	C	1.392676	0.162096	0.582588
C115	C	0.934463	-0.293179	0.579123
C116	C	1.434463	0.206821	1.079123
C117	C	0.934463	-0.293149	0.644557
C118	C	1.434463	0.206851	1.144557
C119	C	0.892666	-0.338065	0.678955
C120	C	1.392666	0.161935	1.178955
C121	C	0.850854	-0.383001	0.647913
C122	C	1.350854	0.116999	1.147913
C123	C	0.850851	-0.383025	0.582480
C124	C	1.350851	0.116975	1.082480
C125	C	0.885286	-0.401308	0.785023
C126	C	1.385286	0.098692	1.285023
C127	C	0.885294	-0.401285	0.850455
C128	C	1.385294	0.098715	1.350455
C129	C	0.892672	-0.337990	0.880773
C130	C	1.392672	0.162010	1.380773
C131	C	0.900056	-0.274717	0.845651
C132	C	1.400056	0.225283	1.345651
C133	C	0.900053	-0.274741	0.780218
C134	C	1.400053	0.225259	1.280218
C135	C	0.892664	-0.338043	0.749907
C136	C	1.392664	0.161957	1.249907
C137	C	0.934479	-0.293021	0.982759
C138	C	1.434479	0.206979	1.482759
C139	C	0.934475	-0.292989	1.048194
C140	C	1.434475	0.207011	1.548194
C141	C	0.850869	-0.382847	1.051549
C142	C	1.350869	0.117153	1.551549
C143	C	0.850870	-0.382872	0.986115
C144	C	1.350870	0.117128	1.486115
C145	C	0.892678	-0.337960	0.951723
C146	C	1.392678	0.162040	1.451723
H147	H	0.532271	-0.419790	0.390649
H148	H	1.032271	0.080210	0.890649
H149	H	0.955095	-0.605453	0.252559
H150	H	1.455095	-0.105453	0.752559
H151	H	0.253531	-0.256494	0.239412
H152	H	0.753531	0.243506	0.739412
C153	C	0.804896	-0.432258	1.089379
C154	C	1.304896	0.067742	1.589379
H155	H	0.810888	-0.425813	1.132794
H156	H	1.310888	0.074187	1.632794
H157	H	0.763192	-0.421999	1.078236
H158	H	1.263192	0.078001	1.578236
H159	H	0.812255	-0.479452	1.080454
H160	H	1.312255	0.020548	1.580454
H161	H	0.333263	-0.348350	0.417841
H162	H	0.833263	0.151650	0.917841
H163	H	0.452538	-0.327937	0.212214
H164	H	0.952538	0.172063	0.712214
C165	C	0.818328	-1.080597	0.389334
C166	C	1.318328	-0.580597	0.889334
H167	H	0.822218	-1.129531	0.385462
H168	H	1.322218	-0.629531	0.885462
H169	H	0.827931	-1.068547	0.430985
H170	H	1.327931	-0.568547	0.930985
H171	H	0.776685	-1.068631	0.379651
H172	H	1.276685	-0.568631	0.879651
H173	H	0.650977	-0.419823	0.390603
H174	H	1.150977	0.080177	0.890603
H175	H	0.657168	-0.256574	0.239276
H176	H	1.157168	0.243426	0.739276
H177	H	0.968504	-0.256556	0.669830
H178	H	1.468504	0.243444	1.169830
C179	C	0.804889	-0.432305	0.951975
C180	C	1.304889	0.067695	1.451975
H181	H	0.779998	-0.459055	0.981832
H182	H	1.279998	0.040945	1.481832
H183	H	0.778625	-0.405453	0.925408
H184	H	1.278625	0.094547	1.425408
H185	H	0.827680	-0.462914	0.927632
H186	H	1.327680	0.037086	1.427632
H187	H	0.835205	-0.937033	0.372426
H188	H	1.335205	-0.437033	0.872426
C189	C	0.324529	-0.326299	0.196074
C190	C	0.824529	0.173701	0.696074
H191	H	0.353480	-0.322940	0.162322
H192	H	0.853480	0.177060	0.662322
H193	H	0.297432	-0.366536	0.192034
H194	H	0.797432	0.133464	0.692034
H195	H	0.300589	-0.285578	0.195420
H196	H	0.800589	0.214422	0.695420
C197	C	0.961131	-0.748994	0.246609
C198	C	1.461131	-0.248994	0.746609
H199	H	0.986222	-0.716629	0.221534
H200	H	1.486222	-0.216629	0.721534
H201	H	0.987343	-0.777561	0.271698
H202	H	1.487343	-0.277561	0.771698
H203	H	0.936089	-0.777653	0.220373
H204	H	1.436089	-0.277653	0.720373
C205	C	0.828634	-0.860741	0.378939
C206	C	1.328634	-0.360741	0.878939
H207	H	0.805979	-0.828412	0.401543
H208	H	1.305979	-0.328412	0.901543
H209	H	0.800268	-0.889406	0.356031
H210	H	1.300268	-0.389406	0.856031
H211	H	0.851517	-0.889307	0.407361
H212	H	1.351517	-0.389307	0.907361
H213	H	0.980668	-0.936929	0.227201
H214	H	1.480668	-0.436929	0.727201
H215	H	0.804613	-0.738626	0.402867
H216	H	1.304613	-0.238626	0.902867
C217	C	0.980459	-0.243617	0.944923
C218	C	1.480459	0.256383	1.444923
H219	H	0.974477	-0.250073	0.901508
H220	H	1.474477	0.249927	1.401508
H221	H	0.973110	-0.196423	0.953843
H222	H	1.473110	0.303577	1.453843
H223	H	1.022163	-0.253886	0.956070
H224	H	1.522163	0.246114	1.456070
C225	C	0.908173	-0.205087	0.878989
C226	C	1.408173	0.294913	1.378989
H227	H	0.912574	-0.167411	0.848701
H228	H	1.412574	0.332589	1.348701
H229	H	0.872503	-0.198910	0.904252
H230	H	1.372503	0.301090	1.404252
H231	H	0.944461	-0.205983	0.904577
H232	H	1.444461	0.294017	1.404577
H233	H	0.975644	-1.070010	0.232282
H234	H	1.475644	-0.570010	0.732282
C235	C	0.877180	-0.470880	0.889086
C236	C	1.377180	0.029120	1.389086
H237	H	0.878249	-0.461803	0.932397
H238	H	1.378249	0.038197	1.432397
H239	H	0.838170	-0.493353	0.879192
H240	H	1.338170	0.006647	1.379192
H241	H	0.910128	-0.500419	0.879505
H242	H	1.410128	-0.000419	1.379505
C243	C	0.980445	-0.243772	0.541296
C244	C	1.480445	0.256228	1.041296
H245	H	1.005339	-0.217003	0.569154
H246	H	1.505339	0.282997	1.069154
H247	H	1.006708	-0.270642	0.516809
H248	H	1.506708	0.229358	1.016809
H249	H	0.957653	-0.213180	0.514592
H250	H	1.457653	0.286820	1.014592
C251	C	0.798576	-0.595069	0.408818
C252	C	1.298576	-0.095069	0.908818
H253	H	0.806169	-0.546128	0.401223
H254	H	1.306169	-0.046128	0.901223
H255	H	0.756026	-0.607145	0.400060
H256	H	1.256026	-0.107145	0.900060
H257	H	0.807278	-0.607057	0.451387
H258	H	1.307278	-0.107057	0.951387
C259	C	0.908165	-0.205146	0.741586
C260	C	1.408165	0.294854	1.241586
H261	H	0.912555	-0.167443	0.769010
H262	H	1.412555	0.332557	1.269010
H263	H	0.944445	-0.206056	0.716118
H264	H	1.444445	0.293944	1.216118
H265	H	0.872486	-0.198996	0.715804
H266	H	1.372486	0.301004	1.215804
C267	C	0.980462	-0.243561	1.082332
C268	C	1.480462	0.256439	1.582332
H269	H	1.005363	-0.216823	1.052476
H270	H	1.505363	0.283177	1.552476
H271	H	0.957679	-0.212950	1.106676
H272	H	1.457679	0.287050	1.606676
H273	H	1.006726	-0.270421	1.108899
H274	H	1.506726	0.229579	1.608899
C275	C	0.804881	-0.432410	0.685748
C276	C	1.304881	0.067590	1.185748
H277	H	0.810875	-0.425966	0.729163
H278	H	1.310875	0.074034	1.229163
H279	H	0.763178	-0.422146	0.674606
H280	H	1.263178	0.077854	1.174606
H281	H	0.812236	-0.479604	0.676823
H282	H	1.312236	0.020396	1.176823
C283	C	0.877033	-0.470922	0.751678
C284	C	1.377033	0.029078	1.251678
H285	H	0.872604	-0.508597	0.781965
H286	H	1.372604	-0.008597	1.281965
H287	H	0.840719	-0.469927	0.726138
H288	H	1.340719	0.030073	1.226138
H289	H	0.912654	-0.477190	0.726367
H290	H	1.412654	0.022810	1.226367
C291	C	0.256208	-0.432581	0.402663
C292	C	0.756208	0.067419	0.902663
H293	H	0.226336	-0.459360	0.427517
H294	H	0.726336	0.040640	0.927517
H295	H	0.280517	-0.463152	0.379801
H296	H	0.780517	0.036848	0.879801
H297	H	0.282808	-0.405759	0.428978
H298	H	0.782808	0.094241	0.928978
C299	C	0.804873	-0.432463	0.548341
C300	C	1.304873	0.067537	1.048341
H301	H	0.779982	-0.459214	0.578197
H302	H	1.279982	0.040786	1.078197
H303	H	0.778608	-0.405618	0.521769
H304	H	1.278608	0.094382	1.021769
H305	H	0.827670	-0.463072	0.524003
H306	H	1.327670	0.036928	1.024003
H307	H	0.451974	-0.348381	0.417801
H308	H	0.951974	0.151619	0.917801
H309	H	0.128639	-0.419695	0.390795
H310	H	0.628639	0.080305	0.890795
H311	H	0.538455	-0.256558	0.239317
H312	H	1.038455	0.243442	0.739317
C313	C	0.125966	-0.243604	0.227547
C314	C	0.625966	0.256396	0.727547
H315	H	0.082066	-0.250037	0.233534
H316	H	0.582066	0.249963	0.733534
H317	H	0.138539	-0.196433	0.235002
H318	H	0.638539	0.303567	0.735002
H319	H	0.136241	-0.253813	0.185813
H320	H	0.636241	0.246187	0.685813
H321	H	0.944797	-0.825302	0.262970
H322	H	1.444797	-0.325302	0.762970
