data_functionalizedCrystal
_audit_creation_method	'MofGen! by Chris Wilmer'
_symmetry_space_group_name_H-M	'P1'
_symmetry_Int_Tables_number	1
_symmetry_cell_setting	triclinic
loop_
_symmetry_equiv_pos_as_xyz
  x,y,z
_cell_length_a	19.077068
_cell_length_b	11.169417
_cell_length_c	11.169409
_cell_angle_alpha	90.021683
_cell_angle_beta	92.259065
_cell_angle_gamma	87.674073
loop_
_atom_site_label
_atom_site_type_symbol
_atom_site_fract_x
_atom_site_fract_y
_atom_site_fract_z
Zn1	Zn	-0.280162	-1.815627	-0.697726
Zn2	Zn	-0.397882	-1.807392	-0.505079
Zn3	Zn	-0.280201	-1.614910	-0.497057
Zn4	Zn	-0.397821	-1.606800	-0.705713
O5	O	-0.339017	-1.711182	-0.601394
O6	O	-0.295788	-1.982484	-0.672186
O7	O	-0.382314	-1.781807	-0.336068
O8	O	-0.181706	-1.648376	-0.516976
O9	O	-0.382276	-1.976434	-0.530649
O10	O	-0.181677	-1.795842	-0.664407
O11	O	-0.295854	-1.640391	-0.330174
O12	O	-0.295794	-1.445885	-0.524721
O13	O	-0.382171	-1.634554	-0.872601
O14	O	-0.382209	-1.439927	-0.678020
O15	O	-0.295728	-1.787978	-0.866733
O16	O	-0.496365	-1.773943	-0.538393
O17	O	-0.496319	-1.626569	-0.685798
C18	C	-0.339000	-1.399359	-0.601367
C19	C	-0.339010	-1.265958	-0.601385
C20	C	-0.521879	-1.698515	-0.613859
C21	C	-0.600109	-1.693205	-0.619232
C22	C	-0.636861	-1.767500	-0.545074
C23	C	-0.710366	-1.762513	-0.550135
C24	C	-0.747117	-1.683225	-0.629348
C25	C	-0.710360	-1.608927	-0.703514
C26	C	-0.636856	-1.613921	-0.698459
C27	C	-0.966949	-1.660061	-0.652696
C28	C	-1.040458	-1.655071	-0.657743
C29	C	-1.040459	-1.808659	-0.504364
C30	C	-0.966954	-1.813641	-0.499311
C31	C	-0.930203	-1.739348	-0.573481
N32	N	-0.822251	-1.678123	-0.634520
N33	N	-0.855071	-1.744456	-0.568315
C34	C	-0.155440	-1.723932	-0.588906
C35	C	-0.077210	-1.729366	-0.583585
C36	C	-0.338939	-1.711280	-0.914431
C37	C	-0.338905	-1.711322	-1.047829
C38	C	-0.339028	-1.024224	-0.601412
C39	C	-0.339018	-1.157625	-0.601394
C40	C	-0.339044	-1.711158	-0.289571
C41	C	-0.338879	-1.711362	-0.156160
H42	H	-0.740287	-1.823011	-0.489746
C43	C	-0.596438	-1.854708	-0.457932
H44	H	-0.547398	-1.847034	-0.465530
H45	H	-0.608436	-1.934525	-0.476387
H46	H	-0.608537	-1.836348	-0.378108
C47	C	-0.926533	-1.900866	-0.412184
H48	H	-0.958950	-1.944408	-0.368749
H49	H	-0.897906	-1.856930	-0.357881
H50	H	-0.897814	-1.955089	-0.456178
C51	C	-1.080886	-1.567849	-0.744877
H52	H	-1.129926	-1.575507	-0.737249
H53	H	-1.068798	-1.586190	-0.824704
H54	H	-1.068885	-1.488031	-0.726407
H55	H	-0.740288	-1.544374	-0.768016
H56	H	-0.606933	-1.553423	-0.758848
H57	H	-1.070390	-1.869146	-0.443980
C58	C	-0.926532	-1.578321	-0.734259
H59	H	-0.958949	-1.530373	-0.782143
H60	H	-0.897807	-1.626139	-0.784626
H61	H	-0.897910	-1.527994	-0.686316
