data_functionalizedCrystal
_audit_creation_method	'MofGen! by Chris Wilmer'
_symmetry_space_group_name_H-M	'P1'
_symmetry_Int_Tables_number	1
_symmetry_cell_setting	triclinic
loop_
_symmetry_equiv_pos_as_xyz
  x,y,z
_cell_length_a	29.839134
_cell_length_b	29.839133
_cell_length_c	21.295411
_cell_angle_alpha	89.989633
_cell_angle_beta	90.034268
_cell_angle_gamma	89.971624
loop_
_atom_site_label
_atom_site_type_symbol
_atom_site_fract_x
_atom_site_fract_y
_atom_site_fract_z
Zn1	Zn	0.686799	0.178966	0.356124
Zn2	Zn	0.936799	0.428966	0.606124
Zn3	Zn	1.186799	0.678966	0.856124
Zn4	Zn	1.436799	0.928966	1.106124
Zn5	Zn	0.686725	0.254082	0.250870
Zn6	Zn	0.936725	0.504082	0.500870
Zn7	Zn	1.186725	0.754082	0.750870
Zn8	Zn	1.436725	1.004082	1.000870
Zn9	Zn	0.611665	0.178960	0.250851
Zn10	Zn	0.861665	0.428960	0.500851
Zn11	Zn	1.111665	0.678960	0.750851
Zn12	Zn	1.361665	0.928960	1.000851
Zn13	Zn	0.611640	0.254063	0.356084
Zn14	Zn	0.861640	0.504063	0.606084
Zn15	Zn	1.111640	0.754063	0.856084
Zn16	Zn	1.361640	1.004063	1.106084
O17	O	0.649207	0.216518	0.303482
O18	O	0.899207	0.466518	0.553482
O19	O	1.149207	0.716518	0.803482
O20	O	1.399207	0.966518	1.053482
O21	O	0.749656	0.188941	0.342186
O22	O	0.999656	0.438941	0.592186
O23	O	1.249656	0.688941	0.842186
O24	O	1.499656	0.938941	1.092186
O25	O	0.676748	0.244122	0.162778
O26	O	0.926748	0.494122	0.412778
O27	O	1.176748	0.744122	0.662778
O28	O	1.426748	0.994122	0.912778
O29	O	0.621674	0.116093	0.264824
O30	O	0.871674	0.366093	0.514824
O31	O	1.121674	0.616093	0.764824
O32	O	1.371674	0.866093	1.014824
O33	O	0.749602	0.244128	0.264857
O34	O	0.999602	0.494128	0.514857
O35	O	1.249602	0.744128	0.764857
O36	O	1.499602	0.994128	1.014857
O37	O	0.676874	0.116098	0.342168
O38	O	0.926874	0.366098	0.592168
O39	O	1.176874	0.616098	0.842168
O40	O	1.426874	0.866098	1.092168
O41	O	0.621602	0.188930	0.162764
O42	O	0.871602	0.438930	0.412764
O43	O	1.121602	0.688930	0.662764
O44	O	1.371602	0.938930	0.912764
O45	O	0.548795	0.188912	0.264786
O46	O	0.798795	0.438912	0.514786
O47	O	1.048795	0.688912	0.764786
O48	O	1.298795	0.938912	1.014786
O49	O	0.621630	0.244096	0.444178
O50	O	0.871630	0.494096	0.694178
O51	O	1.121630	0.744096	0.944178
O52	O	1.371630	0.994096	1.194178
O53	O	0.548776	0.244090	0.342100
O54	O	0.798776	0.494090	0.592100
O55	O	1.048776	0.744090	0.842100
O56	O	1.298776	0.994090	1.092100
O57	O	0.676849	0.188923	0.444208
O58	O	0.926849	0.438923	0.694208
O59	O	1.176849	0.688923	0.944208
O60	O	1.426849	0.938923	1.194208
O61	O	0.676723	0.316946	0.264818
O62	O	0.926723	0.566946	0.514818
O63	O	1.176723	0.816946	0.764818
O64	O	1.426723	1.066946	1.014818
O65	O	0.621558	0.316933	0.342118
O66	O	0.871558	0.566933	0.592118
O67	O	1.121558	0.816933	0.842118
O68	O	1.371558	1.066933	1.092118
C69	C	0.532485	0.216499	0.303437
C70	C	0.782485	0.466499	0.553437
C71	C	1.032485	0.716499	0.803437
C72	C	1.282485	0.966499	1.053437
C73	C	0.482550	0.216501	0.303432
C74	C	0.732550	0.466501	0.553432
C75	C	0.982550	0.716501	0.803432
C76	C	1.232550	0.966501	1.053432
C77	C	0.172907	0.245291	0.343690
C78	C	0.422907	0.495291	0.593690
C79	C	0.672907	0.745291	0.843690
C80	C	0.922907	0.995291	1.093690
C81	C	-0.014767	0.245304	0.343718
C82	C	0.235233	0.495304	0.593718
C83	C	0.485233	0.745304	0.843718
C84	C	0.735233	0.995304	1.093718
O85	O	-0.039032	0.269761	0.377920
O86	O	0.210968	0.519761	0.627920
O87	O	0.460968	0.769761	0.877920
O88	O	0.710968	1.019761	1.127920
N89	N	-0.038235	0.216534	0.303529
N90	N	0.211765	0.466534	0.553529
N91	N	0.461765	0.716534	0.803529
N92	N	0.711765	0.966534	1.053529
C93	C	-0.014782	0.187757	0.263334
C94	C	0.235218	0.437757	0.513334
C95	C	0.485218	0.687757	0.763334
C96	C	0.735218	0.937757	1.013334
O97	O	-0.039049	0.163283	0.229156
O98	O	0.210951	0.413283	0.479156
O99	O	0.460951	0.663283	0.729156
O100	O	0.710951	0.913283	0.979156
C101	C	0.172890	0.187742	0.263309
C102	C	0.422890	0.437742	0.513309
C103	C	0.672890	0.687742	0.763309
C104	C	0.922890	0.937742	1.013309
C105	C	0.196356	0.216517	0.303496
C106	C	0.446356	0.466517	0.553496
C107	C	0.696356	0.716517	0.803496
C108	C	0.946356	0.966517	1.053496
C109	C	0.196372	0.274064	0.383874
C110	C	0.446372	0.524064	0.633874
C111	C	0.696372	0.774064	0.883874
C112	C	0.946372	1.024064	1.133874
C113	C	0.243288	0.274062	0.383864
C114	C	0.493288	0.524062	0.633864
C115	C	0.743288	0.774062	0.883864
C116	C	0.993288	1.024062	1.133864
C117	C	0.266737	0.245288	0.343671
C118	C	0.516737	0.495288	0.593671
C119	C	0.766737	0.745288	0.843671
C120	C	1.016737	0.995288	1.093671
C121	C	0.243272	0.216516	0.303486
C122	C	0.493272	0.466516	0.553486
C123	C	0.743272	0.716516	0.803486
C124	C	0.993272	0.966516	1.053486
C125	C	0.196342	0.158963	0.223117
C126	C	0.446342	0.408963	0.473117
C127	C	0.696342	0.658963	0.723117
C128	C	0.946342	0.908963	0.973117
C129	C	0.243263	0.158961	0.223116
C130	C	0.493263	0.408961	0.473116
C131	C	0.743263	0.658961	0.723116
C132	C	0.993263	0.908961	0.973116
C133	C	0.266729	0.187736	0.263303
C134	C	0.516729	0.437736	0.513303
C135	C	0.766729	0.687736	0.763303
C136	C	1.016729	0.937736	1.013303
C137	C	0.313637	0.187740	0.263283
C138	C	0.563637	0.437740	0.513283
C139	C	0.813637	0.687740	0.763283
C140	C	1.063637	0.937740	1.013283
N141	N	0.337105	0.216510	0.303471
N142	N	0.587105	0.466510	0.553471
N143	N	0.837105	0.716510	0.803471
N144	N	1.087105	0.966510	1.053471
C145	C	0.313655	0.245284	0.343665
C146	C	0.563655	0.495284	0.593665
C147	C	0.813655	0.745284	0.843665
C148	C	1.063655	0.995284	1.093665
C149	C	-0.113312	0.187767	0.263349
C150	C	0.136688	0.437767	0.513349
C151	C	0.386688	0.687767	0.763349
C152	C	0.636688	0.937767	1.013349
C153	C	-0.160230	0.187771	0.263354
C154	C	0.089770	0.437771	0.513354
C155	C	0.339770	0.687771	0.763354
C156	C	0.589770	0.937771	1.013354
C157	C	-0.160212	0.245318	0.343739
C158	C	0.089788	0.495318	0.593739
C159	C	0.339788	0.745318	0.843739
C160	C	0.589788	0.995318	1.093739
C161	C	-0.113293	0.245316	0.343730
C162	C	0.136707	0.495316	0.593730
C163	C	0.386707	0.745316	0.843730
C164	C	0.636707	0.995316	1.093730
C165	C	-0.089844	0.216537	0.303537
C166	C	0.160156	0.466537	0.553537
C167	C	0.410156	0.716537	0.803537
C168	C	0.660156	0.966537	1.053537
C169	C	0.412181	0.245278	0.343641
C170	C	0.662181	0.495278	0.593641
C171	C	0.912181	0.745278	0.843641
C172	C	1.162181	0.995278	1.093641
C173	C	0.459101	0.245275	0.343626
C174	C	0.709101	0.495275	0.593626
C175	C	0.959101	0.745275	0.843626
C176	C	1.209101	0.995275	1.093626
C177	C	0.459078	0.187727	0.263243
C178	C	0.709078	0.437727	0.513243
C179	C	0.959078	0.687727	0.763243
C180	C	1.209078	0.937727	1.013243
C181	C	0.412163	0.187732	0.263256
C182	C	0.662163	0.437732	0.513256
C183	C	0.912163	0.687732	0.763256
C184	C	1.162163	0.937732	1.013256
C185	C	0.388715	0.216509	0.303460
C186	C	0.638715	0.466509	0.553460
C187	C	0.888715	0.716509	0.803460
C188	C	1.138715	0.966509	1.053460
O189	O	0.337931	0.163292	0.229104
O190	O	0.587931	0.413292	0.479104
O191	O	0.837931	0.663292	0.729104
O192	O	1.087931	0.913292	0.979104
O193	O	0.337931	0.269747	0.377848
O194	O	0.587931	0.519747	0.627848
O195	O	0.837931	0.769747	0.877848
O196	O	1.087931	1.019747	1.127848
C197	C	0.125991	0.245293	0.343700
C198	C	0.375991	0.495293	0.593700
C199	C	0.625991	0.745293	0.843700
C200	C	0.875991	0.995293	1.093700
C201	C	0.102525	0.216521	0.303516
C202	C	0.352525	0.466521	0.553516
C203	C	0.602525	0.716521	0.803516
C204	C	0.852525	0.966521	1.053516
C205	C	0.125975	0.187747	0.263322
C206	C	0.375975	0.437747	0.513322
C207	C	0.625975	0.687747	0.763322
C208	C	0.875975	0.937747	1.013322
C209	C	0.055607	0.216525	0.303521
C210	C	0.305607	0.466525	0.553521
C211	C	0.555607	0.716525	0.803521
C212	C	0.805607	0.966525	1.053521
C213	C	0.032158	0.245299	0.343715
C214	C	0.282158	0.495299	0.593715
C215	C	0.532158	0.745299	0.843715
C216	C	0.782158	0.995299	1.093715
C217	C	0.055626	0.274069	0.383904
C218	C	0.305626	0.524069	0.633904
C219	C	0.555626	0.774069	0.883904
C220	C	0.805626	1.024069	1.133904
C221	C	0.102541	0.274067	0.383894
C222	C	0.352541	0.524067	0.633894
C223	C	0.602541	0.774067	0.883894
C224	C	0.852541	1.024067	1.133894
C225	C	0.102507	0.158977	0.223133
C226	C	0.352507	0.408977	0.473133
C227	C	0.602507	0.658977	0.723133
C228	C	0.852507	0.908977	0.973133
C229	C	0.055591	0.158981	0.223146
C230	C	0.305591	0.408981	0.473146
C231	C	0.555591	0.658981	0.723146
C232	C	0.805591	0.908981	0.973146
C233	C	0.032141	0.187755	0.263340
C234	C	0.282141	0.437755	0.513340
C235	C	0.532141	0.687755	0.763340
C236	C	0.782141	0.937755	1.013340
C237	C	0.649142	0.333240	0.303479
C238	C	0.899142	0.583240	0.553479
C239	C	1.149142	0.833240	0.803479
C240	C	1.399142	1.083240	1.053479
C241	C	0.649156	0.383175	0.303499
C242	C	0.899156	0.633175	0.553499
C243	C	1.149156	0.883175	0.803499
C244	C	1.399156	1.133175	1.053499
C245	C	0.677931	0.739729	0.343797
C246	C	0.927931	0.989729	0.593797
C247	C	1.177931	1.239729	0.843797
C248	C	1.427931	1.489729	1.093797
C249	C	0.677901	0.552056	0.343798
C250	C	0.927901	0.802056	0.593798
C251	C	1.177901	1.052056	0.843798
C252	C	1.427901	1.302056	1.093798
O253	O	0.702331	0.527764	0.378054
O254	O	0.952331	0.777764	0.628054
O255	O	1.202331	1.027764	0.878054
O256	O	1.452331	1.277764	1.128054
N257	N	0.649181	0.528620	0.303497
N258	N	0.899181	0.778620	0.553497
N259	N	1.149181	1.028620	0.803497
N260	N	1.399181	1.278620	1.053497
C261	C	0.620469	0.552104	0.263190
C262	C	0.870469	0.802104	0.513190
C263	C	1.120469	1.052104	0.763190
C264	C	1.370469	1.302104	1.013190
O265	O	0.596043	0.527864	0.228907
O266	O	0.846043	0.777864	0.478907
O267	O	1.096043	1.027864	0.728907
O268	O	1.346043	1.277864	0.978907
C269	C	0.620501	0.739777	0.263186
C270	C	0.870501	0.989777	0.513186
C271	C	1.120501	1.239777	0.763186
C272	C	1.370501	1.489777	1.013186
C273	C	0.649220	0.763211	0.303495
C274	C	0.899220	1.013211	0.553495
C275	C	1.149220	1.263211	0.803495
C276	C	1.399220	1.513211	1.053495
C277	C	0.706647	0.763163	0.384102
C278	C	0.956647	1.013163	0.634102
C279	C	1.206647	1.263163	0.884102
C280	C	1.456647	1.513163	1.134102
C281	C	0.706653	0.810079	0.384103
C282	C	0.956653	1.060079	0.634103
C283	C	1.206653	1.310079	0.884103
C284	C	1.456653	1.560079	1.134103
C285	C	0.677942	0.833560	0.343801
C286	C	0.927942	1.083560	0.593801
C287	C	1.177942	1.333560	0.843801
C288	C	1.427942	1.583560	1.093801
C289	C	0.649225	0.810126	0.303497
C290	C	0.899225	1.060126	0.553497
C291	C	1.149225	1.310126	0.803497
C292	C	1.399225	1.560126	1.053497
C293	C	0.591791	0.763260	0.222877
C294	C	0.841791	1.013260	0.472877
C295	C	1.091791	1.263260	0.722877
C296	C	1.341791	1.513260	0.972877
C297	C	0.591803	0.810181	0.222878
C298	C	0.841803	1.060181	0.472878
C299	C	1.091803	1.310181	0.722878
C300	C	1.341803	1.560181	0.972878
C301	C	0.620521	0.833615	0.263187
C302	C	0.870521	1.083615	0.513187
C303	C	1.120521	1.333615	0.763187
C304	C	1.370521	1.583615	1.013187
C305	C	0.620519	0.880523	0.263196
C306	C	0.870519	1.130523	0.513196
C307	C	1.120519	1.380523	0.763196
C308	C	1.370519	1.630523	1.013196
N309	N	0.649239	0.903959	0.303497
N310	N	0.899239	1.153959	0.553497
N311	N	1.149239	1.403959	0.803497
N312	N	1.399239	1.653959	1.053497
C313	C	0.677950	0.880478	0.343799
C314	C	0.927950	1.130478	0.593799
C315	C	1.177950	1.380478	0.843799
C316	C	1.427950	1.630478	1.093799
C317	C	0.620453	0.453574	0.263195
C318	C	0.870453	0.703574	0.513195
C319	C	1.120453	0.953574	0.763195
C320	C	1.370453	1.203574	1.013195
C321	C	0.620444	0.406656	0.263197
C322	C	0.870444	0.656656	0.513197
C323	C	1.120444	0.906656	0.763197
C324	C	1.370444	1.156656	1.013197
C325	C	0.677878	0.406611	0.343804
C326	C	0.927878	0.656611	0.593804
C327	C	1.177878	0.906611	0.843804
C328	C	1.427878	1.156611	1.093804
C329	C	0.677884	0.453530	0.343805
C330	C	0.927884	0.703530	0.593805
C331	C	1.177884	0.953530	0.843805
C332	C	1.427884	1.203530	1.093805
C333	C	0.649173	0.477010	0.303496
C334	C	0.899173	0.727010	0.553496
C335	C	1.149173	0.977010	0.803496
C336	C	1.399173	1.227010	1.053496
C337	C	0.677959	0.979004	0.343801
C338	C	0.927959	1.229004	0.593801
C339	C	1.177959	1.479004	0.843801
C340	C	1.427959	1.729004	1.093801
C341	C	0.677961	1.025923	0.343801
C342	C	0.927961	1.275923	0.593801
C343	C	1.177961	1.525923	0.843801
C344	C	1.427961	1.775923	1.093801
C345	C	0.620530	1.025964	0.263191
C346	C	0.870530	1.275964	0.513191
C347	C	1.120530	1.525964	0.763191
C348	C	1.370530	1.775964	1.013191
C349	C	0.620526	0.979049	0.263193
C350	C	0.870526	1.229049	0.513193
C351	C	1.120526	1.479049	0.763193
C352	C	1.370526	1.729049	1.013193
C353	C	0.649245	0.955570	0.303500
C354	C	0.899245	1.205570	0.553500
C355	C	1.149245	1.455570	0.803500
C356	C	1.399245	1.705570	1.053500
O357	O	0.596106	0.904844	0.228953
O358	O	0.846106	1.154844	0.478953
O359	O	1.096106	1.404844	0.728953
O360	O	1.346106	1.654844	0.978953
O361	O	0.702379	0.904726	0.378067
O362	O	0.952379	1.154726	0.628067
O363	O	1.202379	1.404726	0.878067
O364	O	1.452379	1.654726	1.128067
C365	C	0.677925	0.692814	0.343795
C366	C	0.927925	0.942814	0.593795
C367	C	1.177925	1.192814	0.843795
C368	C	1.427925	1.442814	1.093795
C369	C	0.649209	0.669380	0.303491
C370	C	0.899209	0.919380	0.553491
C371	C	1.149209	1.169380	0.803491
C372	C	1.399209	1.419380	1.053491
C373	C	0.620498	0.692861	0.263188
C374	C	0.870498	0.942861	0.513188
C375	C	1.120498	1.192861	0.763188
C376	C	1.370498	1.442861	1.013188
C377	C	0.649200	0.622462	0.303492
C378	C	0.899200	0.872462	0.553492
C379	C	1.149200	1.122462	0.803492
C380	C	1.399200	1.372462	1.053492
C381	C	0.677911	0.598980	0.343795
C382	C	0.927911	0.848980	0.593795
C383	C	1.177911	1.098980	0.843795
C384	C	1.427911	1.348980	1.093795
C385	C	0.706631	0.622417	0.384096
C386	C	0.956631	0.872417	0.634096
C387	C	1.206631	1.122417	0.884096
C388	C	1.456631	1.372417	1.134096
C389	C	0.706637	0.669332	0.384098
C390	C	0.956637	0.919332	0.634098
C391	C	1.206637	1.169332	0.884098
C392	C	1.456637	1.419332	1.134098
C393	C	0.591778	0.669425	0.222887
C394	C	0.841778	0.919425	0.472887
C395	C	1.091778	1.169425	0.722887
C396	C	1.341778	1.419425	0.972887
C397	C	0.591774	0.622509	0.222889
C398	C	0.841774	0.872509	0.472889
C399	C	1.091774	1.122509	0.722889
C400	C	1.341774	1.372509	0.972889
C401	C	0.620485	0.599028	0.263192
C402	C	0.870485	0.849028	0.513192
C403	C	1.120485	1.099028	0.763192
C404	C	1.370485	1.349028	1.013192
C405	C	0.766386	0.216537	0.303528
C406	C	1.016386	0.466537	0.553528
C407	C	1.266386	0.716537	0.803528
C408	C	1.516386	0.966537	1.053528
C409	C	0.816320	0.216545	0.303548
C410	C	1.066320	0.466545	0.553548
C411	C	1.316320	0.716545	0.803548
C412	C	1.566320	0.966545	1.053548
C413	C	0.649245	0.216508	0.467672
C414	C	0.899245	0.466508	0.717672
C415	C	1.149245	0.716508	0.967672
C416	C	1.399245	0.966508	1.217672
C417	C	0.649260	0.216504	0.537641
C418	C	0.899260	0.466504	0.787641
C419	C	1.149260	0.716504	1.037641
C420	C	1.399260	0.966504	1.287641
C421	C	0.649268	1.099339	0.303497
C422	C	0.899268	1.349339	0.553497
C423	C	1.149268	1.599339	0.803497
C424	C	1.399268	1.849339	1.053497
C425	C	0.649250	1.049405	0.303498
C426	C	0.899250	1.299405	0.553498
C427	C	1.149250	1.549405	0.803498
C428	C	1.399250	1.799405	1.053498
C429	C	0.649196	0.216495	0.139931
C430	C	0.899196	0.466495	0.389931
C431	C	1.149196	0.716495	0.639931
C432	C	1.399196	0.966495	0.889931
C433	C	0.649267	0.216372	0.069963
C434	C	0.899267	0.466372	0.319963
C435	C	1.149267	0.716372	0.569963
C436	C	1.399267	0.966372	0.819963
C437	C	0.678012	0.187774	0.570524
C438	C	0.928012	0.437774	0.820524
C439	C	1.178012	0.687774	1.070524
C440	C	1.428012	0.937774	1.320524
C441	C	0.678011	0.187754	0.636266
C442	C	0.928011	0.437754	0.886266
C443	C	1.178011	0.687754	1.136266
C444	C	1.428011	0.937754	1.386266
C445	C	0.649264	0.216473	0.669123
C446	C	0.899264	0.466473	0.919123
C447	C	1.149264	0.716473	1.169123
C448	C	1.399264	0.966473	1.419123
C449	C	0.620507	0.245205	0.636232
C450	C	0.870507	0.495205	0.886232
C451	C	1.120507	0.745205	1.136232
C452	C	1.370507	0.995205	1.386232
C453	C	0.620505	0.245221	0.570491
C454	C	0.870505	0.495221	0.820491
C455	C	1.120505	0.745221	1.070491
C456	C	1.370505	0.995221	1.320491
N457	N	0.645796	0.255773	0.772349
N458	N	0.895796	0.505773	1.022349
N459	N	1.145796	0.755773	1.272349
N460	N	1.395796	1.005773	1.522349
N461	N	0.645800	0.255757	0.834800
N462	N	0.895800	0.505757	1.084800
N463	N	1.145800	0.755757	1.334800
N464	N	1.395800	1.005757	1.584800
C465	C	0.649267	0.216428	0.867198
C466	C	0.899267	0.466428	1.117198
C467	C	1.149267	0.716428	1.367198
C468	C	1.399267	0.966428	1.617198
N469	N	0.652738	0.177114	0.834785
N470	N	0.902738	0.427114	1.084785
N471	N	1.152738	0.677114	1.334785
N472	N	1.402738	0.927114	1.584785
N473	N	0.652736	0.177130	0.772328
N474	N	0.902736	0.427130	1.022328
N475	N	1.152736	0.677130	1.272328
N476	N	1.402736	0.927130	1.522328
C477	C	0.649262	0.216459	0.740409
C478	C	0.899262	0.466459	0.990409
C479	C	1.149262	0.716459	1.240409
C480	C	1.399262	0.966459	1.490409
C481	C	0.678019	0.187674	0.971366
C482	C	0.928019	0.437674	1.221366
C483	C	1.178019	0.687674	1.471366
C484	C	1.428019	0.937674	1.721366
C485	C	0.678015	0.187654	1.037110
C486	C	0.928015	0.437654	1.287110
C487	C	1.178015	0.687654	1.537110
C488	C	1.428015	0.937654	1.787110
C489	C	0.620513	0.245108	1.037075
C490	C	0.870513	0.495108	1.287075
C491	C	1.120513	0.745108	1.537075
C492	C	1.370513	0.995108	1.787075
C493	C	0.620515	0.245125	0.971333
C494	C	0.870515	0.495125	1.221333
C495	C	1.120515	0.745125	1.471333
C496	C	1.370515	0.995125	1.721333
C497	C	0.649270	0.216408	0.938482
C498	C	0.899270	0.466408	1.188482
C499	C	1.149270	0.716408	1.438482
C500	C	1.399270	0.966408	1.688482
H501	H	0.478204	0.268709	0.376352
H502	H	0.728204	0.518709	0.626352
H503	H	0.978204	0.768709	0.876352
H504	H	1.228204	1.018709	1.126352
Br505	Br	0.164557	0.313119	0.438431
Br506	Br	0.414557	0.563119	0.688431
Br507	Br	0.664557	0.813119	0.938431
Br508	Br	0.914557	1.063119	1.188431
Br509	Br	0.581549	0.947244	0.208491
Br510	Br	0.831549	1.197244	0.458491
Br511	Br	1.081549	1.447244	0.708491
Br512	Br	1.331549	1.697244	0.958491
Br513	Br	0.717022	0.148750	0.680903
Br514	Br	0.967022	0.398750	0.930903
Br515	Br	1.217022	0.648750	1.180903
Br516	Br	1.467022	0.898750	1.430903
Br517	Br	0.581482	0.284214	0.525861
Br518	Br	0.831482	0.534214	0.775861
Br519	Br	1.081482	0.784214	1.025861
Br520	Br	1.331482	1.034214	1.275861
H521	H	0.701426	0.164390	0.543781
H522	H	0.951426	0.414390	0.793781
H523	H	1.201426	0.664390	1.043781
H524	H	1.451426	0.914390	1.293781
Br525	Br	0.023792	0.313122	0.438448
Br526	Br	0.273792	0.563122	0.688448
Br527	Br	0.523792	0.813122	0.938448
Br528	Br	0.773792	1.063122	1.188448
Br529	Br	-0.081496	0.148706	0.208797
Br530	Br	0.168504	0.398706	0.458797
Br531	Br	0.418504	0.648706	0.708797
Br532	Br	0.668504	0.898706	0.958797
Br533	Br	0.717041	0.148701	0.926780
Br534	Br	0.967041	0.398701	1.176780
Br535	Br	1.217041	0.648701	1.426780
Br536	Br	1.467041	0.898701	1.676780
H537	H	-0.094190	0.268746	0.376455
H538	H	0.155810	0.518746	0.626455
H539	H	0.405810	0.768746	0.876455
H540	H	0.655810	1.018746	1.126455
H541	H	0.478179	0.164301	0.230517
H542	H	0.728179	0.414301	0.480517
H543	H	0.978179	0.664301	0.730517
H544	H	1.228179	0.914301	0.980517
Br545	Br	0.023751	0.119928	0.168598
Br546	Br	0.273751	0.369928	0.418598
Br547	Br	0.523751	0.619928	0.668598
Br548	Br	0.773751	0.869928	0.918598
H549	H	0.701427	0.164256	1.063882
H550	H	0.951427	0.414256	1.313882
H551	H	1.201427	0.664256	1.563882
H552	H	1.451427	0.914256	1.813882
H553	H	0.177245	0.135533	0.190391
H554	H	0.427245	0.385533	0.440391
H555	H	0.677245	0.635533	0.690391
H556	H	0.927245	0.885533	0.940391
H557	H	0.121595	0.135545	0.190402
H558	H	0.371595	0.385545	0.440402
H559	H	0.621595	0.635545	0.690402
H560	H	0.871595	0.885545	0.940402
H561	H	0.568423	0.829297	0.190053
H562	H	0.818423	1.079297	0.440053
H563	H	1.068423	1.329297	0.690053
H564	H	1.318423	1.579297	0.940053
H565	H	0.393096	0.268710	0.376381
H566	H	0.643096	0.518710	0.626381
H567	H	0.893096	0.768710	0.876381
H568	H	1.143096	1.018710	1.126381
H569	H	0.701346	1.045001	0.376628
H570	H	0.951346	1.295001	0.626628
H571	H	1.201346	1.545001	0.876628
H572	H	1.451346	1.795001	1.126628
H573	H	0.262353	0.135523	0.190389
H574	H	0.512353	0.385523	0.440389
H575	H	0.762353	0.635523	0.690389
H576	H	1.012353	0.885523	0.940389
Br577	Br	0.380315	0.148688	0.208704
Br578	Br	0.630315	0.398688	0.458704
Br579	Br	0.880315	0.648688	0.708704
Br580	Br	1.130315	0.898688	0.958704
H581	H	0.730022	0.688408	0.416921
H582	H	0.980022	0.938408	0.666921
H583	H	1.230022	1.188408	0.916921
H584	H	1.480022	1.438408	1.166921
Br585	Br	0.581493	0.284079	1.081660
Br586	Br	0.831493	0.534079	1.331660
Br587	Br	1.081493	0.784079	1.581660
Br588	Br	1.331493	1.034079	1.831660
H589	H	0.597105	0.268523	0.944559
H590	H	0.847105	0.518523	1.194559
H591	H	1.097105	0.768523	1.444559
H592	H	1.347105	1.018523	1.694559
Br593	Br	0.716935	0.947147	0.398503
Br594	Br	0.966935	1.197147	0.648503
Br595	Br	1.216935	1.447147	0.898503
Br596	Br	1.466935	1.697147	1.148503
H597	H	0.262390	0.297493	0.416590
H598	H	0.512390	0.547493	0.666590
H599	H	0.762390	0.797493	0.916590
H600	H	1.012390	1.047493	1.166590
Br601	Br	0.745628	0.841875	0.438813
Br602	Br	0.995628	1.091875	0.688813
Br603	Br	1.245628	1.341875	0.938813
Br604	Br	1.495628	1.591875	1.188813
H605	H	0.730030	0.744049	0.416920
H606	H	0.980030	0.994049	0.666920
H607	H	1.230030	1.244049	0.916920
H608	H	1.480030	1.494049	1.166920
H609	H	0.568384	0.603432	0.190067
H610	H	0.818384	0.853432	0.440067
H611	H	1.068384	1.103432	0.690067
H612	H	1.318384	1.353432	0.940067
H613	H	-0.179312	0.268747	0.376467
H614	H	0.070688	0.518747	0.626467
H615	H	0.320688	0.768747	0.876467
H616	H	0.570688	1.018747	1.126467
H617	H	0.701267	0.472607	0.376631
H618	H	0.951267	0.722607	0.626631
H619	H	1.201267	0.972607	0.876631
H620	H	1.451267	1.222607	1.126631
H621	H	0.701255	0.387485	0.376621
H622	H	0.951255	0.637485	0.626621
H623	H	1.201255	0.887485	0.876621
H624	H	1.451255	1.137485	1.126621
Br625	Br	0.581562	1.057841	0.208504
Br626	Br	0.831562	1.307841	0.458504
Br627	Br	1.081562	1.557841	0.708504
Br628	Br	1.331562	1.807841	0.958504
H629	H	-0.179332	0.164344	0.230623
H630	H	0.070668	0.414344	0.480623
H631	H	0.320668	0.664344	0.730623
H632	H	0.570668	0.914344	0.980623
H633	H	0.121643	0.297498	0.416618
H634	H	0.371643	0.547498	0.666618
H635	H	0.621643	0.797498	0.916618
H636	H	0.871643	1.047498	1.166618
H637	H	0.597054	0.387579	0.230381
H638	H	0.847054	0.637579	0.480381
H639	H	1.097054	0.887579	0.730381
H640	H	1.347054	1.137579	0.980381
Br641	Br	0.581483	0.485434	0.208486
Br642	Br	0.831483	0.735434	0.458486
Br643	Br	1.081483	0.985434	0.708486
Br644	Br	1.331483	1.235434	0.958486
H645	H	0.568406	0.744187	0.190054
H646	H	0.818406	0.994187	0.440054
H647	H	1.068406	1.244187	0.690054
H648	H	1.318406	1.494187	0.940054
H649	H	0.730007	0.603291	0.416914
H650	H	0.980007	0.853291	0.666914
H651	H	1.230007	1.103291	0.916914
H652	H	1.480007	1.353291	1.166914
Br653	Br	0.552808	0.701285	0.168186
Br654	Br	0.802808	0.951285	0.418186
Br655	Br	1.052808	1.201285	0.668186
Br656	Br	1.302808	1.451285	0.918186
Br657	Br	0.581489	0.284178	0.680822
Br658	Br	0.831489	0.534178	0.930822
Br659	Br	1.081489	0.784178	1.180822
Br660	Br	1.331489	1.034178	1.430822
