data_functionalizedCrystal
_audit_creation_method	'MofGen! by Chris Wilmer'
_symmetry_space_group_name_H-M	'P1'
_symmetry_Int_Tables_number	1
_symmetry_cell_setting	triclinic
loop_
_symmetry_equiv_pos_as_xyz
  x,y,z
_cell_length_a	19.319731
_cell_length_b	19.318970
_cell_length_c	19.315557
_cell_angle_alpha	60.007379
_cell_angle_beta	60.014690
_cell_angle_gamma	59.991495
loop_
_atom_site_label
_atom_site_type_symbol
_atom_site_fract_x
_atom_site_fract_y
_atom_site_fract_z
O1	O	0.095954	-1.011347	0.845684
O2	O	0.036156	-0.787405	0.681392
O3	O	0.177960	-0.929104	0.681276
O4	O	-0.045850	-0.869648	0.845799
O5	O	0.225008	-0.882072	0.728208
O6	O	0.083204	-0.740373	0.728324
O7	O	0.143002	-0.964315	0.892616
Cu8	Cu	0.117399	-0.848050	0.814755
Cu9	Cu	0.061759	-0.903670	0.759252
O10	O	0.001198	-0.822616	0.892732
N11	N	0.156535	-0.808935	0.853797
N12	N	0.022631	-0.942793	0.720211
C13	C	0.182113	-0.653200	0.879374
C14	C	0.182221	-0.783395	1.009518
C15	C	0.312319	-0.783375	0.879314
C16	C	0.182127	-0.783371	0.879357
C17	C	0.214696	-0.750836	0.911890
C18	C	-0.132988	-0.968144	0.694232
C19	C	-0.002674	-0.968326	0.564242
C20	C	-0.002907	-1.098444	0.694459
C21	C	-0.002887	-0.968321	0.694542
C22	C	-0.035363	-1.000810	0.661869
N23	N	0.389025	-0.808944	0.853717
O24	O	0.660019	-0.816766	0.651282
O25	O	0.660312	-0.981573	0.874999
O26	O	0.660193	-0.981192	0.733108
O27	O	0.660138	-0.817147	0.793174
O28	O	0.519202	-0.934278	0.780210
O29	O	0.519321	-0.934658	0.922102
O30	O	0.519028	-0.769852	0.698384
Cu31	Cu	0.506300	-0.847971	0.814544
Cu32	Cu	0.673039	-0.903453	0.758840
O33	O	0.519147	-0.770232	0.840276
N34	N	0.790314	-0.942480	0.719658
N35	N	0.156514	-0.576494	0.853827
O36	O	-0.045823	-0.305328	0.845846
O37	O	0.177892	-0.305317	0.681053
O38	O	0.035967	-0.305340	0.681465
O39	O	0.096102	-0.305306	0.845434
O40	O	0.083020	-0.446347	0.728459
O41	O	0.224945	-0.446325	0.728047
O42	O	0.001230	-0.446335	0.892839
Cu43	Cu	0.117383	-0.459205	0.814734
Cu44	Cu	0.061738	-0.292448	0.759159
O45	O	0.143154	-0.446313	0.892428
N46	N	0.022597	-0.175159	0.720067
N47	N	0.156703	-0.808977	1.086224
O48	O	0.148753	-1.011298	1.357359
O49	O	-0.016009	-0.787491	1.357400
O50	O	-0.015627	-0.929387	1.357339
O51	O	0.148372	-0.869401	1.357420
O52	O	0.031342	-0.882367	1.216340
O53	O	0.030961	-0.740471	1.216400
O54	O	0.195723	-0.964278	1.216360
Cu55	Cu	0.117631	-0.848081	1.203506
Cu56	Cu	0.062083	-0.903688	1.370254
O57	O	0.195341	-0.822381	1.216420
N58	N	0.023010	-0.942801	1.487536
C59	C	0.054075	-0.735670	0.682223
C60	C	0.229681	-0.911148	0.682079
C61	C	0.125082	-1.016051	0.891784
C62	C	-0.050524	-0.840572	0.891928
C63	C	0.589851	-0.980810	0.926735
C64	C	0.589706	-0.980340	0.751019
C65	C	0.589484	-0.770613	0.646650
C66	C	0.589634	-0.771085	0.822364
C67	C	0.229543	-0.375646	0.681799
C68	C	0.053845	-0.375847	0.682366
C69	C	-0.050480	-0.375832	0.892036
C70	C	0.125277	-0.375807	0.891527
C71	C	-0.015214	-0.735785	1.286905
C72	C	-0.014732	-0.911497	1.286802
C73	C	0.194928	-1.015984	1.286855
C74	C	0.194457	-0.840261	1.286926
H75	H	0.293962	-0.923825	0.630414
C76	C	0.589959	-1.050711	1.013534
C77	C	0.590002	-1.033770	1.083403
C78	C	0.590110	-1.103671	1.170201
C79	C	0.590176	-1.190512	1.187130
C80	C	0.590133	-1.207457	1.117259
C81	C	0.590025	-1.137556	1.030461
H82	H	0.589954	-0.969481	1.070872
H83	H	0.590142	-1.091127	1.221924
H84	H	0.590256	-1.242257	1.251384
H85	H	0.590181	-1.271746	1.129790
H86	H	0.589993	-1.150101	0.978738
C87	C	0.589734	-1.049964	0.733660
C88	C	0.516585	-1.086499	0.788568
C89	C	0.516613	-1.156123	0.771209
C90	C	0.589790	-1.189212	0.698943
C91	C	0.662945	-1.152676	0.644030
C92	C	0.662917	-1.083052	0.661389
H93	H	0.462410	-1.062005	0.842068
H94	H	0.462458	-1.183169	0.811860
H95	H	0.589811	-1.240752	0.686093
H96	H	0.717121	-1.177170	0.590530
H97	H	0.717072	-1.056007	0.620738
C98	C	0.589609	-0.701462	0.839722
C99	C	0.516432	-0.668372	0.911989
C100	C	0.516407	-0.598749	0.929347
C101	C	0.589558	-0.562216	0.874438
C102	C	0.662740	-0.595305	0.802167
C103	C	0.662765	-0.664928	0.784809
H104	H	0.462277	-0.695416	0.952640
H105	H	0.462233	-0.574254	0.982847
H106	H	0.589539	-0.510676	0.887288
H107	H	0.716895	-0.568261	0.761516
H108	H	0.716939	-0.689423	0.731309
C109	C	0.142666	-0.375799	0.961123
C110	C	0.073103	-0.375800	1.048090
C111	C	0.090491	-0.375792	1.117686
C112	C	0.177443	-0.375783	1.100314
C113	C	0.247011	-0.375783	1.013343
C114	C	0.229623	-0.375791	0.943747
H115	H	0.008731	-0.375806	1.060953
H116	H	0.038991	-0.375792	1.182067
H117	H	0.190314	-0.375778	1.151833
H118	H	0.311383	-0.375777	1.000481
H119	H	0.281123	-0.375790	0.879366
H120	H	-0.066941	-0.671507	1.286916
C121	C	-0.084309	-0.928794	1.286686
C122	C	-0.066940	-1.015727	1.286613
C123	C	-0.136517	-1.033025	1.286497
C124	C	-0.223463	-0.963388	1.286456
C125	C	-0.240837	-0.876449	1.286529
C126	C	-0.171260	-0.859152	1.286645
H127	H	-0.002573	-1.067282	1.286644
H128	H	-0.123655	-1.097383	1.286443
H129	H	-0.274968	-0.976193	1.286370
H130	H	-0.305204	-0.824895	1.286499
H131	H	-0.184122	-0.794793	1.286699
C132	C	0.316155	-0.375108	0.611725
C133	C	0.371005	-0.448064	0.574871
C134	C	0.457617	-0.447526	0.504797
C135	C	0.489380	-0.374030	0.471578
C136	C	0.434530	-0.301068	0.508433
C137	C	0.347918	-0.301607	0.578507
H138	H	0.347493	-0.502475	0.599461
H139	H	0.498221	-0.501538	0.477515
H140	H	0.553496	-0.373632	0.419706
H141	H	0.458042	-0.246657	0.483843
H142	H	0.307314	-0.247595	0.605789
C143	C	0.036458	-0.375859	0.612772
C144	C	-0.050493	-0.375869	0.630143
C145	C	-0.067880	-0.375881	0.560549
C146	C	0.001683	-0.375882	0.473582
C147	C	0.088640	-0.375871	0.456206
C148	C	0.106027	-0.375860	0.525801
H149	H	-0.101994	-0.375868	0.694525
H150	H	-0.132252	-0.375888	0.573412
H151	H	-0.011188	-0.375890	0.422064
H152	H	0.140141	-0.375872	0.391825
H153	H	0.170399	-0.375852	0.512938
H154	H	-0.114808	-0.827900	0.943589
C155	C	0.264814	-1.102817	1.286840
C156	C	0.247880	-1.172678	1.286804
C157	C	0.317766	-1.259510	1.286790
C158	C	0.404585	-1.276482	1.286812
C159	C	0.421522	-1.206619	1.286848
C160	C	0.351637	-1.119786	1.286862
H161	H	0.183608	-1.160116	1.286788
H162	H	0.305227	-1.311227	1.286764
H163	H	0.456318	-1.340761	1.286801
H164	H	0.485795	-1.219181	1.286864
H165	H	0.364176	-1.068069	1.286889
C166	C	0.589362	-0.700707	0.559856
C167	C	0.589312	-0.717646	0.489989
C168	C	0.589191	-0.647741	0.403196
C169	C	0.589119	-0.560897	0.386269
C170	C	0.589168	-0.543954	0.456137
C171	C	0.589290	-0.613860	0.542931
H172	H	0.589366	-0.781936	0.502518
H173	H	0.589154	-0.660283	0.351474
H174	H	0.589028	-0.509149	0.322019
H175	H	0.589115	-0.479664	0.443609
H176	H	0.589327	-0.601317	0.594652
C177	C	0.264066	-0.822932	1.286945
C178	C	0.248408	-0.799540	1.360180
C179	C	0.318017	-0.782210	1.360199
C180	C	0.403284	-0.788273	1.286983
C181	C	0.418946	-0.811667	1.213743
C182	C	0.349337	-0.828996	1.213724
H183	H	0.185285	-0.795050	1.414383
H184	H	0.306422	-0.764893	1.414416
H185	H	0.454813	-0.775445	1.286997
H186	H	0.482070	-0.816156	1.159539
H187	H	0.360932	-0.846314	1.159506
C188	C	-0.137273	-0.375833	0.961931
C189	C	-0.207163	-0.375845	0.945013
C190	C	-0.293956	-0.375846	1.014909
C191	C	-0.310859	-0.375835	1.101722
C192	C	-0.240968	-0.375822	1.118643
C193	C	-0.154175	-0.375821	1.048748
H194	H	-0.194652	-0.375854	0.880746
H195	H	-0.345694	-0.375855	1.002382
H196	H	-0.375109	-0.375835	1.153463
H197	H	-0.253479	-0.375814	1.182911
H198	H	-0.102436	-0.375812	1.061275
H199	H	0.137858	-1.080380	0.943384
H200	H	0.041301	-0.671339	0.630625
