data_functionalizedCrystal
_audit_creation_method	'MofGen! by Chris Wilmer'
_symmetry_space_group_name_H-M	'P1'
_symmetry_Int_Tables_number	1
_symmetry_cell_setting	triclinic
loop_
_symmetry_equiv_pos_as_xyz
  x,y,z
_cell_length_a	27.732048
_cell_length_b	14.044220
_cell_length_c	13.101039
_cell_angle_alpha	86.332523
_cell_angle_beta	86.675896
_cell_angle_gamma	92.084234
loop_
_atom_site_label
_atom_site_type_symbol
_atom_site_fract_x
_atom_site_fract_y
_atom_site_fract_z
O1	O	0.648645	-0.107455	-0.085084
O2	O	1.148645	0.392545	0.414916
O3	O	0.508657	-0.124591	-0.085115
O4	O	1.008657	0.375409	0.414885
O5	O	0.576549	0.021930	-0.085090
O6	O	1.076549	0.521930	0.414910
O7	O	0.580752	-0.253976	-0.085109
O8	O	1.080752	0.246024	0.414891
O9	O	0.571679	0.011400	0.085338
O10	O	1.071679	0.511400	0.585338
O11	O	0.503786	-0.135121	0.085313
O12	O	1.003786	0.364879	0.585313
O13	O	0.643774	-0.117985	0.085344
O14	O	1.143774	0.382015	0.585344
Zn15	Zn	0.573007	-0.128225	0.112388
Zn16	Zn	1.073007	0.371775	0.612388
Zn17	Zn	0.579424	-0.114351	-0.112159
Zn18	Zn	1.079424	0.385649	0.387841
O19	O	0.575882	-0.264506	0.085319
O20	O	1.075882	0.235494	0.585319
C21	C	0.488198	-0.129496	0.000095
C22	C	0.988198	0.370504	0.500095
C23	C	0.434492	-0.128412	0.000083
C24	C	0.934492	0.371588	0.500083
C25	C	0.099419	-0.208180	0.000122
C26	C	0.599419	0.291820	0.500122
C27	C	-0.102429	-0.204161	0.000132
C28	C	0.397571	0.295839	0.500132
O29	O	-0.130263	-0.277104	0.000171
O30	O	0.369737	0.222896	0.500171
N31	N	-0.125630	-0.117280	0.000136
N32	N	0.374370	0.382720	0.500136
C33	C	-0.098366	-0.031397	0.000144
C34	C	0.401634	0.468603	0.500144
O35	O	-0.122732	0.042593	0.000159
O36	O	0.377268	0.542593	0.500159
C37	C	0.103481	-0.035417	0.000142
C38	C	0.603481	0.464583	0.500142
C39	C	0.126680	-0.122304	0.000128
C40	C	0.626680	0.377696	0.500128
C41	C	0.122618	-0.295060	0.000109
C42	C	0.622618	0.204940	0.500109
C43	C	0.173077	-0.296063	0.000101
C44	C	0.673077	0.203937	0.500101
C45	C	0.200338	-0.210187	0.000106
C46	C	0.700338	0.289813	0.500106
C47	C	0.177139	-0.123307	0.000120
C48	C	0.677139	0.376693	0.500120
C49	C	0.130744	0.050464	0.000158
C50	C	0.630744	0.550464	0.500158
C51	C	0.181209	0.049452	0.000160
C52	C	0.681209	0.549452	0.500160
C53	C	0.204407	-0.037435	0.000146
C54	C	0.704407	0.462565	0.500146
C55	C	0.254859	-0.038434	0.000117
C56	C	0.754859	0.461566	0.500117
N57	N	0.278060	-0.125316	0.000113
N58	N	0.778060	0.374684	0.500113
C59	C	0.250799	-0.211192	0.000108
C60	C	0.750799	0.288808	0.500108
C61	C	-0.204339	-0.029292	0.000143
C62	C	0.295661	0.470708	0.500143
C63	C	-0.254801	-0.028287	0.000142
C64	C	0.245199	0.471713	0.500142
C65	C	-0.258860	-0.201052	0.000131
C66	C	0.241140	0.298948	0.500131
C67	C	-0.208397	-0.202056	0.000125
C68	C	0.291603	0.297944	0.500125
C69	C	-0.181138	-0.116174	0.000139
C70	C	0.318862	0.383826	0.500139
C71	C	0.356768	-0.213293	0.000090
C72	C	0.856768	0.286707	0.500090
C73	C	0.407232	-0.214288	0.000078
C74	C	0.907232	0.285712	0.500078
C75	C	0.411287	-0.041524	0.000094
C76	C	0.911287	0.458476	0.500094
C77	C	0.360827	-0.040528	0.000101
C78	C	0.860827	0.459472	0.500101
C79	C	0.333569	-0.126420	0.000102
C80	C	0.833569	0.373580	0.500102
O81	O	0.282722	0.034469	0.000090
O82	O	0.782722	0.534469	0.500090
O83	O	0.275174	-0.285173	0.000116
O84	O	0.775174	0.214827	0.500116
C85	C	0.048960	-0.207177	0.000130
C86	C	0.548960	0.292823	0.500130
C87	C	0.025761	-0.120297	0.000144
C88	C	0.525761	0.379703	0.500144
C89	C	0.053022	-0.034420	0.000149
C90	C	0.553022	0.465580	0.500149
C91	C	-0.024700	-0.119291	0.000142
C92	C	0.475300	0.380709	0.500142
C93	C	-0.051961	-0.205168	0.000137
C94	C	0.448039	0.294832	0.500137
C95	C	-0.028760	-0.292050	0.000132
C96	C	0.471240	0.207950	0.500132
C97	C	0.021700	-0.293053	0.000124
C98	C	0.521700	0.206947	0.500124
C99	C	0.029821	0.052461	0.000153
C100	C	0.529821	0.552461	0.500153
C101	C	-0.020639	0.053458	0.000160
C102	C	0.479361	0.553458	0.500160
C103	C	-0.047899	-0.032419	0.000155
C104	C	0.452101	0.467581	0.500155
C105	C	0.572274	0.051953	0.000124
C106	C	1.072274	0.551953	0.500124
C107	C	0.566787	0.157098	0.000124
C108	C	1.066787	0.657098	0.500124
C109	C	0.664233	-0.113080	0.000132
C110	C	1.164233	0.386920	0.500132
C111	C	0.717939	-0.114163	0.000137
C112	C	1.217939	0.385837	0.500137
C113	C	0.580157	-0.294528	0.000103
C114	C	1.080157	0.205472	0.500103
C115	C	0.585644	-0.399673	0.000096
C116	C	1.085644	0.100327	0.500096
N117	N	0.568631	-0.137693	0.265634
N118	N	1.068631	0.362307	0.765634
C119	C	0.556756	0.349614	0.000107
C120	C	1.056756	0.849614	0.500107
C121	C	0.595673	0.407817	0.000113
C122	C	1.095673	0.907817	0.500113
C123	C	0.590091	0.514939	0.000103
C124	C	1.090091	1.014939	0.500103
C125	C	0.562337	0.242481	0.000117
C126	C	1.062337	0.742481	0.500117
N127	N	0.583803	-0.104876	-0.265406
N128	N	1.083803	0.395124	0.234594
C129	C	0.562678	-0.150583	0.474675
C130	C	1.062678	0.349417	0.974675
C131	C	0.589755	-0.091989	0.525561
C132	C	1.089755	0.408011	1.025561
C133	C	0.586443	-0.099161	0.641878
C134	C	1.086443	0.400839	1.141878
C135	C	0.565990	-0.143412	0.358347
C136	C	1.065990	0.356588	0.858347
H137	H	0.334580	-0.283235	0.000094
H138	H	0.834580	0.216765	0.500094
H139	H	0.433491	0.028394	0.000095
H140	H	0.933491	0.528394	0.500095
Cl141	Cl	0.653585	0.360542	0.000137
Cl142	Cl	1.153585	0.860542	0.500137
Cl143	Cl	-0.293140	-0.309010	0.000128
Cl144	Cl	0.206860	0.190990	0.500128
Cl145	Cl	0.629588	-0.006582	0.457954
Cl146	Cl	1.129588	0.493418	0.957954
Cl147	Cl	0.436393	-0.323525	0.000056
Cl148	Cl	0.936393	0.176475	0.500056
H149	H	0.519250	0.380234	0.000096
H150	H	1.019250	0.880234	0.500096
H151	H	0.191961	-0.366815	0.000088
H152	H	0.691961	0.133185	0.500088
Cl153	Cl	0.088357	-0.403034	0.000099
Cl154	Cl	0.588357	0.096966	0.500099
H155	H	0.537010	-0.206130	0.518462
H156	H	1.037010	0.293870	1.018462
Cl157	Cl	0.064083	0.160432	0.000161
Cl158	Cl	0.564083	0.660432	0.500161
Cl159	Cl	0.215475	0.157425	0.000180
Cl160	Cl	0.715475	0.657425	0.500180
H161	H	-0.189513	-0.272807	0.000119
H162	H	0.310487	0.227193	0.500119
H163	H	-0.273684	0.042466	0.000138
H164	H	0.226316	0.542466	0.500138
H165	H	-0.182149	0.040647	0.000155
H166	H	0.317851	0.540647	0.500155
Cl167	Cl	-0.049796	0.162699	0.000165
Cl168	Cl	0.450204	0.662699	0.500165
H169	H	0.111864	0.121217	0.000171
H170	H	0.611864	0.621217	0.500171
H171	H	0.040583	-0.363805	0.000114
H172	H	0.540583	0.136195	0.500114
Cl173	Cl	0.331662	0.068702	0.000124
Cl174	Cl	0.831662	0.568702	0.500124
H175	H	-0.050964	-0.361973	0.000124
H176	H	0.449036	0.138027	0.500124
