data_functionalizedCrystal
_audit_creation_method	'MofGen! by Chris Wilmer'
_symmetry_space_group_name_H-M	'P1'
_symmetry_Int_Tables_number	1
_symmetry_cell_setting	triclinic
loop_
_symmetry_equiv_pos_as_xyz
  x,y,z
_cell_length_a	33.428889
_cell_length_b	33.428139
_cell_length_c	33.424847
_cell_angle_alpha	60.004234
_cell_angle_beta	60.008465
_cell_angle_gamma	59.994972
loop_
_atom_site_label
_atom_site_type_symbol
_atom_site_fract_x
_atom_site_fract_y
_atom_site_fract_z
O1	O	0.055565	-0.584504	0.488714
O2	O	0.555565	-0.084504	0.988714
O3	O	0.020982	-0.455083	0.393778
O4	O	0.520982	0.044917	0.893778
O5	O	0.102943	-0.536959	0.393689
O6	O	0.602943	-0.036959	0.893689
O7	O	-0.026396	-0.502628	0.488803
O8	O	0.473604	-0.002628	0.988803
O9	O	0.130140	-0.509767	0.420792
O10	O	0.630140	-0.009767	0.920792
O11	O	0.048179	-0.427891	0.420881
O12	O	0.548179	0.072109	0.920881
O13	O	0.082762	-0.557312	0.515817
O14	O	0.582762	-0.057312	1.015817
Cu15	Cu	0.067954	-0.490119	0.470823
Cu16	Cu	0.567954	0.009881	0.970823
Cu17	Cu	0.035790	-0.522276	0.438771
Cu18	Cu	0.535790	-0.022276	0.938771
O19	O	0.000801	-0.475436	0.515906
O20	O	0.500801	0.024564	1.015906
N21	N	0.090577	-0.467504	0.493370
N22	N	0.590577	0.032496	0.993370
N23	N	0.013171	-0.544895	0.416225
N24	N	0.513171	-0.044895	0.916225
C25	C	0.143377	-0.280390	0.546067
C26	C	0.643377	0.219610	1.046067
C27	C	0.143515	-0.414755	0.680369
C28	C	0.643515	0.085245	1.180369
C29	C	0.143392	-0.414735	0.546069
C30	C	0.643392	0.085265	1.046069
C31	C	0.277766	-0.414702	0.545966
C32	C	0.777766	0.085298	1.045966
C33	C	0.158177	-0.324719	0.560828
C34	C	0.658177	0.175281	1.060828
C35	C	0.158255	-0.399967	0.636038
C36	C	0.658255	0.100033	1.136038
C37	C	0.233434	-0.399936	0.560773
C38	C	0.733434	0.100064	1.060773
C39	C	0.158186	-0.399955	0.560829
C40	C	0.658186	0.100045	1.060829
C41	C	0.124540	-0.223964	0.527278
C42	C	0.624540	0.276036	1.027278
C43	C	0.124565	-0.433545	0.527281
C44	C	0.624565	0.066455	1.027281
C45	C	0.177014	-0.381145	0.579617
C46	C	0.677014	0.118855	1.079617
C47	C	0.359814	-0.400540	0.502735
C48	C	0.859814	0.099460	1.002735
C49	C	0.411105	-0.417624	0.485606
C50	C	0.911105	0.082376	0.985606
C51	C	0.411136	-0.500620	0.517255
C52	C	0.911136	-0.000620	1.017255
C53	C	0.359845	-0.483534	0.534385
C54	C	0.859845	0.016466	1.034385
C55	C	0.136887	-0.198305	0.476855
C56	C	0.636887	0.301695	0.976855
C57	C	0.119761	-0.147011	0.459777
C58	C	0.619761	0.352989	0.959777
C59	C	0.077945	-0.147038	0.543547
C60	C	0.577945	0.352962	1.043547
C61	C	0.095072	-0.198332	0.560625
C62	C	0.595072	0.301668	1.060625
C63	C	0.074134	-0.421169	0.539710
C64	C	0.574134	0.078831	1.039710
C65	C	0.057023	-0.438269	0.522625
C66	C	0.557023	0.061731	1.022625
C67	C	0.140770	-0.480120	0.480694
C68	C	0.640770	0.019880	0.980694
C69	C	0.157883	-0.463020	0.497773
C70	C	0.657883	0.036980	0.997773
C71	C	0.074339	-0.421208	0.762475
C72	C	0.574339	0.078792	1.262475
C73	C	0.057288	-0.438323	0.813768
C74	C	0.557288	0.061677	1.313768
C75	C	0.141075	-0.480183	0.813699
C76	C	0.641075	0.019817	1.313699
C77	C	0.158125	-0.463069	0.762404
C78	C	0.658125	0.036931	1.262404
C79	C	0.124756	-0.433580	0.736794
C80	C	0.624756	0.066420	1.236794
C81	C	0.334186	-0.433494	0.527123
C82	C	0.834186	0.066506	1.027123
C83	C	-0.173769	-0.597444	0.363037
C84	C	0.326231	-0.097444	0.863037
C85	C	-0.039302	-0.597595	0.228856
C86	C	0.460698	-0.097595	0.728856
C87	C	-0.039496	-0.597587	0.363300
C88	C	0.460504	-0.097587	0.863300
C89	C	-0.039512	-0.731889	0.363237
C90	C	0.460488	-0.231889	0.863237
C91	C	-0.129442	-0.612265	0.348329
C92	C	0.370558	-0.112265	0.848329
C93	C	-0.054138	-0.612351	0.273187
C94	C	0.445862	-0.112351	0.773187
C95	C	-0.054257	-0.687554	0.348440
C96	C	0.445743	-0.187554	0.848440
C97	C	-0.054247	-0.612346	0.348477
C98	C	0.445753	-0.112346	0.848477
C99	C	-0.230191	-0.578579	0.381758
C100	C	0.269809	-0.078579	0.881758
C101	C	-0.020722	-0.578803	0.382168
C102	C	0.479278	-0.078803	0.882168
C103	C	-0.073020	-0.631130	0.329609
C104	C	0.426980	-0.131130	0.829609
C105	C	-0.053713	-0.813916	0.406386
C106	C	0.446287	-0.313916	0.906386
C107	C	-0.036654	-0.865210	0.423504
C108	C	0.463346	-0.365210	0.923504
C109	C	0.046338	-0.865293	0.391984
C110	C	0.546338	-0.365293	0.891984
C111	C	0.029278	-0.813999	0.374865
C112	C	0.529278	-0.313999	0.874865
C113	C	-0.255900	-0.590938	0.432169
C114	C	0.244100	-0.090938	0.932169
C115	C	-0.307191	-0.573786	0.449185
C116	C	0.192809	-0.073786	0.949185
C117	C	-0.307060	-0.531922	0.365377
C118	C	0.192940	-0.031922	0.865377
C119	C	-0.255769	-0.549074	0.348360
C120	C	0.244231	-0.049074	0.848360
C121	C	-0.033081	-0.528377	0.369764
C122	C	0.466919	-0.028377	0.869764
C123	C	-0.016014	-0.511306	0.386922
C124	C	0.483986	-0.011306	0.886922
C125	C	0.025770	-0.595083	0.428877
C126	C	0.525770	-0.095083	0.928877
C127	C	0.008703	-0.612156	0.411725
C128	C	0.508703	-0.112156	0.911725
C129	C	-0.032755	-0.528393	0.146761
C130	C	0.467245	-0.028393	0.646761
C131	C	-0.015585	-0.511324	0.095468
C132	C	0.484415	-0.011324	0.595468
C133	C	0.026262	-0.595106	0.095516
C134	C	0.526262	-0.095106	0.595516
C135	C	0.009094	-0.612174	0.146811
C136	C	0.509094	-0.112174	0.646811
C137	C	-0.020417	-0.578816	0.172432
C138	C	0.479583	-0.078816	0.672432
C139	C	-0.020748	-0.788312	0.382068
C140	C	0.479252	-0.288312	0.882068
N141	N	0.436037	-0.467415	0.493101
N142	N	0.936037	0.032585	0.993101
O143	O	0.592642	-0.471896	0.376066
O144	O	1.092642	0.028104	0.876066
O145	O	0.592838	-0.567146	0.505347
O146	O	1.092838	-0.067146	1.005347
O147	O	0.592754	-0.566928	0.423360
O148	O	1.092754	-0.066928	0.923360
O149	O	0.592727	-0.472113	0.458053
O150	O	1.092727	0.027887	0.958053
O151	O	0.511269	-0.539835	0.450606
O152	O	1.011269	-0.039835	0.950606
O153	O	0.511353	-0.540052	0.532594
O154	O	1.011353	-0.040052	1.032594
O155	O	0.511157	-0.444802	0.403312
O156	O	1.011157	0.055198	0.903312
Cu157	Cu	0.503815	-0.489954	0.470441
Cu158	Cu	1.003815	0.010046	0.970441
Cu159	Cu	0.600180	-0.521995	0.438219
Cu160	Cu	1.100180	-0.021995	0.938219
O161	O	0.511242	-0.445020	0.485300
O162	O	1.011242	0.054980	0.985300
N163	N	0.667959	-0.544533	0.415554
N164	N	1.167959	-0.044533	0.915554
N165	N	0.090544	-0.122107	0.493359
N166	N	0.590544	0.377893	0.993359
O167	O	-0.026406	0.034587	0.488773
O168	O	0.473594	0.534587	0.988773
O169	O	0.102877	0.034627	0.393499
O170	O	0.602877	0.534627	0.893499
O171	O	0.020848	0.034591	0.393771
O172	O	0.520848	0.534591	0.893771
O173	O	0.055623	0.034623	0.488500
O174	O	0.555623	0.534623	0.988500
O175	O	0.048051	-0.046899	0.420925
O176	O	0.548051	0.453101	0.920925
O177	O	0.130080	-0.046864	0.420653
O178	O	0.630080	0.453136	0.920653
O179	O	0.000796	-0.046903	0.515927
O180	O	0.500796	0.453097	1.015927
Cu181	Cu	0.067922	-0.054324	0.470769
Cu182	Cu	0.567922	0.445676	0.970769
Cu183	Cu	0.035752	0.042048	0.438656
Cu184	Cu	0.535752	0.542048	0.938656
O185	O	0.082825	-0.046867	0.515655
O186	O	0.582825	0.453133	1.015655
N187	N	0.013123	0.109830	0.416068
N188	N	0.513123	0.609830	0.916068
N189	N	0.090892	-0.467554	0.838649
N190	N	0.590892	0.032446	1.338649
O191	O	0.086330	-0.584488	0.995334
O192	O	0.586330	-0.084488	1.495334
O193	O	-0.008902	-0.455160	0.995379
O194	O	0.491098	0.044840	1.495379
O195	O	-0.008679	-0.537172	0.995355
O196	O	0.491321	-0.037172	1.495355
O197	O	0.086107	-0.502475	0.995358
O198	O	0.586107	-0.002475	1.495358
O199	O	0.018452	-0.509990	0.913868
O200	O	0.518452	-0.009990	1.413868
O201	O	0.018230	-0.427978	0.913891
O202	O	0.518230	0.072022	1.413891
O203	O	0.113461	-0.557306	0.913847
O204	O	0.613461	-0.057306	1.413847
Cu205	Cu	0.068323	-0.490160	0.906429
Cu206	Cu	0.568323	0.009840	1.406429
Cu207	Cu	0.036237	-0.522306	1.002797
Cu208	Cu	0.536237	-0.022306	1.502797
O209	O	0.113239	-0.475293	0.913870
O210	O	0.613239	0.024707	1.413870
N211	N	0.013667	-0.544916	1.070577
N212	N	0.513667	-0.044916	1.570577
C213	C	0.031339	-0.425179	0.394250
C214	C	0.531339	0.074821	0.894250
C215	C	0.132837	-0.526572	0.394139
C216	C	0.632837	-0.026572	0.894139
C217	C	0.072405	-0.587216	0.515344
C218	C	0.572405	-0.087216	1.015344
C219	C	-0.029093	-0.485823	0.515455
C220	C	0.470907	0.014177	1.015455
C221	C	0.552119	-0.566716	0.535258
C222	C	1.052119	-0.066716	1.035258
C223	C	0.552016	-0.566447	0.433726
C224	C	1.052016	-0.066447	0.933726
C225	C	0.551873	-0.445232	0.373402
C226	C	1.051873	0.054768	0.873402
C227	C	0.551980	-0.445502	0.474933
C228	C	1.051980	0.054498	0.974933
C229	C	0.132731	-0.006013	0.393923
C230	C	0.632731	0.493987	0.893923
C231	C	0.031182	-0.006158	0.394293
C232	C	0.531182	0.493842	0.894293
C233	C	-0.029092	-0.006163	0.515469
C234	C	0.470908	0.493837	1.015469
C235	C	0.072491	-0.006119	0.515133
C236	C	0.572491	0.493881	1.015133
C237	C	-0.008451	-0.425276	0.954641
C238	C	0.491549	0.074724	1.454641
C239	C	-0.008170	-0.526833	0.954596
C240	C	0.491830	-0.026833	1.454596
C241	C	0.113010	-0.587190	0.954585
C242	C	0.613010	-0.087190	1.454585
C243	C	0.112735	-0.485627	0.954611
C244	C	0.612735	0.014373	1.454611
H245	H	0.016234	-0.428240	0.834672
H246	H	0.516234	0.071760	1.334672
H247	H	-0.038348	-0.388133	0.954654
H248	H	0.461652	0.111867	1.454654
H249	H	0.552170	-0.596617	0.572390
H250	H	1.052170	-0.096617	1.072390
C251	C	-0.079249	-0.006176	0.555877
C252	C	0.420751	0.493824	1.055877
C253	C	-0.089009	-0.006171	0.606043
C254	C	0.410991	0.493829	1.106043
C255	C	-0.139165	-0.006184	0.646451
C256	C	0.360835	0.493816	1.146451
C257	C	-0.179562	-0.006203	0.636692
C258	C	0.320438	0.493797	1.136692
C259	C	-0.169803	-0.006208	0.586524
C260	C	0.330197	0.493792	1.086524
C261	C	-0.119646	-0.006195	0.546116
C262	C	0.380354	0.493805	1.046116
H263	H	-0.059104	-0.006157	0.613269
H264	H	0.440896	0.493843	1.113269
H265	H	-0.146390	-0.006180	0.683589
H266	H	0.353610	0.493820	1.183589
H267	H	-0.216691	-0.006213	0.666605
H268	H	0.283309	0.493787	1.166605
H269	H	-0.199707	-0.006222	0.579298
H270	H	0.300293	0.493778	1.079298
H271	H	-0.112422	-0.006199	0.508978
H272	H	0.387578	0.493801	1.008978
H273	H	0.023949	-0.388000	0.364433
H274	H	0.523949	0.112000	0.864433
H275	H	0.142910	-0.624330	0.954565
H276	H	0.642910	-0.124330	1.454565
C277	C	0.058142	-0.631775	0.461387
C278	C	0.558142	-0.131775	0.961387
C279	C	0.107616	-0.668718	0.441825
C280	C	0.607616	-0.168718	0.941825
C281	C	0.139986	-0.705408	0.474335
C282	C	0.639986	-0.205408	0.974335
C283	C	0.122883	-0.705154	0.526407
C284	C	0.622883	-0.205154	1.026407
C285	C	0.073407	-0.668209	0.545972
C286	C	0.573407	-0.168209	1.045972
C287	C	0.041036	-0.631520	0.513462
C288	C	0.541036	-0.131520	1.013462
H289	H	0.120279	-0.668907	0.403275
H290	H	0.620279	-0.168907	0.903275
H291	H	0.176612	-0.732756	0.459851
H292	H	0.676612	-0.232756	0.959851
H293	H	0.146846	-0.732313	0.550473
H294	H	0.646846	-0.232313	1.050473
H295	H	0.060744	-0.668020	0.584522
H296	H	0.560744	-0.168020	1.084522
H297	H	0.004411	-0.604171	0.527946
H298	H	0.504411	-0.104171	1.027946
C299	C	0.183019	-0.536450	0.353788
C300	C	0.683019	-0.036450	0.853788
C301	C	0.214608	-0.504640	0.332665
C302	C	0.714608	-0.004640	0.832665
C303	C	0.264791	-0.514518	0.292314
C304	C	0.764791	-0.014518	0.792314
C305	C	0.283384	-0.556207	0.273084
C306	C	0.783384	-0.056207	0.773084
C307	C	0.251794	-0.588020	0.294207
C308	C	0.751794	-0.088020	0.794207
C309	C	0.201612	-0.578142	0.334558
C310	C	0.701612	-0.078142	0.834558
H311	H	0.200845	-0.473777	0.346900
H312	H	0.700845	0.026223	0.846900
H313	H	0.288175	-0.490968	0.276677
H314	H	0.788175	0.009032	0.776677
H315	H	0.320532	-0.563520	0.243213
H316	H	0.820532	-0.063520	0.743213
H317	H	0.265558	-0.618883	0.279972
H318	H	0.765558	-0.118883	0.779972
H319	H	0.178227	-0.601693	0.350195
H320	H	0.678227	-0.101693	0.850195
H321	H	0.079796	-0.624394	0.545162
H322	H	0.579796	-0.124394	1.045162
H323	H	0.169783	-0.005775	0.363939
H324	H	0.669783	0.494225	0.863939
H325	H	0.079939	-0.006110	0.544893
H326	H	0.579939	0.493890	1.044893
H327	H	0.551811	-0.415327	0.336274
H328	H	1.051811	0.084673	0.836274
C329	C	0.021125	-0.006168	0.354084
C330	C	0.521125	0.493832	0.854084
C331	C	-0.029128	-0.006188	0.364143
C332	C	0.470872	0.493812	0.864143
C333	C	-0.039185	-0.006199	0.323935
C334	C	0.460815	0.493801	0.823935
C335	C	0.001011	-0.006190	0.273667
C336	C	0.501011	0.493810	0.773667
C337	C	0.051268	-0.006170	0.263606
C338	C	0.551268	0.493830	0.763606
C339	C	0.061325	-0.006159	0.303815
C340	C	0.561325	0.493841	0.803815
H341	H	-0.058887	-0.006195	0.401356
H342	H	0.441113	0.493805	0.901356
H343	H	-0.076389	-0.006214	0.331383
H344	H	0.423611	0.493786	0.831383
H345	H	-0.006433	-0.006198	0.243902
H346	H	0.493567	0.493802	0.743902
H347	H	0.081027	-0.006163	0.226393
H348	H	0.581027	0.493837	0.726393
H349	H	0.098529	-0.006145	0.296367
H350	H	0.598529	0.493855	0.796367
C351	C	0.152967	-0.475599	0.954604
C352	C	0.652967	0.024401	1.454604
C353	C	0.142936	-0.425348	0.954616
C354	C	0.642936	0.074652	1.454616
C355	C	0.183168	-0.415320	0.954608
C356	C	0.683168	0.084680	1.454608
C357	C	0.233432	-0.455545	0.954589
C358	C	0.733432	0.044455	1.454589
C359	C	0.243465	-0.505800	0.954578
C360	C	0.743465	-0.005800	1.454578
C361	C	0.203233	-0.515827	0.954585
C362	C	0.703233	-0.015827	1.454585
H363	H	0.105726	-0.395568	0.954630
H364	H	0.605726	0.104432	1.454630
H365	H	0.175741	-0.378118	0.954617
H366	H	0.675741	0.121882	1.454617
H367	H	0.263214	-0.448122	0.954584
H368	H	0.763214	0.051878	1.454584
H369	H	0.280675	-0.535580	0.954564
H370	H	0.780675	-0.035580	1.454564
H371	H	0.210661	-0.553030	0.954577
H372	H	0.710661	-0.053030	1.454577
H373	H	-0.037935	-0.534246	0.954563
H374	H	0.462065	-0.034246	1.454563
H375	H	0.047163	-0.397193	0.741627
H376	H	0.547163	0.102807	1.241627
C377	C	0.169301	-0.226499	0.440172
C378	C	0.669301	0.273501	0.940172
C379	C	0.188142	-0.282921	0.458957
C380	C	0.688142	0.217079	0.958957
C381	C	0.220557	-0.311117	0.422275
C382	C	0.720557	0.188883	0.922275
C383	C	0.234132	-0.282891	0.366809
C384	C	0.734132	0.217109	0.866809
C385	C	0.215291	-0.226466	0.348022
C386	C	0.715291	0.273534	0.848022
C387	C	0.182876	-0.198270	0.384704
C388	C	0.682876	0.301730	0.884704
H389	H	0.178093	-0.303818	0.500018
H390	H	0.678093	0.196182	1.000018
H391	H	0.234504	-0.352887	0.436183
H392	H	0.734504	0.147113	0.936183
H393	H	0.258127	-0.303764	0.339655
H394	H	0.758127	0.196236	0.839655
H395	H	0.225340	-0.205569	0.306960
H396	H	0.725340	0.294431	0.806960
H397	H	0.168929	-0.156501	0.370796
H398	H	0.668929	0.343499	0.870796
C399	C	0.045533	-0.118840	0.580228
C400	C	0.545533	0.381160	1.080228
C401	C	0.031959	-0.147066	0.635694
C402	C	0.531959	0.352934	1.135694
C403	C	-0.000455	-0.118870	0.672376
C404	C	0.499545	0.381130	1.172376
C405	C	-0.019295	-0.062448	0.653592
C406	C	0.480705	0.437552	1.153592
C407	C	-0.005721	-0.034219	0.598123
C408	C	0.494279	0.465781	1.098123
C409	C	0.026693	-0.062415	0.561441
C410	C	0.526693	0.437585	1.061441
H411	H	0.045906	-0.188836	0.649602
H412	H	0.545906	0.311164	1.149602
H413	H	-0.010503	-0.139767	0.713438
H414	H	0.489497	0.360233	1.213438
H415	H	-0.043289	-0.041576	0.680746
H416	H	0.456711	0.458424	1.180746
H417	H	-0.019667	0.007550	0.584216
H418	H	0.480333	0.507550	1.084216
H419	H	0.036741	-0.041518	0.520380
H420	H	0.536741	0.458482	1.020380
C421	C	0.177781	-0.512612	0.841873
C422	C	0.677781	-0.012612	1.341873
C423	C	0.214679	-0.492970	0.834793
C424	C	0.714679	0.007030	1.334793
C425	C	0.251383	-0.525402	0.862968
C426	C	0.751383	-0.025402	1.362968
C427	C	0.251188	-0.577475	0.898222
C428	C	0.751188	-0.077475	1.398222
C429	C	0.214289	-0.597120	0.905303
C430	C	0.714289	-0.097120	1.405303
C431	C	0.177585	-0.564688	0.877128
C432	C	0.677585	-0.064688	1.377128
H433	H	0.214824	-0.454420	0.808694
H434	H	0.714824	0.045580	1.308694
H435	H	0.278699	-0.510860	0.857725
H436	H	0.778699	-0.010860	1.357725
H437	H	0.278359	-0.601483	0.919078
H438	H	0.778359	-0.101483	1.419078
H439	H	0.214143	-0.635670	0.931401
H440	H	0.714143	-0.135670	1.431401
H441	H	0.150269	-0.579230	0.882370
H442	H	0.650269	-0.079230	1.382370
C443	C	0.213587	-0.476679	0.734157
C444	C	0.713587	0.023321	1.234157
C445	C	0.245797	-0.461743	0.741181
C446	C	0.745797	0.038257	1.241181
C447	C	0.301258	-0.475352	0.712935
C448	C	0.801258	0.024648	1.212935
C449	C	0.324510	-0.503896	0.677664
C450	C	0.824510	-0.003896	1.177664
C451	C	0.292300	-0.518834	0.670637
C452	C	0.792300	-0.018834	1.170637
C453	C	0.236839	-0.505225	0.698884
C454	C	0.736839	-0.005225	1.198884
H455	H	0.228585	-0.440612	0.767292
H456	H	0.728585	0.059388	1.267292
H457	H	0.325102	-0.464294	0.718136
H458	H	0.825102	0.035706	1.218136
H459	H	0.365566	-0.513970	0.656754
H460	H	0.865566	-0.013970	1.156754
H461	H	0.309512	-0.539965	0.644526
H462	H	0.809512	-0.039965	1.144526
H463	H	0.212995	-0.516283	0.693682
H464	H	0.712995	-0.016283	1.193682
C465	C	0.037483	-0.388742	0.572162
C466	C	0.537483	0.111258	1.072162
C467	C	0.000614	-0.408383	0.621648
C468	C	0.500614	0.091617	1.121648
C469	C	-0.036039	-0.375954	0.654102
C470	C	0.463961	0.124046	1.154102
C471	C	-0.035823	-0.323885	0.637069
C472	C	0.464177	0.176115	1.137069
C473	C	0.001047	-0.304242	0.587580
C474	C	0.501047	0.195758	1.087580
C475	C	0.037700	-0.336670	0.555127
C476	C	0.537700	0.163330	1.055127
H477	H	0.000453	-0.446930	0.634259
H478	H	0.500453	0.053070	1.134259
H479	H	-0.063333	-0.390496	0.690736
H480	H	0.436667	0.109504	1.190736
H481	H	-0.062956	-0.299880	0.661093
H482	H	0.437044	0.200120	1.161093
H483	H	0.001208	-0.265695	0.574969
H484	H	0.501208	0.234305	1.074969
H485	H	0.064994	-0.322129	0.518492
H486	H	0.564994	0.177871	1.018492
C487	C	0.001550	-0.424662	0.536292
C488	C	0.501550	0.075338	1.036292
C489	C	-0.030609	-0.439614	0.590476
C490	C	0.469391	0.060386	1.090476
C491	C	-0.086081	-0.426007	0.604141
C492	C	0.413919	0.073993	1.104141
C493	C	-0.109395	-0.397448	0.563622
C494	C	0.390605	0.102552	1.063622
C495	C	-0.077237	-0.382494	0.509434
C496	C	0.422763	0.117506	1.009434
C497	C	-0.021764	-0.396101	0.495769
C498	C	0.478236	0.103899	0.995769
H499	H	-0.013351	-0.460756	0.620474
H500	H	0.486649	0.039244	1.120474
H501	H	-0.109887	-0.437076	0.644255
H502	H	0.390113	0.062924	1.144255
H503	H	-0.150459	-0.387375	0.573737
H504	H	0.349541	0.112625	1.073737
H505	H	-0.094495	-0.361352	0.479436
H506	H	0.405505	0.138648	0.979436
H507	H	0.002042	-0.385032	0.455655
H508	H	0.502042	0.114968	0.955655
C509	C	0.551966	-0.405261	0.484957
C510	C	1.051966	0.094739	0.984957
C511	C	0.552025	-0.415293	0.535191
C512	C	1.052025	0.084707	1.035191
C513	C	0.552012	-0.375053	0.545215
C514	C	1.052012	0.124947	1.045215
C515	C	0.551938	-0.324780	0.505004
C516	C	1.051938	0.175220	1.005004
C517	C	0.551879	-0.314745	0.454767
C518	C	1.051879	0.185255	0.954767
C519	C	0.551893	-0.354986	0.444743
C520	C	1.051893	0.145014	0.944743
H521	H	0.552080	-0.452511	0.564960
H522	H	1.052080	0.047489	1.064960
H523	H	0.552056	-0.382481	0.582404
H524	H	1.052056	0.117519	1.082404
H525	H	0.551928	-0.294991	0.512425
H526	H	1.051928	0.205009	1.012425
H527	H	0.551825	-0.277528	0.424998
H528	H	1.051825	0.222472	0.924998
H529	H	0.551848	-0.347557	0.407554
H530	H	1.051848	0.152443	0.907554
C531	C	0.177423	-0.512547	0.448238
C532	C	0.677423	-0.012547	0.948238
C533	C	0.177209	-0.564617	0.465270
C534	C	0.677209	-0.064617	0.965270
C535	C	0.213860	-0.597042	0.432813
C536	C	0.713860	-0.097042	0.932813
C537	C	0.250724	-0.577398	0.383325
C538	C	0.750724	-0.077398	0.883325
C539	C	0.250939	-0.525326	0.366290
C540	C	0.750939	-0.025326	0.866290
C541	C	0.214289	-0.492900	0.398747
C542	C	0.714289	0.007100	0.898747
H543	H	0.149918	-0.579161	0.501906
H544	H	0.649918	-0.079161	1.001906
H545	H	0.213700	-0.635589	0.445423
H546	H	0.713700	-0.135589	0.945423
H547	H	0.277855	-0.601401	0.359298
H548	H	0.777855	-0.101401	0.859298
H549	H	0.278230	-0.510781	0.329654
H550	H	0.778230	-0.010781	0.829654
H551	H	0.214448	-0.454353	0.386137
H552	H	0.714448	0.045647	0.886137
H553	H	0.198948	-0.473094	0.487648
H554	H	0.698948	0.026906	0.987648
C555	C	-0.079277	-0.475946	0.555806
C556	C	0.420723	0.024054	1.055806
C557	C	-0.119622	-0.425747	0.545944
C558	C	0.380378	0.074253	1.045944
C559	C	-0.169806	-0.415870	0.586294
C560	C	0.330194	0.084130	1.086294
C561	C	-0.179644	-0.456191	0.636507
C562	C	0.320356	0.043809	1.136507
C563	C	-0.139297	-0.506394	0.646371
C564	C	0.360703	-0.006394	1.146371
C565	C	-0.089113	-0.516271	0.606020
C566	C	0.410887	-0.016271	1.106020
H567	H	-0.112341	-0.395895	0.508771
H568	H	0.387659	0.104105	1.008771
H569	H	-0.199673	-0.378706	0.578992
H570	H	0.300327	0.121294	1.078992
H571	H	-0.216793	-0.448880	0.666377
H572	H	0.283207	0.051120	1.166377
H573	H	-0.146579	-0.536245	0.683543
H574	H	0.353421	-0.036245	1.183543
H575	H	-0.059246	-0.553434	0.613323
H576	H	0.440754	-0.053434	1.113323
H577	H	0.338981	-0.510371	0.554246
H578	H	0.838981	-0.010371	1.054246
H579	H	0.552029	-0.596233	0.426301
H580	H	1.052029	-0.096233	0.926301
H581	H	0.431972	-0.390789	0.465748
H582	H	0.931972	0.109211	0.965748
C583	C	0.439362	-0.555664	0.525241
C584	C	0.939362	-0.055664	1.025241
C585	C	0.432358	-0.592968	0.577577
C586	C	0.932358	-0.092968	1.077577
C587	C	0.460586	-0.648013	0.585562
C588	C	0.960586	-0.148013	1.085562
C589	C	0.495819	-0.665754	0.541211
C590	C	0.995819	-0.165754	1.041211
C591	C	0.502825	-0.628449	0.488871
C592	C	1.002825	-0.128449	0.988871
C593	C	0.474596	-0.573404	0.480886
C594	C	0.974596	-0.073404	0.980886
H595	H	0.406275	-0.579836	0.610412
H596	H	0.906275	-0.079836	1.110412
H597	H	0.455400	-0.675628	0.624308
H598	H	0.955400	-0.175628	1.124308
H599	H	0.516715	-0.706501	0.547122
H600	H	1.016715	-0.206501	1.047122
H601	H	0.528907	-0.641581	0.456037
H602	H	1.028907	-0.141581	0.956037
H603	H	0.479782	-0.545789	0.442140
H604	H	0.979782	-0.045789	0.942140
C605	C	0.331587	-0.345494	0.494748
C606	C	0.831587	0.154506	0.994748
C607	C	0.359781	-0.309247	0.467923
C608	C	0.859781	0.190753	0.967923
C609	C	0.331556	-0.254201	0.459934
C610	C	0.831556	0.245799	0.959934
C611	C	0.275138	-0.235402	0.478770
C612	C	0.775138	0.264598	0.978770
C613	C	0.246941	-0.271650	0.505598
C614	C	0.746941	0.228350	1.005598
C615	C	0.275166	-0.326695	0.513586
C616	C	0.775166	0.173305	1.013586
H617	H	0.401548	-0.323162	0.453977
H618	H	0.901548	0.176838	0.953977
H619	H	0.352430	-0.227368	0.440074
H620	H	0.852430	0.272632	0.940074
H621	H	0.254245	-0.194654	0.472857
H622	H	0.754245	0.305346	0.972857
H623	H	0.205175	-0.257734	0.519543
H624	H	0.705175	0.242266	1.019543
H625	H	0.254292	-0.353528	0.533446
H626	H	0.754292	0.146472	1.033446
C627	C	0.133339	-0.118780	0.404309
C628	C	0.633339	0.381220	0.904309
C629	C	0.161869	-0.083498	0.381023
C630	C	0.661869	0.416502	0.881023
C631	C	0.175447	-0.055269	0.325555
C632	C	0.675447	0.444731	0.825555
C633	C	0.160494	-0.062321	0.293373
C634	C	0.660494	0.437679	0.793373
C635	C	0.131962	-0.097604	0.316659
C636	C	0.631962	0.402396	0.816659
C637	C	0.118385	-0.125833	0.372127
C638	C	0.618385	0.374167	0.872127
H639	H	0.172940	-0.078277	0.404846
H640	H	0.672940	0.421723	0.904846
H641	H	0.196568	-0.029150	0.308317
H642	H	0.696568	0.470850	0.808317
H643	H	0.170545	-0.041424	0.252313
H644	H	0.670545	0.458576	0.752313
H645	H	0.120892	-0.102825	0.292836
H646	H	0.620892	0.397175	0.792836
H647	H	0.097263	-0.151952	0.389365
H648	H	0.597263	0.348048	0.889365
H649	H	0.085016	-0.219221	0.601683
H650	H	0.585016	0.280779	1.101683
H651	H	-0.056788	-0.501226	0.167618
H652	H	0.443212	-0.001226	0.667618
C653	C	-0.029169	-0.455856	0.067235
C654	C	0.470831	0.044144	0.567235
C655	C	0.011407	-0.432629	0.032036
C656	C	0.511407	0.067371	0.532036
C657	C	-0.002174	-0.377160	0.003803
C658	C	0.497826	0.122840	0.503803
C659	C	-0.056331	-0.344918	0.010769
C660	C	0.443669	0.155082	0.510769
C661	C	-0.096910	-0.368144	0.045969
C662	C	0.403090	0.131856	0.545969
C663	C	-0.083329	-0.423613	0.074202
C664	C	0.416671	0.076387	0.574202
H665	H	0.051501	-0.456497	0.026878
H666	H	0.551501	0.043503	0.526878
H667	H	0.027866	-0.359966	-0.022255
H668	H	0.527866	0.140034	0.477745
H669	H	-0.066384	-0.303856	-0.010131
H670	H	0.433616	0.196144	0.489869
H671	H	-0.137004	-0.344276	0.051127
H672	H	0.362996	0.155724	0.551127
H673	H	-0.113369	-0.440806	0.100259
H674	H	0.386631	0.059194	0.600259
C675	C	0.058715	-0.631799	0.067331
C676	C	0.558715	-0.131799	0.567331
C677	C	0.110806	-0.631623	0.032143
C678	C	0.610806	-0.131623	0.532143
C679	C	0.143262	-0.668314	0.003957
C680	C	0.643262	-0.168314	0.503957
C681	C	0.123627	-0.705181	0.010959
C682	C	0.623627	-0.205181	0.510959
C683	C	0.071533	-0.705357	0.046149
C684	C	0.571533	-0.205357	0.546149
C685	C	0.039078	-0.668666	0.074335
C686	C	0.539078	-0.168666	0.574335
H687	H	0.125343	-0.604331	0.026958
H688	H	0.625343	-0.104331	0.526958
H689	H	0.181825	-0.668183	-0.022093
H690	H	0.681825	-0.168183	0.477907
H691	H	0.147652	-0.732342	-0.009905
H692	H	0.647652	-0.232342	0.490095
H693	H	0.056996	-0.732649	0.051334
H694	H	0.556996	-0.232649	0.551334
H695	H	0.000514	-0.668797	0.100385
H696	H	0.500514	-0.168797	0.600385
C697	C	0.022666	-0.667644	0.175047
C698	C	0.522666	-0.167644	0.675047
C699	C	0.076820	-0.699896	0.168082
C700	C	0.576820	-0.199896	0.668082
C701	C	0.090391	-0.755364	0.196317
C702	C	0.590391	-0.255364	0.696317
C703	C	0.049808	-0.778581	0.231518
C704	C	0.549808	-0.278581	0.731518
C705	C	-0.004350	-0.746328	0.238485
C706	C	0.495650	-0.246328	0.738485
C707	C	-0.017921	-0.690860	0.210249
C708	C	0.482079	-0.190860	0.710249
H709	H	0.106866	-0.682710	0.142023
H710	H	0.606866	-0.182710	0.642023
H711	H	0.130483	-0.779239	0.191160
H712	H	0.630483	-0.279239	0.691160
H713	H	0.059854	-0.819642	0.252419
H714	H	0.559854	-0.319642	0.752419
H715	H	-0.034396	-0.763514	0.264543
H716	H	0.465604	-0.263514	0.764543
H717	H	-0.058013	-0.666985	0.215407
H718	H	0.441987	-0.166985	0.715407
C719	C	-0.065453	-0.491687	0.337258
C720	C	0.434547	0.008313	0.837258
C721	C	-0.045762	-0.454815	0.287803
C722	C	0.454238	0.045185	0.787803
C723	C	-0.078135	-0.418122	0.255296
C724	C	0.421865	0.081878	0.755296
C725	C	-0.130198	-0.418302	0.272243
C726	C	0.369802	0.081698	0.772243
C727	C	-0.149891	-0.455175	0.321700
C728	C	0.350109	0.044825	0.821700
C729	C	-0.117519	-0.491868	0.354207
C730	C	0.382481	0.008132	0.854207
H731	H	-0.007220	-0.454680	0.275256
H732	H	0.492780	0.045320	0.775256
H733	H	-0.063557	-0.390826	0.218684
H734	H	0.436443	0.109174	0.718684
H735	H	-0.154162	-0.391140	0.248179
H736	H	0.345838	0.108860	0.748179
H737	H	-0.188434	-0.455310	0.334247
H738	H	0.311566	0.044690	0.834247
H739	H	-0.132097	-0.519164	0.390818
H740	H	0.367903	-0.019164	0.890818
C741	C	-0.029603	-0.455838	0.373281
C742	C	0.470397	0.044162	0.873281
C743	C	-0.014593	-0.423666	0.319108
C744	C	0.485407	0.076334	0.819108
C745	C	-0.028181	-0.368199	0.305468
C746	C	0.471819	0.131801	0.805468
C747	C	-0.056779	-0.344903	0.346001
C748	C	0.443221	0.155097	0.846001
C749	C	-0.071791	-0.377074	0.400179
C750	C	0.428209	0.122926	0.900179
C751	C	-0.058203	-0.432542	0.413818
C752	C	0.441797	0.067458	0.913818
H753	H	0.006579	-0.440911	0.289099
H754	H	0.506579	0.059089	0.789099
H755	H	-0.017067	-0.344383	0.265362
H756	H	0.482933	0.155617	0.765362
H757	H	-0.066838	-0.303842	0.335904
H758	H	0.433162	0.196158	0.835904
H759	H	-0.092963	-0.359829	0.430187
H760	H	0.407037	0.140171	0.930187
H761	H	-0.069317	-0.456357	0.453924
H762	H	0.430683	0.043643	0.953924
H763	H	0.056124	-0.793157	0.355062
H764	H	0.556124	-0.293157	0.855062
C765	C	0.022304	-0.667626	0.425360
C766	C	0.522304	-0.167626	0.925360
C767	C	0.054676	-0.704313	0.457865
C768	C	0.554676	-0.204313	0.957865
C769	C	0.068281	-0.759782	0.471497
C770	C	0.568281	-0.259782	0.971497
C771	C	0.049513	-0.778564	0.452624
C772	C	0.549513	-0.278564	0.952624
C773	C	0.017139	-0.741876	0.420116
C774	C	0.517139	-0.241876	0.920116
C775	C	0.003534	-0.686407	0.406485
C776	C	0.503534	-0.186407	0.906485
H777	H	0.068571	-0.690411	0.471838
H778	H	0.568571	-0.190411	0.971838
H779	H	0.092246	-0.786941	0.495561
H780	H	0.592246	-0.286941	0.995561
H781	H	0.059584	-0.819625	0.462715
H782	H	0.559584	-0.319625	0.962715
H783	H	0.003244	-0.755779	0.406143
H784	H	0.503244	-0.255779	0.906143
H785	H	-0.020432	-0.659248	0.382421
H786	H	0.479568	-0.159248	0.882421
H787	H	-0.063498	-0.886058	0.443304
H788	H	0.436502	-0.386058	0.943304
C789	C	0.101366	-0.893550	0.384064
C790	C	0.601366	-0.393550	0.884064
C791	C	0.119045	-0.928818	0.428454
C792	C	0.619045	-0.428818	0.928454
C793	C	0.174074	-0.957077	0.420534
C794	C	0.674074	-0.457077	0.920534
C795	C	0.211424	-0.950068	0.368224
C796	C	0.711424	-0.450068	0.868224
C797	C	0.193747	-0.914798	0.323830
C798	C	0.693747	-0.414798	0.823830
C799	C	0.138718	-0.886539	0.331750
C800	C	0.638718	-0.386539	0.831750
H801	H	0.091395	-0.934008	0.467180
H802	H	0.591395	-0.434008	0.967180
H803	H	0.187160	-0.983186	0.453398
H804	H	0.687160	-0.483186	0.953398
H805	H	0.252160	-0.970987	0.362362
H806	H	0.752160	-0.470987	0.862362
H807	H	0.221397	-0.909608	0.285104
H808	H	0.721397	-0.409608	0.785104
H809	H	0.125632	-0.860430	0.298887
H810	H	0.625632	-0.360430	0.798887
C811	C	-0.108743	-0.785657	0.414303
C812	C	0.391257	-0.285657	0.914303
C813	C	-0.135166	-0.792681	0.392699
C814	C	0.364834	-0.292681	0.892699
C815	C	-0.190195	-0.764425	0.400618
C816	C	0.309805	-0.264425	0.900618
C817	C	-0.218801	-0.729144	0.430141
C818	C	0.281199	-0.229144	0.930141
C819	C	-0.192379	-0.722119	0.451747
C820	C	0.307621	-0.222119	0.951747
C821	C	-0.137350	-0.750375	0.443828
C822	C	0.362650	-0.250375	0.943828
H823	H	-0.113989	-0.818799	0.370843
H824	H	0.386011	-0.318799	0.870843
H825	H	-0.209754	-0.769625	0.384623
H826	H	0.290246	-0.269625	0.884623
H827	H	-0.259537	-0.708227	0.436002
H828	H	0.240463	-0.208227	0.936002
H829	H	-0.213555	-0.696001	0.473603
H830	H	0.286445	-0.196001	0.973603
H831	H	-0.117790	-0.745174	0.459823
H832	H	0.382210	-0.245174	0.959823
C833	C	-0.227765	-0.623392	0.468907
C834	C	0.272235	-0.123392	0.968907
C835	C	-0.192513	-0.606399	0.468744
C836	C	0.307487	-0.106399	0.968744
C837	C	-0.164376	-0.638853	0.505481
C838	C	0.335624	-0.138853	1.005481
C839	C	-0.171491	-0.688300	0.542381
C840	C	0.328509	-0.188300	1.042381
C841	C	-0.206744	-0.705295	0.542544
C842	C	0.293256	-0.205295	1.042544
C843	C	-0.234881	-0.672841	0.505807
C844	C	0.265119	-0.172841	1.005807
H845	H	-0.187245	-0.569794	0.441428
H846	H	0.312755	-0.069794	0.941428
H847	H	-0.138279	-0.626272	0.505360
H848	H	0.361721	-0.126272	1.005360
H849	H	-0.150662	-0.712324	0.569576
H850	H	0.349338	-0.212324	1.069576
H851	H	-0.212013	-0.741900	0.569861
H852	H	0.287987	-0.241900	1.069861
H853	H	-0.260978	-0.685422	0.505929
H854	H	0.239022	-0.185422	1.005929
C855	C	-0.335479	-0.587370	0.504639
C856	C	0.164521	-0.087370	1.004639
C857	C	-0.328473	-0.572452	0.536880
C858	C	0.171527	-0.072452	1.036880
C859	C	-0.356761	-0.586031	0.592334
C860	C	0.143239	-0.086031	1.092334
C861	C	-0.392055	-0.614528	0.615546
C862	C	0.107945	-0.114528	1.115546
C863	C	-0.399063	-0.629447	0.583305
C864	C	0.100937	-0.129447	1.083305
C865	C	-0.370775	-0.615869	0.527851
C866	C	0.129225	-0.115869	1.027851
H867	H	-0.302345	-0.551355	0.519697
H868	H	0.197655	-0.051355	1.019697
H869	H	-0.351573	-0.574986	0.616201
H870	H	0.148427	-0.074986	1.116201
H871	H	-0.412996	-0.624580	0.656596
H872	H	0.087004	-0.124580	1.156596
H873	H	-0.425192	-0.650544	0.600488
H874	H	0.074808	-0.150544	1.100488
H875	H	-0.375963	-0.626913	0.503984
H876	H	0.124037	-0.126913	1.003984
H877	H	-0.327887	-0.507903	0.338181
H878	H	0.172113	-0.007903	0.838181
H879	H	-0.234840	-0.539009	0.307312
H880	H	0.265160	-0.039009	0.807312
