data_functionalizedCrystal
_audit_creation_method	'MofGen! by Chris Wilmer'
_symmetry_space_group_name_H-M	'P1'
_symmetry_Int_Tables_number	1
_symmetry_cell_setting	triclinic
loop_
_symmetry_equiv_pos_as_xyz
  x,y,z
_cell_length_a	11.169416
_cell_length_b	25.639242
_cell_length_c	25.639234
_cell_angle_alpha	90.028425
_cell_angle_beta	89.983334
_cell_angle_gamma	89.994824
loop_
_atom_site_label
_atom_site_type_symbol
_atom_site_fract_x
_atom_site_fract_y
_atom_site_fract_z
Zn1	Zn	-0.478043	-0.799354	-0.295791
Zn2	Zn	-0.678732	-0.799313	-0.208367
Zn3	Zn	-0.478044	-0.711923	-0.208353
Zn4	Zn	-0.678666	-0.711919	-0.295755
O5	O	-0.578371	-0.755627	-0.252067
O6	O	-0.504692	-0.872514	-0.284215
O7	O	-0.652139	-0.787706	-0.135200
O8	O	-0.310095	-0.723539	-0.219961
O9	O	-0.652138	-0.872484	-0.219985
O10	O	-0.310094	-0.787774	-0.284201
O11	O	-0.504694	-0.723500	-0.135190
O12	O	-0.504630	-0.638757	-0.219926
O13	O	-0.652024	-0.723532	-0.368925
O14	O	-0.652025	-0.638754	-0.284140
O15	O	-0.504628	-0.787771	-0.368951
O16	O	-0.846673	-0.787702	-0.219951
O17	O	-0.846624	-0.723493	-0.284154
C18	C	-0.578321	-0.619785	-0.252028
C19	C	-0.578329	-0.561671	-0.252024
C20	C	-0.655237	-0.201315	-0.285457
C21	C	-0.655244	-0.146711	-0.285464
O22	O	-0.720581	-0.118480	-0.313868
N23	N	-0.578392	-0.119388	-0.252085
C24	C	-0.501520	-0.146673	-0.218700
O25	O	-0.436151	-0.118419	-0.190309
C26	C	-0.501508	-0.201276	-0.218696
C27	C	-0.578374	-0.228596	-0.252074
C28	C	-0.732096	-0.228635	-0.318833
C29	C	-0.732091	-0.283235	-0.318825
C30	C	-0.655227	-0.310516	-0.285442
C31	C	-0.578369	-0.283196	-0.252066
C32	C	-0.424631	-0.228560	-0.185315
C33	C	-0.424626	-0.283167	-0.185314
C34	C	-0.501492	-0.310486	-0.218692
C35	C	-0.501501	-0.365078	-0.218675
N36	N	-0.578353	-0.392400	-0.252055
C37	C	-0.655216	-0.365119	-0.285438
C38	C	-0.501548	-0.032002	-0.218711
C39	C	-0.501565	0.022600	-0.218712
C40	C	-0.655287	0.022559	-0.285477
C41	C	-0.655276	-0.032045	-0.285473
C42	C	-0.578400	-0.059325	-0.252091
C43	C	-0.655200	-0.479784	-0.285419
C44	C	-0.655192	-0.534390	-0.285407
C45	C	-0.501466	-0.534343	-0.218644
C46	C	-0.501478	-0.479743	-0.218654
C47	C	-0.578349	-0.452465	-0.252046
O48	O	-0.436193	-0.393343	-0.190288
O49	O	-0.720563	-0.393380	-0.313829
C50	C	-0.890196	-0.755607	-0.252062
C51	C	-1.023596	-0.755646	-0.252077
C52	C	-0.265329	-0.755662	-0.252083
C53	C	-0.131929	-0.755676	-0.252090
C54	C	-0.578318	-0.755655	-0.388440
C55	C	-0.578296	-0.755668	-0.446554
C56	C	-0.578417	0.108000	-0.252100
C57	C	-0.578424	0.049886	-0.252098
C58	C	-0.654972	-0.789113	-0.697745
C59	C	-0.654997	-0.789108	-0.643141
O60	O	-0.720322	-0.817520	-0.614903
N61	N	-0.578238	-0.755679	-0.615828
C62	C	-0.501457	-0.722250	-0.643122
O63	O	-0.436171	-0.693815	-0.614876
C64	C	-0.501439	-0.722253	-0.697725
C65	C	-0.578194	-0.755688	-0.725035
C66	C	-0.731722	-0.822545	-0.725056
C67	C	-0.731695	-0.822551	-0.779656
C68	C	-0.654918	-0.789125	-0.806946
C69	C	-0.578167	-0.755694	-0.779636
C70	C	-0.424665	-0.688822	-0.725018
C71	C	-0.424655	-0.688827	-0.779625
C72	C	-0.501410	-0.722262	-0.806935
C73	C	-0.501363	-0.722274	-0.861527
N74	N	-0.578122	-0.755703	-0.888840
C75	C	-0.654900	-0.789128	-0.861550
C76	C	-0.501502	-0.722245	-0.528451
C77	C	-0.501514	-0.722244	-0.473849
C78	C	-0.655055	-0.789101	-0.473872
C79	C	-0.655037	-0.789104	-0.528475
C80	C	-0.578262	-0.755674	-0.555764
C81	C	-0.654836	-0.789139	-0.976215
C82	C	-0.654799	-0.789144	-1.030820
C83	C	-0.501263	-0.722285	-1.030792
C84	C	-0.501295	-0.722282	-0.976192
C85	C	-0.578092	-0.755711	-0.948904
O86	O	-0.436075	-0.693875	-0.889800
O87	O	-0.720186	-0.817553	-0.889802
C88	C	-0.578337	-0.755629	-0.116224
C89	C	-0.578022	-0.755718	-0.058110
H90	H	-0.717790	-0.556631	-0.312588
Br91	Br	-0.758971	-0.834524	-1.067881
H92	H	-0.717794	-0.457581	-0.312611
Br93	Br	-0.397183	-0.442665	-0.173345
H94	H	-0.362165	-0.661594	-0.702791
Br95	Br	-0.759257	-0.834463	-0.436825
H96	H	-0.717870	0.044781	-0.312661
H97	H	-0.794248	-0.849764	-0.702842
H98	H	-0.362042	-0.206325	-0.158133
H99	H	-0.438778	-0.695063	-0.953955
H100	H	-0.362016	-0.305375	-0.158132
Br101	Br	-0.836423	-0.191621	-0.364146
H102	H	-0.438749	-0.695072	-1.053022
H103	H	-0.794680	-0.305474	-0.346006
H104	H	-0.717865	-0.054285	-0.312653
Br105	Br	-0.397262	0.059670	-0.173404
Br106	Br	-0.759062	-0.834507	-0.939190
H107	H	-0.438948	-0.054210	-0.191524
H108	H	-0.438889	-0.556565	-0.191463
H109	H	-0.794201	-0.849775	-0.801888
H110	H	-0.717538	-0.816330	-0.550708
Br111	Br	-0.397320	-0.676875	-0.436791
Br112	Br	-0.320447	-0.643457	-0.816657
H113	H	-0.438971	-0.695023	-0.550666
