data_functionalizedCrystal
_audit_creation_method	'MofGen! by Chris Wilmer'
_symmetry_space_group_name_H-M	'P1'
_symmetry_Int_Tables_number	1
_symmetry_cell_setting	triclinic
loop_
_symmetry_equiv_pos_as_xyz
  x,y,z
_cell_length_a	21.295417
_cell_length_b	19.805407
_cell_length_c	19.805399
_cell_angle_alpha	89.982197
_cell_angle_beta	89.969157
_cell_angle_gamma	90.027823
loop_
_atom_site_label
_atom_site_type_symbol
_atom_site_fract_x
_atom_site_fract_y
_atom_site_fract_z
Zn1	Zn	-0.250669	1.034716	-0.382672
Zn2	Zn	-0.000669	1.284716	-0.132672
Zn3	Zn	0.249331	1.534716	0.117328
Zn4	Zn	0.499331	1.784716	0.367328
Zn5	Zn	-0.355938	1.034623	-0.269478
Zn6	Zn	-0.105938	1.284623	-0.019478
Zn7	Zn	0.144062	1.534623	0.230522
Zn8	Zn	0.394062	1.784623	0.480522
Zn9	Zn	-0.250681	0.921531	-0.269500
Zn10	Zn	-0.000681	1.171531	-0.019500
Zn11	Zn	0.249319	1.421531	0.230500
Zn12	Zn	0.499319	1.671531	0.480500
Zn13	Zn	-0.355899	0.921486	-0.382628
Zn14	Zn	-0.105899	1.171486	-0.132628
Zn15	Zn	0.144101	1.421486	0.117372
Zn16	Zn	0.394101	1.671486	0.367372
O17	O	-0.303297	0.978089	-0.326070
O18	O	-0.053297	1.228089	-0.076070
O19	O	0.196703	1.478089	0.173930
O20	O	0.446703	1.728089	0.423930
O21	O	-0.264644	1.129421	-0.367666
O22	O	-0.014644	1.379421	-0.117666
O23	O	0.235356	1.629421	0.132334
O24	O	0.485356	1.879421	0.382334
O25	O	-0.341996	1.019601	-0.174764
O26	O	-0.091996	1.269601	0.075236
O27	O	0.158004	1.519601	0.325236
O28	O	0.408004	1.769601	0.575236
O29	O	-0.162590	0.936603	-0.284541
O30	O	0.087410	1.186603	-0.034541
O31	O	0.337410	1.436603	0.215459
O32	O	0.587410	1.686603	0.465459
O33	O	-0.341984	1.129352	-0.284502
O34	O	-0.091984	1.379352	-0.034502
O35	O	0.158016	1.629352	0.215498
O36	O	0.408016	1.879352	0.465498
O37	O	-0.162581	1.019760	-0.367688
O38	O	0.087419	1.269760	-0.117688
O39	O	0.337419	1.519760	0.132312
O40	O	0.587419	1.769760	0.382312
O41	O	-0.264665	0.936513	-0.174781
O42	O	-0.014665	1.186513	0.075219
O43	O	0.235335	1.436513	0.325219
O44	O	0.485335	1.686513	0.575219
O45	O	-0.264628	0.826809	-0.284498
O46	O	-0.014628	1.076809	-0.034498
O47	O	0.235372	1.326809	0.215502
O48	O	0.485372	1.576809	0.465502
O49	O	-0.341919	0.936527	-0.477350
O50	O	-0.091919	1.186527	-0.227350
O51	O	0.158081	1.436527	0.022650
O52	O	0.408081	1.686527	0.272650
O53	O	-0.341931	0.826776	-0.367612
O54	O	-0.091931	1.076776	-0.117612
O55	O	0.158069	1.326776	0.132388
O56	O	0.408069	1.576776	0.382388
O57	O	-0.264607	1.019717	-0.477383
O58	O	-0.014607	1.269717	-0.227383
O59	O	0.235393	1.519717	0.022617
O60	O	0.485393	1.769717	0.272617
O61	O	-0.444022	1.019558	-0.284459
O62	O	-0.194022	1.269558	-0.034459
O63	O	0.055978	1.519558	0.215541
O64	O	0.305978	1.769558	0.465541
O65	O	-0.443994	0.936437	-0.367590
O66	O	-0.193994	1.186437	-0.117590
O67	O	0.056006	1.436437	0.132410
O68	O	0.306006	1.686437	0.382410
C69	C	-0.303277	0.802233	-0.326053
C70	C	-0.053277	1.052233	-0.076053
C71	C	0.196723	1.302233	0.173947
C72	C	0.446723	1.552233	0.423947
C73	C	-0.303284	0.727001	-0.326062
C74	C	-0.053284	0.977001	-0.076062
C75	C	0.196716	1.227001	0.173938
C76	C	0.446716	1.477001	0.423938
C77	C	-0.263084	0.691693	-0.369431
C78	C	-0.013084	0.941693	-0.119431
C79	C	0.236916	1.191693	0.130569
C80	C	0.486916	1.441693	0.380569
C81	C	-0.263087	0.621005	-0.369434
C82	C	-0.013087	0.871005	-0.119434
C83	C	0.236913	1.121005	0.130566
C84	C	0.486913	1.371005	0.380566
C85	C	-0.303294	0.585626	-0.326070
C86	C	-0.053294	0.835626	-0.076070
C87	C	0.196706	1.085626	0.173930
C88	C	0.446706	1.335626	0.423930
C89	C	-0.343496	0.620938	-0.282696
C90	C	-0.093496	0.870938	-0.032696
C91	C	0.156504	1.120938	0.217304
C92	C	0.406504	1.370938	0.467304
C93	C	-0.343489	0.691626	-0.282691
C94	C	-0.093489	0.941626	-0.032691
C95	C	0.156511	1.191626	0.217309
C96	C	0.406511	1.441626	0.467309
C97	C	-0.343524	0.335865	-0.282717
C98	C	-0.093524	0.585865	-0.032717
C99	C	0.156476	0.835865	0.217283
C100	C	0.406476	1.085865	0.467283
C101	C	-0.343529	0.265173	-0.282727
C102	C	-0.093529	0.515173	-0.032727
C103	C	0.156471	0.765173	0.217273
C104	C	0.406471	1.015173	0.467273
C105	C	-0.263122	0.265244	-0.369460
C106	C	-0.013122	0.515244	-0.119460
C107	C	0.236878	0.765244	0.130540
C108	C	0.486878	1.015244	0.380540
C109	C	-0.263115	0.335932	-0.369455
C110	C	-0.013115	0.585932	-0.119455
C111	C	0.236885	0.835932	0.130545
C112	C	0.486885	1.085932	0.380545
C113	C	-0.303315	0.371238	-0.326079
C114	C	-0.053315	0.621238	-0.076079
C115	C	0.196685	0.871238	0.173921
C116	C	0.446685	1.121238	0.423921
C117	C	-0.303310	0.447887	-0.326075
C118	C	-0.053310	0.697887	-0.076075
C119	C	0.196690	0.947887	0.173925
C120	C	0.446690	1.197887	0.423925
C121	C	-0.303303	0.508979	-0.326076
C122	C	-0.053303	0.758979	-0.076076
C123	C	0.196697	1.008979	0.173924
C124	C	0.446697	1.258979	0.423924
C125	C	-0.466848	0.978001	-0.326032
C126	C	-0.216848	1.228001	-0.076032
C127	C	0.033152	1.478001	0.173968
C128	C	0.283152	1.728001	0.423968
C129	C	-0.536816	0.978024	-0.326039
C130	C	-0.286816	1.228024	-0.076039
C131	C	-0.036816	1.478024	0.173961
C132	C	0.213184	1.728024	0.423961
C133	C	-0.569677	1.021344	-0.282797
C134	C	-0.319677	1.271344	-0.032797
C135	C	-0.069677	1.521344	0.217203
C136	C	0.180323	1.771344	0.467203
C137	C	-0.635419	1.021376	-0.282812
C138	C	-0.385419	1.271376	-0.032812
C139	C	-0.135419	1.521376	0.217188
C140	C	0.114581	1.771376	0.467188
C141	C	-0.668299	0.978076	-0.326062
C142	C	-0.418299	1.228076	-0.076062
C143	C	-0.168299	1.478076	0.173938
C144	C	0.081701	1.728076	0.423938
C145	C	-0.635431	0.934753	-0.369312
C146	C	-0.385431	1.184753	-0.119312
C147	C	-0.135431	1.434753	0.130688
C148	C	0.114569	1.684753	0.380688
C149	C	-0.569689	0.934728	-0.369301
C150	C	-0.319689	1.184728	-0.119301
C151	C	-0.069689	1.434728	0.130699
C152	C	0.180311	1.684728	0.380699
N153	N	-0.771562	0.918865	-0.331216
N154	N	-0.521562	1.168865	-0.081216
N155	N	-0.271562	1.418865	0.168784
N156	N	-0.021562	1.668865	0.418784
N157	N	-0.834014	0.918892	-0.331224
N158	N	-0.584014	1.168892	-0.081224
N159	N	-0.334014	1.418892	0.168776
N160	N	-0.084014	1.668892	0.418776
C161	C	-0.866374	0.978152	-0.326101
C162	C	-0.616374	1.228152	-0.076101
C163	C	-0.366374	1.478152	0.173899
C164	C	-0.116374	1.728152	0.423899
N165	N	-0.833923	1.037386	-0.320957
N166	N	-0.583923	1.287386	-0.070957
N167	N	-0.333923	1.537386	0.179043
N168	N	-0.083923	1.787386	0.429043
N169	N	-0.771466	1.037358	-0.320947
N170	N	-0.521466	1.287358	-0.070947
N171	N	-0.271466	1.537358	0.179053
N172	N	-0.021466	1.787358	0.429053
C173	C	-0.739584	0.978099	-0.326080
C174	C	-0.489584	1.228099	-0.076080
C175	C	-0.239584	1.478099	0.173920
C176	C	0.010416	1.728099	0.423920
C177	C	-0.970520	1.021509	-0.282873
C178	C	-0.720520	1.271509	-0.032873
C179	C	-0.470520	1.521509	0.217127
C180	C	-0.220520	1.771509	0.467127
C181	C	-1.036263	1.021542	-0.282893
C182	C	-0.786263	1.271542	-0.032893
C183	C	-0.536263	1.521542	0.217107
C184	C	-0.286263	1.771542	0.467107
C185	C	-1.036273	0.934914	-0.369390
C186	C	-0.786273	1.184914	-0.119390
C187	C	-0.536273	1.434914	0.130610
C188	C	-0.286273	1.684914	0.380610
C189	C	-0.970531	0.934887	-0.369373
C190	C	-0.720531	1.184887	-0.119373
C191	C	-0.470531	1.434887	0.130627
C192	C	-0.220531	1.684887	0.380627
C193	C	-0.937658	0.978184	-0.326111
C194	C	-0.687658	1.228184	-0.076111
C195	C	-0.437658	1.478184	0.173889
C196	C	-0.187658	1.728184	0.423889
C197	C	-0.139106	0.978197	-0.326122
C198	C	0.110894	1.228197	-0.076122
C199	C	0.360894	1.478197	0.173878
C200	C	0.610894	1.728197	0.423878
C201	C	-0.069138	0.978243	-0.326144
C202	C	0.180862	1.228243	-0.076144
C203	C	0.430862	1.478243	0.173856
C204	C	0.680862	1.728243	0.423856
C205	C	-0.303257	0.978127	-0.502612
C206	C	-0.053257	1.228127	-0.252612
C207	C	0.196743	1.478127	-0.002612
C208	C	0.446743	1.728127	0.247388
C209	C	-0.303240	0.978143	-0.577844
C210	C	-0.053240	1.228143	-0.327844
C211	C	0.196760	1.478143	-0.077844
C212	C	0.446760	1.728143	0.172156
C213	C	-0.303317	1.154632	-0.326086
C214	C	-0.053317	1.404632	-0.076086
C215	C	0.196683	1.654632	0.173914
C216	C	0.446683	1.904632	0.423914
C217	C	-0.303326	1.229864	-0.326094
C218	C	-0.053326	1.479864	-0.076094
C219	C	0.196674	1.729864	0.173906
C220	C	0.446674	1.979864	0.423906
C221	C	-0.262982	1.021461	-0.613207
C222	C	-0.012982	1.271461	-0.363207
C223	C	0.237018	1.521461	-0.113207
C224	C	0.487018	1.771461	0.136793
C225	C	-0.262963	1.021468	-0.683895
C226	C	-0.012963	1.271468	-0.433895
C227	C	0.237037	1.521468	-0.183895
C228	C	0.487037	1.771468	0.066105
C229	C	-0.303207	0.978160	-0.719220
C230	C	-0.053207	1.228160	-0.469220
C231	C	0.196793	1.478160	-0.219220
C232	C	0.446793	1.728160	0.030780
C233	C	-0.343468	0.934838	-0.683853
C234	C	-0.093468	1.184838	-0.433853
C235	C	0.156532	1.434838	-0.183853
C236	C	0.406532	1.684838	0.066147
C237	C	-0.343482	0.934828	-0.613166
C238	C	-0.093482	1.184828	-0.363166
C239	C	0.156518	1.434828	-0.113166
C240	C	0.406518	1.684828	0.136834
C241	C	-0.343409	0.934876	-0.968926
C242	C	-0.093409	1.184876	-0.718926
C243	C	0.156591	1.434876	-0.468926
C244	C	0.406591	1.684876	-0.218926
C245	C	-0.343393	0.934891	-1.039618
C246	C	-0.093393	1.184891	-0.789618
C247	C	0.156607	1.434891	-0.539618
C248	C	0.406607	1.684891	-0.289618
C249	C	-0.262890	1.021516	-1.039656
C250	C	-0.012890	1.271516	-0.789656
C251	C	0.237110	1.521516	-0.539656
C252	C	0.487110	1.771516	-0.289656
C253	C	-0.262905	1.021506	-0.968969
C254	C	-0.012905	1.271506	-0.718969
C255	C	0.237095	1.521506	-0.468969
C256	C	0.487095	1.771506	-0.218969
C257	C	-0.303162	0.978182	-0.933608
C258	C	-0.053162	1.228182	-0.683608
C259	C	0.196838	1.478182	-0.433608
C260	C	0.446838	1.728182	-0.183608
C261	C	-0.303181	0.978174	-0.856959
C262	C	-0.053181	1.228174	-0.606959
C263	C	0.196819	1.478174	-0.356959
C264	C	0.446819	1.728174	-0.106959
C265	C	-0.303193	0.978171	-0.795867
C266	C	-0.053193	1.228171	-0.545867
C267	C	0.196807	1.478171	-0.295867
C268	C	0.446807	1.728171	-0.045867
C269	C	-0.303291	0.978090	-0.150214
C270	C	-0.053291	1.228090	0.099786
C271	C	0.196709	1.478090	0.349786
C272	C	0.446709	1.728090	0.599786
C273	C	-0.303130	0.978205	-0.074982
C274	C	-0.053130	1.228205	0.175018
C275	C	0.196870	1.478205	0.425018
C276	C	0.446870	1.728205	0.675018
H277	H	-0.230353	0.592260	-0.404751
H278	H	0.019647	0.842260	-0.154751
H279	H	0.269647	1.092260	0.095249
H280	H	0.519647	1.342260	0.345249
H281	H	-0.376233	0.899573	-0.712620
H282	H	-0.126233	1.149573	-0.462620
H283	H	0.123767	1.399573	-0.212620
H284	H	0.373767	1.649573	0.037380
H285	H	-0.376165	0.899621	-1.068378
H286	H	-0.126165	1.149621	-0.818378
H287	H	0.123835	1.399621	-0.568378
H288	H	0.373835	1.649621	-0.318378
F289	F	-0.220136	1.067596	-0.721527
F290	F	0.029864	1.317596	-0.471527
F291	F	0.279864	1.567596	-0.221527
F292	F	0.529864	1.817596	0.028473
F293	F	-0.386324	0.227521	-0.236570
F294	F	-0.136324	0.477521	0.013430
F295	F	0.113676	0.727521	0.263430
F296	F	0.363676	0.977521	0.513430
F297	F	-0.386255	0.888766	-0.931301
F298	F	-0.136255	1.138766	-0.681301
F299	F	0.113745	1.388766	-0.431301
F300	F	0.363745	1.638766	-0.181301
F301	F	-1.071262	0.888834	-0.415424
F302	F	-0.821262	1.138834	-0.165424
F303	F	-0.571262	1.388834	0.084576
F304	F	-0.321262	1.638834	0.334576
F305	F	-1.071236	1.067656	-0.236871
F306	F	-0.821236	1.317656	0.013129
F307	F	-0.571236	1.567656	0.263129
F308	F	-0.321236	1.817656	0.513129
H309	H	-0.376259	0.899547	-0.584375
H310	H	-0.126259	1.149547	-0.334375
H311	H	0.123741	1.399547	-0.084375
H312	H	0.373741	1.649547	0.165625
H313	H	-0.230136	1.056774	-0.940210
H314	H	0.019864	1.306774	-0.690210
H315	H	0.269864	1.556774	-0.440210
H316	H	0.519864	1.806774	-0.190210
F317	F	-0.935557	0.888777	-0.415395
F318	F	-0.685557	1.138777	-0.165395
F319	F	-0.435557	1.388777	0.084605
F320	F	-0.185557	1.638777	0.334605
F321	F	-0.220151	1.067560	-0.575617
F322	F	0.029849	1.317560	-0.325617
F323	F	0.279849	1.567560	-0.075617
F324	F	0.529849	1.817560	0.174383
F325	F	-0.935532	1.067588	-0.236830
F326	F	-0.685532	1.317588	0.013170
F327	F	-0.435532	1.567588	0.263170
F328	F	-0.185532	1.817588	0.513170
H329	H	-0.230108	1.056791	-1.068455
H330	H	0.019892	1.306791	-0.818455
H331	H	0.269892	1.556791	-0.568455
H332	H	0.519892	1.806791	-0.318455
H333	H	-0.662180	1.056654	-0.247599
H334	H	-0.412180	1.306654	0.002401
H335	H	-0.162180	1.556654	0.252401
H336	H	0.087820	1.806654	0.502401
F337	F	-0.670424	0.888673	-0.415345
F338	F	-0.420424	1.138673	-0.165345
F339	F	-0.170424	1.388673	0.084655
F340	F	0.079576	1.638673	0.334655
F341	F	-0.220325	0.373581	-0.415611
F342	F	0.029675	0.623581	-0.165611
F343	F	0.279675	0.873581	0.084389
F344	F	0.529675	1.123581	0.334389
F345	F	-0.220292	0.729340	-0.415589
F346	F	0.029708	0.979340	-0.165589
F347	F	0.279708	1.229340	0.084411
F348	F	0.529708	1.479340	0.334411
H349	H	-0.230388	0.236489	-0.404777
H350	H	0.019612	0.486489	-0.154777
H351	H	0.269612	0.736489	0.095223
H352	H	0.519612	0.986489	0.345223
F353	F	-0.386284	0.583283	-0.236542
F354	F	-0.136284	0.833283	0.013458
F355	F	0.113716	1.083283	0.263458
F356	F	0.363716	1.333283	0.513458
H357	H	-0.376257	0.364603	-0.247398
H358	H	-0.126257	0.614603	0.002602
H359	H	0.123743	0.864603	0.252602
H360	H	0.373743	1.114603	0.502602
H361	H	-0.542934	0.899451	-0.404514
H362	H	-0.292934	1.149451	-0.154514
H363	H	-0.042934	1.399451	0.095486
H364	H	0.207066	1.649451	0.345486
H365	H	-0.542914	1.056601	-0.247572
H366	H	-0.292914	1.306601	0.002428
H367	H	-0.042914	1.556601	0.252428
H368	H	0.207086	1.806601	0.502428
F369	F	-0.386276	0.729202	-0.236532
F370	F	-0.136276	0.979202	0.013468
F371	F	0.113724	1.229202	0.263468
F372	F	0.363724	1.479202	0.513468
