data_functionalizedCrystal
_audit_creation_method	'MofGen! by Chris Wilmer'
_symmetry_space_group_name_H-M	'P1'
_symmetry_Int_Tables_number	1
_symmetry_cell_setting	triclinic
loop_
_symmetry_equiv_pos_as_xyz
  x,y,z
_cell_length_a	27.354012
_cell_length_b	27.353283
_cell_length_c	27.349551
_cell_angle_alpha	60.005606
_cell_angle_beta	60.011434
_cell_angle_gamma	59.993282
loop_
_atom_site_label
_atom_site_type_symbol
_atom_site_fract_x
_atom_site_fract_y
_atom_site_fract_z
O1	O	0.067635	-0.714267	0.597330
O2	O	0.567635	-0.214267	1.097330
O3	O	0.025429	-0.556105	0.481282
O4	O	0.525429	-0.056105	0.981282
O5	O	0.125575	-0.656186	0.481214
O6	O	0.625575	-0.156186	0.981214
O7	O	-0.032512	-0.614186	0.597397
O8	O	0.467488	-0.114186	1.097397
O9	O	0.158797	-0.622968	0.514367
O10	O	0.658797	-0.122968	1.014367
O11	O	0.058650	-0.522887	0.514434
O12	O	0.558650	-0.022887	1.014434
O13	O	0.100856	-0.681048	0.630482
O14	O	0.600856	-0.181048	1.130482
Zn15	Zn	0.085028	-0.596693	0.577722
Zn16	Zn	0.585028	-0.096693	1.077722
Zn17	Zn	0.041257	-0.640460	0.534042
Zn18	Zn	0.541257	-0.140460	1.034042
O19	O	0.000709	-0.580967	0.630549
O20	O	0.500709	-0.080967	1.130549
N21	N	0.114901	-0.566828	0.607534
N22	N	0.614901	-0.066828	1.107534
N23	N	0.011389	-0.670331	0.504229
N24	N	0.511389	-0.170331	1.004229
C25	C	0.179404	-0.338196	0.672015
C26	C	0.679404	0.161804	1.172015
C27	C	0.179501	-0.502386	0.836160
C28	C	0.679501	-0.002386	1.336160
C29	C	0.179415	-0.502363	0.671996
C30	C	0.679415	-0.002363	1.171996
C31	C	0.343611	-0.502373	0.671960
C32	C	0.843611	-0.002373	1.171960
C33	C	0.197478	-0.392371	0.690061
C34	C	0.697478	0.107629	1.190061
C35	C	0.197534	-0.484321	0.781984
C36	C	0.697534	0.015679	1.281984
C37	C	0.289434	-0.484312	0.690032
C38	C	0.789434	0.015688	1.190032
C39	C	0.197486	-0.484308	0.690051
C40	C	0.697486	0.015692	1.190051
C41	C	0.156398	-0.269238	0.649045
C42	C	0.656398	0.230762	1.149045
C43	C	0.156418	-0.525342	0.649015
C44	C	0.656418	-0.025342	1.149015
C45	C	0.220484	-0.461329	0.713032
C46	C	0.720484	0.038671	1.213032
C47	C	0.443889	-0.485097	0.619172
C48	C	0.943889	0.014903	1.119172
C49	C	0.506571	-0.505993	0.598266
C50	C	1.006571	-0.005993	1.098266
C51	C	0.506589	-0.607412	0.636940
C52	C	1.006589	-0.107412	1.136940
C53	C	0.443909	-0.586515	0.657848
C54	C	0.943909	-0.086515	1.157848
C55	C	0.171510	-0.237888	0.587422
C56	C	0.671510	0.262112	1.087422
C57	C	0.150593	-0.175201	0.566543
C58	C	0.650593	0.324799	1.066543
C59	C	0.099458	-0.175218	0.668913
C60	C	0.599458	0.324782	1.168913
C61	C	0.120375	-0.237905	0.689792
C62	C	0.620375	0.262095	1.189792
C63	C	0.094789	-0.510201	0.664176
C64	C	0.594789	-0.010201	1.164176
C65	C	0.073888	-0.531091	0.643278
C66	C	0.573888	-0.031091	1.143278
C67	C	0.176239	-0.582263	0.592072
C68	C	0.676239	-0.082263	1.092072
C69	C	0.197142	-0.561373	0.612963
C70	C	0.697142	-0.061373	1.112963
C71	C	0.094933	-0.510244	0.936476
C72	C	0.594933	-0.010244	1.436476
C73	C	0.074073	-0.531151	0.999161
C74	C	0.574073	-0.031151	1.499161
C75	C	0.176453	-0.582335	0.999126
C76	C	0.676453	-0.082335	1.499126
C77	C	0.197312	-0.561429	0.936439
C78	C	0.697312	-0.061429	1.436439
C79	C	0.156551	-0.525382	0.905116
C80	C	0.656551	-0.025382	1.405116
C81	C	0.412561	-0.525357	0.648961
C82	C	0.912561	-0.025357	1.148961
C83	C	-0.098513	-0.688235	0.485867
C84	C	0.401487	-0.188235	0.985867
C85	C	-0.006461	-0.688368	0.394066
C86	C	0.493539	-0.188368	0.894066
C87	C	-0.006645	-0.780264	0.486040
C88	C	0.493355	-0.280264	0.986040
C89	C	-0.006630	-0.688361	0.486097
C90	C	0.493370	-0.188361	0.986097
C91	C	-0.029562	-0.711308	0.463018
C92	C	0.470438	-0.211308	0.963018
N93	N	0.537030	-0.566846	0.607436
N94	N	1.037030	-0.066846	1.107436
O95	O	0.741877	-0.576849	0.459995
O96	O	1.241877	-0.076849	0.959995
O97	O	0.742050	-0.693241	0.618010
O98	O	1.242050	-0.193241	1.118010
O99	O	0.741986	-0.692977	0.517791
O100	O	1.241986	-0.192977	1.017791
O101	O	0.741941	-0.577114	0.560214
O102	O	1.241941	-0.077114	1.060214
O103	O	0.642405	-0.659839	0.551046
O104	O	1.142405	-0.159839	1.051046
O105	O	0.642469	-0.660104	0.651265
O106	O	1.142469	-0.160104	1.151265
O107	O	0.642296	-0.543712	0.493251
O108	O	1.142296	-0.043712	0.993251
Zn109	Zn	0.626572	-0.596646	0.577538
Zn110	Zn	1.126572	-0.096646	1.077538
Zn111	Zn	0.757774	-0.640307	0.533723
Zn112	Zn	1.257774	-0.140307	1.033723
O113	O	0.642360	-0.543976	0.593469
O114	O	1.142360	-0.043976	1.093469
N115	N	0.847316	-0.670107	0.503818
N116	N	1.347316	-0.170107	1.003818
N117	N	0.114877	-0.144758	0.607577
N118	N	0.614877	0.355242	1.107577
O119	O	-0.032498	0.060193	0.597441
O120	O	0.467502	0.560193	1.097441
O121	O	0.125523	0.060193	0.481067
O122	O	0.625523	0.560193	0.981067
O123	O	0.025289	0.060179	0.481345
O124	O	0.525289	0.560179	0.981345
O125	O	0.067736	0.060207	0.597163
O126	O	0.567736	0.560207	1.097163
O127	O	0.058511	-0.039410	0.514543
O128	O	0.558511	0.460590	1.014543
O129	O	0.158745	-0.039397	0.514265
O130	O	0.658745	0.460603	1.014265
O131	O	0.000724	-0.039396	0.630638
O132	O	0.500724	0.460604	1.130638
Zn133	Zn	0.085009	-0.055208	0.577722
Zn134	Zn	0.585009	0.444792	1.077722
Zn135	Zn	0.041238	0.076005	0.533983
Zn136	Zn	0.541238	0.576005	1.033983
O137	O	0.100958	-0.039382	0.630360
O138	O	0.600958	0.460618	1.130360
N139	N	0.011362	0.165555	0.504130
N140	N	0.511362	0.665555	1.004130
N141	N	0.115121	-0.566884	1.029592
N142	N	0.615121	-0.066884	1.529592
O143	O	0.104990	-0.714248	1.234528
O144	O	0.604990	-0.214248	1.734528
O145	O	-0.011371	-0.556177	1.234539
O146	O	0.488629	-0.056177	1.734539
O147	O	-0.011103	-0.656395	1.234497
O148	O	0.488897	-0.156395	1.734497
O149	O	0.104722	-0.614030	1.234569
O150	O	0.604722	-0.114030	1.734569
O151	O	0.022090	-0.623190	1.134913
O152	O	0.522090	-0.123190	1.634913
O153	O	0.021822	-0.522972	1.134954
O154	O	0.521822	-0.022972	1.634954
O155	O	0.138182	-0.681044	1.134943
O156	O	0.638182	-0.181044	1.634943
Zn157	Zn	0.085272	-0.596736	1.119137
Zn158	Zn	0.585272	-0.096736	1.619137
Zn159	Zn	0.041539	-0.640484	1.250344
Zn160	Zn	0.541539	-0.140484	1.750344
O161	O	0.137914	-0.580826	1.134984
O162	O	0.637914	-0.080826	1.634984
N163	N	0.011689	-0.670343	1.339890
N164	N	0.511689	-0.170343	1.839890
C165	C	0.038085	-0.519567	0.481870
C166	C	0.538085	-0.019567	0.981870
C167	C	0.162104	-0.643505	0.481786
C168	C	0.662104	-0.143505	0.981786
C169	C	0.088200	-0.717587	0.629893
C170	C	0.588200	-0.217587	1.129893
C171	C	-0.035819	-0.593649	0.629977
C172	C	0.464181	-0.093649	1.129977
C173	C	0.692280	-0.692701	0.654545
C174	C	1.192280	-0.192701	1.154545
C175	C	0.692203	-0.692374	0.530435
C176	C	1.192203	-0.192374	1.030435
C177	C	0.692063	-0.544251	0.456717
C178	C	1.192063	-0.044251	0.956717
C179	C	0.692144	-0.544580	0.580825
C180	C	1.192144	-0.044580	1.080825
C181	C	0.162000	0.010521	0.481600
C182	C	0.662000	0.510521	0.981600
C183	C	0.037914	0.010381	0.481984
C184	C	0.537914	0.510381	0.981984
C185	C	-0.035795	0.010399	0.630065
C186	C	0.464205	0.510399	1.130065
C187	C	0.088333	0.010415	0.629722
C188	C	0.588333	0.510415	1.129722
C189	C	-0.010799	-0.519660	1.184747
C190	C	0.489201	-0.019660	1.684747
C191	C	-0.010461	-0.643761	1.184677
C192	C	0.489539	-0.143761	1.684677
C193	C	0.137610	-0.717561	1.184734
C194	C	0.637610	-0.217561	1.684734
C195	C	0.137280	-0.593452	1.184783
C196	C	0.637280	-0.093452	1.684783
H197	H	0.061737	-0.480889	0.910978
H198	H	0.561737	0.019111	1.410978
H199	H	0.209407	-0.611608	0.562721
H200	H	0.709407	-0.111608	1.062721
C201	C	0.186347	-0.778096	1.184824
C202	C	0.686347	-0.278096	1.684824
C203	C	0.202277	-0.804370	1.236061
C204	C	0.702277	-0.304370	1.736061
C205	C	0.247177	-0.860131	1.236159
C206	C	0.747177	-0.360131	1.736159
H207	H	0.171954	-0.803318	1.184836
H208	H	0.671954	-0.303318	1.684836
H209	H	0.220401	-0.772875	1.150122
H210	H	0.720401	-0.272875	1.650122
H211	H	0.168231	-0.809594	1.270754
H212	H	0.668231	-0.309594	1.770754
H213	H	0.216681	-0.779165	1.236059
H214	H	0.716681	-0.279165	1.736059
H215	H	0.281230	-0.854910	1.201458
H216	H	0.781230	-0.354910	1.701458
H217	H	0.232778	-0.885348	1.236171
H218	H	0.732778	-0.385348	1.736171
H219	H	0.257995	-0.877963	1.270921
H220	H	0.757995	-0.377963	1.770921
C221	C	-0.059049	-0.655713	1.184622
C222	C	0.440951	-0.155713	1.684622
C223	C	-0.110329	-0.604612	1.184617
C224	C	0.389671	-0.104612	1.684617
C225	C	-0.155103	-0.615603	1.184576
C226	C	0.344897	-0.115603	1.684576
H227	H	-0.045272	-0.665186	1.149886
H228	H	0.454728	-0.165186	1.649886
H229	H	-0.068420	-0.688357	1.219345
H230	H	0.431580	-0.188357	1.719345
H231	H	-0.100959	-0.571978	1.149898
H232	H	0.399041	-0.071978	1.649898
H233	H	-0.124123	-0.595131	1.219351
H234	H	0.375877	-0.095131	1.719351
H235	H	-0.164474	-0.648246	1.219298
H236	H	0.335526	-0.148246	1.719298
H237	H	-0.141321	-0.625076	1.149838
H238	H	0.358679	-0.125076	1.649838
H239	H	-0.189904	-0.580935	1.184578
H240	H	0.310096	-0.080935	1.684578
H241	H	0.097215	-0.763020	0.666340
H242	H	0.597215	-0.263020	1.166340
H243	H	0.692221	-0.728771	0.521355
H244	H	1.192221	-0.228771	1.021355
C245	C	0.025995	-0.459019	0.433249
C246	C	0.525995	0.040981	0.933249
C247	C	-0.022139	-0.448465	0.419587
C248	C	0.477861	0.051535	0.919587
C249	C	-0.033288	-0.392699	0.374794
C250	C	0.466712	0.107301	0.874794
H251	H	0.016473	-0.428525	0.446968
H252	H	0.516473	0.071475	0.946968
H253	H	0.060607	-0.458849	0.398404
H254	H	0.560607	0.041151	0.898404
H255	H	-0.056744	-0.448630	0.454424
H256	H	0.443256	0.051370	0.954424
H257	H	-0.012630	-0.478944	0.405857
H258	H	0.487370	0.021056	0.905857
H259	H	0.001324	-0.392528	0.339950
H260	H	0.501324	0.107472	0.839950
H261	H	-0.042808	-0.362210	0.388518
H262	H	0.457192	0.137790	0.888518
H263	H	-0.065945	-0.385533	0.365515
H264	H	0.434055	0.114467	0.865515
C265	C	0.222361	0.010848	0.432695
C266	C	0.722361	0.510848	0.932695
C267	C	0.222240	0.010931	0.381521
C268	C	0.722240	0.510931	0.881521
C269	C	0.277839	0.011219	0.336463
C270	C	0.777839	0.511219	0.836463
H271	H	0.229537	0.045644	0.423297
H272	H	0.729537	0.545644	0.923297
H273	H	0.252984	-0.023818	0.446240
H274	H	0.752984	0.476182	0.946240
H275	H	0.191626	0.045595	0.367977
H276	H	0.691626	0.545595	0.867977
H277	H	0.215074	-0.023861	0.390899
H278	H	0.715074	0.476139	0.890899
H279	H	0.308462	-0.023448	0.350008
H280	H	0.808462	0.476552	0.850008
H281	H	0.285010	0.046014	0.327070
H282	H	0.785010	0.546014	0.827070
H283	H	0.277765	0.011269	0.301738
H284	H	0.777765	0.511269	0.801738
C285	C	0.025927	0.010273	0.433439
C286	C	0.525927	0.510273	0.933439
C287	C	0.066727	-0.040962	0.417479
C288	C	0.566727	0.459038	0.917479
C289	C	0.055713	-0.041080	0.372754
C290	C	0.555713	0.458920	0.872754
H291	H	-0.013692	0.010238	0.448001
H292	H	0.486308	0.510238	0.948001
H293	H	0.030410	0.044980	0.399356
H294	H	0.530410	0.544980	0.899356
H295	H	0.062239	-0.075660	0.451555
H296	H	0.562239	0.424340	0.951555
H297	H	0.106350	-0.040938	0.402906
H298	H	0.606350	0.459062	0.902906
H299	H	0.060196	-0.006373	0.338670
H300	H	0.560196	0.493627	0.838670
H301	H	0.016093	-0.041113	0.387321
H302	H	0.516093	0.458887	0.887321
H303	H	0.083397	-0.075839	0.361915
H304	H	0.583397	0.424161	0.861915
C305	C	0.185736	-0.581247	1.184771
C306	C	0.685736	-0.081247	1.684771
C307	C	0.164032	-0.522780	1.184768
C308	C	0.664032	-0.022780	1.684768
C309	C	0.208655	-0.511513	1.184749
C310	C	0.708655	-0.011513	1.684749
H311	H	0.196675	-0.608819	1.219490
H312	H	0.696675	-0.108819	1.719490
H313	H	0.219788	-0.585681	1.150031
H314	H	0.719788	-0.085681	1.650031
H315	H	0.129990	-0.518351	1.219505
H316	H	0.629990	-0.018351	1.719505
H317	H	0.153097	-0.495195	1.150051
H318	H	0.653097	0.004805	1.650051
H319	H	0.242708	-0.515947	1.150009
H320	H	0.742708	-0.015947	1.650009
H321	H	0.219591	-0.539089	1.219469
H322	H	0.719591	-0.039089	1.719469
H323	H	0.193938	-0.471841	1.184742
H324	H	0.693938	0.028159	1.684742
H325	H	0.692323	-0.729239	0.699929
H326	H	1.192323	-0.229239	1.199929
H327	H	0.692005	-0.507708	0.411338
H328	H	1.192005	-0.007708	0.911338
C329	C	0.692095	-0.496112	0.593050
C330	C	1.192095	0.003888	1.093050
C331	C	0.692132	-0.517822	0.651505
C332	C	1.192132	-0.017822	1.151505
C333	C	0.692079	-0.473188	0.662791
C334	C	1.192079	0.026812	1.162791
H335	H	0.726787	-0.485153	0.565469
H336	H	1.226787	0.014847	1.065469
H337	H	0.657331	-0.462068	0.588645
H338	H	1.157331	0.037932	1.088645
H339	H	0.726893	-0.551855	0.655905
H340	H	1.226893	-0.051855	1.155905
H341	H	0.657442	-0.528777	0.679099
H342	H	1.157442	-0.028777	1.179099
H343	H	0.657315	-0.439144	0.658386
H344	H	1.157315	0.060856	1.158386
H345	H	0.726772	-0.462232	0.635207
H346	H	1.226772	0.037768	1.135207
H347	H	0.692099	-0.487910	0.702455
H348	H	1.192099	0.012090	1.202455
H349	H	-0.047330	-0.474261	1.184750
H350	H	0.452670	0.025739	1.684750
H351	H	0.097420	0.010424	0.666105
H352	H	0.597420	0.510424	1.166105
C353	C	0.007148	-0.514614	1.033095
C354	C	0.507148	-0.014614	1.533095
C355	C	-0.024079	-0.478556	0.992242
C356	C	0.475921	0.021444	1.492242
C357	C	-0.085731	-0.463305	1.023481
C358	C	0.414269	0.036695	1.523481
H359	H	-0.003203	-0.550009	1.057547
H360	H	0.496797	-0.050009	1.557547
H361	H	-0.003143	-0.493321	1.057540
H362	H	0.496857	0.006679	1.557540
H363	H	-0.013792	-0.499848	0.967808
H364	H	0.486208	0.000152	1.467808
H365	H	-0.013746	-0.443153	0.967789
H366	H	0.486254	0.056847	1.467789
H367	H	-0.096022	-0.442013	1.047925
H368	H	0.403978	0.057987	1.547925
H369	H	-0.096075	-0.498704	1.047931
H370	H	0.403925	0.001296	1.547931
H371	H	-0.106926	-0.438834	0.995767
H372	H	0.393074	0.061166	1.495767
C373	C	0.220804	-0.621487	1.033026
C374	C	0.720804	-0.121487	1.533026
C375	C	0.279232	-0.630282	0.992146
C376	C	0.779232	-0.130282	1.492146
C377	C	0.320102	-0.666359	1.023352
C378	C	0.820102	-0.166359	1.523352
H379	H	0.214874	-0.602406	1.057488
H380	H	0.714874	-0.102406	1.557488
H381	H	0.214829	-0.659082	1.057457
H382	H	0.714829	-0.159082	1.557457
H383	H	0.285204	-0.592694	0.967725
H384	H	0.785204	-0.092694	1.467725
H385	H	0.285181	-0.649370	0.967682
H386	H	0.785181	-0.149370	1.467682
H387	H	0.314127	-0.703954	1.047784
H388	H	0.814127	-0.203954	1.547784
H389	H	0.314166	-0.647275	1.047814
H390	H	0.814166	-0.147275	1.547814
H391	H	0.359749	-0.672336	0.995620
H392	H	0.859749	-0.172336	1.495620
H393	H	0.207509	-0.652460	0.445301
H394	H	0.707509	-0.152460	0.945301
H395	H	0.247489	-0.573760	0.910909
H396	H	0.747489	-0.073760	1.410909
H397	H	-0.081177	0.010398	0.666600
H398	H	0.418823	0.510398	1.166600
C399	C	-0.096334	-0.581843	0.678695
C400	C	0.403666	-0.081843	1.178695
C401	C	-0.096338	-0.633013	0.729896
C402	C	0.403662	-0.133013	1.229896
C403	C	-0.152075	-0.622162	0.774784
C404	C	0.347925	-0.122162	1.274784
H405	H	-0.103674	-0.549228	0.688138
H406	H	0.396326	-0.049228	1.188138
H407	H	-0.126801	-0.572396	0.664970
H408	H	0.373199	-0.072396	1.164970
H409	H	-0.065879	-0.642452	0.743619
H410	H	0.434121	-0.142452	1.243619
H411	H	-0.089008	-0.665635	0.720472
H412	H	0.410992	-0.165635	1.220472
H413	H	-0.182543	-0.612716	0.761059
H414	H	0.317457	-0.112716	1.261059
H415	H	-0.159411	-0.589546	0.784223
H416	H	0.340589	-0.089546	1.284223
H417	H	-0.152087	-0.656881	0.809528
H418	H	0.347913	-0.156881	1.309528
H419	H	0.061625	-0.480862	0.693528
H420	H	0.561625	0.019138	1.193528
H421	H	0.023705	-0.518748	0.655609
H422	H	0.523705	-0.018748	1.155609
H423	H	0.247325	-0.573698	0.600612
H424	H	0.747325	-0.073698	1.100612
H425	H	0.418403	-0.619300	0.682106
H426	H	0.918403	-0.119300	1.182106
H427	H	0.532110	-0.657210	0.644171
H428	H	1.032110	-0.157210	1.144171
H429	H	0.532080	-0.473208	0.574011
H430	H	1.032080	0.026792	1.074011
H431	H	0.200842	-0.263395	0.554238
H432	H	0.700842	0.236605	1.054238
C433	C	0.409961	-0.418677	0.609494
C434	C	0.909961	0.081323	1.109494
C435	C	0.450818	-0.387897	0.578946
C436	C	0.950818	0.112103	1.078946
C437	C	0.419588	-0.326711	0.570024
C438	C	0.919588	0.173289	1.070024
H439	H	0.385493	-0.403892	0.586511
H440	H	0.885493	0.096108	1.086511
H441	H	0.385534	-0.412836	0.647154
H442	H	0.885534	0.087164	1.147154
H443	H	0.475234	-0.393734	0.541292
H444	H	0.975234	0.106266	1.041292
H445	H	0.475287	-0.402663	0.601919
H446	H	0.975287	0.097337	1.101919
H447	H	0.395161	-0.320870	0.607684
H448	H	0.895161	0.179130	1.107684
H449	H	0.395121	-0.311932	0.547042
H450	H	0.895121	0.188068	1.047042
H451	H	0.447304	-0.305820	0.549301
H452	H	0.947304	0.194180	1.049301
H453	H	0.162897	-0.149674	0.516363
H454	H	0.662897	0.350326	1.016363
C455	C	0.060334	-0.141304	0.713246
C456	C	0.560334	0.358696	1.213246
C457	C	0.051573	-0.182179	0.771684
C458	C	0.551573	0.317821	1.271684
C459	C	0.015528	-0.150961	0.812540
C460	C	0.515528	0.349039	1.312540
H461	H	0.079422	-0.116846	0.707297
H462	H	0.579422	0.383154	1.207297
H463	H	0.022730	-0.116866	0.707275
H464	H	0.522730	0.383134	1.207275
H465	H	0.089170	-0.206607	0.777653
H466	H	0.589170	0.293393	1.277653
H467	H	0.032478	-0.206638	0.777652
H468	H	0.532478	0.293362	1.277652
H469	H	-0.022076	-0.126523	0.806569
H470	H	0.477924	0.373477	1.306569
H471	H	0.034620	-0.126504	0.806585
H472	H	0.534620	0.373496	1.306585
H473	H	0.009574	-0.178690	0.852194
H474	H	0.509574	0.321310	1.352194
H475	H	0.108067	-0.263426	0.739970
H476	H	0.608067	0.236574	1.239970
