data_functionalizedCrystal
_audit_creation_method	'MofGen! by Chris Wilmer'
_symmetry_space_group_name_H-M	'P1'
_symmetry_Int_Tables_number	1
_symmetry_cell_setting	triclinic
loop_
_symmetry_equiv_pos_as_xyz
  x,y,z
_cell_length_a	14.519709
_cell_length_b	15.995350
_cell_length_c	13.596369
_cell_angle_alpha	89.996243
_cell_angle_beta	90.000291
_cell_angle_gamma	83.586260
loop_
_atom_site_label
_atom_site_type_symbol
_atom_site_fract_x
_atom_site_fract_y
_atom_site_fract_z
O1	O	1.223669	0.109760	-0.081658
O2	O	1.723669	0.609760	0.418342
O3	O	0.955169	0.122685	-0.081688
O4	O	1.455169	0.622685	0.418312
O5	O	1.096759	-0.005654	-0.081671
O6	O	1.596759	0.494346	0.418329
O7	O	1.082079	0.238099	-0.081675
O8	O	1.582079	0.738099	0.418325
O9	O	1.096744	-0.005661	0.081912
O10	O	1.596744	0.494339	0.581912
O11	O	0.955155	0.122679	0.081895
O12	O	1.455155	0.622679	0.581895
O13	O	1.223655	0.109753	0.081925
O14	O	1.723655	0.609753	0.581925
Zn15	Zn	1.089403	0.116215	0.107882
Zn16	Zn	1.589403	0.616215	0.607882
Zn17	Zn	1.089421	0.116224	-0.107645
Zn18	Zn	1.589421	0.616224	0.392355
O19	O	1.082065	0.238093	0.081908
O20	O	1.582065	0.738093	0.581908
C21	C	0.920803	0.122080	0.000100
C22	C	1.420803	0.622080	0.500100
C23	C	0.818425	0.120275	0.000088
C24	C	1.318425	0.620275	0.500088
C25	C	0.443541	0.113629	0.000133
C26	C	0.943541	0.613629	0.500133
C27	C	0.547846	0.115475	0.000120
C28	C	1.047846	0.615475	0.500120
C29	C	0.630980	0.116952	0.000110
C30	C	1.130980	0.616952	0.500110
C31	C	0.735291	0.118797	0.000099
C32	C	1.235291	0.618797	0.500099
C33	C	1.096145	-0.036853	0.000118
C34	C	1.596145	0.463147	0.500118
C35	C	1.094325	-0.129806	0.000112
C36	C	1.594325	0.370194	0.500112
C37	C	1.087791	-0.467563	0.000115
C38	C	1.587791	0.032437	0.500115
C39	C	0.986954	-0.420280	-0.000263
C40	C	1.486954	0.079720	0.499737
C41	C	0.988773	-0.323587	0.000106
C42	C	1.488773	0.176413	0.500106
C43	C	1.091032	-0.299998	0.000113
C44	C	1.591032	0.200002	0.500113
C45	C	1.140761	-0.341005	0.093531
C46	C	1.640761	0.158995	0.593531
C47	C	1.138228	-0.437644	0.093609
C48	C	1.638228	0.062356	0.593609
C49	C	1.140327	-0.437992	-0.092415
C50	C	1.640327	0.062008	0.407585
C51	C	1.140303	-0.341046	-0.093650
C52	C	1.640303	0.158954	0.406350
C53	C	1.092869	-0.205298	0.000115
C54	C	1.592869	0.294702	0.500115
C55	C	1.085957	-0.562264	0.000119
C56	C	1.585957	-0.062264	0.500119
C57	C	1.258021	0.110359	0.000135
C58	C	1.758021	0.610359	0.500135
C59	C	1.360399	0.112164	0.000140
C60	C	1.860399	0.612164	0.500140
C61	C	1.082679	0.269292	0.000116
C62	C	1.582679	0.769292	0.500116
C63	C	1.084498	0.362245	0.000116
C64	C	1.584498	0.862245	0.500116
N65	N	1.089397	0.116208	0.254974
N66	N	1.589397	0.616208	0.754974
N67	N	1.089434	0.116224	-0.254737
N68	N	1.589434	0.616224	0.245263
C69	C	1.089420	0.116225	0.656265
C70	C	1.589420	0.616225	1.156265
C71	C	1.089411	0.116223	0.544614
C72	C	1.589411	0.616223	1.044614
C73	C	1.089409	0.116217	0.455623
C74	C	1.589409	0.616217	0.955623
C75	C	1.089399	0.116214	0.343965
C76	C	1.589399	0.616214	0.843965
H77	H	0.949683	-0.295221	-0.066860
H78	H	1.449683	0.204779	0.433140
O79	O	1.097059	-0.308407	-0.176074
O80	O	1.597059	0.191593	0.323926
C81	C	1.051682	-0.183848	-0.271873
C82	C	1.551682	0.316152	0.228127
C83	C	1.100705	-0.220712	-0.178507
C84	C	1.600705	0.279288	0.321493
H85	H	1.054596	-0.112940	-0.273861
H86	H	1.554596	0.387060	0.226139
H87	H	1.087825	-0.213867	-0.339681
H88	H	1.587825	0.286133	0.160319
H89	H	0.976267	-0.197446	-0.271165
H90	H	1.476267	0.302554	0.228835
H91	H	1.176121	-0.207126	-0.179120
H92	H	1.676121	0.292874	0.320880
H93	H	1.064490	-0.190692	-0.110741
H94	H	1.564490	0.309308	0.389259
H95	H	1.212261	-0.469782	0.097852
H96	H	1.712261	0.030218	0.597852
H97	H	1.215888	-0.326767	0.097010
H98	H	1.715888	0.173233	0.597010
H99	H	1.214674	-0.469641	-0.093038
H100	H	1.714674	0.030359	0.406962
H101	H	1.106210	-0.312678	0.163044
H102	H	1.606210	0.187322	0.663044
H103	H	1.107364	-0.458578	-0.163220
H104	H	1.607364	0.041422	0.336780
O105	O	0.941691	-0.290358	0.080019
O106	O	1.441691	0.209642	0.580019
C107	C	0.813629	-0.195009	0.139608
C108	C	1.313629	0.304991	0.639608
C109	C	0.866851	-0.232585	0.049015
C110	C	1.366851	0.267415	0.549015
H111	H	0.753122	-0.148279	0.114575
H112	H	1.253122	0.351721	0.614575
H113	H	0.786201	-0.247580	0.183691
H114	H	1.286201	0.252420	0.683691
H115	H	0.862213	-0.161307	0.187636
H116	H	1.362213	0.338693	0.687636
H117	H	0.818325	-0.266280	0.000913
H118	H	1.318325	0.233720	0.500913
H119	H	0.894293	-0.179980	0.005006
H120	H	1.394293	0.320020	0.505006
H121	H	0.946823	-0.439937	0.066347
H122	H	1.446823	0.060063	0.566347
H123	H	0.946656	-0.438870	-0.067255
H124	H	1.446656	0.061130	0.432745
H125	H	1.214875	-0.325572	-0.099285
H126	H	1.714875	0.174428	0.400715
O127	O	1.094889	-0.459404	0.176932
O128	O	1.594889	0.040596	0.676932
C129	C	1.018966	-0.411462	0.327516
C130	C	1.518966	0.088538	0.827516
C131	C	1.068013	-0.386707	0.233182
C132	C	1.568013	0.113293	0.733182
H133	H	0.997240	-0.352704	0.373031
H134	H	1.497240	0.147296	0.873031
H135	H	0.954999	-0.443038	0.307088
H136	H	1.454999	0.056962	0.807088
H137	H	1.068413	-0.456988	0.372300
H138	H	1.568413	0.043012	0.872300
H139	H	1.018639	-0.341156	0.188354
H140	H	1.518639	0.158844	0.688354
H141	H	1.131993	-0.355178	0.253678
H142	H	1.631993	0.144822	0.753678
