data_functionalizedCrystal
_audit_creation_method	'MofGen! by Chris Wilmer'
_symmetry_space_group_name_H-M	'P1'
_symmetry_Int_Tables_number	1
_symmetry_cell_setting	triclinic
loop_
_symmetry_equiv_pos_as_xyz
  x,y,z
_cell_length_a	17.699083
_cell_length_b	12.837942
_cell_length_c	16.776229
_cell_angle_alpha	89.994225
_cell_angle_beta	89.998886
_cell_angle_gamma	89.055978
loop_
_atom_site_label
_atom_site_type_symbol
_atom_site_fract_x
_atom_site_fract_y
_atom_site_fract_z
O1	O	1.013707	0.131067	-0.066175
O2	O	1.513707	0.631067	0.433825
O3	O	0.794582	0.148119	-0.066201
O4	O	1.294582	0.648119	0.433799
O5	O	0.899286	-0.011297	-0.066184
O6	O	1.399286	0.488703	0.433816
O7	O	0.909003	0.290484	-0.066192
O8	O	1.409003	0.790484	0.433808
O9	O	0.899269	-0.011307	0.066393
O10	O	1.399269	0.488693	0.566393
O11	O	0.794565	0.148110	0.066376
O12	O	1.294565	0.648110	0.566376
O13	O	1.013691	0.131057	0.066401
O14	O	1.513691	0.631057	0.566401
Zn15	Zn	0.904126	0.139582	0.087438
Zn16	Zn	1.404126	0.639582	0.587438
Zn17	Zn	0.904147	0.139595	-0.087237
Zn18	Zn	1.404147	0.639595	0.412763
O19	O	0.908987	0.290474	0.066384
O20	O	1.408987	0.790474	0.566384
C21	C	0.766332	0.147503	0.000084
C22	C	1.266332	0.647503	0.500084
C23	C	0.682179	0.145670	0.000074
C24	C	1.182179	0.645670	0.500074
C25	C	0.640432	0.239245	0.000072
C26	C	1.140432	0.739245	0.500072
C27	C	0.561362	0.237516	0.000082
C28	C	1.061362	0.737516	0.500082
C29	C	0.524040	0.142212	0.000089
C30	C	1.024040	0.642212	0.500089
C31	C	0.565792	0.048631	0.000094
C32	C	1.065792	0.548631	0.500094
C33	C	0.644861	0.050360	0.000089
C34	C	1.144861	0.550360	0.500089
C35	C	0.246916	0.041653	0.000114
C36	C	0.746916	0.541653	0.500114
C37	C	0.167842	0.039931	0.000116
C38	C	0.667842	0.539931	0.500116
C39	C	0.163418	0.228809	0.000107
C40	C	0.663418	0.728809	0.500107
C41	C	0.242486	0.230539	0.000102
C42	C	0.742486	0.730539	0.500102
C43	C	0.284232	0.136958	0.000111
C44	C	0.784232	0.636958	0.500111
C45	C	0.369969	0.138833	0.000101
C46	C	0.869969	0.638833	0.500101
C47	C	0.438304	0.140336	0.000093
C48	C	0.938304	0.640336	0.500093
C49	C	0.895995	-0.049915	0.000104
C50	C	1.395995	0.450085	0.500104
C51	C	0.886204	-0.164967	0.000101
C52	C	1.386204	0.335033	0.500101
C53	C	1.003908	-0.406222	0.000099
C54	C	1.503908	0.093778	0.500099
C55	C	0.994712	-0.514324	0.000096
C56	C	1.494712	-0.014324	0.500096
C57	C	0.858617	-0.489277	0.000088
C58	C	1.358617	0.010723	0.500088
C59	C	0.867813	-0.381174	0.000091
C60	C	1.367813	0.118826	0.500091
C61	C	0.940461	-0.339651	0.000097
C62	C	1.440461	0.160349	0.500097
C63	C	0.949656	-0.231546	0.000105
C64	C	1.449656	0.268454	0.500105
C65	C	0.813561	-0.206501	0.000092
C66	C	1.313561	0.293499	0.500092
C67	C	0.804365	-0.314604	0.000089
C68	C	1.304365	0.185396	0.500089
C69	C	1.041941	0.131673	0.000115
C70	C	1.541941	0.631673	0.500115
C71	C	1.126094	0.133506	0.000119
C72	C	1.626094	0.633506	0.500119
C73	C	0.912278	0.329091	0.000095
C74	C	1.412278	0.829091	0.500095
C75	C	0.922069	0.444144	0.000092
C76	C	1.422069	0.944144	0.500092
N77	N	0.904117	0.139572	0.206649
N78	N	1.404117	0.639572	0.706649
N79	N	0.904161	0.139596	-0.206449
N80	N	1.404161	0.639596	0.293551
C81	C	0.950497	0.069012	0.248374
C82	C	1.450497	0.569012	0.748374
C83	C	0.950502	0.069011	0.331826
C84	C	1.450502	0.569011	0.831826
C85	C	0.904128	0.139576	0.373552
C86	C	1.404128	0.639576	0.873552
C87	C	0.857742	0.210141	0.331821
C88	C	1.357742	0.710141	0.831821
C89	C	0.857735	0.210136	0.248371
C90	C	1.357735	0.710136	0.748371
C91	C	0.857771	0.210161	0.668369
C92	C	1.357771	0.710161	1.168369
C93	C	0.857784	0.210163	0.751825
C94	C	1.357784	0.710163	1.251825
C95	C	0.950538	0.069036	0.751824
C96	C	1.450538	0.569036	1.251824
C97	C	0.950530	0.069031	0.668373
C98	C	1.450530	0.569031	1.168373
C99	C	0.904142	0.139591	0.626650
C100	C	1.404142	0.639591	1.126650
C101	C	0.904137	0.139590	0.536162
C102	C	1.404137	0.639590	1.036162
C103	C	0.904137	0.139583	0.464039
C104	C	1.404137	0.639583	0.964039
H105	H	0.527375	0.313714	0.000079
H106	H	1.027375	0.813714	0.500079
H107	H	0.819966	0.267592	0.214399
H108	H	1.319966	0.767592	0.714399
C109	C	0.524743	-0.056204	0.000101
C110	C	1.024743	0.443796	0.500101
H111	H	0.560933	-0.111686	0.000108
H112	H	1.060933	0.388314	0.500108
H113	H	0.493990	-0.060802	-0.046130
H114	H	0.993990	0.439198	0.453870
H115	H	0.493992	-0.060808	0.046340
H116	H	0.993992	0.439192	0.546340
C117	C	1.001528	-0.008596	0.377720
C118	C	1.501528	0.491404	0.877720
H119	H	1.029154	-0.050612	0.340918
H120	H	1.529154	0.449388	0.840918
H121	H	0.971208	-0.051700	0.410285
H122	H	1.471208	0.448300	0.910285
H123	H	1.035718	0.028651	0.410263
H124	H	1.535718	0.528651	0.910263
H125	H	0.272870	0.308145	0.000093
H126	H	0.772870	0.808145	0.500093
C127	C	0.117496	0.331748	0.000107
C128	C	0.617496	0.831748	0.500107
H129	H	0.065060	0.317074	0.000120
H130	H	0.565060	0.817074	0.500120
H131	H	0.129542	0.370837	-0.046128
H132	H	0.629542	0.870837	0.453872
H133	H	0.129549	0.370831	0.046342
H134	H	0.629549	0.870831	0.546342
H135	H	0.820002	0.267615	0.634404
H136	H	1.320002	0.767615	1.134404
C137	C	0.681480	0.344080	0.000063
C138	C	1.181480	0.844080	0.500063
H139	H	0.645290	0.399561	0.000071
H140	H	1.145290	0.899561	0.500071
H141	H	0.712232	0.348687	-0.046170
H142	H	1.212232	0.848687	0.453830
H143	H	0.712233	0.348677	0.046300
H144	H	1.212233	0.848677	0.546300
C145	C	0.126789	-0.064908	0.000132
C146	C	0.626789	0.435092	0.500132
H147	H	0.162974	-0.120394	0.000145
H148	H	0.662974	0.379606	0.500145
H149	H	0.096034	-0.069511	-0.046098
H150	H	0.596034	0.430489	0.453902
H151	H	0.096037	-0.069499	0.046372
H152	H	0.596037	0.430501	0.546372
H153	H	0.799470	-0.523105	0.000075
H154	H	1.299470	-0.023105	0.500075
C155	C	0.292826	-0.061281	0.000118
C156	C	0.792826	0.438719	0.500118
H157	H	0.259272	-0.118285	0.000115
H158	H	0.759272	0.381715	0.500115
H159	H	0.323764	-0.064539	0.046350
H160	H	0.823764	0.435461	0.546350
H161	H	0.323762	-0.064532	-0.046121
H162	H	0.823762	0.435468	0.453879
H163	H	0.819981	0.267593	0.365799
H164	H	1.319981	0.767593	0.865799
H165	H	0.988294	0.011574	0.634403
H166	H	1.488294	0.511574	1.134403
H167	H	0.745217	-0.348427	0.000081
H168	H	1.245217	0.151573	0.500081
C169	C	0.690782	-0.052571	0.000084
C170	C	1.190782	0.447429	0.500084
H171	H	0.657231	-0.109579	0.000080
H172	H	1.157231	0.390421	0.500080
H173	H	0.721722	-0.055829	0.046313
H174	H	1.221722	0.444171	0.546313
H175	H	0.721715	-0.055815	-0.046157
H176	H	1.221715	0.444185	0.453843
H177	H	1.008809	-0.197740	0.000113
H178	H	1.508809	0.302260	0.500113
C179	C	0.743766	-0.133271	0.000083
C180	C	1.243766	0.366729	0.500083
H181	H	0.759645	-0.062941	0.000080
H182	H	1.259645	0.437059	0.500080
H183	H	0.714293	-0.145849	0.046311
H184	H	1.214293	0.354151	0.546311
H185	H	0.714308	-0.145835	-0.046159
H186	H	1.214308	0.354165	0.453841
H187	H	1.063061	-0.372413	0.000112
H188	H	1.563061	0.127587	0.500112
C189	C	1.001513	-0.008602	0.202479
C190	C	1.501513	0.491398	0.702479
H191	H	0.994875	0.001507	0.146802
H192	H	1.494875	0.501507	0.646802
H193	H	0.988316	-0.077762	0.216162
H194	H	1.488316	0.422238	0.716162
H195	H	1.052831	0.002583	0.216152
H196	H	1.552831	0.502583	0.716152
C197	C	1.001557	-0.008590	0.797722
C198	C	1.501557	0.491410	1.297722
H199	H	0.994916	0.001507	0.853398
H200	H	1.494916	0.501507	1.353398
H201	H	1.052871	0.002579	0.784039
H202	H	1.552871	0.502579	1.284039
H203	H	0.988347	-0.077752	0.784050
H204	H	1.488347	0.422248	1.284050
C205	C	0.806756	0.287770	0.797723
C206	C	1.306756	0.787770	1.297723
H207	H	0.779119	0.329782	0.760922
H208	H	1.279119	0.829782	1.260922
H209	H	0.837079	0.330878	0.830273
H210	H	1.337079	0.830878	1.330273
H211	H	0.772577	0.250514	0.830280
H212	H	1.272577	0.750514	1.330280
C213	C	1.064504	-0.587549	0.000102
C214	C	1.564504	-0.087549	0.500102
H215	H	1.109085	-0.547332	0.000112
H216	H	1.609085	-0.047332	0.500112
H217	H	1.063751	-0.630236	-0.046129
H218	H	1.563751	-0.130236	0.453871
H219	H	1.063741	-0.630244	0.046341
H220	H	1.563741	-0.130244	0.546341
