data_functionalizedCrystal
_audit_creation_method	'MofGen! by Chris Wilmer'
_symmetry_space_group_name_H-M	'P1'
_symmetry_Int_Tables_number	1
_symmetry_cell_setting	triclinic
loop_
_symmetry_equiv_pos_as_xyz
  x,y,z
_cell_length_a	16.109301
_cell_length_b	10.489741
_cell_length_c	14.586319
_cell_angle_alpha	89.996488
_cell_angle_beta	89.999213
_cell_angle_gamma	84.000327
loop_
_atom_site_label
_atom_site_type_symbol
_atom_site_fract_x
_atom_site_fract_y
_atom_site_fract_z
O1	O	1.104141	0.163947	-0.076182
O2	O	0.862205	0.184350	-0.076196
O3	O	0.988678	-0.011529	-0.076183
O4	O	0.977668	0.359826	-0.076195
O5	O	0.988670	-0.011532	0.076298
O6	O	0.862196	0.184347	0.076284
O7	O	1.104132	0.163944	0.076299
Cu8	Cu	0.983164	0.174145	0.090214
Cu9	Cu	0.983174	0.174149	-0.090112
O10	O	0.977659	0.359823	0.076286
C11	C	0.831221	0.183522	0.000042
C12	C	0.738910	0.181044	0.000037
C13	C	0.987842	-0.059050	0.000057
C14	C	0.985354	-0.200644	0.000055
C15	C	0.517319	0.291514	0.000044
C16	C	0.430584	0.289175	0.000050
C17	C	0.449026	0.056771	0.000053
C18	C	0.535759	0.059111	0.000054
C19	C	0.569903	0.176486	0.000045
C20	C	0.396435	0.171808	0.000050
C21	C	0.302393	0.169272	0.000056
C22	C	0.663950	0.179022	0.000040
C23	C	0.904883	-0.267616	0.000043
C24	C	0.942893	-0.360292	0.075226
C25	C	0.942920	-0.360264	-0.075108
C26	C	1.023397	-0.291454	0.075300
C27	C	1.023414	-0.291417	-0.075102
C28	C	1.061482	-0.384066	0.000100
C29	C	1.135117	0.164772	0.000058
C30	C	1.227427	0.167250	0.000058
C31	C	0.978495	0.407344	0.000044
C32	C	0.980983	0.548938	0.000040
N33	N	0.983162	0.174142	0.217046
N34	N	0.983182	0.174142	-0.216944
C35	C	1.039183	0.087436	0.452058
C36	C	1.039186	0.087433	0.548040
C37	C	0.927155	0.260852	0.548038
C38	C	0.927149	0.260848	0.452058
C39	C	0.983168	0.174141	0.404071
C40	C	0.983176	0.174142	0.596032
C41	C	0.983178	0.174140	0.700099
C42	C	0.983165	0.174142	0.299997
H43	H	0.545116	0.387088	0.000043
H44	H	0.881530	0.331455	0.412984
O45	O	1.093486	0.003083	0.594695
C46	C	1.110154	-0.171057	0.703105
C47	C	1.048565	-0.075618	0.650310
H48	H	1.073860	-0.234694	0.748097
H49	H	1.150176	-0.233118	0.652359
H50	H	1.152030	-0.115943	0.747995
H51	H	1.006635	-0.130629	0.605419
H52	H	1.008602	-0.013558	0.701106
H53	H	0.881546	0.331449	0.587118
O54	O	1.063923	-0.255049	0.151188
C55	C	1.111779	-0.079928	0.236304
C56	C	1.065854	-0.120981	0.150334
H57	H	1.113371	0.028465	0.235632
H58	H	1.077701	-0.108780	0.300325
H59	H	1.178323	-0.129103	0.236568
H60	H	0.999308	-0.071826	0.149981
H61	H	1.099997	-0.092152	0.086352
O62	O	0.902416	-0.396594	-0.151034
C63	C	0.898095	-0.400911	-0.316127
C64	C	0.944063	-0.359731	-0.230225
H65	H	0.931737	-0.371101	-0.380174
H66	H	0.897142	-0.509429	-0.315823
H67	H	0.831328	-0.352609	-0.315973
H68	H	1.010849	-0.407943	-0.230323
H69	H	0.944948	-0.251202	-0.230561
O70	O	1.140496	-0.444129	0.000313
C71	C	1.272146	-0.477117	0.079745
C72	C	1.182682	-0.409035	0.079624
H73	H	1.306285	-0.448748	0.143851
H74	H	1.269724	-0.585344	0.079195
H75	H	1.306681	-0.447591	0.016232
H76	H	1.148096	-0.438456	0.143126
H77	H	1.185164	-0.300822	0.080126
H78	H	1.084796	0.016832	0.412990
H79	H	0.421215	-0.038791	0.000067
O80	O	0.379623	0.401032	0.000006
C81	C	0.370491	0.631791	0.000052
C82	C	0.428299	0.505204	0.000079
H83	H	0.409821	0.716047	0.000131
H84	H	0.329438	0.636598	-0.063774
H85	H	0.329408	0.636436	0.063852
H86	H	0.469433	0.500475	-0.063677
H87	H	0.469295	0.500450	0.063948
O88	O	0.586930	-0.052551	-0.000070
C89	C	0.695527	-0.184809	-0.079091
C90	C	0.637639	-0.058300	-0.079058
H91	H	0.736527	-0.189511	-0.142955
H92	H	0.736650	-0.189542	-0.015321
H93	H	0.656208	-0.269079	-0.079048
H94	H	0.676891	0.026041	-0.079134
H95	H	0.596512	-0.053679	-0.142823
O96	O	0.902139	-0.396624	0.150983
C97	C	0.773550	-0.377932	0.236667
C98	C	0.819604	-0.336714	0.150829
H99	H	0.706818	-0.329492	0.236581
H100	H	0.772512	-0.486434	0.236283
H101	H	0.807254	-0.348315	0.300724
H102	H	0.785937	-0.366243	0.086727
H103	H	0.820649	-0.228215	0.151294
H104	H	0.838720	-0.217005	0.000115
H105	H	1.057438	-0.260864	-0.138663
