data_functionalizedCrystal
_audit_creation_method	'MofGen! by Chris Wilmer'
_symmetry_space_group_name_H-M	'P1'
_symmetry_Int_Tables_number	1
_symmetry_cell_setting	triclinic
loop_
_symmetry_equiv_pos_as_xyz
  x,y,z
_cell_length_a	11.026607
_cell_length_b	10.654551
_cell_length_c	9.482900
_cell_angle_alpha	99.428019
_cell_angle_beta	78.636152
_cell_angle_gamma	96.535689
loop_
_atom_site_label
_atom_site_type_symbol
_atom_site_fract_x
_atom_site_fract_y
_atom_site_fract_z
O1	O	1.633381	0.511465	-0.120876
O2	O	1.279570	0.451469	-0.120880
O3	O	1.464609	0.300494	-0.120878
O4	O	1.448341	0.662441	-0.120877
O5	O	1.427025	0.331318	0.120914
O6	O	1.241986	0.482293	0.120912
O7	O	1.595796	0.542289	0.120916
Cu8	Cu	1.415459	0.515106	0.142992
Cu9	Cu	1.459907	0.478653	-0.142955
O10	O	1.410757	0.693265	0.120915
C11	C	1.215474	0.455813	0.000015
C12	C	1.080482	0.422818	0.000013
C13	C	1.007444	0.513921	0.000013
C14	C	0.867923	0.479822	0.000011
C15	C	1.444623	0.268848	0.000014
C16	C	1.441050	0.128628	0.000004
C17	C	1.459860	0.045950	-0.131794
C18	C	1.456490	-0.085801	-0.131787
C19	C	1.415503	-0.052183	0.131828
C20	C	1.418865	0.079565	0.131820
C21	C	1.482045	0.095013	-0.263609
C22	C	1.500858	0.012333	-0.395418
C23	C	1.497488	-0.119417	-0.395412
C24	C	1.475305	-0.168489	-0.263596
C25	C	1.659893	0.537945	0.000018
C26	C	1.794886	0.570939	0.000010
C27	C	1.430744	0.724910	0.000019
C28	C	1.434318	0.865129	0.000019
N29	N	1.384206	0.540746	0.344112
N30	N	1.491170	0.453005	-0.344075
C31	C	1.450680	0.486207	0.416312
C32	C	1.424686	0.507552	0.583729
H33	H	1.518907	0.052296	-0.502737
C34	C	1.427057	-0.198091	-0.620113
C35	C	1.518160	-0.210299	-0.540291
H36	H	1.439831	-0.254191	-0.709562
H37	H	1.347324	-0.219203	-0.565964
H38	H	1.432249	-0.112599	-0.638967
H39	H	1.512963	-0.295790	-0.521428
H40	H	1.597913	-0.189195	-0.594452
H41	H	1.348521	0.570045	0.645853
C42	C	0.755672	0.788040	0.000018
C43	C	0.849887	0.710325	0.000016
H44	H	0.789629	0.874090	0.000030
H45	H	0.719862	0.760633	-0.084298
H46	H	0.693640	0.782117	0.084339
H47	H	0.911915	0.716241	-0.084312
H48	H	0.885716	0.737741	0.084340
C49	C	1.354962	-0.357505	-0.191797
C50	C	1.471578	-0.313312	-0.263567
H51	H	1.352660	-0.446911	-0.191783
H52	H	1.340607	-0.315274	-0.094455
H53	H	1.292532	-0.340319	-0.240500
H54	H	1.534007	-0.330490	-0.214858
H55	H	1.485946	-0.355557	-0.360926
C56	C	0.871011	0.264603	-0.124287
C57	C	0.812921	0.340436	0.000008
H58	H	0.837058	0.178554	-0.124281
H59	H	0.857818	0.294566	-0.208588
H60	H	0.957554	0.269247	-0.124271
H61	H	0.726379	0.335800	-0.000013
H62	H	0.826105	0.310465	0.084331
C63	C	1.377982	0.099569	0.392394
C64	C	1.398163	0.170452	0.276694
H65	H	1.365196	0.155682	0.481832
H66	H	1.306766	0.041049	0.386890
H67	H	1.448311	0.053921	0.386935
H68	H	1.327831	0.216093	0.282146
H69	H	1.469386	0.228995	0.282200
H70	H	1.484795	0.202289	-0.263629
C71	C	1.083565	0.207606	-0.124284
C72	C	1.025475	0.283439	0.000011
H73	H	1.049612	0.121557	-0.124278
H74	H	1.070372	0.237569	-0.208585
H75	H	1.170108	0.212250	-0.124269
H76	H	0.938933	0.278803	-0.000010
H77	H	1.038658	0.253468	0.084334
H78	H	1.397443	-0.092148	0.239146
H79	H	1.048203	0.617164	0.000022
C80	C	1.609982	0.355485	0.431224
C81	C	1.553489	0.401835	0.332454
H82	H	1.673448	0.303390	0.379453
H83	H	1.645138	0.425192	0.490577
H84	H	1.549673	0.306419	0.490610
H85	H	1.613797	0.450909	0.273075
H86	H	1.518334	0.332116	0.273076
H87	H	1.567326	0.390500	0.593801
C88	C	1.192530	0.552760	0.515513
C89	C	1.281395	0.625113	0.427975
H90	H	1.129063	0.604851	0.567289
H91	H	1.157378	0.483066	0.456138
H92	H	1.230882	0.521314	0.582495
H93	H	1.243045	0.656553	0.360985
H94	H	1.316549	0.694831	0.487354
