data_functionalizedCrystal
_audit_creation_method	'MofGen! by Chris Wilmer'
_symmetry_space_group_name_H-M	'P1'
_symmetry_Int_Tables_number	1
_symmetry_cell_setting	triclinic
loop_
_symmetry_equiv_pos_as_xyz
  x,y,z
_cell_length_a	15.944499
_cell_length_b	15.944493
_cell_length_c	12.996460
_cell_angle_alpha	89.999729
_cell_angle_beta	89.991825
_cell_angle_gamma	83.476327
loop_
_atom_site_label
_atom_site_type_symbol
_atom_site_fract_x
_atom_site_fract_y
_atom_site_fract_z
O1	O	1.114530	0.108130	-0.085615
O2	O	1.614530	0.608130	0.414385
O3	O	0.869971	0.121532	-0.085602
O4	O	1.369971	0.621532	0.414398
O5	O	0.998954	-0.007449	-0.085617
O6	O	1.498954	0.492551	0.414383
O7	O	0.985547	0.237110	-0.085599
O8	O	1.485547	0.737110	0.414401
O9	O	0.998941	-0.007456	0.085517
O10	O	1.498941	0.492544	0.585517
O11	O	0.869958	0.121525	0.085532
O12	O	1.369958	0.621525	0.585532
O13	O	1.114516	0.108123	0.085519
O14	O	1.614516	0.608123	0.585519
Cu15	Cu	0.992236	0.114823	0.101151
Cu16	Cu	1.492236	0.614823	0.601151
Cu17	Cu	0.992252	0.114831	-0.101234
Cu18	Cu	1.492252	0.614831	0.398766
O19	O	0.985534	0.237103	0.085534
O20	O	1.485534	0.737103	0.585534
C21	C	0.838670	0.120979	-0.000033
C22	C	1.338670	0.620979	0.499967
C23	C	0.745422	0.119334	-0.000029
C24	C	1.245422	0.619334	0.499971
C25	C	0.998400	-0.038747	-0.000055
C26	C	1.498400	0.461253	0.499945
C27	C	0.996757	-0.131995	-0.000068
C28	C	1.496757	0.368005	0.499932
C29	C	0.453871	0.194269	-0.000039
C30	C	0.953871	0.694269	0.499961
C31	C	0.514915	0.155320	-0.084422
C32	C	1.014915	0.655320	0.415578
C33	C	0.409787	0.113358	-0.000053
C34	C	0.909787	0.613358	0.499947
C35	C	0.514887	0.155291	0.084303
C36	C	1.014887	0.655291	0.584303
C37	C	0.574695	0.116299	-0.000040
C38	C	1.074695	0.616299	0.499960
C39	C	0.469603	0.074386	-0.084506
C40	C	0.969603	0.574386	0.415494
C41	C	0.469569	0.074369	0.084295
C42	C	0.969569	0.574369	0.584295
C43	C	0.530595	0.035361	-0.000109
C44	C	1.030595	0.535361	0.499891
C45	C	0.314787	0.111666	-0.000062
C46	C	0.814787	0.611666	0.499938
C47	C	0.669694	0.117984	-0.000038
C48	C	1.169694	0.617984	0.499962
C49	C	1.072679	-0.367769	-0.000052
C50	C	1.572679	0.132231	0.499948
C51	C	1.031744	-0.418326	-0.084427
C52	C	1.531744	0.081674	0.415573
C53	C	0.993713	-0.302716	-0.000055
C54	C	1.493713	0.197284	0.499945
C55	C	1.031712	-0.418309	0.084297
C56	C	1.531712	0.081691	0.584297
C57	C	0.990778	-0.467625	-0.000038
C58	C	1.490778	0.032375	0.499962
C59	C	0.952799	-0.352044	-0.084500
C60	C	1.452799	0.147956	0.415500
C61	C	0.952778	-0.352024	0.084301
C62	C	1.452778	0.147976	0.584301
C63	C	0.911785	-0.402548	-0.000095
C64	C	1.411785	0.097452	0.499905
C65	C	0.995405	-0.207716	-0.000066
C66	C	1.495405	0.292284	0.499934
C67	C	0.989079	-0.562622	-0.000035
C68	C	1.489079	-0.062622	0.499965
C69	C	1.145818	0.108675	-0.000052
C70	C	1.645818	0.608675	0.499948
C71	C	1.239066	0.110320	-0.000063
C72	C	1.739066	0.610320	0.499937
C73	C	0.986088	0.268401	-0.000030
C74	C	1.486088	0.768401	0.499970
C75	C	0.987731	0.361650	-0.000024
C76	C	1.487731	0.861650	0.499976
N77	N	0.992231	0.114816	0.243498
N78	N	1.492231	0.614816	0.743498
N79	N	0.992264	0.114831	-0.243581
N80	N	1.492264	0.614831	0.256419
C81	C	0.992251	0.114832	0.663313
C82	C	1.492251	0.614832	1.163313
C83	C	0.992243	0.114831	0.546508
C84	C	1.492243	0.614831	1.046508
C85	C	0.992241	0.114825	0.453409
C86	C	1.492241	0.614825	0.953409
C87	C	0.992232	0.114822	0.336597
C88	C	1.492232	0.614822	0.836597
H89	H	0.535011	0.189547	-0.155751
H90	H	1.035011	0.689547	0.344249
H91	H	1.065098	-0.447275	-0.155765
H92	H	1.565098	0.052725	0.344235
N93	N	0.910998	-0.315874	-0.174080
N94	N	1.410998	0.184126	0.325920
N95	N	0.905560	-0.237943	-0.188562
N96	N	1.405560	0.262057	0.311438
H97	H	0.876042	-0.212394	-0.251828
H98	H	1.376042	0.287606	0.248172
H99	H	0.449637	0.040199	-0.155925
H100	H	0.949637	0.540199	0.344075
N101	N	0.910956	-0.315687	0.173785
N102	N	1.410956	0.184313	0.673785
N103	N	0.835170	-0.324665	0.189661
N104	N	1.335170	0.175335	0.689661
H105	H	0.805636	-0.299003	0.252868
H106	H	1.305636	0.200997	0.752868
N107	N	0.412011	0.278491	-0.000126
N108	N	0.912011	0.778491	0.499874
N109	N	0.363895	0.303242	0.072346
N110	N	0.863895	0.803242	0.572346
H111	H	0.334327	0.362722	0.072280
H112	H	0.834327	0.862722	0.572280
N113	N	0.572235	-0.048949	-0.000181
N114	N	1.072235	0.451051	0.499819
N115	N	0.560555	-0.097793	-0.072699
N116	N	1.060555	0.402207	0.427301
H117	H	0.589964	-0.157337	-0.072756
H118	H	1.089964	0.342663	0.427244
N119	N	1.073567	-0.454611	0.173774
N120	N	1.573567	0.045389	0.673774
N121	N	1.149699	-0.446682	0.188779
N122	N	1.649699	0.053318	0.688779
H123	H	1.179266	-0.472318	0.251968
H124	H	1.679266	0.027682	0.751968
H125	H	0.843713	-0.418002	-0.000138
H126	H	1.343713	0.081998	0.499862
H127	H	0.449454	0.040172	0.155631
H128	H	0.949454	0.540172	0.655631
H129	H	1.140699	-0.352153	-0.000141
H130	H	1.640699	0.147847	0.499859
N131	N	0.540053	0.198242	0.173788
N132	N	1.040053	0.698242	0.673788
N133	N	0.512234	0.273737	0.188806
N134	N	1.012234	0.773737	0.688806
H135	H	0.530004	0.304078	0.252001
H136	H	1.030004	0.804078	0.752001
