data_functionalizedCrystal
_audit_creation_method	'MofGen! by Chris Wilmer'
_symmetry_space_group_name_H-M	'P1'
_symmetry_Int_Tables_number	1
_symmetry_cell_setting	triclinic
loop_
_symmetry_equiv_pos_as_xyz
  x,y,z
_cell_length_a	12.594516
_cell_length_b	19.077105
_cell_length_c	19.077174
_cell_angle_alpha	94.516248
_cell_angle_beta	92.277804
_cell_angle_gamma	92.287367
loop_
_atom_site_label
_atom_site_type_symbol
_atom_site_fract_x
_atom_site_fract_y
_atom_site_fract_z
Zn1	Zn	-0.517166	-1.093758	-0.441877
Zn2	Zn	-0.017166	-0.593758	0.058123
Zn3	Zn	-0.687708	-1.088960	-0.324000
Zn4	Zn	-0.187708	-0.588960	0.176000
Zn5	Zn	-0.502287	-0.971142	-0.319274
Zn6	Zn	-0.002287	-0.471142	0.180726
Zn7	Zn	-0.687638	-0.975854	-0.437118
Zn8	Zn	-0.187638	-0.475854	0.062882
O9	O	-0.598700	-1.032429	-0.380567
O10	O	-0.098700	-0.532429	0.119433
O11	O	-0.546045	-1.191772	-0.430210
O12	O	-0.046045	-0.691772	0.069790
O13	O	-0.656914	-1.069351	-0.224723
O14	O	-0.156914	-0.569351	0.275277
O15	O	-0.355318	-0.987443	-0.335551
O16	O	0.144682	-0.487443	0.164449
O17	O	-0.671341	-1.188248	-0.343607
O18	O	-0.171341	-0.688248	0.156393
O19	O	-0.366249	-1.077528	-0.425627
O20	O	0.133751	-0.577528	0.074373
O21	O	-0.520686	-0.982790	-0.221250
O22	O	-0.020686	-0.482790	0.278750
O23	O	-0.520618	-0.873116	-0.330936
O24	O	-0.020618	-0.373116	0.169064
O25	O	-0.671223	-0.995475	-0.536400
O26	O	-0.171223	-0.495475	-0.036400
O27	O	-0.656795	-0.876578	-0.417516
O28	O	-0.156795	-0.376578	0.082484
O29	O	-0.545977	-1.082098	-0.539896
O30	O	-0.045977	-0.582098	-0.039896
O31	O	-0.836642	-1.073921	-0.338992
O32	O	-0.336642	-0.573921	0.161008
O33	O	-0.836590	-0.990822	-0.422099
O34	O	-0.336590	-0.490822	0.077901
C35	C	-0.587085	-0.849268	-0.373197
C36	C	-0.087085	-0.349268	0.126803
C37	C	-0.582143	-0.770912	-0.370061
C38	C	-0.082143	-0.270912	0.129939
C39	C	-0.875237	-1.032382	-0.380559
C40	C	-0.375237	-0.532382	0.119441
C41	C	-0.993547	-1.032428	-0.380581
C42	C	-0.493547	-0.532428	0.119419
C43	C	-0.610252	-1.039847	-0.564442
C44	C	-0.110252	-0.539847	-0.064442
C45	C	-0.615174	-1.043008	-0.642798
C46	C	-0.115174	-0.543008	-0.142798
C47	C	-1.062809	-0.987224	-0.425750
C48	C	-0.562809	-0.487224	0.074250
C49	C	-1.128514	-0.967469	-0.360734
C50	C	-0.628514	-0.467469	0.139266
C51	C	-1.138645	-1.052247	-0.445610
C52	C	-0.638645	-0.552247	0.054390
C53	C	-1.057690	-1.012637	-0.315530
C54	C	-0.557690	-0.512637	0.184470
C55	C	-1.067820	-1.097447	-0.400450
C56	C	-0.567820	-0.597447	0.099550
C57	C	-1.133492	-1.077715	-0.335392
C58	C	-0.633492	-0.577715	0.164608
C59	C	-0.321084	-1.032495	-0.380592
C60	C	0.178916	-0.532495	0.119408
C61	C	-0.202781	-1.032523	-0.380603
C62	C	0.297219	-0.532523	0.119397
C63	C	-0.610360	-1.216304	-0.387967
C64	C	-0.110360	-0.716304	0.112033
C65	C	-0.615329	-1.294661	-0.391120
C66	C	-0.115329	-0.794661	0.108880
C67	C	-0.650820	-0.735918	-0.413594
C68	C	-0.150820	-0.235918	0.086406
C69	C	-0.646162	-0.662294	-0.410651
C70	C	-0.146162	-0.162294	0.089349
C71	C	-0.572833	-0.623666	-0.364170
C72	C	-0.072833	-0.123666	0.135830
C73	C	-0.504149	-0.658664	-0.320635
C74	C	-0.004149	-0.158664	0.179365
C75	C	-0.508802	-0.732287	-0.323583
C76	C	-0.008802	-0.232287	0.176417
C77	C	-0.551299	-0.403282	-0.350532
C78	C	-0.051299	0.096718	0.149468
C79	C	-0.546653	-0.329655	-0.347586
C80	C	-0.046653	0.170345	0.152414
C81	C	-0.688665	-0.333290	-0.437603
C82	C	-0.188665	0.166710	0.062397
C83	C	-0.693316	-0.406914	-0.440544
C84	C	-0.193316	0.093086	0.059456
C85	C	-0.624629	-0.441906	-0.397011
C86	C	-0.124629	0.058094	0.102989
N87	N	-0.568073	-0.548410	-0.361159
N88	N	-0.068073	-0.048410	0.138841
N89	N	-0.629384	-0.517161	-0.400027
N90	N	-0.129384	-0.017161	0.099973
C91	C	-0.546562	-0.999428	-0.677802
C92	C	-0.046562	-0.499428	-0.177802
C93	C	-0.551196	-1.002396	-0.751426
C94	C	-0.051196	-0.502396	-0.251426
C95	C	-0.624438	-1.048948	-0.790045
C96	C	-0.124438	-0.548948	-0.290045
C97	C	-0.693058	-1.092530	-0.755037
C98	C	-0.193058	-0.592530	-0.255037
C99	C	-0.688428	-1.089558	-0.681414
C100	C	-0.188428	-0.589558	-0.181414
C101	C	-0.645895	-1.062665	-1.010428
C102	C	-0.145895	-0.562665	-0.510428
C103	C	-0.650517	-1.065635	-1.084056
C104	C	-0.150517	-0.565635	-0.584056
C105	C	-0.508656	-0.975499	-1.080440
C106	C	-0.008656	-0.475499	-0.580440
C107	C	-0.504028	-0.972535	-1.006816
C108	C	-0.004028	-0.472535	-0.506816
C109	C	-0.572652	-1.016114	-0.971814
C110	C	-0.072652	-0.516114	-0.471814
N111	N	-0.629174	-1.051984	-0.865301
N112	N	-0.129174	-0.551984	-0.365301
N113	N	-0.567920	-1.013074	-0.896559
N114	N	-0.067920	-0.513074	-0.396559
C115	C	-0.587119	-1.025079	-0.197410
C116	C	-0.087119	-0.525079	0.302590
C117	C	-0.581905	-1.022055	-0.119059
C118	C	-0.081905	-0.522055	0.380941
H119	H	-1.031765	-0.948924	-0.463887
H120	H	-0.531765	-0.448924	0.036113
H121	H	-0.444389	-0.934625	-0.975377
H122	H	0.055611	-0.434625	-0.475377
H123	H	-0.486914	-0.961524	-0.646363
H124	H	0.013086	-0.461524	-0.146363
Br125	Br	-0.458074	-0.450763	-0.291456
Br126	Br	0.041926	0.049237	0.208544
Br127	Br	-0.447139	-0.277229	-0.284493
Br128	Br	0.052861	0.222771	0.215507
Br129	Br	-0.415531	-0.916358	-1.127946
Br130	Br	0.084469	-0.416358	-0.627946
H131	H	-0.444438	-0.627207	-0.282793
H132	H	0.055562	-0.127207	0.217207
H133	H	-1.164331	-1.115981	-0.297157
H134	H	-0.664331	-0.615981	0.202843
Br135	Br	-0.749911	-1.128826	-1.136468
Br136	Br	-0.249911	-0.628826	-0.636468
Br137	Br	-0.739368	-0.614806	-0.469736
Br138	Br	-0.239368	-0.114806	0.030264
Br139	Br	-0.458130	-0.943210	-0.798926
Br140	Br	0.041870	-0.443210	-0.298926
Br141	Br	-1.023064	-1.189002	-0.428482
Br142	Br	-0.523064	-0.689002	0.071518
Br143	Br	-0.415589	-0.779780	-0.264503
Br144	Br	0.084411	-0.279780	0.235497
Br145	Br	-0.739021	-1.121813	-0.962934
Br146	Br	-0.239021	-0.621813	-0.462934
Br147	Br	-1.197638	-1.080121	-0.537253
Br148	Br	-0.697638	-0.580121	-0.037253
Br149	Br	-0.792469	-1.155703	-0.807447
Br150	Br	-0.292469	-0.655703	-0.307447
H151	H	-0.744585	-0.304791	-0.473046
H152	H	-0.244585	0.195209	0.026954
Br153	Br	-0.750351	-0.788336	-0.476673
Br154	Br	-0.250351	-0.288336	0.023327
Br155	Br	-0.792844	-0.459334	-0.503623
Br156	Br	-0.292844	0.040666	-0.003623
H157	H	-0.744292	-1.125052	-0.652915
H158	H	-0.244292	-0.625052	-0.152915
H159	H	-1.155368	-0.912529	-0.343946
H160	H	-0.655368	-0.412529	0.156054
Br161	Br	-0.998920	-0.984659	-0.223853
Br162	Br	-0.498920	-0.484659	0.276147
