data_functionalizedCrystal
_audit_creation_method	'MofGen! by Chris Wilmer'
_symmetry_space_group_name_H-M	'P1'
_symmetry_Int_Tables_number	1
_symmetry_cell_setting	triclinic
loop_
_symmetry_equiv_pos_as_xyz
  x,y,z
_cell_length_a	10.723024
_cell_length_b	10.723024
_cell_length_c	9.798715
_cell_angle_alpha	89.996846
_cell_angle_beta	89.997785
_cell_angle_gamma	84.467869
loop_
_atom_site_label
_atom_site_type_symbol
_atom_site_fract_x
_atom_site_fract_y
_atom_site_fract_z
O1	O	0.175025	1.657187	-0.113478
O2	O	0.191778	1.294034	-0.113483
O3	O	0.001825	1.483987	-0.113475
O4	O	0.364978	1.467234	-0.113486
O5	O	0.001824	1.483974	0.113507
O6	O	0.191777	1.294021	0.113499
O7	O	0.175023	1.657174	0.113504
Zn8	Zn	0.183400	1.475595	0.149540
Zn9	Zn	0.183402	1.475613	-0.149519
O10	O	0.364976	1.467221	0.113496
C11	C	0.190558	1.247528	0.000008
C12	C	0.186911	1.108974	0.000006
C13	C	-0.044675	1.482762	0.000014
C14	C	-0.183229	1.479114	0.000009
C15	C	0.293198	1.033991	0.000002
C16	C	0.289431	0.890788	0.000001
C17	C	-0.258212	1.585401	0.000009
C18	C	-0.401415	1.581634	0.000004
C19	C	0.411477	1.468447	0.000004
C20	C	0.550031	1.472094	-0.000000
C21	C	0.176243	1.703680	0.000010
C22	C	0.179891	1.842234	0.000003
N23	N	0.183398	1.475592	0.353640
N24	N	0.183394	1.475625	-0.353619
C25	C	0.103469	1.555546	0.578574
C26	C	0.103471	1.555529	0.421412
H27	H	0.386984	1.075814	0.000007
C28	C	-0.111893	1.626798	0.377297
C29	C	0.011035	1.647900	0.342770
H30	H	-0.168975	1.683822	0.328757
H31	H	-0.123948	1.638896	0.472588
H32	H	-0.126129	1.543368	0.353937
H33	H	0.025274	1.731328	0.366139
H34	H	0.023095	1.635813	0.247458
H35	H	0.088896	0.906659	-0.000002
C36	C	-0.613414	1.676967	-0.000013
C37	C	-0.488387	1.704476	-0.000004
H38	H	-0.667107	1.752809	-0.000027
H39	H	-0.628975	1.629730	0.079137
H40	H	-0.628957	1.629721	-0.079171
H41	H	-0.472842	1.751715	0.079160
H42	H	-0.472821	1.751734	-0.079162
H43	H	0.251824	1.407161	0.411942
H44	H	-0.216390	1.679187	0.000018
C45	C	0.051487	0.978518	-0.116682
C46	C	0.060293	1.052533	0.000004
H47	H	-0.026688	0.943684	-0.116685
H48	H	0.117673	0.912925	-0.116671
H49	H	0.057484	1.028758	-0.195825
H50	H	0.054306	1.002290	0.079148
H51	H	-0.005911	1.118135	0.000005
C52	C	-0.287305	1.344384	-0.116687
C53	C	-0.363007	1.349245	-0.000004
H54	H	-0.233618	1.268538	-0.116691
H55	H	-0.238283	1.413585	-0.116670
H56	H	-0.338676	1.347711	-0.195832
H57	H	-0.311636	1.345927	0.079142
H58	H	-0.412033	1.280025	-0.000008
C59	C	0.514278	0.876104	-0.000015
C60	C	0.412274	0.803818	-0.000010
H61	H	0.590117	0.822407	-0.000030
H62	H	0.510957	0.927445	0.079137
H63	H	0.510945	0.927468	-0.079171
H64	H	0.415602	0.752460	0.079152
H65	H	0.415597	0.752454	-0.079170
C66	C	0.032118	1.770893	0.622799
C67	C	0.011079	1.647933	0.657257
H68	H	-0.024922	1.827927	0.671378
H69	H	0.020000	1.782991	0.527516
H70	H	0.115541	1.785156	0.646157
H71	H	-0.072343	1.633667	0.633889
H72	H	0.023186	1.635829	0.752561
C73	C	0.352845	1.450168	0.485516
C74	C	0.275776	1.383236	0.567691
H75	H	0.409874	1.393126	0.436934
H76	H	0.398236	1.502451	0.541252
H77	H	0.302688	1.500303	0.422616
H78	H	0.325933	1.333108	0.630599
H79	H	0.230381	1.330931	0.511951
H80	H	-0.225051	1.385328	-0.000001
