data_functionalizedCrystal
_audit_creation_method	'MofGen! by Chris Wilmer'
_symmetry_space_group_name_H-M	'P1'
_symmetry_Int_Tables_number	1
_symmetry_cell_setting	triclinic
loop_
_symmetry_equiv_pos_as_xyz
  x,y,z
_cell_length_a	17.699083
_cell_length_b	15.995350
_cell_length_c	16.176319
_cell_angle_alpha	89.995430
_cell_angle_beta	89.998611
_cell_angle_gamma	83.387695
loop_
_atom_site_label
_atom_site_type_symbol
_atom_site_fract_x
_atom_site_fract_y
_atom_site_fract_z
O1	O	1.004255	0.105885	-0.068627
O2	O	0.783899	0.119661	-0.068653
O3	O	0.900101	-0.009127	-0.068638
O4	O	0.888054	0.234673	-0.068641
O5	O	0.900085	-0.009135	0.068855
O6	O	0.783883	0.119653	0.068840
O7	O	1.004239	0.105877	0.068867
Cu8	Cu	0.894060	0.112764	0.081408
Cu9	Cu	0.894079	0.112774	-0.081194
O10	O	0.888038	0.234665	0.068852
C11	C	0.755694	0.119163	0.000090
C12	C	0.671673	0.117683	0.000080
C13	C	0.899595	-0.040324	0.000107
C14	C	0.898101	-0.133272	0.000102
C15	C	0.623178	0.193278	0.000079
C16	C	0.544232	0.191882	0.000090
C17	C	0.513783	0.114889	0.000095
C18	C	0.562285	0.039287	0.000098
C19	C	0.641229	0.040685	0.000094
C20	C	0.243912	0.033651	0.000119
C21	C	0.164962	0.032259	0.000121
C22	C	0.146916	0.184848	0.000115
C23	C	0.225860	0.186245	0.000110
C24	C	0.274354	0.110644	0.000118
C25	C	0.359956	0.112159	0.000108
C26	C	0.428183	0.113373	0.000099
C27	C	0.892739	-0.471008	0.000104
C28	C	0.809983	-0.423406	-0.000214
C29	C	0.811476	-0.326719	0.000096
C30	C	0.895399	-0.303453	0.000102
C31	C	0.936208	-0.344618	0.078621
C32	C	0.934129	-0.441250	0.078687
C33	C	0.935857	-0.441602	-0.077669
C34	C	0.935838	-0.344657	-0.078706
C35	C	0.896907	-0.208759	0.000104
C36	C	0.891234	-0.565703	0.000108
C37	C	1.032445	0.106375	0.000122
C38	C	1.116465	0.107856	0.000126
C39	C	0.888544	0.265863	0.000105
C40	C	0.890037	0.358810	0.000104
N41	N	0.894052	0.112757	0.195773
N42	N	0.894092	0.112775	-0.195559
C43	C	0.945521	0.055753	0.239043
C44	C	0.945525	0.055752	0.325591
C45	C	0.894063	0.112760	0.368865
C46	C	0.842588	0.169767	0.325589
C47	C	0.842581	0.169763	0.239043
C48	C	0.842614	0.169782	0.674617
C49	C	0.842626	0.169783	0.761168
C50	C	0.945558	0.055772	0.761164
C51	C	0.945551	0.055768	0.674619
C52	C	0.894074	0.112771	0.631350
C53	C	0.894069	0.112770	0.537505
C54	C	0.894070	0.112765	0.462708
H55	H	0.647962	0.255975	0.000074
H56	H	0.994887	-0.473622	0.082254
C57	C	0.490890	0.275044	0.000104
N58	N	0.450713	0.337685	0.000120
C59	C	1.002135	-0.006962	0.191449
N60	N	1.044776	-0.054203	0.155604
C61	C	1.002178	-0.006941	0.808768
N62	N	1.044824	-0.054175	0.844622
C63	C	0.259348	0.270943	0.000109
N64	N	0.284571	0.334740	0.000114
H65	H	0.537487	-0.023402	0.000115
H66	H	0.283388	-0.027909	0.000126
C67	C	0.694574	-0.042477	0.000092
N68	N	0.734753	-0.105117	0.000093
C69	C	0.131471	-0.052443	0.000137
N70	N	0.106245	-0.116238	0.000151
H71	H	0.987435	0.009335	0.360821
H72	H	0.777046	-0.442936	0.055772
C73	C	0.768132	-0.288226	-0.075940
N74	N	0.735479	-0.259237	-0.133210
H75	H	0.107421	0.246406	0.000113
H76	H	0.800716	0.216208	0.796401
C77	C	0.785971	0.232468	0.373194
N78	N	0.743326	0.279696	0.409050
H79	H	0.776912	-0.441867	-0.056522
H80	H	0.987459	0.009350	0.639387
C81	C	0.767832	-0.288987	0.076257
N82	N	0.734958	-0.260569	0.133626
H83	H	0.997038	-0.329419	-0.083442
H84	H	0.904358	-0.459494	0.137376
C85	C	1.019497	-0.325689	0.082586
N86	N	1.082229	-0.311423	0.085574
H87	H	0.907851	-0.316183	0.137047
H88	H	0.908807	-0.462083	-0.137181
H89	H	0.906001	-0.317344	-0.136792
H90	H	0.996873	-0.473487	-0.078191
H91	H	0.800700	0.216198	0.639394
H92	H	0.800668	0.216180	0.203813
