data_functionalizedCrystal
_audit_creation_method	'MofGen! by Chris Wilmer'
_symmetry_space_group_name_H-M	'P1'
_symmetry_Int_Tables_number	1
_symmetry_cell_setting	triclinic
loop_
_symmetry_equiv_pos_as_xyz
  x,y,z
_cell_length_a	6.817900
_cell_length_b	9.582860
_cell_length_c	16.256277
_cell_angle_alpha	93.078562
_cell_angle_beta	103.500353
_cell_angle_gamma	111.206767
loop_
_atom_site_label
_atom_site_type_symbol
_atom_site_fract_x
_atom_site_fract_y
_atom_site_fract_z
V1	V	-4.066980	-0.208264	-0.263718
O2	O	-4.012628	0.008763	-0.258857
O3	O	-4.057749	-0.411756	-0.261761
O4	O	-4.018086	-0.205607	-0.378804
O5	O	-4.052566	-0.198813	-0.141003
V6	V	-4.545596	-0.182241	-0.249059
O7	O	-4.339001	-0.265349	-0.295873
O8	O	-4.723772	-0.125156	-0.216903
O9	O	-4.331620	0.021251	-0.251016
O10	O	-4.717344	-0.399268	-0.253919
O11	O	-4.677406	-0.191692	-0.371773
O12	O	-4.371283	-0.184898	-0.133972
C13	C	-3.912295	-0.461346	-0.257561
C14	C	-3.986031	-0.627707	-0.256728
C15	C	-3.861699	-0.198380	-0.406860
C16	C	-3.903265	-0.197554	-0.500943
C17	C	-4.195322	-0.203328	-0.732759
C18	C	-4.064036	-0.074894	-0.775946
C19	C	-3.979263	-0.195998	-0.673191
C20	C	-4.184548	-0.322869	-0.797634
C21	C	-4.052690	-0.194503	-0.839575
C22	C	-3.847379	-0.067472	-0.715129
C23	C	-3.967970	-0.315560	-0.736823
C24	C	-3.836518	-0.187090	-0.779978
C25	C	-3.936968	-0.196859	-0.577341
C26	C	-4.094963	-0.193631	-0.935421
C27	C	-4.140418	0.070833	-0.255213
C28	C	-4.045920	0.237192	-0.256052
C29	C	-4.191013	-0.192130	-0.105912
C30	C	-4.128684	-0.192948	-0.011828
H31	H	-4.105026	0.026868	-0.793414
N32	N	-3.668133	0.068048	-0.670326
N33	N	-3.607148	0.089286	-0.590353
H34	H	-3.480558	0.184996	-0.558708
N35	N	-4.384937	-0.211775	-0.706524
N36	N	-4.478102	-0.321201	-0.672136
H37	H	-4.612010	-0.327162	-0.653604
H38	H	-3.685055	-0.180179	-0.800697
N39	N	-3.916649	-0.443241	-0.714897
N40	N	-4.052539	-0.574417	-0.745695
H41	H	-4.016313	-0.664605	-0.730211
N42	N	-4.363906	-0.458244	-0.842553
N43	N	-4.548545	-0.487886	-0.830731
H44	H	-4.675229	-0.583488	-0.862453
