data_functionalizedCrystal
_audit_creation_method	'MofGen! by Chris Wilmer'
_symmetry_space_group_name_H-M	'P1'
_symmetry_Int_Tables_number	1
_symmetry_cell_setting	triclinic
loop_
_symmetry_equiv_pos_as_xyz
  x,y,z
_cell_length_a	11.792241
_cell_length_b	10.868271
_cell_length_c	11.792254
_cell_angle_alpha	90.005308
_cell_angle_beta	95.803993
_cell_angle_gamma	90.000539
loop_
_atom_site_label
_atom_site_type_symbol
_atom_site_fract_x
_atom_site_fract_y
_atom_site_fract_z
O1	O	-1.506915	0.102185	0.155568
O2	O	-1.176575	0.102218	0.171600
O3	O	-1.349754	0.102192	-0.001586
O4	O	-1.333736	0.102211	0.328754
O5	O	-1.349740	-0.102453	-0.001592
O6	O	-1.176561	-0.102427	0.171594
O7	O	-1.506901	-0.102460	0.155561
Zn8	Zn	-1.341729	-0.134935	0.163576
Zn9	Zn	-1.341748	0.134693	0.163585
O10	O	-1.333722	-0.102434	0.328747
C11	C	-1.134277	-0.000101	0.170590
C12	C	-1.008263	-0.000088	0.167576
C13	C	-0.777551	-0.000121	0.162033
C14	C	-0.905936	-0.000103	0.165112
N15	N	-1.341724	-0.318949	0.163569
C16	C	-1.341742	-0.569955	0.163583
C17	C	-1.341728	-0.430278	0.163579
C18	C	-0.549199	-0.000136	0.156571
C19	C	-0.675213	-0.000131	0.159586
C20	C	-1.348738	-0.000130	-0.043880
C21	C	-1.345718	-0.000129	-0.169893
N22	N	-1.341761	0.318707	0.163583
C23	C	-1.343264	-0.000124	-0.272229
C24	C	-1.340196	-0.000112	-0.400616
C25	C	-1.334738	-0.000109	0.371041
C26	C	-1.337758	-0.000103	0.497054
