data_functionalizedCrystal
_audit_creation_method	'MofGen! by Chris Wilmer'
_symmetry_space_group_name_H-M	'P1'
_symmetry_Int_Tables_number	1
_symmetry_cell_setting	triclinic
loop_
_symmetry_equiv_pos_as_xyz
  x,y,z
_cell_length_a	14.395555
_cell_length_b	14.395555
_cell_length_c	14.446369
_cell_angle_alpha	60.003078
_cell_angle_beta	90.003244
_cell_angle_gamma	59.996935
loop_
_atom_site_label
_atom_site_type_symbol
_atom_site_fract_x
_atom_site_fract_y
_atom_site_fract_z
Zr1	Zr	0.894858	1.016786	-0.121437
O2	O	0.746517	1.210588	-0.269248
O3	O	0.940340	0.822983	-0.076123
O4	O	0.940329	1.016776	-0.269235
O5	O	0.746527	1.016804	0.076193
O6	O	1.093203	1.016769	-0.269227
O7	O	0.746527	1.016795	-0.076135
O8	O	1.093222	0.670109	0.076215
O9	O	0.746508	1.363464	-0.269249
O10	O	1.073817	0.902692	-0.056793
O11	O	0.959728	0.902703	0.056882
O12	O	0.959716	1.130870	-0.170483
O13	O	0.845627	1.130881	-0.056808
Zr14	Zr	1.138674	1.016788	0.121523
Zr15	Zr	1.138674	1.016775	-0.121424
Zr16	Zr	0.894858	1.016799	0.121510
Zr17	Zr	0.894844	1.260605	-0.121439
Zr18	Zr	1.138688	0.772969	0.121526
O19	O	1.093192	1.210592	0.076210
O20	O	1.093193	1.210573	-0.269229
O21	O	0.746516	1.210607	0.076191
O22	O	1.287015	0.822986	0.269334
O23	O	1.287016	0.822967	-0.076105
O24	O	0.940339	0.823002	0.269316
O25	O	1.287005	1.016771	-0.076107
O26	O	1.093203	1.016799	0.269322
O27	O	0.940329	1.016805	0.269314
O28	O	1.287005	1.016779	0.076222
O29	O	0.940310	1.363455	-0.269239
O30	O	1.093222	0.670119	0.269326
O31	O	1.287024	0.670110	0.269336
O32	O	1.287024	0.670100	0.076226
O33	O	0.746508	1.363475	-0.076139
O34	O	0.940310	1.363466	-0.076129
O35	O	1.073816	0.902705	0.170569
O36	O	1.187905	0.902693	0.056894
O37	O	1.073804	1.130871	-0.056795
O38	O	0.959715	1.130882	0.056880
C39	C	1.016783	0.711807	0.000047
C40	C	1.016789	0.608299	0.000048
C41	C	1.078984	0.547715	-0.061944
C42	C	1.124066	0.409609	0.044948
C43	C	0.971713	0.561969	-0.106833
C44	C	1.061933	0.471494	0.107003
C45	C	0.909521	0.623928	-0.044856
C46	C	0.954576	0.485832	0.062100
C47	C	0.711789	1.016801	0.000027
C48	C	0.608282	1.016806	0.000022
C49	C	0.485481	1.141218	-0.061957
C50	C	0.454649	1.079020	-0.106872
C51	C	0.454691	1.078999	0.044929
C52	C	0.578814	0.954607	-0.044956
C53	C	0.578853	0.954604	0.106904
C54	C	0.548094	0.892314	0.062016
C55	C	1.321743	1.016773	0.000060
C56	C	1.425250	1.016769	0.000065
C57	C	1.016766	1.016770	-0.303846
C58	C	1.016767	1.016765	-0.406983
C59	C	1.016749	1.321768	0.000040
C60	C	1.016743	1.425275	0.000039
C61	C	1.089088	0.872868	-0.481960
C62	C	1.088775	0.872771	-0.374632
C63	C	0.892797	1.088251	-0.481551
C64	C	0.893193	1.087337	-0.588409
C65	C	1.067413	1.090293	-0.589974
C66	C	1.069921	1.087581	-0.481302
C67	C	1.016766	1.016804	0.303933
C68	C	1.016765	1.016810	0.407070
C69	C	1.321760	0.711793	0.000063
C70	C	1.425273	0.608281	0.000069
C71	C	1.016782	0.711823	0.303936
C72	C	1.016788	0.608321	0.407074
C73	C	1.321760	0.711810	0.303952
C74	C	1.425272	0.608303	0.407096
C75	C	0.711772	1.321765	-0.303865
C76	C	0.608260	1.425271	-0.407009
C77	C	0.711772	1.321781	0.000024
C78	C	0.608259	1.425294	0.000017
C79	C	1.016749	1.321751	-0.303849
C80	C	1.016744	1.425253	-0.406988
C81	C	1.644419	0.461443	0.071406
C82	C	1.536803	0.568749	0.071810
C83	C	1.428620	0.480975	0.052367
C84	C	1.536774	0.373212	0.052887
C85	C	1.535387	0.548802	-0.123666
C86	C	1.429038	0.657663	-0.123468
C87	C	0.944493	0.461492	0.482054
C88	C	0.944793	0.568791	0.374725
C89	C	1.140763	0.481013	0.481636
C90	C	1.140381	0.373258	0.588496
C91	C	0.966152	0.548859	0.590071
C92	C	0.963629	0.657713	0.481398
C93	C	1.500531	0.461451	0.625458
C94	C	1.392812	0.568773	0.518225
C95	C	1.500085	0.481001	0.410412
C96	C	1.607333	0.373223	0.518182
C97	C	1.608943	0.548788	0.516841
C98	C	1.499876	0.657664	0.410871
H99	H	0.460031	1.246421	-0.114451
H100	H	0.401182	1.131608	0.082890
H101	H	0.401128	1.131598	-0.197244
N102	N	1.533808	0.700373	0.306029
H103	H	1.501159	0.688269	0.254370
H104	H	1.619505	0.645432	0.328616
N105	N	0.789417	0.745350	-0.095202
H106	H	0.769744	0.764556	-0.036917
H107	H	0.734980	0.730325	-0.118775
N108	N	0.823260	0.510995	0.478946
H109	H	0.814036	0.508144	0.549440
H110	H	0.804655	0.453565	0.475520
N111	N	0.649486	0.885000	-0.095379
H112	H	0.719405	0.885477	-0.095116
H113	H	0.602987	0.931664	-0.175846
H114	H	1.587304	0.282138	0.143913
N115	N	1.190897	1.018568	-0.413198
H116	H	1.244156	0.985777	-0.451675
H117	H	1.211106	0.941797	-0.334536
H118	H	0.933611	0.599165	-0.197217
H119	H	0.573757	0.787026	0.114435
N120	N	1.042981	0.798407	-0.480579
H121	H	1.089913	0.706051	-0.409017
H122	H	1.046856	0.795106	-0.548770
N123	N	1.323823	0.700351	-0.199834
H124	H	1.346406	0.645433	-0.230498
H125	H	1.282625	0.795997	-0.264872
N126	N	0.990606	0.342310	0.480666
H127	H	0.986741	0.274397	0.548811
H128	H	1.072283	0.304096	0.483115
H129	H	1.157322	1.044227	-0.594085
H130	H	1.010826	0.689952	0.506922
H131	H	1.018576	0.523982	0.668288
N132	N	0.649765	0.885035	0.226572
H133	H	0.603736	0.932137	0.260417
H134	H	0.720002	0.884859	0.225590
H135	H	0.901972	0.458811	0.114594
H136	H	1.180063	0.816685	-0.320353
H137	H	1.196980	0.503338	0.508869
H138	H	1.180612	0.816372	-0.479616
N139	N	1.042244	0.798009	-0.303380
H140	H	1.021849	0.764995	-0.341655
H141	H	0.972078	0.858057	-0.294599
H142	H	1.429556	0.748470	-0.162535
N143	N	1.497433	0.510934	0.696947
H144	H	1.425297	0.535905	0.716836
H145	H	1.499493	0.590388	0.653010
N146	N	1.536272	0.510573	0.306739
H147	H	1.506550	0.488044	0.263485
H148	H	1.622068	0.456480	0.330850
N149	N	0.847057	0.601478	0.595515
H150	H	0.844370	0.602470	0.664897
H151	H	0.824810	0.543409	0.599913
H152	H	1.214763	0.317977	0.082930
H153	H	0.852647	1.036540	-0.588142
N154	N	1.717514	0.342251	0.191548
H155	H	1.674151	0.303923	0.227251
H156	H	1.738048	0.368723	0.236731
N157	N	1.324581	0.510546	-0.013177
H158	H	1.253996	0.577832	-0.010850
H159	H	1.328633	0.427262	0.021958
H160	H	1.197193	0.343196	0.667079
N161	N	0.817933	1.227220	-0.692505
H162	H	0.737854	1.269505	-0.690092
H163	H	0.817696	1.227607	-0.762609
H164	H	0.836571	1.194125	-0.508785
H165	H	0.979931	0.531188	0.320941
N166	N	1.501361	0.333373	-0.011512
H167	H	1.415626	0.385823	-0.040109
H168	H	1.534553	0.236647	0.040422
H169	H	0.872296	0.748530	0.429972
N170	N	0.838697	1.022499	-0.413211
H171	H	0.894282	0.946421	-0.333966
H172	H	0.817577	0.989145	-0.450599
N173	N	1.498894	0.515860	-0.194441
H174	H	1.531695	0.419115	-0.146673
H175	H	1.527431	0.537624	-0.261044
H176	H	1.426481	0.442284	0.142530
H177	H	1.100139	0.434108	0.197429
N178	N	1.601863	0.601406	-0.181544
H179	H	1.682223	0.543371	-0.128157
H180	H	1.564262	0.693704	-0.203329
N181	N	1.499138	0.342276	0.698268
H182	H	1.427325	0.368669	0.718739
H183	H	1.567581	0.274412	0.769747
N184	N	1.007411	1.226730	-0.515105
H185	H	0.943459	1.245925	-0.482583
H186	H	0.975142	1.289771	-0.600494
N187	N	1.321292	0.519005	0.521445
H188	H	1.359701	0.427180	0.592607
H189	H	1.312472	0.517719	0.452819
H190	H	1.014967	1.196341	-0.668176
N191	N	1.538930	0.687528	0.025350
H192	H	1.609946	0.670490	0.004423
H193	H	1.538561	0.705250	0.084786
H194	H	1.698564	0.498812	0.036506
H195	H	0.853502	0.658460	0.320451
H196	H	1.687439	0.523900	0.489401
H197	H	1.686194	0.343150	0.491533
N198	N	1.194101	0.252609	0.588149
H199	H	1.217806	0.269786	0.518717
H200	H	1.137282	0.231264	0.587029
N201	N	1.148764	0.583582	-0.131257
H202	H	1.147698	0.654318	-0.131355
H203	H	1.115521	0.616968	-0.211628
H204	H	1.338354	0.658436	0.519847
N205	N	1.606975	0.252587	0.584860
H206	H	1.537288	0.269785	0.544107
H207	H	1.605859	0.231231	0.662752
N208	N	1.540076	0.518933	0.192687
H209	H	1.541966	0.436850	0.229079
H210	H	1.470102	0.588583	0.193378
N211	N	1.194863	0.429747	0.413286
H212	H	1.148325	0.408238	0.386602
H213	H	1.274613	0.347858	0.462060
N214	N	1.431462	0.429785	0.407554
H215	H	1.404678	0.408281	0.475355
H216	H	1.480389	0.347901	0.409678
H217	H	1.613085	0.588486	0.566869
H218	H	1.448293	0.748445	0.411436
