data_functionalizedCrystal
_audit_creation_method	'MofGen! by Chris Wilmer'
_symmetry_space_group_name_H-M	'P1'
_symmetry_Int_Tables_number	1
_symmetry_cell_setting	triclinic
loop_
_symmetry_equiv_pos_as_xyz
  x,y,z
_cell_length_a	14.853566
_cell_length_b	13.330367
_cell_length_c	14.971493
_cell_angle_alpha	90.005894
_cell_angle_beta	96.374201
_cell_angle_gamma	90.004068
loop_
_atom_site_label
_atom_site_type_symbol
_atom_site_fract_x
_atom_site_fract_y
_atom_site_fract_z
O1	O	1.196352	0.083355	-0.116761
O2	O	0.933890	0.083371	-0.130673
O3	O	1.072152	0.083359	0.006482
O4	O	1.058090	0.083368	-0.253915
O5	O	1.072131	-0.083489	0.006460
O6	O	0.933869	-0.083476	-0.130695
O7	O	1.196331	-0.083492	-0.116783
Cu8	Cu	1.065098	-0.098718	-0.123741
Cu9	Cu	1.065123	0.098598	-0.123715
O10	O	1.058068	-0.083479	-0.253937
C11	C	0.900291	-0.000050	-0.130054
C12	C	0.800207	-0.000044	-0.128165
C13	C	0.377035	0.090887	-0.120166
C14	C	0.377033	-0.091017	-0.120191
C15	C	0.471067	-0.091013	-0.121964
C16	C	0.518089	-0.000059	-0.122840
C17	C	0.471077	0.090893	-0.121942
C18	C	0.518085	-0.181963	-0.122871
C19	C	0.612124	-0.181964	-0.124645
C20	C	0.659149	-0.091008	-0.125514
C21	C	0.612131	-0.000053	-0.124616
C22	C	0.659153	0.090902	-0.125492
C23	C	0.612138	0.181858	-0.124587
C24	C	0.518102	0.181848	-0.122812
C25	C	0.753185	-0.090998	-0.127290
C26	C	0.753195	0.090908	-0.127268
N27	N	1.065087	-0.237500	-0.123758
C28	C	1.119870	-0.710114	-0.178047
C29	C	1.010403	-0.710100	-0.069346
C30	C	1.010390	-0.605081	-0.069360
C31	C	1.065118	-0.552574	-0.123717
C32	C	1.119860	-0.605086	-0.178061
C33	C	0.955656	-0.552562	-0.015011
C34	C	0.955641	-0.447537	-0.015022
C35	C	1.010366	-0.395029	-0.069385
C36	C	1.065109	-0.447546	-0.123731
C37	C	1.119838	-0.395039	-0.178088
C38	C	1.174577	-0.447555	-0.232440
C39	C	1.174585	-0.552577	-0.232424
C40	C	1.010358	-0.290007	-0.069401
C41	C	1.119828	-0.290011	-0.178102
C42	C	1.229930	-0.000068	-0.117402
C43	C	1.330013	-0.000068	-0.119290
C44	C	1.071511	-0.000064	0.039795
C45	C	1.069623	-0.000061	0.139092
N46	N	1.065141	0.237379	-0.123690
C47	C	1.068750	0.090888	0.185749
C48	C	1.066970	0.090888	0.279049
C49	C	1.066070	-0.000062	0.325690
C50	C	1.066940	-0.091018	0.279027
C51	C	1.068714	-0.091017	0.185728
C52	C	1.063246	-0.091014	0.473490
C53	C	1.061474	-0.091015	0.566796
C54	C	1.061502	0.090891	0.566811
C55	C	1.063275	0.090892	0.473513
C56	C	1.064148	-0.000064	0.426855
C57	C	1.058710	-0.000058	0.712749
C58	C	1.060601	-0.000067	0.613453
H59	H	0.479792	-0.256013	-0.122163
F60	F	0.662192	0.278655	-0.125525
F61	F	0.803217	-0.187793	-0.128259
H62	H	0.479814	0.255900	-0.122074
F63	F	0.327002	0.187684	-0.119182
F64	F	1.069714	0.187691	0.136119
F65	F	0.662153	-0.278766	-0.125607
F66	F	1.232827	-0.391661	-0.290284
H67	H	0.965851	-0.752857	-0.025085
F68	F	1.232835	-0.608474	-0.290265
H69	H	1.164391	-0.247267	-0.222371
H70	H	1.066262	0.164948	0.317033
F71	F	0.952119	-0.234120	-0.011546
F72	F	0.326986	-0.187811	-0.119268
F73	F	1.178118	-0.766004	-0.235895
F74	F	0.897414	-0.608449	0.042835
H75	H	1.064015	0.164952	0.435540
F76	F	1.065972	-0.187814	0.328667
F77	F	1.069642	-0.187817	0.136073
F78	F	0.897372	-0.391656	0.042811
F79	F	1.060518	-0.187815	0.616434
F80	F	0.803233	0.187716	-0.128193
H81	H	1.060789	0.164951	0.604803
F82	F	1.064176	-0.187820	0.423837
