data_functionalizedCrystal
_audit_creation_method	'MofGen! by Chris Wilmer'
_symmetry_space_group_name_H-M	'P1'
_symmetry_Int_Tables_number	1
_symmetry_cell_setting	triclinic
loop_
_symmetry_equiv_pos_as_xyz
  x,y,z
_cell_length_a	19.805405
_cell_length_b	18.215407
_cell_length_c	18.215399
_cell_angle_alpha	89.979405
_cell_angle_beta	90.030610
_cell_angle_gamma	89.973669
loop_
_atom_site_label
_atom_site_type_symbol
_atom_site_fract_x
_atom_site_fract_y
_atom_site_fract_z
Zn1	Zn	-0.269472	-1.125064	0.416117
Zn2	Zn	0.063862	-0.791731	0.749451
Zn3	Zn	0.397195	-0.458397	1.082784
Zn4	Zn	-0.382663	-1.124969	0.293045
Zn5	Zn	-0.049329	-0.791636	0.626379
Zn6	Zn	0.284004	-0.458303	0.959712
Zn7	Zn	-0.269493	-1.001997	0.293063
Zn8	Zn	0.063841	-0.668663	0.626396
Zn9	Zn	0.397174	-0.335330	0.959730
Zn10	Zn	-0.382624	-1.001959	0.416068
Zn11	Zn	-0.049290	-0.668626	0.749402
Zn12	Zn	0.284043	-0.335293	1.082735
O13	O	-0.326063	-1.063497	0.354573
O14	O	0.007271	-0.730164	0.687907
O15	O	0.340604	-0.396831	1.021240
O16	O	-0.284494	-1.228036	0.399804
O17	O	0.048839	-0.894702	0.733138
O18	O	0.382173	-0.561369	1.066471
O19	O	-0.367675	-1.108633	0.190063
O20	O	-0.034342	-0.775299	0.523397
O21	O	0.298991	-0.441966	0.856730
O22	O	-0.174773	-1.018377	0.309414
O23	O	0.158560	-0.685044	0.642748
O24	O	0.491893	-0.351711	0.976081
O25	O	-0.367655	-1.227966	0.309384
O26	O	-0.034322	-0.894633	0.642717
O27	O	0.299012	-0.561299	0.976051
O28	O	-0.174758	-1.108794	0.399822
O29	O	0.158576	-0.775461	0.733155
O30	O	0.491909	-0.442128	1.066488
O31	O	-0.284530	-1.018285	0.190076
O32	O	0.048803	-0.684952	0.523410
O33	O	0.382137	-0.351619	0.856743
O34	O	-0.284492	-0.899008	0.309367
O35	O	0.048841	-0.565674	0.642700
O36	O	0.382174	-0.232341	0.976034
O37	O	-0.367589	-1.018313	0.519059
O38	O	-0.034256	-0.684980	0.852393
O39	O	0.299078	-0.351647	1.185726
O40	O	-0.367609	-0.898980	0.399739
O41	O	-0.034276	-0.565647	0.733072
O42	O	0.299057	-0.232313	1.066405
O43	O	-0.284456	-1.108758	0.519095
O44	O	0.048877	-0.775425	0.852428
O45	O	0.382210	-0.442091	1.185762
O46	O	-0.477374	-1.108596	0.309337
O47	O	-0.144041	-0.775263	0.642670
O48	O	0.189293	-0.441930	0.976003
O49	O	-0.477346	-1.018221	0.399721
O50	O	-0.144012	-0.684888	0.733055
O51	O	0.189321	-0.351555	1.066388
C52	C	-0.326049	-0.872291	0.354550
C53	C	0.007284	-0.538958	0.687883
C54	C	0.340617	-0.205624	1.021216
C55	C	-0.326060	-0.790492	0.354557
C56	C	0.007273	-0.457159	0.687890
C57	C	0.340607	-0.123826	1.021224
C58	C	-0.501919	-1.063415	0.354538
C59	C	-0.168585	-0.730081	0.687871
C60	C	0.164748	-0.396748	1.021205
C61	C	-0.577151	-1.063446	0.354547
C62	C	-0.243817	-0.730113	0.687881
C63	C	0.089516	-0.396780	1.021214
C64	C	-0.369406	-0.602303	0.401552
C65	C	-0.036072	-0.268970	0.734885
C66	C	0.297261	0.064363	1.068219
C67	C	-0.369407	-0.525444	0.401560
C68	C	-0.036074	-0.192111	0.734894
C69	C	0.297260	0.141222	1.068227
C70	C	-0.282724	-0.525444	0.307598
C71	C	0.050610	-0.192110	0.640931
C72	C	0.383943	0.141223	0.974264
C73	C	-0.282719	-0.602301	0.307594
C74	C	0.050614	-0.268968	0.640927
C75	C	0.383948	0.064366	0.974260
C76	C	-0.326064	-0.640729	0.354570
C77	C	0.007269	-0.307395	0.687903
C78	C	0.340603	0.025938	1.021237
C79	C	-0.326070	-0.487013	0.354582
C80	C	0.007263	-0.153679	0.687915
C81	C	0.340597	0.179654	1.021249
C82	C	-0.326071	-0.403679	0.354590
C83	C	0.007262	-0.070346	0.687924
C84	C	0.340596	0.262988	1.021257
C85	C	-0.326062	-0.724068	0.354563
C86	C	0.007271	-0.390734	0.687896
C87	C	0.340605	-0.057401	1.021229
C88	C	-0.612487	-1.110550	0.307533
C89	C	-0.279154	-0.777217	0.640867
C90	C	0.054180	-0.443884	0.974200
C91	C	-0.683176	-1.110582	0.307550
C92	C	-0.349842	-0.777248	0.640883
C93	C	-0.016509	-0.443915	0.974216
C94	C	-0.718526	-1.063505	0.354577
C95	C	-0.385193	-0.730171	0.687910
C96	C	-0.051860	-0.396838	1.021243
C97	C	-0.683185	-1.016399	0.401596
C98	C	-0.349851	-0.683065	0.734929
C99	C	-0.016518	-0.349732	1.068262
C100	C	-0.612498	-1.016372	0.401583
C101	C	-0.279164	-0.683038	0.734916
C102	C	0.054169	-0.349705	1.068249
C103	C	-0.968258	-1.016507	0.401650
C104	C	-0.634925	-0.683174	0.734984
C105	C	-0.301591	-0.349841	1.068317
C106	C	-1.038950	-1.016536	0.401658
C107	C	-0.705617	-0.683203	0.734992
C108	C	-0.372283	-0.349870	1.068325
C109	C	-1.038936	-1.110717	0.307617
C110	C	-0.705603	-0.777384	0.640950
C111	C	-0.372269	-0.444050	0.974284
C112	C	-0.968249	-1.110690	0.307604
C113	C	-0.634915	-0.777357	0.640937
C114	C	-0.301582	-0.444023	0.974271
C115	C	-0.932914	-1.063587	0.354626
C116	C	-0.599580	-0.730254	0.687959
C117	C	-0.266247	-0.396921	1.021292
C118	C	-0.856265	-1.063555	0.354608
C119	C	-0.522932	-0.730222	0.687942
C120	C	-0.189598	-0.396888	1.021275
C121	C	-0.795173	-1.063533	0.354591
C122	C	-0.461840	-0.730199	0.687924
C123	C	-0.128507	-0.396866	1.021257
C124	C	-0.149520	-1.063601	0.354625
C125	C	0.183813	-0.730267	0.687959
C126	C	0.517147	-0.396934	1.021292
C127	C	-0.074288	-1.063645	0.354647
C128	C	0.259045	-0.730311	0.687981
C129	C	0.592379	-0.396978	1.021314
C130	C	-0.326016	-1.063542	0.546526
C131	C	0.007317	-0.730209	0.879860
C132	C	0.340651	-0.396876	1.213193
C133	C	-0.325996	-1.063561	0.628325
C134	C	0.007337	-0.730228	0.961659
C135	C	0.340671	-0.396895	1.294992
C136	C	-0.326074	-0.255450	0.354594
C137	C	0.007259	0.077883	0.687928
C138	C	0.340592	0.411216	1.021261
C139	C	-0.326074	-0.337249	0.354595
C140	C	0.007260	-0.003916	0.687928
C141	C	0.340593	0.329418	1.021261
C142	C	-0.326060	-1.063495	0.163367
C143	C	0.007273	-0.730162	0.496701
C144	C	0.340606	-0.396828	0.830034
C145	C	-0.325889	-1.063619	0.081569
C146	C	0.007444	-0.730285	0.414902
C147	C	0.340777	-0.396952	0.748235
C148	C	-0.282669	-1.110673	0.816539
C149	C	0.050665	-0.777339	1.149873
C150	C	0.383998	-0.444006	1.483206
C151	C	-0.282649	-1.110682	0.893398
C152	C	0.050685	-0.777348	1.226731
C153	C	0.384018	-0.444015	1.560065
C154	C	-0.369219	-1.016502	0.893350
C155	C	-0.035886	-0.683169	1.226683
C156	C	0.297448	-0.349835	1.560016
C157	C	-0.369235	-1.016490	0.816492
C158	C	-0.035901	-0.683157	1.149825
C159	C	0.297432	-0.349823	1.483159
C160	C	-0.325961	-1.063580	0.778089
C161	C	0.007373	-0.730246	1.111422
C162	C	0.340706	-0.396913	1.444756
C163	C	-0.325925	-1.063600	0.931805
C164	C	0.007408	-0.730267	1.265139
C165	C	0.340742	-0.396934	1.598472
C166	C	-0.325904	-1.063609	1.015139
C167	C	0.007429	-0.730276	1.348472
C168	C	0.340763	-0.396943	1.681806
C169	C	-0.325981	-1.063570	0.694750
C170	C	0.007353	-0.730236	1.028083
C171	C	0.340686	-0.396903	1.361417
H172	H	-0.404698	-0.633589	0.439805
H173	H	-0.071365	-0.300256	0.773138
H174	H	0.261969	0.033078	1.106472
H175	H	-0.247421	-0.633588	0.269335
H176	H	0.085912	-0.300254	0.602668
H177	H	0.419246	0.033079	0.936002
H178	H	-1.067714	-1.149073	0.269333
H179	H	-0.734381	-0.815740	0.602666
H180	H	-0.401048	-0.482407	0.935999
H181	H	-0.404488	-0.978136	0.785185
H182	H	-0.071154	-0.644803	1.118518
H183	H	0.262179	-0.311469	1.451852
Cl184	Cl	-0.568053	-1.169732	0.248405
Cl185	Cl	-0.234720	-0.836398	0.581738
Cl186	Cl	0.098613	-0.503065	0.915072
H187	H	-0.939494	-0.978153	0.439936
H188	H	-0.606160	-0.644820	0.773269
H189	H	-0.272827	-0.311486	1.106602
H190	H	-0.247395	-1.149028	0.924701
H191	H	0.085938	-0.815695	1.258034
H192	H	0.419272	-0.482362	1.591368
H193	H	-0.404699	-0.494162	0.439819
H194	H	-0.071366	-0.160829	0.773152
H195	H	0.261968	0.172505	1.106486
H196	H	-0.711973	-0.978071	0.439889
H197	H	-0.378640	-0.644738	0.773223
H198	H	-0.045306	-0.311404	1.106556
H199	H	-0.583727	-0.978016	0.439867
H200	H	-0.250394	-0.644683	0.773201
H201	H	0.082939	-0.311349	1.106534
H202	H	-0.711943	-1.148938	0.269265
H203	H	-0.378610	-0.815604	0.602599
H204	H	-0.045277	-0.482271	0.935932
Cl205	Cl	-0.228238	-0.477129	0.248544
Cl206	Cl	0.105096	-0.143796	0.581877
Cl207	Cl	0.438429	0.189538	0.915210
Cl208	Cl	-1.083390	-0.957351	0.460784
Cl209	Cl	-0.750057	-0.624017	0.794118
Cl210	Cl	-0.416723	-0.290684	1.127451
Cl211	Cl	-0.923812	-1.169875	0.248482
Cl212	Cl	-0.590478	-0.836542	0.581816
Cl213	Cl	-0.257145	-0.503208	0.915149
H214	H	-0.247430	-1.149014	0.785274
H215	H	0.085903	-0.815681	1.118607
H216	H	0.419237	-0.482347	1.451940
H217	H	-0.404453	-0.978165	0.924627
H218	H	-0.071119	-0.644832	1.257960
H219	H	0.262214	-0.311498	1.591293
