data_functionalizedCrystal
_audit_creation_method	'MofGen! by Chris Wilmer'
_symmetry_space_group_name_H-M	'P1'
_symmetry_Int_Tables_number	1
_symmetry_cell_setting	triclinic
loop_
_symmetry_equiv_pos_as_xyz
  x,y,z
_cell_length_a	27.732048
_cell_length_b	27.732048
_cell_length_c	26.809956
_cell_angle_alpha	90.003258
_cell_angle_beta	90.012074
_cell_angle_gamma	97.357346
loop_
_atom_site_label
_atom_site_type_symbol
_atom_site_fract_x
_atom_site_fract_y
_atom_site_fract_z
O1	O	-0.057510	0.640931	0.041407
O2	O	-0.066256	0.500138	0.041421
O3	O	0.008514	0.574907	0.041421
O4	O	-0.132280	0.566162	0.041408
O5	O	0.008502	0.574893	-0.041539
O6	O	-0.066267	0.500123	-0.041538
O7	O	-0.057522	0.640917	-0.041552
Zn8	Zn	-0.061896	0.570518	-0.054716
Zn9	Zn	-0.061881	0.570536	0.054586
O10	O	-0.132291	0.566147	-0.041551
C11	C	-0.066078	0.482124	-0.000056
C12	C	-0.065525	0.428469	-0.000051
C13	C	-0.106229	0.089654	-0.000076
C14	C	-0.104178	-0.112006	-0.000080
O15	O	-0.141398	-0.143262	-0.000105
N16	N	-0.059843	-0.131130	-0.000075
C17	C	-0.016017	-0.099835	-0.000073
O18	O	0.021740	-0.120728	-0.000074
C19	C	-0.018068	0.101824	-0.000072
C20	C	-0.062407	0.120944	-0.000072
C21	C	-0.150563	0.108775	-0.000076
C22	C	-0.151076	0.159187	-0.000072
C23	C	-0.107253	0.190477	-0.000068
C24	C	-0.062919	0.171356	-0.000068
C25	C	0.025757	0.133117	-0.000073
C26	C	0.025240	0.183535	-0.000074
C27	C	-0.019098	0.202655	-0.000074
C28	C	-0.019609	0.253059	-0.000060
N29	N	-0.063944	0.272183	-0.000065
C30	C	-0.107766	0.240892	-0.000069
C31	C	-0.014943	-0.205709	-0.000072
C32	C	-0.014430	-0.256124	-0.000071
C33	C	-0.102591	-0.268291	-0.000080
C34	C	-0.103104	-0.217876	-0.000077
C35	C	-0.059278	-0.186585	-0.000077
C36	C	-0.108839	0.346761	-0.000061
C37	C	-0.109347	0.397178	-0.000055
C38	C	-0.021186	0.409341	-0.000049
C39	C	-0.020678	0.358929	-0.000052
C40	C	-0.064508	0.327639	-0.000060
O41	O	0.017592	0.284343	-0.000041
O42	O	-0.145518	0.261794	-0.000079
C43	C	-0.105716	0.039242	-0.000080
C44	C	-0.061382	0.020120	-0.000079
C45	C	-0.017560	0.051411	-0.000075
C46	C	-0.060869	-0.030294	-0.000079
C47	C	-0.104691	-0.061585	-0.000083
C48	C	-0.149026	-0.042461	-0.000087
C49	C	-0.149539	0.007951	-0.000084
C50	C	0.026775	0.032287	-0.000071
C51	C	0.027284	-0.018125	-0.000074
C52	C	-0.016538	-0.049416	-0.000078
C53	C	-0.150292	0.566338	-0.000073
C54	C	-0.203947	0.566891	-0.000078
C55	C	-0.542762	0.526187	-0.000050
C56	C	-0.744422	0.528238	-0.000044
O57	O	-0.775677	0.491017	-0.000019
N58	N	-0.763546	0.572573	-0.000049
C59	C	-0.732251	0.616399	-0.000053
O60	O	-0.753144	0.654156	-0.000052
C61	C	-0.530592	0.614347	-0.000055
C62	C	-0.511472	0.570009	-0.000055
C63	C	-0.523641	0.481853	-0.000049
C64	C	-0.473229	0.481340	-0.000054
C65	C	-0.441938	0.525162	-0.000058
C66	C	-0.461060	0.569497	-0.000059
C67	C	-0.499299	0.658172	-0.000054
C68	C	-0.448881	0.657656	-0.000054
C69	C	-0.429761	0.613317	-0.000054
C70	C	-0.379357	0.612807	-0.000068
N71	N	-0.360233	0.568472	-0.000063
C72	C	-0.391524	0.524649	-0.000058
C73	C	-0.838125	0.617473	-0.000052
C74	C	-0.888539	0.617986	-0.000053
C75	C	-0.900707	0.529825	-0.000044
C76	C	-0.850291	0.529312	-0.000047
C77	C	-0.819001	0.573138	-0.000047
C78	C	-0.285655	0.523577	-0.000067
C79	C	-0.235238	0.523069	-0.000073
C80	C	-0.223075	0.611229	-0.000080
C81	C	-0.273487	0.611738	-0.000076
C82	C	-0.304777	0.567908	-0.000068
O83	O	-0.348073	0.650008	-0.000088
O84	O	-0.370621	0.486898	-0.000048
C85	C	-0.593174	0.526699	-0.000046
C86	C	-0.612295	0.571034	-0.000046
C87	C	-0.581005	0.614856	-0.000051
C88	C	-0.662710	0.571547	-0.000047
C89	C	-0.694001	0.527725	-0.000042
C90	C	-0.674877	0.483389	-0.000037
C91	C	-0.624465	0.482877	-0.000041
C92	C	-0.600129	0.659191	-0.000056
C93	C	-0.650541	0.659700	-0.000053
C94	C	-0.681832	0.615878	-0.000048
C95	C	0.026515	0.574716	-0.000056
C96	C	0.080170	0.574164	-0.000048
C97	C	-0.057699	0.658931	-0.000073
C98	C	-0.058252	0.712586	-0.000076
N99	N	-0.061906	0.570509	-0.129312
C100	C	-0.028781	0.603640	-0.473939
C101	C	-0.028774	0.603652	-0.682817
O102	O	-0.000613	0.631801	-0.709821
N103	N	-0.061870	0.570539	-0.708940
C104	C	-0.094969	0.537419	-0.682840
O105	O	-0.123116	0.509252	-0.709852
C106	C	-0.094974	0.537406	-0.473963
C107	C	-0.061878	0.570524	-0.447843
C108	C	0.004312	0.636755	-0.447818
C109	C	0.004308	0.636754	-0.395602
C110	C	-0.028789	0.603637	-0.369506
C111	C	-0.061882	0.570522	-0.395627
C112	C	-0.128070	0.504284	-0.447865
C113	C	-0.128067	0.504283	-0.395642
C114	C	-0.094972	0.537401	-0.369522
C115	C	-0.094983	0.537405	-0.317314
N116	N	-0.061887	0.570517	-0.291191
C117	C	-0.028790	0.603633	-0.317287
C118	C	-0.094965	0.537429	-0.792503
C119	C	-0.094964	0.537433	-0.844722
C120	C	-0.028768	0.603665	-0.844695
C121	C	-0.028772	0.603663	-0.792475
C122	C	-0.061868	0.570542	-0.766380
C123	C	-0.028801	0.603628	-0.207629
C124	C	-0.028809	0.603625	-0.155408
C125	C	-0.095003	0.537392	-0.155440
C126	C	-0.094997	0.537396	-0.207656
C127	C	-0.061892	0.570516	-0.233750
O128	O	-0.123126	0.509266	-0.290278
O129	O	-0.000640	0.631789	-0.290266
C130	C	-0.028777	0.603642	-0.526155
C131	C	-0.061870	0.570527	-0.552275
C132	C	-0.094968	0.537410	-0.526180
C133	C	-0.061870	0.570531	-0.604494
C134	C	-0.028773	0.603647	-0.630590
C135	C	0.004324	0.636759	-0.604467
C136	C	0.004320	0.636758	-0.552251
C137	C	-0.128064	0.504298	-0.552303
C138	C	-0.128058	0.504303	-0.604519
C139	C	-0.094961	0.537419	-0.630615
N140	N	-0.061867	0.570549	0.129182
H141	H	-0.138273	-0.293777	-0.000083
H142	H	0.031266	0.663722	-0.469061
H143	H	-0.834727	0.493208	-0.000049
H144	H	-0.145454	0.412743	-0.000054
Cl145	Cl	-0.136578	0.495789	-0.759704
Cl146	Cl	0.045930	0.678392	-0.637284
Cl147	Cl	-0.714223	0.428299	-0.000033
H148	H	-0.514857	0.694277	-0.000054
Cl149	Cl	0.012799	0.645263	-0.122574
H150	H	-0.144530	0.321291	-0.000068
Cl151	Cl	-0.940053	0.474734	-0.000037
H152	H	0.021674	-0.271687	-0.000064
Cl153	Cl	-0.206818	0.183216	-0.000076
H154	H	0.031269	0.663725	-0.530988
Cl155	Cl	-0.912570	0.673727	-0.000060
Cl156	Cl	-0.169670	0.462666	-0.637350
Cl157	Cl	-0.600435	0.427135	-0.000039
H158	H	0.063392	-0.033688	-0.000070
Cl159	Cl	0.045918	0.678386	-0.362771
H160	H	-0.186251	0.083302	-0.000081
Cl161	Cl	0.035062	0.334890	-0.000055
H162	H	-0.001822	0.630630	-0.771211
H163	H	-0.812652	0.653163	-0.000054
Cl164	Cl	-0.674571	0.715445	-0.000052
Cl165	Cl	0.081872	0.071617	-0.000066
Cl166	Cl	-0.409548	0.712754	-0.000053
Cl167	Cl	0.012840	0.645296	-0.877512
H168	H	0.020747	-0.180236	-0.000072
H169	H	-0.289056	0.647842	-0.000084
Cl170	Cl	-0.183729	0.666317	-0.000089
Cl171	Cl	0.080338	0.222868	-0.000075
Cl172	Cl	-0.560799	0.714288	-0.000064
Cl173	Cl	0.012817	0.645266	-0.240424
Cl174	Cl	-0.136578	0.495804	-0.877553
H175	H	-0.155015	0.477330	-0.531059
Cl176	Cl	-0.169677	0.462641	-0.362841
H177	H	-0.219673	0.486962	-0.000076
Cl178	Cl	-0.169676	0.462647	-0.480691
Cl179	Cl	-0.205281	0.031981	-0.000084
Cl180	Cl	-0.204117	-0.081807	-0.000090
Cl181	Cl	-0.136609	0.495766	-0.240492
H182	H	-0.121952	0.510430	-0.134184
Cl183	Cl	0.081500	0.109093	-0.000065
H184	H	-0.457666	0.445236	-0.000049
Cl185	Cl	-0.158845	-0.193844	-0.000078
H186	H	-0.311125	0.487886	-0.000060
Cl187	Cl	-0.562970	0.426754	-0.000043
H188	H	0.014492	0.434827	-0.000044
