data_functionalizedCrystal
_audit_creation_method	'MofGen! by Chris Wilmer'
_symmetry_space_group_name_H-M	'P1'
_symmetry_Int_Tables_number	1
_symmetry_cell_setting	triclinic
loop_
_symmetry_equiv_pos_as_xyz
  x,y,z
_cell_length_a	6.817900
_cell_length_b	11.102188
_cell_length_c	15.301140
_cell_angle_alpha	93.595362
_cell_angle_beta	104.177739
_cell_angle_gamma	108.603875
loop_
_atom_site_label
_atom_site_type_symbol
_atom_site_fract_x
_atom_site_fract_y
_atom_site_fract_z
V1	V	-4.060634	-0.176699	-0.281145
O2	O	-4.020645	0.007606	-0.275793
O3	O	-4.037750	-0.349513	-0.279222
O4	O	-4.015222	-0.174369	-0.403762
O5	O	-4.043329	-0.168750	-0.150391
V6	V	-4.540568	-0.154608	-0.265506
O7	O	-4.329764	-0.225157	-0.315451
O8	O	-4.721636	-0.106150	-0.231200
O9	O	-4.340246	0.018206	-0.267429
O10	O	-4.697954	-0.338913	-0.270858
O11	O	-4.675270	-0.162557	-0.396260
O12	O	-4.362774	-0.156938	-0.142889
C13	C	-3.888861	-0.391629	-0.274787
C14	C	-3.951457	-0.532910	-0.274032
C15	C	-3.935642	-0.580882	-0.191103
C16	C	-3.994481	-0.713631	-0.190397
C17	C	-4.084940	-0.750426	-0.355558
C18	C	-4.026116	-0.617679	-0.356263
C19	C	-3.860123	-0.168215	-0.433649
C20	C	-3.904446	-0.167453	-0.533889
C21	C	-4.108449	-0.173459	-0.585576
C22	C	-4.150083	-0.172743	-0.679761
C23	C	-3.987715	-0.166030	-0.722260
C24	C	-3.783693	-0.160021	-0.670566
C25	C	-3.742057	-0.160727	-0.576381
C26	C	-3.870488	-0.158551	-0.866878
C27	C	-3.912127	-0.157846	-0.961070
C28	C	-4.278514	-0.170566	-0.970259
C29	C	-4.236878	-0.171273	-0.876073
C30	C	-4.032859	-0.165265	-0.824386
C31	C	-4.152478	0.060315	-0.271861
C32	C	-4.069120	0.201594	-0.272622
C33	C	-4.181215	-0.163097	-0.112997
C34	C	-4.116130	-0.163852	-0.012756
H35	H	-3.981601	-0.752682	-0.122868
N36	N	-4.283575	-0.180682	-0.539743
H37	H	-4.226250	-0.180218	-0.472233
H38	H	-4.410187	-0.262509	-0.566967
N39	N	-4.165500	-0.841857	-0.444247
H40	H	-4.200374	-0.933232	-0.431218
H41	H	-4.050405	-0.822291	-0.477385
H42	H	-4.369100	-0.176748	-0.841475
H43	H	-3.779906	-0.152372	-0.995668
H44	H	-3.704335	-0.153612	-0.824791
N45	N	-3.522026	-0.154258	-0.520632
H46	H	-3.520283	-0.155720	-0.454518
H47	H	-3.409986	-0.072179	-0.526336
N48	N	-4.498567	-0.177051	-1.026001
H49	H	-4.500310	-0.175580	-1.092115
H50	H	-4.531969	-0.100779	-1.002788
N51	N	-4.370102	-0.179196	-0.735508
H52	H	-4.466643	-0.183557	-0.694293
H53	H	-4.434703	-0.258350	-0.783549
N54	N	-4.043148	-0.565922	-0.445710
H55	H	-4.145342	-0.516073	-0.452741
H56	H	-4.099281	-0.639826	-0.497643
H57	H	-3.874852	-0.511865	-0.124145
N58	N	-3.608549	-0.152778	-0.716392
H59	H	-3.578330	-0.073027	-0.746513
H60	H	-3.657102	-0.231436	-0.763974
