data_functionalizedCrystal
_audit_creation_method	'MofGen! by Chris Wilmer'
_symmetry_space_group_name_H-M	'P1'
_symmetry_Int_Tables_number	1
_symmetry_cell_setting	triclinic
loop_
_symmetry_equiv_pos_as_xyz
  x,y,z
_cell_length_a	21.295417
_cell_length_b	16.959455
_cell_length_c	16.959455
_cell_angle_alpha	89.989109
_cell_angle_beta	90.019041
_cell_angle_gamma	89.974501
loop_
_atom_site_label
_atom_site_type_symbol
_atom_site_fract_x
_atom_site_fract_y
_atom_site_fract_z
Zn1	Zn	-0.250781	-1.208227	0.447078
Zn2	Zn	0.249219	-0.708227	0.947078
Zn3	Zn	-0.356028	-1.208155	0.314888
Zn4	Zn	0.143972	-0.708155	0.814888
Zn5	Zn	-0.250768	-1.076085	0.314894
Zn6	Zn	0.249232	-0.576085	0.814894
Zn7	Zn	-0.356007	-1.075996	0.447005
Zn8	Zn	0.143993	-0.575996	0.947005
O9	O	-0.303396	-1.142116	0.380967
O10	O	0.196604	-0.642116	0.880967
O11	O	-0.264757	-1.318828	0.429571
O12	O	0.235243	-0.818828	0.929571
O13	O	-0.342068	-1.190642	0.204278
O14	O	0.157932	-0.690642	0.704278
O15	O	-0.162680	-1.093681	0.332462
O16	O	0.337320	-0.593681	0.832462
O17	O	-0.342081	-1.318775	0.332452
O18	O	0.157919	-0.818775	0.832452
O19	O	-0.162690	-1.190765	0.429577
O20	O	0.337310	-0.690765	0.929577
O21	O	-0.264734	-1.093611	0.204283
O22	O	0.235266	-0.593611	0.704283
O23	O	-0.264714	-0.965462	0.332391
O24	O	0.235286	-0.465462	0.832391
O25	O	-0.342046	-1.093530	0.557626
O26	O	0.157954	-0.593530	1.057626
O27	O	-0.342033	-0.965397	0.429453
O28	O	0.157967	-0.465397	0.929453
O29	O	-0.264737	-1.190679	0.557679
O30	O	0.235263	-0.690679	1.057679
O31	O	-0.444115	-1.190556	0.332381
O32	O	0.055885	-0.690556	0.832381
O33	O	-0.444099	-1.093460	0.429447
O34	O	0.055901	-0.593460	0.929447
C35	C	-0.303370	-0.936749	0.380915
C36	C	0.196630	-0.436749	0.880915
C37	C	-0.303374	-0.848893	0.380912
C38	C	0.196626	-0.348893	0.880912
C39	C	-0.343600	-0.477379	0.330333
C40	C	0.156400	0.022621	0.830333
C41	C	-0.263207	-0.477455	0.431621
C42	C	0.236793	0.022545	0.931621
C43	C	-0.263199	-0.560001	0.431606
C44	C	0.236801	-0.060001	0.931606
C45	C	-0.303393	-0.601240	0.380955
C46	C	0.196607	-0.101240	0.880955
C47	C	-0.343595	-0.559933	0.330319
C48	C	0.156405	-0.059933	0.830319
C49	C	-0.223002	-0.601315	0.482247
C50	C	0.276998	-0.101315	0.982247
C51	C	-0.222993	-0.683866	0.482236
C52	C	0.277007	-0.183866	0.982236
C53	C	-0.263184	-0.725106	0.431580
C54	C	0.236816	-0.225106	0.931580
C55	C	-0.303387	-0.683793	0.380941
C56	C	0.196613	-0.183793	0.880941
C57	C	-0.343581	-0.725032	0.330290
C58	C	0.156419	-0.225032	0.830290
C59	C	-0.383782	-0.683721	0.279646
C60	C	0.116218	-0.183721	0.779646
C61	C	-0.383786	-0.601173	0.279663
C62	C	0.116214	-0.101173	0.779663
C63	C	-0.263180	-0.807654	0.431563
C64	C	0.236820	-0.307654	0.931563
C65	C	-0.343576	-0.807585	0.330275
C66	C	0.156424	-0.307585	0.830275
C67	C	-0.466948	-1.142012	0.380923
C68	C	0.033052	-0.642012	0.880923
C69	C	-0.536916	-1.142040	0.380931
C70	C	-0.036916	-0.642040	0.880931
C71	C	-0.569770	-1.192643	0.330440
C72	C	-0.069770	-0.692643	0.830440
C73	C	-0.635512	-1.192680	0.330458
C74	C	-0.135512	-0.692680	0.830458
C75	C	-0.668398	-1.142100	0.380958
C76	C	-0.168398	-0.642100	0.880958
C77	C	-0.635537	-1.091493	0.431458
C78	C	-0.135537	-0.591493	0.931458
C79	C	-0.569795	-1.091463	0.431444
C80	C	-0.069795	-0.591463	0.931444
N81	N	-0.771660	-1.072952	0.386966
N82	N	-0.271660	-0.572952	0.886966
N83	N	-0.834112	-1.072983	0.386975
N84	N	-0.334112	-0.572983	0.886975
C85	C	-0.866473	-1.142189	0.381003
C86	C	-0.366473	-0.642189	0.881003
N87	N	-0.834024	-1.211364	0.375008
N88	N	-0.334024	-0.711364	0.875008
N89	N	-0.771566	-1.211332	0.374995
N90	N	-0.271566	-0.711332	0.874995
C91	C	-0.739684	-1.142127	0.380979
C92	C	-0.239684	-0.642127	0.880979
C93	C	-0.970612	-1.192836	0.330529
C94	C	-0.470612	-0.692836	0.830529
C95	C	-1.036356	-1.192874	0.330553
C96	C	-0.536356	-0.692874	0.830553
C97	C	-1.036379	-1.091681	0.431549
C98	C	-0.536379	-0.591681	0.931549
C99	C	-0.970637	-1.091649	0.431529
C100	C	-0.470637	-0.591649	0.931529
C101	C	-0.937757	-1.142226	0.381016
C102	C	-0.437757	-0.642226	0.881016
C103	C	-0.139206	-1.142241	0.381028
C104	C	0.360794	-0.642241	0.881028
C105	C	-0.069238	-1.142295	0.381054
C106	C	0.430762	-0.642295	0.881054
C107	C	-0.303390	-1.142103	0.587135
C108	C	0.196610	-0.642103	1.087135
C109	C	-0.303388	-1.142097	0.674991
C110	C	0.196612	-0.642097	1.174991
C111	C	-0.303416	-0.348284	0.381004
C112	C	0.196584	0.151716	0.881004
C113	C	-0.303406	-0.436140	0.380984
C114	C	0.196594	0.063860	0.880984
C115	C	-0.343656	-1.091527	1.046442
C116	C	0.156344	-0.591527	1.546442
C117	C	-0.263154	-1.192690	1.046492
C118	C	0.236846	-0.692690	1.546492
C119	C	-0.263148	-1.192688	0.963946
C120	C	0.236852	-0.692688	1.463946
C121	C	-0.303398	-1.142105	0.922644
C122	C	0.196602	-0.642105	1.422644
C123	C	-0.343654	-1.091525	0.963888
C124	C	0.156346	-0.591525	1.463888
C125	C	-0.222898	-1.243272	0.922697
C126	C	0.277102	-0.743272	1.422697
C127	C	-0.222892	-1.243272	0.840146
C128	C	0.277108	-0.743272	1.340146
C129	C	-0.263139	-1.192685	0.798842
C130	C	0.236861	-0.692685	1.298842
C131	C	-0.303396	-1.142102	0.840091
C132	C	0.196604	-0.642102	1.340091
C133	C	-0.343646	-1.091520	0.798789
C134	C	0.156354	-0.591520	1.298789
C135	C	-0.383899	-1.040932	0.840036
C136	C	0.116101	-0.540932	1.340036
C137	C	-0.383901	-1.040938	0.922584
C138	C	0.116099	-0.540938	1.422584
C139	C	-0.263138	-1.192680	0.716294
C140	C	0.236862	-0.692680	1.216294
C141	C	-0.343643	-1.091517	0.716235
C142	C	0.156357	-0.591517	1.216235
C143	C	-0.303413	-1.142118	1.175600
C144	C	0.196587	-0.642118	1.675600
C145	C	-0.303406	-1.142110	1.087744
C146	C	0.196594	-0.642110	1.587744
H147	H	-0.230450	-0.841286	0.472798
H148	H	0.269550	-0.341286	0.972798
F149	F	-0.180208	-0.727824	0.536134
F150	F	0.319792	-0.227824	1.036134
H151	H	-0.376305	-0.841156	0.289026
H152	H	0.123695	-0.341156	0.789026
F153	F	-0.935617	-1.246663	0.276769
F154	F	-0.435617	-0.746663	0.776769
H155	H	-1.063155	-1.050501	0.472670
H156	H	-0.563155	-0.550501	0.972670
H157	H	-0.230366	-1.233869	0.682714
H158	H	0.269634	-0.733869	1.182714
H159	H	-0.376329	-0.443740	0.289098
H160	H	0.123671	0.056260	0.789098
H161	H	-0.376428	-1.050338	1.080029
H162	H	0.123572	-0.550338	1.580029
H163	H	-0.416511	-0.717308	0.238410
H164	H	0.083489	-0.217308	0.738410
F165	F	-0.534781	-1.246480	0.276687
F166	F	-0.034781	-0.746480	0.776687
F167	F	-0.670485	-1.246540	0.276716
F168	F	-0.170485	-0.746540	0.776716
H169	H	-0.416515	-0.567530	0.238431
H170	H	0.083485	-0.067530	0.738431
H171	H	-0.190115	-1.284463	0.806569
H172	H	0.309885	-0.784463	1.306569
H173	H	-0.416674	-0.999752	0.806397
H174	H	0.083326	-0.499752	1.306397
H175	H	-0.230486	-0.443874	0.472863
H176	H	0.269514	0.056126	0.972863
H177	H	-0.190282	-0.567732	0.523490
H178	H	0.309718	-0.067732	1.023490
H179	H	-0.662317	-1.050312	0.472577
H180	H	-0.162317	-0.550312	0.972577
F181	F	-0.426740	-0.987107	0.966488
F182	F	0.073260	-0.487107	1.466488
F183	F	-1.071321	-1.246741	0.276816
F184	F	-0.571321	-0.746741	0.776816
F185	F	-0.534829	-1.037602	0.485186
F186	F	-0.034829	-0.537602	0.985186
F187	F	-0.935670	-1.037787	0.485266
F188	F	-0.435670	-0.537787	0.985266
F189	F	-0.386480	-1.037675	0.672285
F190	F	0.113520	-0.537675	1.172285
F191	F	-0.220324	-1.246526	1.090451
F192	F	0.279676	-0.746526	1.590451
H193	H	-0.190133	-1.284459	0.956331
H194	H	0.309867	-0.784459	1.456331
