data_functionalizedCrystal
_audit_creation_method	'MofGen! by Chris Wilmer'
_symmetry_space_group_name_H-M	'P1'
_symmetry_Int_Tables_number	1
_symmetry_cell_setting	triclinic
loop_
_symmetry_equiv_pos_as_xyz
  x,y,z
_cell_length_a	23.096457
_cell_length_b	14.560438
_cell_length_c	14.560438
_cell_angle_alpha	90.000844
_cell_angle_beta	60.001153
_cell_angle_gamma	60.002684
loop_
_atom_site_label
_atom_site_type_symbol
_atom_site_fract_x
_atom_site_fract_y
_atom_site_fract_z
Zr1	Zr	0.633737	-0.120488	0.884778
O2	O	0.754520	-0.267125	0.738136
O3	O	0.512952	-0.075542	0.929728
O4	O	0.633736	-0.267135	0.929732
O5	O	0.633738	0.075606	0.738132
O6	O	0.633738	-0.267136	1.080870
O7	O	0.633736	-0.075532	0.738132
O8	O	0.417678	0.075589	1.080863
O9	O	0.849798	-0.267119	0.738139
O10	O	0.562635	-0.056367	1.061695
O11	O	0.562635	0.056427	0.948903
O12	O	0.704842	-0.169149	0.948908
O13	O	0.704842	-0.056355	0.836116
Zr14	Zr	0.633742	0.120558	1.125827
Zr15	Zr	0.633740	-0.120490	1.125826
Zr16	Zr	0.633740	0.120560	0.884779
Zr17	Zr	0.785695	-0.120478	0.884784
Zr18	Zr	0.481785	0.120548	1.125821
O19	O	0.754527	0.075612	1.080877
O20	O	0.754524	-0.267128	1.080875
O21	O	0.754524	0.075614	0.738137
O22	O	0.512960	0.267195	1.272469
O23	O	0.512956	-0.075544	1.272467
O24	O	0.512956	0.267198	0.929730
O25	O	0.633742	-0.075536	1.272472
O26	O	0.633743	0.267205	1.080873
O27	O	0.633742	0.267206	0.929735
O28	O	0.633743	0.075602	1.272473
O29	O	0.849800	-0.267120	0.929740
O30	O	0.417680	0.267190	1.080864
O31	O	0.417682	0.267189	1.272465
O32	O	0.417680	0.075588	1.272464
O33	O	0.849800	-0.075518	0.738140
O34	O	0.849802	-0.075519	0.929741
O35	O	0.562637	0.169219	1.061697
O36	O	0.562637	0.056425	1.174489
O37	O	0.704845	-0.056357	1.061701
O38	O	0.704845	0.056437	0.948909
C39	C	0.443664	0.000022	1.005295
C40	C	0.379154	0.000018	1.005292
C41	C	0.633737	0.000037	0.703788
C42	C	0.633736	0.000038	0.601457
C43	C	0.633743	0.301549	1.005304
C44	C	0.633744	0.403881	1.005304
C45	C	0.348854	-0.058863	1.064161
C46	C	0.288231	-0.058854	1.064172
C47	C	0.257924	0.000021	1.005292
C48	C	0.288229	0.058915	0.946421
C49	C	0.348844	0.058914	0.946421
N50	N	0.195527	-0.008142	0.909476
N51	N	0.137946	-0.008147	0.909478
C52	C	0.075292	0.000032	1.005291
N53	N	0.072401	0.008193	1.101100
N54	N	0.129989	0.008191	1.101095
C55	C	0.192196	0.000030	1.005286
C56	C	-0.020744	-0.058843	1.064177
C57	C	-0.081371	-0.058825	1.064191
C58	C	-0.081366	0.058937	0.946429
C59	C	-0.020746	0.058927	0.946426
C60	C	0.009564	0.000031	1.005297
C61	C	0.823815	0.000048	1.005310
C62	C	0.888325	0.000052	1.005312
C63	C	0.633737	-0.301479	1.005301
C64	C	0.633736	-0.403811	1.005300
C65	C	0.707974	0.393088	0.946432
C66	C	0.707970	0.489243	0.946426
C67	C	0.559500	0.606980	1.064174
C68	C	0.559505	0.510826	1.064173
C69	C	0.559506	0.058905	0.612252
C70	C	0.559510	0.058906	0.516097
C71	C	0.707979	-0.058837	0.398354
C72	C	0.707975	-0.058830	0.494508
C73	C	0.633743	0.000033	1.306817
C74	C	0.633744	0.000032	1.409148
C75	C	0.443668	0.000020	1.306809
C76	C	0.379159	0.000015	1.409138
C77	C	0.443668	0.301537	1.005296
C78	C	0.379159	0.403864	1.005294
C79	C	0.443671	0.301534	1.306811
C80	C	0.379163	0.403861	1.409140
C81	C	0.823809	-0.301464	0.703794
C82	C	0.888317	-0.403791	0.601465
C83	C	0.823812	0.000050	0.703796
C84	C	0.888321	0.000055	0.601467
C85	C	0.823812	-0.301467	1.005308
C86	C	0.888321	-0.403794	1.005310
C87	C	0.348863	-0.058874	1.398315
C88	C	0.288259	-0.058901	1.494455
C89	C	0.257947	-0.000032	1.601415
C90	C	0.288248	0.058858	1.612236
C91	C	0.348856	0.058878	1.516097
C92	C	0.348866	0.510804	1.064170
C93	C	0.288262	0.606960	1.064164
C94	C	0.257947	0.596174	1.005288
C95	C	0.288246	0.489222	0.946404
C96	C	0.348853	0.393068	0.946405
C97	C	0.348870	0.393037	1.516081
C98	C	0.288266	0.489174	1.612239
C99	C	0.257953	0.596134	1.601454
C100	C	0.288253	0.606955	1.494501
C101	C	0.348859	0.510819	1.398345
C102	C	0.918617	-0.392967	0.494523
C103	C	0.979240	-0.489104	0.398365
C104	C	1.009556	-0.596064	0.409151
C105	C	0.979252	-0.606885	0.516103
C106	C	0.918635	-0.510749	0.612259
C107	C	0.918623	0.058934	0.612289
C108	C	0.979244	0.058934	0.516150
C109	C	1.009558	0.000062	0.409189
C110	C	0.979254	-0.058824	0.398369
C111	C	0.918638	-0.058830	0.494507
C112	C	0.918616	-0.392971	1.064198
C113	C	0.979221	-0.489109	1.064222
C114	C	1.009534	-0.596068	1.005351
C115	C	0.979232	-0.606888	0.946461
C116	C	0.918624	-0.510752	0.946445
H117	H	0.373528	-0.106816	1.112100
N118	N	0.255587	0.722305	1.127680
H119	H	0.283985	0.714538	1.164985
H120	H	0.194741	0.764763	1.186867
H121	H	0.373516	0.106862	0.898480
N122	N	0.788048	0.277748	0.882927
H123	H	0.791363	0.235223	0.823675
H124	H	0.791317	0.235321	0.936999
N125	N	-0.114049	0.122444	0.882927
H126	H	-0.139193	0.204806	0.913817
H127	H	-0.157017	0.113426	0.891883
N128	N	0.381519	0.522495	1.283000
H129	H	0.442363	0.485238	1.240463
H130	H	0.353056	0.604862	1.290859
N131	N	0.192576	0.699887	1.005294
H132	H	0.177988	0.769267	1.051533
H133	H	0.142319	0.699836	1.038779
H134	H	0.263595	-0.106856	1.485623
H135	H	1.003886	-0.480277	1.112175
N136	N	1.074935	-0.699749	0.305434
H137	H	1.089524	-0.676651	0.236054
H138	H	1.053796	-0.745988	0.305479
H139	H	1.003907	0.106891	0.524982
H140	H	0.768422	-0.106766	0.311268
N141	N	0.255538	-0.122366	1.127659
H142	H	0.230391	-0.091499	1.210026
H143	H	0.301818	-0.204716	1.096677
N144	N	0.479432	0.722326	1.127682
H145	H	0.490691	0.781603	1.118758
H146	H	0.447024	0.731213	1.210016
H147	H	0.373514	0.106839	1.524925
N148	N	0.885954	-0.522431	0.727602
H149	H	0.914359	-0.604780	0.719832
H150	H	0.825110	-0.485121	0.770051
H151	H	0.003928	0.106870	0.898484
H152	H	0.373510	0.305996	0.898465
H153	H	1.003944	-0.693983	0.524872
H154	H	0.893945	-0.305888	1.112138
N155	N	1.011915	-0.477428	0.283015
H156	H	1.037048	-0.434933	0.274018
H157	H	0.965629	-0.434998	0.274086
H158	H	1.058885	-0.674340	1.005373
N159	N	0.192578	-0.000061	1.705103
H160	H	0.177989	-0.046301	1.682006
H161	H	0.142322	0.079704	1.751340
N162	N	0.255551	0.122348	1.727603
H163	H	0.212558	0.113396	1.786855
H164	H	0.230440	0.204688	1.736518
H165	H	0.768425	-0.106764	0.485710
H166	H	0.373543	-0.106825	1.311231
H167	H	0.373541	0.519608	1.112115
H168	H	0.768415	0.480445	0.898485
H169	H	0.499055	0.519623	1.112113
H170	H	0.893945	0.106882	0.699373
N171	N	1.074937	0.000075	0.305502
H172	H	1.089527	0.046314	0.328598
H173	H	1.053797	0.033560	0.259264
N174	N	0.479435	0.122400	0.727598
H175	H	0.446983	0.204762	0.736601
H176	H	0.490757	0.113385	0.786809
N177	N	0.381550	0.277681	1.527730
H178	H	0.353156	0.285429	1.610075
H179	H	0.442396	0.235220	1.490400
H180	H	0.499065	0.106843	0.524897
N181	N	0.255541	0.477597	0.882912
H182	H	0.212547	0.554743	0.891860
H183	H	0.230429	0.435090	0.913838
N184	N	1.011930	-0.722254	0.882967
H185	H	1.054924	-0.781505	0.891916
H186	H	1.037041	-0.731166	0.800627
N187	N	0.255592	0.477488	1.727585
H188	H	0.283989	0.395140	1.719818
H189	H	0.194746	0.514815	1.770048
H190	H	0.893937	-0.305884	0.485720
N191	N	0.192585	0.699819	1.705170
H192	H	0.177996	0.676721	1.774550
H193	H	0.142328	0.746053	1.705122
H194	H	0.003933	-0.106795	1.112118
N195	N	0.255554	0.722322	1.482877
H196	H	0.212561	0.781572	1.560025
H197	H	0.230441	0.731234	1.440371
N198	N	1.011940	-0.122297	0.283001
H199	H	1.054930	-0.113339	0.223750
H200	H	0.965642	-0.091362	0.274104
N201	N	0.885961	-0.122338	0.482815
H202	H	0.860823	-0.091447	0.440330
H203	H	0.842992	-0.113401	0.559976
N204	N	0.255540	0.122425	0.882922
H205	H	0.212543	0.113490	0.891852
H206	H	0.301829	0.091518	0.800585
N207	N	-0.114060	-0.122330	1.127694
H208	H	-0.085656	-0.159640	1.164984
H209	H	-0.103518	-0.181511	1.073631
H210	H	0.893964	-0.519579	0.898486
