data_functionalizedCrystal
_audit_creation_method	'MofGen! by Chris Wilmer'
_symmetry_space_group_name_H-M	'P1'
_symmetry_Int_Tables_number	1
_symmetry_cell_setting	triclinic
loop_
_symmetry_equiv_pos_as_xyz
  x,y,z
_cell_length_a	17.699083
_cell_length_b	9.065218
_cell_length_c	8.140239
_cell_angle_alpha	90.001686
_cell_angle_beta	89.996690
_cell_angle_gamma	84.149450
loop_
_atom_site_label
_atom_site_type_symbol
_atom_site_fract_x
_atom_site_fract_y
_atom_site_fract_z
O1	O	-1.005529	-0.186555	-0.136376
O2	O	-0.785340	-0.210827	-0.136429
O3	O	-0.899986	0.016086	-0.136398
O4	O	-0.890883	-0.413468	-0.136407
O5	O	-0.899979	0.016089	0.136829
O6	O	-0.785333	-0.210824	0.136798
O7	O	-1.005522	-0.186553	0.136851
Zn8	Zn	-0.895427	-0.198688	0.180205
Zn9	Zn	-0.895435	-0.198691	-0.179783
O10	O	-0.890877	-0.413466	0.136820
C11	C	-0.899108	0.071048	0.000212
C12	C	-0.896492	0.234814	0.000204
C13	C	-0.757133	-0.209956	0.000177
C14	C	-0.673094	-0.207347	0.000157
C15	C	-1.033729	-0.187423	0.000240
C16	C	-1.117768	-0.190033	0.000250
C17	C	-0.625512	-0.340540	0.000155
C18	C	-0.546550	-0.338080	0.000176
C19	C	-0.515171	-0.202425	0.000188
C20	C	-0.562759	-0.069221	0.000195
C21	C	-0.641720	-0.071683	0.000186
C22	C	-0.244319	-0.059289	0.000236
C23	C	-0.165352	-0.056838	0.000241
C24	C	-0.149148	-0.325686	0.000226
C25	C	-0.228109	-0.328148	0.000217
C26	C	-0.275691	-0.194946	0.000233
C27	C	-0.361311	-0.197615	0.000213
C28	C	-0.429552	-0.199754	0.000196
C29	C	-0.891755	-0.468428	0.000206
C30	C	-0.894370	-0.632193	0.000203
N31	N	-0.895427	-0.198685	0.425888
N32	N	-0.895441	-0.198683	-0.425466
H33	H	-0.651054	-0.451006	0.000144
H34	H	-0.507811	-0.446539	0.000172
C35	C	-0.096806	-0.472215	0.000229
C36	C	-0.040283	-0.507494	-0.141640
C37	C	0.012056	-0.654018	-0.141644
C38	C	0.007873	-0.765264	0.000222
C39	C	-0.048653	-0.729988	0.142102
C40	C	-0.100992	-0.583464	0.142106
H41	H	-0.037184	-0.425140	-0.246668
H42	H	0.053900	-0.680130	-0.246674
H43	H	0.046617	-0.873730	0.000219
H44	H	-0.051752	-0.812342	0.247129
H45	H	-0.142836	-0.557352	0.247136
H46	H	-0.253653	-0.438612	0.000200
C47	C	-0.296648	0.087234	0.000230
C48	C	-0.292476	0.198482	0.142104
C49	C	-0.344808	0.345016	0.142092
C50	C	-0.401312	0.380301	0.000206
C51	C	-0.405487	0.269050	-0.141678
C52	C	-0.353155	0.122516	-0.141666
H53	H	-0.250646	0.172365	0.247145
H54	H	-0.341717	0.427371	0.247125
H55	H	-0.440052	0.488773	0.000198
H56	H	-0.447317	0.295167	-0.246720
H57	H	-0.356245	0.040161	-0.246699
C58	C	-0.694065	0.074831	0.000184
C59	C	-0.689899	0.186070	0.142070
C60	C	-0.742244	0.332588	0.142078
C61	C	-0.798753	0.367868	0.000200
C62	C	-0.802920	0.256627	-0.141696
C63	C	-0.750576	0.110108	-0.141704
H64	H	-0.648066	0.159956	0.247106
H65	H	-0.739158	0.414936	0.247120
H66	H	-0.837501	0.476329	0.000206
H67	H	-0.844754	0.282741	-0.246732
H68	H	-0.753661	0.027761	-0.246746
H69	H	-0.139807	0.053635	0.000252
H70	H	-0.537205	0.041232	0.000228
