data_functionalizedCrystal
_audit_creation_method	'MofGen! by Chris Wilmer'
_symmetry_space_group_name_H-M	'P1'
_symmetry_Int_Tables_number	1
_symmetry_cell_setting	triclinic
loop_
_symmetry_equiv_pos_as_xyz
  x,y,z
_cell_length_a	12.827893
_cell_length_b	14.908178
_cell_length_c	12.827885
_cell_angle_alpha	86.668630
_cell_angle_beta	89.980728
_cell_angle_gamma	93.314160
loop_
_atom_site_label
_atom_site_type_symbol
_atom_site_fract_x
_atom_site_fract_y
_atom_site_fract_z
Zn1	Zn	1.573645	-0.359141	-0.566802
Zn2	Zn	1.563445	-0.510038	-0.381959
Zn3	Zn	1.398884	-0.359186	-0.392073
Zn4	Zn	1.388782	-0.509972	-0.556664
O5	O	1.481189	-0.434584	-0.474375
O6	O	1.718528	-0.379167	-0.542293
O7	O	1.541575	-0.490074	-0.237062
O8	O	1.430562	-0.232925	-0.423727
O9	O	1.711034	-0.490031	-0.406490
O10	O	1.558959	-0.232892	-0.552100
O11	O	1.420672	-0.379243	-0.244492
O12	O	1.251308	-0.379178	-0.413896
O13	O	1.413346	-0.489917	-0.704248
O14	O	1.243887	-0.489960	-0.534820
O15	O	1.549164	-0.379103	-0.711697
O16	O	1.531780	-0.636285	-0.396659
O17	O	1.403455	-0.636236	-0.525013
C18	C	1.209680	-0.434568	-0.474356
C19	C	1.093526	-0.434582	-0.474371
C20	C	1.045443	-0.379821	-0.541664
C21	C	0.925392	-0.379835	-0.541681
C22	C	1.465443	-0.668997	-0.458661
C23	C	1.458802	-0.769279	-0.451974
C24	C	1.579922	-0.957537	-0.573226
C25	C	1.573686	-1.051762	-0.566946
C26	C	1.440090	-1.051955	-0.433140
C27	C	1.446326	-0.957730	-0.439420
C28	C	1.516245	-0.910525	-0.509464
C29	C	1.522486	-0.816298	-0.515738
C30	C	1.388885	-0.816493	-0.381938
C31	C	1.382649	-0.910718	-0.375659
C32	C	1.753758	-0.434602	-0.474394
C33	C	1.869911	-0.434609	-0.474402
C34	C	1.481266	-0.434498	-0.746951
C35	C	1.481299	-0.434461	-0.863107
C36	C	1.497025	-0.199256	-0.490172
C37	C	1.503774	-0.098974	-0.496904
C38	C	1.548513	-0.379615	-0.918578
C39	C	1.548549	-0.379576	-1.038631
C40	C	1.481177	-0.434605	-0.202863
C41	C	1.481364	-0.434388	-0.086725
H42	H	0.884027	-0.332954	-0.599295
F43	F	1.031169	-0.495873	-0.399078
H44	H	1.606029	-0.332687	-0.877190
H45	H	1.325721	-0.949165	-0.318634
H46	H	1.606097	-0.332624	-1.086321
F47	F	1.406147	-0.495771	-1.024401
H48	H	0.911268	-0.481500	-0.416794
F49	F	1.321118	-0.766452	-0.314068
F50	F	1.596902	-0.766060	-0.590281
H51	H	1.636860	-0.919102	-0.630251
F52	F	1.641457	-1.101793	-0.634812
H53	H	1.423774	-0.481380	-0.904495
F54	F	1.107800	-0.318523	-0.616949
F55	F	1.365663	-1.102209	-0.358622
