data_functionalizedCrystal
_audit_creation_method	'MofGen! by Chris Wilmer'
_symmetry_space_group_name_H-M	'P1'
_symmetry_Int_Tables_number	1
_symmetry_cell_setting	triclinic
loop_
_symmetry_equiv_pos_as_xyz
  x,y,z
_cell_length_a	14.519731
_cell_length_b	12.996460
_cell_length_c	14.519709
_cell_angle_alpha	90.007122
_cell_angle_beta	96.315501
_cell_angle_gamma	89.998888
loop_
_atom_site_label
_atom_site_type_symbol
_atom_site_fract_x
_atom_site_fract_y
_atom_site_fract_z
O1	O	1.223850	-0.085571	-0.120987
O2	O	1.723850	0.414429	0.379013
O3	O	0.955376	-0.085573	-0.135203
O4	O	1.455376	0.414427	0.364797
O5	O	1.096732	-0.085563	0.006143
O6	O	1.596732	0.414437	0.506143
O7	O	1.082495	-0.085582	-0.262333
O8	O	1.582495	0.414418	0.237667
O9	O	1.096729	0.085571	0.006152
O10	O	1.596729	0.585571	0.506152
O11	O	0.955374	0.085561	-0.135194
O12	O	1.455374	0.585561	0.364806
O13	O	1.223848	0.085563	-0.120978
O14	O	1.723848	0.585563	0.379022
Cu15	Cu	1.089611	0.101187	-0.128085
Cu16	Cu	1.589611	0.601187	0.371915
Cu17	Cu	1.089614	-0.101198	-0.128096
Cu18	Cu	1.589614	0.398802	0.371904
O19	O	1.082493	0.085552	-0.262324
O20	O	1.582493	0.585552	0.237676
C21	C	0.921016	-0.000006	-0.134532
C22	C	1.421016	0.499994	0.365468
C23	C	0.818635	-0.000007	-0.132536
C24	C	1.318635	0.499993	0.367464
C25	C	0.735491	-0.000011	-0.130915
C26	C	1.235491	0.499989	0.369085
C27	C	0.631182	-0.000011	-0.128888
C28	C	1.131182	0.499989	0.371112
C29	C	0.548043	-0.000011	-0.127280
C30	C	1.048043	0.499989	0.372720
C31	C	0.443728	-0.000013	-0.125253
C32	C	0.943728	0.499987	0.374747
N33	N	1.089616	-0.243545	-0.128097
N34	N	1.589616	0.256455	0.371903
C35	C	1.089612	-0.663360	-0.128088
C36	C	1.589612	-0.163360	0.371912
C37	C	1.089610	-0.546554	-0.128093
C38	C	1.589610	-0.046554	0.371907
C39	C	1.089613	-0.453456	-0.128092
C40	C	1.589613	0.046544	0.371908
C41	C	1.089613	-0.336644	-0.128098
C42	C	1.589613	0.163356	0.371902
C43	C	1.258209	-0.000007	-0.121649
C44	C	1.758209	0.499993	0.378351
C45	C	1.360589	-0.000013	-0.123645
C46	C	1.860589	0.499987	0.376355
C47	C	1.096067	0.000004	0.040507
C48	C	1.596067	0.500004	0.540507
C49	C	1.094079	0.000005	0.142889
C50	C	1.594079	0.500005	0.642889
N51	N	1.089615	0.243535	-0.128077
N52	N	1.589615	0.743535	0.371923
C53	C	1.083157	-0.000017	-0.296688
C54	C	1.583157	0.499983	0.203312
C55	C	1.085146	-0.000024	-0.399070
C56	C	1.585146	0.499976	0.100930
C57	C	1.086759	-0.000022	0.517785
C58	C	1.586759	0.499978	1.017785
C59	C	1.088792	-0.000014	0.413477
C60	C	1.588792	0.499986	0.913477
C61	C	1.090419	-0.000008	0.330340
C62	C	1.590419	0.499992	0.830340
C63	C	1.092452	-0.000002	0.226025
C64	C	1.592452	0.499998	0.726025
