data_functionalizedCrystal
_audit_creation_method	'MofGen! by Chris Wilmer'
_symmetry_space_group_name_H-M	'P1'
_symmetry_Int_Tables_number	1
_symmetry_cell_setting	triclinic
loop_
_symmetry_equiv_pos_as_xyz
  x,y,z
_cell_length_a	9.065218
_cell_length_b	17.019294
_cell_length_c	8.140239
_cell_angle_alpha	86.117515
_cell_angle_beta	89.997198
_cell_angle_gamma	84.203176
loop_
_atom_site_label
_atom_site_type_symbol
_atom_site_fract_x
_atom_site_fract_y
_atom_site_fract_z
O1	O	1.957263	0.115662	-0.152977
O2	O	2.457263	0.615662	0.347023
O3	O	1.527721	0.125150	-0.154321
O4	O	2.027721	0.625150	0.345679
O5	O	1.754475	0.005659	-0.137409
O6	O	2.254475	0.505659	0.362591
O7	O	1.730509	0.235153	-0.169889
O8	O	2.230509	0.735153	0.330111
O9	O	1.754463	0.005657	0.135819
O10	O	2.254463	0.505657	0.635819
O11	O	1.527709	0.125148	0.118906
O12	O	2.027709	0.625148	0.618906
O13	O	1.957251	0.115661	0.120250
O14	O	2.457251	0.615661	0.620250
Zn15	Zn	1.742478	0.120404	0.162959
Zn16	Zn	2.242478	0.620404	0.662959
Zn17	Zn	1.742494	0.120406	-0.197030
Zn18	Zn	2.242494	0.620406	0.302970
O19	O	1.730497	0.235152	0.103338
O20	O	2.230497	0.735152	0.603338
C21	C	1.472753	0.124237	-0.017579
C22	C	1.972753	0.624237	0.482421
C23	C	1.308984	0.121511	-0.017194
C24	C	1.808984	0.621511	0.482806
C25	C	1.753560	-0.023737	0.003362
C26	C	2.253560	0.476263	0.503362
C27	C	1.750834	-0.111327	0.015748
C28	C	2.250834	0.388673	0.515748
C29	C	1.749564	-0.152472	-0.127368
C30	C	2.249564	0.347528	0.372632
C31	C	1.746993	-0.234771	-0.115724
C32	C	2.246993	0.265229	0.384276
C33	C	1.745704	-0.275925	0.039037
C34	C	2.245704	0.224075	0.539037
C35	C	1.746970	-0.234774	0.182163
C36	C	2.246970	0.265226	0.682163
C37	C	1.749530	-0.152476	0.170518
C38	C	2.249530	0.347524	0.670518
C39	C	1.737964	-0.524413	0.081648
C40	C	2.237964	-0.024413	0.581648
C41	C	1.735408	-0.606718	0.093282
C42	C	2.235408	-0.106718	0.593282
C43	C	1.735429	-0.606709	-0.204607
C44	C	2.235429	-0.106709	0.295393
C45	C	1.737998	-0.524409	-0.216238
C46	C	2.237998	-0.024409	0.283762
C47	C	1.739256	-0.483265	-0.073111
C48	C	2.239256	0.016735	0.426889
C49	C	1.743081	-0.360049	0.050942
C50	C	2.243081	0.139951	0.550942
C51	C	1.741868	-0.399142	-0.085018
C52	C	2.241868	0.100858	0.414982
C53	C	2.012219	0.116573	-0.016496
C54	C	2.512219	0.616573	0.483504
C55	C	2.175988	0.119300	-0.016891
C56	C	2.675988	0.619300	0.483109
C57	C	1.731412	0.264548	-0.037436
C58	C	2.231412	0.764548	0.462564
C59	C	1.734138	0.352138	-0.049834
C60	C	2.234138	0.852138	0.450166
N61	N	1.742477	0.120403	0.408642
N62	N	2.242477	0.620403	0.908642
N63	N	1.742506	0.120402	-0.442712
N64	N	2.242506	0.620402	0.057288
H65	H	1.750622	-0.118971	-0.253391
H66	H	2.250622	0.381029	0.246609
H67	H	1.734350	-0.640222	0.219314
H68	H	2.234350	-0.140222	0.719314
H69	H	1.742036	-0.393566	0.176949
H70	H	2.242036	0.106434	0.676949
H71	H	1.745965	-0.268268	-0.232265
H72	H	2.245965	0.231732	0.267735
H73	H	1.739050	-0.490907	-0.342261
H74	H	2.239050	0.009093	0.157739
O75	O	1.750964	-0.112435	0.309431
O76	O	2.250964	0.387565	0.809431
C77	C	1.880163	-0.072863	0.312784
C78	C	2.380163	0.427137	0.812784
H79	H	1.923138	-0.063200	0.182107
H80	H	2.423138	0.436800	0.682107
H81	H	1.968596	-0.110198	0.391570
H82	H	2.468596	0.389802	0.891570
C83	C	1.791002	-0.004124	0.547041
C84	C	2.291002	0.495876	1.047041
C85	C	1.843776	0.007750	0.386540
C86	C	2.343776	0.507750	0.886540
H87	H	1.768560	0.045600	0.592544
H88	H	2.268560	0.545600	1.092544
H89	H	1.703960	-0.030787	0.544787
H90	H	2.203960	0.469213	1.044787
H91	H	1.864705	-0.035239	0.612676
H92	H	2.364705	0.464761	1.112676
H93	H	1.770067	0.038855	0.320904
H94	H	2.270067	0.538855	0.820904
H95	H	1.930806	0.034419	0.388784
H96	H	2.430806	0.534419	0.888784
H97	H	1.745911	-0.268288	0.308173
H98	H	2.245911	0.231712	0.808173
H99	H	1.739018	-0.490925	0.198193
H100	H	2.239018	0.009075	0.698193
O101	O	1.734222	-0.646555	-0.343795
O102	O	2.234222	-0.146555	0.156205
C103	C	1.735845	-0.592579	-0.482885
C104	C	2.235845	-0.092579	0.017115
H105	H	1.784391	-0.536855	-0.447122
H106	H	2.284391	-0.036855	0.052878
H107	H	1.617809	-0.576381	-0.530920
H108	H	2.117809	-0.076381	-0.030920
C109	C	1.771861	-0.699216	-0.662168
C110	C	2.271861	-0.199216	-0.162168
C111	C	1.831498	-0.630777	-0.618246
C112	C	2.331498	-0.130777	-0.118246
H113	H	1.830858	-0.722778	-0.745669
H114	H	2.330858	-0.222778	-0.245669
H115	H	1.770762	-0.735581	-0.568462
H116	H	2.270762	-0.235581	-0.068462
H117	H	1.673499	-0.685707	-0.702187
H118	H	2.173499	-0.185707	-0.202187
H119	H	1.929851	-0.644288	-0.578210
H120	H	2.429851	-0.144288	-0.078210
H121	H	1.832616	-0.594415	-0.711950
H122	H	2.332616	-0.094415	-0.211950
H123	H	1.742908	-0.365631	-0.211024
H124	H	2.242908	0.134369	0.288976
