data_functionalizedCrystal
_audit_creation_method	'MofGen! by Chris Wilmer'
_symmetry_space_group_name_H-M	'P1'
_symmetry_Int_Tables_number	1
_symmetry_cell_setting	triclinic
loop_
_symmetry_equiv_pos_as_xyz
  x,y,z
_cell_length_a	11.026607
_cell_length_b	19.188925
_cell_length_c	9.482900
_cell_angle_alpha	99.302789
_cell_angle_beta	78.636152
_cell_angle_gamma	95.864283
loop_
_atom_site_label
_atom_site_type_symbol
_atom_site_fract_x
_atom_site_fract_y
_atom_site_fract_z
O1	O	1.627563	0.283625	-0.120901
O2	O	1.274435	0.250355	-0.120902
O3	O	1.461191	0.166634	-0.120893
O4	O	1.440806	0.367347	-0.120910
O5	O	1.423256	0.183727	0.120897
O6	O	1.236500	0.267448	0.120889
O7	O	1.589628	0.300718	0.120890
Cu8	Cu	1.409600	0.285644	0.142967
Cu9	Cu	1.454463	0.265430	-0.142979
O10	O	1.402871	0.384440	0.120881
C11	C	1.210289	0.252764	-0.000007
C12	C	1.075673	0.234467	-0.000007
C13	C	1.441565	0.149086	0.000001
C14	C	1.439587	0.071328	-0.000002
C15	C	1.001598	0.284987	-0.000012
C16	C	0.862465	0.266078	-0.000013
C17	C	1.535927	-0.478167	-0.000038
C18	C	1.537795	-0.405105	-0.000025
C19	C	1.428211	-0.374136	-0.000026
C20	C	1.316746	-0.416234	-0.000003
C21	C	1.314879	-0.489293	-0.000001
N22	N	1.361789	-0.269384	-0.082325
N23	N	1.363571	-0.199980	-0.082330
C24	C	1.433829	-0.154011	-0.000027
N25	N	1.502259	-0.180068	0.082262
N26	N	1.500482	-0.249479	0.082260
C27	C	1.430223	-0.294916	-0.000027
C28	C	1.547310	-0.032699	-0.000026
C29	C	1.549172	0.040365	-0.000003
C30	C	1.328122	0.029233	0.000004
C31	C	1.326261	-0.043828	-0.000003
C32	C	1.435860	-0.074791	-0.000025
C33	C	1.653774	0.298309	-0.000009
C34	C	1.788392	0.316605	-0.000018
C35	C	1.422498	0.401988	-0.000017
C36	C	1.424478	0.479744	-0.000023
N37	N	1.378055	0.299862	0.344085
N38	N	1.486017	0.251207	-0.344098
C39	C	1.445150	0.269619	0.416288
C40	C	1.418913	0.281455	0.583704
H41	H	1.041183	0.342239	-0.000009
Br42	Br	1.163614	-0.546418	0.000020
Br43	Br	1.290777	0.339215	0.687233
H44	H	1.562884	0.216546	0.593782
Br45	Br	1.009705	0.139043	0.000017
Br46	Br	1.168022	-0.374206	0.000010
Br47	Br	1.572964	0.211641	0.312753
Br48	Br	1.249925	0.357620	0.447620
Br49	Br	0.796502	0.170650	0.000011
H50	H	1.625170	-0.503371	-0.000048
Br51	Br	0.854344	0.412038	0.000002
H52	H	1.628553	-0.370829	-0.000037
Br53	Br	1.175001	-0.100953	0.000008
H54	H	1.639930	0.074634	-0.000007
H55	H	1.636552	-0.057910	-0.000043
H56	H	1.238895	0.054448	0.000016
