data_functionalizedCrystal
_audit_creation_method	'MofGen! by Chris Wilmer'
_symmetry_space_group_name_H-M	'P1'
_symmetry_Int_Tables_number	1
_symmetry_cell_setting	triclinic
loop_
_symmetry_equiv_pos_as_xyz
  x,y,z
_cell_length_a	15.698487
_cell_length_b	20.875641
_cell_length_c	20.875641
_cell_angle_alpha	60.089808
_cell_angle_beta	90.002858
_cell_angle_gamma	62.439983
loop_
_atom_site_label
_atom_site_type_symbol
_atom_site_fract_x
_atom_site_fract_y
_atom_site_fract_z
Zr1	Zr	0.859623	0.694333	-0.105747
O2	O	0.734787	0.820575	-0.209015
O3	O	0.893221	0.563077	-0.070815
O4	O	0.905766	0.687101	-0.204287
O5	O	0.717659	0.704006	0.026016
O6	O	1.045950	0.687098	-0.204283
O7	O	0.722242	0.696552	-0.075543
O8	O	1.023509	0.465244	0.034474
O9	O	0.740100	0.925861	-0.212741
O10	O	1.017811	0.618920	-0.059871
O11	O	0.909773	0.624484	0.015919
O12	O	0.924543	0.770505	-0.141227
O13	O	0.816505	0.776069	-0.065438
Zr14	Zr	1.075891	0.706217	0.056234
Zr15	Zr	1.083200	0.694330	-0.105741
Zr16	Zr	0.852314	0.706221	0.056228
Zr17	Zr	0.868096	0.862251	-0.111690
Zr18	Zr	1.067418	0.538300	0.062176
O19	O	1.042293	0.837473	0.021301
O20	O	1.052685	0.820570	-0.209006
O21	O	0.724395	0.837478	0.021293
O22	O	1.200727	0.579975	0.159501
O23	O	1.211119	0.563072	-0.070806
O24	O	0.882829	0.579980	0.159493
O25	O	1.217855	0.696544	-0.075530
O26	O	1.029748	0.713450	0.154773
O27	O	0.889564	0.713452	0.154769
O28	O	1.213272	0.703998	0.026029
O29	O	0.917814	0.925858	-0.212736
O30	O	1.017700	0.474693	0.163222
O31	O	1.195414	0.474690	0.163227
O32	O	1.201223	0.465241	0.034479
O33	O	0.734291	0.935309	-0.083992
O34	O	0.912005	0.935307	-0.083987
O35	O	1.010971	0.630045	0.091714
O36	O	1.119009	0.624481	0.015924
O37	O	1.025741	0.776066	-0.065432
O38	O	0.917703	0.781630	0.010357
C39	C	0.957157	0.490236	-0.017324
C40	C	0.953560	0.418950	-0.014801
C41	C	1.008262	0.382556	-0.053177
C42	C	1.004884	0.315572	-0.050800
C43	C	0.946798	0.284987	-0.010050
C44	C	0.892094	0.321385	0.028331
C45	C	0.895479	0.388364	0.025958
C46	C	0.930635	0.084976	0.001295
C47	C	0.927252	0.017994	0.003664
C48	C	1.040044	0.012185	-0.075466
C49	C	1.043418	0.079169	-0.077840
C50	C	0.988719	0.115557	-0.039455
N51	N	0.943341	0.216520	-0.007621
N52	N	0.992182	0.184019	-0.041881
C53	C	0.688096	0.700280	-0.024764
C54	C	0.593181	0.700281	-0.024767
C55	C	0.516099	0.700284	-0.024766
C56	C	0.419401	0.700279	-0.024757
C57	C	1.247419	0.700271	-0.024749
C58	C	1.342333	0.700269	-0.024747
C59	C	0.976899	0.685406	-0.227363
C60	C	0.980002	0.680359	-0.296125
C61	C	0.978357	0.910314	-0.032190
C62	C	0.981954	0.981600	-0.034712
C63	C	0.932776	0.757112	-0.370897
C64	C	0.935705	0.752365	-0.435504
C65	C	0.985853	0.670864	-0.425338
C66	C	1.033085	0.594106	-0.350558
C67	C	1.030162	0.598853	-0.285953
C68	C	0.999821	0.648180	-0.614003
C69	C	1.002738	0.643438	-0.678616
C70	C	0.905359	0.801698	-0.763558
C71	C	0.902436	0.806439	-0.698948
C72	C	0.949671	0.729680	-0.624174
N73	N	0.988845	0.666010	-0.491375
N74	N	0.946685	0.734535	-0.558138
C75	C	0.958615	0.715145	0.177849
C76	C	0.955512	0.720191	0.246612
C77	C	1.236819	0.490231	-0.017316
C78	C	1.328136	0.418944	-0.014791
C79	C	0.948015	0.505105	0.185282
C80	C	0.941315	0.438866	0.256567
C81	C	1.227677	0.505101	0.185290
C82	C	1.315891	0.438860	0.256578
C83	C	0.707837	0.895449	-0.234803
C84	C	0.619623	0.961690	-0.306091
C85	C	0.698695	0.910319	-0.032197
C86	C	0.607378	0.981606	-0.034722
C87	C	0.987499	0.895445	-0.234796
C88	C	0.994199	0.961684	-0.306081
C89	C	1.318196	0.382564	-0.053176
C90	C	1.403990	0.315591	-0.050819
C91	C	1.499724	0.284995	-0.010072
C92	C	1.509663	0.321381	0.028315
C93	C	1.423870	0.388358	0.025952
C94	C	0.990993	0.410663	0.329615
C95	C	0.984694	0.348435	0.396601
C96	C	0.928722	0.314406	0.390538
C97	C	0.879039	0.342615	0.317482
C98	C	0.885333	0.404847	0.250498
C99	C	1.413722	0.404849	0.250494
C100	C	1.496618	0.342618	0.317470
C101	C	1.481681	0.314395	0.390529
C102	C	1.383841	0.348413	0.396611
C103	C	1.300947	0.410648	0.329636
C104	C	0.521793	0.995710	-0.300007
C105	C	0.438898	1.057961	-0.366984
C106	C	0.453834	1.086188	-0.440044
C107	C	0.551675	1.052165	-0.446126
C108	C	0.634568	0.989919	-0.379150
C109	C	0.617319	1.017993	0.003656
C110	C	0.531526	1.084983	0.001280
C111	C	0.435792	1.115582	-0.039470
C112	C	0.425853	1.079192	-0.077853
C113	C	0.511646	1.012207	-0.075481
C114	C	1.050179	0.995693	-0.299993
C115	C	1.056494	1.057923	-0.366966
C116	C	1.006822	1.086147	-0.440027
C117	C	0.950840	1.052131	-0.446114
C118	C	0.944532	0.989898	-0.379141
H119	H	0.879947	-0.006904	0.036847
Cl120	Cl	0.819087	0.282924	0.079572
Cl121	Cl	1.365080	0.312922	0.488463
H122	H	0.714224	0.962220	-0.384112
Cl123	Cl	1.607570	0.200792	-0.007107
Cl124	Cl	0.502988	0.960238	-0.208170
Cl125	Cl	1.432526	0.440321	0.158656
H126	H	0.861603	0.872806	-0.707235
Cl127	Cl	1.014760	1.164388	-0.524216
H128	H	1.090628	0.972723	-0.240509
H129	H	0.365943	1.170126	-0.041395
H130	H	0.850932	0.417997	0.057205
H131	H	1.221291	0.438332	0.334600
Cl132	Cl	0.888391	1.087631	-0.537968
Cl133	Cl	0.315910	1.100716	-0.359320
H134	H	0.833467	0.314900	0.312557
H135	H	1.102078	1.085613	-0.361996
H136	H	1.549188	0.263719	0.445058
Cl137	Cl	1.619606	0.299861	0.309806
Cl138	Cl	1.096131	0.491647	-0.337777
H139	H	0.503537	0.982582	-0.106732
Cl140	Cl	0.822879	0.440289	0.158670
Cl141	Cl	0.874140	0.947159	-0.386808
Cl142	Cl	1.061366	0.453427	0.337257
H143	H	0.891933	0.823479	-0.379184
H144	H	1.055557	0.407457	-0.086364
H145	H	1.587621	0.296460	0.061490
H146	H	0.386329	1.136873	-0.494573
Cl147	Cl	0.570435	1.087656	-0.537978
H148	H	0.539638	1.114601	0.032539
Cl149	Cl	1.047164	0.312981	0.488432
Cl150	Cl	1.089545	0.502360	-0.191951
H151	H	1.043574	0.577067	-0.670330
Cl152	Cl	0.737660	0.979545	0.054886
Cl153	Cl	0.920822	0.236169	0.474756
H154	H	0.347896	1.104115	-0.111031
Cl155	Cl	1.197855	0.421017	-0.104411
Cl156	Cl	1.391472	0.269857	-0.099076
H157	H	1.049427	0.285939	-0.082048
H158	H	0.897251	0.814866	-0.496385
H159	H	1.431977	0.417971	0.057215
H160	H	1.084579	-0.017450	-0.106716
Cl161	Cl	0.861873	0.130710	0.049553
Cl162	Cl	1.116437	0.117618	-0.129075
H163	H	1.038284	0.585678	-0.553128
Cl164	Cl	0.845983	0.898189	-0.857560
