data_functionalizedCrystal
_audit_creation_method	'MofGen! by Chris Wilmer'
_symmetry_space_group_name_H-M	'P1'
_symmetry_Int_Tables_number	1
_symmetry_cell_setting	triclinic
loop_
_symmetry_equiv_pos_as_xyz
  x,y,z
_cell_length_a	17.699083
_cell_length_b	15.944551
_cell_length_c	16.776229
_cell_angle_alpha	89.992397
_cell_angle_beta	89.998886
_cell_angle_gamma	83.390877
loop_
_atom_site_label
_atom_site_type_symbol
_atom_site_fract_x
_atom_site_fract_y
_atom_site_fract_z
O1	O	1.004260	0.106222	-0.066178
O2	O	0.783905	0.120042	-0.066204
O3	O	0.900100	-0.009156	-0.066183
O4	O	0.888065	0.235419	-0.066199
O5	O	0.900084	-0.009164	0.066393
O6	O	0.783890	0.120034	0.066372
O7	O	1.004244	0.106214	0.066398
Zn8	Zn	0.894065	0.113123	0.087435
Zn9	Zn	0.894085	0.113133	-0.087241
O10	O	0.888050	0.235411	0.066377
C11	C	0.755700	0.119542	0.000080
C12	C	0.671679	0.118057	0.000071
C13	C	0.623187	0.193893	0.000066
C14	C	0.544242	0.192492	0.000076
C15	C	0.513789	0.115254	0.000086
C16	C	0.562287	0.039412	0.000093
C17	C	0.641231	0.040814	0.000088
C18	C	0.243914	0.033758	0.000113
C19	C	0.164964	0.032362	0.000115
C20	C	0.146925	0.185436	0.000101
C21	C	0.225869	0.186837	0.000096
C22	C	0.274360	0.110996	0.000108
C23	C	0.359962	0.112516	0.000098
C24	C	0.428189	0.113733	0.000090
C25	C	0.899593	-0.040453	0.000105
C26	C	0.898095	-0.133696	0.000105
C27	C	0.822492	-0.348393	0.000085
C28	C	0.857592	-0.409488	0.065458
C29	C	0.895385	-0.304416	0.000099
C30	C	0.857624	-0.409464	-0.065252
C31	C	0.892762	-0.469323	0.000089
C32	C	0.930505	-0.364283	0.065525
C33	C	0.930527	-0.364252	-0.065244
C34	C	0.965680	-0.425329	0.000145
C35	C	0.896894	-0.209417	0.000105
C36	C	0.891259	-0.564321	0.000089
C37	C	1.032450	0.106713	0.000112
C38	C	1.116471	0.108199	0.000116
C39	C	0.888557	0.266708	0.000087
C40	C	0.890055	0.359951	0.000082
N41	N	0.894056	0.113115	0.206646
N42	N	0.894099	0.113134	-0.206452
C43	C	0.945523	0.055930	0.248372
C44	C	0.945527	0.055929	0.331824
C45	C	0.894068	0.113118	0.373549
C46	C	0.842595	0.170306	0.331816
C47	C	0.842588	0.170302	0.248366
C48	C	0.842623	0.170323	0.668364
C49	C	0.842636	0.170324	0.751820
C50	C	0.945562	0.055949	0.751822
C51	C	0.945555	0.055945	0.668372
C52	C	0.894080	0.113130	0.626647
C53	C	0.894075	0.113129	0.536158
C54	C	0.894076	0.113124	0.464036
H55	H	0.504763	0.254246	0.000072
O56	O	0.750361	-0.308368	0.000110
C57	C	0.752739	-0.220286	-0.000576
H58	H	0.809502	-0.205771	-0.026088
H59	H	0.704388	-0.189006	-0.039062
H60	H	0.746249	-0.194856	0.062864
O61	O	0.135471	-0.042724	0.000024
C62	C	0.160233	-0.088941	-0.068641
H63	H	0.214988	-0.066167	-0.091538
H64	H	0.171182	-0.158912	-0.053187
H65	H	0.114552	-0.079118	-0.116722
H66	H	0.826790	-0.429473	-0.120524
H67	H	0.800678	0.216867	0.214393
H68	H	0.107434	0.247189	0.000096
O69	O	0.291085	-0.039858	0.000008
C70	C	0.337273	-0.043637	-0.068667
H71	H	0.341275	0.023028	-0.091560
H72	H	0.396603	-0.075056	-0.053227
H73	H	0.311293	-0.081936	-0.116745
H74	H	0.680713	-0.020940	0.000091
H75	H	0.826754	-0.429535	0.120718
H76	H	0.537486	-0.023476	0.000112
H77	H	0.800728	0.216896	0.785791
H78	H	0.961304	-0.344360	0.120853
O79	O	0.255324	0.261940	0.000123
C80	C	0.195595	0.328576	0.000103
H81	H	0.141965	0.305139	0.025206
H82	H	0.212096	0.382508	0.038590
H83	H	0.184423	0.351967	-0.063502
H84	H	1.026238	-0.458615	0.000189
H85	H	0.987460	0.009380	0.634402
O86	O	0.967396	-0.340277	-0.131085
C87	C	1.031287	-0.301030	-0.107647
H88	H	1.049390	-0.322815	-0.045074
H89	H	1.080053	-0.318960	-0.151029
H90	H	1.016082	-0.229581	-0.107885
H91	H	0.987430	0.009363	0.214406
H92	H	0.800712	0.216886	0.634398
O93	O	0.995604	0.000357	0.372234
C94	C	1.041016	-0.050126	0.317512
H95	H	1.041854	-0.015691	0.258018
H96	H	1.101460	-0.063007	0.341615
H97	H	1.016455	-0.112500	0.308654
O98	O	0.995487	0.000424	0.792479
C99	C	0.984474	0.012697	0.875082
H100	H	0.924304	0.044172	0.886484
H101	H	0.992901	-0.050927	0.906804
H102	H	1.027312	0.054769	0.898753
O103	O	0.792576	0.225744	0.372435
C104	C	0.745880	0.180824	0.420707
H105	H	0.776025	0.115054	0.433215
H106	H	0.733915	0.215903	0.479385
H107	H	0.689941	0.175193	0.388556
O108	O	0.652640	0.268997	0.000091
C109	C	0.592907	0.335630	0.000071
H110	H	0.539280	0.312189	0.025175
H111	H	0.609407	0.389564	0.038556
H112	H	0.581734	0.359019	-0.063534
