data_functionalizedCrystal
_audit_creation_method	'MofGen! by Chris Wilmer'
_symmetry_space_group_name_H-M	'P1'
_symmetry_Int_Tables_number	1
_symmetry_cell_setting	triclinic
loop_
_symmetry_equiv_pos_as_xyz
  x,y,z
_cell_length_a	14.853567
_cell_length_b	17.038272
_cell_length_c	13.930277
_cell_angle_alpha	89.995405
_cell_angle_beta	89.995755
_cell_angle_gamma	87.373243
loop_
_atom_site_label
_atom_site_type_symbol
_atom_site_fract_x
_atom_site_fract_y
_atom_site_fract_z
O1	O	1.204051	0.102086	-0.079765
O2	O	0.942506	0.114247	-0.079782
O3	O	1.071724	-0.005651	-0.079766
O4	O	1.074833	0.221984	-0.079781
O5	O	1.071705	-0.005654	0.079896
O6	O	0.942487	0.114244	0.079880
O7	O	1.204031	0.102083	0.079897
Zn8	Zn	1.073256	0.108163	0.105238
Zn9	Zn	1.073282	0.108167	-0.105123
O10	O	1.074814	0.221981	0.079881
C11	C	0.908866	0.113695	0.000047
C12	C	0.808658	0.112043	0.000041
C13	C	0.390240	0.033841	0.000067
C14	C	0.379678	0.176283	0.000057
C15	C	0.473828	0.177835	0.000054
C16	C	0.526189	0.107390	0.000056
C17	C	0.484399	0.035392	0.000061
C18	C	0.515626	0.249832	0.000039
C19	C	0.609782	0.251388	0.000035
C20	C	0.662144	0.180941	0.000044
C21	C	0.620349	0.108940	0.000050
C22	C	0.672709	0.038495	0.000052
C23	C	0.630915	-0.033507	0.000065
C24	C	0.536762	-0.035055	0.000070
C25	C	0.756298	0.182489	0.000039
C26	C	0.766869	0.040045	0.000046
C27	C	1.068887	-0.034784	0.000065
C28	C	1.060451	-0.121588	0.000064
C29	C	1.137904	-0.171601	0.000070
C30	C	1.129972	-0.253162	0.000060
C31	C	1.044586	-0.284709	0.000051
C32	C	0.967127	-0.234690	0.000043
C33	C	0.975060	-0.153130	0.000045
C34	C	1.016561	-0.530503	0.000036
C35	C	1.008634	-0.612069	0.000037
C36	C	1.171480	-0.630535	0.000052
C37	C	1.179405	-0.548974	0.000061
C38	C	1.101946	-0.498962	0.000047
C39	C	1.036476	-0.368077	0.000045
C40	C	1.110056	-0.415595	0.000047
C41	C	1.237671	0.102636	0.000066
C42	C	1.337879	0.104287	0.000065
C43	C	1.077651	0.251114	0.000048
C44	C	1.086087	0.337918	0.000042
N45	N	1.073245	0.108161	0.248804
N46	N	1.073299	0.108163	-0.248689
C47	C	1.016060	0.161237	0.701066
C48	C	1.130528	0.055091	0.701050
C49	C	1.130517	0.055088	0.600554
C50	C	1.073278	0.108162	0.550310
C51	C	1.016049	0.161237	0.600561
C52	C	1.187750	0.002019	0.550295
C53	C	1.187742	0.002015	0.449793
C54	C	1.130498	0.055085	0.399547
C55	C	1.073267	0.108162	0.449805
C56	C	1.016028	0.161236	0.399561
C57	C	0.958791	0.214310	0.449817
C58	C	0.958805	0.214308	0.550315
C59	C	1.130484	0.055087	0.299048
C60	C	1.016017	0.161236	0.299056
H61	H	0.356207	-0.024781	0.000082
O62	O	0.954340	0.218489	0.755263
H63	H	0.883288	0.208417	0.735993
H64	H	0.472987	0.307185	0.000027
O65	O	0.897089	0.271556	0.604523
H66	H	0.826034	0.261482	0.585265
O67	O	0.954267	0.218480	0.244878
H68	H	0.907917	0.185490	0.199112
H69	H	0.337041	0.233636	0.000047
H70	H	0.912191	0.257526	0.408896
H71	H	1.177090	0.011879	0.258134
H72	H	0.643802	0.310016	0.000024
O73	O	0.801377	0.260138	0.000021
H74	H	0.844022	0.264250	0.065092
H75	H	0.953488	-0.489793	0.000025
H76	H	1.207434	-0.145922	0.000083
H77	H	1.177135	0.011884	0.741962
O78	O	1.213510	-0.307107	0.000082
H79	H	1.274216	-0.271468	0.000106
O80	O	1.249487	-0.055221	0.604481
H81	H	1.239869	-0.046310	0.682807
H82	H	0.809495	-0.017321	0.000052
H83	H	0.502724	-0.093675	0.000104
H84	H	1.234346	-0.041201	0.408881
O85	O	0.687392	-0.109488	0.000074
H86	H	0.759882	-0.096308	0.000073
O87	O	1.271499	-0.514947	0.000047
H88	H	1.324027	-0.563427	0.000035
H89	H	0.911989	-0.112410	0.000040
O90	O	1.255023	-0.684474	0.000061
H91	H	1.235166	-0.746488	0.000051
O92	O	0.875032	-0.268716	0.000031
H93	H	0.822507	-0.220234	0.000018
O94	O	0.916535	-0.646100	0.000016
H95	H	0.864005	-0.597622	-0.000004
O96	O	1.202150	-0.381574	0.000047
H97	H	1.239666	-0.401662	0.065123
O98	O	0.944384	-0.402108	0.000056
H99	H	0.936884	-0.438827	-0.065015
