data_functionalizedCrystal
_audit_creation_method	'MofGen! by Chris Wilmer'
_symmetry_space_group_name_H-M	'P1'
_symmetry_Int_Tables_number	1
_symmetry_cell_setting	triclinic
loop_
_symmetry_equiv_pos_as_xyz
  x,y,z
_cell_length_a	14.519709
_cell_length_b	13.339070
_cell_length_c	11.804366
_cell_angle_alpha	74.898283
_cell_angle_beta	101.894272
_cell_angle_gamma	99.654720
loop_
_atom_site_label
_atom_site_type_symbol
_atom_site_fract_x
_atom_site_fract_y
_atom_site_fract_z
O1	O	-1.244188	-0.153008	0.098852
O2	O	-0.979680	-0.168639	0.098891
O3	O	-1.081577	-0.013505	0.098872
O4	O	-1.142290	-0.308142	0.098870
O5	O	-1.108469	0.027247	-0.099189
O6	O	-1.006572	-0.127887	-0.099170
O7	O	-1.271079	-0.112256	-0.099209
Cu8	Cu	-1.141281	-0.116350	-0.117274
Cu9	Cu	-1.109478	-0.164544	0.116956
O10	O	-1.169182	-0.267390	-0.099190
C11	C	-0.958580	-0.147536	-0.000135
C12	C	-0.855642	-0.145357	-0.000120
N13	N	-1.087109	-0.198434	0.281700
C14	C	-1.084767	0.044578	-0.000155
C15	C	-1.054197	0.156933	-0.000146
C16	C	-0.478709	-0.137314	-0.000169
C17	C	-0.583583	-0.139548	-0.000155
C18	C	-0.667172	-0.141336	-0.000143
C19	C	-0.772053	-0.143569	-0.000132
C20	C	-0.292178	-0.133360	-0.000178
C21	C	-0.395115	-0.135542	-0.000176
C22	C	-1.165992	-0.325473	-0.000161
C23	C	-1.196561	-0.437830	-0.000162
C24	C	-1.291893	0.521303	-0.000181
C25	C	-1.320619	0.415742	-0.000197
C26	C	-1.254016	0.351035	-0.000183
C27	C	-1.158681	0.391899	-0.000156
C28	C	-1.129953	0.497473	-0.000150
C29	C	-1.092076	0.327204	-0.000152
C30	C	-0.996742	0.368069	-0.000124
C31	C	-0.968019	0.473632	-0.000117
C32	C	-1.034622	0.538339	-0.000131
C33	C	-1.120805	0.221630	-0.000158
C34	C	-0.958865	0.197800	-0.000127
C35	C	-0.930139	0.303361	-0.000111
N36	N	-1.163656	-0.082453	-0.282019
C37	C	-1.217400	-0.001079	0.655626
C38	C	-1.234332	0.024552	0.530961
C39	C	-1.197528	-0.031193	0.468640
C40	C	-1.143788	-0.112572	0.530995
C41	C	-1.126848	-0.138201	0.655672
C42	C	-1.106976	-0.168314	0.468686
C43	C	-1.053236	-0.249694	0.531042
C44	C	-1.036300	-0.275319	0.655707
C45	C	-1.073104	-0.219575	0.718028
C46	C	-1.123917	-0.142686	0.344009
C47	C	-1.033365	-0.279807	0.344056
C48	C	-1.016432	-0.305439	0.468721
H49	H	-1.198426	0.188369	-0.000181
H50	H	-0.904632	0.145116	-0.000122
H51	H	-1.211317	-0.010320	0.367132
C52	C	-0.769445	0.294612	0.101741
C53	C	-0.825349	0.348291	-0.000085
H54	H	-0.704754	0.322356	0.101760
H55	H	-0.777015	0.222492	0.101727
H56	H	-0.788644	0.302599	0.170795
H57	H	-0.806154	0.340297	-0.069139
H58	H	-0.817774	0.420428	-0.000082
H59	H	-1.167671	-0.076426	0.293250
H60	H	-0.890393	0.506902	-0.000104
C61	C	-1.322152	0.157496	0.543447
C62	C	-1.293416	0.113986	0.462423
H63	H	-1.358638	0.212704	0.501131
H64	H	-1.267874	0.184097	0.592057
H65	H	-1.359448	0.105194	0.592090
H66	H	-1.256114	0.166287	0.413786
H67	H	-1.347702	0.087386	0.413793
C68	C	-1.091726	-0.351759	0.896626
C69	C	-1.054506	-0.247752	0.855066
H70	H	-1.080254	-0.369149	0.981228
H71	H	-1.062101	-0.396593	0.868454
H72	H	-1.158071	-0.360065	0.868395
H73	H	-0.988160	-0.239447	0.883291
H74	H	-1.084128	-0.202905	0.883251
C75	C	-0.948499	-0.408289	0.643228
C76	C	-0.977224	-0.364768	0.724250
H77	H	-0.912033	-0.463515	0.685545
H78	H	-0.911196	-0.356006	0.594595
H79	H	-1.002790	-0.434879	0.594608
H80	H	-0.922932	-0.338171	0.772865
H81	H	-1.014527	-0.417061	0.772903
H82	H	-0.972676	-0.371700	0.519506
H83	H	-1.247355	0.044306	0.706376
C84	C	-0.893889	-0.330649	0.305690
C85	C	-0.992904	-0.341089	0.275564
H86	H	-0.868912	-0.368471	0.263393
H87	H	-0.876115	-0.357560	0.388851
H88	H	-0.869488	-0.258834	0.285235
H89	H	-1.017306	-0.412904	0.296027
H90	H	-1.010686	-0.314182	0.192384
C91	C	-1.383329	0.212790	-0.000206
C92	C	-1.285588	0.234996	-0.000186
H93	H	-1.402819	0.141148	-0.000195
H94	H	-1.416099	0.255277	-0.069279
H95	H	-1.397351	0.226871	0.068858
H96	H	-1.271567	0.220922	-0.069254
H97	H	-1.252807	0.192496	0.068895
H98	H	-1.346112	0.573998	-0.000202
C99	C	-1.453667	0.382603	0.101588
C100	C	-1.425404	0.370826	-0.000221
H101	H	-1.518360	0.354868	0.101574
H102	H	-1.446090	0.454727	0.101583
H103	H	-1.415727	0.346183	0.170653
H104	H	-1.463340	0.407252	-0.069287
H105	H	-1.432990	0.298689	-0.000228
C106	C	-0.905301	0.676585	-0.000078
C107	C	-1.003042	0.654376	-0.000103
H108	H	-0.885808	0.748220	-0.000050
H109	H	-0.891278	0.662532	-0.069145
H110	H	-0.872530	0.634073	0.068991
H111	H	-1.035813	0.696882	-0.069177
H112	H	-1.017073	0.668440	0.068972
