data_functionalizedCrystal
_audit_creation_method	'MofGen! by Chris Wilmer'
_symmetry_space_group_name_H-M	'P1'
_symmetry_Int_Tables_number	1
_symmetry_cell_setting	triclinic
loop_
_symmetry_equiv_pos_as_xyz
  x,y,z
_cell_length_a	19.288864
_cell_length_b	14.044220
_cell_length_c	17.766277
_cell_angle_alpha	89.993125
_cell_angle_beta	89.976791
_cell_angle_gamma	88.162561
loop_
_atom_site_label
_atom_site_type_symbol
_atom_site_fract_x
_atom_site_fract_y
_atom_site_fract_z
O1	O	0.928949	0.118215	-0.062840
O2	O	1.428949	0.618215	0.437160
O3	O	0.727713	0.134161	-0.062789
O4	O	1.227713	0.634161	0.437211
O5	O	0.825310	-0.011784	-0.062806
O6	O	1.325310	0.488216	0.437194
O7	O	0.831351	0.264160	-0.062822
O8	O	1.331351	0.764160	0.437178
O9	O	0.825291	-0.011791	0.062383
O10	O	1.325291	0.488209	0.562383
O11	O	0.727693	0.134154	0.062400
O12	O	1.227693	0.634154	0.562400
O13	O	0.928929	0.118207	0.062349
O14	O	1.428929	0.618207	0.562349
Cu15	Cu	0.828310	0.126180	0.073805
Cu16	Cu	1.328310	0.626180	0.573805
Cu17	Cu	0.828332	0.126189	-0.074245
Cu18	Cu	1.328332	0.626189	0.425755
O19	O	0.831332	0.264152	0.062366
O20	O	1.331332	0.764152	0.562366
C21	C	0.701794	0.133645	-0.000188
C22	C	1.201794	0.633645	0.499812
C23	C	0.624591	0.132104	-0.000168
C24	C	1.124591	0.632104	0.499832
C25	C	0.585397	0.217738	-0.000185
C26	C	1.085397	0.717738	0.499815
C27	C	0.512857	0.216291	-0.000193
C28	C	1.012857	0.716291	0.499807
C29	C	0.479514	0.129205	-0.000200
C30	C	0.979514	0.629205	0.499800
C31	C	0.518717	0.043560	-0.000178
C32	C	1.018717	0.543560	0.499822
C33	C	0.591256	0.045010	-0.000163
C34	C	1.091256	0.545010	0.499837
C35	C	0.366860	0.060749	-0.044080
C36	C	0.866860	0.560749	0.455920
C37	C	0.294323	0.059303	-0.044100
C38	C	0.794323	0.559303	0.455900
C39	C	0.255781	0.124731	-0.000245
C40	C	0.755781	0.624731	0.499755
C41	C	0.289785	0.191621	0.043621
C42	C	0.789785	0.691621	0.543621
C43	C	0.362323	0.193071	0.043637
C44	C	0.862323	0.693071	0.543637
C45	C	0.400858	0.127624	-0.000216
C46	C	0.900858	0.627624	0.499784
C47	C	0.137930	0.208802	-0.000270
C48	C	0.637930	0.708802	0.499730
C49	C	0.065389	0.207351	-0.000273
C50	C	0.565389	0.707351	0.499727
C51	C	0.071251	0.034617	-0.000266
C52	C	0.571251	0.534617	0.499734
C53	C	0.143790	0.036071	-0.000255
C54	C	0.643790	0.536071	0.499745
C55	C	0.177126	0.123165	-0.000260
C56	C	0.677126	0.623165	0.499740
C57	C	0.822656	-0.047091	-0.000211
C58	C	1.322656	0.452909	0.499789
C59	C	0.814768	-0.152283	-0.000208
C60	C	1.314768	0.347717	0.499792
C61	C	0.800348	-0.344882	-0.000215
C62	C	1.300348	0.155118	0.499785
C63	C	0.856291	-0.402755	-0.000231
C64	C	1.356291	0.097245	0.499769
C65	C	0.848267	-0.509924	-0.000235
C66	C	1.348267	-0.009924	0.499765
C67	C	0.808370	-0.237703	-0.000211
C68	C	1.308370	0.262297	0.499789
C69	C	0.954848	0.118724	-0.000254
C70	C	1.454848	0.618724	0.499746
C71	C	1.032051	0.120264	-0.000278
C72	C	1.532051	0.620264	0.499722
C73	C	0.833986	0.299459	-0.000231
C74	C	1.333986	0.799459	0.499769
C75	C	0.841874	0.404651	-0.000239
C76	C	1.341874	0.904651	0.499761
N77	N	0.828299	0.126173	0.177935
N78	N	1.328299	0.626173	0.677935
N79	N	0.828348	0.126188	-0.178375
N80	N	1.328348	0.626188	0.321625
C81	C	0.871532	0.061580	0.217315
C82	C	1.371532	0.561580	0.717315
C83	C	0.871536	0.061576	0.296116
C84	C	1.371536	0.561576	0.796116
C85	C	0.828314	0.126181	0.335536
C86	C	1.328314	0.626181	0.835536
C87	C	0.785072	0.190779	0.296147
C88	C	1.285072	0.690779	0.796147
C89	C	0.785064	0.190775	0.217347
C90	C	1.285064	0.690775	0.717347
C91	C	0.824563	0.212524	0.460370
C92	C	1.324563	0.712524	0.960370
C93	C	0.824575	0.212529	0.539169
C94	C	1.324575	0.712529	1.039169
C95	C	0.828333	0.126192	0.578582
C96	C	1.328333	0.626192	1.078582
C97	C	0.832093	0.039847	0.539187
C98	C	1.332093	0.539847	1.039187
C99	C	0.832085	0.039843	0.460387
C100	C	1.332085	0.539843	0.960387
C101	C	0.828317	0.126192	0.420982
C102	C	1.328317	0.626192	0.920982
C103	C	0.871573	0.061589	0.703407
C104	C	1.371573	0.561589	1.203407
C105	C	0.871572	0.061583	0.782211
C106	C	1.371572	0.561583	1.282211
C107	C	0.785111	0.190794	0.782240
C108	C	1.285111	0.690794	1.282240
C109	C	0.785109	0.190792	0.703438
C110	C	1.285109	0.690792	1.203438
C111	C	0.828343	0.126190	0.664027
C112	C	1.328343	0.626190	1.164027
H113	H	0.480939	0.286027	-0.000205
H114	H	0.980939	0.786027	0.499795
C115	C	0.727508	-0.386681	-0.000187
C116	C	1.227508	0.113319	0.499813
N117	N	0.672645	-0.418174	-0.000159
N118	N	1.172645	0.081826	0.499841
C119	C	0.634371	-0.049199	-0.000149
C120	C	1.134371	0.450801	0.499851
N121	N	0.666846	-0.120158	-0.000141
N122	N	1.166846	0.379842	0.499859
C123	C	0.186906	-0.058135	-0.000245
C124	C	0.686906	0.441865	0.499755
N125	N	0.219380	-0.129095	-0.000236
N126	N	0.719380	0.370905	0.499764
C127	C	0.919084	-0.009493	0.173967
C128	C	1.419084	0.490507	0.673967
N129	N	0.954898	-0.063029	0.141316
N130	N	1.454898	0.436971	0.641316
H131	H	0.749907	0.243393	0.671373
H132	H	1.249907	0.743393	1.171373
H133	H	0.906775	0.008983	0.671317
H134	H	1.406775	0.508983	1.171317
H135	H	0.910212	-0.371814	-0.000296
H136	H	1.410212	0.128186	0.499704
H137	H	0.906743	0.008975	0.328185
H138	H	1.406743	0.508975	0.828185
C139	C	0.820429	0.307507	0.417024
C140	C	1.320429	0.807507	0.917024
N141	N	0.817315	0.379047	0.384376
N142	N	1.317315	0.879047	0.884376
C143	C	0.247394	0.263596	0.091869
C144	C	0.747394	0.763596	0.591869
N145	N	0.215463	0.317805	0.128208
N146	N	0.715463	0.817805	0.628208
H147	H	0.266642	0.004841	-0.079822
H148	H	0.766642	0.504841	0.420178
H149	H	0.835145	-0.030462	0.428314
H150	H	1.335145	0.469538	0.928314
C151	C	0.820432	0.307510	0.582496
C152	C	1.320432	0.807510	1.082496
N153	N	0.817308	0.379052	0.615129
N154	N	1.317308	0.879052	1.115129
C155	C	0.836225	-0.055132	0.582535
C156	C	1.336225	0.444868	1.082535
N157	N	0.839338	-0.126667	0.615189
N158	N	1.339338	0.373333	1.115189
C159	C	0.174601	0.304607	-0.000266
C160	C	0.674601	0.804607	0.499734
N161	N	0.202220	0.376768	-0.000262
N162	N	0.702220	0.876768	0.499738
H163	H	0.906775	0.008979	0.814274
H164	H	1.406775	0.508979	1.314274
H165	H	0.749916	0.243393	0.814335
H166	H	1.249916	0.743393	1.314335
C167	C	0.737524	0.261840	0.339510
C168	C	1.237524	0.761840	0.839510
N169	N	0.701707	0.315362	0.372171
N170	N	1.201707	0.815362	0.872171
H171	H	0.749858	0.243375	0.185284
H172	H	1.249858	0.743375	0.685284
H173	H	0.491565	-0.027346	-0.000194
H174	H	0.991565	0.472654	0.499806
H175	H	0.033478	0.277088	-0.000283
H176	H	0.533478	0.777088	0.499717
C177	C	0.622061	0.313545	-0.000176
C178	C	1.122061	0.813545	0.499824
N179	N	0.649678	0.385708	-0.000164
N180	N	1.149678	0.885708	0.499836
C181	C	0.409249	-0.011229	-0.092331
C182	C	0.909249	0.488771	0.407669
N183	N	0.441175	-0.065439	-0.128674
N184	N	0.941175	0.434561	0.371326
C185	C	0.034578	-0.061179	-0.000272
C186	C	0.534578	0.438821	0.499728
N187	N	0.006952	-0.133335	-0.000275
N188	N	0.506952	0.366665	0.499725
C189	C	0.399725	0.266640	0.091897
C190	C	0.899725	0.766640	0.591897
N191	N	0.427896	0.322049	0.128250
N192	N	0.927896	0.822049	0.628250
