data_functionalizedCrystal
_audit_creation_method	'MofGen! by Chris Wilmer'
_symmetry_space_group_name_H-M	'P1'
_symmetry_Int_Tables_number	1
_symmetry_cell_setting	triclinic
loop_
_symmetry_equiv_pos_as_xyz
  x,y,z
_cell_length_a	6.817900
_cell_length_b	11.102183
_cell_length_c	16.305550
_cell_angle_alpha	93.871771
_cell_angle_beta	103.455250
_cell_angle_gamma	108.603876
loop_
_atom_site_label
_atom_site_type_symbol
_atom_site_fract_x
_atom_site_fract_y
_atom_site_fract_z
V1	V	-4.052574	-0.176911	-0.263030
O2	O	-4.012740	0.007398	-0.258024
O3	O	-4.029744	-0.349723	-0.261230
O4	O	-4.003648	-0.174674	-0.377747
O5	O	-4.039017	-0.168864	-0.140700
V6	V	-4.532957	-0.154808	-0.248398
O7	O	-4.320721	-0.225395	-0.295125
O8	O	-4.715008	-0.106324	-0.216303
O9	O	-4.332581	0.018004	-0.250199
O10	O	-4.690189	-0.339117	-0.253404
O11	O	-4.663911	-0.162856	-0.370728
O12	O	-4.358678	-0.157045	-0.133681
C13	C	-3.880983	-0.391836	-0.257080
C14	C	-3.943599	-0.533116	-0.256372
C15	C	-3.857871	-0.496208	-0.101856
C16	C	-3.844420	-0.544127	-0.024268
C17	C	-3.903261	-0.676872	-0.023608
C18	C	-3.975565	-0.761704	-0.100544
C19	C	-3.989016	-0.713785	-0.178132
C20	C	-3.930162	-0.581035	-0.178783
C21	C	-4.074758	-0.750693	-0.332647
C22	C	-4.015903	-0.617947	-0.333308
C23	C	-4.147062	-0.835525	-0.409583
C24	C	-4.160499	-0.787606	-0.487172
C25	C	-4.101650	-0.654851	-0.487829
C26	C	-4.029354	-0.570029	-0.410896
C27	C	-3.847692	-0.168542	-0.405708
C28	C	-3.889142	-0.167856	-0.499490
C29	C	-4.039834	-0.165200	-0.840236
C30	C	-3.802612	-0.157314	-0.799307
C31	C	-3.759603	-0.158553	-0.701812
C32	C	-3.965072	-0.166517	-0.671188
C33	C	-4.150785	-0.292032	-0.721813
C34	C	-4.192543	-0.291322	-0.819363
C35	C	-4.077232	-0.048574	-0.794393
C36	C	-4.029155	-0.047580	-0.696550
C37	C	-3.922834	-0.167266	-0.575650
C38	C	-4.082083	-0.164460	-0.935775
C39	C	-4.144686	0.060110	-0.254346
C40	C	-4.061307	0.201388	-0.255059
C41	C	-4.177976	-0.163182	-0.105716
C42	C	-4.115764	-0.163861	-0.011933
H43	H	-4.112634	-0.615847	-0.551011
C44	C	-3.846971	0.077839	-0.650117
H45	H	-3.732329	0.057817	-0.615412
H46	H	-3.796675	0.127743	-0.690937
H47	H	-3.899510	0.125323	-0.615336
C48	C	-4.240028	-0.880912	-0.571791
H49	H	-4.239617	-0.833365	-0.618096
H50	H	-4.147667	-0.929325	-0.572057
H51	H	-4.381898	-0.937601	-0.577434
C52	C	-3.764879	-0.450813	0.060355
H53	H	-3.731739	-0.364889	0.048854
H54	H	-3.874012	-0.469130	0.089522
H55	H	-3.639779	-0.460841	0.094891
C56	C	-4.093662	-0.411339	-0.699109
H57	H	-3.956785	-0.384920	-0.658816
H58	H	-4.198903	-0.464219	-0.675274
H59	H	-4.090008	-0.458468	-0.749237
H60	H	-3.892313	-0.715886	0.039570
C61	C	-3.686930	-0.273058	-0.679790
H62	H	-3.660352	-0.274203	-0.620060
H63	H	-3.796494	-0.350962	-0.709359
H64	H	-3.559080	-0.264640	-0.696356
C65	C	-4.211805	-0.981542	-0.408863
H66	H	-4.256809	-1.025199	-0.465793
H67	H	-4.092179	-1.000618	-0.377494
H68	H	-4.326411	-1.008899	-0.382870
C69	C	-3.964667	-0.424013	-0.411616
H70	H	-3.919711	-0.380360	-0.354686
H71	H	-3.850084	-0.396625	-0.437612
H72	H	-4.084342	-0.404968	-0.442982
C73	C	-3.570553	-0.036654	-0.654496
H74	H	-3.519400	0.014070	-0.694823
H75	H	-3.617483	0.011669	-0.617854
H76	H	-3.458107	-0.060503	-0.621631
H77	H	-4.023498	-0.869792	-0.100000
C78	C	-3.640986	-0.034837	-0.816018
H79	H	-3.716722	0.012586	-0.848110
H80	H	-3.553192	0.016500	-0.763137
H81	H	-3.553351	-0.058042	-0.847138
H82	H	-3.971677	0.046528	-0.807762
H83	H	-4.305484	-0.302399	-0.702900
H84	H	-3.769992	-0.241105	-0.830818
C85	C	-4.227803	-0.045453	-0.667711
H86	H	-4.262827	0.027365	-0.683858
H87	H	-4.345684	-0.121650	-0.694023
H88	H	-4.197438	-0.040743	-0.607452
C89	C	-4.161454	-0.410585	-0.860408
H90	H	-4.123462	-0.459007	-0.817425
H91	H	-4.291415	-0.462259	-0.900897
H92	H	-4.050259	-0.384058	-0.888211
H93	H	-4.368017	-0.302330	-0.847354
C94	C	-4.310601	-0.054859	-0.830621
H95	H	-4.384941	-0.128156	-0.873473
H96	H	-4.379981	-0.060986	-0.786061
H97	H	-4.310848	0.020680	-0.854697
H98	H	-3.809895	-0.388116	-0.102384
