data_functionalizedCrystal
_audit_creation_method	'MofGen! by Chris Wilmer'
_symmetry_space_group_name_H-M	'P1'
_symmetry_Int_Tables_number	1
_symmetry_cell_setting	triclinic
loop_
_symmetry_equiv_pos_as_xyz
  x,y,z
_cell_length_a	14.519709
_cell_length_b	15.995350
_cell_length_c	13.596369
_cell_angle_alpha	89.996243
_cell_angle_beta	90.000291
_cell_angle_gamma	83.586260
loop_
_atom_site_label
_atom_site_type_symbol
_atom_site_fract_x
_atom_site_fract_y
_atom_site_fract_z
O1	O	1.223669	0.109760	-0.081658
O2	O	1.557002	0.443093	0.251675
O3	O	1.890336	0.776427	0.585008
O4	O	0.955169	0.122685	-0.081688
O5	O	1.288502	0.456019	0.251646
O6	O	1.621835	0.789352	0.584979
O7	O	1.096759	-0.005654	-0.081671
O8	O	1.430092	0.327679	0.251662
O9	O	1.763425	0.661013	0.584995
O10	O	1.082079	0.238099	-0.081675
O11	O	1.415413	0.571433	0.251659
O12	O	1.748746	0.904766	0.584992
O13	O	1.096744	-0.005661	0.081912
O14	O	1.430078	0.327673	0.415245
O15	O	1.763411	0.661006	0.748578
O16	O	0.955155	0.122679	0.081895
O17	O	1.288488	0.456012	0.415228
O18	O	1.621821	0.789345	0.748562
O19	O	1.223655	0.109753	0.081925
O20	O	1.556988	0.443086	0.415258
O21	O	1.890322	0.776420	0.748591
Zn22	Zn	1.089403	0.116215	0.107882
Zn23	Zn	1.422736	0.449548	0.441215
Zn24	Zn	1.756069	0.782881	0.774549
Zn25	Zn	1.089421	0.116224	-0.107645
Zn26	Zn	1.422754	0.449557	0.225688
Zn27	Zn	1.756088	0.782890	0.559021
O28	O	1.082065	0.238093	0.081908
O29	O	1.415399	0.571426	0.415241
O30	O	1.748732	0.904759	0.748575
C31	C	0.920803	0.122080	0.000100
C32	C	1.254136	0.455413	0.333433
C33	C	1.587470	0.788746	0.666766
C34	C	0.818425	0.120275	0.000088
C35	C	1.151758	0.453608	0.333422
C36	C	1.485092	0.786941	0.666755
C37	C	1.096145	-0.036853	0.000118
C38	C	1.429478	0.296480	0.333452
C39	C	1.762811	0.629814	0.666785
C40	C	1.094325	-0.129806	0.000112
C41	C	1.427659	0.203527	0.333446
C42	C	1.760992	0.536861	0.666779
C43	C	0.443541	0.113629	0.000133
C44	C	0.776875	0.446962	0.333467
C45	C	1.110208	0.780296	0.666800
C46	C	0.547846	0.115475	0.000120
C47	C	0.881179	0.448808	0.333454
C48	C	1.214513	0.782141	0.666787
C49	C	0.630980	0.116952	0.000110
C50	C	0.964313	0.450285	0.333443
C51	C	1.297647	0.783618	0.666777
C52	C	0.735291	0.118797	0.000099
C53	C	1.068624	0.452131	0.333432
C54	C	1.401958	0.785464	0.666766
C55	C	1.087791	-0.467563	0.000115
C56	C	1.421125	-0.134230	0.333448
C57	C	1.754458	0.199103	0.666782
C58	C	0.986954	-0.420280	-0.000263
C59	C	1.320287	-0.086947	0.333070
C60	C	1.653620	0.246386	0.666404
C61	C	0.988773	-0.323587	0.000106
C62	C	1.322107	0.009746	0.333439
C63	C	1.655440	0.343079	0.666773
C64	C	1.091032	-0.299998	0.000113
C65	C	1.424366	0.033335	0.333446
C66	C	1.757699	0.366669	0.666780
C67	C	1.140761	-0.341005	0.093531
C68	C	1.474094	-0.007672	0.426864
C69	C	1.807428	0.325662	0.760197
C70	C	1.138228	-0.437644	0.093609
C71	C	1.471561	-0.104311	0.426942
C72	C	1.804895	0.229022	0.760275
C73	C	1.140327	-0.437992	-0.092415
C74	C	1.473660	-0.104658	0.240918
C75	C	1.806994	0.228675	0.574251
C76	C	1.140303	-0.341046	-0.093650
C77	C	1.473636	-0.007713	0.239683
C78	C	1.806970	0.325620	0.573017
C79	C	1.092869	-0.205298	0.000115
C80	C	1.426203	0.128036	0.333449
C81	C	1.759536	0.461369	0.666782
C82	C	1.085957	-0.562264	0.000119
C83	C	1.419291	-0.228931	0.333453
C84	C	1.752624	0.104403	0.666786
C85	C	1.258021	0.110359	0.000135
C86	C	1.591354	0.443692	0.333468
C87	C	1.924687	0.777026	0.666801
C88	C	1.360399	0.112164	0.000140
C89	C	1.693732	0.445497	0.333473
C90	C	2.027065	0.778831	0.666806
C91	C	1.082679	0.269292	0.000116
C92	C	1.416012	0.602625	0.333450
C93	C	1.749346	0.935958	0.666783
C94	C	1.084498	0.362245	0.000116
C95	C	1.417832	0.695578	0.333449
C96	C	1.751165	1.028911	0.666782
N97	N	1.089397	0.116208	0.254974
N98	N	1.422730	0.449541	0.588307
N99	N	1.756063	0.782875	0.921641
N100	N	1.089434	0.116224	-0.254737
N101	N	1.422768	0.449557	0.078596
N102	N	1.756101	0.782890	0.411929
C103	C	1.089420	0.116225	0.656265
C104	C	1.422753	0.449558	0.989598
C105	C	1.756087	0.782891	1.322932
C106	C	1.089411	0.116223	0.544614
C107	C	1.422744	0.449556	0.877947
C108	C	1.756077	0.782890	1.211280
C109	C	1.089409	0.116217	0.455623
C110	C	1.422742	0.449550	0.788956
C111	C	1.756075	0.782884	1.122290
C112	C	1.089399	0.116214	0.343965
C113	C	1.422732	0.449547	0.677298
C114	C	1.756065	0.782881	1.010631
H115	H	0.949683	-0.295221	-0.066860
H116	H	1.283016	0.038112	0.266474
H117	H	1.616350	0.371446	0.599807
H118	H	1.214875	-0.325572	-0.099285
H119	H	1.548208	0.007761	0.234048
H120	H	1.881542	0.341094	0.567382
Br121	Br	1.080213	-0.295176	-0.208855
Br122	Br	1.413546	0.038157	0.124479
Br123	Br	1.746879	0.371490	0.457812
H124	H	0.949409	-0.295784	0.067177
H125	H	1.282742	0.037549	0.400511
H126	H	1.616075	0.370882	0.733844
Br127	Br	1.085379	-0.472290	-0.210429
Br128	Br	1.418712	-0.138957	0.122904
Br129	Br	1.752045	0.194376	0.456237
Br130	Br	1.265979	-0.317279	0.099336
Br131	Br	1.599312	0.016054	0.432669
Br132	Br	1.932646	0.349387	0.766002
H133	H	0.946656	-0.438870	-0.067255
H134	H	1.279989	-0.105536	0.266078
H135	H	1.613322	0.227797	0.599412
H136	H	0.946823	-0.439937	0.066347
H137	H	1.280156	-0.106604	0.399680
H138	H	1.613490	0.226729	0.733014
H139	H	1.214674	-0.469641	-0.093038
H140	H	1.548007	-0.136308	0.240295
H141	H	1.881341	0.197025	0.573629
Br142	Br	1.077766	-0.468248	0.209987
Br143	Br	1.411099	-0.134915	0.543320
Br144	Br	1.744432	0.198419	0.876654
H145	H	1.106210	-0.312678	0.163044
H146	H	1.439544	0.020655	0.496377
H147	H	1.772877	0.353989	0.829710
Br148	Br	1.261616	-0.491214	0.100694
Br149	Br	1.594950	-0.157881	0.434027
Br150	Br	1.928283	0.175453	0.767361
