data_functionalizedCrystal
_audit_creation_method	'MofGen! by Chris Wilmer'
_symmetry_space_group_name_H-M	'P1'
_symmetry_Int_Tables_number	1
_symmetry_cell_setting	triclinic
loop_
_symmetry_equiv_pos_as_xyz
  x,y,z
_cell_length_a	10.654546
_cell_length_b	10.868271
_cell_length_c	10.654550
_cell_angle_alpha	90.000241
_cell_angle_beta	95.515787
_cell_angle_gamma	89.988038
loop_
_atom_site_label
_atom_site_type_symbol
_atom_site_fract_x
_atom_site_fract_y
_atom_site_fract_z
O1	O	-1.667844	0.102536	0.176372
O2	O	-1.167844	0.602536	0.676372
O3	O	-1.302365	0.102491	0.193183
O4	O	-0.802365	0.602491	0.693183
O5	O	-1.493508	0.102510	0.002038
O6	O	-0.993508	0.602510	0.502038
O7	O	-1.476701	0.102517	0.367517
O8	O	-0.976701	0.602517	0.867517
O9	O	-1.493490	-0.102135	0.002044
O10	O	-0.993490	0.397865	0.502044
O11	O	-1.302348	-0.102154	0.193189
O12	O	-0.802348	0.397846	0.693189
O13	O	-1.667827	-0.102108	0.176378
O14	O	-1.167827	0.397892	0.676378
Zn15	Zn	-1.485084	-0.134623	0.184785
Zn16	Zn	-0.985084	0.365377	0.684785
Zn17	Zn	-1.485107	0.135005	0.184777
Zn18	Zn	-0.985107	0.635005	0.684777
O19	O	-1.476684	-0.102128	0.367523
O20	O	-0.976684	0.397872	0.867523
C21	C	-1.255558	0.000163	0.191953
C22	C	-0.755558	0.500163	0.691953
C23	C	-1.116115	0.000145	0.188262
C24	C	-0.616115	0.500145	0.688262
N25	N	-1.485078	-0.318637	0.184790
N26	N	-0.985078	0.181363	0.684790
C27	C	-1.036629	0.000160	0.300805
C28	C	-0.536629	0.500160	0.800805
C29	C	-0.905608	0.000172	0.297330
C30	C	-0.405608	0.500172	0.797330
C31	C	-0.933571	0.000160	0.068760
C32	C	-0.433571	0.500160	0.568760
C33	C	-1.064590	0.000139	0.072236
C34	C	-0.564590	0.500139	0.572236
C35	C	-1.020483	0.000173	0.432768
C36	C	-0.520483	0.500173	0.932768
C37	C	-0.889462	0.000185	0.429293
C38	C	-0.389462	0.500185	0.929293
C39	C	-1.485088	-0.429975	0.184790
C40	C	-0.985088	0.070025	0.684790
C41	C	-1.485104	-0.569652	0.184778
C42	C	-0.985104	-0.069652	0.684778
C43	C	-0.714633	0.000205	0.177612
C44	C	-0.214633	0.500205	0.677612
C45	C	-0.854075	0.000178	0.181311
C46	C	-0.354075	0.500178	0.681311
C47	C	-1.492265	0.000189	-0.044757
C48	C	-0.992265	0.500189	0.455243
C49	C	-1.488573	0.000193	-0.184200
C50	C	-0.988573	0.500193	0.315800
N51	N	-1.485124	0.319019	0.184762
N52	N	-0.985124	0.819019	0.684762
C53	C	-1.601115	0.000203	-0.263687
C54	C	-1.101115	0.500203	0.236313
C55	C	-1.597638	0.000211	-0.394708
C56	C	-1.097638	0.500211	0.105292
C57	C	-1.369068	0.000194	-0.366741
C58	C	-0.869068	0.500194	0.133259
C59	C	-1.372546	0.000194	-0.235723
C60	C	-0.872546	0.500194	0.264277
C61	C	-1.733078	0.000208	-0.279834
C62	C	-1.233078	0.500208	0.220166
C63	C	-1.729601	0.000216	-0.410855
C64	C	-1.229601	0.500216	0.089145
C65	C	-1.477927	0.000196	0.414318
C66	C	-0.977927	0.500196	0.914318
C67	C	-1.481619	0.000200	0.553761
C68	C	-0.981619	0.500200	1.053761
H69	H	-1.129304	0.000109	-0.019407
H70	H	-0.629304	0.500109	0.480593
H71	H	-1.779316	-0.085419	-0.452613
H72	H	-1.279316	0.414581	0.047387
Cl73	Cl	-0.868787	0.000152	-0.077093
Cl74	Cl	-0.368787	0.500152	0.422907
Cl75	Cl	-1.065767	-0.132049	0.512457
Cl76	Cl	-0.565767	0.367951	1.012457
H77	H	-0.843783	-0.088168	0.469177
H78	H	-0.343783	0.411832	0.969177
H79	H	-0.847737	0.085833	0.479013
H80	H	-0.347737	0.585833	0.979013
H81	H	-1.274603	0.000196	-0.408708
H82	H	-0.774603	0.500196	0.091292
Cl83	Cl	-1.231059	0.000212	-0.135800
Cl84	Cl	-0.731059	0.500212	0.364200
H85	H	-1.769490	0.088581	-0.456501
H86	H	-1.269490	0.588581	0.043499
Cl87	Cl	-1.797923	-0.136213	-0.224812
Cl88	Cl	-1.297923	0.363787	0.275188
Cl89	Cl	-1.075555	0.136586	0.497635
Cl90	Cl	-0.575555	0.636586	0.997635
H91	H	-1.784701	0.085852	-0.250479
H92	H	-1.284701	0.585852	0.249521
