data_functionalizedCrystal
_audit_creation_method	'MofGen! by Chris Wilmer'
_symmetry_space_group_name_H-M	'P1'
_symmetry_Int_Tables_number	1
_symmetry_cell_setting	triclinic
loop_
_symmetry_equiv_pos_as_xyz
  x,y,z
_cell_length_a	16.109301
_cell_length_b	13.339070
_cell_length_c	14.586319
_cell_angle_alpha	89.998714
_cell_angle_beta	89.998857
_cell_angle_gamma	99.545439
loop_
_atom_site_label
_atom_site_type_symbol
_atom_site_fract_x
_atom_site_fract_y
_atom_site_fract_z
O1	O	1.133153	0.130022	-0.076185
O2	O	1.633153	0.630022	0.423815
O3	O	0.894828	0.146202	-0.076198
O4	O	1.394828	0.646202	0.423802
O5	O	0.986638	-0.009142	-0.076190
O6	O	1.486638	0.490858	0.423810
O7	O	1.041343	0.285367	-0.076193
O8	O	1.541343	0.785367	0.423807
O9	O	0.986629	-0.009145	0.076290
O10	O	1.486629	0.490855	0.576290
O11	O	0.894818	0.146200	0.076283
O12	O	1.394818	0.646200	0.576283
O13	O	1.133144	0.130020	0.076295
O14	O	1.633144	0.630020	0.576295
Cu15	Cu	1.013980	0.138110	0.090212
Cu16	Cu	1.513980	0.638110	0.590212
Cu17	Cu	1.013991	0.138112	-0.090114
Cu18	Cu	1.513991	0.638112	0.409886
O19	O	1.041333	0.285364	0.076288
O20	O	1.541333	0.785364	0.576288
C21	C	0.863697	0.145546	0.000041
C22	C	1.363697	0.645546	0.500041
C23	C	0.770948	0.143581	0.000036
C24	C	1.270948	0.643581	0.500036
C25	C	0.977393	-0.046830	0.000048
C26	C	1.477393	0.453170	0.500048
C27	C	0.949849	-0.159123	0.000043
C28	C	1.449849	0.340877	0.500043
C29	C	0.481750	0.229335	0.000051
C30	C	0.981750	0.729335	0.500051
C31	C	0.568899	0.231191	0.000046
C32	C	1.068899	0.731191	0.500046
C33	C	0.546214	0.046879	0.000035
C34	C	1.046214	0.546879	0.500035
C35	C	0.459067	0.045025	0.000034
C36	C	0.959067	0.545025	0.500034
C37	C	0.426838	0.136256	0.000047
C38	C	0.926838	0.636256	0.500047
C39	C	0.601134	0.139966	0.000043
C40	C	1.101134	0.639966	0.500043
C41	C	0.695624	0.141978	0.000037
C42	C	1.195624	0.641978	0.500037
C43	C	0.332341	0.134244	0.000051
C44	C	0.832341	0.634244	0.500051
C45	C	1.164017	-0.523986	0.000055
C46	C	1.664017	-0.023986	0.500055
C47	C	1.189899	-0.418482	0.000065
C48	C	1.689899	0.081518	0.500065
C49	C	1.129888	-0.353637	0.000059
C50	C	1.629888	0.146363	0.500059
C51	C	1.043992	-0.394306	0.000044
C52	C	1.543992	0.105694	0.500044
C53	C	1.018108	-0.499821	0.000041
C54	C	1.518108	0.000179	0.500041
C55	C	0.983979	-0.329472	0.000045
C56	C	1.483979	0.170528	0.500045
C57	C	0.898083	-0.370141	0.000030
C58	C	1.398083	0.129859	0.500030
C59	C	0.872203	-0.475646	0.000027
C60	C	1.372203	0.024354	0.500027
C61	C	0.932213	-0.540491	0.000033
C62	C	1.432213	-0.040491	0.500033
C63	C	1.009864	-0.223957	0.000048
C64	C	1.509864	0.276043	0.500048
C65	C	0.863954	-0.199792	0.000035
C66	C	1.363954	0.300208	0.500035
C67	C	0.838073	-0.305296	0.000025
C68	C	1.338073	0.194704	0.500025
C69	C	1.164275	0.130676	0.000055
C70	C	1.664275	0.630676	0.500055
C71	C	1.257024	0.132641	0.000053
C72	C	1.757024	0.632641	0.500053
C73	C	1.050578	0.323052	0.000047
C74	C	1.550578	0.823052	0.500047
C75	C	1.078123	0.435344	0.000046
C76	C	1.578123	0.935344	0.500046
N77	N	1.013978	0.138107	0.217044
N78	N	1.513978	0.638107	0.717044
N79	N	1.013998	0.138107	-0.216946
N80	N	1.513998	0.638107	0.283054
C81	C	1.054656	0.069343	0.452053
C82	C	1.554656	0.569343	0.952053
C83	C	1.054658	0.069341	0.548035
C84	C	1.554658	0.569341	1.048035
C85	C	0.973315	0.206874	0.548037
C86	C	1.473315	0.706874	1.048037
C87	C	0.973308	0.206871	0.452058
C88	C	1.473308	0.706871	0.952058
C89	C	1.013984	0.138107	0.404068
C90	C	1.513984	0.638107	0.904068
C91	C	1.013992	0.138107	0.596029
C92	C	1.513992	0.638107	1.096029
C93	C	1.013994	0.138105	0.700096
C94	C	1.513994	0.638105	1.200096
C95	C	1.013981	0.138107	0.299995
C96	C	1.513981	0.638107	0.799995
H97	H	0.455513	0.303621	0.000061
H98	H	0.955513	0.803621	0.500061
C99	C	0.928612	0.282565	0.399271
C100	C	1.428612	0.782565	0.899271
N101	N	0.894964	0.339591	0.359512
N102	N	1.394964	0.839591	0.859512
H103	H	0.613606	0.306986	0.000049
H104	H	1.113606	0.806986	0.500049
C105	C	1.099392	-0.006307	0.399268
C106	C	1.599392	0.493693	0.899268
N107	N	1.133085	-0.063292	0.359513
N108	N	1.633085	0.436708	0.859513
C109	C	0.581675	-0.053469	0.000038
C110	C	1.081675	0.446531	0.500038
N111	N	0.608383	-0.129053	0.000045
N112	N	1.108383	0.370947	0.500045
H113	H	1.087776	0.013347	0.587101
H114	H	1.587776	0.513347	1.087101
C115	C	0.928572	0.282508	0.600835
C116	C	1.428572	0.782508	1.100835
N117	N	0.894871	0.339477	0.640601
N118	N	1.394871	0.839477	1.140601
C119	C	1.230018	-0.595320	0.000067
C120	C	1.730018	-0.095320	0.500067
N121	N	1.279734	-0.649052	0.000078
N122	N	1.779734	-0.149052	0.500078
H123	H	0.414354	-0.030776	0.000027
H124	H	0.914354	0.469224	0.500027
H125	H	1.079801	-0.190855	0.000061
H126	H	1.579801	0.309145	0.500061
C127	C	0.797938	-0.128467	0.000026
C128	C	1.297938	0.371533	0.500026
N129	N	0.748219	-0.074739	0.000020
N130	N	1.248219	0.425261	0.500020
H131	H	1.150967	-0.267731	0.000067
H132	H	1.650967	0.232269	0.500067
H133	H	1.259835	-0.385376	0.000078
H134	H	1.759835	0.114624	0.500078
H135	H	0.911145	-0.626402	0.000021
H136	H	1.411145	-0.126402	0.500021
C137	C	0.777715	-0.520379	0.000020
C138	C	1.277715	-0.020379	0.500020
N139	N	0.706546	-0.554070	0.000014
N140	N	1.206546	-0.054070	0.500014
C141	C	0.743588	-0.350047	0.000021
C142	C	1.243588	0.149953	0.500021
N143	N	0.672422	-0.383755	0.000022
N144	N	1.172422	0.116245	0.500022
