data_functionalizedCrystal
_audit_creation_method	'MofGen! by Chris Wilmer'
_symmetry_space_group_name_H-M	'P1'
_symmetry_Int_Tables_number	1
_symmetry_cell_setting	triclinic
loop_
_symmetry_equiv_pos_as_xyz
  x,y,z
_cell_length_a	27.732064
_cell_length_b	27.731996
_cell_length_c	26.210047
_cell_angle_alpha	89.998501
_cell_angle_beta	89.998671
_cell_angle_gamma	82.635407
loop_
_atom_site_label
_atom_site_type_symbol
_atom_site_fract_x
_atom_site_fract_y
_atom_site_fract_z
O1	O	0.640915	0.057550	-0.042344
O2	O	0.974248	0.390883	0.290989
O3	O	1.307582	0.724216	0.624322
O4	O	0.500121	0.066287	-0.042366
O5	O	0.833454	0.399620	0.290967
O6	O	1.166788	0.732954	0.624300
O7	O	0.574904	-0.008480	-0.042344
O8	O	0.908237	0.324853	0.290990
O9	O	1.241571	0.658187	0.624323
O10	O	0.566132	0.132317	-0.042367
O11	O	0.899466	0.465650	0.290966
O12	O	1.232799	0.798983	0.624300
O13	O	0.574890	-0.008468	0.042514
O14	O	0.908223	0.324865	0.375848
O15	O	1.241556	0.658198	0.709181
O16	O	0.500107	0.066299	0.042492
O17	O	0.833440	0.399632	0.375825
O18	O	1.166773	0.732965	0.709158
O19	O	0.640901	0.057561	0.042514
O20	O	0.974234	0.390895	0.375847
O21	O	1.307567	0.724228	0.709180
Cu22	Cu	0.570502	0.061931	0.050251
Cu23	Cu	0.903836	0.395264	0.383584
Cu24	Cu	1.237169	0.728598	0.716917
Cu25	Cu	0.570519	0.061917	-0.050104
Cu26	Cu	0.903853	0.395251	0.283230
Cu27	Cu	1.237186	0.728584	0.616563
O28	O	0.566118	0.132328	0.042491
O29	O	0.899451	0.465662	0.375824
O30	O	1.232784	0.798995	0.709158
C31	C	0.482107	0.066108	0.000060
C32	C	0.815441	0.399442	0.333393
C33	C	1.148774	0.732775	0.666727
C34	C	0.428453	0.065552	0.000052
C35	C	0.761786	0.398886	0.333385
C36	C	1.095120	0.732219	0.666719
C37	C	0.574717	-0.026481	0.000087
C38	C	0.908050	0.306852	0.333420
C39	C	1.241383	0.640185	0.666754
C40	C	0.574174	-0.080138	0.000092
C41	C	0.907507	0.253196	0.333425
C42	C	1.240841	0.586529	0.666759
C43	C	0.051389	0.017584	0.000089
C44	C	0.384722	0.350917	0.333422
C45	C	0.718056	0.684250	0.666756
C46	C	0.253049	0.019630	0.000076
C47	C	0.586382	0.352963	0.333409
C48	C	0.919716	0.686297	0.666742
O49	O	0.284309	-0.017592	0.000101
O50	O	0.617642	0.315741	0.333434
O51	O	0.950975	0.649075	0.666767
N52	N	0.272168	0.063966	0.000066
N53	N	0.605501	0.397299	0.333399
N54	N	0.938835	0.730632	0.666733
C55	C	0.240869	0.107793	0.000063
C56	C	0.574202	0.441126	0.333396
C57	C	0.907536	0.774459	0.666730
O58	O	0.261758	0.145549	0.000060
O59	O	0.595091	0.478883	0.333393
O60	O	0.928425	0.812216	0.666726
C61	C	0.039210	0.105746	0.000080
C62	C	0.372543	0.439079	0.333414
C63	C	0.705877	0.772412	0.666747
C64	C	0.020094	0.061407	0.000085
C65	C	0.353427	0.394741	0.333418
C66	C	0.686760	0.728074	0.666751
C67	C	0.032272	-0.026751	0.000094
C68	C	0.365606	0.306582	0.333428
C69	C	0.698939	0.639916	0.666761
C70	C	-0.018140	-0.027262	0.000095
C71	C	0.315194	0.306071	0.333428
C72	C	0.648527	0.639405	0.666761
C73	C	-0.049435	0.016562	0.000090
C74	C	0.283898	0.349895	0.333424
C75	C	0.617232	0.683228	0.666757
C76	C	-0.030318	0.060896	0.000085
C77	C	0.303015	0.394230	0.333419
C78	C	0.636348	0.727563	0.666752
C79	C	0.007912	0.149572	0.000081
C80	C	0.341245	0.482906	0.333414
C81	C	0.674578	0.816239	0.666748
C82	C	-0.042506	0.149057	0.000087
C83	C	0.290828	0.482390	0.333420
C84	C	0.624161	0.815723	0.666753
C85	C	-0.061622	0.104718	0.000091
C86	C	0.271711	0.438052	0.333424
C87	C	0.605045	0.771385	0.666758
C88	C	-0.112026	0.104209	0.000082
C89	C	0.221308	0.437542	0.333415
C90	C	0.554641	0.770875	0.666748
N91	N	-0.131145	0.059873	0.000091
N92	N	0.202189	0.393207	0.333425
N93	N	0.535522	0.726540	0.666758
C94	C	-0.099849	0.016050	0.000096
C95	C	0.233484	0.349383	0.333429
C96	C	0.566817	0.682716	0.666762
C97	C	0.346743	0.108864	0.000053
C98	C	0.680076	0.442197	0.333386
C99	C	1.013410	0.775531	0.666720
C100	C	0.397158	0.109376	0.000048
C101	C	0.730491	0.442709	0.333381
C102	C	1.063824	0.776042	0.666714
C103	C	0.409334	0.021213	0.000061
C104	C	0.742668	0.354547	0.333395
C105	C	1.076001	0.687880	0.666728
C106	C	0.358919	0.020702	0.000063
C107	C	0.692252	0.354035	0.333396
C108	C	1.025585	0.687369	0.666729
C109	C	0.327624	0.064529	0.000063
C110	C	0.660957	0.397862	0.333396
C111	C	0.994291	0.731195	0.666729
C112	C	-0.205719	0.014980	0.000096
C113	C	0.127615	0.348313	0.333430
C114	C	0.460948	0.681646	0.666763
C115	C	-0.256136	0.014473	0.000095
C116	C	0.077198	0.347806	0.333428
C117	C	0.410531	0.681139	0.666762
C118	C	-0.268308	0.102635	0.000084
C119	C	0.065025	0.435968	0.333418
C120	C	0.398359	0.769302	0.666751
C121	C	-0.217895	0.103142	0.000083
C122	C	0.115438	0.436476	0.333416
C123	C	0.448771	0.769809	0.666750
C124	C	-0.186601	0.059311	0.000091
C125	C	0.146732	0.392644	0.333424
C126	C	0.480065	0.725978	0.666758
O127	O	-0.143313	0.141411	0.000062
O128	O	0.190020	0.474744	0.333395
O129	O	0.523353	0.808078	0.666729
O130	O	-0.120748	-0.021702	0.000110
O131	O	0.212585	0.311632	0.333444
O132	O	0.545919	0.644965	0.666777
C133	C	0.101801	0.018095	0.000089
C134	C	0.435134	0.351428	0.333422
C135	C	0.768468	0.684762	0.666755
C136	C	0.120918	0.062430	0.000083
C137	C	0.454251	0.395763	0.333417
C138	C	0.787584	0.729096	0.666750
C139	C	0.089623	0.106253	0.000079
C140	C	0.422956	0.439587	0.333412
C141	C	0.756289	0.772920	0.666746
C142	C	0.171332	0.062941	0.000078
C143	C	0.504666	0.396275	0.333412
C144	C	0.837999	0.729608	0.666745
C145	C	0.202628	0.019118	0.000083
C146	C	0.535961	0.352451	0.333416
C147	C	0.869294	0.685785	0.666749
C148	C	0.183508	-0.025218	0.000092
C149	C	0.516842	0.308116	0.333426
C150	C	0.850175	0.641449	0.666759
C151	C	0.133096	-0.025729	0.000093
C152	C	0.466430	0.307605	0.333426
C153	C	0.799763	0.640938	0.666760
C154	C	0.108742	0.150589	0.000069
C155	C	0.442075	0.483922	0.333403
C156	C	0.775408	0.817255	0.666736
C157	C	0.159154	0.151096	0.000068
C158	C	0.492488	0.484429	0.333402
C159	C	0.825821	0.817763	0.666735
C160	C	0.190450	0.107273	0.000073
C161	C	0.523783	0.440606	0.333406
C162	C	0.857116	0.773939	0.666739
C163	C	0.570767	-0.412861	-0.046189
C164	C	0.904100	-0.079527	0.287144
C165	C	1.237434	0.253806	0.620477
C166	C	0.568706	-0.614519	-0.046199
C167	C	0.902039	-0.281186	0.287135
C168	C	1.235373	0.052148	0.620468
O169	O	0.568425	-0.640595	-0.085538
O170	O	0.901759	-0.307262	0.247795
O171	O	1.235092	0.026072	0.581129
N172	N	0.568442	-0.639730	0.000057
N173	N	0.901776	-0.306396	0.333390
N174	N	1.235109	0.026937	0.666724
C175	C	0.568690	-0.614522	0.046318
C176	C	0.902024	-0.281189	0.379651
C177	C	1.235357	0.052144	0.712985
O178	O	0.568414	-0.640592	0.085661
O179	O	0.901747	-0.307259	0.418995
O180	O	1.235080	0.026074	0.752328
C181	C	0.570748	-0.412865	0.046327
C182	C	0.904081	-0.079531	0.379660
C183	C	1.237415	0.253802	0.712994
C184	C	0.571017	-0.387657	0.000068
C185	C	0.904350	-0.054324	0.333402
C186	C	1.237683	0.279010	0.666735
C187	C	0.571035	-0.387653	-0.092444
C188	C	0.904369	-0.054320	0.240889
C189	C	1.237702	0.279014	0.574222
C190	C	0.571553	-0.337242	-0.092442
C191	C	0.904886	-0.003908	0.240892
C192	C	1.238220	0.329425	0.574225
C193	C	0.571803	-0.312038	-0.046184
C194	C	0.905136	0.021295	0.287149
C195	C	1.238469	0.354628	0.620483
C196	C	0.571535	-0.337246	0.000071
C197	C	0.904868	-0.003913	0.333404
C198	C	1.238201	0.329421	0.666738
C199	C	0.570993	-0.387658	0.092588
C200	C	0.904326	-0.054324	0.425921
C201	C	1.237659	0.279009	0.759254
C202	C	0.571506	-0.337240	0.092586
C203	C	0.904839	-0.003906	0.425919
C204	C	1.238173	0.329427	0.759252
C205	C	0.571775	-0.312032	0.046327
C206	C	0.905108	0.021301	0.379660
C207	C	1.238441	0.354634	0.712994
C208	C	0.572302	-0.261631	0.046332
C209	C	0.905635	0.071702	0.379665
C210	C	1.238969	0.405036	0.712998
N211	N	0.572566	-0.236420	0.000076
N212	N	0.905899	0.096913	0.333409
N213	N	1.239233	0.430246	0.666743
C214	C	0.572316	-0.261624	-0.046182
C215	C	0.905650	0.071709	0.287152
C216	C	1.238983	0.405043	0.620485
C217	C	0.567611	-0.720396	0.046310
C218	C	0.900944	-0.387063	0.379644
C219	C	1.234278	-0.053729	0.712977
C220	C	0.567098	-0.770810	0.046308
C221	C	0.900431	-0.437477	0.379642
C222	C	1.233764	-0.104144	0.712975
C223	C	0.567112	-0.770803	-0.046209
C224	C	0.900446	-0.437470	0.287124
C225	C	1.233779	-0.104137	0.620458
C226	C	0.567629	-0.720388	-0.046206
C227	C	0.900963	-0.387055	0.287127
C228	C	1.234296	-0.053722	0.620460
C229	C	0.567875	-0.695185	0.000055
C230	C	0.901208	-0.361852	0.333388
C231	C	1.234542	-0.028518	0.666721
C232	C	0.573404	-0.155757	-0.046172
C233	C	0.906738	0.177577	0.287161
C234	C	1.240071	0.510910	0.620494
C235	C	0.573924	-0.105341	-0.046166
C236	C	0.907258	0.227992	0.287168
C237	C	1.240591	0.561325	0.620501
C238	C	0.573907	-0.105352	0.046351
C239	C	0.907240	0.227981	0.379685
C240	C	1.240574	0.561314	0.713018
C241	C	0.573390	-0.155764	0.046345
C242	C	0.906723	0.177570	0.379678
C243	C	1.240056	0.510903	0.713011
C244	C	0.573137	-0.180964	0.000079
C245	C	0.906470	0.152369	0.333412
C246	C	1.239803	0.485702	0.666745
O247	O	0.572578	-0.235523	0.085650
O248	O	0.905911	0.097810	0.418984
O249	O	1.239244	0.431144	0.752317
O250	O	0.572582	-0.235544	-0.085519
O251	O	0.905916	0.097789	0.247814
O252	O	1.239249	0.431123	0.581148
C253	C	0.570249	-0.463272	-0.046192
C254	C	0.903582	-0.129938	0.287141
C255	C	1.236916	0.203395	0.620474
C256	C	0.569981	-0.488479	0.000063
C257	C	0.903314	-0.155146	0.333396
C258	C	1.236648	0.178187	0.666729
C259	C	0.570231	-0.463276	0.046320
C260	C	0.903564	-0.129943	0.379654
C261	C	1.236897	0.203391	0.712987
C262	C	0.569467	-0.538894	0.000061
C263	C	0.902801	-0.205560	0.333394
C264	C	1.236134	0.127773	0.666727
C265	C	0.569218	-0.564097	-0.046197
C266	C	0.902551	-0.230764	0.287136
C267	C	1.235884	0.102569	0.620470
C268	C	0.569482	-0.538887	-0.092453
C269	C	0.902815	-0.205553	0.240881
C270	C	1.236148	0.127780	0.574214
C271	C	0.569999	-0.488475	-0.092450
C272	C	0.903333	-0.155142	0.240883
C273	C	1.236666	0.178191	0.574217
C274	C	0.569967	-0.488487	0.092576
C275	C	0.903300	-0.155153	0.425909
C276	C	1.236633	0.178180	0.759243
C277	C	0.569449	-0.538898	0.092569
C278	C	0.902783	-0.205565	0.425903
C279	C	1.236116	0.127769	0.759236
C280	C	0.569200	-0.564102	0.046312
C281	C	0.902533	-0.230768	0.379645
C282	C	1.235866	0.102565	0.712978
C283	C	0.658915	0.057740	0.000086
C284	C	0.992248	0.391074	0.333419
C285	C	1.325581	0.724407	0.666753
C286	C	0.712569	0.058296	0.000091
C287	C	1.045902	0.391630	0.333424
C288	C	1.379236	0.724963	0.666757
C289	C	0.566305	0.150330	0.000059
C290	C	0.899639	0.483663	0.333392
C291	C	1.232972	0.816997	0.666726
C292	C	0.566848	0.203986	0.000051
C293	C	0.900181	0.537319	0.333384
C294	C	1.233515	0.870653	0.666717
N295	N	0.570494	0.061940	0.120835
N296	N	0.903827	0.395274	0.454168
N297	N	1.237161	0.728607	0.787501
N298	N	0.570532	0.061904	-0.120688
N299	N	0.903865	0.395237	0.212646
N300	N	1.237198	0.728571	0.545979
C301	C	0.603630	0.028818	0.473359
C302	C	0.936963	0.362151	0.806692
C303	C	1.270297	0.695485	1.140025
C304	C	0.603641	0.028811	0.687017
C305	C	0.936974	0.362144	1.020351
C306	C	1.270307	0.695478	1.353684
O307	O	0.631795	0.000651	0.714648
O308	O	0.965129	0.333985	1.047981
O309	O	1.298462	0.667318	1.381315
N310	N	0.570522	0.061907	0.713729
N311	N	0.903855	0.395240	1.047062
N312	N	1.237189	0.728573	1.380395
C313	C	0.537396	0.095004	0.687022
C314	C	0.870730	0.428337	1.020355
C315	C	1.204063	0.761671	1.353689
O316	O	0.509224	0.123150	0.714644
O317	O	0.842557	0.456484	1.047977
O318	O	1.175891	0.789817	1.381311
C319	C	0.537384	0.095008	0.473364
C320	C	0.870717	0.428342	0.806698
C321	C	1.204051	0.761675	1.140031
C322	C	0.570508	0.061914	0.446656
C323	C	0.903841	0.395247	0.779989
C324	C	1.237174	0.728580	1.113323
C325	C	0.636751	-0.004274	0.446650
C326	C	0.970084	0.329059	0.779984
C327	C	1.303417	0.662393	1.113317
C328	C	0.636749	-0.004270	0.393239
C329	C	0.970083	0.329063	0.726572
C330	C	1.303416	0.662396	1.059906
C331	C	0.603627	0.028825	0.366536
C332	C	0.936961	0.362159	0.699869
C333	C	1.270294	0.695492	1.033203
C334	C	0.570507	0.061918	0.393244
C335	C	0.903840	0.395251	0.726578
C336	C	1.237173	0.728584	1.059911
C337	C	0.504256	0.128103	0.446659
C338	C	0.837590	0.461436	0.779992
C339	C	1.170923	0.794770	1.113325
C340	C	0.504255	0.128100	0.393241
C341	C	0.837589	0.461434	0.726574
C342	C	1.170922	0.794767	1.059908
C343	C	0.537379	0.095006	0.366532
C344	C	0.870713	0.428339	0.699866
C345	C	1.204046	0.761672	1.033199
C346	C	0.537383	0.095017	0.313130
C347	C	0.870717	0.428351	0.646463
C348	C	1.204050	0.761684	0.979797
N349	N	0.570502	0.061922	0.286419
N350	N	0.903835	0.395255	0.619752
N351	N	1.237168	0.728588	0.953085
C352	C	0.603624	0.028826	0.313122
C353	C	0.936957	0.362159	0.646455
C354	C	1.270290	0.695493	0.979788
C355	C	0.537406	0.095000	0.799195
C356	C	0.870739	0.428334	1.132529
C357	C	1.204073	0.761667	1.465862
C358	C	0.537410	0.095000	0.852609
C359	C	0.870743	0.428333	1.185943
C360	C	1.204076	0.761667	1.519276
C361	C	0.603653	0.028806	0.852601
C362	C	0.936987	0.362140	1.185935
C363	C	1.270320	0.695473	1.519268
C364	C	0.603652	0.028809	0.799186
C365	C	0.936985	0.362143	1.132519
C366	C	1.270318	0.695476	1.465853
C367	C	0.570525	0.061905	0.772484
C368	C	0.903858	0.395238	1.105817
C369	C	1.237191	0.728571	1.439151
C370	C	0.603619	0.028837	0.200954
C371	C	0.936952	0.362170	0.534287
C372	C	1.270286	0.695503	0.867621
C373	C	0.603616	0.028845	0.147538
C374	C	0.936949	0.362178	0.480871
C375	C	1.270283	0.695511	0.814204
C376	C	0.537371	0.095036	0.147551
C377	C	0.870704	0.428370	0.480884
C378	C	1.204038	0.761703	0.814217
C379	C	0.537375	0.095030	0.200962
C380	C	0.870709	0.428364	0.534295
C381	C	1.204042	0.761697	0.867629
C382	C	0.570501	0.061926	0.227662
C383	C	0.903834	0.395260	0.560996
C384	C	1.237168	0.728593	0.894329
O385	O	0.509240	0.123159	0.285467
O386	O	0.842573	0.456492	0.618800
O387	O	1.175906	0.789825	0.952133
O388	O	0.631785	0.000677	0.285490
O389	O	0.965118	0.334010	0.618824
O390	O	1.298451	0.667343	0.952157
C391	C	0.603631	0.028814	0.526770
C392	C	0.936964	0.362147	0.860104
C393	C	1.270298	0.695481	1.193437
C394	C	0.570510	0.061906	0.553479
C395	C	0.903844	0.395240	0.886812
C396	C	1.237177	0.728573	1.220145
C397	C	0.537388	0.095002	0.526776
C398	C	0.870722	0.428335	0.860109
C399	C	1.204055	0.761669	1.193443
C400	C	0.570514	0.061906	0.606893
C401	C	0.903847	0.395239	0.940226
C402	C	1.237181	0.728573	1.273560
C403	C	0.603636	0.028810	0.633596
C404	C	0.936969	0.362143	0.966929
C405	C	1.270303	0.695477	1.300263
C406	C	0.636754	-0.004285	0.606885
C407	C	0.970088	0.329048	0.940218
C408	C	1.303421	0.662381	1.273551
C409	C	0.636753	-0.004282	0.553473
C410	C	0.970087	0.329052	0.886807
C411	C	1.303420	0.662385	1.220140
C412	C	0.504270	0.128098	0.553487
C413	C	0.837603	0.461431	0.886820
C414	C	1.170936	0.794764	1.220154
C415	C	0.504274	0.128091	0.606899
C416	C	0.837607	0.461425	0.940232
C417	C	1.170941	0.794758	1.273565
C418	C	0.537396	0.094996	0.633602
C419	C	0.870729	0.428329	0.966935
C420	C	1.204063	0.761662	1.300268
H421	H	-0.271697	-0.021635	0.000097
H422	H	0.061636	0.311699	0.333431
H423	H	0.394970	0.645032	0.666764
H424	H	0.570830	-0.408168	-0.130115
H425	H	0.904163	-0.074835	0.203218
H426	H	1.237497	0.258498	0.536552
H427	H	0.571770	-0.316722	-0.130110
H428	H	0.905103	0.016611	0.203223
H429	H	1.238437	0.349945	0.536556
N430	N	0.569164	-0.566081	0.142468
N431	N	0.902497	-0.232747	0.475801
N432	N	1.235830	0.100586	0.809135
H433	H	0.539273	-0.553159	0.162683
H434	H	0.872606	-0.219826	0.496016
H435	H	1.205939	0.113507	0.829349
H436	H	0.568816	-0.601837	0.135412
H437	H	0.902149	-0.268504	0.468745
H438	H	1.235482	0.064830	0.802079
N439	N	0.574209	-0.078143	-0.096055
N440	N	0.907542	0.255190	0.237279
N441	N	1.240875	0.588524	0.570612
H442	H	0.604096	-0.091056	-0.116279
H443	H	0.937430	0.242278	0.217055
H444	H	1.270763	0.575611	0.550388
H445	H	0.544124	-0.082776	-0.116241
H446	H	0.877457	0.250557	0.217093
H447	H	1.210791	0.583890	0.550426
N448	N	0.573145	-0.182935	-0.096072
N449	N	0.906478	0.150398	0.237261
N450	N	1.239812	0.483732	0.570595
H451	H	0.573399	-0.159311	-0.125370
H452	H	0.906732	0.174022	0.207963
H453	H	1.240066	0.507356	0.541297
H454	H	0.602913	-0.207991	-0.098075
H455	H	0.936246	0.125342	0.235259
H456	H	1.269580	0.458676	0.568592
H457	H	0.567847	-0.699868	-0.083874
H458	H	0.901181	-0.366534	0.249459
H459	H	1.234514	-0.033201	0.582792
H460	H	0.083265	0.186276	0.000066
H461	H	0.416599	0.519609	0.333400
H462	H	0.749932	0.852943	0.666733
H463	H	0.117537	-0.061833	0.000097
H464	H	0.450870	0.271500	0.333430
H465	H	0.784204	0.604833	0.666763
N466	N	0.501680	0.130702	0.770395
N467	N	0.835014	0.464035	1.103729
N468	N	1.168347	0.797369	1.437062
H469	H	0.480416	0.112379	0.748236
H470	H	0.813750	0.445713	1.081570
H471	H	1.147083	0.779046	1.414903
H472	H	0.480736	0.151659	0.795456
H473	H	0.814070	0.484992	1.128789
H474	H	1.147403	0.818325	1.462123
H475	H	-0.033699	-0.063367	0.000101
H476	H	0.299634	0.269967	0.333434
H477	H	0.632968	0.603300	0.666767
H478	H	0.412717	0.145480	0.000037
H479	H	0.746050	0.478814	0.333370
H480	H	1.079384	0.812147	0.666704
N481	N	0.672476	-0.039977	0.524666
N482	N	1.005809	0.293356	0.857999
N483	N	1.339142	0.626689	1.191333
H484	H	0.706738	-0.034645	0.533961
H485	H	1.040072	0.298688	0.867295
H486	H	1.373405	0.632022	1.200628
H487	H	0.667130	-0.074232	0.533976
H488	H	1.000463	0.259101	0.867309
H489	H	1.333796	0.592435	1.200642
H490	H	0.566910	-0.791333	-0.083874
H491	H	0.900243	-0.457999	0.249460
H492	H	1.233576	-0.124666	0.582793
H493	H	0.570171	-0.467971	0.130245
H494	H	0.903504	-0.134638	0.463579
H495	H	1.236837	0.198696	0.796912
H496	H	0.321266	0.144555	0.000052
H497	H	0.654600	0.477888	0.333385
H498	H	0.987933	0.811222	0.666719
N499	N	-0.197277	0.150964	0.000074
N500	N	0.136056	0.484298	0.333407
N501	N	0.469390	0.817631	0.666741
H502	H	-0.176634	0.153145	0.031532
H503	H	0.156699	0.486479	0.364865
H504	H	0.490032	0.819812	0.698199
H505	H	-0.176653	0.153111	-0.031403
H506	H	0.156681	0.486444	0.301931
H507	H	0.490014	0.819777	0.635264
H508	H	-0.180245	-0.020712	0.000103
H509	H	0.153089	0.312621	0.333436
H510	H	0.486422	0.645955	0.666769
N511	N	0.501658	0.130731	0.229773
N512	N	0.834991	0.464065	0.563106
N513	N	1.168325	0.797398	0.896440
H514	H	0.480678	0.151700	0.204749
H515	H	0.814011	0.485033	0.538083
H516	H	1.147344	0.818367	0.871416
H517	H	0.480430	0.112371	0.251934
H518	H	0.813763	0.445704	0.585267
H519	H	1.147096	0.779038	0.918601
H520	H	0.566886	-0.791331	0.083977
H521	H	0.900219	-0.457998	0.417310
H522	H	1.233553	-0.124664	0.750643
N523	N	0.468524	0.163793	0.475457
N524	N	0.801857	0.497126	0.808790
N525	N	1.135190	0.830459	1.142123
H526	H	0.447268	0.145459	0.497617
H527	H	0.780602	0.478793	0.830950
H528	H	1.113935	0.812126	1.164283
H529	H	0.486856	0.185067	0.497590
H530	H	0.820189	0.518401	0.830924
H531	H	1.153523	0.851734	1.164257
H532	H	0.663723	-0.031227	0.468387
H533	H	0.997056	0.302106	0.801720
H534	H	1.330389	0.635440	1.135054
N535	N	0.567883	-0.693220	0.096211
N536	N	0.901216	-0.359887	0.429545
N537	N	1.234550	-0.026553	0.762878
H538	H	0.598073	-0.676447	0.098280
H539	H	0.931406	-0.343114	0.431613
H540	H	1.264739	-0.009780	0.764946
H541	H	0.538100	-0.668186	0.098247
H542	H	0.871433	-0.334852	0.431580
H543	H	1.204767	-0.001519	0.764914
H544	H	0.057749	-0.062439	0.000099
H545	H	0.391082	0.270894	0.333433
H546	H	0.724415	0.604227	0.666766
N547	N	-0.302067	0.149900	0.000077
N548	N	0.031267	0.483233	0.333411
N549	N	0.364600	0.816567	0.666744
H550	H	-0.336904	0.142844	0.000081
H551	H	-0.003570	0.476178	0.333414
H552	H	0.329763	0.809511	0.666747
H553	H	-0.295915	0.169240	0.031534
H554	H	0.037418	0.502574	0.364867
H555	H	0.370752	0.835907	0.698200
H556	H	0.630591	0.001895	0.125793
H557	H	0.963925	0.335228	0.459127
H558	H	1.297258	0.668562	0.792460
N559	N	0.217268	-0.072485	0.000095
N560	N	0.550601	0.260848	0.333428
N561	N	0.883934	0.594181	0.666762
H562	H	0.252104	-0.065429	0.000094
H563	H	0.585437	0.267905	0.333427
H564	H	0.918771	0.601238	0.666761
H565	H	0.211117	-0.091820	0.031557
H566	H	0.544450	0.241513	0.364890
H567	H	0.877784	0.574846	0.698224
H568	H	0.343358	-0.015402	0.000067
H569	H	0.676692	0.317931	0.333400
H570	H	1.010025	0.651264	0.666733
H571	H	0.477301	0.155045	0.628641
H572	H	0.810635	0.488378	0.961974
H573	H	1.143968	0.821712	1.295308
H574	H	0.174713	0.187204	0.000061
H575	H	0.508047	0.520538	0.333394
H576	H	0.841380	0.853871	0.666728
N577	N	0.570704	-0.414838	0.142482
N578	N	0.904037	-0.081504	0.475815
N579	N	1.237370	0.251829	0.809148
H580	H	0.570937	-0.391214	0.171781
H581	H	0.904270	-0.057881	0.505114
H582	H	1.237604	0.275453	0.838448
H583	H	0.540511	-0.431610	0.144492
H584	H	0.873845	-0.098277	0.477825
H585	H	1.207178	0.235057	0.811158
H586	H	0.477278	0.155050	0.371503
H587	H	0.810611	0.488384	0.704836
H588	H	1.143944	0.821717	1.038169
N589	N	0.569221	-0.566081	-0.142343
N590	N	0.902555	-0.232748	0.190990
N591	N	1.235888	0.100585	0.524324
H592	H	0.599294	-0.561454	-0.162556
H593	H	0.932628	-0.228121	0.170777
H594	H	1.265961	0.105212	0.504110
H595	H	0.568838	-0.601830	-0.135272
H596	H	0.902172	-0.268497	0.198062
H597	H	1.235505	0.064836	0.531395
H598	H	0.571699	-0.316721	0.130258
H599	H	0.905032	0.016612	0.463591
H600	H	1.238365	0.349946	0.796925
H601	H	0.434824	-0.014470	0.000063
H602	H	0.768157	0.318864	0.333396
H603	H	1.101490	0.652197	0.666730
N604	N	0.573108	-0.182957	0.096236
N605	N	0.906441	0.150377	0.429569
N606	N	1.239775	0.483710	0.762903
H607	H	0.573347	-0.159339	0.125540
H608	H	0.906680	0.173995	0.458873
H609	H	1.240014	0.507328	0.792207
H610	H	0.542914	-0.199726	0.098246
H611	H	0.876247	0.133607	0.431579
H612	H	1.209581	0.466940	0.764913
H613	H	0.574112	-0.084823	0.084013
H614	H	0.907446	0.248510	0.417346
H615	H	1.240779	0.581844	0.750680
N616	N	0.639379	-0.006890	0.881407
N617	N	0.972713	0.326443	1.214740
N618	N	1.306046	0.659776	1.548074
H619	H	0.634352	-0.001866	0.919296
H620	H	0.967685	0.331468	1.252630
H621	H	1.301019	0.664801	1.585963
H622	H	0.634056	-0.041145	0.872074
H623	H	0.967390	0.292188	1.205407
H624	H	1.300723	0.625521	1.538741
H625	H	0.510442	0.121953	0.874352
H626	H	0.843776	0.455287	1.207685
H627	H	1.177109	0.788620	1.541018
H628	H	0.570218	-0.467956	-0.130119
H629	H	0.903551	-0.134623	0.203215
H630	H	1.236885	0.198711	0.536548
N631	N	0.639349	-0.006864	0.229747
N632	N	0.972683	0.326469	0.563081
N633	N	1.306016	0.659802	0.896414
H634	H	0.660330	-0.027823	0.204716
H635	H	0.993663	0.305510	0.538050
H636	H	1.326997	0.638844	0.871383
H637	H	0.660576	0.011498	0.251906
H638	H	0.993909	0.344832	0.585239
H639	H	1.327243	0.678165	0.918573
N640	N	0.639366	-0.006892	0.770376
N641	N	0.972700	0.326442	1.103709
N642	N	1.306033	0.659775	1.437042
H643	H	0.660626	0.011430	0.748208
H644	H	0.993959	0.344763	1.081541
H645	H	1.327292	0.678096	1.414874
H646	H	0.660316	-0.027851	0.795430
H647	H	0.993650	0.305483	1.128763
H648	H	1.326983	0.638816	1.462097
N649	N	0.028522	0.197395	0.000071
N650	N	0.361855	0.530728	0.333404
N651	N	0.695188	0.864061	0.666737
H652	H	0.001040	0.225074	0.000070
H653	H	0.334373	0.558408	0.333403
H654	H	0.667706	0.891741	0.666737
H655	H	0.049174	0.199535	0.031526
H656	H	0.382508	0.532868	0.364860
H657	H	0.715841	0.866201	0.698193
N658	N	0.672474	-0.039967	0.364436
N659	N	1.005807	0.293366	0.697769
N660	N	1.339141	0.626700	1.031102
H661	H	0.693453	-0.060932	0.389464
H662	H	1.026786	0.272401	0.722797
H663	H	1.360120	0.605735	1.056130
H664	H	0.654133	-0.061213	0.342277
H665	H	0.987467	0.272120	0.675610
H666	H	1.320800	0.605454	1.008943
H667	H	-0.067984	0.184746	0.000089
H668	H	0.265349	0.518080	0.333422
H669	H	0.598682	0.851413	0.666755
H670	H	0.510405	0.121984	0.125801
H671	H	0.843738	0.455317	0.459134
H672	H	1.177071	0.788651	0.792467
H673	H	0.663726	-0.031232	0.628635
H674	H	0.997059	0.302101	0.961968
H675	H	1.330392	0.635435	1.295302
H676	H	0.477297	0.155048	0.531750
H677	H	0.810630	0.488381	0.865083
H678	H	1.143964	0.821714	1.198416
