data_functionalizedCrystal
_audit_creation_method	'MofGen! by Chris Wilmer'
_symmetry_space_group_name_H-M	'P1'
_symmetry_Int_Tables_number	1
_symmetry_cell_setting	triclinic
loop_
_symmetry_equiv_pos_as_xyz
  x,y,z
_cell_length_a	15.995292
_cell_length_b	19.188924
_cell_length_c	14.472310
_cell_angle_alpha	89.996838
_cell_angle_beta	89.985801
_cell_angle_gamma	83.305290
loop_
_atom_site_label
_atom_site_type_symbol
_atom_site_fract_x
_atom_site_fract_y
_atom_site_fract_z
O1	O	1.110695	0.089798	-0.076870
O2	O	0.866872	0.100954	-0.076867
O3	O	0.995823	-0.006263	-0.076858
O4	O	0.981745	0.197016	-0.076879
O5	O	0.995790	-0.006257	0.076824
O6	O	0.866839	0.100960	0.076815
O7	O	1.110662	0.089805	0.076812
Cu8	Cu	0.988748	0.095383	0.090846
Cu9	Cu	0.988787	0.095376	-0.090901
O10	O	0.981711	0.197022	0.076803
C11	C	0.835662	0.100503	-0.000026
C12	C	0.742714	0.099142	-0.000024
C13	C	0.404994	0.094138	-0.000034
C14	C	0.428021	0.171524	-0.000385
C15	C	0.524691	0.172995	-0.000035
C16	C	0.572541	0.096621	-0.000030
C17	C	0.543563	0.057935	0.087731
C18	C	0.446776	0.057003	0.087801
C19	C	0.446964	0.055416	-0.086964
C20	C	0.543446	0.058284	-0.088120
C21	C	0.667232	0.098020	-0.000024
C22	C	0.310303	0.092736	-0.000033
C23	C	0.995351	-0.032272	-0.000016
C24	C	0.993986	-0.109780	-0.000014
C25	C	0.993366	-0.146184	-0.083786
C26	C	0.992071	-0.219010	-0.083793
C27	C	0.991412	-0.255431	-0.000023
C28	C	0.992027	-0.219018	0.083761
C29	C	0.993314	-0.146192	0.083765
N30	N	1.037028	-0.374983	0.062325
N31	N	1.035808	-0.444164	0.062315
C32	C	0.987534	-0.474849	-0.000032
N33	N	0.940537	-0.433740	-0.062381
N34	N	0.941762	-0.364553	-0.062374
C35	C	0.990017	-0.334397	-0.000018
C36	C	0.985509	-0.590219	-0.083817
C37	C	0.984209	-0.663045	-0.083821
C38	C	0.984173	-0.663053	0.083735
C39	C	0.985465	-0.590227	0.083736
C40	C	0.986137	-0.553814	-0.000043
C41	C	1.141873	0.090255	-0.000032
C42	C	1.234821	0.091617	-0.000039
C43	C	0.982183	0.223031	-0.000041
C44	C	0.983549	0.300539	-0.000050
N45	N	0.988726	0.095388	0.218677
N46	N	0.988815	0.095365	-0.218732
C47	C	0.988786	0.095373	0.592768
C48	C	0.919557	0.152550	0.553597
C49	C	0.919715	0.152759	0.446509
C50	C	0.988755	0.095380	0.407177
C51	C	1.076064	0.111277	0.446011
C52	C	1.075674	0.111683	0.553132
C53	C	0.971486	0.022129	0.553305
C54	C	0.969481	0.022618	0.446178
C55	C	0.988744	0.095383	0.302289
C56	C	0.988803	0.095372	0.697656
H57	H	0.433181	-0.001546	-0.087553
H58	H	0.986051	-0.560570	-0.152035
Br59	Br	0.381200	0.221241	-0.105288
Br60	Br	1.102167	0.199290	0.401272
Br61	Br	0.983359	-0.712451	-0.197522
Br62	Br	1.164006	0.044834	0.596323
Br63	Br	0.938041	0.243360	0.403765
Br64	Br	1.055636	-0.048790	0.595521
Br65	Br	0.399634	0.095732	-0.197832
Br66	Br	0.556243	0.223490	-0.104892
Br67	Br	0.598736	-0.034634	-0.096948
H68	H	0.983630	-0.692705	0.151942
H69	H	0.542968	0.203481	0.062976
H70	H	0.985976	-0.560587	0.151953
H71	H	0.419846	0.083801	0.153400
Br72	Br	0.994275	-0.096770	-0.197485
H73	H	1.090960	0.165099	0.578102
H74	H	0.854809	0.143290	0.420255
H75	H	0.432434	0.000263	0.091792
Br76	Br	1.163964	0.043710	0.403552
Br77	Br	0.597009	-0.035742	0.093176
H78	H	0.909218	0.006840	0.580376
H79	H	0.854439	0.143237	0.579387
Br80	Br	0.862436	0.002507	0.403880
H81	H	1.016650	-0.021923	0.419408
H82	H	0.398879	0.201190	0.062193
H83	H	0.563508	0.084805	0.153039
H84	H	0.561925	0.086451	-0.153045
Br85	Br	0.937673	0.242637	0.598416
H86	H	0.991562	-0.248655	-0.152012
Br87	Br	0.991122	-0.268443	0.197450
H88	H	0.993815	-0.116552	0.151985
