data_functionalizedCrystal
_audit_creation_method	'MofGen! by Chris Wilmer'
_symmetry_space_group_name_H-M	'P1'
_symmetry_Int_Tables_number	1
_symmetry_cell_setting	triclinic
loop_
_symmetry_equiv_pos_as_xyz
  x,y,z
_cell_length_a	10.654556
_cell_length_b	19.188924
_cell_length_c	17.666332
_cell_angle_alpha	89.991448
_cell_angle_beta	89.992319
_cell_angle_gamma	83.814751
loop_
_atom_site_label
_atom_site_type_symbol
_atom_site_fract_x
_atom_site_fract_y
_atom_site_fract_z
O1	O	1.665765	0.098085	-0.062924
O2	O	2.165765	0.598085	0.437076
O3	O	1.300090	0.107423	-0.062932
O4	O	1.800090	0.607423	0.437068
O5	O	1.493485	0.001167	-0.062919
O6	O	1.993485	0.501167	0.437081
O7	O	1.472370	0.204341	-0.062937
O8	O	1.972370	0.704341	0.437063
O9	O	1.493451	0.001161	0.062978
O10	O	1.993451	0.501161	0.562978
O11	O	1.300056	0.107417	0.062965
O12	O	1.800056	0.607417	0.562965
O13	O	1.665731	0.098079	0.062973
O14	O	2.165731	0.598079	0.562973
Cu15	Cu	1.482891	0.102747	0.074464
Cu16	Cu	1.982891	0.602747	0.574464
Cu17	Cu	1.482931	0.102754	-0.074423
Cu18	Cu	1.982931	0.602754	0.425577
O19	O	1.472337	0.204335	0.062960
O20	O	1.972337	0.704335	0.562960
C21	C	1.253290	0.106733	0.000016
C22	C	1.753290	0.606733	0.500016
C23	C	1.113890	0.104679	0.000013
C24	C	1.613890	0.604679	0.500013
C25	C	0.917425	0.101790	-0.068607
C26	C	1.417425	0.601790	0.431393
C27	C	1.048406	0.103716	-0.068612
C28	C	1.548406	0.603716	0.431388
C29	C	1.048388	0.103709	0.068647
C30	C	1.548388	0.603709	0.568647
C31	C	0.917410	0.101779	0.068651
C32	C	1.417410	0.601779	0.568651
C33	C	1.492785	-0.024852	0.000031
C34	C	1.992785	0.475148	0.500031
C35	C	1.490737	-0.102370	0.000033
C36	C	1.990737	0.397630	0.500033
C37	C	1.489800	-0.138772	-0.068594
C38	C	1.989800	0.361228	0.431406
C39	C	1.487857	-0.211607	-0.068600
C40	C	1.987857	0.288393	0.431400
C41	C	1.486878	-0.248040	0.000025
C42	C	1.986878	0.251960	0.500025
C43	C	1.487808	-0.211628	0.068660
C44	C	1.987808	0.288372	0.568660
C45	C	1.489738	-0.138793	0.068664
C46	C	1.989738	0.361207	0.568664
N47	N	1.555297	-0.367257	0.051102
N48	N	2.055297	0.132743	0.551102
N49	N	1.553466	-0.436447	0.051094
N50	N	2.053466	0.063553	0.551094
C51	C	1.481061	-0.467487	0.000017
C52	C	1.981061	0.032513	0.500017
N53	N	1.410571	-0.426724	-0.051062
N54	N	1.910571	0.073276	0.448938
N55	N	1.412408	-0.357527	-0.051056
N56	N	1.912408	0.142473	0.448944
C57	C	1.484785	-0.327017	0.000028
C58	C	1.984785	0.172983	0.500028
C59	C	1.478016	-0.582865	-0.068620
C60	C	1.978016	-0.082865	0.431380
C61	C	1.476066	-0.655701	-0.068623
C62	C	1.976066	-0.155701	0.431377
C63	C	1.476029	-0.655722	0.068639
C64	C	1.976029	-0.155722	0.568639
C65	C	1.477967	-0.582886	0.068640
C66	C	1.977967	-0.082886	0.568640
C67	C	1.478966	-0.546463	0.000008
C68	C	1.978966	-0.046463	0.500008
C69	C	1.712532	0.098768	0.000024
C70	C	2.212532	0.598768	0.500024
C71	C	1.851931	0.100823	0.000022
C72	C	2.351931	0.600823	0.500022
C73	C	1.473036	0.230353	0.000009
C74	C	1.973036	0.730353	0.500009
C75	C	1.475084	0.307871	0.000002
C76	C	1.975084	0.807871	0.500002
N77	N	1.482872	0.102742	0.179184
N78	N	1.982872	0.602742	0.679184
N79	N	1.482960	0.102754	-0.179142
N80	N	1.982960	0.602754	0.320858
C81	C	1.568535	0.055715	0.218799
C82	C	2.068535	0.555715	0.718799
C83	C	1.568542	0.055712	0.298047
C84	C	2.068542	0.555712	0.798047
C85	C	1.482898	0.102748	0.337676
C86	C	1.982898	0.602748	0.837676
C87	C	1.397219	0.149778	0.298051
C88	C	1.897219	0.649778	0.798051
C89	C	1.397206	0.149775	0.218805
C90	C	1.897206	0.649775	0.718805
N91	N	1.466571	0.164448	0.462089
N92	N	1.966571	0.664448	0.962089
N93	N	1.466591	0.164448	0.537369
N94	N	1.966591	0.664448	1.037369
C95	C	1.482931	0.102757	0.576440
C96	C	1.982931	0.602757	1.076440
N97	N	1.499275	0.041064	0.537386
N98	N	1.999275	0.541064	1.037386
N99	N	1.499262	0.041064	0.462099
N100	N	1.999262	0.541064	0.962099
C101	C	1.482903	0.102755	0.423605
C102	C	1.982903	0.602755	0.923605
C103	C	1.568607	0.055723	0.701985
C104	C	2.068607	0.555723	1.201985
C105	C	1.568605	0.055719	0.781234
C106	C	2.068605	0.555719	1.281234
C107	C	1.397289	0.149791	0.781236
C108	C	1.897289	0.649791	1.281236
C109	C	1.397284	0.149789	0.701989
C110	C	1.897284	0.649789	1.201989
C111	C	1.482950	0.102756	0.662368
C112	C	1.982950	0.602756	1.162368
H113	H	0.864084	0.100990	0.124541
H114	H	1.364084	0.600990	0.624541
H115	H	0.864116	0.101011	-0.124490
H116	H	1.364116	0.601011	0.375510
H117	H	1.478822	-0.553207	-0.124504
H118	H	1.978822	-0.053207	0.375496
N119	N	1.490873	-0.099486	-0.142615
N120	N	1.990873	0.400514	0.357385
H121	H	1.489982	-0.133603	-0.186091
H122	H	1.989982	0.366397	0.313909
H123	H	1.413842	-0.063983	-0.145607
H124	H	1.913842	0.436017	0.354393
N125	N	1.486763	-0.250922	0.142676
N126	N	1.986763	0.249078	0.642676
H127	H	1.564918	-0.243530	0.172680
H128	H	2.064918	0.256470	0.672680
H129	H	1.409210	-0.232952	0.172619
H130	H	1.909210	0.267048	0.672619
N131	N	1.475065	-0.694966	-0.142647
N132	N	1.975065	-0.194966	0.357353
H133	H	1.473685	-0.746633	-0.132237
H134	H	1.973685	-0.246633	0.367763
H135	H	1.397587	-0.676944	-0.172624
H136	H	1.897587	-0.176944	0.327376
H137	H	1.327535	0.188085	0.669732
H138	H	1.827535	0.688085	1.169732
H139	H	1.101726	0.104503	-0.124497
H140	H	1.601726	0.604503	0.375503
H141	H	1.490496	-0.109155	0.124550
H142	H	1.990496	0.390845	0.624550
H143	H	1.475222	-0.685384	0.124515
H144	H	1.975222	-0.185384	0.624515
N145	N	1.304820	0.200507	0.176074
N146	N	1.804820	0.700507	0.676074
H147	H	1.317812	0.193370	0.119859
H148	H	1.817812	0.693370	0.619859
H149	H	1.215785	0.191980	0.189936
H150	H	1.715785	0.691980	0.689936
H151	H	1.478741	-0.553248	0.124523
H152	H	1.978741	-0.053248	0.624523
H153	H	1.638285	0.017417	0.186542
H154	H	2.138285	0.517417	0.686542
N155	N	1.119011	0.104746	0.142666
N156	N	1.619011	0.604746	0.642666
H157	H	1.211923	0.106119	0.132251
H158	H	1.711923	0.606119	0.632251
H159	H	1.085687	0.147613	0.172629
H160	H	1.585687	0.647613	0.672629
N161	N	1.486837	-0.250881	-0.142621
N162	N	1.986837	0.249119	0.357379
H163	H	1.487759	-0.216754	-0.186097
H164	H	1.987759	0.283246	0.313903
H165	H	1.563868	-0.286384	-0.145605
H166	H	2.063868	0.213616	0.354395
N167	N	1.660935	0.004987	0.340789
N168	N	2.160935	0.504987	0.840789
H169	H	1.715199	-0.024809	0.303664
H170	H	2.215199	0.475191	0.803664
H171	H	1.716296	0.032011	0.373654
H172	H	2.216296	0.532011	0.873654
N173	N	1.304839	0.200506	0.340788
N174	N	1.804839	0.700506	0.840788
H175	H	1.317847	0.193373	0.397002
H176	H	1.817847	0.693373	0.897002
H177	H	1.319057	0.250112	0.326922
H178	H	1.819057	0.750112	0.826922
H179	H	1.638357	0.017424	0.669724
H180	H	2.138357	0.517424	1.169724
H181	H	1.638359	0.017420	0.813490
H182	H	2.138359	0.517420	1.313490
H183	H	1.327552	0.188085	0.813502
H184	H	1.827552	0.688085	1.313502
