data_functionalizedCrystal
_audit_creation_method	'MofGen! by Chris Wilmer'
_symmetry_space_group_name_H-M	'P1'
_symmetry_Int_Tables_number	1
_symmetry_cell_setting	triclinic
loop_
_symmetry_equiv_pos_as_xyz
  x,y,z
_cell_length_a	25.639242
_cell_length_b	25.639233
_cell_length_c	25.639239
_cell_angle_alpha	89.981253
_cell_angle_beta	90.034213
_cell_angle_gamma	89.977834
loop_
_atom_site_label
_atom_site_type_symbol
_atom_site_fract_x
_atom_site_fract_y
_atom_site_fract_z
Zn1	Zn	0.799225	-0.295742	-0.208277
Zn2	Zn	1.132558	0.037591	0.125057
Zn3	Zn	1.465892	0.370924	0.458390
Zn4	Zn	0.799149	-0.208307	-0.295696
Zn5	Zn	1.132482	0.125027	0.037638
Zn6	Zn	1.465815	0.458360	0.370971
Zn7	Zn	0.711801	-0.208306	-0.208269
Zn8	Zn	1.045135	0.125027	0.125064
Zn9	Zn	1.378468	0.458360	0.458398
Zn10	Zn	0.711746	-0.295696	-0.295676
Zn11	Zn	1.045080	0.037637	0.037657
Zn12	Zn	1.378413	0.370970	0.370990
O13	O	0.755480	-0.252013	-0.251979
O14	O	1.088814	0.081320	0.081354
O15	O	1.422147	0.414654	0.414687
O16	O	0.872380	-0.284163	-0.219884
O17	O	1.205713	0.049170	0.113449
O18	O	1.539047	0.382504	0.446782
O19	O	0.787553	-0.135141	-0.284103
O20	O	1.120886	0.198192	0.049230
O21	O	1.454219	0.531525	0.382563
O22	O	0.723453	-0.219924	-0.135105
O23	O	1.056787	0.113409	0.198228
O24	O	1.390120	0.446743	0.531562
O25	O	0.872324	-0.219924	-0.284111
O26	O	1.205657	0.113409	0.049223
O27	O	1.538991	0.446742	0.382556
O28	O	0.787683	-0.284163	-0.135111
O29	O	1.121016	0.049171	0.198223
O30	O	1.454350	0.382504	0.531556
O31	O	0.723379	-0.135141	-0.219871
O32	O	1.056712	0.198192	0.113462
O33	O	1.390046	0.531526	0.446795
O34	O	0.638629	-0.219880	-0.219853
O35	O	0.971962	0.113454	0.113481
O36	O	1.305296	0.446787	0.446814
O37	O	0.723360	-0.368868	-0.284078
O38	O	1.056693	-0.035534	0.049256
O39	O	1.390026	0.297799	0.382589
O40	O	0.638589	-0.284085	-0.284070
O41	O	0.971922	0.049249	0.049263
O42	O	1.305255	0.382582	0.382597
O43	O	0.787630	-0.368901	-0.219866
O44	O	1.120963	-0.035568	0.113468
O45	O	1.454297	0.297765	0.446801
O46	O	0.787499	-0.219880	-0.368858
O47	O	1.120833	0.113453	-0.035525
O48	O	1.454166	0.446787	0.297808
O49	O	0.723286	-0.284085	-0.368844
O50	O	1.056619	0.049248	-0.035511
O51	O	1.389952	0.382582	0.297823
C52	C	0.619638	-0.251977	-0.251959
C53	C	0.952971	0.081356	0.081375
C54	C	1.286304	0.414689	0.414708
C55	C	0.561524	-0.251975	-0.251963
C56	C	0.894857	0.081359	0.081371
C57	C	1.228190	0.414692	0.414704
C58	C	0.755497	-0.388386	-0.251970
C59	C	1.088831	-0.055053	0.081363
C60	C	1.422164	0.278281	0.414696
C61	C	0.755504	-0.446500	-0.251966
C62	C	1.088838	-0.113167	0.081367
C63	C	1.422171	0.220167	0.414700
C64	C	0.201149	-0.285413	-0.285473
C65	C	0.534482	0.047920	0.047860
C66	C	0.867815	0.381254	0.381193
C67	C	0.146544	-0.285421	-0.285477
C68	C	0.479878	0.047912	0.047857
C69	C	0.813211	0.381246	0.381190
O70	O	0.118297	-0.313821	-0.313943
O71	O	0.451631	0.019512	0.019390
O72	O	0.784964	0.352845	0.352724
N73	N	0.119241	-0.252047	-0.251994
N74	N	0.452575	0.081286	0.081340
N75	N	0.785908	0.414620	0.414673
C76	C	0.146545	-0.218666	-0.218502
C77	C	0.479879	0.114667	0.114831
C78	C	0.813212	0.448000	0.448165
O79	O	0.118308	-0.190280	-0.190022
O80	O	0.451641	0.143053	0.143311
O81	O	0.784975	0.476387	0.476644
C82	C	0.201149	-0.218661	-0.218496
C83	C	0.534482	0.114672	0.114837
C84	C	0.867815	0.448006	0.448170
C85	C	0.228449	-0.252034	-0.251985
C86	C	0.561782	0.081300	0.081348
C87	C	0.895116	0.414633	0.414681
C88	C	0.228449	-0.318783	-0.318959
C89	C	0.561782	0.014550	0.014374
C90	C	0.895115	0.347884	0.347708
C91	C	0.283049	-0.318774	-0.318956
C92	C	0.616383	0.014559	0.014377
C93	C	0.949716	0.347893	0.347710
C94	C	0.310350	-0.285395	-0.285468
C95	C	0.643683	0.047939	0.047865
C96	C	0.977016	0.381272	0.381199
C97	C	0.283049	-0.252024	-0.251983
C98	C	0.616383	0.081309	0.081351
C99	C	0.949716	0.414642	0.414684
C100	C	0.228452	-0.185283	-0.185002
C101	C	0.561785	0.148050	0.148331
C102	C	0.895119	0.481383	0.481664
C103	C	0.283059	-0.185281	-0.185000
C104	C	0.616392	0.148052	0.148334
C105	C	0.949726	0.481385	0.481667
C106	C	0.310359	-0.218654	-0.218488
C107	C	0.643692	0.114680	0.114845
C108	C	0.977026	0.448013	0.448178
C109	C	0.364950	-0.218636	-0.218492
C110	C	0.698284	0.114697	0.114842
C111	C	1.031617	0.448031	0.448175
N112	N	0.392253	-0.252010	-0.251974
N113	N	0.725587	0.081323	0.081359
N114	N	1.058920	0.414656	0.414692
C115	C	0.364953	-0.285389	-0.285463
C116	C	0.698286	0.047944	0.047871
C117	C	1.031620	0.381277	0.381204
C118	C	0.031875	-0.218680	-0.218515
C119	C	0.365208	0.114653	0.114818
C120	C	0.698541	0.447986	0.448151
C121	C	-0.022728	-0.218683	-0.218523
C122	C	0.310606	0.114651	0.114810
C123	C	0.643939	0.447984	0.448144
C124	C	-0.022725	-0.285438	-0.285497
C125	C	0.310608	0.047895	0.047836
C126	C	0.643942	0.381228	0.381170
C127	C	0.031878	-0.285433	-0.285492
C128	C	0.365212	0.047900	0.047842
C129	C	0.698545	0.381234	0.381175
C130	C	0.059178	-0.252054	-0.251998
C131	C	0.392511	0.081279	0.081335
C132	C	0.725844	0.414612	0.414669
C133	C	0.479618	-0.285368	-0.285455
C134	C	0.812951	0.047966	0.047878
C135	C	1.146285	0.381299	0.381212
C136	C	0.534223	-0.285354	-0.285451
C137	C	0.867557	0.047979	0.047883
C138	C	1.200890	0.381313	0.381216
C139	C	0.534216	-0.218601	-0.218475
C140	C	0.867549	0.114733	0.114858
C141	C	1.200883	0.448066	0.448192
C142	C	0.479615	-0.218612	-0.218481
C143	C	0.812949	0.114721	0.114853
C144	C	1.146282	0.448055	0.448186
C145	C	0.452318	-0.252000	-0.251972
C146	C	0.785651	0.081334	0.081361
C147	C	1.118984	0.414667	0.414694
O148	O	0.393232	-0.190252	-0.190038
O149	O	0.726565	0.143082	0.143295
O150	O	1.059899	0.476415	0.476628
O151	O	0.393197	-0.313776	-0.313933
O152	O	0.726530	0.019558	0.019401
O153	O	1.059864	0.352891	0.352734
C154	C	0.789012	-0.806886	-0.218432
C155	C	1.122346	-0.473553	0.114902
C156	C	1.455679	-0.140220	0.448235
C157	C	0.789019	-0.861491	-0.218417
C158	C	1.122352	-0.528157	0.114916
C159	C	1.455685	-0.194824	0.448249
O160	O	0.817466	-0.889747	-0.189967
O161	O	1.150799	-0.556414	0.143367
O162	O	1.484133	-0.223080	0.476700
N163	N	0.755562	-0.888783	-0.251844
N164	N	1.088895	-0.555449	0.081490
N165	N	1.422229	-0.222116	0.414823
C166	C	0.722093	-0.861468	-0.285283
C167	C	1.055426	-0.528134	0.048050
C168	C	1.388760	-0.194801	0.381384
O169	O	0.693636	-0.889695	-0.313713
O170	O	1.026969	-0.556362	0.019620
O171	O	1.360302	-0.223029	0.352954
C172	C	0.722084	-0.806864	-0.285294
C173	C	1.055418	-0.473531	0.048039
C174	C	1.388751	-0.140198	0.381372
C175	C	0.755547	-0.779575	-0.251870
C176	C	1.088880	-0.446242	0.081464
C177	C	1.422214	-0.112908	0.414797
C178	C	0.822472	-0.779597	-0.185009
C179	C	1.155805	-0.446264	0.148324
C180	C	1.489138	-0.112930	0.481657
C181	C	0.822466	-0.724997	-0.185025
C182	C	1.155799	-0.391663	0.148309
C183	C	1.489133	-0.058330	0.481642
C184	C	0.789000	-0.697685	-0.218462
C185	C	1.122334	-0.364352	0.114871
C186	C	1.455667	-0.031019	0.448204
C187	C	0.755541	-0.724974	-0.251885
C188	C	1.088874	-0.391641	0.081448
C189	C	1.422208	-0.058308	0.414782
C190	C	0.688613	-0.779550	-0.318731
C191	C	1.021946	-0.446217	0.014603
C192	C	1.355280	-0.112883	0.347936
C193	C	0.688607	-0.724943	-0.318739
C194	C	1.021940	-0.391610	0.014594
C195	C	1.355273	-0.058276	0.347928
C196	C	0.722069	-0.697654	-0.285314
C197	C	1.055403	-0.364320	0.048019
C198	C	1.388736	-0.030987	0.381352
C199	C	0.722070	-0.643063	-0.285338
C200	C	1.055403	-0.309729	0.047995
C201	C	1.388736	0.023604	0.381329
N202	N	0.755526	-0.615771	-0.251912
N203	N	1.088860	-0.282437	0.081422
N204	N	1.422193	0.050896	0.414755
C205	C	0.788992	-0.643082	-0.218474
C206	C	1.122325	-0.309749	0.114860
C207	C	1.455658	0.023585	0.448193
C208	C	0.722113	-0.976138	-0.285256
C209	C	1.055446	-0.642805	0.048077
C210	C	1.388780	-0.309472	0.381411
C211	C	0.722124	-1.030741	-0.285247
C212	C	1.055457	-0.697407	0.048086
C213	C	1.388791	-0.364074	0.381419
C214	C	0.789049	-1.030760	-0.218381
C215	C	1.122383	-0.697427	0.114952
C216	C	1.455716	-0.364093	0.448286
C217	C	0.789041	-0.976157	-0.218392
C218	C	1.122374	-0.642823	0.114941
C219	C	1.455707	-0.309490	0.448274
C220	C	0.755570	-0.948846	-0.251829
C221	C	1.088903	-0.615513	0.081504
C222	C	1.422237	-0.282180	0.414837
C223	C	0.788977	-0.528417	-0.218509
C224	C	1.122311	-0.195083	0.114825
C225	C	1.455644	0.138250	0.448158
C226	C	0.788970	-0.473811	-0.218529
C227	C	1.122303	-0.140478	0.114805
C228	C	1.455636	0.192855	0.448138
C229	C	0.722043	-0.473797	-0.285393
C230	C	1.055376	-0.140463	0.047940
C231	C	1.388710	0.192870	0.381274
C232	C	0.722052	-0.528397	-0.285375
C233	C	1.055385	-0.195064	0.047958
C234	C	1.388719	0.138269	0.381291
C235	C	0.755521	-0.555706	-0.251929
C236	C	1.088854	-0.222373	0.081404
C237	C	1.422187	0.110961	0.414738
O238	O	0.693635	-0.614771	-0.313773
O239	O	1.026969	-0.281438	0.019561
O240	O	1.360302	0.051895	0.352894
O241	O	0.817439	-0.614847	-0.190044
O242	O	1.150773	-0.281514	0.143290
O243	O	1.484106	0.051819	0.476623
C244	C	0.891853	-0.252049	-0.252000
C245	C	1.225187	0.081285	0.081333
C246	C	1.558520	0.414618	0.414666
C247	C	0.949967	-0.252064	-0.252009
C248	C	1.283301	0.081269	0.081324
C249	C	1.616634	0.414603	0.414657
C250	C	0.755392	-0.251989	-0.387822
C251	C	1.088726	0.081344	-0.054489
C252	C	1.422059	0.414678	0.278845
C253	C	0.755403	-0.251996	-0.445936
C254	C	1.088736	0.081337	-0.112603
C255	C	1.422069	0.414670	0.220731
C256	C	0.755494	-0.116170	-0.251951
C257	C	1.088827	0.217163	0.081383
C258	C	1.422160	0.550496	0.414716
C259	C	0.755588	-0.058057	-0.251807
C260	C	1.088921	0.275277	0.081526
C261	C	1.422254	0.608610	0.414859
C262	C	0.789004	-0.218638	-0.806294
C263	C	1.122337	0.114695	-0.472961
C264	C	1.455670	0.448028	-0.139627
C265	C	0.789024	-0.218645	-0.860898
C266	C	1.122357	0.114688	-0.527565
C267	C	1.455691	0.448021	-0.194232
O268	O	0.817502	-0.190257	-0.889131
O269	O	1.150835	0.143076	-0.555797
O270	O	1.484168	0.476410	-0.222464
N271	N	0.755572	-0.252048	-0.888218
N272	N	1.088906	0.081286	-0.554885
N273	N	1.422239	0.414619	-0.221552
C274	C	0.722102	-0.285449	-0.860932
C275	C	1.055435	0.047885	-0.527598
C276	C	1.388768	0.381218	-0.194265
O277	O	0.693651	-0.313861	-0.889184
O278	O	1.026984	0.019472	-0.555850
O279	O	1.360317	0.352806	-0.222517
C280	C	0.722085	-0.285444	-0.806328
C281	C	1.055418	0.047889	-0.472995
C282	C	1.388751	0.381223	-0.139662
C283	C	0.755535	-0.252036	-0.779011
C284	C	1.088868	0.081298	-0.445678
C285	C	1.422201	0.414631	-0.112344
C286	C	0.822452	-0.185233	-0.778976
C287	C	1.155785	0.148100	-0.445643
C288	C	1.489118	0.481433	-0.112310
C289	C	0.822431	-0.185226	-0.724376
C290	C	1.155764	0.148108	-0.391043
C291	C	1.489097	0.481441	-0.057709
C292	C	0.788962	-0.218623	-0.697093
C293	C	1.122295	0.114710	-0.363760
C294	C	1.455628	0.448043	-0.030426
C295	C	0.755514	-0.252028	-0.724410
C296	C	1.088847	0.081305	-0.391077
C297	C	1.422180	0.414638	-0.057744
C298	C	0.688617	-0.318847	-0.779042
C299	C	1.021950	0.014486	-0.445709
C300	C	1.355284	0.347819	-0.112376
C301	C	0.688603	-0.318840	-0.724435
C302	C	1.021936	0.014493	-0.391102
C303	C	1.355270	0.347827	-0.057769
C304	C	0.722053	-0.285432	-0.697118
C305	C	1.055387	0.047901	-0.363785
C306	C	1.388720	0.381235	-0.030451
C307	C	0.722024	-0.285418	-0.642527
C308	C	1.055357	0.047915	-0.309193
C309	C	1.388690	0.381249	0.024140
N310	N	0.755475	-0.252016	-0.615206
N311	N	1.088809	0.081317	-0.281873
N312	N	1.422142	0.414651	0.051460
C313	C	0.788944	-0.218618	-0.642490
C314	C	1.122278	0.114715	-0.309156
C315	C	1.455611	0.448048	0.024177
C316	C	0.722141	-0.285457	-0.975602
C317	C	1.055474	0.047877	-0.642269
C318	C	1.388808	0.381210	-0.308936
C319	C	0.722155	-0.285459	-1.030204
C320	C	1.055489	0.047874	-0.696871
C321	C	1.388822	0.381207	-0.363538
C322	C	0.789078	-0.218656	-1.030167
C323	C	1.122412	0.114677	-0.696834
C324	C	1.455745	0.448010	-0.363501
C325	C	0.789061	-0.218652	-0.975564
C326	C	1.122395	0.114682	-0.642231
C327	C	1.455728	0.448015	-0.308897
C328	C	0.755593	-0.252055	-0.948282
C329	C	1.088926	0.081279	-0.614949
C330	C	1.422260	0.414612	-0.281615
C331	C	0.788897	-0.218605	-0.527824
C332	C	1.122231	0.114728	-0.194491
C333	C	1.455564	0.448062	0.138842
C334	C	0.788872	-0.218599	-0.473219
C335	C	1.122205	0.114735	-0.139886
C336	C	1.455538	0.448068	0.193448
C337	C	0.721951	-0.285403	-0.473261
C338	C	1.055284	0.047930	-0.139928
C339	C	1.388617	0.381263	0.193406
C340	C	0.721974	-0.285408	-0.527862
C341	C	1.055307	0.047926	-0.194528
C342	C	1.388641	0.381259	0.138805
C343	C	0.755452	-0.252007	-0.555142
C344	C	1.088785	0.081327	-0.221809
C345	C	1.422118	0.414660	0.111525
O346	O	0.693562	-0.313793	-0.614260
O347	O	1.026895	0.019540	-0.280926
O348	O	1.360229	0.352873	0.052407
O349	O	0.817396	-0.190216	-0.614231
O350	O	1.150729	0.143117	-0.280898
O351	O	1.484062	0.476451	0.052436
C352	C	0.755583	-0.252048	-0.115606
C353	C	1.088916	0.081285	0.217727
C354	C	1.422250	0.414618	0.551060
C355	C	0.755627	-0.252064	-0.057492
C356	C	1.088960	0.081270	0.275841
C357	C	1.422293	0.414603	0.609174
H358	H	0.556449	-0.312530	-0.312723
H359	H	0.889782	0.020803	0.020610
H360	H	1.223115	0.354136	0.353943
H361	H	0.816333	-0.191464	-1.052391
H362	H	1.149666	0.141869	-0.719058
H363	H	1.482999	0.475203	-0.385724
H364	H	0.206227	-0.345967	-0.346229
H365	H	0.539560	-0.012634	-0.012896
H366	H	0.872893	0.320699	0.320437
H367	H	-0.044951	-0.191502	-0.191258
H368	H	0.288383	0.141831	0.142075
H369	H	0.621716	0.475165	0.475408
H370	H	0.849714	-0.702783	-0.157806
H371	H	1.183047	-0.369449	0.175528
H372	H	1.516380	-0.036116	0.508861
C373	C	0.656005	-0.351490	-1.024743
C374	C	0.989338	-0.018157	-0.691410
C375	C	1.322672	0.315177	-0.358076
C376	C	0.685383	-0.322180	-1.060228
C377	C	1.018716	0.011154	-0.726895
C378	C	1.352049	0.344487	-0.393561
H379	H	0.633307	-0.374164	-1.043278
H380	H	0.966640	-0.040830	-0.709945
H381	H	1.299973	0.292503	-0.376611
H382	H	0.636015	-0.328684	-1.003478
H383	H	0.969349	0.004649	-0.670144
H384	H	1.302682	0.337983	-0.336811
H385	H	0.678771	-0.371507	-1.003413
H386	H	1.012104	-0.038174	-0.670079
H387	H	1.345437	0.295159	-0.336746
H388	H	0.662617	-0.302159	-1.081556
H389	H	0.995950	0.031174	-0.748222
H390	H	1.329284	0.364507	-0.414889
H391	H	0.705374	-0.344989	-1.081502
H392	H	1.038707	-0.011655	-0.748169
H393	H	1.372040	0.321678	-0.414835
C394	C	0.651720	-0.589779	-0.292608
C395	C	0.985054	-0.256445	0.040725
C396	C	1.318387	0.076888	0.374058
C397	C	0.685270	-0.558396	-0.322117
C398	C	1.018603	-0.225063	0.011217
C399	C	1.351937	0.108271	0.344550
H400	H	0.629012	-0.608297	-0.315289
H401	H	0.962345	-0.274964	0.018044
H402	H	1.295678	0.058370	0.351377
H403	H	0.631743	-0.568469	-0.269835
H404	H	0.965076	-0.235135	0.063498
H405	H	1.298409	0.098198	0.396831
H406	H	0.671656	-0.613861	-0.272695
H407	H	1.004989	-0.280527	0.060639
H408	H	1.338322	0.052806	0.393972
H409	H	0.665335	-0.534312	-0.342028
H410	H	0.998668	-0.200978	-0.008694
H411	H	1.332002	0.132355	0.324639
H412	H	0.705250	-0.579708	-0.344899
H413	H	1.038583	-0.246375	-0.011565
H414	H	1.371916	0.086959	0.321768
C415	C	0.026379	-0.152687	-0.152322
C416	C	0.359712	0.180646	0.181011
C417	C	0.693046	0.513979	0.514344
C418	C	0.061880	-0.181979	-0.181704
C419	C	0.395213	0.151355	0.151629
C420	C	0.728546	0.484688	0.484963
H421	H	0.044902	-0.130028	-0.129600
H422	H	0.378235	0.203306	0.203734
H423	H	0.711568	0.536639	0.537067
H424	H	0.005106	-0.175507	-0.132358
H425	H	0.338440	0.157827	0.200975
H426	H	0.671773	0.491160	0.534308
H427	H	0.005058	-0.132656	-0.175084
H428	H	0.338391	0.200677	0.158249
H429	H	0.671724	0.534011	0.491583
H430	H	0.083198	-0.202013	-0.158942
H431	H	0.416532	0.131320	0.174391
H432	H	0.749865	0.464653	0.507724
H433	H	0.083161	-0.159157	-0.201669
H434	H	0.416495	0.174177	0.131664
H435	H	0.749828	0.507510	0.464997
C436	C	0.859276	-0.211424	-0.589142
C437	C	1.192610	0.121909	-0.255809
C438	C	1.525943	0.455243	0.077525
C439	C	0.825704	-0.181894	-0.557800
C440	C	1.159037	0.151440	-0.224466
C441	C	1.492371	0.484773	0.108867
H442	H	0.882002	-0.188759	-0.607643
H443	H	1.215335	0.144574	-0.274309
H444	H	1.548668	0.477908	0.059024
H445	H	0.839362	-0.231307	-0.613234
H446	H	1.172696	0.102027	-0.279901
H447	H	1.506029	0.435360	0.053432
H448	H	0.879240	-0.234227	-0.567802
H449	H	1.212573	0.099106	-0.234469
H450	H	1.545906	0.432439	0.098864
H451	H	0.805738	-0.159093	-0.579140
H452	H	1.139071	0.174241	-0.245806
H453	H	1.472404	0.507574	0.087527
H454	H	0.845620	-0.162002	-0.533705
H455	H	1.178953	0.171331	-0.200371
H456	H	1.512287	0.504665	0.132962
C457	C	0.696522	-0.456953	-0.373929
C458	C	1.029855	-0.123620	-0.040596
C459	C	1.363188	0.209713	0.292738
C460	C	0.685269	-0.443762	-0.322152
C461	C	1.018602	-0.110429	0.011182
C462	C	1.351936	0.222905	0.344515
H463	H	0.673822	-0.438406	-0.396621
H464	H	1.007155	-0.105072	-0.063288
H465	H	1.340488	0.228261	0.270045
H466	H	0.691725	-0.493372	-0.378707
H467	H	1.025058	-0.160039	-0.045374
H468	H	1.358392	0.173295	0.287959
H469	H	0.731649	-0.448020	-0.381576
H470	H	1.064983	-0.114687	-0.048242
H471	H	1.398316	0.218647	0.285091
H472	H	0.650142	-0.452699	-0.314504
H473	H	0.983476	-0.119366	0.018829
H474	H	1.316809	0.213967	0.352163
H475	H	0.690061	-0.407335	-0.317371
H476	H	1.023395	-0.074002	0.015962
H477	H	1.356728	0.259331	0.349295
H478	H	0.816288	-0.953941	-0.191174
H479	H	1.149621	-0.620608	0.142159
H480	H	1.482955	-0.287275	0.475493
H481	H	0.457399	-0.312556	-0.312726
H482	H	0.790732	0.020777	0.020608
H483	H	1.124065	0.354110	0.353941
C484	C	0.829834	-0.114948	-0.840441
C485	C	1.163168	0.218385	-0.507108
C486	C	1.496501	0.551719	-0.173775
C487	C	0.859263	-0.148555	-0.808982
C488	C	1.192597	0.184779	-0.475649
C489	C	1.525930	0.518112	-0.142315
H490	H	0.852567	-0.092314	-0.858970
H491	H	1.185900	0.241019	-0.525637
H492	H	1.519234	0.574353	-0.192304
H493	H	0.807081	-0.094893	-0.819182
H494	H	1.140415	0.238440	-0.485848
H495	H	1.473748	0.571774	-0.152515
H496	H	0.809903	-0.134847	-0.864513
H497	H	1.143236	0.198487	-0.531180
H498	H	1.476569	0.531820	-0.197847
H499	H	0.879192	-0.128656	-0.784907
H500	H	1.212525	0.204677	-0.451574
H501	H	1.545859	0.538011	-0.118241
H502	H	0.882026	-0.168611	-0.830243
H503	H	1.215359	0.164722	-0.496910
H504	H	1.548692	0.498055	-0.163577
C505	C	0.658928	-0.348538	-0.862752
C506	C	0.992261	-0.015205	-0.529418
C507	C	1.325595	0.318129	-0.196085
C508	C	0.651852	-0.355576	-0.809061
C509	C	0.985185	-0.022243	-0.475727
C510	C	1.318519	0.311091	-0.142394
H511	H	0.636228	-0.371214	-0.881282
H512	H	0.969561	-0.037881	-0.547949
H513	H	1.302895	0.295453	-0.214615
H514	H	0.694052	-0.356224	-0.871662
H515	H	1.027385	-0.022891	-0.538329
H516	H	1.360719	0.310442	-0.204996
H517	H	0.651294	-0.313403	-0.871724
H518	H	0.984628	0.019930	-0.538391
H519	H	1.317961	0.353263	-0.205058
H520	H	0.659490	-0.390710	-0.800087
H521	H	0.992823	-0.057377	-0.466754
H522	H	1.326156	0.275957	-0.133421
H523	H	0.616720	-0.347894	-0.800147
H524	H	0.950053	-0.014560	-0.466813
H525	H	1.283387	0.318773	-0.133480
H526	H	0.457387	-0.191436	-0.191213
H527	H	0.790720	0.141897	0.142121
H528	H	1.124053	0.475230	0.475454
C529	C	0.655971	-0.981612	-0.351360
C530	C	0.989304	-0.648279	-0.018027
C531	C	1.322638	-0.314946	0.315307
C532	C	0.685328	-0.946121	-0.322023
C533	C	1.018662	-0.612788	0.011310
C534	C	1.351995	-0.279454	0.344643
H535	H	0.633265	-0.963082	-0.374061
H536	H	0.966598	-0.629749	-0.040727
H537	H	1.299932	-0.296415	0.292606
H538	H	0.635990	-1.002903	-0.328572
H539	H	0.969324	-0.669570	0.004761
H540	H	1.302657	-0.336237	0.338095
H541	H	0.678749	-1.002916	-0.371350
H542	H	1.012082	-0.669583	-0.038016
H543	H	1.345416	-0.336249	0.295317
H544	H	0.662550	-0.924820	-0.302030
H545	H	0.995884	-0.591486	0.031303
H546	H	1.329217	-0.258153	0.364636
H547	H	0.705310	-0.924821	-0.344814
H548	H	1.038644	-0.591488	-0.011481
H549	H	1.371977	-0.258154	0.321853
C550	C	0.622460	-0.384880	-0.729961
C551	C	0.955793	-0.051547	-0.396628
C552	C	1.289127	0.281787	-0.063294
C553	C	0.651813	-0.355559	-0.694448
C554	C	0.985146	-0.022226	-0.361114
C555	C	1.318479	0.311108	-0.027781
H556	H	0.599746	-0.407545	-0.711448
H557	H	0.933079	-0.074212	-0.378114
H558	H	1.266413	0.259121	-0.044781
H559	H	0.645237	-0.404901	-0.751226
H560	H	0.978570	-0.071568	-0.417893
H561	H	1.311904	0.261765	-0.084560
H562	H	0.602484	-0.362076	-0.751288
H563	H	0.935817	-0.028743	-0.417955
H564	H	1.269150	0.304591	-0.084621
H565	H	0.671792	-0.378363	-0.673123
H566	H	1.005126	-0.045029	-0.339790
H567	H	1.338459	0.288304	-0.006456
H568	H	0.629033	-0.335536	-0.673173
H569	H	0.962366	-0.002202	-0.339840
H570	H	1.295700	0.331131	-0.006507
C571	C	0.277550	-0.384763	-0.385150
C572	C	0.610884	-0.051429	-0.051817
C573	C	0.944217	0.281904	0.281516
C574	C	0.313053	-0.355464	-0.355763
C575	C	0.646386	-0.022131	-0.022430
C576	C	0.979720	0.311202	0.310904
H577	H	0.296072	-0.407418	-0.407871
H578	H	0.629405	-0.074084	-0.074537
H579	H	0.962738	0.259249	0.258796
H580	H	0.256234	-0.361948	-0.405117
H581	H	0.589568	-0.028614	-0.071784
H582	H	0.922901	0.304719	0.261550
H583	H	0.256273	-0.404799	-0.362392
H584	H	0.589606	-0.071466	-0.029059
H585	H	0.922939	0.261868	0.304274
H586	H	0.334328	-0.335425	-0.378521
H587	H	0.667661	-0.002091	-0.045188
H588	H	1.000995	0.331242	0.288146
H589	H	0.334378	-0.378282	-0.335795
H590	H	0.667711	-0.044949	-0.002461
H591	H	1.001045	0.288385	0.330872
C592	C	0.796361	-1.092171	-0.148033
C593	C	1.129694	-0.758838	0.185301
C594	C	1.463027	-0.425504	0.518634
C595	C	0.825830	-1.060785	-0.181616
C596	C	1.159164	-0.727451	0.151718
C597	C	1.492497	-0.394118	0.485051
H598	H	0.819067	-1.110704	-0.125334
H599	H	1.152400	-0.777371	0.207999
H600	H	1.485733	-0.444037	0.541332
H601	H	0.776441	-1.116234	-0.167941
H602	H	1.109775	-0.782901	0.165393
H603	H	1.443108	-0.449568	0.498726
H604	H	0.773594	-1.070857	-0.128041
H605	H	1.106927	-0.737524	0.205293
H606	H	1.440260	-0.404190	0.538626
H607	H	0.848595	-1.082099	-0.201611
H608	H	1.181928	-0.748766	0.131723
H609	H	1.515261	-0.415432	0.465056
H610	H	0.845759	-1.036718	-0.161706
H611	H	1.179092	-0.703385	0.171628
H612	H	1.512425	-0.370052	0.504961
C613	C	0.026384	-0.351419	-0.351690
C614	C	0.359717	-0.018085	-0.018357
C615	C	0.693050	0.315248	0.314977
C616	C	0.061884	-0.322122	-0.322298
C617	C	0.395217	0.011211	0.011035
C618	C	0.728551	0.344545	0.344369
H619	H	0.044907	-0.374072	-0.374410
H620	H	0.378240	-0.040739	-0.041077
H621	H	0.711574	0.292594	0.292256
H622	H	0.005069	-0.328603	-0.371657
H623	H	0.338402	0.004731	-0.038324
H624	H	0.671736	0.338064	0.295010
H625	H	0.005104	-0.371456	-0.328935
H626	H	0.338438	-0.038123	0.004399
H627	H	0.671771	0.295210	0.337732
H628	H	0.083161	-0.302081	-0.345053
H629	H	0.416494	0.031252	-0.011720
H630	H	0.749827	0.364586	0.321613
H631	H	0.083208	-0.344941	-0.302330
H632	H	0.416541	-0.011607	0.031004
H633	H	0.749874	0.321726	0.364337
C634	C	0.692219	-0.315053	-0.389569
C635	C	1.025552	0.018280	-0.056236
C636	C	1.358885	0.351614	0.277097
C637	C	0.685165	-0.322115	-0.443264
C638	C	1.018499	0.011218	-0.109931
C639	C	1.351832	0.344551	0.223403
H640	H	0.669513	-0.337723	-0.371051
H641	H	1.002846	-0.004389	-0.037717
H642	H	1.336179	0.328944	0.295616
H643	H	0.684583	-0.279919	-0.380648
H644	H	1.017916	0.053414	-0.047315
H645	H	1.351250	0.386748	0.286019
H646	H	0.727343	-0.322737	-0.380594
H647	H	1.060677	0.010596	-0.047260
H648	H	1.394010	0.343929	0.286073
H649	H	0.650041	-0.314427	-0.452241
H650	H	0.983374	0.018906	-0.118907
H651	H	1.316708	0.352239	0.214426
H652	H	0.692797	-0.357257	-0.452189
H653	H	1.026131	-0.023924	-0.118856
H654	H	1.359464	0.309409	0.214478
C655	C	0.818558	-0.188915	-0.389502
C656	C	1.151891	0.144418	-0.056169
C657	C	1.485224	0.477752	0.277164
C658	C	0.825642	-0.181874	-0.443192
C659	C	1.158976	0.151459	-0.109859
C660	C	1.492309	0.484792	0.223475
H661	H	0.841256	-0.166241	-0.370967
H662	H	1.174589	0.167092	-0.037634
H663	H	1.507923	0.500426	0.295699
H664	H	0.826184	-0.224046	-0.380531
H665	H	1.159517	0.109287	-0.047198
H666	H	1.492851	0.442620	0.286136
H667	H	0.783429	-0.181223	-0.380596
H668	H	1.116762	0.152110	-0.047263
H669	H	1.450095	0.485444	0.286070
H670	H	0.860771	-0.189570	-0.452099
H671	H	1.194104	0.143763	-0.118765
H672	H	1.527437	0.477097	0.214568
H673	H	0.818020	-0.146735	-0.452167
H674	H	1.151353	0.186599	-0.118833
H675	H	1.484687	0.519932	0.214500
H676	H	-0.044963	-0.312619	-0.312763
H677	H	0.288371	0.020714	0.020570
H678	H	0.621704	0.354047	0.353903
C679	C	0.233957	-0.119313	-0.118791
C680	C	0.567291	0.214020	0.214543
C681	C	0.900624	0.547353	0.547876
C682	C	0.198453	-0.148603	-0.148185
C683	C	0.531787	0.184730	0.185148
C684	C	0.865120	0.518064	0.518482
H685	H	0.215437	-0.096671	-0.096057
H686	H	0.548770	0.236663	0.237276
H687	H	0.882104	0.569996	0.570610
H688	H	0.255229	-0.099269	-0.141540
H689	H	0.588562	0.234064	0.191794
H690	H	0.921895	0.567398	0.525127
H691	H	0.255280	-0.142138	-0.098833
H692	H	0.588613	0.191195	0.234500
H693	H	0.921946	0.524528	0.567833
H694	H	0.177133	-0.125778	-0.168146
H695	H	0.510467	0.207555	0.165188
H696	H	0.843800	0.540889	0.498521
H697	H	0.177173	-0.168649	-0.125433
H698	H	0.510507	0.164684	0.207900
H699	H	0.843840	0.498018	0.541234
C700	C	0.888589	-0.119205	-0.729841
C701	C	1.221922	0.214128	-0.396508
C702	C	1.555256	0.547462	-0.063174
C703	C	0.859208	-0.148510	-0.694353
C704	C	1.192542	0.184823	-0.361020
C705	C	1.525875	0.518157	-0.027687
H706	H	0.911299	-0.096541	-0.711308
H707	H	1.244632	0.236792	-0.377974
H708	H	1.577965	0.570125	-0.044641
H709	H	0.865829	-0.099182	-0.751164
H710	H	1.199163	0.234151	-0.417831
H711	H	1.532496	0.567485	-0.084497
H712	H	0.908571	-0.142019	-0.751113
H713	H	1.241904	0.191314	-0.417779
H714	H	1.575238	0.524647	-0.084446
H715	H	0.839223	-0.125696	-0.673084
H716	H	1.172557	0.207638	-0.339750
H717	H	1.505890	0.540971	-0.006417
H718	H	0.881971	-0.168534	-0.673021
H719	H	1.215304	0.164799	-0.339688
H720	H	1.548637	0.498132	-0.006355
H721	H	0.305283	-0.158103	-0.157721
H722	H	0.638617	0.175230	0.175612
H723	H	0.971950	0.508564	0.508945
H724	H	0.816300	-0.191448	-0.953325
H725	H	1.149633	0.141885	-0.619992
H726	H	1.482966	0.475218	-0.286659
C727	C	0.617923	-0.188962	-0.188733
C728	C	0.951256	0.144372	0.144600
C729	C	1.284590	0.477705	0.477934
C730	C	0.564232	-0.181914	-0.181663
C731	C	0.897565	0.151419	0.151670
C732	C	1.230899	0.484753	0.485004
H733	H	0.636453	-0.166317	-0.166002
H734	H	0.969787	0.167017	0.167332
H735	H	1.303120	0.500350	0.500665
H736	H	0.626845	-0.181240	-0.223846
H737	H	0.960178	0.152094	0.109488
H738	H	1.293511	0.485427	0.442821
H739	H	0.626884	-0.224108	-0.181137
H740	H	0.960218	0.109226	0.152196
H741	H	1.293551	0.442559	0.485529
H742	H	0.555270	-0.146769	-0.189262
H743	H	0.888603	0.186565	0.144071
H744	H	1.221937	0.519898	0.477405
H745	H	0.555307	-0.189632	-0.146542
H746	H	0.888640	0.143701	0.186791
H747	H	1.221973	0.477034	0.520124
H748	H	0.816221	-0.451595	-0.191310
H749	H	1.149554	-0.118262	0.142024
H750	H	1.482888	0.215072	0.475357
H751	H	0.694881	-1.052955	-0.312471
H752	H	1.028214	-0.719621	0.020862
H753	H	1.361548	-0.386288	0.354196
C754	C	0.855135	-0.522936	-0.152421
C755	C	1.188469	-0.189603	0.180912
C756	C	1.521802	0.143730	0.514246
C757	C	0.825770	-0.558429	-0.181748
C758	C	1.159103	-0.225096	0.151585
C759	C	1.492437	0.108238	0.484919
H760	H	0.877853	-0.541466	-0.129731
H761	H	1.211186	-0.208132	0.203602
H762	H	1.544520	0.125201	0.536935
H763	H	0.832367	-0.501637	-0.132425
H764	H	1.165700	-0.168304	0.200909
H765	H	1.499033	0.165030	0.534242
H766	H	0.875108	-0.501641	-0.175220
H767	H	1.208442	-0.168308	0.158114
H768	H	1.541775	0.165025	0.491447
H769	H	0.805794	-0.579722	-0.158949
H770	H	1.139127	-0.246388	0.174384
H771	H	1.472460	0.086945	0.507717
H772	H	0.848541	-0.579737	-0.201746
H773	H	1.181875	-0.246404	0.131588
H774	H	1.515208	0.086929	0.464921
C775	C	0.714685	-0.355735	-0.589244
C776	C	1.048018	-0.022402	-0.255911
C777	C	1.381351	0.310932	0.077422
C778	C	0.685203	-0.322125	-0.557895
C779	C	1.018537	0.011209	-0.224562
C780	C	1.351870	0.344542	0.108771
H781	H	0.691985	-0.378402	-0.607786
H782	H	1.025318	-0.045069	-0.274452
H783	H	1.358652	0.288264	0.058881
H784	H	0.737436	-0.375754	-0.567909
H785	H	1.070769	-0.042421	-0.234575
H786	H	1.404102	0.290913	0.098758
H787	H	0.734621	-0.335841	-0.613306
H788	H	1.067954	-0.002508	-0.279973
H789	H	1.401288	0.330825	0.053361
H790	H	0.665270	-0.342019	-0.533831
H791	H	0.998603	-0.008685	-0.200498
H792	H	1.331937	0.324648	0.132835
H793	H	0.662443	-0.302104	-0.579233
H794	H	0.995777	0.031230	-0.245900
H795	H	1.329110	0.364563	0.087433
C796	C	0.888627	-0.774117	-0.118926
C797	C	1.221961	-0.440784	0.214408
C798	C	1.555294	-0.107451	0.547741
C799	C	0.859265	-0.809612	-0.148253
C800	C	1.192598	-0.476278	0.185080
C801	C	1.525931	-0.142945	0.518413
H802	H	0.911347	-0.792645	-0.096237
H803	H	1.244681	-0.459312	0.237096
H804	H	1.578014	-0.125979	0.570429
H805	H	0.865857	-0.752821	-0.098928
H806	H	1.199190	-0.419488	0.234406
H807	H	1.532524	-0.086154	0.567739
H808	H	0.908598	-0.752819	-0.141724
H809	H	1.241931	-0.419486	0.191610
H810	H	1.575264	-0.086153	0.524943
H811	H	0.839291	-0.830907	-0.125455
H812	H	1.172625	-0.497574	0.207878
H813	H	1.505958	-0.164241	0.541212
H814	H	0.882038	-0.830917	-0.168253
H815	H	1.215371	-0.497584	0.165081
H816	H	1.548704	-0.164250	0.498414
H817	H	0.661364	-0.801759	-0.345949
H818	H	0.994697	-0.468426	-0.012615
H819	H	1.328031	-0.135093	0.320718
H820	H	0.694883	-0.312656	-0.953392
H821	H	1.028216	0.020677	-0.620058
H822	H	1.361550	0.354011	-0.286725
C823	C	0.622461	-0.730413	-0.384840
C824	C	0.955795	-0.397079	-0.051507
C825	C	1.289128	-0.063746	0.281826
C826	C	0.651823	-0.694924	-0.355505
C827	C	0.985156	-0.361591	-0.022171
C828	C	1.318489	-0.028258	0.311162
H829	H	0.599758	-0.711880	-0.407542
H830	H	0.933092	-0.378547	-0.074209
H831	H	1.266425	-0.045213	0.259125
H832	H	0.602477	-0.751700	-0.362052
H833	H	0.935811	-0.418367	-0.028719
H834	H	1.269144	-0.085034	0.304614
H835	H	0.645237	-0.751720	-0.404829
H836	H	0.978570	-0.418387	-0.071496
H837	H	1.311904	-0.085053	0.261837
H838	H	0.629047	-0.673619	-0.335513
H839	H	0.962380	-0.340286	-0.002179
H840	H	1.295714	-0.006953	0.331154
H841	H	0.671808	-0.673628	-0.378296
H842	H	1.005141	-0.340294	-0.044962
H843	H	1.338475	-0.006961	0.288371
