data_functionalizedCrystal
_audit_creation_method	'MofGen! by Chris Wilmer'
_symmetry_space_group_name_H-M	'P1'
_symmetry_Int_Tables_number	1
_symmetry_cell_setting	triclinic
loop_
_symmetry_equiv_pos_as_xyz
  x,y,z
_cell_length_a	14.519731
_cell_length_b	14.519709
_cell_length_c	26.809956
_cell_angle_alpha	90.003406
_cell_angle_beta	90.008732
_cell_angle_gamma	96.315501
loop_
_atom_site_label
_atom_site_type_symbol
_atom_site_fract_x
_atom_site_fract_y
_atom_site_fract_z
O1	O	1.223863	-0.120972	0.041479
O2	O	1.723863	0.379028	0.541479
O3	O	0.955388	-0.135188	0.041481
O4	O	1.455388	0.364812	0.541481
O5	O	1.096744	0.006158	0.041476
O6	O	1.596744	0.506158	0.541476
O7	O	1.082507	-0.262318	0.041485
O8	O	1.582507	0.237682	0.541485
O9	O	1.096717	0.006137	-0.041484
O10	O	1.596717	0.506137	0.458516
O11	O	0.955362	-0.135209	-0.041478
O12	O	1.455362	0.364791	0.458522
O13	O	1.223836	-0.120993	-0.041480
O14	O	1.723836	0.379007	0.458520
Zn15	Zn	1.089595	-0.128105	-0.054651
Zn16	Zn	1.589595	0.371895	0.445349
Zn17	Zn	1.089630	-0.128076	0.054652
Zn18	Zn	1.589630	0.371924	0.554652
O19	O	1.082481	-0.262339	-0.041475
O20	O	1.582481	0.237661	0.458525
C21	C	0.921016	-0.134532	0.000001
C22	C	1.421016	0.365468	0.500001
C23	C	0.818635	-0.132536	0.000002
C24	C	1.318635	0.367464	0.500002
C25	C	1.096067	0.040507	-0.000004
C26	C	1.596067	0.540507	0.499996
C27	C	1.094079	0.142889	-0.000004
C28	C	1.594079	0.642889	0.499996
C29	C	1.258209	-0.121649	0.000001
C30	C	1.758209	0.378351	0.500001
C31	C	1.360589	-0.123645	0.000004
C32	C	1.860589	0.376355	0.500004
C33	C	1.083157	-0.296688	0.000006
C34	C	1.583157	0.203312	0.500006
C35	C	1.085146	-0.399070	0.000010
C36	C	1.585146	0.100930	0.500010
C37	C	1.443733	-0.125267	0.000005
C38	C	1.943733	0.374733	0.500005
C39	C	1.548042	-0.127293	0.000004
C40	C	2.048042	0.372707	0.500004
C41	C	1.631181	-0.128902	0.000003
C42	C	2.131181	0.371098	0.500003
C43	C	1.735496	-0.130928	0.000003
C44	C	2.235496	0.369072	0.500003
N45	N	1.089577	-0.128124	-0.129247
N46	N	1.589577	0.371876	0.370753
C47	C	1.086759	0.517785	0.000009
C48	C	1.586759	1.017785	0.500009
C49	C	1.088792	0.413477	0.000005
C50	C	1.588792	0.913477	0.500005
C51	C	1.090419	0.330340	0.000002
C52	C	1.590419	0.830340	0.500002
C53	C	1.092452	0.226025	-0.000001
C54	C	1.592452	0.726025	0.499999
C55	C	1.152214	-0.065504	-0.473875
C56	C	1.652214	0.434496	0.026125
C57	C	1.152236	-0.065490	-0.682753
C58	C	1.652236	0.434510	-0.182753
O59	O	1.205454	-0.012254	-0.709759
O60	O	1.705454	0.487746	-0.209759
N61	N	1.089635	-0.128056	-0.708874
N62	N	1.589635	0.371944	-0.208874
C63	C	1.027020	-0.190626	-0.682772
C64	C	1.527020	0.309374	-0.182772
O65	O	0.973768	-0.243836	-0.709783
O66	O	1.473768	0.256164	-0.209783
C67	C	1.026994	-0.190635	-0.473895
C68	C	1.526994	0.309365	0.026105
C69	C	1.089606	-0.128071	-0.447777
C70	C	1.589606	0.371929	0.052223
C71	C	1.214819	-0.002944	-0.447757
C72	C	1.714819	0.497056	0.052243
C73	C	1.214817	-0.002952	-0.395540
C74	C	1.714817	0.497048	0.104460
C75	C	1.152208	-0.065519	-0.369442
C76	C	1.652208	0.434481	0.130558
C77	C	1.089603	-0.128079	-0.395561
C78	C	1.589603	0.371921	0.104439
C79	C	0.964376	-0.253200	-0.447795
C80	C	1.464376	0.246800	0.052205
C81	C	0.964373	-0.253195	-0.395572
C82	C	1.464373	0.246805	0.104428
C83	C	1.026985	-0.190631	-0.369454
C84	C	1.526985	0.309369	0.130546
C85	C	1.026992	-0.190653	-0.317247
C86	C	1.526992	0.309347	0.182753
N87	N	1.089593	-0.128087	-0.291126
N88	N	1.589593	0.371913	0.208874
C89	C	1.152201	-0.065520	-0.317224
C90	C	1.652201	0.434480	0.182776
C91	C	1.027039	-0.190618	-0.792435
C92	C	1.527039	0.309382	-0.292435
C93	C	1.027046	-0.190617	-0.844654
C94	C	1.527046	0.309383	-0.344654
C95	C	1.152261	-0.065480	-0.844631
C96	C	1.652261	0.434520	-0.344631
C97	C	1.152258	-0.065486	-0.792411
C98	C	1.652258	0.434514	-0.292411
C99	C	1.089640	-0.128052	-0.766314
C100	C	1.589640	0.371948	-0.266314
C101	C	1.152191	-0.065541	-0.207566
C102	C	1.652191	0.434459	0.292434
C103	C	1.152186	-0.065556	-0.155345
C104	C	1.652186	0.434444	0.344655
C105	C	1.026968	-0.190690	-0.155372
C106	C	1.526968	0.309310	0.344628
C107	C	1.026976	-0.190679	-0.207589
C108	C	1.526976	0.309321	0.292411
C109	C	1.089592	-0.128096	-0.233684
C110	C	1.589592	0.371904	0.266316
O111	O	0.973794	-0.243854	-0.290209
O112	O	1.473794	0.256146	0.209791
O113	O	1.205431	-0.012304	-0.290204
O114	O	1.705431	0.487696	0.209796
C115	C	1.152217	-0.065496	-0.526091
C116	C	1.652217	0.434504	-0.026091
C117	C	1.089611	-0.128056	-0.552210
C118	C	1.589611	0.371944	-0.052210
C119	C	1.027003	-0.190623	-0.526112
C120	C	1.527003	0.309377	-0.026112
C121	C	1.089618	-0.128055	-0.604429
C122	C	1.589618	0.371945	-0.104429
C123	C	1.152227	-0.065488	-0.630527
C124	C	1.652227	0.434512	-0.130527
C125	C	1.214828	-0.002922	-0.604406
C126	C	1.714828	0.497078	-0.104406
C127	C	1.214825	-0.002929	-0.552189
C128	C	1.714825	0.497071	-0.052189
C129	C	0.964402	-0.253189	-0.552233
C130	C	1.464402	0.246811	-0.052233
C131	C	0.964410	-0.253177	-0.604449
C132	C	1.464410	0.246823	-0.104449
C133	C	1.027019	-0.190610	-0.630547
C134	C	1.527019	0.309390	-0.130547
N135	N	1.089654	-0.128050	0.129248
N136	N	1.589654	0.371950	0.629248
H137	H	1.203174	-0.014609	-0.134081
H138	H	1.703174	0.485391	0.365919
C139	C	1.283679	0.065880	-0.366817
C140	C	1.783679	0.565880	0.133183
H141	H	1.320954	0.103145	-0.389845
H142	H	1.820954	0.603145	0.110155
H143	H	1.322125	0.032627	-0.346441
H144	H	1.822125	0.532627	0.153559
H145	H	1.250435	0.104351	-0.346451
H146	H	1.750435	0.604351	0.153549
H147	H	1.265809	0.048016	-0.530927
H148	H	1.765809	0.548016	-0.030927
H149	H	1.265803	0.048010	-0.469001
H150	H	1.765803	0.548010	0.030999
H151	H	1.203240	-0.014540	-0.771149
H152	H	1.703240	0.485460	-0.271149
C153	C	1.221121	0.003350	-0.873345
C154	C	1.721121	0.503350	-0.373345
H155	H	1.212147	-0.005610	-0.908185
H156	H	1.712147	0.494390	-0.408185
H157	H	1.282688	-0.006793	-0.864785
H158	H	1.782688	0.493207	-0.364785
H159	H	1.210990	0.064924	-0.864787
H160	H	1.710990	0.564924	-0.364787
C161	C	0.895510	-0.322029	-0.476514
C162	C	1.395510	0.177971	0.023486
H163	H	0.858224	-0.359282	-0.453485
H164	H	1.358224	0.140718	0.046515
H165	H	0.928744	-0.360500	-0.496880
H166	H	1.428744	0.139500	0.003120
H167	H	0.857061	-0.288769	-0.496888
H168	H	1.357061	0.211231	0.003112
C169	C	0.958174	-0.259438	-0.873379
C170	C	1.458174	0.240562	-0.373379
H171	H	0.920882	-0.296690	-0.850353
H172	H	1.420882	0.203310	-0.350353
H173	H	0.991398	-0.297911	-0.893750
H174	H	1.491398	0.202089	-0.393750
H175	H	0.919733	-0.226162	-0.893749
H176	H	1.419733	0.273838	-0.393749
H177	H	0.913379	-0.304143	-0.374327
H178	H	1.413379	0.195857	0.125673
C179	C	0.958071	-0.259462	-0.236320
C180	C	1.458071	0.240538	0.263680
H181	H	0.920770	-0.296710	-0.213296
H182	H	1.420770	0.203290	0.286704
H183	H	0.991260	-0.297942	-0.256705
H184	H	1.491260	0.202058	0.243295
H185	H	0.919642	-0.226145	-0.256676
H186	H	1.419642	0.273855	0.243324
C187	C	0.958162	-0.259454	-0.763735
C188	C	1.458162	0.240546	-0.263735
H189	H	0.920893	-0.296717	-0.786775
H190	H	1.420893	0.203283	-0.286775
H191	H	0.919712	-0.226201	-0.743367
H192	H	1.419712	0.273799	-0.243367
H193	H	0.991400	-0.297927	-0.743364
H194	H	1.491400	0.202073	-0.243364
H195	H	0.913417	-0.304138	-0.530988
H196	H	1.413417	0.195862	-0.030988
C197	C	0.958102	-0.259510	-0.126660
C198	C	1.458102	0.240490	0.373340
H199	H	0.920816	-0.296777	-0.149692
H200	H	1.420816	0.203223	0.350308
H201	H	0.919667	-0.226240	-0.106291
H202	H	1.419667	0.273760	0.393709
H203	H	0.991340	-0.297982	-0.106289
H204	H	1.491340	0.202018	0.393711
H205	H	0.913426	-0.304133	-0.625711
H206	H	1.413426	0.195867	-0.125711
C207	C	1.221070	0.003294	-0.236263
C208	C	1.721070	0.503294	0.263737
H209	H	1.258355	0.040541	-0.213223
H210	H	1.758355	0.540541	0.286777
H211	H	1.187847	0.041771	-0.256635
H212	H	1.687847	0.541771	0.243365
H213	H	1.259518	-0.029972	-0.256630
H214	H	1.759518	0.470028	0.243370
C215	C	1.283691	0.065904	-0.633120
C216	C	1.783691	0.565904	-0.133120
H217	H	1.274714	0.056946	-0.667959
H218	H	1.774714	0.556946	-0.167959
H219	H	1.345256	0.055754	-0.624561
H220	H	1.845256	0.555754	-0.124561
H221	H	1.273567	0.127479	-0.624561
H222	H	1.773567	0.627479	-0.124561
