data_functionalizedCrystal
_audit_creation_method	'MofGen! by Chris Wilmer'
_symmetry_space_group_name_H-M	'P1'
_symmetry_Int_Tables_number	1
_symmetry_cell_setting	triclinic
loop_
_symmetry_equiv_pos_as_xyz
  x,y,z
_cell_length_a	16.956984
_cell_length_b	14.853559
_cell_length_c	15.455313
_cell_angle_alpha	92.670929
_cell_angle_beta	87.518126
_cell_angle_gamma	79.842436
loop_
_atom_site_label
_atom_site_type_symbol
_atom_site_fract_x
_atom_site_fract_y
_atom_site_fract_z
O1	O	1.061570	0.033147	-0.072134
O2	O	1.561570	0.533147	0.427866
O3	O	0.829447	0.064796	-0.072133
O4	O	1.329447	0.564796	0.427867
O5	O	0.951713	-0.082730	-0.072133
O6	O	1.451713	0.417270	0.427867
O7	O	0.939305	0.180673	-0.072134
O8	O	1.439305	0.680673	0.427866
O9	O	0.944721	-0.074326	0.072130
O10	O	1.444721	0.425674	0.572130
O11	O	0.822455	0.073200	0.072129
O12	O	1.322455	0.573200	0.572129
O13	O	1.054579	0.041550	0.072128
O14	O	1.554579	0.541550	0.572128
Cu15	Cu	0.937879	0.058142	0.085301
Cu16	Cu	1.437879	0.558142	0.585301
Cu17	Cu	0.946147	0.048204	-0.085306
Cu18	Cu	1.446147	0.548204	0.414694
O19	O	0.932313	0.189076	0.072128
O20	O	1.432313	0.689076	0.572128
C21	C	0.796245	0.070619	-0.000002
C22	C	1.296245	0.570619	0.499998
C23	C	0.707729	0.075437	-0.000002
C24	C	1.207729	0.575437	0.499998
C25	C	0.675558	-0.005126	-0.000000
C26	C	1.175558	0.494874	0.500000
C27	C	0.592388	-0.000593	-0.000006
C28	C	1.092388	0.499407	0.499994
C29	C	0.541390	0.084503	-0.000009
C30	C	1.041390	0.584503	0.499991
C31	C	0.573567	0.165072	-0.000013
C32	C	1.073567	0.665072	0.499987
C33	C	0.656736	0.160538	-0.000013
C34	C	1.156736	0.660538	0.499987
C35	C	0.291642	0.106944	-0.000015
C36	C	0.791642	0.606944	0.499985
C37	C	0.208468	0.111472	-0.000012
C38	C	0.708468	0.611472	0.499988
C39	C	0.227295	-0.054194	-0.000007
C40	C	0.727295	0.445806	0.499993
C41	C	0.310464	-0.058720	-0.000002
C42	C	0.810464	0.441280	0.499998
C43	C	0.342634	0.021848	-0.000011
C44	C	0.842634	0.521848	0.499989
N45	N	0.456377	0.089138	-0.000012
N46	N	0.956377	0.589138	0.499988
N47	N	0.427646	0.017212	-0.000014
N48	N	0.927646	0.517212	0.499986
C49	C	0.947656	-0.112074	-0.000003
C50	C	1.447656	0.387926	0.499997
C51	C	0.945975	-0.212031	-0.000008
C52	C	1.445975	0.287969	0.499992
C53	C	0.942654	-0.639245	-0.078645
C54	C	1.442654	-0.139245	0.421355
C55	C	0.935032	-0.630078	0.078635
C56	C	1.435032	-0.130078	0.578635
C57	C	0.936618	-0.536165	0.078635
C58	C	1.436618	-0.036165	0.578635
C59	C	0.941221	-0.493788	-0.000005
C60	C	1.441221	0.006212	0.499995
C61	C	0.944238	-0.545323	-0.078647
C62	C	1.444238	-0.045323	0.421353
C63	C	0.933593	-0.484621	0.157276
C64	C	1.433593	0.015379	0.657276
C65	C	0.935178	-0.390702	0.157280
C66	C	1.435178	0.109298	0.657280
C67	C	0.939787	-0.348324	0.078638
C68	C	1.439787	0.151676	0.578638
C69	C	0.942805	-0.399866	-0.000007
C70	C	1.442805	0.100134	0.499993
C71	C	0.947408	-0.357489	-0.078648
C72	C	1.447408	0.142511	0.421352
C73	C	0.950432	-0.409030	-0.157294
C74	C	1.450432	0.090970	0.342706
C75	C	0.948847	-0.502946	-0.157289
C76	C	1.448847	-0.002946	0.342711
C77	C	0.941372	-0.254409	0.078633
C78	C	1.441372	0.245591	0.578633
C79	C	0.948992	-0.263567	-0.078650
C80	C	1.448992	0.236433	0.421350
C81	C	1.087781	0.035728	-0.000004
C82	C	1.587781	0.535728	0.499996
C83	C	1.176297	0.030909	-0.000010
C84	C	1.676297	0.530909	0.499990
C85	C	0.936370	0.218421	-0.000004
C86	C	1.436370	0.718421	0.499996
C87	C	0.938051	0.318377	-0.000004
C88	C	1.438051	0.818377	0.499996
N89	N	0.932069	0.065131	0.205296
N90	N	1.432069	0.565131	0.705296
N91	N	0.951963	0.041207	-0.205301
N92	N	1.451963	0.541207	0.294699
C93	C	0.984030	0.002477	0.250691
C94	C	1.484030	0.502477	0.750691
C95	C	0.979643	0.007771	0.341499
C96	C	1.479643	0.507771	0.841499
C97	C	0.923299	0.075723	0.386910
C98	C	1.423299	0.575723	0.886910
C99	C	0.871333	0.138380	0.341510
C100	C	1.371333	0.638380	0.841510
C101	C	0.875716	0.133082	0.250703
C102	C	1.375716	0.633082	0.750703
C103	C	0.904380	0.098567	0.658492
C104	C	1.404380	0.598567	1.158492
C105	C	0.900002	0.103862	0.749304
C106	C	1.400002	0.603862	1.249304
C107	C	1.008312	-0.026749	0.749287
C108	C	1.508312	0.473251	1.249287
C109	C	1.012694	-0.032038	0.658479
C110	C	1.512694	0.467962	1.158479
C111	C	0.960724	0.030616	0.613086
C112	C	1.460724	0.530616	1.113086
N113	N	0.918816	0.081137	0.479731
N114	N	1.418816	0.581137	0.979731
N115	N	0.965204	0.025197	0.520268
N116	N	1.465204	0.525197	1.020268
H117	H	0.717075	-0.074420	0.000005
H118	H	1.217075	0.425580	0.500005
H119	H	0.854118	0.159200	0.786274
H120	H	1.354118	0.659200	1.286274
H121	H	0.825452	0.193705	0.378489
H122	H	1.325452	0.693705	0.878489
H123	H	0.952745	-0.229071	-0.142689
H124	H	1.452745	0.270929	0.357311
H125	H	0.351982	-0.128014	0.000004
H126	H	0.851982	0.371986	0.500004
H127	H	1.058573	-0.087370	0.621507
H128	H	1.558573	0.412630	1.121507
H129	H	0.201093	-0.119789	-0.000009
H130	H	0.701093	0.380211	0.499991
H131	H	0.938891	-0.212444	0.142665
H132	H	1.438891	0.287556	0.642665
H133	H	1.021953	-0.043248	0.378458
H134	H	1.521953	0.456752	0.878458
H135	H	0.954174	-0.374513	-0.221323
H136	H	1.454174	0.125487	0.278677
H137	H	0.951309	-0.544919	-0.221318
H138	H	1.451309	-0.044919	0.278682
H139	H	0.931279	-0.664586	0.142661
H140	H	1.431279	-0.164586	0.642661
H141	H	0.862066	0.149584	0.621540
H142	H	1.362066	0.649584	1.121540
H143	H	0.566199	-0.066196	-0.000006
H144	H	1.066199	0.433804	0.499994
H145	H	0.945120	-0.681215	-0.142677
H146	H	1.445120	-0.181215	0.357323
H147	H	1.029914	-0.052853	0.213723
H148	H	1.529914	0.447147	0.713723
H149	H	0.166947	0.180771	-0.000010
H150	H	0.666947	0.680771	0.499990
H151	H	0.929840	-0.519131	0.221301
H152	H	1.429840	-0.019131	0.721301
H153	H	0.932718	-0.348745	0.221318
H154	H	1.432718	0.151255	0.721318
H155	H	0.317825	0.172548	-0.000028
H156	H	0.817825	0.672548	0.499972
H157	H	1.050622	-0.077760	0.786254
H158	H	1.550622	0.422240	1.286254
H159	H	0.682928	0.226141	-0.000011
H160	H	1.182928	0.726141	0.499989
H161	H	0.532038	0.234359	-0.000021
H162	H	1.032038	0.734359	0.499979
H163	H	0.833403	0.184100	0.213744
H164	H	1.333403	0.684100	0.713744
