data_functionalizedCrystal
_audit_creation_method	'MofGen! by Chris Wilmer'
_symmetry_space_group_name_H-M	'P1'
_symmetry_Int_Tables_number	1
_symmetry_cell_setting	triclinic
loop_
_symmetry_equiv_pos_as_xyz
  x,y,z
_cell_length_a	16.625546
_cell_length_b	18.215407
_cell_length_c	18.215399
_cell_angle_alpha	90.016824
_cell_angle_beta	89.968415
_cell_angle_gamma	89.977084
loop_
_atom_site_label
_atom_site_type_symbol
_atom_site_fract_x
_atom_site_fract_y
_atom_site_fract_z
Zn1	Zn	-0.320981	-1.125062	-0.416110
Zn2	Zn	-0.455827	-1.124983	-0.293041
Zn3	Zn	-0.321013	-1.002001	-0.293057
Zn4	Zn	-0.455776	-1.001966	-0.416066
O5	O	-0.388399	-1.063503	-0.354568
O6	O	-0.338876	-1.228036	-0.399796
O7	O	-0.437978	-1.108650	-0.190059
O8	O	-0.208176	-1.018374	-0.309405
O9	O	-0.437947	-1.227977	-0.309378
O10	O	-0.208153	-1.108786	-0.399812
O11	O	-0.338931	-1.018297	-0.190070
O12	O	-0.338882	-0.899013	-0.309363
O13	O	-0.437861	-1.018314	-0.519056
O14	O	-0.437892	-0.898987	-0.399737
O15	O	-0.338827	-1.108752	-0.519088
O16	O	-0.568653	-1.108616	-0.309335
O17	O	-0.568616	-1.018236	-0.399721
C18	C	-0.388386	-0.872297	-0.354547
C19	C	-0.388399	-0.790498	-0.354556
C20	C	-0.597890	-1.063434	-0.354537
C21	C	-0.687511	-1.063471	-0.354549
C22	C	-0.388335	-1.063538	-0.546521
C23	C	-0.388308	-1.063553	-0.628320
C24	C	-1.015687	-1.063599	-0.354625
C25	C	-0.924379	-1.063561	-0.354606
C26	C	-0.851602	-1.063535	-0.354587
C27	C	-0.760288	-1.063498	-0.354568
C28	C	-0.178091	-1.063593	-0.354615
C29	C	-0.088469	-1.063631	-0.354635
C30	C	-0.388414	-1.255456	-0.354590
C31	C	-0.388420	-1.337255	-0.354599
C32	C	-0.440035	-0.602310	-0.401554
C33	C	-0.440037	-0.525451	-0.401563
C34	C	-0.336779	-0.525449	-0.307598
C35	C	-0.336773	-0.602306	-0.307593
C36	C	-0.388405	-0.640734	-0.354570
C37	C	-0.388414	-0.487018	-0.354584
C38	C	-0.388416	-0.403685	-0.354594
C39	C	-0.388402	-0.724073	-0.354562
C40	C	-0.336699	-1.016545	-0.816521
C41	C	-0.336683	-1.016558	-0.893380
C42	C	-0.439820	-1.110648	-0.893357
C43	C	-0.439840	-1.110631	-0.816500
C44	C	-0.388275	-1.063581	-0.778084
C45	C	-0.388239	-1.063611	-0.931800
C46	C	-0.388221	-1.063625	-1.015134
C47	C	-0.388293	-1.063565	-0.694745
C48	C	-0.388405	-1.063511	-0.163362
C49	C	-0.388206	-1.063639	-0.081563
H50	H	-0.482075	-0.633596	-0.439808
C51	C	-0.496141	-0.483639	-0.452454
C52	C	-0.547754	-0.439467	-0.410707
C53	C	-0.599441	-0.400932	-0.457565
H54	H	-0.526965	-0.517451	-0.480446
H55	H	-0.465364	-0.453637	-0.484562
H56	H	-0.578528	-0.469466	-0.378612
H57	H	-0.516952	-0.405641	-0.382716
H58	H	-0.568664	-0.370931	-0.489673
H59	H	-0.630259	-0.434749	-0.485555
H60	H	-0.634461	-0.370952	-0.429247
H61	H	-0.294711	-0.978234	-0.785245
C62	C	-0.280595	-0.965464	-0.934980
C63	C	-0.235430	-0.924272	-0.884883
C64	C	-0.183745	-0.877201	-0.923177
H65	H	-0.311339	-0.933326	-0.964952
H66	H	-0.245415	-0.993621	-0.964960
H67	H	-0.270606	-0.896118	-0.854916
H68	H	-0.204670	-0.956391	-0.854910
H69	H	-0.148565	-0.905357	-0.953157
H70	H	-0.214495	-0.845067	-0.953148
H71	H	-0.153090	-0.849251	-0.889193
H72	H	-0.294743	-0.494151	-0.269350
H73	H	-0.294725	-0.633592	-0.269333
H74	H	-0.481802	-1.148955	-0.924644
H75	H	-0.481842	-1.148935	-0.785203
