data_functionalizedCrystal
_audit_creation_method	'MofGen! by Chris Wilmer'
_symmetry_space_group_name_H-M	'P1'
_symmetry_Int_Tables_number	1
_symmetry_cell_setting	triclinic
loop_
_symmetry_equiv_pos_as_xyz
  x,y,z
_cell_length_a	6.817900
_cell_length_b	16.255699
_cell_length_c	19.453046
_cell_angle_alpha	95.854118
_cell_angle_beta	101.708137
_cell_angle_gamma	103.489404
loop_
_atom_site_label
_atom_site_type_symbol
_atom_site_fract_x
_atom_site_fract_y
_atom_site_fract_z
V1	V	-4.006857	-0.117990	-0.219236
O2	O	-3.994739	0.004744	-0.214823
O3	O	-3.958519	-0.233064	-0.217967
O4	O	-3.949770	-0.116581	-0.314747
O5	O	-4.003548	-0.112545	-0.117373
V6	V	-4.491602	-0.103262	-0.207024
O7	O	-4.265434	-0.150298	-0.246023
O8	O	-4.683222	-0.070954	-0.180237
O9	O	-4.316733	0.011812	-0.208293
O10	O	-4.621116	-0.225996	-0.211437
O11	O	-4.612307	-0.108707	-0.308887
O12	O	-4.325482	-0.104670	-0.111513
C13	C	-3.803816	-0.261104	-0.214568
C14	C	-3.845523	-0.355181	-0.214167
C15	C	-3.756520	-0.577989	-0.209575
C16	C	-3.845301	-0.625375	-0.152974
C17	C	-3.921987	-0.527432	-0.213468
C18	C	-3.907545	-0.647676	-0.269362
C19	C	-3.995835	-0.693819	-0.212794
C20	C	-4.010194	-0.573570	-0.156824
C21	C	-4.072437	-0.595876	-0.273263
C22	C	-4.161338	-0.643237	-0.216651
C23	C	-3.879439	-0.431581	-0.213855
C24	C	-4.038394	-0.789668	-0.212403
C25	C	-3.792655	-0.112518	-0.338020
C26	C	-3.827265	-0.112127	-0.416102
C27	C	-4.113631	-0.186849	-0.983666
C28	C	-4.081100	-0.187222	-0.910300
C29	C	-4.025544	-0.109865	-0.863424
C30	C	-4.002468	-0.032129	-0.889920
C31	C	-4.034980	-0.031758	-0.963284
N32	N	-4.058755	-0.055375	-0.742890
N33	N	-4.027877	-0.055733	-0.673197
C34	C	-3.927580	-0.110979	-0.642380
N35	N	-3.859360	-0.165868	-0.683891
N36	N	-3.890251	-0.165512	-0.753590
C37	C	-3.990284	-0.110259	-0.783872
C38	C	-3.915369	-0.189115	-0.536341
C39	C	-3.882823	-0.189485	-0.462973
C40	C	-3.804210	-0.034390	-0.442594
C41	C	-3.836737	-0.034022	-0.515961
C42	C	-3.892325	-0.111387	-0.562830
C43	C	-4.134778	0.039848	-0.211690
C44	C	-4.072309	0.133924	-0.212096
C45	C	-4.145939	-0.108737	-0.088237
C46	C	-4.090568	-0.109123	-0.010154
H47	H	-4.053141	-0.541408	-0.109214
H48	H	-4.016201	0.031538	-0.984849
H49	H	-3.749718	-0.638772	-0.102112
C50	C	-4.393094	-0.681548	-0.220667
H51	H	-4.451978	-0.723020	-0.262323
H52	H	-4.407517	-0.707977	-0.179968
H53	H	-4.462768	-0.637279	-0.222200
C54	C	-4.201445	-0.577736	-0.341970
H55	H	-4.164383	-0.603289	-0.381901
H56	H	-4.344787	-0.601094	-0.344901
H57	H	-4.174708	-0.517627	-0.341505
H58	H	-4.158890	-0.249846	-1.021823
C59	C	-4.106474	-0.272722	-0.881152
H60	H	-4.079138	-0.261860	-0.830745
H61	H	-4.244253	-0.307229	-0.899655
H62	H	-4.011648	-0.301818	-0.895065
C63	C	-3.849433	-0.691248	-0.333600
H64	H	-3.705937	-0.668765	-0.330994
H65	H	-3.877754	-0.751218	-0.333143
H66	H	-3.928728	-0.680623	-0.376295
C67	C	-3.811388	0.051477	-0.545100
H68	H	-3.773656	0.097496	-0.506677
H69	H	-3.706143	0.057555	-0.571002
H70	H	-3.938749	0.052136	-0.575589
H71	H	-3.901596	-0.252781	-0.441409
H72	H	-3.957224	0.030856	-0.851749
H73	H	-3.960614	-0.252110	-0.574504
H74	H	-3.758954	0.028596	-0.404428
H75	H	-3.584970	-0.549473	-0.206515
