data_functionalizedCrystal
_audit_creation_method	'MofGen! by Chris Wilmer'
_symmetry_space_group_name_H-M	'P1'
_symmetry_Int_Tables_number	1
_symmetry_cell_setting	triclinic
loop_
_symmetry_equiv_pos_as_xyz
  x,y,z
_cell_length_a	29.839134
_cell_length_b	29.839131
_cell_length_c	18.101389
_cell_angle_alpha	90.028941
_cell_angle_beta	90.028730
_cell_angle_gamma	90.030088
loop_
_atom_site_label
_atom_site_type_symbol
_atom_site_fract_x
_atom_site_fract_y
_atom_site_fract_z
Zn1	Zn	0.686769	-0.178962	0.418872
Zn2	Zn	1.186769	0.321038	0.918872
Zn3	Zn	0.686700	-0.254079	0.295007
Zn4	Zn	1.186700	0.245921	0.795007
Zn5	Zn	0.611643	-0.178957	0.295023
Zn6	Zn	1.111643	0.321043	0.795023
Zn7	Zn	0.611608	-0.254059	0.418786
Zn8	Zn	1.111608	0.245941	0.918786
O9	O	0.649180	-0.216514	0.356922
O10	O	1.149180	0.283486	0.856922
O11	O	0.749627	-0.188937	0.402470
O12	O	1.249627	0.311063	0.902470
O13	O	0.676730	-0.244120	0.191376
O14	O	1.176730	0.255880	0.691376
O15	O	0.621652	-0.116090	0.311494
O16	O	1.121652	0.383910	0.811494
O17	O	0.749576	-0.244125	0.311467
O18	O	1.249576	0.255875	0.811467
O19	O	0.676847	-0.116094	0.402485
O20	O	1.176847	0.383906	0.902485
O21	O	0.621585	-0.188928	0.191388
O22	O	1.121585	0.311072	0.691388
O23	O	0.548771	-0.188909	0.311412
O24	O	1.048771	0.311091	0.811412
O25	O	0.621592	-0.244091	0.522431
O26	O	1.121592	0.255909	1.022431
O27	O	0.548745	-0.244086	0.402340
O28	O	1.048745	0.255914	0.902340
O29	O	0.676812	-0.188918	0.522493
O30	O	1.176812	0.311082	1.022493
O31	O	0.676696	-0.316943	0.311384
O32	O	1.176696	0.183057	0.811384
O33	O	0.621525	-0.316929	0.402324
O34	O	1.121525	0.183071	0.902324
C35	C	0.532457	-0.216495	0.356869
C36	C	1.032457	0.283505	0.856869
C37	C	0.482523	-0.216498	0.356863
C38	C	0.982523	0.283502	0.856863
C39	C	0.649111	-0.333237	0.356860
C40	C	1.149111	0.166763	0.856860
C41	C	0.649123	-0.383171	0.356858
C42	C	1.149123	0.116829	0.856858
C43	C	0.172875	-0.245287	0.404210
C44	C	0.672875	0.254713	0.904210
C45	C	-0.014798	-0.245300	0.404243
C46	C	0.485202	0.254700	0.904243
O47	O	-0.039066	-0.269757	0.444468
O48	O	0.460934	0.230243	0.944468
N49	N	-0.038262	-0.216531	0.356978
N50	N	0.461738	0.283469	0.856978
C51	C	-0.014806	-0.187754	0.309704
C52	C	0.485194	0.312246	0.809704
O53	O	-0.039070	-0.163281	0.269508
O54	O	0.460930	0.336719	0.769508
C55	C	0.172867	-0.187739	0.309676
C56	C	0.672867	0.312261	0.809676
C57	C	0.196329	-0.216514	0.356939
C58	C	0.696329	0.283486	0.856939
C59	C	0.196338	-0.274059	0.451470
C60	C	0.696338	0.225941	0.951470
C61	C	0.243253	-0.274058	0.451459
C62	C	0.743253	0.225942	0.951459
C63	C	0.266706	-0.245284	0.404187
C64	C	0.766706	0.254716	0.904187
C65	C	0.243244	-0.216512	0.356927
C66	C	0.743244	0.283488	0.856927
C67	C	0.196322	-0.158961	0.262406
C68	C	0.696322	0.341039	0.762406
C69	C	0.243243	-0.158959	0.262405
C70	C	0.743243	0.341041	0.762405
C71	C	0.266705	-0.187733	0.309668
C72	C	0.766705	0.312267	0.809668
C73	C	0.313613	-0.187737	0.309644
C74	C	0.813613	0.312263	0.809644
N75	N	0.337077	-0.216506	0.356910
N76	N	0.837077	0.283494	0.856910
C77	C	0.313624	-0.245280	0.404181
C78	C	0.813624	0.254720	0.904181
C79	C	-0.113336	-0.187764	0.309722
C80	C	0.386664	0.312236	0.809722
C81	C	-0.160254	-0.187768	0.309728
C82	C	0.339746	0.312232	0.809728
C83	C	-0.160243	-0.245314	0.404268
C84	C	0.339757	0.254686	0.904268
C85	C	-0.113324	-0.245312	0.404257
C86	C	0.386676	0.254688	0.904257
C87	C	-0.089872	-0.216534	0.356987
C88	C	0.410128	0.283466	0.856987
C89	C	0.412150	-0.245274	0.404153
C90	C	0.912150	0.254726	0.904153
C91	C	0.459070	-0.245271	0.404135
C92	C	0.959070	0.254729	0.904135
C93	C	0.459054	-0.187724	0.309598
C94	C	0.959054	0.312276	0.809598
C95	C	0.412139	-0.187729	0.309613
C96	C	0.912139	0.312271	0.809613
C97	C	0.388688	-0.216505	0.356896
C98	C	0.888688	0.283495	0.856896
O99	O	0.337910	-0.163289	0.269447
O100	O	0.837910	0.336711	0.769447
O101	O	0.337897	-0.269742	0.444383
O102	O	0.837897	0.230258	0.944383
C103	C	0.125960	-0.245289	0.404222
C104	C	0.625960	0.254711	0.904222
C105	C	0.102498	-0.216517	0.356962
C106	C	0.602498	0.283483	0.856962
C107	C	0.125951	-0.187744	0.309690
C108	C	0.625951	0.312256	0.809690
C109	C	0.055580	-0.216521	0.356968
C110	C	0.555580	0.283479	0.856968
C111	C	0.032127	-0.245295	0.404240
C112	C	0.532127	0.254705	0.904240
C113	C	0.055591	-0.274064	0.451505
C114	C	0.555591	0.225936	0.951505
C115	C	0.102507	-0.274063	0.451493
C116	C	0.602507	0.225937	0.951493
C117	C	0.102486	-0.158974	0.262425
C118	C	0.602486	0.341026	0.762425
C119	C	0.055571	-0.158979	0.262440
C120	C	0.555571	0.341021	0.762440
C121	C	0.032118	-0.187752	0.309711
C122	C	0.532118	0.312248	0.809711
C123	C	0.677914	-0.692782	0.404368
C124	C	1.177914	-0.192782	0.904368
C125	C	0.677962	-0.880455	0.404413
C126	C	1.177962	-0.380455	0.904413
O127	O	0.702374	-0.904691	0.444762
O128	O	1.202374	-0.404691	0.944762
N129	N	0.649256	-0.903956	0.357004
N130	N	1.149256	-0.403956	0.857004
C131	C	0.620534	-0.880537	0.309584
C132	C	1.120534	-0.380537	0.809584
O133	O	0.596115	-0.904832	0.269267
O134	O	1.096115	-0.404832	0.769267
C135	C	0.620483	-0.692864	0.309544
C136	C	1.120483	-0.192864	0.809544
C137	C	0.649194	-0.669365	0.356951
C138	C	1.149194	-0.169365	0.856951
C139	C	0.706622	-0.669282	0.451772
C140	C	1.206622	-0.169282	0.951772
C141	C	0.706611	-0.622367	0.451757
C142	C	1.206611	-0.122367	0.951757
C143	C	0.677892	-0.598951	0.404340
C144	C	1.177892	-0.098951	0.904340
C145	C	0.649184	-0.622450	0.356936
C146	C	1.149184	-0.122450	0.856936
C147	C	0.591759	-0.669446	0.262129
C148	C	1.091759	-0.169446	0.762129
C149	C	0.591748	-0.622525	0.262124
C150	C	1.091748	-0.122525	0.762124
C151	C	0.620459	-0.599026	0.309531
C152	C	1.120459	-0.099026	0.809531
C153	C	0.620453	-0.552118	0.309504
C154	C	1.120453	-0.052118	0.809504
N155	N	0.649160	-0.528617	0.356913
N156	N	1.149160	-0.028617	0.856913
C157	C	0.677879	-0.552033	0.404331
C158	C	1.177879	-0.052033	0.904331
C159	C	0.620563	-0.979067	0.309608
C160	C	1.120563	-0.479067	0.809608
C161	C	0.620576	-1.025985	0.309617
C162	C	1.120576	-0.525985	0.809617
C163	C	0.678004	-1.025900	0.404447
C164	C	1.178004	-0.525900	0.904447
C165	C	0.677993	-0.978981	0.404433
C166	C	1.177993	-0.478981	0.904433
C167	C	0.649269	-0.955566	0.357017
C168	C	1.149269	-0.455566	0.857017
C169	C	0.677854	-0.453507	0.404296
C170	C	1.177854	0.046493	0.904296
C171	C	0.677842	-0.406587	0.404275
C172	C	1.177842	0.093413	0.904275
C173	C	0.620413	-0.406677	0.309449
C174	C	1.120413	0.093323	0.809449
C175	C	0.620426	-0.453592	0.309466
C176	C	1.120426	0.046408	0.809466
C177	C	0.649149	-0.477006	0.356896
C178	C	1.149149	0.022994	0.856896
O179	O	0.596051	-0.527852	0.269182
O180	O	1.096051	-0.027852	0.769182
O181	O	0.702287	-0.527729	0.444654
O182	O	1.202287	-0.027729	0.944654
C183	C	0.677924	-0.739697	0.404383
C184	C	1.177924	-0.239697	0.904383
C185	C	0.649216	-0.763196	0.356980
C186	C	1.149216	-0.263196	0.856980
C187	C	0.620496	-0.739780	0.309562
C188	C	1.120496	-0.239780	0.809562
C189	C	0.649229	-0.810114	0.356989
C190	C	1.149229	-0.310114	0.856989
C191	C	0.677948	-0.833530	0.404406
C192	C	1.177948	-0.333530	0.904406
C193	C	0.706654	-0.810029	0.451815
C194	C	1.206654	-0.310029	0.951815
C195	C	0.706644	-0.763113	0.451801
C196	C	1.206644	-0.263113	0.951801
C197	C	0.591790	-0.763281	0.262153
C198	C	1.091790	-0.263281	0.762153
C199	C	0.591804	-0.810197	0.262171
C200	C	1.091804	-0.310197	0.762171
C201	C	0.620523	-0.833613	0.309589
C202	C	1.120523	-0.333613	0.809589
C203	C	0.766358	-0.216534	0.356976
C204	C	1.266358	0.283466	0.856976
C205	C	0.816293	-0.216542	0.356999
C206	C	1.316293	0.283458	0.856999
C207	C	0.649206	-0.216503	0.550084
C208	C	1.149206	0.283497	1.050084
C209	C	0.649217	-0.216498	0.632398
C210	C	1.149217	0.283502	1.132398
C211	C	0.649261	-0.099336	0.357001
C212	C	1.149261	0.400664	0.857001
C213	C	0.649295	-0.049401	0.357035
C214	C	1.149295	0.450599	0.857035
C215	C	0.649180	-0.216493	0.164512
C216	C	1.149180	0.283507	0.664512
C217	C	0.649256	-0.216371	0.082198
C218	C	1.149256	0.283629	0.582198
C219	C	0.649243	-0.216414	0.931489
C220	C	1.149243	0.283586	1.431489
C221	C	0.614380	-0.251017	0.900125
C222	C	1.114380	0.248983	1.400125
C223	C	0.614474	-0.251177	0.814506
C224	C	1.114474	0.248823	1.314506
C225	C	0.649230	-0.216456	0.783107
C226	C	1.149230	0.283544	1.283107
C227	C	0.696562	-0.229311	0.814215
C228	C	1.196562	0.270689	1.314215
C229	C	0.696367	-0.229538	0.899859
C230	C	1.196367	0.270462	1.399859
C231	C	0.637186	-0.168878	0.899926
C232	C	1.137186	0.331122	1.399926
C233	C	0.636133	-0.169153	0.814275
C234	C	1.136133	0.330847	1.314275
C235	C	0.649225	-0.216478	0.699247
C236	C	1.149225	0.283522	1.199247
C237	C	0.649251	-0.216392	1.015349
C238	C	1.149251	0.283608	1.515349
H239	H	0.478170	-0.268705	0.442623
H240	H	0.978170	0.231295	0.942623
H241	H	-0.179346	-0.268743	0.442758
H242	H	0.320654	0.231257	0.942758
H243	H	0.597051	-0.472726	0.270858
H244	H	1.097051	0.027274	0.770858
H245	H	0.262352	-0.297488	0.489947
H246	H	0.762352	0.202512	0.989947
H247	H	0.121577	-0.135543	0.223930
H248	H	0.621577	0.364457	0.723930
H249	H	0.701389	-1.044973	0.443055
H250	H	1.201389	-0.544973	0.943055
H251	H	0.706960	-0.263690	0.792763
H252	H	1.206960	0.236310	1.292763
H253	H	0.729989	-0.603237	0.490362
H254	H	1.229989	-0.103237	0.990362
H255	H	0.730009	-0.688343	0.490389
H256	H	1.230009	-0.188343	0.990389
H257	H	0.723235	-0.204899	0.793879
H258	H	1.223235	0.295101	1.293879
H259	H	0.177247	-0.297490	0.489969
H260	H	0.677247	0.202510	0.989969
H261	H	-0.179353	-0.164342	0.271234
H262	H	0.320647	0.335658	0.771234
H263	H	0.723223	-0.205429	0.920610
H264	H	1.223223	0.294571	1.420610
H265	H	0.701372	-0.959851	0.443036
H266	H	1.201372	-0.459851	0.943036
H267	H	0.177227	-0.135530	0.223917
H268	H	0.677227	0.364470	0.723917
H269	H	0.603272	-0.157167	0.921512
H270	H	1.103272	0.342833	1.421512
H271	H	0.659673	-0.142003	0.792902
H272	H	1.159673	0.357997	1.292902
H273	H	0.568424	-0.829326	0.223560
H274	H	1.068424	-0.329326	0.723560
H275	H	0.706589	-0.264287	0.919834
H276	H	1.206589	0.235713	1.419834
H277	H	0.597201	-1.045114	0.271006
H278	H	1.097201	-0.545114	0.771006
H279	H	0.597172	-0.960005	0.270994
H280	H	1.097172	-0.460005	0.770994
H281	H	0.568379	-0.688571	0.223525
H282	H	1.068379	-0.188571	0.723525
H283	H	0.601301	-0.159459	0.793942
H284	H	1.101301	0.340541	1.293942
H285	H	0.568356	-0.603462	0.223513
H286	H	1.068356	-0.103462	0.723513
H287	H	0.662578	-0.143097	0.920213
H288	H	1.162578	0.356903	1.420213
H289	H	0.568403	-0.744220	0.223541
H290	H	1.068403	-0.244220	0.723541
H291	H	-0.094224	-0.268742	0.442745
H292	H	0.405776	0.231258	0.942745
H293	H	0.393062	-0.268706	0.442657
H294	H	0.893062	0.231294	0.942657
H295	H	0.121606	-0.297494	0.489980
H296	H	0.621606	0.202506	0.989980
H297	H	0.597031	-0.387604	0.270839
H298	H	1.097031	0.112396	0.770839
H299	H	0.730023	-0.743984	0.490404
H300	H	1.230023	-0.243984	0.990404
H301	H	0.262336	-0.135521	0.223915
H302	H	0.762336	0.364479	0.723915
H303	H	-0.094246	-0.164329	0.271225
H304	H	0.405754	0.335671	0.771225
H305	H	0.730040	-0.829103	0.490422
H306	H	1.230040	-0.329103	0.990422
H307	H	0.701224	-0.387456	0.442879
H308	H	1.201224	0.112544	0.942879
H309	H	0.579376	-0.243133	0.793472
H310	H	1.079376	0.256867	1.293472
H311	H	0.579176	-0.243054	0.920709
H312	H	1.079176	0.256946	1.420709
H313	H	0.478158	-0.164299	0.271108
H314	H	0.978158	0.335701	0.771108
H315	H	0.393035	-0.164299	0.271126
H316	H	0.893035	0.335701	0.771126
H317	H	0.036487	-0.297494	0.489993
H318	H	0.536487	0.202506	0.989993
H319	H	0.036472	-0.135548	0.223946
H320	H	0.536472	0.364452	0.723946
H321	H	0.701240	-0.472565	0.442923
H322	H	1.201240	0.027435	0.942923
H323	H	0.622261	-0.286037	0.921641
H324	H	1.122261	0.213963	1.421641
H325	H	0.622434	-0.286412	0.794014
H326	H	1.122434	0.213588	1.294014
