data_functionalizedCrystal
_audit_creation_method	'MofGen! by Chris Wilmer'
_symmetry_space_group_name_H-M	'P1'
_symmetry_Int_Tables_number	1
_symmetry_cell_setting	triclinic
loop_
_symmetry_equiv_pos_as_xyz
  x,y,z
_cell_length_a	12.827893
_cell_length_b	17.077402
_cell_length_c	17.077396
_cell_angle_alpha	90.029784
_cell_angle_beta	89.982387
_cell_angle_gamma	89.977146
loop_
_atom_site_label
_atom_site_type_symbol
_atom_site_fract_x
_atom_site_fract_y
_atom_site_fract_z
Zn1	Zn	1.597598	0.312509	-0.443796
Zn2	Zn	2.097598	0.812509	0.056204
Zn3	Zn	1.597474	0.443784	-0.312527
Zn4	Zn	2.097474	0.943784	0.187473
Zn5	Zn	1.422845	0.312536	-0.312548
Zn6	Zn	1.922845	0.812536	0.187452
Zn7	Zn	1.422802	0.443736	-0.443755
Zn8	Zn	1.922802	0.943736	0.056245
O9	O	1.510180	0.378141	-0.378157
O10	O	2.010180	0.878141	0.121843
O11	O	1.743818	0.329931	-0.426391
O12	O	2.243818	0.829931	0.073609
O13	O	1.574275	0.426404	-0.202683
O14	O	2.074275	0.926404	0.297317
O15	O	1.446096	0.202685	-0.329985
O16	O	1.946096	0.702685	0.170015
O17	O	1.743727	0.426378	-0.329948
O18	O	2.243727	0.926378	0.170052
O19	O	1.574486	0.202665	-0.426412
O20	O	2.074486	0.702665	0.073588
O21	O	1.445976	0.329977	-0.202699
O22	O	1.945976	0.829977	0.297301
O23	O	1.276603	0.329931	-0.329945
O24	O	1.776603	0.829931	0.170055
O25	O	1.446023	0.426298	-0.553607
O26	O	1.946023	0.926298	-0.053607
O27	O	1.276572	0.426324	-0.426342
O28	O	1.776572	0.926324	0.073658
O29	O	1.574445	0.329885	-0.553638
O30	O	2.074445	0.829885	-0.053638
O31	O	1.574234	0.553624	-0.329909
O32	O	2.074234	1.053624	0.170091
O33	O	1.445903	0.553590	-0.426321
O34	O	1.945903	1.053590	0.073679
C35	C	1.510079	0.582089	-0.378125
C36	C	2.010079	1.082089	0.121875
C37	C	1.510131	0.669339	-0.378138
C38	C	2.010131	1.169339	0.121862
C39	C	1.238670	0.378126	-0.378142
C40	C	1.738670	0.878126	0.121858
C41	C	1.122517	0.378138	-0.378154
C42	C	1.622517	0.878138	0.121846
C43	C	1.510243	0.378083	-0.582901
C44	C	2.010243	0.878083	-0.082901
C45	C	1.510270	0.378059	-0.670151
C46	C	2.010270	0.878059	-0.170151
C47	C	1.070744	0.425911	-0.425781
C48	C	1.570744	0.925911	0.074219
C49	C	0.950694	0.425925	-0.425794
C50	C	1.450694	0.925925	0.074206
C51	C	1.782750	0.378157	-0.378172
C52	C	2.282750	0.878157	0.121828
C53	C	1.898903	0.378164	-0.378179
C54	C	2.398903	0.878164	0.121821
C55	C	1.510309	0.173397	-0.378205
C56	C	2.010309	0.673397	0.121795
C57	C	1.510365	0.086147	-0.378226
C58	C	2.010365	0.586147	0.121774
C59	C	1.577022	0.710321	-0.327990
C60	C	2.077022	1.210321	0.172010
C61	C	1.577073	0.792301	-0.328010
C62	C	2.077073	1.292301	0.171990
C63	C	1.510227	0.833298	-0.378175
C64	C	2.010227	1.333298	0.121825
C65	C	1.443334	0.792310	-0.428328
C66	C	1.943334	1.292310	0.071672
C67	C	1.443289	0.710331	-0.428312
C68	C	1.943289	1.210331	0.071688
C69	C	1.443431	0.963180	-0.428358
C70	C	1.943431	1.463180	0.071642
C71	C	1.443474	1.045165	-0.428374
C72	C	1.943474	1.545165	0.071626
C73	C	1.577215	1.045150	-0.328056
C74	C	2.077215	1.545150	0.171944
C75	C	1.577170	0.963171	-0.328040
C76	C	2.077170	1.463171	0.171960
C77	C	1.510275	0.922189	-0.378193
C78	C	2.010275	1.422189	0.121807
C79	C	1.577142	0.327853	-0.711158
C80	C	2.077142	0.827853	-0.211158
C81	C	1.577154	0.327826	-0.793138
C82	C	2.077154	0.827826	-0.293138
C83	C	1.510300	0.378011	-0.834110
C84	C	2.010300	0.878011	-0.334110
C85	C	1.443420	0.428219	-0.793097
C86	C	1.943420	0.928219	-0.293097
C87	C	1.443403	0.428241	-0.711118
C88	C	1.943403	0.928241	-0.211118
C89	C	1.443463	0.428172	-0.963968
C90	C	1.943463	0.928172	-0.463968
C91	C	1.443481	0.428152	-1.045952
C92	C	1.943481	0.928152	-0.545952
C93	C	1.577213	0.327758	-1.045988
C94	C	2.077213	0.827758	-0.545988
C95	C	1.577196	0.327779	-0.964009
C96	C	2.077196	0.827779	-0.464009
C97	C	1.510318	0.377989	-0.923001
C98	C	2.010318	0.877989	-0.423001
C99	C	1.510177	0.378142	-0.174209
C100	C	2.010177	0.878142	0.325791
C101	C	1.510352	0.377946	-0.086959
C102	C	2.010352	0.877946	0.413041
H103	H	1.115296	0.466798	-0.466548
H104	H	1.615296	0.966798	0.033452
H105	H	1.631686	1.078522	-0.287223
H106	H	2.131686	1.578522	0.212777
Br107	Br	1.667938	0.259678	-0.908404
Br108	Br	2.167938	0.759678	-0.408404
Br109	Br	1.352695	0.496312	-0.908315
Br110	Br	1.852695	0.996312	-0.408315
Br111	Br	1.048271	0.309976	-0.310212
Br112	Br	1.548271	0.809976	0.189788
Br113	Br	1.352623	0.847948	-0.496417
Br114	Br	1.852623	1.347948	0.003583
H115	H	1.631450	0.676947	-0.287137
H116	H	2.131450	1.176947	0.212863
Br117	Br	1.352681	0.496323	-0.848701
Br118	Br	1.852681	0.996323	-0.348701
H119	H	1.388822	0.676964	-0.469149
H120	H	1.888822	1.176964	0.030851
Br121	Br	1.667886	0.259747	-0.655561
Br122	Br	2.167886	0.759747	-0.155561
Br123	Br	1.667887	0.907533	-0.259957
Br124	Br	2.167887	1.407533	0.240043
Br125	Br	1.667863	0.847917	-0.259954
Br126	Br	2.167863	1.347917	0.240046
Br127	Br	1.352649	0.907562	-0.496427
Br128	Br	1.852649	1.407562	0.003573
Br129	Br	1.667981	0.259619	-1.101639
Br130	Br	2.167981	0.759619	-0.601639
Br131	Br	1.667961	0.259723	-0.848788
Br132	Br	2.167961	0.759723	-0.348788
Br133	Br	1.352738	0.496252	-1.101557
Br134	Br	1.852738	0.996252	-0.601557
Br135	Br	1.352639	0.496376	-0.655465
Br136	Br	1.852639	0.996376	-0.155465
H137	H	0.943419	0.337264	-0.337399
H138	H	1.443419	0.837264	0.162601
Br139	Br	1.352740	1.100804	-0.496444
Br140	Br	1.852740	1.600804	0.003556
Br141	Br	0.876493	0.494105	-0.493753
Br142	Br	1.376493	0.994105	0.006247
