data_functionalizedCrystal
_audit_creation_method	'MofGen! by Chris Wilmer'
_symmetry_space_group_name_H-M	'P1'
_symmetry_Int_Tables_number	1
_symmetry_cell_setting	triclinic
loop_
_symmetry_equiv_pos_as_xyz
  x,y,z
_cell_length_a	27.732048
_cell_length_b	16.992695
_cell_length_c	16.053802
_cell_angle_alpha	87.258926
_cell_angle_beta	87.437704
_cell_angle_gamma	93.344561
loop_
_atom_site_label
_atom_site_type_symbol
_atom_site_fract_x
_atom_site_fract_y
_atom_site_fract_z
O1	O	0.646871	-0.089927	-0.069478
O2	O	0.506690	-0.104106	-0.069469
O3	O	0.576219	0.017119	-0.069467
O4	O	0.577343	-0.211152	-0.069480
O5	O	0.572391	0.010474	0.069392
O6	O	0.502862	-0.110752	0.069389
O7	O	0.643043	-0.096572	0.069381
Zn8	Zn	0.572345	-0.104717	0.091432
Zn9	Zn	0.577389	-0.095962	-0.091520
O10	O	0.573515	-0.217797	0.069379
C11	C	0.486757	-0.107132	-0.000039
C12	C	0.433063	-0.106235	-0.000035
C13	C	0.662977	-0.093547	-0.000051
C14	C	0.716671	-0.094443	-0.000060
C15	C	0.572859	0.042991	-0.000038
C16	C	0.568545	0.129983	-0.000038
C17	C	1.052632	-0.028450	-0.000028
C18	C	1.254435	-0.031776	-0.000025
O19	O	1.283080	0.028569	0.000014
N20	N	1.276667	-0.103657	-0.000032
C21	C	1.248444	-0.174713	-0.000034
O22	O	1.271984	-0.235929	-0.000031
C23	C	1.046642	-0.171387	-0.000030
C24	C	1.024413	-0.099500	-0.000032
C25	C	1.030403	0.043430	-0.000029
C26	C	0.979955	0.044261	-0.000034
C27	C	0.951736	-0.026789	-0.000038
C28	C	0.973965	-0.098669	-0.000037
C29	C	1.018420	-0.242441	-0.000026
C30	C	0.967966	-0.241604	-0.000023
C31	C	0.945738	-0.169717	-0.000025
C32	C	0.895299	-0.168888	-0.000047
N33	N	0.873067	-0.097007	-0.000040
C34	C	0.901286	-0.025957	-0.000036
C35	C	1.354394	-0.176454	-0.000037
C36	C	1.404844	-0.177285	-0.000040
C37	C	1.410831	-0.034348	-0.000030
C38	C	1.360380	-0.033517	-0.000033
C39	C	1.332162	-0.104572	-0.000031
C40	C	0.795342	-0.024218	-0.000047
C41	C	0.744889	-0.023393	-0.000056
C42	C	0.738907	-0.166330	-0.000062
C43	C	0.789355	-0.167155	-0.000057
C44	C	0.817571	-0.096092	-0.000048
O45	O	0.866623	-0.229201	-0.000077
O46	O	0.877737	0.035249	-0.000020
C47	C	1.103079	-0.029281	-0.000023
C48	C	1.125308	-0.101162	-0.000022
C49	C	1.097090	-0.172211	-0.000026
C50	C	1.175759	-0.101993	-0.000024
C51	C	1.203978	-0.030944	-0.000020
C52	C	1.181746	0.040938	-0.000013
C53	C	1.131298	0.041769	-0.000018
C54	C	1.119322	-0.244093	-0.000033
C55	C	1.169770	-0.244918	-0.000028
C56	C	1.197988	-0.173868	-0.000024
C57	C	0.576875	-0.243670	-0.000053
C58	C	0.581189	-0.330661	-0.000058
N59	N	0.568906	-0.110692	0.216292
C60	C	0.610168	0.180728	-0.000039
C61	C	0.606112	0.262466	-0.000047
C62	C	0.560432	0.293457	-0.000047
C63	C	0.518806	0.242706	-0.000048
C64	C	0.522862	0.160970	-0.000046
C65	C	0.543619	0.536851	-0.000057
C66	C	0.539565	0.618594	-0.000057
C67	C	0.626872	0.638348	-0.000057
C68	C	0.630925	0.556610	-0.000051
C69	C	0.589299	0.505866	-0.000056
N70	N	0.556285	0.377006	-0.000052
N71	N	0.593446	0.422319	-0.000057
N72	N	0.580831	-0.089980	-0.216381
C73	C	0.598503	-0.059128	0.259987
C74	C	0.596102	-0.063315	0.347394
C75	C	0.564107	-0.119070	0.391104
C76	C	0.534507	-0.170636	0.347403
C77	C	0.536906	-0.166445	0.259998
C78	C	0.553629	-0.137355	0.652513
C79	C	0.551234	-0.141544	0.739924
C80	C	0.612829	-0.034222	0.739909
C81	C	0.615226	-0.030039	0.652503
C82	C	0.585625	-0.081602	0.608809
N83	N	0.561654	-0.123353	0.480448
N84	N	0.588076	-0.077315	0.519467
H85	H	0.726794	0.035148	-0.000060
H86	H	1.433816	0.023503	-0.000029
H87	H	1.096351	-0.301952	-0.000035
H88	H	0.636928	0.007759	0.775493
H89	H	0.961861	0.102798	-0.000032
H90	H	0.640006	0.303780	-0.000046
O91	O	0.474468	0.272937	-0.000011
C92	C	0.479812	0.355962	-0.000031
H93	H	0.516049	0.374359	0.026256
H94	H	0.478428	0.381874	-0.066648
C95	C	0.394063	0.364202	0.022141
C96	C	0.438568	0.386798	0.054434
H97	H	0.368620	0.383224	0.055734
H98	H	0.390462	0.308266	0.022151
H99	H	0.392916	0.385797	-0.033373
H100	H	0.439716	0.365195	0.109942
H101	H	0.442168	0.442730	0.054434
H102	H	1.053373	0.101291	-0.000023
O103	O	1.338866	0.036380	0.000007
C104	C	1.374597	0.098907	-0.000015
H105	H	1.408956	0.076099	0.026269
H106	H	1.382721	0.123979	-0.066633
C107	C	1.314042	0.192165	0.022161
C108	C	1.356241	0.164153	0.054451
H109	H	1.302719	0.232414	0.055754
H110	H	1.289969	0.150040	0.022173
H111	H	1.320818	0.213053	-0.033353
H112	H	1.349464	0.143257	0.109959
H113	H	1.380313	0.206276	0.054449
H114	H	1.422939	-0.235822	-0.000050
H115	H	0.502365	0.643822	-0.000043
H116	H	0.525179	-0.186949	0.775509
O117	O	0.810901	-0.237025	-0.000172
C118	C	0.798753	-0.276853	-0.072102
H119	H	0.763638	-0.254785	-0.096089
H120	H	0.828957	-0.265004	-0.122452
C121	C	0.835249	-0.393281	-0.020796
C122	C	0.792117	-0.366181	-0.050253
H123	H	0.831157	-0.448382	-0.007320
H124	H	0.843435	-0.366447	0.027664
H125	H	0.860414	-0.383399	-0.062759
H126	H	0.766955	-0.376053	-0.008286
H127	H	0.783927	-0.393019	-0.098705
O128	O	0.629595	-0.004898	0.217660
C129	C	0.655211	0.039702	0.274974
H130	H	0.633658	0.037377	0.337288
H131	H	0.691828	0.014210	0.284249
C132	C	0.689312	0.128854	0.164340
C133	C	0.662839	0.126003	0.240874
H134	H	0.694020	0.182087	0.143305
H135	H	0.672056	0.098804	0.125726
H136	H	0.719824	0.107606	0.172080
H137	H	0.632326	0.147241	0.233131
H138	H	0.680090	0.156058	0.279486
H139	H	0.647365	0.155502	-0.000034
H140	H	1.331423	-0.234319	-0.000036
H141	H	1.036510	-0.300979	-0.000028
O142	O	0.940629	-0.310699	-0.000061
C143	C	0.971071	-0.374319	-0.000039
H144	H	1.008637	-0.352698	-0.026323
H145	H	0.973676	-0.399568	0.066579
C146	C	0.903920	-0.465468	-0.022215
C147	C	0.950058	-0.438915	-0.054505
H148	H	0.890957	-0.505316	-0.055809
H149	H	0.883410	-0.422607	-0.022227
H150	H	0.906097	-0.486504	0.033299
H151	H	0.947879	-0.417871	-0.110014
H152	H	0.970567	-0.481774	-0.054503
H153	H	0.529527	-0.179341	0.616945
H154	H	0.668122	0.531383	-0.000050
H155	H	0.660762	0.679672	-0.000055
O156	O	0.822801	0.044765	-0.000155
C157	C	0.854139	0.052014	-0.072081
H158	H	0.859764	-0.009014	-0.096054
H159	H	0.837559	0.090002	-0.122442
C160	C	0.896258	0.166009	-0.020792
C161	C	0.903171	0.091053	-0.050233
H162	H	0.926503	0.190094	-0.007318
H163	H	0.875145	0.161128	0.027664
H164	H	0.882441	0.197657	-0.062765
H165	H	0.916983	0.059404	-0.008257
H166	H	0.924288	0.095930	-0.098682
O167	O	0.624785	-0.013153	0.389872
C168	C	0.595664	0.032482	0.440466
H169	H	0.558233	0.034646	0.414147
H170	H	0.592262	0.004755	0.506707
C171	C	0.664985	0.114202	0.474125
C172	C	0.619012	0.116866	0.441797
H173	H	0.679388	0.166254	0.474951
H174	H	0.684605	0.083456	0.440042
H175	H	0.662143	0.091093	0.529324
H176	H	0.621855	0.139966	0.386596
H177	H	0.599393	0.147619	0.475871
H178	H	0.715922	-0.224176	-0.000069
O179	O	0.503469	-0.224772	0.389990
C180	C	0.507690	-0.217405	0.476506
H181	H	0.544643	-0.188256	0.488431
H182	H	0.478146	-0.179592	0.501332
C183	C	0.456906	-0.335614	0.506719
C184	C	0.502294	-0.299818	0.521367
H185	H	0.453575	-0.386449	0.534393
H186	H	0.454060	-0.340576	0.448432
H187	H	0.432291	-0.304095	0.527408
H188	H	0.526908	-0.331332	0.500669
H189	H	0.505144	-0.294863	0.579652
O190	O	1.209146	0.109984	-0.000157
C191	C	1.200622	0.157121	-0.072059
H192	H	1.186385	0.117945	-0.122330
H193	H	1.172762	0.201395	-0.055798
C194	C	1.265665	0.249840	-0.042916
C195	C	1.248183	0.201723	-0.104663
H196	H	1.295002	0.277355	-0.063026
H197	H	1.271407	0.218085	0.005527
H198	H	1.242444	0.286728	-0.029371
H199	H	1.271401	0.164829	-0.118200
H200	H	1.242446	0.233473	-0.153110
O201	O	1.109650	0.111544	0.000095
C202	C	1.078672	0.112877	0.072021
H203	H	1.067845	0.049806	0.095994
H204	H	1.098206	0.145409	0.122382
C205	C	1.046366	0.233049	0.020732
C206	C	1.033065	0.155583	0.050172
H207	H	1.018234	0.259395	0.007256
H208	H	1.067237	0.232153	-0.027725
H209	H	1.062645	0.260149	0.062704
H210	H	1.016792	0.128482	0.008196
H211	H	1.012190	0.156475	0.098621
O212	O	0.646165	0.024184	0.609822
C213	C	0.678987	-0.014729	0.558958
H214	H	0.681777	-0.077718	0.585283
H215	H	0.665647	-0.016029	0.492861
C216	C	0.725667	0.106973	0.524788
C217	C	0.729096	0.029611	0.557125
H218	H	0.756577	0.134325	0.523654
H219	H	0.703554	0.133190	0.559053
H220	H	0.714548	0.105879	0.469710
H221	H	0.740209	0.030706	0.612206
H222	H	0.751213	0.003395	0.522869
H223	H	1.187863	-0.303460	-0.000033
O224	O	0.508138	-0.216617	0.217679
C225	C	0.479376	-0.266715	0.274999
H226	H	0.497509	-0.270368	0.337295
H227	H	0.442249	-0.242113	0.284317
C228	C	0.451345	-0.345251	0.164360
C229	C	0.473618	-0.349743	0.240871
H230	H	0.447791	-0.396466	0.143308
H231	H	0.470721	-0.311498	0.125742
H232	H	0.420408	-0.324746	0.172136
H233	H	0.504557	-0.370238	0.233093
H234	H	0.454247	-0.383502	0.279488
H235	H	0.509724	0.495545	-0.000061
H236	H	0.488968	0.119653	-0.000045
