data_functionalizedCrystal
_audit_creation_method	'MofGen! by Chris Wilmer'
_symmetry_space_group_name_H-M	'P1'
_symmetry_Int_Tables_number	1
_symmetry_cell_setting	triclinic
loop_
_symmetry_equiv_pos_as_xyz
  x,y,z
_cell_length_a	18.215407
_cell_length_b	18.215405
_cell_length_c	12.759393
_cell_angle_alpha	90.036495
_cell_angle_beta	90.022888
_cell_angle_gamma	90.025333
loop_
_atom_site_label
_atom_site_type_symbol
_atom_site_fract_x
_atom_site_fract_y
_atom_site_fract_z
Zn1	Zn	1.125094	-0.292940	0.594031
Zn2	Zn	1.124996	-0.416024	0.418333
Zn3	Zn	1.002020	-0.292977	0.418360
Zn4	Zn	1.001993	-0.415970	0.593964
O5	O	1.063526	-0.354478	0.506172
O6	O	1.228065	-0.309274	0.570741
O7	O	1.108653	-0.399739	0.271315
O8	O	1.018399	-0.189988	0.441703
O9	O	1.227993	-0.399704	0.441656
O10	O	1.108821	-0.189960	0.570767
O11	O	1.018304	-0.309337	0.271335
O12	O	0.899032	-0.309285	0.441638
O13	O	1.018352	-0.399612	0.740994
O14	O	0.899012	-0.399648	0.570653
O15	O	1.108794	-0.309222	0.741043
O16	O	1.108627	-0.519001	0.441591
O17	O	1.018257	-0.518962	0.570627
C18	C	0.872319	-0.354465	0.506142
C19	C	0.790521	-0.354477	0.506154
C20	C	0.602335	-0.401603	0.573248
C21	C	0.525477	-0.401606	0.573261
C22	C	0.525468	-0.307365	0.439119
C23	C	0.602325	-0.307360	0.439112
C24	C	0.640757	-0.354483	0.506175
C25	C	0.487041	-0.354491	0.506195
C26	C	0.403707	-0.354493	0.506209
C27	C	0.724096	-0.354480	0.506163
C28	C	1.063448	-0.545684	0.506121
C29	C	1.063482	-0.627483	0.506135
C30	C	1.110648	-0.815673	0.439070
C31	C	1.110681	-0.892532	0.439095
C32	C	1.016497	-0.892530	0.573350
C33	C	1.016469	-0.815673	0.573329
C34	C	1.063543	-0.777246	0.506183
C35	C	1.063605	-0.930962	0.506229
C36	C	1.063640	-1.014296	0.506257
C37	C	1.063509	-0.693907	0.506156
C38	C	1.255479	-0.354491	0.506203
C39	C	1.337278	-0.354496	0.506216
C40	C	1.063581	-0.354407	0.780205
C41	C	1.063604	-0.354377	0.896982
C42	C	1.063624	-0.162525	0.506246
C43	C	1.063666	-0.080726	0.506277
C44	C	1.063513	-0.354495	0.233205
C45	C	1.063632	-0.354318	0.116428
C46	C	1.110701	-0.307303	0.951871
C47	C	1.110713	-0.307272	1.061596
C48	C	1.016530	-0.401393	1.061531
C49	C	1.016515	-0.401421	0.951809
H50	H	0.633609	-0.268984	0.384493
Cl51	Cl	0.957298	-0.460600	0.882800
Cl52	Cl	1.169896	-0.248160	0.882950
H53	H	0.978170	-0.923827	0.628016
Cl54	Cl	1.169904	-0.940836	0.354723
H55	H	1.148980	-0.784388	0.384397
H56	H	1.149063	-0.268939	1.106282
H57	H	0.978193	-0.439696	1.106185
Cl58	Cl	0.957250	-0.767362	0.657712
H59	H	0.633624	-0.439972	0.627857
H60	H	0.494197	-0.439975	0.627880
H61	H	0.494168	-0.269001	0.384517
