data_functionalizedCrystal
_audit_creation_method	'MofGen! by Chris Wilmer'
_symmetry_space_group_name_H-M	'P1'
_symmetry_Int_Tables_number	1
_symmetry_cell_setting	triclinic
loop_
_symmetry_equiv_pos_as_xyz
  x,y,z
_cell_length_a	14.519709
_cell_length_b	9.130313
_cell_length_c	10.654550
_cell_angle_alpha	89.999890
_cell_angle_beta	84.082524
_cell_angle_gamma	90.005376
loop_
_atom_site_label
_atom_site_type_symbol
_atom_site_fract_x
_atom_site_fract_y
_atom_site_fract_z
O1	O	1.224716	-0.121605	0.164617
O2	O	0.956339	-0.121649	0.184004
O3	O	1.096698	-0.121620	-0.008488
O4	O	1.084357	-0.121633	0.357109
O5	O	1.096696	0.121978	-0.008483
O6	O	0.956338	0.121950	0.184009
O7	O	1.224714	0.121994	0.164623
Cu8	Cu	1.090526	0.144215	0.174316
Cu9	Cu	1.090528	-0.143869	0.174310
O10	O	1.084355	0.121966	0.357114
C11	C	0.921974	0.000145	0.183103
C12	C	0.819579	0.000128	0.180396
N13	N	1.090531	0.346837	0.174320
N14	N	1.090530	-0.346492	0.174297
C15	C	0.444631	0.000195	0.170428
C16	C	0.548954	0.000176	0.173196
C17	C	0.632102	0.000160	0.175412
C18	C	0.736431	0.000144	0.178180
C19	C	1.259079	0.000197	0.165524
C20	C	1.361475	0.000205	0.168231
C21	C	1.095791	0.000177	-0.055275
C22	C	1.093080	0.000172	-0.194692
C23	C	1.152698	0.423502	0.089113
C24	C	1.152695	0.576839	0.089098
C25	C	1.028356	0.576833	0.259507
C26	C	1.028355	0.423499	0.259515
C27	C	1.214874	0.346840	0.003918
C28	C	1.277047	0.423505	-0.081295
C29	C	1.277044	0.576842	-0.081310
C30	C	1.214869	0.653514	0.003888
C31	C	1.175721	0.000190	-0.274972
C32	C	1.173168	0.000179	-0.405968
C33	C	1.005326	0.000138	-0.376391
C34	C	1.007880	0.000138	-0.245397
C35	C	1.260921	0.000223	-0.224266
C36	C	1.343569	0.000242	-0.304548
C37	C	1.341016	0.000232	-0.435544
C38	C	1.255815	0.000201	-0.486259
C39	C	1.085262	0.000165	0.403901
C40	C	1.087973	0.000161	0.543318
H41	H	1.327663	0.361071	-0.150667
H42	H	1.263009	0.000236	-0.117604
C43	C	0.918055	0.000191	-0.158435
C44	C	0.842894	0.000211	-0.230875
C45	C	0.760132	0.000268	-0.150809
H46	H	0.915439	-0.084738	-0.106696
H47	H	0.915509	0.085170	-0.106734
H48	H	0.845439	-0.084760	-0.282554
H49	H	0.845480	0.085133	-0.282612
H50	H	0.757586	0.085247	-0.099107
H51	H	0.757526	-0.084662	-0.099073
H52	H	0.709126	0.000295	-0.199947
H53	H	1.327661	0.639261	-0.150701
H54	H	0.935960	0.000116	-0.417694
H55	H	0.977736	0.639269	0.328873
H56	H	1.412936	0.000231	-0.263247
C57	C	0.960823	0.340516	0.352170
C58	C	0.906395	0.440468	0.426810
C59	C	0.844180	0.364077	0.512186
H60	H	0.922063	0.280685	0.307024
H61	H	0.994308	0.280740	0.404621
H62	H	0.872913	0.500218	0.374366
H63	H	0.945131	0.500301	0.471984
H64	H	0.877665	0.304302	0.564637
H65	H	0.805426	0.304249	0.467029
H66	H	0.807249	0.431883	0.562847
H67	H	1.214866	0.778371	0.003860
C68	C	1.430714	-0.000059	-0.522768
C69	C	1.434170	-0.125408	-0.598807
C70	C	1.516795	-0.125730	-0.679157
H71	H	1.433294	0.084787	-0.574606
H72	H	1.481844	-0.000120	-0.473846
H73	H	1.383055	-0.125334	-0.647724
H74	H	1.431607	-0.210274	-0.547003
H75	H	1.567924	-0.125792	-0.630236
H76	H	1.519367	-0.040880	-0.730987
H77	H	1.519155	-0.210784	-0.730751
H78	H	1.214884	0.221986	0.003925
H79	H	1.253743	0.000177	-0.592926
