data_functionalizedCrystal
_audit_creation_method	'MofGen! by Chris Wilmer'
_symmetry_space_group_name_H-M	'P1'
_symmetry_Int_Tables_number	1
_symmetry_cell_setting	triclinic
loop_
_symmetry_equiv_pos_as_xyz
  x,y,z
_cell_length_a	15.995292
_cell_length_b	10.654541
_cell_length_c	9.130307
_cell_angle_alpha	90.000178
_cell_angle_beta	89.999900
_cell_angle_gamma	96.023728
loop_
_atom_site_label
_atom_site_type_symbol
_atom_site_fract_x
_atom_site_fract_y
_atom_site_fract_z
O1	O	0.117595	-1.666266	-0.121743
O2	O	0.128801	-1.300637	-0.121755
O3	O	0.001365	-1.493484	-0.121751
O4	O	0.245031	-1.473418	-0.121747
O5	O	0.001364	-1.493478	0.121848
O6	O	0.128800	-1.300630	0.121844
O7	O	0.117593	-1.666259	0.121856
Cu8	Cu	0.123197	-1.483444	0.144093
Cu9	Cu	0.123198	-1.483452	-0.143992
O10	O	0.245029	-1.473412	0.121852
C11	C	0.127978	-1.253847	0.000043
C12	C	0.125518	-1.114436	0.000038
N13	N	0.123195	-1.483448	0.346715
C14	C	-0.029836	-1.492664	0.000045
C15	C	-0.122803	-1.490216	0.000034
C16	C	-0.460594	-1.481215	0.000047
C17	C	-0.436474	-1.620407	0.000596
C18	C	-0.339783	-1.623052	0.000041
C19	C	-0.293012	-1.485681	0.000041
C20	C	-0.322516	-1.416095	-0.139063
C21	C	-0.419316	-1.414420	-0.139175
C22	C	-0.419191	-1.411570	0.137843
C23	C	-0.322669	-1.416728	0.139676
C24	C	-0.198301	-1.488198	0.000033
C25	C	-0.555304	-1.478694	0.000045
C26	C	0.276230	-1.474232	0.000053
C27	C	0.369198	-1.476680	0.000054
C28	C	0.118416	-1.713050	0.000055
C29	C	0.120877	-1.852460	0.000050
C30	C	0.277902	-1.084427	0.000022
C31	C	0.352935	-1.003929	0.000008
C32	C	0.350618	-0.872942	0.000007
C33	C	0.273260	-0.822451	0.000024
C34	C	0.198227	-0.902949	0.000038
C35	C	0.200552	-1.033938	0.000035
C36	C	0.045844	-0.932958	0.000064
C37	C	0.048159	-1.063946	0.000055
C38	C	-0.031514	-0.882468	0.000081
C39	C	-0.106549	-0.962966	0.000084
C40	C	-0.104228	-1.093960	0.000084
C41	C	-0.026873	-1.144443	0.000069
N42	N	0.123193	-1.483458	-0.346614
C43	C	0.010383	-1.654284	0.346709
C44	C	-0.046020	-1.739710	0.423372
C45	C	-0.046020	-1.739722	0.576706
C46	C	0.010387	-1.654297	0.653379
C47	C	0.066790	-1.568871	0.576716
C48	C	0.066786	-1.568870	0.423379
C49	C	0.179596	-1.398032	0.576722
C50	C	0.179602	-1.398023	0.423389
C51	C	0.236004	-1.312607	0.653396
C52	C	0.292412	-1.227184	0.576732
C53	C	0.292411	-1.227176	0.423390
C54	C	0.236006	-1.312597	0.346725
H55	H	-0.320442	-1.677550	0.099755
F56	F	0.010375	-1.654299	0.816571
F57	F	-0.280338	-1.285668	0.150659
H58	H	0.338331	-1.157632	0.639169
H59	H	0.415919	-1.045053	-0.000002
H60	H	-0.433776	-1.309114	0.138780
F61	F	-0.281627	-1.283969	-0.145833
H62	H	-0.091948	-1.809260	0.360931
H63	H	-0.033395	-0.775810	0.000088
F64	F	0.270797	-0.683042	0.000044
F65	F	-0.298013	-1.482948	0.274189
H66	H	0.236003	-1.312603	0.221873
H67	H	0.010385	-1.654293	0.221857
H68	H	0.411716	-0.807399	0.000006
F69	F	-0.315306	-1.694708	-0.130521
H70	H	-0.302174	-1.464423	-0.242584
H71	H	-0.464160	-1.674055	0.100354
F72	F	-0.473995	-1.690150	-0.129059
H73	H	0.235997	-1.312615	0.778248
H74	H	0.338338	-1.157608	0.360978
F75	F	-0.188869	-0.909222	0.000114
H76	H	-0.445852	-1.462617	-0.243158
F77	F	0.280374	-1.223834	-0.000000
F78	F	-0.184091	-1.179624	0.000109
H79	H	-0.434458	-1.312363	-0.145477
H80	H	-0.447026	-1.455402	0.243284
F81	F	-0.024397	-1.283850	0.000060
H82	H	-0.091952	-1.809279	0.639125
