data_functionalizedCrystal
_audit_creation_method	'MofGen! by Chris Wilmer'
_symmetry_space_group_name_H-M	'P1'
_symmetry_Int_Tables_number	1
_symmetry_cell_setting	triclinic
loop_
_symmetry_equiv_pos_as_xyz
  x,y,z
_cell_length_a	27.732048
_cell_length_b	26.809956
_cell_length_c	17.038275
_cell_angle_alpha	89.986790
_cell_angle_beta	93.123535
_cell_angle_gamma	90.010552
loop_
_atom_site_label
_atom_site_type_symbol
_atom_site_fract_x
_atom_site_fract_y
_atom_site_fract_z
O1	O	0.645188	0.041425	-0.092982
O2	O	1.145188	0.541425	0.407018
O3	O	0.505041	0.041442	-0.107120
O4	O	1.005041	0.541442	0.392880
O5	O	0.574282	0.041418	0.013755
O6	O	1.074282	0.541418	0.513755
O7	O	0.575947	0.041449	-0.213857
O8	O	1.075947	0.541449	0.286143
O9	O	0.574259	-0.041541	0.013755
O10	O	1.074259	0.458459	0.513755
O11	O	0.505018	-0.041518	-0.107120
O12	O	1.005018	0.458482	0.392880
O13	O	0.645165	-0.041534	-0.092982
O14	O	1.145165	0.458466	0.407018
Zn15	Zn	0.575088	-0.054697	-0.100051
Zn16	Zn	1.075088	0.445303	0.399949
Zn17	Zn	0.575118	0.054605	-0.100051
Zn18	Zn	1.075118	0.554605	0.399949
O19	O	0.575924	-0.041510	-0.213857
O20	O	1.075924	0.458490	0.286143
C21	C	0.487009	-0.000036	-0.106824
C22	C	0.987009	0.499964	0.393176
C23	C	0.433313	-0.000031	-0.105930
C24	C	0.933313	0.499969	0.394070
C25	C	0.097508	-0.000043	-0.171733
C26	C	0.597508	0.499957	0.328267
C27	C	-0.104303	-0.000048	-0.168417
C28	C	0.395697	0.499952	0.331583
O29	O	-0.132807	-0.000061	-0.228589
O30	O	0.367193	0.499939	0.271411
N31	N	-0.126705	-0.000057	-0.096743
N32	N	0.373295	0.499943	0.403257
C33	C	-0.098651	-0.000068	-0.025894
C34	C	0.401349	0.499932	0.474106
O35	O	-0.122336	-0.000081	0.035145
O36	O	0.377664	0.499919	0.535145
C37	C	0.103159	-0.000067	-0.029210
C38	C	0.603159	0.499933	0.470790
C39	C	0.125558	-0.000053	-0.100889
C40	C	0.625558	0.499947	0.399111
C41	C	0.119907	-0.000030	-0.243406
C42	C	0.619907	0.499970	0.256594
C43	C	0.170357	-0.000026	-0.244234
C44	C	0.670357	0.499974	0.255766
C45	C	0.198407	-0.000035	-0.173389
C46	C	0.698407	0.499965	0.326611
C47	C	0.176008	-0.000049	-0.101717
C48	C	0.676008	0.499951	0.398283
C49	C	0.131213	-0.000081	0.041639
C50	C	0.631213	0.499919	0.541639
C51	C	0.181668	-0.000082	0.040803
C52	C	0.681668	0.499918	0.540803
C53	C	0.204067	-0.000068	-0.030875
C54	C	0.704067	0.499932	0.469125
C55	C	0.254509	-0.000054	-0.031700
C56	C	0.754509	0.499946	0.468300
N57	N	0.276910	-0.000045	-0.103374
N58	N	0.776910	0.499955	0.396626
C59	C	0.248860	-0.000036	-0.174219
C60	C	0.748860	0.499964	0.325781
C61	C	-0.204604	-0.000068	-0.024157
C62	C	0.295396	0.499932	0.475843
C63	C	-0.255057	-0.000067	-0.023328
C64	C	0.244943	0.499933	0.476672
C65	C	-0.260706	-0.000048	-0.165852
C66	C	0.239294	0.499952	0.334148
C67	C	-0.210253	-0.000045	-0.166681
C68	C	0.289747	0.499955	0.333319
C69	C	-0.182203	-0.000059	-0.095831
C70	C	0.317797	0.499941	0.404169
C71	C	0.354808	-0.000027	-0.175952
C72	C	0.854808	0.499973	0.324048
C73	C	0.405263	-0.000021	-0.176774
C74	C	0.905263	0.499979	0.323226
C75	C	0.410907	-0.000043	-0.034251
C76	C	0.910907	0.499957	0.465749
C77	C	0.360457	-0.000046	-0.033428
C78	C	0.860457	0.499954	0.466572
C79	C	0.332409	-0.000040	-0.104286
C80	C	0.832409	0.499960	0.395714
O81	O	0.283042	-0.000046	0.028440
O82	O	0.783042	0.499954	0.528440
O83	O	0.272554	-0.000034	-0.235249
O84	O	0.772554	0.499966	0.264751
C85	C	0.047058	-0.000047	-0.170905
C86	C	0.547058	0.499953	0.329095
C87	C	0.024659	-0.000060	-0.099232
C88	C	0.524659	0.499940	0.400768
C89	C	0.052709	-0.000070	-0.028388
C90	C	0.552709	0.499930	0.471612
C91	C	-0.025794	-0.000060	-0.098403
C92	C	0.474206	0.499940	0.401597
C93	C	-0.053844	-0.000050	-0.169247
C94	C	0.446156	0.499950	0.330753
C95	C	-0.031442	-0.000042	-0.240921
C96	C	0.468558	0.499958	0.259079
C97	C	0.019007	-0.000038	-0.241749
C98	C	0.519007	0.499962	0.258251
C99	C	0.030308	-0.000079	0.043286
C100	C	0.530308	0.499921	0.543286
C101	C	-0.020143	-0.000082	0.044108
C102	C	0.479857	0.499918	0.544108
C103	C	-0.048193	-0.000073	-0.026736
C104	C	0.451807	0.499927	0.473264
C105	C	0.572756	-0.000064	0.042865
C106	C	1.072756	0.499936	0.542865
C107	C	0.568236	-0.000073	0.129605
C108	C	1.068236	0.499927	0.629605
C109	C	0.663197	-0.000055	-0.093279
C110	C	1.163197	0.499945	0.406721
C111	C	0.716893	-0.000058	-0.094172
C112	C	1.216893	0.499942	0.405828
N113	N	0.575071	-0.129293	-0.100051
N114	N	1.075071	0.370707	0.399949
C115	C	0.606361	-0.473916	-0.147113
C116	C	1.106361	0.026084	0.352887
C117	C	0.606377	-0.682794	-0.147112
C118	C	1.106377	-0.182794	0.352888
O119	O	0.632967	-0.709795	-0.187117
O120	O	1.132967	-0.209795	0.312883
N121	N	0.575129	-0.708920	-0.100043
N122	N	1.075129	-0.208920	0.399957
C123	C	0.543878	-0.682824	-0.052967
C124	C	1.043878	-0.182824	0.447033
O125	O	0.517304	-0.709839	-0.012926
O126	O	1.017304	-0.209839	0.487074
C127	C	0.543865	-0.473948	-0.052964
C128	C	1.043865	0.026052	0.447036
C129	C	0.575111	-0.447824	-0.100042
C130	C	1.075111	0.052176	0.399958
C131	C	0.637605	-0.447793	-0.194186
C132	C	1.137605	0.052207	0.305814
C133	C	0.637599	-0.395576	-0.194189
C134	C	1.137599	0.104424	0.305811
C135	C	0.606349	-0.369484	-0.147118
C136	C	1.106349	0.130516	0.352882
C137	C	0.575105	-0.395608	-0.100045
C138	C	1.075105	0.104392	0.399955
C139	C	0.512617	-0.447852	-0.005885
C140	C	1.012617	0.052148	0.494115
C141	C	0.512617	-0.395630	-0.005887
C142	C	1.012617	0.104370	0.494113
C143	C	0.543863	-0.369506	-0.052965
C144	C	1.043863	0.130494	0.447035
C145	C	0.543849	-0.317299	-0.052978
C146	C	1.043849	0.182701	0.447022
N147	N	0.575097	-0.291172	-0.100046
N148	N	1.075097	0.208828	0.399954
C149	C	0.606346	-0.317265	-0.147117
C150	C	1.106346	0.182735	0.352883
C151	C	0.543886	-0.792488	-0.052973
C152	C	1.043886	-0.292488	0.447027
C153	C	0.543889	-0.844707	-0.052975
C154	C	1.043889	-0.344707	0.447025
C155	C	0.606388	-0.844673	-0.147119
C156	C	1.106388	-0.344673	0.352881
C157	C	0.606383	-0.792453	-0.147121
C158	C	1.106383	-0.292453	0.352879
C159	C	0.575134	-0.766361	-0.100042
C160	C	1.075134	-0.266361	0.399958
C161	C	0.606331	-0.207607	-0.147120
C162	C	1.106331	0.292393	0.352880
C163	C	0.606321	-0.155386	-0.147121
C164	C	1.106321	0.344614	0.352879
C165	C	0.543823	-0.155424	-0.052975
C166	C	1.043823	0.344576	0.447025
C167	C	0.543832	-0.207641	-0.052976
C168	C	1.043832	0.292359	0.447024
C169	C	0.575089	-0.233731	-0.100051
C170	C	1.075089	0.266269	0.399949
O171	O	0.517276	-0.290265	-0.012987
O172	O	1.017276	0.209735	0.487013
O173	O	0.632924	-0.290241	-0.187139
O174	O	1.132924	0.209759	0.312861
C175	C	0.606367	-0.526133	-0.147110
C176	C	1.106367	-0.026133	0.352890
C177	C	0.575123	-0.552256	-0.100036
C178	C	1.075123	-0.052256	0.399964
C179	C	0.543874	-0.526164	-0.052966
C180	C	1.043874	-0.026164	0.447034
C181	C	0.575126	-0.604475	-0.100038
C182	C	1.075126	-0.104475	0.399962
C183	C	0.606376	-0.630568	-0.147108
C184	C	1.106376	-0.130568	0.352892
C185	C	0.637623	-0.604441	-0.194177
C186	C	1.137623	-0.104441	0.305823
C187	C	0.637617	-0.552225	-0.194180
C188	C	1.137617	-0.052225	0.305820
C189	C	0.512626	-0.552290	-0.005897
C190	C	1.012626	-0.052290	0.494103
C191	C	0.512634	-0.604507	-0.005899
C192	C	1.012634	-0.104507	0.494101
C193	C	0.543884	-0.630599	-0.052969
C194	C	1.043884	-0.130599	0.447031
N195	N	0.575139	0.129201	-0.100045
N196	N	1.075139	0.629201	0.399955
C197	C	0.540469	-0.000036	0.619693
C198	C	1.040469	0.499964	1.119693
C199	C	0.544719	-0.000040	0.538193
C200	C	1.044719	0.499960	1.038193
C201	C	0.590473	-0.000051	0.507292
C202	C	1.090473	0.499949	1.007292
C203	C	0.631978	-0.000054	0.557898
C204	C	1.131978	0.499946	1.057898
C205	C	0.627727	-0.000047	0.639397
C206	C	1.127727	0.499953	1.139397
C207	C	0.605491	-0.000069	0.261710
C208	C	1.105491	0.499931	0.761710
C209	C	0.609739	-0.000077	0.180205
C210	C	1.109739	0.499923	0.680205
C211	C	0.522479	-0.000062	0.160505
C212	C	1.022479	0.499938	0.660505
C213	C	0.518232	-0.000058	0.242006
C214	C	1.018232	0.499942	0.742006
C215	C	0.559738	-0.000058	0.292605
C216	C	1.059738	0.499942	0.792605
C217	C	0.594819	-0.000056	0.423986
C218	C	1.094819	0.499944	0.923986
C219	C	0.555391	-0.000050	0.375910
C220	C	1.055391	0.499950	0.875910
C221	C	0.577450	-0.000033	0.757033
C222	C	1.077450	0.499967	1.257033
C223	C	0.581971	-0.000041	0.670293
C224	C	1.081971	0.499959	1.170293
H225	H	0.097073	-0.000024	-0.301099
H226	H	0.597073	0.499976	0.198901
F227	F	0.500546	-0.000031	0.484344
F228	F	1.000546	0.499969	0.984344
H229	H	0.639288	-0.000072	0.302898
H230	H	1.139288	0.499928	0.802898
F231	F	0.478309	-0.000059	0.106649
F232	F	0.978309	0.499941	0.606649
F233	F	-0.174757	-0.000081	0.051256
F234	F	0.325243	0.499919	0.551256
F235	F	0.680673	-0.000062	0.525010
F236	F	1.180673	0.499938	1.025010
H237	H	0.646999	-0.000087	0.155050
H238	H	1.146999	0.499913	0.655050
F239	F	0.479359	-0.524528	0.044195
F240	F	0.979359	-0.024528	0.544195
H241	H	0.661523	-0.000049	0.680595
H242	H	1.161523	0.499951	1.180595
H243	H	0.518139	-0.000038	0.401072
H244	H	1.018139	0.499962	0.901072
F245	F	0.639599	-0.235366	-0.197222
F246	F	1.139599	0.264634	0.302778
H247	H	0.480974	-0.000043	0.267159
H248	H	0.980974	0.499957	0.767159
H249	H	0.503211	-0.000033	0.644845
H250	H	1.003211	0.499967	1.144845
H251	H	-0.273289	-0.000071	0.035040
H252	H	0.226711	0.499929	0.535040
H253	H	0.632072	-0.000082	0.398818
H254	H	1.132072	0.499918	0.898818
H255	H	0.053142	-0.000088	0.100978
H256	H	0.553142	0.499912	0.600978
H257	H	0.423497	-0.000009	-0.235146
H258	H	0.923497	0.499991	0.264854
F259	F	0.639647	-0.872451	-0.197214
F260	F	1.139647	-0.372451	0.302786
H261	H	0.631765	-0.134118	-0.185461
H262	H	1.131765	0.365882	0.314539
F263	F	0.510566	-0.127646	-0.002884
F264	F	1.010566	0.372354	0.497116
H265	H	0.188589	-0.000014	-0.302602
H266	H	0.688589	0.499986	0.197398
H267	H	-0.192019	-0.000037	-0.225047
H268	H	0.307981	0.499963	0.274953
F269	F	0.324964	-0.000021	-0.251367
F270	F	0.824964	0.499979	0.248633
H271	H	0.112985	-0.000093	0.100007
H272	H	0.612985	0.499907	0.600007
F273	F	0.211518	-0.000098	0.116214
F274	F	0.711518	0.499902	0.616214
F275	F	-0.290568	-0.000039	-0.241250
F276	F	0.209432	0.499961	0.258750
F277	F	0.479373	-0.632304	0.044207
F278	F	0.979373	-0.132304	0.544207
H279	H	0.342219	-0.000050	0.024938
H280	H	0.842219	0.499950	0.524938
F281	F	0.042840	-0.000023	-0.318040
F282	F	0.542840	0.499977	0.181960
F283	F	-0.061305	-0.000029	-0.316319
F284	F	0.438695	0.499971	0.183681
F285	F	0.440770	-0.000053	0.041143
F286	F	0.940770	0.499947	0.541143
F287	F	0.670849	-0.367780	-0.244306
F288	F	1.170849	0.132220	0.255694
F289	F	-0.043975	-0.000091	0.120404
F290	F	0.456025	0.499909	0.620404
H291	H	0.663055	-0.469032	-0.232516
H292	H	1.163055	0.030968	0.267484
H293	H	0.663060	-0.530960	-0.232516
H294	H	1.163060	-0.030960	0.267484
H295	H	0.631826	-0.771186	-0.185456
H296	H	1.131826	-0.271186	0.314544
H297	H	0.518440	-0.865972	-0.014649
H298	H	1.018440	-0.365972	0.485351
H299	H	0.487174	-0.469113	0.032452
H300	H	0.987174	0.030887	0.532452
F301	F	0.510618	-0.764725	-0.002874
F302	F	1.010618	-0.264725	0.497126
H303	H	0.487170	-0.374389	0.032452
H304	H	0.987170	0.125611	0.532452
F305	F	0.510572	-0.235444	-0.002879
F306	F	1.010572	0.264556	0.497121
H307	H	0.663065	-0.625695	-0.232508
H308	H	1.163065	-0.125695	0.267492
