data_functionalizedCrystal
_audit_creation_method	'MofGen! by Chris Wilmer'
_symmetry_space_group_name_H-M	'P1'
_symmetry_Int_Tables_number	1
_symmetry_cell_setting	triclinic
loop_
_symmetry_equiv_pos_as_xyz
  x,y,z
_cell_length_a	16.625546
_cell_length_b	13.897449
_cell_length_c	16.625548
_cell_angle_alpha	89.990776
_cell_angle_beta	90.013404
_cell_angle_gamma	89.977699
loop_
_atom_site_label
_atom_site_type_symbol
_atom_site_fract_x
_atom_site_fract_y
_atom_site_fract_z
Zn1	Zn	-0.321139	-1.474541	0.455919
Zn2	Zn	0.178861	-0.974541	0.955919
Zn3	Zn	-0.455942	-1.474460	0.321081
Zn4	Zn	0.044058	-0.974460	0.821081
Zn5	Zn	-0.321127	-1.313268	0.321097
Zn6	Zn	0.178873	-0.813268	0.821097
Zn7	Zn	-0.455933	-1.313198	0.455868
Zn8	Zn	0.044067	-0.813198	0.955868
O9	O	-0.388535	-1.393867	0.388491
O10	O	0.111465	-0.893867	0.888491
O11	O	-0.339030	-1.609512	0.438046
O12	O	0.160970	-1.109512	0.938046
O13	O	-0.438057	-1.453073	0.208251
O14	O	0.061943	-0.953073	0.708251
O15	O	-0.208296	-1.334725	0.339009
O16	O	0.291704	-0.834725	0.839009
O17	O	-0.438069	-1.609452	0.338982
O18	O	0.061931	-1.109452	0.838982
O19	O	-0.208305	-1.453211	0.438062
O20	O	0.291695	-0.953211	0.938062
O21	O	-0.339009	-1.334646	0.208262
O22	O	0.160991	-0.834646	0.708262
O23	O	-0.339000	-1.178277	0.338960
O24	O	0.161000	-0.678277	0.838960
O25	O	-0.438053	-1.334605	0.568707
O26	O	0.061947	-0.834605	1.068707
O27	O	-0.438042	-1.178226	0.437976
O28	O	0.061958	-0.678226	0.937976
O29	O	-0.339021	-1.453143	0.568744
O30	O	0.160979	-0.953143	1.068744
O31	O	-0.568773	-1.453005	0.338933
O32	O	-0.068773	-0.953005	0.838933
O33	O	-0.568767	-1.334527	0.437961
O34	O	-0.068767	-0.834527	0.937961
C35	C	-0.388519	-1.143252	0.388465
C36	C	0.111481	-0.643252	0.888465
C37	C	-0.388532	-1.036038	0.388473
C38	C	0.111468	-0.536038	0.888473
C39	C	-0.388530	-0.839743	0.388488
C40	C	0.111470	-0.339743	0.888488
C41	C	-0.388529	-0.948976	0.388477
C42	C	0.111471	-0.448976	0.888477
C43	C	-0.598026	-1.393775	0.388457
C44	C	-0.098026	-0.893775	0.888457
C45	C	-0.687647	-1.393825	0.388470
C46	C	-0.187647	-0.893825	0.888470
C47	C	-1.015823	-1.393993	0.388554
C48	C	-0.515823	-0.893993	0.888554
C49	C	-0.924514	-1.393943	0.388533
C50	C	-0.424514	-0.893943	0.888533
C51	C	-0.851738	-1.393908	0.388512
C52	C	-0.351738	-0.893908	0.888512
C53	C	-0.760424	-1.393860	0.388491
C54	C	-0.260424	-0.893860	0.888491
C55	C	-0.178226	-1.393985	0.388543
C56	C	0.321774	-0.893985	0.888543
C57	C	-0.088605	-1.394035	0.388565
C58	C	0.411395	-0.894035	0.888565
C59	C	-0.388538	-1.393875	0.598800
C60	C	0.111462	-0.893875	1.098800
C61	C	-0.388539	-1.393879	0.688421
C62	C	0.111461	-0.893879	1.188421
C63	C	-0.388547	-0.645460	0.388510
C64	C	0.111453	-0.145460	0.888510
C65	C	-0.388538	-0.752674	0.388498
C66	C	0.111462	-0.252674	0.888498
C67	C	-0.388546	-1.393839	1.016597
C68	C	0.111454	-0.893839	1.516597
C69	C	-0.388546	-1.393847	0.925288
C70	C	0.111454	-0.893847	1.425288
C71	C	-0.388543	-1.393859	0.852512
C72	C	0.111457	-0.893859	1.352512
C73	C	-0.388542	-1.393867	0.761198
C74	C	0.111458	-0.893867	1.261198
C75	C	-0.388549	-1.393849	1.179000
C76	C	0.111451	-0.893849	1.679000
C77	C	-0.388543	-1.393839	1.089379
C78	C	0.111457	-0.893839	1.589379
