data_functionalizedCrystal
_audit_creation_method	'MofGen! by Chris Wilmer'
_symmetry_space_group_name_H-M	'P1'
_symmetry_Int_Tables_number	1
_symmetry_cell_setting	triclinic
loop_
_symmetry_equiv_pos_as_xyz
  x,y,z
_cell_length_a	16.992694
_cell_length_b	27.732048
_cell_length_c	16.053802
_cell_angle_alpha	92.539157
_cell_angle_beta	87.249047
_cell_angle_gamma	86.655439
loop_
_atom_site_label
_atom_site_type_symbol
_atom_site_fract_x
_atom_site_fract_y
_atom_site_fract_z
O1	O	1.042477	0.100541	-0.069340
O2	O	0.814206	0.099416	-0.069364
O3	O	0.935430	0.029889	-0.069335
O4	O	0.921253	0.170068	-0.069368
O5	O	0.928758	0.033699	0.069522
O6	O	0.807534	0.103227	0.069493
O7	O	1.035804	0.104351	0.069518
Zn8	Zn	0.920610	0.104394	0.091552
Zn9	Zn	0.929401	0.099374	-0.091398
O10	O	0.914580	0.173879	0.069489
C11	C	0.781675	0.099876	0.000062
C12	C	0.694684	0.095561	0.000053
C13	C	0.643939	0.137184	0.000044
C14	C	0.562201	0.133129	0.000056
C15	C	0.531209	0.087449	0.000072
C16	C	0.581960	0.045823	0.000084
C17	C	0.663696	0.049880	0.000077
C18	C	0.287814	0.070636	0.000098
C19	C	0.206072	0.066583	0.000103
C20	C	0.186318	0.153889	0.000077
C21	C	0.268057	0.157941	0.000065
C22	C	0.318800	0.116315	0.000081
N23	N	0.447660	0.083302	0.000082
N24	N	0.402348	0.120463	0.000077
C25	C	0.931796	0.013774	0.000096
C26	C	0.930900	-0.039919	0.000103
C27	C	0.996895	-0.375882	0.000067
C28	C	0.993571	-0.577686	0.000055
O29	O	1.053919	-0.606333	0.000025
N30	N	0.921689	-0.599917	0.000048
C31	C	0.850634	-0.571695	0.000038
O32	O	0.789419	-0.595235	0.000024
C33	C	0.853960	-0.369893	0.000045
C34	C	0.925846	-0.347663	0.000060
C35	C	1.068775	-0.353652	0.000081
C36	C	1.069606	-0.303204	0.000089
C37	C	0.998556	-0.274986	0.000082
C38	C	0.926676	-0.297215	0.000067
C39	C	0.782906	-0.341671	0.000029
C40	C	0.783744	-0.291218	0.000029
C41	C	0.855630	-0.268989	0.000044
C42	C	0.856457	-0.218549	0.000068
N43	N	0.928338	-0.196317	0.000075
C44	C	0.999388	-0.224535	0.000082
C45	C	0.848893	-0.677645	0.000037
C46	C	0.848061	-0.728095	0.000037
C47	C	0.990998	-0.734082	0.000052
C48	C	0.991829	-0.683631	0.000058
C49	C	0.920775	-0.655413	0.000044
C50	C	1.001126	-0.118591	0.000098
C51	C	1.001949	-0.068138	0.000109
C52	C	0.859013	-0.062155	0.000090
C53	C	0.858189	-0.112603	0.000084
C54	C	0.929252	-0.140820	0.000085
O55	O	0.796141	-0.189872	0.000089
O56	O	1.060595	-0.200987	0.000078
C57	C	0.996065	-0.426330	0.000059
C58	C	0.924185	-0.448559	0.000045
C59	C	0.853136	-0.420341	0.000038
C60	C	0.923354	-0.499010	0.000045
C61	C	0.994403	-0.527228	0.000052
C62	C	1.066285	-0.504997	0.000059
C63	C	1.067115	-0.454549	0.000066
C64	C	0.781254	-0.442573	0.000031
C65	C	0.780430	-0.493021	0.000024
C66	C	0.851480	-0.521240	0.000031
C67	C	1.068336	0.103892	0.000090
C68	C	1.155327	0.108206	0.000093
C69	C	0.918214	0.189993	0.000056
C70	C	0.919111	0.243686	0.000044
N71	N	0.914616	0.107820	0.216411
N72	N	0.935401	0.095944	-0.216257
C73	C	0.966215	0.078248	0.260117
C74	C	0.962030	0.080649	0.347523
C75	C	0.906248	0.112625	0.391221
C76	C	0.854643	0.142199	0.347509
C77	C	0.858825	0.139794	0.260104
C78	C	0.887978	0.123113	0.652626
C79	C	0.883801	0.125516	0.740037
C80	C	0.991188	0.063966	0.740045
C81	C	0.995369	0.061567	0.652639
C82	C	0.943761	0.091138	0.608934
N83	N	0.901970	0.115082	0.480564
N84	N	0.948036	0.088679	0.519593
H85	H	1.058992	-0.141559	0.000096
H86	H	0.144995	0.187778	0.000065
H87	H	0.180842	0.029383	0.000114
N88	N	1.063583	-0.762905	0.000044
N89	N	1.127764	-0.743057	0.000040
H90	H	1.179025	-0.763414	0.000028
N91	N	0.784762	-0.135315	0.000099
N92	N	0.734197	-0.126079	0.058634
H93	H	0.682339	-0.142117	0.058642
H94	H	1.033204	0.039890	0.775637
H95	H	1.126636	-0.376623	0.000084
H96	H	0.723396	-0.419602	0.000024
N97	N	0.510356	0.175641	0.000056
N98	N	0.437378	0.172015	0.000077
H99	H	0.400760	0.202042	0.000085
H100	H	0.791029	-0.654674	0.000026
H101	H	1.124136	-0.527981	0.000068
H102	H	0.816806	0.163875	0.224520
H103	H	1.050364	-0.665535	0.000070
H104	H	0.705012	0.015986	0.000084
H105	H	1.004046	0.056569	0.383108
H106	H	1.011642	0.052211	0.224544
H107	H	0.724370	-0.359762	0.000012
N108	N	1.052350	0.028945	0.607914
N109	N	1.103076	0.044895	0.559126
H110	H	1.143323	0.021871	0.527507
N111	N	0.299699	0.204606	0.000038
N112	N	0.254382	0.241766	0.000025
H113	H	0.276729	0.274724	0.000000
N114	N	0.786432	-0.033334	0.000084
N115	N	0.735664	-0.035360	0.058601
H116	H	0.684402	-0.015005	0.058590
H117	H	1.060490	-0.050041	0.000124
H118	H	0.789524	-0.746189	0.000039
N119	N	0.675580	0.183849	0.000020
N120	N	0.630259	0.221008	0.000014
H121	H	0.652602	0.253967	-0.000001
N122	N	0.826808	0.158180	0.784662
N123	N	0.780731	0.184578	0.745631
H124	H	0.740479	0.207645	0.777147
N125	N	0.711155	-0.262402	0.000004
N126	N	0.646983	-0.282261	-0.000014
H127	H	0.595716	-0.261911	-0.000032
N128	N	0.835256	0.153320	0.608003
N129	N	0.785455	0.181867	0.647033
H130	H	0.748216	0.203202	0.615516
N131	N	1.140552	-0.431854	0.000085
N132	N	1.203978	-0.457063	0.000092
H133	H	1.255847	-0.441038	0.000105
H134	H	0.329120	0.036741	0.000112
N135	N	0.706994	-0.515724	0.000027
N136	N	0.656420	-0.506484	0.058552
H137	H	0.604557	-0.522516	0.058549
N138	N	0.550292	-0.000834	0.000109
N139	N	0.477313	-0.004451	0.000114
H140	H	0.454948	-0.037403	0.000129
N141	N	1.143043	-0.280510	0.000101
N142	N	1.206469	-0.305719	0.000104
H143	H	1.258338	-0.289694	0.000110
H144	H	0.809220	0.168233	0.383093
