data_functionalizedCrystal
_audit_creation_method	'MofGen! by Chris Wilmer'
_symmetry_space_group_name_H-M	'P1'
_symmetry_Int_Tables_number	1
_symmetry_cell_setting	triclinic
loop_
_symmetry_equiv_pos_as_xyz
  x,y,z
_cell_length_a	21.295418
_cell_length_b	18.050589
_cell_length_c	18.050583
_cell_angle_alpha	90.031709
_cell_angle_beta	89.964798
_cell_angle_gamma	89.949487
loop_
_atom_site_label
_atom_site_type_symbol
_atom_site_fract_x
_atom_site_fract_y
_atom_site_fract_z
Zn1	Zn	0.962285	0.295293	-0.420316
Zn2	Zn	0.962195	0.419506	-0.296136
Zn3	Zn	0.857023	0.295368	-0.296099
Zn4	Zn	0.856969	0.419480	-0.420243
O5	O	0.909618	0.357412	-0.358199
O6	O	1.050362	0.311749	-0.403890
O7	O	0.948229	0.403081	-0.192207
O8	O	0.871047	0.191434	-0.312592
O9	O	1.050296	0.403008	-0.312655
O10	O	0.948381	0.191378	-0.403854
O11	O	0.870960	0.311878	-0.192179
O12	O	0.768927	0.311853	-0.312521
O13	O	0.870955	0.402963	-0.524178
O14	O	0.768887	0.403037	-0.403729
O15	O	0.948329	0.311724	-0.524231
O16	O	0.948176	0.523427	-0.312584
O17	O	0.870868	0.523408	-0.403765
C18	C	0.746066	0.357451	-0.358113
C19	C	0.676098	0.357485	-0.358094
C20	C	0.909524	0.550364	-0.358187
C21	C	0.909541	0.632910	-0.358207
C22	C	0.909646	0.357332	-0.551904
C23	C	0.909658	0.357298	-0.634450
C24	C	0.643227	0.405028	-0.405515
C25	C	0.577485	0.405009	-0.405549
C26	C	0.544616	0.357456	-0.358148
C27	C	0.577495	0.309905	-0.310723
C28	C	0.643236	0.309919	-0.310696
N29	N	0.441348	0.351665	-0.293192
N30	N	0.378897	0.351656	-0.293219
C31	C	0.346541	0.357409	-0.358226
N32	N	0.378996	0.363187	-0.423206
N33	N	0.441453	0.363200	-0.423178
C34	C	0.473330	0.357435	-0.358172
C35	C	0.242385	0.404934	-0.405688
C36	C	0.176641	0.404911	-0.405722
C37	C	0.176652	0.309810	-0.310890
C38	C	0.242394	0.309830	-0.310862
C39	C	0.275257	0.357396	-0.358260
C40	C	1.073808	0.357373	-0.358285
C41	C	1.143776	0.357356	-0.358322
C42	C	0.867522	0.832377	-0.407774
C43	C	0.852176	0.881832	-0.340001
C44	C	0.909588	0.784040	-0.358217
C45	C	0.924951	0.881666	-0.425999
C46	C	0.909633	0.930025	-0.358233
C47	C	0.894212	0.832408	-0.290408
C48	C	0.967013	0.832238	-0.376451
C49	C	0.951689	0.881671	-0.308631
C50	C	0.909561	0.699942	-0.358209
C51	C	0.909660	1.014121	-0.358233
C52	C	0.909706	1.163706	-0.358228
C53	C	0.909682	1.081160	-0.358242
C54	C	0.951776	0.307658	-0.833930
C55	C	0.894365	0.289501	-0.883301
C56	C	0.909683	0.357286	-0.785581
C57	C	0.967117	0.375396	-0.883292
C58	C	0.909712	0.357272	-0.931566
C59	C	0.852241	0.339093	-0.833864
C60	C	0.925032	0.425020	-0.833851
C61	C	0.867582	0.406888	-0.883199
C62	C	0.909667	0.357292	-0.701482
C63	C	0.909722	0.357266	-1.015662
C64	C	0.909627	0.357437	-0.165247
C65	C	0.909737	0.357261	-0.082701
H66	H	0.550716	0.443724	-0.444168
C67	C	0.141064	0.258222	-0.259295
C68	C	0.157004	0.274310	-0.185789
C69	C	0.124241	0.226792	-0.138236
H70	H	0.097191	0.264965	-0.265991
H71	H	0.151911	0.208326	-0.270197
H72	H	0.146153	0.324193	-0.174890
H73	H	0.200871	0.267562	-0.179069
H74	H	0.135087	0.176897	-0.149138
H75	H	0.080369	0.233540	-0.144939
H76	H	0.135055	0.237697	-0.088357
H77	H	0.269158	0.271119	-0.272243
H78	H	0.831903	0.810731	-0.449624
H79	H	0.881391	0.232214	-0.905023
H80	H	0.550728	0.271185	-0.272130
C81	C	0.820035	0.462729	-0.911976
C82	C	0.775409	0.426196	-0.955630
C83	C	0.731602	0.477608	-0.982161
H84	H	0.799661	0.486091	-0.871368
H85	H	0.840965	0.499022	-0.940984
H86	H	0.754481	0.389916	-0.926623
H87	H	0.795764	0.402837	-0.996249
H88	H	0.752533	0.513901	-1.011169
H89	H	0.711234	0.500967	-0.941549
H90	H	0.701322	0.452829	-1.011789
H91	H	0.987282	0.903179	-0.266681
C92	C	0.278151	0.456447	-0.457195
C93	C	0.315985	0.414460	-0.504834
C94	C	0.348947	0.461888	-0.552285
H95	H	0.249229	0.484774	-0.485519
H96	H	0.303779	0.488769	-0.428740
H97	H	0.290360	0.382152	-0.533286
H98	H	0.344919	0.386135	-0.476530
H99	H	0.374574	0.494209	-0.523830
H100	H	0.320021	0.490213	-0.580604
H101	H	0.374626	0.433407	-0.584609
C102	C	0.678941	0.456751	-0.456859
C103	C	0.716598	0.504324	-0.414717
C104	C	0.749502	0.551984	-0.461990
H105	H	0.704688	0.428467	-0.489269
H106	H	0.649966	0.485106	-0.485096
H107	H	0.745569	0.475971	-0.386492
H108	H	0.690867	0.532624	-0.382309
H109	H	0.720527	0.580339	-0.490228
H110	H	0.775245	0.523694	-0.494398
H111	H	0.775051	0.584272	-0.433404
H112	H	0.803635	0.903632	-0.324593
H113	H	0.669999	0.271202	-0.272080
C114	C	0.876811	0.803538	-0.214023
C115	C	0.876949	0.725976	-0.214919
C116	C	0.860912	0.699354	-0.144572
H117	H	0.906495	0.820731	-0.178734
H118	H	0.836145	0.820891	-0.200990
H119	H	0.917609	0.708630	-0.227943
H120	H	0.847264	0.708763	-0.250193
H121	H	0.820246	0.716707	-0.131539
H122	H	0.890598	0.716552	-0.109288
H123	H	0.860998	0.646726	-0.145172
C124	C	1.031700	0.803206	-0.397189
C125	C	1.047520	0.828103	-0.468233
C126	C	1.107101	0.801363	-0.487374
H127	H	1.061767	0.820800	-0.362555
H128	H	1.031314	0.750578	-0.396628
H129	H	1.047911	0.880719	-0.468788
H130	H	1.017469	0.810510	-0.502883
H131	H	1.106715	0.748736	-0.486813
H132	H	1.137163	0.818959	-0.452736
H133	H	1.117840	0.818246	-0.535581
C134	C	0.942217	0.910665	-0.502378
C135	C	0.942550	0.988222	-0.501210
C136	C	0.958439	1.014958	-0.571561
H137	H	0.982714	0.893034	-0.515735
H138	H	0.912263	0.893829	-0.537536
H139	H	0.972503	1.005050	-0.466064
H140	H	0.902060	1.005872	-0.487866
H141	H	0.928485	0.998122	-0.606718
H142	H	0.998935	0.997322	-0.584912
H143	H	0.958661	1.067582	-0.570780
C144	C	0.787469	0.318446	-0.805146
C145	C	0.771464	0.247738	-0.830827
C146	C	0.711799	0.228695	-0.804394
H147	H	0.787785	0.318494	-0.752524
H148	H	0.757531	0.353443	-0.822432
H149	H	0.801393	0.212750	-0.813537
H150	H	0.771133	0.247672	-0.883446
H151	H	0.681862	0.263692	-0.821679
H152	H	0.712122	0.228747	-0.751772
H153	H	0.700930	0.180721	-0.821819
C154	C	0.999081	0.251550	-0.805115
C155	C	0.982727	0.180725	-0.830158
C156	C	1.026281	0.129018	-0.803618
H157	H	1.039793	0.263848	-0.822747
H158	H	0.998998	0.252212	-0.752485
H159	H	0.982817	0.180065	-0.882776
H160	H	0.942023	0.168405	-0.812528
H161	H	1.026198	0.129680	-0.750989
H162	H	1.066990	0.141323	-0.821252
H163	H	1.015188	0.080957	-0.820600
C164	C	0.942396	0.501424	-0.805004
C165	C	0.953785	0.548822	-0.864889
C166	C	0.969798	0.619209	-0.838343
H167	H	0.908825	0.520537	-0.776044
H168	H	0.979115	0.497905	-0.775342
H169	H	0.917070	0.552343	-0.894539
H170	H	0.987358	0.529733	-0.893855
H171	H	1.006517	0.615690	-0.808681
H172	H	0.936224	0.638314	-0.809383
H173	H	0.977532	0.651375	-0.878970
C174	C	0.141063	0.456615	-0.457238
C175	C	0.183917	0.498286	-0.498723
C176	C	0.151166	0.545932	-0.546179
H177	H	0.115468	0.428324	-0.489726
H178	H	0.115378	0.488970	-0.428797
H179	H	0.209592	0.465935	-0.527162
H180	H	0.209514	0.526591	-0.466255
H181	H	0.125480	0.578287	-0.517737
H182	H	0.125572	0.517636	-0.578661
H183	H	0.180237	0.574216	-0.574327
C184	C	1.031920	0.395732	-0.912139
C185	C	1.075778	0.343607	-0.887161
C186	C	1.135482	0.362315	-0.913710
H187	H	1.031457	0.396011	-0.964759
H188	H	1.043137	0.443503	-0.894459
H189	H	1.064564	0.295848	-0.904845
H190	H	1.076261	0.343320	-0.834544
H191	H	1.146699	0.410086	-0.896030
H192	H	1.135012	0.362593	-0.966329
H193	H	1.165248	0.326955	-0.896760
