data_functionalizedCrystal
_audit_creation_method	'MofGen! by Chris Wilmer'
_symmetry_space_group_name_H-M	'P1'
_symmetry_Int_Tables_number	1
_symmetry_cell_setting	triclinic
loop_
_symmetry_equiv_pos_as_xyz
  x,y,z
_cell_length_a	10.723024
_cell_length_b	10.654556
_cell_length_c	9.730223
_cell_angle_alpha	89.999363
_cell_angle_beta	89.999810
_cell_angle_gamma	84.477639
loop_
_atom_site_label
_atom_site_type_symbol
_atom_site_fract_x
_atom_site_fract_y
_atom_site_fract_z
O1	O	0.175306	1.667803	-0.114300
O2	O	0.191997	1.302323	-0.114299
O3	O	0.002077	1.493493	-0.114295
O4	O	0.365226	1.476633	-0.114305
O5	O	0.002081	1.493491	0.114285
O6	O	0.192002	1.302321	0.114281
O7	O	0.175311	1.667801	0.114280
Zn8	Zn	0.183657	1.485061	0.150572
Zn9	Zn	0.183650	1.485063	-0.150592
O10	O	0.365231	1.476631	0.114275
C11	C	0.190772	1.255524	-0.000009
C12	C	0.187101	1.116082	-0.000009
C13	C	0.181931	0.919554	-0.124619
C14	C	0.185374	1.050576	-0.124613
C15	C	0.185372	1.050561	0.124597
C16	C	0.181921	0.919543	0.124590
C17	C	0.181938	0.919562	-0.268499
C18	C	0.185380	1.050584	-0.268493
C19	C	-0.044421	1.492265	-0.000006
C20	C	-0.182976	1.488594	-0.000011
C21	C	-0.257940	1.595563	-0.000013
C22	C	-0.401144	1.591771	-0.000018
C23	C	0.411728	1.477859	-0.000016
C24	C	0.550283	1.481530	-0.000020
C25	C	0.176535	1.714600	-0.000013
C26	C	0.180207	1.854042	-0.000022
N27	N	0.183660	1.485068	0.356109
N28	N	0.183637	1.485066	-0.356128
C29	C	0.099592	1.569740	0.428037
C30	C	0.099577	1.569737	0.571920
C31	C	0.267709	1.400385	0.571934
C32	C	0.267717	1.400383	0.428053
C33	C	0.002526	1.667518	0.428030
C34	C	0.002511	1.667514	0.571913
H35	H	0.270811	0.867844	-0.313146
H36	H	0.023895	1.764022	0.610963
C37	C	-0.313468	1.352309	-0.117521
C38	C	-0.239444	1.361168	-0.000015
H39	H	-0.348332	1.273641	-0.117516
H40	H	-0.263239	1.358332	-0.197213
H41	H	-0.379051	1.418936	-0.117509
H42	H	-0.173856	1.294546	-0.000032
H43	H	-0.289677	1.355133	0.079698
C44	C	-0.113921	1.528810	0.295361
C45	C	-0.126948	1.638567	0.375303
H46	H	-0.193850	1.510938	0.262807
H47	H	-0.078462	1.460327	0.349607
H48	H	-0.060631	1.540739	0.219439
H49	H	-0.180231	1.626634	0.451231
H50	H	-0.162425	1.707065	0.321055
H51	H	0.180491	0.866212	0.226048
H52	H	0.186767	1.103909	0.226052
C53	C	-0.005706	0.996782	-0.388276
C54	C	0.062991	0.886056	-0.343064
H55	H	-0.079140	0.976094	-0.434299
H56	H	0.044026	1.040196	-0.449625
H57	H	-0.028612	1.049139	-0.311558
H58	H	0.085905	0.833703	-0.419784
H59	H	0.013249	0.842623	-0.281712
H60	H	-0.216102	1.689950	-0.000005
H61	H	0.096502	1.102304	-0.313137
C62	C	0.373049	0.973384	-0.388242
C63	C	0.304339	1.084103	-0.343032
H64	H	0.446492	0.994080	-0.434243
H65	H	0.323330	0.929977	-0.449611
H66	H	0.395939	0.921018	-0.311525
H67	H	0.281441	1.136466	-0.419750
H68	H	0.354067	1.127530	-0.281660
H69	H	0.336161	1.331426	0.369491
C70	C	-0.613127	1.687715	-0.000036
C71	C	-0.488095	1.715401	-0.000028
H72	H	-0.666806	1.764044	-0.000051
H73	H	-0.628693	1.640179	0.079672
H74	H	-0.628680	1.640163	-0.079750
H75	H	-0.472540	1.762946	0.079693
H76	H	-0.472523	1.762957	-0.079744
H77	H	0.336145	1.331436	0.630527
H78	H	0.032922	1.758697	0.383403
H79	H	-0.385307	1.389951	-0.000009
H80	H	-0.088131	1.637015	0.616531
