data_functionalizedCrystal
_audit_creation_method	'MofGen! by Chris Wilmer'
_symmetry_space_group_name_H-M	'P1'
_symmetry_Int_Tables_number	1
_symmetry_cell_setting	triclinic
loop_
_symmetry_equiv_pos_as_xyz
  x,y,z
_cell_length_a	16.992694
_cell_length_b	15.995350
_cell_length_c	16.053802
_cell_angle_alpha	92.567808
_cell_angle_beta	87.249047
_cell_angle_gamma	87.080299
loop_
_atom_site_label
_atom_site_type_symbol
_atom_site_fract_x
_atom_site_fract_y
_atom_site_fract_z
O1	O	1.043694	0.174244	-0.069318
O2	O	0.815410	0.172295	-0.069342
O3	O	0.935792	0.051799	-0.069329
O4	O	0.923312	0.294739	-0.069332
O5	O	0.929166	0.058403	0.069530
O6	O	0.808784	0.178898	0.069516
O7	O	1.037068	0.180847	0.069540
Zn8	Zn	0.921874	0.180921	0.091575
Zn9	Zn	0.930604	0.172221	-0.091377
O10	O	0.916685	0.301343	0.069527
C11	C	0.782884	0.173091	0.000083
C12	C	0.695841	0.165614	0.000074
C13	C	0.645600	0.237749	0.000074
C14	C	0.563813	0.230720	0.000085
C15	C	0.532268	0.151555	0.000091
C16	C	0.582515	0.079414	0.000094
C17	C	0.664300	0.086444	0.000088
C18	C	0.288669	0.122417	0.000114
C19	C	0.206878	0.115392	0.000117
C20	C	0.188181	0.266699	0.000110
C21	C	0.269969	0.273722	0.000099
C22	C	0.320209	0.201582	0.000106
N23	N	0.448669	0.144368	0.000100
N24	N	0.403806	0.208770	0.000103
C25	C	0.931963	0.023872	0.000099
C26	C	0.930417	-0.069182	0.000094
C27	C	0.924861	-0.407302	0.000096
C28	C	0.839142	-0.365620	-0.000225
C29	C	0.840674	-0.268811	0.000089
C30	C	0.927617	-0.239557	0.000095
C31	C	0.966120	-0.274034	0.079392
C32	C	0.963963	-0.370810	0.079459
C33	C	0.973269	-0.378559	-0.078449
C34	C	0.973299	-0.281665	-0.079497
C35	C	0.929179	-0.144755	0.000096
C36	C	0.923302	-0.502103	0.000100
C37	C	1.069593	0.180051	0.000113
C38	C	1.156637	0.187528	0.000117
C39	C	0.920515	0.329270	0.000097
C40	C	0.922061	0.422324	0.000097
N41	N	0.915921	0.186859	0.216434
N42	N	0.936563	0.166277	-0.216236
C43	C	0.967163	0.135608	0.260134
C44	C	0.963006	0.139770	0.347541
C45	C	0.907611	0.195187	0.391245
C46	C	0.856364	0.246439	0.347539
C47	C	0.860518	0.242273	0.260135
C48	C	0.889469	0.213363	0.652653
C49	C	0.885321	0.217528	0.740064
C50	C	0.991962	0.110857	0.740059
C51	C	0.996114	0.106699	0.652652
C52	C	0.944864	0.157948	0.608954
N53	N	0.903363	0.199444	0.480589
N54	N	0.949109	0.153686	0.519612
H55	H	0.522910	0.289461	0.000084
O56	O	0.303997	0.359106	0.000094
H57	H	0.338126	0.368612	0.056684
H58	H	0.181198	0.050923	0.000121
O59	O	0.825568	0.277295	0.787212
H60	H	0.765243	0.261686	0.770459
H61	H	0.556824	0.014956	0.000111
H62	H	0.811257	0.291558	0.383129
O63	O	0.834203	0.268644	0.605525
H64	H	0.794995	0.307885	0.650603
H65	H	0.329565	0.063675	0.000120
H66	H	0.818790	0.284005	0.224555
O67	O	1.018287	0.084510	0.394677
H68	H	1.057516	0.045288	0.349602
O69	O	0.718495	0.008643	0.000086
H70	H	0.682822	-0.047588	0.000083
O71	O	0.679621	0.323136	0.000065
H72	H	0.713749	0.332645	0.056656
O73	O	0.133997	0.344507	0.000120
H74	H	0.071825	0.326323	0.000135
H75	H	0.810146	-0.245316	-0.056756
O76	O	0.797328	-0.396797	-0.075536
H77	H	0.837189	-0.442337	-0.113544
H78	H	0.802329	-0.384808	0.056318
O79	O	0.919365	-0.394054	0.157967
H80	H	0.958577	-0.433909	0.194974
O81	O	1.050539	-0.249467	0.083319
H82	H	1.085068	-0.275682	0.026841
H83	H	0.933934	-0.244811	0.138399
O84	O	0.939968	-0.412030	-0.158080
H85	H	0.877702	-0.388196	-0.160906
H86	H	0.804493	-0.240478	0.057023
H87	H	0.945181	-0.259275	-0.138159
H88	H	1.036930	-0.262288	-0.084280
O89	O	1.057033	-0.415063	-0.079163
H90	H	1.064192	-0.453495	-0.023880
O91	O	1.047106	-0.407731	0.084250
H92	H	1.088674	-0.356447	0.086517
O93	O	1.047234	0.055585	0.787195
H94	H	1.086455	0.016356	0.742119
O95	O	1.026907	0.075833	0.212996
H96	H	1.061834	0.040889	0.258071
H97	H	1.041221	0.061574	0.617070
