data_functionalizedCrystal
_audit_creation_method	'MofGen! by Chris Wilmer'
_symmetry_space_group_name_H-M	'P1'
_symmetry_Int_Tables_number	1
_symmetry_cell_setting	triclinic
loop_
_symmetry_equiv_pos_as_xyz
  x,y,z
_cell_length_a	14.908932
_cell_length_b	18.215407
_cell_length_c	18.215399
_cell_angle_alpha	89.980167
_cell_angle_beta	93.314574
_cell_angle_gamma	86.699847
loop_
_atom_site_label
_atom_site_type_symbol
_atom_site_fract_x
_atom_site_fract_y
_atom_site_fract_z
Zn1	Zn	0.359158	1.108273	-0.399257
Zn2	Zn	0.510027	1.101125	-0.269108
Zn3	Zn	0.359187	0.985204	-0.276203
Zn4	Zn	0.509977	0.978117	-0.392136
O5	O	0.434587	1.043180	-0.334176
O6	O	0.379180	1.210309	-0.382003
O7	O	0.490051	1.085722	-0.167064
O8	O	0.232939	1.007487	-0.298475
O9	O	0.490022	1.205057	-0.286384
O10	O	0.232917	1.097905	-0.388882
O11	O	0.379230	1.000556	-0.172276
O12	O	0.379181	0.881280	-0.291570
O13	O	0.489937	0.995408	-0.496066
O14	O	0.489965	0.876074	-0.376746
O15	O	0.379131	1.091033	-0.501298
O16	O	0.636265	1.078850	-0.279479
O17	O	0.636228	0.988477	-0.369867
C18	C	0.434572	0.851974	-0.334155
C19	C	0.434587	0.770175	-0.334163
C20	C	0.199279	1.054284	-0.345264
C21	C	0.099004	1.059016	-0.349990
C22	C	0.492363	0.579285	-0.378451
C23	C	0.492366	0.502426	-0.378460
C24	C	0.376828	0.507826	-0.289916
C25	C	0.376821	0.584684	-0.289912
C26	C	0.434594	0.620411	-0.334178
C27	C	0.434603	0.466694	-0.334191
C28	C	0.434606	0.383361	-0.334201
C29	C	0.434590	0.703750	-0.334169
C30	C	-0.089401	0.973738	-0.264730
C31	C	-0.183618	0.978182	-0.269167
C32	C	-0.183648	1.072342	-0.363305
C33	C	-0.089431	1.067899	-0.358868
C34	C	-0.042311	1.018596	-0.309578
C35	C	0.051907	1.014157	-0.305137
C36	C	0.051876	1.108313	-0.399278
C37	C	-0.042341	1.112757	-0.403716
C38	C	0.668981	1.032139	-0.323146
C39	C	0.769255	1.027483	-0.318453
C40	C	0.434525	1.043228	-0.526132
C41	C	0.434499	1.043248	-0.607932
C42	C	0.434603	1.235132	-0.334197
C43	C	0.434610	1.316931	-0.334206
C44	C	0.376748	1.093059	-0.798854
C45	C	0.376722	1.093069	-0.875714
C46	C	0.492110	0.993495	-0.870254
C47	C	0.492131	0.993482	-0.793396
C48	C	0.434451	1.043269	-0.757698
C49	C	0.434404	1.043291	-0.911416
C50	C	0.434376	1.043302	-0.994751
C51	C	0.434478	1.043257	-0.674357
C52	C	0.434584	1.043178	-0.142970
C53	C	0.434356	1.043312	-0.061182
H54	H	0.539406	0.468944	-0.414513
H55	H	0.329779	1.133597	-0.769791
N56	N	0.314532	0.469294	-0.242161
H57	H	0.328471	0.482002	-0.188908
H58	H	0.250113	0.485723	-0.256763
H59	H	0.329732	1.133613	-0.909220
N60	N	0.314499	0.629049	-0.242168
H61	H	0.277903	0.594755	-0.214124
H62	H	0.351158	0.659203	-0.206335
N63	N	-0.038577	0.920571	-0.211563
H64	H	0.000505	0.884630	-0.239623
H65	H	0.000472	0.948687	-0.175636
N66	N	0.102665	1.156704	-0.447649
H67	H	0.169501	1.146412	-0.437359
H68	H	0.086181	1.146046	-0.500986
N69	N	-0.234411	0.929800	-0.220797
H70	H	-0.190260	0.897894	-0.188901
H71	H	-0.273487	0.961590	-0.188582
N72	N	0.554305	0.939789	-0.908759
H73	H	0.545534	0.947349	-0.963694
H74	H	0.618745	0.948190	-0.892293
H75	H	0.090271	0.974013	-0.265001
H76	H	0.539119	0.952932	-0.759886
N77	N	-0.234470	1.125518	-0.416466
H78	H	-0.218088	1.113330	-0.468275
H79	H	-0.301286	1.121502	-0.412413
N80	N	0.554671	0.617821	-0.426193
H81	H	0.591266	0.580102	-0.454241
H82	H	0.517998	0.651451	-0.462021
N83	N	-0.093165	1.165925	-0.456882
H84	H	-0.159997	1.161932	-0.452890
H85	H	-0.076694	1.217705	-0.444655
