data_functionalizedCrystal
_audit_creation_method	'MofGen! by Chris Wilmer'
_symmetry_space_group_name_H-M	'P1'
_symmetry_Int_Tables_number	1
_symmetry_cell_setting	triclinic
loop_
_symmetry_equiv_pos_as_xyz
  x,y,z
_cell_length_a	21.883469
_cell_length_b	21.882911
_cell_length_c	21.879399
_cell_angle_alpha	60.006540
_cell_angle_beta	60.013207
_cell_angle_gamma	59.992231
loop_
_atom_site_label
_atom_site_type_symbol
_atom_site_fract_x
_atom_site_fract_y
_atom_site_fract_z
O1	O	0.084645	-0.892842	0.746620
O2	O	0.031867	-0.695139	0.601571
O3	O	0.157054	-0.820237	0.601476
O4	O	-0.040542	-0.767744	0.746716
O5	O	0.198586	-0.778715	0.642912
O6	O	0.073399	-0.653617	0.643007
O7	O	0.126177	-0.851320	0.788056
Cu8	Cu	0.103580	-0.748677	0.719315
Cu9	Cu	0.054464	-0.797782	0.670313
O10	O	0.000990	-0.726222	0.788151
N11	N	0.138128	-0.714145	0.753785
N12	N	0.019923	-0.832320	0.635843
C13	C	0.190018	-0.547369	0.805644
C14	C	0.190029	-0.662289	0.805630
C15	C	0.218780	-0.633565	0.834353
C16	C	0.344122	-0.611968	0.768360
C17	C	0.422474	-0.638085	0.742222
C18	C	0.422504	-0.764859	0.790561
C19	C	0.344154	-0.738739	0.816702
C20	C	0.208899	-0.508180	0.728617
C21	C	0.182748	-0.429822	0.702522
C22	C	0.118843	-0.429847	0.830485
C23	C	0.144993	-0.508205	0.856580
C24	C	0.112994	-0.643364	0.824587
C25	C	0.086865	-0.669476	0.798467
C26	C	0.214799	-0.733437	0.734451
C27	C	0.240932	-0.707325	0.760562
C28	C	0.113084	-0.643389	0.959747
C29	C	0.087018	-0.669524	1.038102
C30	C	0.214996	-0.733501	1.038048
C31	C	0.241061	-0.707367	0.959690
C32	C	0.190103	-0.662308	0.920542
C33	C	0.304966	-0.662293	0.805598
C34	C	-0.117460	-0.854702	0.612901
C35	C	-0.002405	-0.854864	0.498145
C36	C	-0.002621	-0.969735	0.613108
C37	C	-0.002603	-0.854858	0.613180
C38	C	-0.031272	-0.883541	0.584334
N39	N	0.460550	-0.714150	0.753681
O40	O	0.699805	-0.721060	0.574973
O41	O	0.700047	-0.866553	0.772482
O42	O	0.699952	-0.866219	0.647213
O43	O	0.699900	-0.721394	0.700242
O44	O	0.575478	-0.824800	0.688791
O45	O	0.575573	-0.825134	0.814060
O46	O	0.575331	-0.679641	0.616551
Cu47	Cu	0.564087	-0.748606	0.719102
Cu48	Cu	0.711292	-0.797588	0.669931
O49	O	0.575426	-0.679975	0.741820
N50	N	0.814828	-0.832044	0.635345
N51	N	0.138106	-0.391772	0.753815
O52	O	-0.040520	-0.152377	0.746758
O53	O	0.156993	-0.152371	0.601281
O54	O	0.031698	-0.152390	0.601639
O55	O	0.084775	-0.152358	0.746401
O56	O	0.073234	-0.276876	0.643130
O57	O	0.198529	-0.276856	0.642772
O58	O	0.001015	-0.276863	0.788249
Cu59	Cu	0.103564	-0.288226	0.719299
Cu60	Cu	0.054444	-0.141007	0.670231
O61	O	0.126310	-0.276844	0.787892
N62	N	0.019892	-0.037461	0.635717
N63	N	0.138332	-0.714192	1.076133
O64	O	0.131293	-0.892804	1.315506
O65	O	-0.014162	-0.695219	1.315533
O66	O	-0.013826	-0.820490	1.315480
O67	O	0.130957	-0.767533	1.315559
O68	O	0.027651	-0.778981	1.191001
O69	O	0.027314	-0.653710	1.191054
O70	O	0.172770	-0.851295	1.191026
Cu71	Cu	0.103829	-0.748713	1.179674
Cu72	Cu	0.054778	-0.797802	1.326885
O73	O	0.172434	-0.726024	1.191079
N74	N	0.020275	-0.832331	1.430426
C75	C	0.047687	-0.649466	0.602306
C76	C	0.202716	-0.804385	0.602188
C77	C	0.110357	-0.896993	0.787321
C78	C	-0.044672	-0.742074	0.787439
C79	C	0.637839	-0.865879	0.818154
C80	C	0.637724	-0.865466	0.663023
C81	C	0.637536	-0.680313	0.570880
C82	C	0.637655	-0.680728	0.726010
C83	C	0.202592	-0.214459	0.601942
C84	C	0.047481	-0.214636	0.602435
C85	C	-0.044635	-0.214620	0.787537
C86	C	0.110528	-0.214598	0.787096
C87	C	-0.013455	-0.649572	1.253296
C88	C	-0.013030	-0.804697	1.253206
C89	C	0.172063	-0.896942	1.253263
C90	C	0.171648	-0.741808	1.253325
H91	H	0.071582	-0.606692	0.927876
H92	H	0.637900	-0.911553	0.874882
H93	H	0.637745	-0.910963	0.651673
C94	C	0.279060	-0.213985	0.540082
C95	C	0.340680	-0.213737	0.554942
C96	C	0.417149	-0.213263	0.493081
C97	C	0.431998	-0.213037	0.416360
C98	C	0.370377	-0.213285	0.401497
C99	C	0.293908	-0.213759	0.463357
H100	H	0.329689	-0.213904	0.611738
H101	H	0.462765	-0.213079	0.504085
H102	H	0.488605	-0.212685	0.370567
H103	H	0.381368	-0.213117	0.344700
H104	H	0.248292	-0.213943	0.452354
C105	C	0.125579	-0.973714	0.848868
C106	C	0.064078	-0.988884	0.925606
C107	C	0.079301	-1.065605	0.987153
C108	C	0.156024	-1.127155	0.971961
C109	C	0.217530	-1.111987	0.895219
C110	C	0.202307	-1.035266	0.833673
H111	H	0.007278	-0.943319	0.936855
H112	H	0.033769	-1.076833	1.043963
H113	H	0.167292	-1.183948	1.017522
H114	H	0.274330	-1.157552	0.883970
H115	H	0.247839	-1.024038	0.776863
H116	H	0.245557	-0.540066	0.687141
C117	C	-0.075152	-0.572913	1.253306
C118	C	-0.150436	-0.567812	1.317936
C119	C	-0.212133	-0.491153	1.317945
C120	C	-0.198545	-0.419595	1.253325
C121	C	-0.123257	-0.424694	1.188691
C122	C	-0.061561	-0.501353	1.188681
H123	H	-0.160498	-0.620785	1.365776
H124	H	-0.267866	-0.487379	1.365793
H125	H	-0.244216	-0.362847	1.253332
H126	H	-0.113196	-0.371721	1.140851
H127	H	-0.005828	-0.505127	1.140834
C128	C	-0.121341	-0.726966	0.849058
C129	C	-0.182961	-0.650271	0.833972
C130	C	-0.259630	-0.635163	0.895590
C131	C	-0.274680	-0.696750	0.972294
C132	C	-0.213058	-0.773450	0.987383
C133	C	-0.136389	-0.788558	0.925765
H134	H	-0.171822	-0.604677	0.777188
H135	H	-0.305246	-0.578384	0.884419
H136	H	-0.331435	-0.685566	1.017908
H137	H	-0.224197	-0.819045	1.044167
H138	H	-0.090773	-0.845337	0.936936
H139	H	0.036114	-0.214639	0.556956
H140	H	0.637457	-0.634634	0.514159
C141	C	-0.121264	-0.214619	0.849241
C142	C	-0.182963	-0.214630	0.834302
C143	C	-0.259591	-0.214630	0.896005
C144	C	-0.274520	-0.214618	0.972647
C145	C	-0.212819	-0.214608	0.987590
C146	C	-0.136191	-0.214608	0.925886
H147	H	-0.171913	-0.214639	0.777564
H148	H	-0.305266	-0.214638	0.884943
H149	H	-0.331245	-0.214618	1.018324
H150	H	-0.223869	-0.214599	1.044328
H151	H	-0.090516	-0.214600	0.936948
H152	H	0.637644	-0.635235	0.737357
H153	H	0.259468	-0.815577	0.556577
H154	H	0.121892	-0.214588	0.832572
H155	H	0.036413	-0.592673	0.556752
H156	H	-0.058496	-0.816008	1.253133
C157	C	0.233759	-0.973601	1.253254
C158	C	0.218810	-1.035277	1.253221
C159	C	0.280506	-1.111936	1.253212
C160	C	0.357152	-1.126920	1.253235
C161	C	0.372105	-1.065242	1.253267
C162	C	0.310409	-0.988583	1.253277
H163	H	0.162068	-1.024187	1.253204
H164	H	0.269436	-1.157594	1.253188
H165	H	0.402824	-1.183667	1.253228
H166	H	0.428847	-1.076333	1.253284
H167	H	0.321479	-0.942926	1.253300
C168	C	0.233100	-0.726510	1.253345
C169	C	0.219272	-0.705857	1.317999
C170	C	0.280724	-0.690558	1.318019
C171	C	0.356006	-0.695912	1.253384
C172	C	0.369838	-0.716566	1.188725
C173	C	0.308385	-0.731865	1.188705
H174	H	0.163541	-0.701893	1.365850
H175	H	0.270485	-0.675269	1.365884
H176	H	0.401497	-0.684587	1.253398
H177	H	0.425569	-0.720530	1.140874
H178	H	0.318625	-0.747154	1.140840
C179	C	0.002290	-0.648697	1.081220
C180	C	-0.053756	-0.599130	1.038153
C181	C	-0.138482	-0.578302	1.081273
C182	C	-0.167161	-0.607041	1.167459
C183	C	-0.111113	-0.656611	1.210531
C184	C	-0.026388	-0.677439	1.167411
H185	H	-0.032527	-0.577853	0.974349
H186	H	-0.179972	-0.541607	1.049388
H187	H	-0.229880	-0.591623	1.199379
H188	H	-0.132343	-0.677888	1.274336
H189	H	0.015102	-0.714134	1.199296
H190	H	0.303780	-0.722782	0.927774
C191	C	0.271053	-0.783051	1.081104
C192	C	0.270729	-0.757032	1.134964
C193	C	0.326789	-0.806583	1.178020
C194	C	0.383174	-0.882152	1.167214
C195	C	0.383501	-0.908175	1.113351
C196	C	0.327440	-0.858624	1.070296
H197	H	0.228988	-0.701087	1.142965
H198	H	0.326547	-0.787319	1.217893
H199	H	0.424674	-0.918833	1.199087
H200	H	0.425242	-0.964119	1.105350
H201	H	0.327682	-0.877888	1.030423
C202	C	0.002127	-0.648667	0.819311
C203	C	-0.047018	-0.671488	0.902073
C204	C	-0.131754	-0.650680	0.922916
C205	C	-0.167346	-0.607051	0.860995
C206	C	-0.118202	-0.584227	0.778228
C207	C	-0.033465	-0.605035	0.757385
H208	H	-0.020670	-0.703787	0.947915
H209	H	-0.168134	-0.667576	0.984186
H210	H	-0.230073	-0.591647	0.876424
H211	H	-0.144549	-0.551928	0.732386
H212	H	0.002915	-0.588139	0.696115
H213	H	0.071542	-0.606694	0.861281
H214	H	0.256252	-0.770113	0.697763
H215	H	0.303660	-0.722726	0.745118
H216	H	0.312274	-0.779724	0.847024
H217	H	0.454413	-0.827107	0.799589
H218	H	0.454353	-0.597104	0.711898
H219	H	0.312222	-0.549720	0.759316
H220	H	0.198119	-0.397913	0.639797
H221	H	0.082193	-0.397958	0.871963
H222	H	0.129609	-0.540114	0.919306
