data_functionalizedCrystal
_audit_creation_method	'MofGen! by Chris Wilmer'
_symmetry_space_group_name_H-M	'P1'
_symmetry_Int_Tables_number	1
_symmetry_cell_setting	triclinic
loop_
_symmetry_equiv_pos_as_xyz
  x,y,z
_cell_length_a	11.026607
_cell_length_b	17.699083
_cell_length_c	16.776229
_cell_angle_alpha	90.001529
_cell_angle_beta	89.996357
_cell_angle_gamma	84.065484
loop_
_atom_site_label
_atom_site_type_symbol
_atom_site_fract_x
_atom_site_fract_y
_atom_site_fract_z
O1	O	0.153399	-1.025155	-0.066172
O2	O	0.173356	-0.807519	-0.066197
O3	O	-0.013223	-0.898299	-0.066184
O4	O	0.339977	-0.934374	-0.066186
O5	O	-0.013233	-0.898281	0.066393
O6	O	0.173345	-0.807501	0.066379
O7	O	0.153388	-1.025137	0.066405
Zn8	Zn	0.163365	-0.916316	0.087441
Zn9	Zn	0.163379	-0.916340	-0.087234
O10	O	0.339966	-0.934356	0.066391
C11	C	0.172636	-0.779214	0.000087
C12	C	0.170490	-0.694902	0.000078
C13	C	-0.058419	-0.891635	0.000103
C14	C	-0.193075	-0.871796	0.000097
C15	C	0.154108	-1.053441	0.000118
C16	C	0.156254	-1.137754	0.000123
C17	C	-0.267042	-0.926576	0.000103
C18	C	-0.406216	-0.906072	0.000097
C19	C	0.385163	-0.941021	0.000103
C20	C	0.519819	-0.960860	0.000103
N21	N	0.163354	-0.916305	0.206652
C22	C	0.280008	-0.661328	0.000077
C23	C	0.277985	-0.582106	0.000088
C24	C	0.166443	-0.536460	0.000092
C25	C	0.056917	-0.570039	0.000095
C26	C	0.058941	-0.649259	0.000090
C27	C	0.048751	-0.250554	0.000115
C28	C	0.046735	-0.171329	0.000117
C29	C	0.267794	-0.183402	0.000112
C30	C	0.269819	-0.262621	0.000107
C31	C	0.160293	-0.296194	0.000114
C32	C	0.162488	-0.382094	0.000104
C33	C	0.164247	-0.450561	0.000096
C34	C	0.080771	-0.956523	0.248375
C35	C	0.080771	-0.956527	0.331828
C36	C	0.163360	-0.916316	0.373555
C37	C	0.245947	-0.876094	0.331826
C38	C	0.245941	-0.876086	0.248376
C39	C	0.245972	-0.876122	0.668374
C40	C	0.245974	-0.876135	0.751830
C41	C	0.080802	-0.956563	0.751826
C42	C	0.080796	-0.956555	0.668375
C43	C	0.163378	-0.916329	0.626653
C44	C	0.163376	-0.916325	0.536165
C45	C	0.163368	-0.916325	0.464042
N46	N	0.163385	-0.916348	0.793555
H47	H	-0.445918	-0.843990	0.000085
O48	O	-0.069374	-0.286761	0.000122
H49	H	-0.147272	-0.241709	0.000119
H50	H	-0.033903	-0.532868	0.000110
H51	H	-0.440480	-1.022943	0.000050
O52	O	-0.245653	-0.789562	0.000093
H53	H	-0.346715	-0.786362	0.000098
O54	O	-0.073576	-0.122092	0.000136
H55	H	-0.149397	-0.158745	0.000151
O56	O	0.335049	-0.832747	0.623377
H57	H	0.392487	-0.804797	0.666416
H58	H	0.356975	-0.156058	0.000111
O59	O	-0.059180	-0.685477	0.000088
H60	H	-0.137084	-0.640429	0.000085
O61	O	-0.008312	-0.999890	0.203370
H62	H	-0.065746	-1.027848	0.246406
O63	O	0.400315	-0.710560	0.000080
H64	H	0.476128	-0.673901	0.000092
O65	O	-0.214452	-1.008808	0.000113
H66	H	-0.245687	-1.037368	-0.053924
H67	H	0.367165	-0.554775	0.000086
H68	H	0.013525	-0.989274	0.365798
H69	H	0.360648	-0.299783	0.000100
H70	H	0.013548	-0.989301	0.634403
H71	H	0.013555	-0.989314	0.785804
O72	O	0.335074	-0.832777	0.796842
H73	H	0.392500	-0.804805	0.753811
O74	O	0.335034	-0.832726	0.376826
H75	H	0.321177	-0.839495	0.441865
H76	H	0.313187	-0.843336	0.214405
