data_functionalizedCrystal
_audit_creation_method	'MofGen! by Chris Wilmer'
_symmetry_space_group_name_H-M	'P1'
_symmetry_Int_Tables_number	1
_symmetry_cell_setting	triclinic
loop_
_symmetry_equiv_pos_as_xyz
  x,y,z
_cell_length_a	13.635800
_cell_length_b	27.923496
_cell_length_c	27.692826
_cell_angle_alpha	98.247464
_cell_angle_beta	84.885042
_cell_angle_gamma	81.036054
loop_
_atom_site_label
_atom_site_type_symbol
_atom_site_fract_x
_atom_site_fract_y
_atom_site_fract_z
V1	V	1.956224	-0.067794	-0.151574
O2	O	1.962542	0.002571	-0.148373
O3	O	1.921339	-0.133763	-0.150841
O4	O	1.912131	-0.067052	-0.217542
O5	O	1.971815	-0.064602	-0.081210
V6	V	2.202001	-0.059342	-0.143121
O7	O	2.078047	-0.086334	-0.170116
O8	O	2.305277	-0.040801	-0.124579
O9	O	2.125283	0.006628	-0.143854
O10	O	2.254381	-0.129707	-0.146322
O11	O	2.245109	-0.062534	-0.213485
O12	O	2.134491	-0.060083	-0.077153
V13	V	2.456224	-0.067794	-0.151574
O14	O	2.462542	0.002571	-0.148373
O15	O	2.421339	-0.133763	-0.150841
O16	O	2.412131	-0.067052	-0.217542
O17	O	2.471815	-0.064602	-0.081210
V18	V	2.702001	-0.059342	-0.143121
O19	O	2.578047	-0.086334	-0.170116
O20	O	2.805277	-0.040801	-0.124579
O21	O	2.625283	0.006628	-0.143854
O22	O	2.754381	-0.129707	-0.146322
O23	O	2.745109	-0.062534	-0.213485
O24	O	2.634491	-0.060083	-0.077153
C25	C	1.841884	-0.149836	-0.148528
C26	C	1.853872	-0.203769	-0.148368
C27	C	2.018236	-0.540704	-0.149863
C28	C	2.063349	-0.743410	-0.149285
O29	O	2.145648	-0.771735	-0.151300
N30	N	1.979079	-0.766274	-0.146779
C31	C	1.883523	-0.738458	-0.144420
O32	O	1.812882	-0.762557	-0.142280
C33	C	1.838412	-0.535753	-0.145001
C34	C	1.922688	-0.512892	-0.147502
C35	C	2.102505	-0.517842	-0.152365
C36	C	2.091226	-0.467168	-0.152506
C37	C	1.995679	-0.439356	-0.150146
C38	C	1.911410	-0.462217	-0.147644
C39	C	1.742858	-0.507939	-0.142645
C40	C	1.731588	-0.457260	-0.142792
C41	C	1.815864	-0.434398	-0.145294
C42	C	1.804583	-0.383731	-0.145425
N43	N	1.888853	-0.360868	-0.147932
C44	C	1.984401	-0.388680	-0.150292
C45	C	1.907214	-0.844881	-0.144114
C46	C	1.918491	-0.895557	-0.143968
C47	C	2.098317	-0.900506	-0.148834
C48	C	2.087037	-0.849828	-0.148977
C49	C	1.991484	-0.822018	-0.146621
C50	C	1.960708	-0.282260	-0.150589
C51	C	1.949420	-0.231581	-0.150728
C52	C	1.769596	-0.226638	-0.145865
C53	C	1.780882	-0.277312	-0.145723
C54	C	1.876446	-0.305122	-0.148087
O55	O	1.722318	-0.355377	-0.143417
O56	O	2.055031	-0.364573	-0.152443
C57	C	2.029515	-0.591378	-0.149721
C58	C	1.945246	-0.614240	-0.147219
C59	C	1.849698	-0.586428	-0.144859
C60	C	1.956523	-0.664915	-0.147073
C61	C	2.052071	-0.692728	-0.149433
C62	C	2.136342	-0.669864	-0.151940
C63	C	2.125063	-0.619190	-0.152081
C64	C	1.765428	-0.609291	-0.142352
C65	C	1.776714	-0.659965	-0.142210
C66	C	1.872262	-0.687778	-0.144571
C67	C	1.830137	-0.064738	-0.233611
C68	C	1.834657	-0.064568	-0.287542
C69	C	2.036409	0.022698	-0.146165
C70	C	2.014039	0.076631	-0.146328
C71	C	2.048156	-0.062399	-0.061081
C72	C	2.033257	-0.062566	-0.007149
C73	C	2.341884	-0.149836	-0.148528
C74	C	2.353872	-0.203769	-0.148368
C75	C	1.947316	-0.108104	0.370879
C76	C	2.003254	-0.107538	0.168171
O77	O	2.027820	-0.145275	0.135902
N78	N	1.989912	-0.063005	0.149949
C79	C	1.962589	-0.018611	0.182407
O80	O	1.952534	0.019280	0.162257
C81	C	1.906658	-0.019178	0.385115
C82	C	1.919993	-0.063713	0.403334
C83	C	1.960650	-0.152636	0.389099
C84	C	1.946661	-0.152778	0.439773
C85	C	1.919337	-0.108387	0.472228
C86	C	1.906003	-0.063855	0.454008
C87	C	1.879342	0.025216	0.417573
C88	C	1.865363	0.025071	0.468253
C89	C	1.878698	-0.019465	0.486472
C90	C	1.864691	-0.019605	0.537137
N91	N	1.878033	-0.064138	0.555359
C92	C	1.905357	-0.108529	0.522904
C93	C	1.991953	-0.018317	0.075982
C94	C	2.005934	-0.018175	0.025305
C95	C	2.046600	-0.107102	0.011072
C96	C	2.032612	-0.107244	0.061750
C97	C	2.005295	-0.062849	0.094204
C98	C	1.875976	-0.108822	0.629324
C99	C	1.861980	-0.108959	0.680003
C100	C	1.821320	-0.020032	0.694232
C101	C	1.835310	-0.019895	0.643557
C102	C	1.862642	-0.064293	0.611104
O103	O	1.840136	0.018113	0.569433
O104	O	1.915428	-0.146413	0.543065
C105	C	1.961305	-0.107963	0.320205
C106	C	1.947971	-0.063431	0.301986
C107	C	1.920648	-0.019040	0.334440
C108	C	1.961952	-0.063289	0.251309
C109	C	1.989275	-0.107680	0.218855
C110	C	2.002617	-0.152213	0.237077
C111	C	1.988628	-0.152354	0.287751
C112	C	1.907305	0.025492	0.316218
C113	C	1.921295	0.025630	0.265544
C114	C	1.948618	-0.018761	0.233089
C115	C	2.449420	-0.231581	-0.150728
C116	C	2.460699	-0.282259	-0.150586
C117	C	2.376429	-0.305122	-0.148079
C118	C	2.280873	-0.277307	-0.145720
C119	C	2.269596	-0.226631	-0.145867
C120	C	2.330137	-0.064738	-0.233611
C121	C	2.334657	-0.064568	-0.287542
C122	C	2.536409	0.022698	-0.146165
C123	C	2.514039	0.076631	-0.146328
C124	C	2.548156	-0.062399	-0.061081
C125	C	2.533257	-0.062566	-0.007149
C126	C	2.426689	-0.066919	-0.315353
C127	C	2.430948	-0.066753	-0.366027
C128	C	2.343174	-0.064240	-0.388889
C129	C	2.251134	-0.061888	-0.361074
C130	C	2.246875	-0.062051	-0.310401
C131	C	2.590984	0.104443	-0.143969
C132	C	2.569976	0.155120	-0.144114
C133	C	2.472023	0.177983	-0.146622
C134	C	2.395072	0.150168	-0.148979
C135	C	2.416080	0.099492	-0.148831
C136	C	2.438797	-0.065073	0.015701
C137	C	2.424781	-0.065225	0.066376
C138	C	2.505227	-0.062873	0.094200
C139	C	2.599694	-0.060364	0.071347
C140	C	2.613707	-0.060209	0.020673
H141	H	2.018052	-0.212970	-0.152764
H142	H	1.799068	0.016109	0.720665
N143	N	2.215964	-0.594538	-0.154789
H144	H	2.211598	-0.568781	-0.124723
H145	H	2.278149	-0.619885	-0.156281
N146	N	1.666546	-0.196635	-0.143325
H147	H	1.614865	-0.218804	-0.141719
H148	H	1.654234	-0.170658	-0.113043
H149	H	2.214141	-0.692517	-0.153857
N150	N	2.166537	-0.196632	-0.143311
H151	H	2.161549	-0.180337	-0.173498
H152	H	2.114928	-0.218836	-0.141682
H153	H	1.708078	-0.678574	-0.140170
H154	H	2.454931	0.219247	-0.146742
N155	N	2.521372	-0.069622	-0.290706
H156	H	2.516392	-0.039560	-0.264941
H157	H	2.530802	-0.100051	-0.274673
N158	N	2.189989	-0.301971	-0.143006
H159	H	2.152413	-0.296922	-0.172200
H160	H	2.211729	-0.338283	-0.143252
N161	N	2.156474	-0.059182	-0.385740
H162	H	2.123650	-0.088385	-0.380693
H163	H	2.109273	-0.027894	-0.370981
N164	N	1.906895	0.073671	0.245902
H165	H	1.955049	0.094734	0.259518
H166	H	1.919879	0.066992	0.208875
H167	H	2.347856	-0.067267	0.084975
H168	H	2.346656	-0.064108	-0.430151
H169	H	2.171930	-0.060138	-0.287762
H170	H	1.712258	-0.295927	-0.143689
H171	H	1.843122	0.061223	0.494675
N172	N	2.490105	-0.063038	0.148855
H173	H	2.418054	-0.064984	0.159105
H174	H	2.534947	-0.092358	0.157154
H175	H	2.315318	0.168791	-0.151021
N176	N	2.696638	0.079789	-0.141266
H177	H	2.742183	0.105103	-0.139791
H178	H	2.698835	0.063716	-0.110860
N179	N	1.662369	-0.579298	-0.139811
H180	H	1.610704	-0.601477	-0.138202
H181	H	1.650053	-0.553324	-0.109527
H182	H	2.665187	-0.058447	0.094009
H183	H	2.505900	-0.068670	-0.388667
H184	H	1.872838	-0.145227	0.694833
H185	H	2.690629	-0.058170	0.002072
H186	H	2.353418	0.076851	-0.150756
H187	H	1.999489	-0.188619	0.302579
N188	N	2.076085	-0.154978	-0.023941
H189	H	2.142021	-0.172785	-0.016555
H190	H	2.023017	-0.176064	-0.019905
N191	N	1.827587	-0.920208	-0.141263
H192	H	1.831965	-0.945966	-0.171329
H193	H	1.824590	-0.936250	-0.110839
H194	H	1.898230	-0.144975	0.602906
N195	N	2.652982	0.185113	-0.141579
H196	H	2.718221	0.162935	-0.139976
H197	H	2.658394	0.201399	-0.171774
H198	H	2.518048	-0.212972	-0.152766
H199	H	1.969709	0.017836	0.102403
H200	H	2.373282	-0.066988	-0.006947
H201	H	1.868475	0.061482	0.402749
H202	H	2.038523	-0.304898	-0.152515
H203	H	2.538512	-0.304899	-0.152506
N204	N	2.388600	-0.359780	-0.147922
H205	H	2.461920	-0.373926	-0.149796
H206	H	2.352253	-0.366132	-0.116692
H207	H	1.982901	-0.188787	0.362679
N208	N	2.182128	-0.442516	-0.155220
H209	H	2.244362	-0.467831	-0.156699
H210	H	2.185064	-0.426446	-0.185628
H211	H	2.155664	-0.831218	-0.151013
N212	N	2.205557	-0.547839	-0.154891
H213	H	2.217984	-0.573825	-0.185170
H214	H	2.257166	-0.525631	-0.156474
N215	N	2.201372	-0.930504	-0.151357
H216	H	2.195719	-0.966074	-0.150878
H217	H	2.242404	-0.927581	-0.182678
H218	H	1.829400	-0.822242	-0.142194
N219	N	1.961071	-0.200813	0.459419
H220	H	1.912928	-0.221884	0.445807
H221	H	2.031899	-0.218524	0.449158
N222	N	1.651957	-0.532589	-0.139947
H223	H	1.589725	-0.507274	-0.138477
H224	H	1.656430	-0.558348	-0.170019
H225	H	1.653777	-0.434619	-0.140876
H226	H	2.043471	-0.143509	0.076580
H227	H	1.995060	0.018090	0.010476
H228	H	2.024862	-0.188357	0.210643
N229	N	1.820916	0.028138	0.623902
H230	H	1.801481	0.056237	0.652154
H231	H	1.885316	0.031785	0.604871
H232	H	1.885059	0.061642	0.342639
