data_functionalizedCrystal
_audit_creation_method	'MofGen! by Chris Wilmer'
_symmetry_space_group_name_H-M	'P1'
_symmetry_Int_Tables_number	1
_symmetry_cell_setting	triclinic
loop_
_symmetry_equiv_pos_as_xyz
  x,y,z
_cell_length_a	10.654545
_cell_length_b	9.730223
_cell_length_c	10.654550
_cell_angle_alpha	90.004929
_cell_angle_beta	84.484005
_cell_angle_gamma	89.999987
loop_
_atom_site_label
_atom_site_type_symbol
_atom_site_fract_x
_atom_site_fract_y
_atom_site_fract_z
O1	O	1.667837	0.114276	0.176373
O2	O	2.167837	0.614276	0.676373
O3	O	1.302358	0.114282	0.193185
O4	O	1.802358	0.614282	0.693185
O5	O	1.493500	0.114270	0.002040
O6	O	1.993500	0.614270	0.502040
O7	O	1.476694	0.114287	0.367519
O8	O	1.976694	0.614287	0.867519
O9	O	1.493499	-0.114310	0.002031
O10	O	1.993499	0.385690	0.502031
O11	O	1.302356	-0.114298	0.193177
O12	O	1.802356	0.385702	0.693177
O13	O	1.667835	-0.114304	0.176365
O14	O	2.167835	0.385696	0.676365
Zn15	Zn	1.485095	-0.150593	0.184769
Zn16	Zn	1.985095	0.349407	0.684769
Zn17	Zn	1.485098	0.150571	0.184781
Zn18	Zn	1.985098	0.650571	0.684781
O19	O	1.476693	-0.114292	0.367510
O20	O	1.976693	0.385708	0.867510
C21	C	1.255559	-0.000008	0.191948
C22	C	1.755559	0.499992	0.691948
C23	C	1.116115	-0.000006	0.188258
C24	C	1.616115	0.499994	0.688258
C25	C	1.492266	-0.000019	-0.044762
C26	C	1.992266	0.499981	0.455238
C27	C	1.488574	-0.000017	-0.184206
C28	C	1.988574	0.499983	0.315794
C29	C	1.050610	-0.124606	0.186516
C30	C	1.550610	0.375394	0.686516
C31	C	0.919590	-0.124606	0.183029
C32	C	1.419590	0.375394	0.683029
C33	C	0.919593	0.124605	0.183030
C34	C	1.419593	0.624605	0.683030
C35	C	1.050611	0.124603	0.186508
C36	C	1.550611	0.624603	0.686508
C37	C	1.714634	-0.000012	0.177602
C38	C	2.214634	0.499988	0.677602
C39	C	1.854078	-0.000005	0.181292
C40	C	2.354078	0.499995	0.681292
N41	N	1.485100	0.356107	0.184779
N42	N	1.985100	0.856107	0.684779
N43	N	1.485103	-0.356130	0.184761
N44	N	1.985103	0.143870	0.684761
C45	C	1.569898	0.428028	0.100308
C46	C	2.069898	0.928028	0.600308
C47	C	1.569903	0.571911	0.100301
C48	C	2.069903	1.071911	0.600301
C49	C	1.400301	0.571939	0.269241
C50	C	1.900301	1.071939	0.769241
C51	C	1.400303	0.428059	0.269253
C52	C	1.900303	0.928059	0.769253
C53	C	1.601115	-0.000018	-0.263693
C54	C	2.101115	0.499982	0.236307
C55	C	1.597639	-0.000002	-0.394714
C56	C	2.097639	0.499998	0.105286
C57	C	1.369069	0.000012	-0.366747
C58	C	1.869069	0.500012	0.133253
C59	C	1.372547	0.000005	-0.235729
C60	C	1.872547	0.500005	0.264271
C61	C	1.477927	-0.000000	0.414312
C62	C	1.977927	0.500000	0.914312
C63	C	1.481619	0.000007	0.553755
C64	C	1.981619	0.500007	1.053755
H65	H	1.103940	-0.226070	0.187941
H66	H	1.603940	0.273930	0.687941
H67	H	1.695592	-0.000033	-0.221748
H68	H	2.195592	0.499967	0.278252
O69	O	0.848942	0.259002	0.181161
O70	O	1.348942	0.759002	0.681161
H71	H	0.746829	0.238073	0.178465
H72	H	1.246829	0.738073	0.678465
O73	O	1.661358	0.649475	0.009177
O74	O	2.161358	1.149475	0.509177
H75	H	1.608077	0.715017	-0.052459
H76	H	2.108077	1.215017	0.447541
O77	O	0.848932	-0.258994	0.181162
O78	O	1.348932	0.241006	0.681162
H79	H	0.916495	-0.345636	0.182974
H80	H	1.416495	0.154364	0.682974
H81	H	1.103947	0.226074	0.187923
H82	H	1.603947	0.726074	0.687923
H83	H	1.331259	0.630537	0.338016
H84	H	1.831259	1.130537	0.838016
H85	H	1.638947	0.369448	0.031526
H86	H	2.138947	0.869448	0.531526
O87	O	1.308870	0.350471	0.360398
O88	O	1.808870	0.850471	0.860398
H89	H	1.249904	0.424673	0.419135
H90	H	1.749904	0.924673	0.919135
H91	H	1.689282	0.000000	-0.459428
H92	H	2.189282	0.500000	0.040572
O93	O	1.243928	0.000006	-0.422316
O94	O	1.743928	0.500006	0.077684
H95	H	1.260414	-0.000009	-0.526776
H96	H	1.760414	0.499991	-0.026776
O97	O	1.251158	-0.000009	-0.149980
O98	O	1.751158	0.499991	0.350020
H99	H	1.169893	-0.000018	-0.207816
H100	H	1.669893	0.499982	0.292184
