data_functionalizedCrystal
_audit_creation_method	'MofGen! by Chris Wilmer'
_symmetry_space_group_name_H-M	'P1'
_symmetry_Int_Tables_number	1
_symmetry_cell_setting	triclinic
loop_
_symmetry_equiv_pos_as_xyz
  x,y,z
_cell_length_a	14.044220
_cell_length_b	14.044191
_cell_length_c	13.596369
_cell_angle_alpha	89.997249
_cell_angle_beta	89.993157
_cell_angle_gamma	93.190327
loop_
_atom_site_label
_atom_site_type_symbol
_atom_site_fract_x
_atom_site_fract_y
_atom_site_fract_z
O1	O	0.230202	1.277174	-0.081748
O2	O	0.563535	1.610507	0.251585
O3	O	0.896868	1.943840	0.584918
O4	O	0.221889	1.000501	-0.081761
O5	O	0.555222	1.333834	0.251573
O6	O	0.888556	1.667168	0.584906
O7	O	0.087709	1.134685	-0.081745
O8	O	0.421043	1.468018	0.251589
O9	O	0.754376	1.801351	0.584922
O10	O	0.364381	1.142990	-0.081764
O11	O	0.697714	1.476324	0.251569
O12	O	1.031048	1.809657	0.584903
O13	O	0.087700	1.134669	0.081838
O14	O	0.421034	1.468003	0.415171
O15	O	0.754367	1.801336	0.748505
O16	O	0.221880	1.000486	0.081822
O17	O	0.555213	1.333819	0.415156
O18	O	0.888547	1.667153	0.748489
O19	O	0.230193	1.277158	0.081835
O20	O	0.563526	1.610492	0.415168
O21	O	0.896859	1.943825	0.748501
Zn22	Zn	0.226035	1.138820	0.107801
Zn23	Zn	0.559368	1.472153	0.441134
Zn24	Zn	0.892701	1.805486	0.774468
Zn25	Zn	0.226047	1.138840	-0.107727
Zn26	Zn	0.559380	1.472173	0.225607
Zn27	Zn	0.892713	1.805506	0.558940
O28	O	0.364372	1.142975	0.081819
O29	O	0.697705	1.476308	0.415152
O30	O	1.031039	1.809642	0.748486
C31	C	0.218248	0.964872	0.000029
C32	C	0.551581	1.298205	0.333363
C33	C	0.884914	1.631538	0.666696
C34	C	0.207401	0.858728	0.000025
C35	C	0.540734	1.192062	0.333358
C36	C	0.874067	1.525395	0.666692
C37	C	0.264501	0.613270	0.000031
C38	C	0.597834	0.946603	0.333364
C39	C	0.931168	1.279937	0.666698
C40	C	0.187585	0.664395	0.000035
C41	C	0.520918	0.997729	0.333368
C42	C	0.854251	1.331062	0.666701
C43	C	0.198613	0.772532	0.000029
C44	C	0.531946	1.105866	0.333363
C45	C	0.865280	1.439199	0.666696
C46	C	0.253474	0.505123	0.000036
C47	C	0.586808	0.838457	0.333370
C48	C	0.920141	1.171790	0.666703
C49	C	0.052083	1.131041	0.000047
C50	C	0.385416	1.464375	0.333380
C51	C	0.718750	1.797708	0.666714
C52	C	-0.054060	1.120197	0.000048
C53	C	0.279273	1.453530	0.333381
C54	C	0.612607	1.786863	0.666714
C55	C	-0.248398	1.100370	0.000033
C56	C	0.084935	1.433704	0.333366
C57	C	0.418268	1.767037	0.666699
C58	C	-0.299526	1.177285	0.000033
C59	C	0.033807	1.510618	0.333366
C60	C	0.367140	1.843952	0.666700
C61	C	-0.407663	1.166253	0.000025
C62	C	-0.074329	1.499587	0.333358
C63	C	0.259004	1.832920	0.666691
C64	C	-0.140252	1.111400	0.000041
C65	C	0.193081	1.444734	0.333374
C66	C	0.526415	1.778067	0.666708
C67	C	0.399998	1.146618	0.000025
C68	C	0.733332	1.479952	0.333358
C69	C	1.066665	1.813285	0.666692
C70	C	0.506142	1.157463	0.000018
C71	C	0.839475	1.490796	0.333351
C72	C	1.172808	1.824130	0.666685
C73	C	0.233834	1.312788	0.000043
C74	C	0.567167	1.646121	0.333376
C75	C	0.900500	1.979455	0.666709
C76	C	0.244681	1.418931	0.000040
C77	C	0.578014	1.752264	0.333374
C78	C	0.911348	2.085598	0.666707
N79	N	0.226027	1.138813	0.254893
N80	N	0.559360	1.472146	0.588226
N81	N	0.892693	1.805480	0.921559
N82	N	0.226048	1.138853	-0.254819
N83	N	0.559381	1.472187	0.078515
N84	N	0.892714	1.805520	0.411848
C85	C	0.226048	1.138839	0.656184
C86	C	0.559381	1.472172	0.989517
C87	C	0.892714	1.805505	1.322850
C88	C	0.226045	1.138829	0.544532
C89	C	0.559378	1.472162	0.877866
C90	C	0.892711	1.805496	1.211199
C91	C	0.226038	1.138826	0.455542
C92	C	0.559371	1.472160	0.788875
C93	C	0.892705	1.805493	1.122208
C94	C	0.226034	1.138816	0.343883
C95	C	0.559367	1.472149	0.677217
C96	C	0.892700	1.805482	1.010550
H97	H	0.338628	0.650711	0.000023
H98	H	0.671961	0.984045	0.333356
H99	H	1.005294	1.317378	0.666690
C100	C	-0.298971	1.000229	0.000036
C101	C	0.034362	1.333562	0.333369
C102	C	0.367695	1.666895	0.666703
H103	H	-0.366070	1.005860	0.000042
H104	H	-0.032736	1.339193	0.333375
H105	H	0.300597	1.672526	0.666708
H106	H	-0.281023	0.966521	-0.057004
H107	H	0.052310	1.299854	0.276329
H108	H	0.385643	1.633188	0.609663
H109	H	-0.281039	0.966530	0.057093
H110	H	0.052294	1.299864	0.390427
H111	H	0.385628	1.633197	0.723760
H112	H	-0.262085	1.251419	-0.000030
H113	H	0.071248	1.584752	0.333304
H114	H	0.404582	1.918085	0.666637
H115	H	0.113452	0.626952	-0.000030
H116	H	0.446786	0.960285	0.333304
H117	H	0.780119	1.293619	0.666637
