data_functionalizedCrystal
_audit_creation_method	'MofGen! by Chris Wilmer'
_symmetry_space_group_name_H-M	'P1'
_symmetry_Int_Tables_number	1
_symmetry_cell_setting	triclinic
loop_
_symmetry_equiv_pos_as_xyz
  x,y,z
_cell_length_a	19.121102
_cell_length_b	16.625539
_cell_length_c	16.625546
_cell_angle_alpha	89.969603
_cell_angle_beta	92.423284
_cell_angle_gamma	92.459347
loop_
_atom_site_label
_atom_site_type_symbol
_atom_site_fract_x
_atom_site_fract_y
_atom_site_fract_z
Zn1	Zn	1.073748	0.508418	0.373670
Zn2	Zn	1.073664	0.373576	0.508509
Zn3	Zn	0.956295	0.367854	0.367937
Zn4	Zn	0.956269	0.502624	0.502702
O5	O	1.014994	0.438118	0.438205
O6	O	1.172022	0.495351	0.396387
O7	O	1.058070	0.259984	0.489893
O8	O	0.971922	0.386530	0.255867
O9	O	1.171960	0.396283	0.495452
O10	O	1.058214	0.489802	0.260080
O11	O	0.971840	0.255779	0.386615
O12	O	0.858007	0.380912	0.380984
O13	O	0.971878	0.616226	0.485555
O14	O	0.857988	0.479927	0.479995
O15	O	1.058189	0.620483	0.390756
O16	O	1.058045	0.390665	0.620569
O17	O	0.971796	0.485476	0.616302
C18	C	0.832514	0.429170	0.429238
C19	C	0.754447	0.425361	0.425422
C20	C	1.014928	0.438081	0.647692
C21	C	1.014964	0.438095	0.737315
C22	C	1.015040	0.648429	0.438147
C23	C	1.015059	0.738052	0.438122
C24	C	0.717780	0.475042	0.475256
C25	C	0.644429	0.471467	0.471659
C26	C	0.607746	0.418206	0.418232
C27	C	0.644418	0.368523	0.368392
C28	C	0.717768	0.372102	0.371985
C29	C	0.386276	0.404826	0.404796
C30	C	0.312921	0.401249	0.401208
C31	C	0.312937	0.504195	0.504476
C32	C	0.386288	0.507766	0.508067
C33	C	0.422954	0.458086	0.458224
C34	C	0.532769	0.414549	0.414556
C35	C	0.497929	0.461748	0.461897
C36	C	1.198188	0.447102	0.447207
C37	C	1.276254	0.450930	0.451043
C38	C	1.014989	0.228627	0.438206
C39	C	1.015106	0.139012	0.438010
C40	C	1.015092	1.066229	0.438033
C41	C	1.015081	0.974920	0.438061
C42	C	1.015076	0.902143	0.438078
C43	C	1.015064	0.810828	0.438104
C44	C	1.015080	0.438174	0.227900
C45	C	1.015117	0.438198	0.138281
C46	C	1.015086	0.438185	1.065497
C47	C	1.015050	0.438163	0.974186
C48	C	1.015024	0.438140	0.901409
C49	C	1.014989	0.438118	0.810093
H50	H	0.747642	0.518411	0.518766
H51	H	0.416150	0.551135	0.551576
C52	C	0.492411	0.355966	0.355786
C53	C	0.502519	0.363209	0.264627
C54	C	0.462155	0.304633	0.205854
C55	C	0.411684	0.238813	0.238240
C56	C	0.401574	0.231568	0.329404
C57	C	0.441937	0.290144	0.388177
H58	H	0.539882	0.411935	0.240649
H59	H	0.469640	0.309997	0.138368
H60	H	0.381805	0.195452	0.194732
H61	H	0.364210	0.182842	0.353382
H62	H	0.434453	0.284780	0.455662
C63	C	0.604066	0.309940	0.309617
C64	C	0.614177	0.317187	0.218458
C65	C	0.573826	0.258603	0.159682
C66	C	0.523363	0.192773	0.192064
C67	C	0.513250	0.185524	0.283227
C68	C	0.553601	0.244107	0.342003
H69	H	0.651535	0.365920	0.194483
H70	H	0.581313	0.263970	0.092197
H71	H	0.493492	0.149407	0.148555
H72	H	0.475892	0.136790	0.307203
H73	H	0.546115	0.238741	0.409488
C74	C	0.758107	0.317453	0.317166
C75	C	0.748048	0.323712	0.225020
C76	C	0.788387	0.269066	0.170196
C77	C	0.838783	0.208161	0.207517
C78	C	0.848843	0.201901	0.299668
C79	C	0.808505	0.256547	0.354492
H80	H	0.710740	0.368799	0.197388
H81	H	0.780939	0.273701	0.101980
H82	H	0.868644	0.167709	0.166933
H83	H	0.886152	0.156814	0.327300
H84	H	0.815953	0.251912	0.422708
C85	C	0.538277	0.520333	0.520668
C86	C	0.528237	0.611519	0.513721
C87	C	0.568593	0.670101	0.572495
C88	C	0.618988	0.637498	0.638215
C89	C	0.629030	0.546308	0.645165
C90	C	0.588675	0.487726	0.586391
H91	H	0.490930	0.635658	0.465068
H92	H	0.561158	0.737606	0.567350
H93	H	0.648861	0.680864	0.681723
H94	H	0.666338	0.522169	0.693818
H95	H	0.596109	0.420221	0.591536
H96	H	0.283075	0.544643	0.545054
H97	H	0.614578	0.511922	0.512241
H98	H	0.416120	0.364367	0.364216
C99	C	0.272568	0.342675	0.342417
C100	C	0.312896	0.288040	0.287579
C101	C	0.272543	0.229475	0.228785
C102	C	0.191861	0.225546	0.224830
C103	C	0.151528	0.280183	0.279670
C104	C	0.191881	0.338748	0.338464
H105	H	0.372626	0.290947	0.290505
H106	H	0.302401	0.189029	0.188189
H107	H	0.161989	0.182193	0.181308
H108	H	0.091798	0.277276	0.276744
H109	H	0.162023	0.379194	0.379060
