data_functionalizedCrystal
_audit_creation_method	'MofGen! by Chris Wilmer'
_symmetry_space_group_name_H-M	'P1'
_symmetry_Int_Tables_number	1
_symmetry_cell_setting	triclinic
loop_
_symmetry_equiv_pos_as_xyz
  x,y,z
_cell_length_a	21.295418
_cell_length_b	12.759400
_cell_length_c	21.295411
_cell_angle_alpha	89.978889
_cell_angle_beta	89.964378
_cell_angle_gamma	90.030499
loop_
_atom_site_label
_atom_site_type_symbol
_atom_site_fract_x
_atom_site_fract_y
_atom_site_fract_z
Zn1	Zn	0.962375	-0.417869	-0.356267
Zn2	Zn	1.462375	0.082131	0.143733
Zn3	Zn	0.962321	-0.593556	-0.251006
Zn4	Zn	1.462321	-0.093556	0.248994
Zn5	Zn	0.857113	-0.417940	-0.250977
Zn6	Zn	1.357113	0.082060	0.249023
Zn7	Zn	0.857096	-0.593555	-0.356203
Zn8	Zn	1.357096	-0.093555	0.143797
O9	O	0.909726	-0.505730	-0.303613
O10	O	1.409726	-0.005730	0.196387
O11	O	1.050457	-0.441145	-0.342343
O12	O	1.550457	0.058855	0.157657
O13	O	0.948349	-0.570290	-0.162913
O14	O	1.448349	-0.070290	0.337087
O15	O	0.871105	-0.270910	-0.264958
O16	O	1.371105	0.229090	0.235042
O17	O	1.050417	-0.570221	-0.265009
O18	O	1.550417	-0.070221	0.234991
O19	O	0.948441	-0.270858	-0.342314
O20	O	1.448441	0.229142	0.157686
O21	O	0.871053	-0.441266	-0.162891
O22	O	1.371053	0.058734	0.337109
O23	O	0.769021	-0.441265	-0.264896
O24	O	1.269021	0.058735	0.235104
O25	O	0.871077	-0.570220	-0.444301
O26	O	1.371077	-0.070220	0.055699
O27	O	0.769009	-0.570289	-0.342205
O28	O	1.269009	-0.070289	0.157795
O29	O	0.948425	-0.441144	-0.444348
O30	O	1.448425	0.058856	0.055652
O31	O	0.948333	-0.740577	-0.264946
O32	O	1.448333	-0.240577	0.235054
O33	O	0.871025	-0.740576	-0.342234
O34	O	1.371025	-0.240576	0.157766
C35	C	0.909689	-0.778698	-0.303600
C36	C	1.409689	-0.278698	0.196400
C37	C	0.909730	-0.895474	-0.303615
C38	C	1.409730	-0.395474	0.196385
C39	C	0.746174	-0.505785	-0.303541
C40	C	1.246174	-0.005785	0.196459
C41	C	0.676206	-0.505834	-0.303525
C42	C	1.176206	-0.005834	0.196475
C43	C	0.950029	-0.950302	-0.263416
C44	C	1.450029	-0.450302	0.236584
C45	C	0.950068	-1.060026	-0.263436
C46	C	1.450068	-0.560026	0.236564
C47	C	0.869503	-1.060085	-0.343855
C48	C	1.369503	-0.560085	0.156145
C49	C	0.869468	-0.950363	-0.343838
C50	C	1.369468	-0.450363	0.156162
C51	C	0.996541	-0.950268	-0.216985
C52	C	1.496541	-0.450268	0.283015
C53	C	0.996580	-1.059992	-0.217004
C54	C	1.496580	-0.559992	0.282996
C55	C	0.643350	-0.573106	-0.343719
C56	C	1.143350	-0.073106	0.156281
C57	C	0.577607	-0.573080	-0.343748
C58	C	1.077607	-0.073080	0.156252
C59	C	0.544724	-0.505794	-0.303570
C60	C	1.044724	-0.005794	0.196430
C61	C	0.577588	-0.438509	-0.263372
C62	C	1.077588	0.061491	0.236628
C63	C	0.643329	-0.438529	-0.263350
C64	C	1.143329	0.061471	0.236650
N65	N	0.441454	-0.497582	-0.248512
N66	N	0.941454	0.002418	0.251488
N67	N	0.379003	-0.497568	-0.248535
N68	N	0.879003	0.002432	0.251465
C69	C	0.346649	-0.505727	-0.303637
C70	C	0.846649	-0.005727	0.196363
N71	N	0.379106	-0.513919	-0.358715
N72	N	0.879106	-0.013919	0.141285
N73	N	0.441563	-0.513938	-0.358691
N74	N	0.941563	-0.013938	0.141309
C75	C	0.473438	-0.505764	-0.303590
C76	C	0.973438	-0.005764	0.196410
C77	C	0.242507	-0.572974	-0.343865
C78	C	0.742507	-0.072974	0.156135
C79	C	0.176763	-0.572940	-0.343895
C80	C	0.676763	-0.072940	0.156105
C81	C	0.176746	-0.438375	-0.263514
C82	C	0.676746	0.061625	0.236486
C83	C	0.242488	-0.438403	-0.263490
C84	C	0.742488	0.061597	0.236510
C85	C	0.275365	-0.505708	-0.303665
C86	C	0.775365	-0.005708	0.196335
C87	C	1.073916	-0.505675	-0.303686
C88	C	1.573916	-0.005675	0.196314
C89	C	1.143884	-0.505652	-0.303717
C90	C	1.643884	-0.005652	0.196283
C91	C	0.909755	-0.505674	-0.467803
C92	C	1.409755	-0.005674	0.032197
C93	C	0.909767	-0.505650	-0.537772
C94	C	1.409767	-0.005650	-0.037772
C95	C	0.909781	-0.231697	-0.303640
C96	C	1.409781	0.268303	0.196360
C97	C	0.909804	-0.114920	-0.303652
C98	C	1.409804	0.385080	0.196348
C99	C	0.950086	-0.572615	-1.037242
C100	C	1.450086	-0.072615	-0.537242
C101	C	0.950074	-0.572649	-0.971499
C102	C	1.450074	-0.072649	-0.471499
C103	C	0.909827	-0.505486	-0.938611
C104	C	1.409827	-0.005486	-0.438611
C105	C	0.869576	-0.438304	-0.971471
C106	C	1.369576	0.061696	-0.471471
C107	C	0.869584	-0.438280	-1.037213
C108	C	1.369584	0.061720	-0.537213
N109	N	0.905003	-0.413561	-0.835397
N110	N	1.405003	0.086439	-0.335397
N111	N	0.904999	-0.413587	-0.772946
N112	N	1.404999	0.086413	-0.272946
C113	C	0.909799	-0.505557	-0.740536
C114	C	1.409799	-0.005557	-0.240536
N115	N	0.914615	-0.597502	-0.772938
N116	N	1.414615	-0.097502	-0.272938
N117	N	0.914623	-0.597475	-0.835395
N118	N	1.414623	-0.097475	-0.335395
C119	C	0.909813	-0.505506	-0.867326
C120	C	1.409813	-0.005506	-0.367326
C121	C	0.950032	-0.572777	-0.636399
C122	C	1.450032	-0.072777	-0.136399
C123	C	0.950016	-0.572812	-0.570655
C124	C	1.450016	-0.072812	-0.070655
C125	C	0.869521	-0.438458	-0.570628
C126	C	1.369521	0.061542	-0.070628
C127	C	0.869534	-0.438432	-0.636371
C128	C	1.369534	0.061568	-0.136371
C129	C	0.909792	-0.505590	-0.669252
C130	C	1.409792	-0.005590	-0.169252
C131	C	0.909733	-0.505710	-0.140062
C132	C	1.409733	-0.005710	0.359938
C133	C	0.909843	-0.505438	-0.070094
C134	C	1.409843	-0.005438	0.429906
H135	H	0.836659	-0.905723	-0.376577
H136	H	1.336659	-0.405723	0.123423
C137	C	0.316523	-0.587784	-0.428493
C138	C	0.816523	-0.087784	0.071507
C139	C	0.278654	-0.646941	-0.388028
C140	C	0.778654	-0.146941	0.111972
H141	H	0.338840	-0.633450	-0.455754
H142	H	0.838840	-0.133450	0.044246
H143	H	0.290922	-0.542064	-0.452628
H144	H	0.790922	-0.042064	0.047372
H145	H	0.345498	-0.547730	-0.404539
H146	H	0.845498	-0.047730	0.095461
H147	H	0.249675	-0.686989	-0.411983
H148	H	0.749675	-0.186989	0.088017
H149	H	0.304258	-0.692679	-0.363892
H150	H	0.804258	-0.192679	0.136108
H151	H	0.836724	-1.104789	-0.376604
H152	H	1.336724	-0.604789	0.123396
C153	C	1.102266	-0.995203	-0.245449
C154	C	1.602266	-0.495203	0.254551
C155	C	1.062329	-0.909926	-0.234690
C156	C	1.562329	-0.409926	0.265310
H157	H	1.142878	-0.970294	-0.256382
H158	H	1.642878	-0.470294	0.243618
H159	H	1.104953	-1.036589	-0.208466
H160	H	1.604953	-0.536589	0.291534
H161	H	1.086056	-1.036550	-0.278803
H162	H	1.586056	-0.536550	0.221197
H163	H	1.078538	-0.868583	-0.201332
H164	H	1.578538	-0.368583	0.298668
H165	H	1.059644	-0.868522	-0.271677
H166	H	1.559644	-0.368522	0.228323
C167	C	0.636707	-0.305520	-0.183898
C168	C	1.136707	0.194480	0.316102
C169	C	0.679449	-0.364588	-0.219159
C170	C	1.179449	0.135412	0.280841
H171	H	0.659008	-0.259879	-0.156613
H172	H	1.159008	0.240121	0.343387
H173	H	0.611114	-0.265383	-0.211375
H174	H	1.111114	0.234617	0.288625
H175	H	0.611018	-0.351242	-0.159784
H176	H	1.111018	0.148758	0.340216
H177	H	0.705135	-0.318866	-0.243276
H178	H	1.205135	0.181134	0.256724
H179	H	0.705053	-0.404728	-0.191679
H180	H	1.205053	0.095272	0.308321
H181	H	1.042896	-1.093921	-0.234525
H182	H	1.542896	-0.593921	0.265475
C183	C	0.183389	-0.705977	-0.423330
C184	C	0.683389	-0.205977	0.076670
C185	C	0.140645	-0.646896	-0.388078
C186	C	0.640645	-0.146896	0.111922
H187	H	0.161089	-0.751639	-0.450603
H188	H	0.661089	-0.251639	0.049397
H189	H	0.209072	-0.660271	-0.447450
H190	H	0.709072	-0.160271	0.052550
H191	H	0.208987	-0.746101	-0.395842
H192	H	0.708987	-0.246101	0.104158
H193	H	0.115050	-0.606765	-0.415566
H194	H	0.615050	-0.106765	0.084434
H195	H	0.114951	-0.692607	-0.363956
H196	H	0.614951	-0.192607	0.136044
C197	C	0.968292	-1.015008	-0.111235
C198	C	1.468292	-0.515008	0.388765
C199	C	0.978998	-1.100304	-0.151178
C200	C	1.478998	-0.600304	0.348822
H201	H	0.957433	-1.039897	-0.070601
H202	H	1.457433	-0.539897	0.429399
H203	H	1.005271	-0.973590	-0.108619
H204	H	1.505271	-0.473590	0.391381
H205	H	0.934901	-0.973699	-0.127394
H206	H	1.434901	-0.473699	0.372606
H207	H	1.012391	-1.141609	-0.135022
H208	H	1.512391	-0.641609	0.364978
H209	H	0.942014	-1.141739	-0.153793
H210	H	1.442014	-0.641739	0.346207
H211	H	0.982783	-0.627526	-0.543908
H212	H	1.482783	-0.127526	-0.043908
C213	C	0.262650	-0.387003	-0.156942
C214	C	0.762650	0.112997	0.343058
C215	C	0.278609	-0.364466	-0.219300
C216	C	0.778609	0.135534	0.280700
H217	H	0.284952	-0.341356	-0.129661
H218	H	0.784952	0.158644	0.370339
H219	H	0.218796	-0.377356	-0.151210
H220	H	0.718796	0.122644	0.348790
H221	H	0.273387	-0.457578	-0.147662
H222	H	0.773387	0.042422	0.352338
H223	H	0.267867	-0.293892	-0.228581
H224	H	0.767867	0.206108	0.271419
H225	H	0.322472	-0.374104	-0.225034
H226	H	0.822472	0.125896	0.274966
C227	C	0.075965	-0.378644	-0.227828
C228	C	0.575965	0.121356	0.272172
C229	C	0.140607	-0.364443	-0.219329
C230	C	0.640607	0.135557	0.280671
H231	H	0.053654	-0.333011	-0.200542
H232	H	0.553654	0.166989	0.299458
H233	H	0.065233	-0.363326	-0.270131
H234	H	0.565233	0.136674	0.229869
H235	H	0.065167	-0.449224	-0.218564
H236	H	0.565167	0.050776	0.281436
H237	H	0.151406	-0.293865	-0.228598
H238	H	0.651406	0.206135	0.271402
H239	H	0.151344	-0.379754	-0.177017
H240	H	0.651344	0.120246	0.322983
H241	H	0.979094	-0.916315	-0.170647
H242	H	1.479094	-0.416315	0.329353
C243	C	1.029648	-0.705422	-1.030659
C244	C	1.529648	-0.205422	-0.530659
C245	C	0.994330	-0.646446	-1.073384
C246	C	1.494330	-0.146446	-0.573384
H247	H	1.056958	-0.751008	-1.052974
H248	H	1.556958	-0.251008	-0.552974
H249	H	1.053732	-0.659645	-1.005038
H250	H	1.553732	-0.159645	-0.505038
H251	H	1.002204	-0.745624	-1.004997
H252	H	1.502204	-0.245624	-0.504997
H253	H	1.021774	-0.606239	-1.099043
H254	H	1.521774	-0.106239	-0.599043
H255	H	0.970244	-0.692229	-1.099016
H256	H	1.470244	-0.192229	-0.599016
C257	C	0.476802	-0.378751	-0.227705
C258	C	0.976802	0.121249	0.272295
C259	C	0.541445	-0.364556	-0.219202
C260	C	1.041445	0.135444	0.280798
H261	H	0.454491	-0.333097	-0.200432
H262	H	0.954491	0.166903	0.299568
H263	H	0.466076	-0.363460	-0.270013
H264	H	0.966076	0.136540	0.229987
H265	H	0.466000	-0.449324	-0.218425
H266	H	0.966000	0.050676	0.281575
H267	H	0.552249	-0.293985	-0.228486
H268	H	1.052249	0.206015	0.271514
H269	H	0.552176	-0.379840	-0.176885
H270	H	1.052176	0.120160	0.323115
H271	H	0.670114	-0.627909	-0.376434
H272	H	1.170114	-0.127909	0.123566
C273	C	0.584222	-0.706101	-0.423194
C274	C	1.084222	-0.206101	0.076806
C275	C	0.541481	-0.647026	-0.387935
C276	C	1.041481	-0.147026	0.112065
H277	H	0.561919	-0.751753	-0.450471
H278	H	1.061919	-0.251753	0.049529
H279	H	0.609906	-0.660391	-0.447311
H280	H	1.109906	-0.160391	0.052689
H281	H	0.609820	-0.746236	-0.395712
H282	H	1.109820	-0.246236	0.104288
H283	H	0.515886	-0.606885	-0.415418
H284	H	1.015886	-0.106885	0.084582
H285	H	0.515786	-0.692742	-0.363817
H286	H	1.015786	-0.192742	0.136183
C287	C	0.958793	-0.713988	-0.897552
C288	C	1.458793	-0.213988	-0.397552
C289	C	0.994313	-0.646491	-0.935376
C290	C	1.494313	-0.146491	-0.435376
H291	H	0.986105	-0.759577	-0.875255
H292	H	1.486105	-0.259577	-0.375255
H293	H	0.934823	-0.673992	-0.868565
H294	H	1.434823	-0.173992	-0.368565
H295	H	0.931369	-0.754183	-0.923187
H296	H	1.431369	-0.254183	-0.423187
H297	H	1.021734	-0.606291	-0.909740
H298	H	1.521734	-0.106291	-0.409740
H299	H	1.018294	-0.686492	-0.964366
H300	H	1.518294	-0.186492	-0.464366
H301	H	0.836806	-0.383622	-0.944690
H302	H	1.336806	0.116378	-0.444690
C303	C	0.790020	-0.305480	-1.030582
C304	C	1.290020	0.194520	-0.530582
C305	C	0.825351	-0.364426	-1.073328
C306	C	1.325351	0.135574	-0.573328
H307	H	0.762716	-0.259880	-1.052880
H308	H	1.262716	0.240120	-0.552880
H309	H	0.765928	-0.351275	-1.004928
H310	H	1.265928	0.148725	-0.504928
H311	H	0.817455	-0.265295	-1.004953
H312	H	1.317455	0.234705	-0.504953
H313	H	0.797915	-0.404617	-1.098953
H314	H	1.297915	0.095383	-0.598953
H315	H	0.849444	-0.318625	-1.098992
H316	H	1.349444	0.181375	-0.598992
C317	C	1.029591	-0.705589	-0.629824
C318	C	1.529591	-0.205589	-0.129824
C319	C	0.994276	-0.646605	-0.672547
C320	C	1.494276	-0.146605	-0.172547
H321	H	1.056901	-0.751172	-0.652141
H322	H	1.556901	-0.251172	-0.152141
H323	H	1.053674	-0.659818	-0.604198
H324	H	1.553674	-0.159818	-0.104198
H325	H	1.002145	-0.745795	-0.604166
H326	H	1.502145	-0.245795	-0.104166
H327	H	1.021721	-0.606394	-0.698202
H328	H	1.521721	-0.106394	-0.198202
H329	H	0.970191	-0.692382	-0.698183
H330	H	1.470191	-0.192382	-0.198183
C331	C	0.833768	-0.378840	-0.469844
C332	C	1.333768	0.121160	0.030156
C333	C	0.825279	-0.364632	-0.534486
C334	C	1.325279	0.135368	-0.034486
H335	H	0.806454	-0.333258	-0.447530
H336	H	1.306454	0.166742	0.052470
H337	H	0.824541	-0.449430	-0.459064
H338	H	1.324541	0.050570	0.040936
H339	H	0.876066	-0.363447	-0.459097
H340	H	1.376066	0.136553	0.040903
H341	H	0.782982	-0.380032	-0.545233
H342	H	1.282982	0.119968	-0.045233
H343	H	0.834502	-0.294026	-0.545270
H344	H	1.334502	0.205974	-0.045270
H345	H	0.836766	-0.383725	-0.663120
H346	H	1.336766	0.116275	-0.163120
