data_functionalizedCrystal
_audit_creation_method	'MofGen! by Chris Wilmer'
_symmetry_space_group_name_H-M	'P1'
_symmetry_Int_Tables_number	1
_symmetry_cell_setting	triclinic
loop_
_symmetry_equiv_pos_as_xyz
  x,y,z
_cell_length_a	18.050589
_cell_length_b	16.625547
_cell_length_c	16.625539
_cell_angle_alpha	90.027058
_cell_angle_beta	89.975176
_cell_angle_gamma	89.972593
loop_
_atom_site_label
_atom_site_type_symbol
_atom_site_fract_x
_atom_site_fract_y
_atom_site_fract_z
Zn1	Zn	-0.295674	-1.232648	-0.456068
Zn2	Zn	0.204326	-0.732648	0.043932
Zn3	Zn	-0.419872	-1.232538	-0.321244
Zn4	Zn	0.080128	-0.732538	0.178756
Zn5	Zn	-0.295698	-1.097810	-0.321234
Zn6	Zn	0.204302	-0.597810	0.178766
Zn7	Zn	-0.419825	-1.097767	-0.456018
Zn8	Zn	0.080175	-0.597767	0.043982
O9	O	-0.357767	-1.165191	-0.388641
O10	O	0.142233	-0.665191	0.111359
O11	O	-0.312159	-1.345466	-0.438209
O12	O	0.187841	-0.845466	0.061791
O13	O	-0.403430	-1.214638	-0.208410
O14	O	0.096570	-0.714638	0.291590
O15	O	-0.191771	-1.115761	-0.339137
O16	O	0.308229	-0.615761	0.160863
O17	O	-0.403406	-1.345385	-0.339154
O18	O	0.096594	-0.845385	0.160846
O19	O	-0.191753	-1.214826	-0.438199
O20	O	0.308247	-0.714826	0.061801
O21	O	-0.312200	-1.115654	-0.208403
O22	O	0.187800	-0.615654	0.291597
O23	O	-0.312155	-0.984972	-0.339088
O24	O	0.187845	-0.484972	0.160912
O25	O	-0.403327	-1.115687	-0.568858
O26	O	0.096673	-0.615687	-0.068858
O27	O	-0.403350	-0.984940	-0.438114
O28	O	0.096650	-0.484940	0.061886
O29	O	-0.312113	-1.214784	-0.568894
O30	O	0.187887	-0.714784	-0.068894
O31	O	-0.523790	-1.214596	-0.339105
O32	O	-0.023790	-0.714596	0.160895
O33	O	-0.523756	-1.115580	-0.438124
O34	O	-0.023756	-0.615580	0.061876
C35	C	-0.357750	-0.955700	-0.388595
C36	C	0.142250	-0.455700	0.111405
C37	C	-0.357761	-0.866079	-0.388594
C38	C	0.142239	-0.366079	0.111406
C39	C	-0.357762	-0.793296	-0.388601
C40	C	0.142238	-0.293296	0.111399
C41	C	-0.357764	-0.701988	-0.388618
C42	C	0.142236	-0.201988	0.111382
C43	C	-0.357770	-0.629212	-0.388636
C44	C	0.142230	-0.129212	0.111364
C45	C	-0.357774	-0.537897	-0.388651
C46	C	0.142226	-0.037897	0.111349
C47	C	-0.550720	-1.165094	-0.388628
C48	C	-0.050720	-0.665094	0.111372
C49	C	-0.633265	-1.165126	-0.388649
C50	C	-0.133265	-0.665126	0.111351
C51	C	-0.832724	-1.111334	-0.442476
C52	C	-0.332724	-0.611334	0.057524
C53	C	-0.882166	-1.091677	-0.368898
C54	C	-0.382166	-0.591677	0.131102
C55	C	-0.784396	-1.165205	-0.388659
C56	C	-0.284396	-0.665205	0.111341
C57	C	-0.882036	-1.184901	-0.462246
C58	C	-0.382036	-0.684901	0.037754
C59	C	-0.930381	-1.165280	-0.388676
C60	C	-0.430381	-0.665280	0.111324
C61	C	-0.832750	-1.145510	-0.315042
C62	C	-0.332750	-0.645510	0.184958
C63	C	-0.832616	-1.238767	-0.408440
C64	C	-0.332616	-0.738767	0.091560
C65	C	-0.882035	-1.219139	-0.334811
C66	C	-0.382035	-0.719139	0.165189
C67	C	-0.700297	-1.165160	-0.388651
C68	C	-0.200297	-0.665160	0.111349
C69	C	-1.014477	-1.165325	-0.388676
C70	C	-0.514477	-0.665325	0.111324
C71	C	-0.164062	-1.165311	-0.388672
C72	C	0.335938	-0.665311	0.111328
C73	C	-0.081516	-1.165362	-0.388685
C74	C	0.418484	-0.665362	0.111315
C75	C	-0.357712	-1.165243	-0.598950
C76	C	0.142288	-0.665243	-0.098950
C77	C	-0.357688	-1.165266	-0.688571
C78	C	0.142312	-0.665266	-0.188571
C79	C	-0.357782	-0.375500	-0.388678
C80	C	0.142218	0.124500	0.111322
C81	C	-0.357780	-0.465121	-0.388669
C82	C	0.142220	0.034879	0.111331
C83	C	-0.357605	-1.165303	-1.016747
C84	C	0.142395	-0.665303	-0.516747
C85	C	-0.357631	-1.165290	-0.925439
C86	C	0.142369	-0.665290	-0.425439
C87	C	-0.357647	-1.165285	-0.852662
C88	C	0.142353	-0.665285	-0.352662
C89	C	-0.357672	-1.165271	-0.761348
C90	C	0.142328	-0.665271	-0.261348
C91	C	-0.357769	-1.165185	-0.179150
C92	C	0.142231	-0.665185	0.320850
C93	C	-0.357583	-1.165319	-0.089530
C94	C	0.142417	-0.665319	0.410470
H95	H	-0.903947	-1.029503	-0.352183
H96	H	-0.403947	-0.529503	0.147817
O97	O	-0.907799	-1.273425	-0.280416
O98	O	-0.407799	-0.773425	0.219584
C99	C	-0.980898	-1.295209	-0.161093
C100	C	-0.480898	-0.795209	0.338907
C101	C	-0.951783	-1.233655	-0.222652
C102	C	-0.451783	-0.733655	0.277348
H103	H	-1.016452	-1.263076	-0.114366
H104	H	-0.516452	-0.763076	0.385634
H105	H	-1.015659	-1.342507	-0.193331
H106	H	-0.515659	-0.842507	0.306669
H107	H	-0.932085	-1.325612	-0.129979
H108	H	-0.432085	-0.825612	0.370021
H109	H	-1.000551	-1.203193	-0.253785
H110	H	-0.500551	-0.703193	0.246215
H111	H	-0.917000	-1.186407	-0.190370
H112	H	-0.417000	-0.686407	0.309630
O113	O	-0.907989	-1.204700	-0.536438
O114	O	-0.407989	-0.704700	-0.036438
C115	C	-1.015381	-1.227708	-0.619345
C116	C	-0.515381	-0.727708	-0.119345
C117	C	-0.986093	-1.205267	-0.535290
C118	C	-0.486093	-0.705267	-0.035290
H119	H	-1.078531	-1.228190	-0.618441
H120	H	-0.578531	-0.728190	-0.118441
H121	H	-0.995178	-1.181675	-0.665170
H122	H	-0.495178	-0.681675	-0.165170
H123	H	-0.994107	-1.289933	-0.636642
H124	H	-0.494107	-0.789933	-0.136642
H125	H	-1.007355	-1.143061	-0.517918
H126	H	-0.507355	-0.643061	-0.017918
H127	H	-1.006290	-1.251350	-0.489514
H128	H	-0.506290	-0.751350	0.010486
H129	H	-0.810837	-1.300928	-0.425190
H130	H	-0.310837	-0.800928	0.074810
O131	O	-0.806921	-1.056800	-0.496603
O132	O	-0.306921	-0.556800	0.003397
C133	C	-0.802936	-0.917667	-0.536908
C134	C	-0.302936	-0.417667	-0.036908
C135	C	-0.832194	-0.979339	-0.475548
C136	C	-0.332194	-0.479339	0.024452
H137	H	-0.823370	-0.855028	-0.519916
H138	H	-0.323370	-0.355028	-0.019916
H139	H	-0.739783	-0.918480	-0.536802
H140	H	-0.239783	-0.418480	-0.036802
H141	H	-0.824040	-0.933852	-0.599473
H142	H	-0.324040	-0.433852	-0.099473
H143	H	-0.811146	-0.963196	-0.412953
H144	H	-0.311146	-0.463196	0.087047
H145	H	-0.895347	-0.978514	-0.475724
H146	H	-0.395347	-0.478514	0.024276
O147	O	-0.806912	-1.125560	-0.240844
O148	O	-0.306912	-0.625560	0.259156
C149	C	-0.699639	-1.103188	-0.157581
C150	C	-0.199639	-0.603188	0.342419
C151	C	-0.728802	-1.125776	-0.241648
C152	C	-0.228802	-0.625776	0.258352
H153	H	-0.636485	-1.103371	-0.158199
H154	H	-0.136485	-0.603371	0.341801
H155	H	-0.720438	-1.040685	-0.140603
H156	H	-0.220438	-0.540685	0.359397
H157	H	-0.720414	-1.148844	-0.111684
H158	H	-0.220414	-0.648844	0.388316
H159	H	-0.708040	-1.080174	-0.287602
H160	H	-0.208040	-0.580174	0.212398
H161	H	-0.708009	-1.188299	-0.258558
H162	H	-0.208009	-0.688299	0.241442
