data_functionalizedCrystal
_audit_creation_method	'MofGen! by Chris Wilmer'
_symmetry_space_group_name_H-M	'P1'
_symmetry_Int_Tables_number	1
_symmetry_cell_setting	triclinic
loop_
_symmetry_equiv_pos_as_xyz
  x,y,z
_cell_length_a	17.038272
_cell_length_b	15.995350
_cell_length_c	15.072220
_cell_angle_alpha	89.998899
_cell_angle_beta	90.007087
_cell_angle_gamma	87.301965
loop_
_atom_site_label
_atom_site_type_symbol
_atom_site_fract_x
_atom_site_fract_y
_atom_site_fract_z
O1	O	-1.037421	-0.181819	-0.073664
O2	O	-0.537421	0.318181	0.426336
O3	O	-0.809790	-0.178931	-0.073690
O4	O	-0.309790	0.321069	0.426310
O5	O	-0.929828	-0.058931	-0.073676
O6	O	-0.429828	0.441069	0.426324
O7	O	-0.917383	-0.301819	-0.073679
O8	O	-0.417383	0.198181	0.426321
O9	O	-0.929798	-0.058936	0.073889
O10	O	-0.429798	0.441064	0.573889
O11	O	-0.809760	-0.178936	0.073875
O12	O	-0.309760	0.321064	0.573875
O13	O	-1.037391	-0.181824	0.073901
O14	O	-0.537391	0.318176	0.573901
Zn15	Zn	-0.923571	-0.180381	0.097317
Zn16	Zn	-0.423571	0.319619	0.597317
Zn17	Zn	-0.923610	-0.180374	-0.097107
Zn18	Zn	-0.423610	0.319626	0.402893
O19	O	-0.917353	-0.301824	0.073886
O20	O	-0.417353	0.198176	0.573886
C21	C	-0.929298	-0.027702	0.000105
C22	C	-0.429298	0.472298	0.500105
C23	C	-0.927756	0.065359	0.000100
C24	C	-0.427756	0.565359	0.500100
C25	C	-0.780646	-0.176308	0.000089
C26	C	-0.280646	0.323692	0.500089
C27	C	-0.693851	-0.168474	0.000079
C28	C	-0.193851	0.331526	0.500079
C29	C	-1.066535	-0.184447	0.000120
C30	C	-0.566535	0.315553	0.500120
C31	C	-1.153330	-0.192281	0.000124
C32	C	-0.653330	0.307719	0.500124
C33	C	-0.643754	-0.240402	0.000078
C34	C	-0.143754	0.259598	0.500078
C35	C	-0.562202	-0.233036	0.000091
C36	C	-0.062202	0.266964	0.500091
C37	C	-0.530748	-0.153741	0.000097
C38	C	-0.030748	0.346259	0.500097
C39	C	-0.580851	-0.081807	0.000100
C40	C	-0.080851	0.418193	0.500100
C41	C	-0.662402	-0.089174	0.000094
C42	C	-0.162402	0.410826	0.500094
C43	C	-0.284984	-0.127714	0.000121
C44	C	0.215016	0.372286	0.500121
C45	C	-0.203426	-0.120353	0.000124
C46	C	0.296574	0.379647	0.500124
C47	C	-0.184783	-0.271583	0.000117
C48	C	0.315217	0.228417	0.500117
C49	C	-0.266336	-0.278943	0.000105
C50	C	0.233664	0.221057	0.500105
C51	C	-0.316432	-0.207009	0.000113
C52	C	0.183568	0.292991	0.500113
C53	C	-0.447389	-0.146209	0.000107
C54	C	0.052611	0.353791	0.500107
C55	C	-0.399790	-0.214541	0.000110
C56	C	0.100210	0.285459	0.500110
C57	C	-0.917882	-0.333053	0.000103
C58	C	-0.417882	0.166947	0.500103
C59	C	-0.919425	-0.426114	0.000103
C60	C	-0.419425	0.073886	0.500103
N61	N	-0.923550	-0.180385	0.230006
N62	N	-0.423550	0.319615	0.730006
C63	C	-0.922217	0.403501	0.000102
C64	C	-0.422217	0.903501	0.500102
C65	C	-0.836728	0.362156	-0.000239
C66	C	-0.336728	0.862156	0.499761
C67	C	-0.838270	0.265356	0.000094
C68	C	-0.338270	0.765356	0.500094
C69	C	-0.924964	0.235744	0.000100
C70	C	-0.424964	0.735744	0.500100
C71	C	-0.967114	0.273815	0.084371
C72	C	-0.467114	0.773815	0.584371
C73	C	-0.964966	0.370604	0.084441
C74	C	-0.464966	0.870604	0.584441
C75	C	-0.966766	0.370842	-0.083368
C76	C	-0.466766	0.870842	0.416632
C77	C	-0.966746	0.273898	-0.084482
C78	C	-0.466746	0.773898	0.415518
C79	C	-0.926522	0.140936	0.000102
C80	C	-0.426522	0.640936	0.500102
C81	C	-0.920662	0.498309	0.000106
C82	C	-0.420662	0.998309	0.500106
N83	N	-0.923637	-0.180364	-0.229795
N84	N	-0.423637	0.319636	0.270205
C85	C	-0.923608	-0.180371	0.589207
C86	C	-0.423608	0.319629	1.089207
C87	C	-0.859163	-0.244335	0.551592
C88	C	-0.359163	0.255665	1.051592
C89	C	-0.859310	-0.244596	0.448767
C90	C	-0.359310	0.255404	0.948767
C91	C	-0.923579	-0.180378	0.411003
C92	C	-0.423579	0.319622	0.911003
C93	C	-1.005158	-0.205271	0.448304
C94	C	-0.505158	0.294729	0.948304
C95	C	-1.004797	-0.205732	0.551161
C96	C	-0.504797	0.294268	1.051161
C97	C	-0.907202	-0.091363	0.551306
C98	C	-0.407202	0.408637	1.051306
C99	C	-0.905331	-0.091815	0.448443
C100	C	-0.405331	0.408185	0.948443
C101	C	-0.923567	-0.180381	0.310290
C102	C	-0.423567	0.319619	0.810290
C103	C	-0.923625	-0.180370	0.689921
C104	C	-0.423625	0.319630	1.189921
H105	H	-0.669358	-0.304973	0.000073
H106	H	-0.169358	0.195027	0.500073
H107	H	-0.325762	-0.069140	0.000128
H108	H	0.174238	0.430860	0.500128
F109	F	-1.023692	-0.290810	0.582511
F110	F	-0.523692	0.209190	1.082511
H111	H	-1.029796	0.398113	-0.083930
H112	H	-0.529796	0.898113	0.416070
F113	F	-0.299806	-0.363340	0.000094
F114	F	0.200194	0.136660	0.500094
H115	H	-0.804890	0.239866	0.060598
H116	H	-0.304890	0.739866	0.560598
H117	H	-1.054250	-0.161292	0.576042
H118	H	-0.554250	0.338708	1.076042
H119	H	-0.425404	-0.279103	0.000109
H120	H	0.074596	0.220897	0.500109
H121	H	-0.805137	0.239297	-0.060314
H122	H	-0.305137	0.739297	0.439686
H123	H	-0.849007	-0.068869	0.577290
H124	H	-0.349007	0.431131	1.077290
F125	F	-0.547373	0.002586	0.000112
F126	F	-0.047373	0.502586	0.500112
H127	H	-0.143987	-0.330147	0.000112
H128	H	0.356013	0.169853	0.500112
F129	F	-1.050363	0.249424	0.088476
F130	F	-0.550363	0.749424	0.588476
H131	H	-0.421769	-0.081646	0.000137
H132	H	0.078231	0.418354	0.500137
H133	H	-0.798671	-0.228907	0.423549
H134	H	-0.298671	0.271093	0.923549
H135	H	-0.177820	-0.055778	0.000128
H136	H	0.322180	0.444222	0.500128
H137	H	-0.845320	-0.073059	0.424064
H138	H	-0.345320	0.426941	0.924064
H139	H	-0.798327	-0.228819	0.576347
H140	H	-0.298327	0.271181	1.076347
F141	F	-0.508889	-0.309593	0.000087
F142	F	-0.008889	0.190407	0.500087
F143	F	-0.792079	0.389560	-0.079229
F144	F	-0.292079	0.889560	0.420771
F145	F	-0.924757	0.397388	0.166769
F146	F	-0.424757	0.897388	0.666769
H147	H	-0.869494	-0.309888	0.577431
H148	H	-0.369494	0.190112	1.077431
H149	H	-0.703190	-0.030601	0.000093
H150	H	-0.203190	0.469399	0.500093
H151	H	-0.949221	-0.041536	0.422740
H152	H	-0.449221	0.458464	0.922740
H153	H	-1.027730	0.398381	0.088269
H154	H	-0.527730	0.898381	0.588269
H155	H	-0.954200	-0.043694	0.575630
H156	H	-0.454200	0.456306	1.075630
F157	F	-0.792134	0.391221	0.078085
F158	F	-0.292134	0.891221	0.578085
H159	H	-1.029967	0.254033	-0.089565
H160	H	-0.529967	0.754033	0.410435
F161	F	-0.928818	0.239445	0.166334
F162	F	-0.428818	0.739445	0.666334
F163	F	-0.930244	0.400285	-0.166853
F164	F	-0.430244	0.900285	0.333147
H165	H	-0.869787	-0.310526	0.424154
H166	H	-0.369787	0.189474	0.924154
F167	F	-1.069339	-0.146314	0.416333
F168	F	-0.569339	0.353686	0.916333
F169	F	-0.926776	0.240745	-0.165978
F170	F	-0.426776	0.740745	0.334022
H171	H	-1.019960	-0.269656	0.422536
H172	H	-0.519960	0.230344	0.922536
