data_functionalizedCrystal
_audit_creation_method	'MofGen! by Chris Wilmer'
_symmetry_space_group_name_H-M	'P1'
_symmetry_Int_Tables_number	1
_symmetry_cell_setting	triclinic
loop_
_symmetry_equiv_pos_as_xyz
  x,y,z
_cell_length_a	12.837943
_cell_length_b	9.065218
_cell_length_c	8.140239
_cell_angle_alpha	90.001686
_cell_angle_beta	90.001638
_cell_angle_gamma	89.922413
loop_
_atom_site_label
_atom_site_type_symbol
_atom_site_fract_x
_atom_site_fract_y
_atom_site_fract_z
O1	O	-1.379057	-0.384028	-0.136571
O2	O	-0.879057	0.115972	0.363429
O3	O	-1.077073	-0.365058	-0.136582
O4	O	-0.577073	0.134942	0.363418
O5	O	-1.234307	-0.160660	-0.136573
O6	O	-0.734307	0.339340	0.363427
O7	O	-1.221823	-0.588427	-0.136580
O8	O	-0.721823	-0.088427	0.363420
O9	O	-1.234298	-0.160656	0.136654
O10	O	-0.734298	0.339344	0.636654
O11	O	-1.077064	-0.365054	0.136646
O12	O	-0.577064	0.134946	0.636646
O13	O	-1.379048	-0.384025	0.136656
O14	O	-0.879048	0.115975	0.636656
Zn15	Zn	-1.228055	-0.374539	0.180031
Zn16	Zn	-0.728055	0.125461	0.680031
Zn17	Zn	-1.228067	-0.374544	-0.179957
Zn18	Zn	-0.728067	0.125456	0.320043
O19	O	-1.221814	-0.588423	0.136647
O20	O	-0.721814	-0.088423	0.636647
C21	C	-1.038388	-0.358647	0.000031
C22	C	-0.538388	0.141353	0.500031
C23	C	-0.923132	-0.339534	0.000027
C24	C	-0.423132	0.160466	0.500027
C25	C	-1.233103	-0.105525	0.000038
C26	C	-0.733103	0.394475	0.500038
C27	C	-1.229515	0.058754	0.000030
C28	C	-0.729515	0.558754	0.500030
C29	C	-1.417733	-0.390435	0.000040
C30	C	-0.917733	0.109565	0.500040
C31	C	-1.532990	-0.409548	0.000033
C32	C	-1.032990	0.090452	0.500033
C33	C	-0.684331	-0.569311	0.000046
C34	C	-0.184331	-0.069311	0.500046
C35	C	-0.576036	-0.551359	0.000044
C36	C	-0.076036	-0.051359	0.500044
C37	C	-0.598246	-0.285680	0.000031
C38	C	-0.098246	0.214320	0.500031
C39	C	-0.706541	-0.303632	0.000033
C40	C	-0.206541	0.196368	0.500033
C41	C	-0.749579	-0.445452	0.000038
C42	C	-0.249579	0.054548	0.500038
C43	C	-0.857875	-0.463402	0.000029
C44	C	-0.357875	0.036598	0.500029
C45	C	-0.880083	-0.197725	0.000028
C46	C	-0.380083	0.302275	0.500028
C47	C	-0.771789	-0.179773	0.000025
C48	C	-0.271789	0.320227	0.500025
C49	C	-1.223019	-0.643557	0.000033
C50	C	-0.723019	-0.143557	0.500033
C51	C	-1.226606	-0.807836	0.000030
C52	C	-0.726606	-0.307836	0.500030
N53	N	-1.228055	-0.374536	0.425714
N54	N	-0.728055	0.125464	0.925714
N55	N	-1.228075	-0.374536	-0.425640
N56	N	-0.728075	0.125464	0.074360
H57	H	-0.892914	-0.578879	0.000037
H58	H	-0.392914	-0.078879	0.500037
C59	C	-0.504266	-0.687615	0.000053
C60	C	-0.004266	-0.187615	0.500053
N61	N	-0.450209	-0.790248	0.000063
N62	N	0.049791	-0.290248	0.500063
H63	H	-0.719372	-0.684786	0.000048
H64	H	-0.219372	-0.184786	0.500048
H65	H	-0.563185	-0.170217	0.000162
H66	H	-0.063185	0.329783	0.500162
H67	H	-0.736732	-0.064307	0.000040
H68	H	-0.236732	0.435693	0.500040
H69	H	-0.933220	-0.096870	0.000011
H70	H	-0.433220	0.403130	0.500011
