data_functionalizedCrystal
_audit_creation_method	'MofGen! by Chris Wilmer'
_symmetry_space_group_name_H-M	'P1'
_symmetry_Int_Tables_number	1
_symmetry_cell_setting	triclinic
loop_
_symmetry_equiv_pos_as_xyz
  x,y,z
_cell_length_a	11.026607
_cell_length_b	10.268362
_cell_length_c	10.967829
_cell_angle_alpha	102.129217
_cell_angle_beta	96.380563
_cell_angle_gamma	90.004610
loop_
_atom_site_label
_atom_site_type_symbol
_atom_site_fract_x
_atom_site_fract_y
_atom_site_fract_z
O1	O	1.614531	0.225786	0.523503
O2	O	1.260727	0.212410	0.463891
O3	O	1.445787	0.178737	0.313881
O4	O	1.429471	0.259458	0.673512
O5	O	1.445769	-0.037863	0.313884
O6	O	1.260709	-0.004191	0.463893
O7	O	1.614513	0.009186	0.523505
Cu8	Cu	1.437609	-0.017280	0.493700
Cu9	Cu	1.437631	0.238875	0.493696
O10	O	1.429453	0.042858	0.673515
C11	C	1.215416	0.101642	0.452895
C12	C	1.080428	0.094285	0.420111
C13	C	1.007378	0.114603	0.510632
C14	C	0.867861	0.107000	0.476751
N15	N	1.437603	-0.197445	0.493703
C16	C	1.437612	-0.315286	0.493706
C17	C	1.437628	-0.463126	0.493698
C18	C	1.659824	0.119957	0.534501
C19	C	1.794812	0.127322	0.567285
C20	C	1.444590	0.059946	0.267126
C21	C	1.441034	0.028683	0.127804
N22	N	1.437646	0.419038	0.493685
C23	C	1.439458	0.126951	0.065695
C24	C	1.435782	0.094642	-0.078302
C25	C	1.430650	0.161653	0.720270
C26	C	1.434206	0.192924	0.859592
H27	H	0.827119	0.084008	0.374163
C28	C	1.433930	-0.051341	-0.150465
C29	C	1.539766	-0.142632	-0.123088
C30	C	1.537913	-0.288612	-0.195252
C31	C	1.430224	-0.343300	-0.294792
C32	C	1.324380	-0.252007	-0.322174
C33	C	1.326233	-0.106028	-0.250010
H34	H	1.619490	-0.102150	-0.049397
H35	H	1.616266	-0.356192	-0.174981
H36	H	1.428853	-0.451363	-0.348212
H37	H	1.244656	-0.292490	-0.395864
H38	H	1.247880	-0.038448	-0.270281
H39	H	1.048125	0.137621	0.613213
H40	H	0.835551	0.150340	0.669873
C41	C	1.436055	0.338907	-0.068246
C42	C	1.330217	0.430194	-0.095625
C43	C	1.332064	0.576173	-0.023461
C44	C	1.439750	0.630866	0.076081
C45	C	1.545597	0.539577	0.103465
C46	C	1.543749	0.393598	0.031302
H47	H	1.250494	0.389709	-0.169316
H48	H	1.253709	0.643751	-0.043733
H49	H	1.441117	0.738928	0.129501
H50	H	1.625320	0.580063	0.177157
H51	H	1.622105	0.326021	0.051574
C52	C	1.025396	0.063180	0.281526
C53	C	0.941863	-0.060853	0.230027
C54	C	0.886836	-0.091959	0.091438
C55	C	0.915340	0.000968	0.004348
C56	C	0.998877	0.125008	0.055845
C57	C	1.053905	0.156115	0.194434
H58	H	0.920759	-0.129650	0.294498
H59	H	0.824996	-0.183783	0.053317
H60	H	0.874605	-0.022059	-0.098244
H61	H	1.019982	0.193806	-0.008625
H62	H	1.115745	0.247938	0.232556
C63	C	1.441310	0.272926	0.137865
C64	C	1.548999	0.327611	0.237407
C65	C	1.550852	0.473589	0.309575
C66	C	1.445016	0.564881	0.282201
C67	C	1.337319	0.510197	0.182654
C68	C	1.335466	0.364219	0.110486
H69	H	1.627352	0.260030	0.257675
H70	H	1.630577	0.514069	0.383266
H71	H	1.446387	0.672943	0.335624
H72	H	1.258966	0.577779	0.162386
H73	H	1.255742	0.323739	0.036795
C74	C	1.439181	-0.117293	0.055636
C75	C	1.331492	-0.171981	-0.043904
C76	C	1.329640	-0.317961	-0.116068
C77	C	1.435476	-0.409252	-0.088691
C78	C	1.543172	-0.354565	0.010854
C79	C	1.545025	-0.208585	0.083018
H80	H	1.253139	-0.104401	-0.064175
H81	H	1.249915	-0.358443	-0.189758
H82	H	1.434104	-0.517314	-0.142111
H83	H	1.621526	-0.422145	0.031125
H84	H	1.624750	-0.168103	0.156708
