data_functionalizedCrystal
_audit_creation_method	'MofGen! by Chris Wilmer'
_symmetry_space_group_name_H-M	'P1'
_symmetry_Int_Tables_number	1
_symmetry_cell_setting	triclinic
loop_
_symmetry_equiv_pos_as_xyz
  x,y,z
_cell_length_a	8.597340
_cell_length_b	8.559649
_cell_length_c	7.540329
_cell_angle_alpha	89.998238
_cell_angle_beta	97.699141
_cell_angle_gamma	77.625043
loop_
_atom_site_label
_atom_site_type_symbol
_atom_site_fract_x
_atom_site_fract_y
_atom_site_fract_z
O1	O	2.053713	0.238039	0.166353
O2	O	1.594585	0.256300	0.096192
O3	O	1.864599	0.015199	0.137456
O4	O	1.783700	0.479140	0.125089
O5	O	1.864585	0.015196	0.432419
O6	O	1.594571	0.256297	0.391155
O7	O	2.053699	0.238036	0.461316
Cu8	Cu	1.824134	0.247166	0.453168
Cu9	Cu	1.824150	0.247170	0.104340
O10	O	1.783686	0.479136	0.420052
C11	C	1.536344	0.254337	0.234774
C12	C	1.362826	0.248475	0.208258
C13	C	1.870723	-0.044236	0.285871
C14	C	1.888972	-0.221331	0.288650
C15	C	2.111941	0.239999	0.322730
C16	C	2.285458	0.245861	0.349235
C17	C	1.777562	0.538572	0.271633
C18	C	1.759313	0.715667	0.268843
N19	N	1.824134	0.247163	0.698516
N20	N	1.824164	0.247161	-0.141006
H21	H	1.296311	0.246226	0.067259
C22	C	2.076295	-0.428108	0.165653
C23	C	2.057692	-0.331407	0.314434
H24	H	2.180458	-0.496055	0.181569
H25	H	1.997412	-0.491357	0.153623
H26	H	2.063656	-0.362487	0.060867
H27	H	2.070320	-0.397029	0.419218
H28	H	2.136598	-0.268152	0.326484
H29	H	1.351969	0.248098	0.490225
H30	H	1.634346	-0.202788	0.249752
