data_functionalizedCrystal
_audit_creation_method	'MofGen! by Chris Wilmer'
_symmetry_space_group_name_H-M	'P1'
_symmetry_Int_Tables_number	1
_symmetry_cell_setting	triclinic
loop_
_symmetry_equiv_pos_as_xyz
  x,y,z
_cell_length_a	19.188928
_cell_length_b	17.666332
_cell_length_c	14.971486
_cell_angle_alpha	90.006677
_cell_angle_beta	96.621030
_cell_angle_gamma	89.973946
loop_
_atom_site_label
_atom_site_type_symbol
_atom_site_fract_x
_atom_site_fract_y
_atom_site_fract_z
O1	O	-0.926510	0.063242	0.111660
O2	O	-0.426510	0.563242	0.611660
O3	O	-0.723247	0.063179	0.126695
O4	O	-0.223247	0.563179	0.626695
O5	O	-0.830326	0.063207	-0.011052
O6	O	-0.330326	0.563207	0.488948
O7	O	-0.819431	0.063214	0.249406
O8	O	-0.319431	0.563214	0.749406
O9	O	-0.830308	-0.062690	-0.011059
O10	O	-0.330308	0.437310	0.488941
O11	O	-0.723228	-0.062718	0.126687
O12	O	-0.223228	0.437282	0.626687
O13	O	-0.926491	-0.062655	0.111653
O14	O	-0.426491	0.437345	0.611653
Cu15	Cu	-0.824858	-0.074182	0.119169
Cu16	Cu	-0.324858	0.425818	0.619169
Cu17	Cu	-0.824880	0.074706	0.119178
Cu18	Cu	-0.324880	0.574706	0.619178
O19	O	-0.819412	-0.062683	0.249399
O20	O	-0.319412	0.437317	0.749399
C21	C	-0.697225	0.000223	0.126205
C22	C	-0.197225	0.500223	0.626205
C23	C	-0.619716	0.000198	0.124744
C24	C	-0.119716	0.500198	0.624744
C25	C	-0.575052	0.000210	0.205569
C26	C	-0.075052	0.500210	0.705569
C27	C	-0.502223	0.000215	0.204197
C28	C	-0.002223	0.500215	0.704197
C29	C	-0.474062	0.000222	0.121995
C30	C	0.025938	0.500222	0.621995
C31	C	-0.518736	0.000206	0.041160
C32	C	-0.018736	0.500206	0.541160
C33	C	-0.591563	0.000194	0.042534
C34	C	-0.091563	0.500194	0.542534
N35	N	-0.365886	0.043093	0.059166
N36	N	0.134114	0.543093	0.559166
N37	N	-0.296703	0.043106	0.057866
N38	N	0.203297	0.543106	0.557866
C39	C	-0.254640	0.000257	0.117849
C40	C	0.245360	0.500257	0.617849
N41	N	-0.284372	-0.042597	0.179196
N42	N	0.215628	0.457403	0.679196
N43	N	-0.353561	-0.042606	0.180499
N44	N	0.146439	0.457394	0.680499
C45	C	-0.395095	0.000235	0.120496
C46	C	0.104905	0.500235	0.620496
C47	C	-0.131007	0.000273	0.197192
C48	C	0.368993	0.500273	0.697192
C49	C	-0.058178	0.000272	0.195816
C50	C	0.441822	0.500272	0.695816
C51	C	-0.074692	0.000271	0.032777
C52	C	0.425308	0.500271	0.532777
C53	C	-0.147519	0.000264	0.034155
C54	C	0.352481	0.500264	0.534155
C55	C	-0.175672	0.000268	0.116365
C56	C	0.324328	0.500268	0.616365
N57	N	-0.824847	-0.178901	0.119163
N58	N	-0.324847	0.321099	0.619163
C59	C	-0.872278	-0.218499	0.058199
C60	C	-0.372278	0.281501	0.558199
C61	C	-0.872282	-0.297746	0.058194
C62	C	-0.372282	0.202254	0.558194
C63	C	-0.824862	-0.337393	0.119170
C64	C	-0.324862	0.162607	0.619170
C65	C	-0.777423	-0.297786	0.180139
C66	C	-0.277423	0.202214	0.680139
C67	C	-0.777416	-0.218540	0.180135
C68	C	-0.277416	0.281460	0.680135
N69	N	-0.816041	-0.461811	0.198350
N70	N	-0.316041	0.038189	0.698350
N71	N	-0.816052	-0.537092	0.198350
N72	N	-0.316052	-0.037092	0.698350
C73	C	-0.824881	-0.576157	0.119182
C74	C	-0.324881	-0.076157	0.619182
N75	N	-0.833711	-0.537099	0.040011
N76	N	-0.333711	-0.037099	0.540011
N77	N	-0.833704	-0.461811	0.040011
N78	N	-0.333704	0.038189	0.540011
C79	C	-0.824865	-0.423323	0.119180
C80	C	-0.324865	0.076677	0.619180
C81	C	-0.872318	-0.701684	0.058208
C82	C	-0.372318	-0.201684	0.558208
C83	C	-0.872317	-0.780933	0.058202
C84	C	-0.372317	-0.280933	0.558202
C85	C	-0.777462	-0.780972	0.180155
C86	C	-0.277462	-0.280972	0.680155
C87	C	-0.777459	-0.701724	0.180152
C88	C	-0.277459	-0.201724	0.680152
C89	C	-0.824891	-0.662085	0.119180
C90	C	-0.324891	-0.162085	0.619180
C91	C	0.047487	0.000290	0.112146
C92	C	0.547487	0.500290	0.612146
C93	C	-0.030021	0.000279	0.113614
C94	C	0.469979	0.500279	0.613614
C95	C	-0.829830	0.000258	-0.044377
C96	C	-0.329830	0.500258	0.455623
C97	C	-0.828370	0.000259	-0.143667
C98	C	-0.328370	0.500259	0.356333
N99	N	-0.824896	0.179425	0.119177
N100	N	-0.324896	0.679425	0.619177
C101	C	-0.891276	0.000277	-0.201225
C102	C	-0.391276	0.500277	0.298775
C103	C	-0.889900	0.000285	-0.294517
C104	C	-0.389900	0.500285	0.205483
C105	C	-0.825616	0.000267	-0.330249
C106	C	-0.325616	0.500267	0.169751
C107	C	-0.762705	0.000251	-0.272684
C108	C	-0.262705	0.500251	0.227316
C109	C	-0.764082	0.000249	-0.179393
C110	C	-0.264082	0.500249	0.320607
C111	C	-0.759840	0.000253	-0.467131
C112	C	-0.259840	0.500253	0.032869
C113	C	-0.758462	0.000253	-0.560428
C114	C	-0.258462	0.500253	-0.060428
C115	C	-0.885657	0.000288	-0.582255
C116	C	-0.385657	0.500288	-0.082255
C117	C	-0.887034	0.000286	-0.488964
C118	C	-0.387034	0.500286	0.011036
C119	C	-0.824123	0.000268	-0.431405
C120	C	-0.324123	0.500268	0.068595
C121	C	-0.819908	0.000267	0.282725
C122	C	-0.319908	0.500267	0.782725
C123	C	-0.821369	0.000272	0.382014
C124	C	-0.321369	0.500272	0.882014
H125	H	-0.183886	0.000258	-0.031661
H126	H	0.316114	0.500258	0.468339
H127	H	-0.712857	0.000234	-0.132529
H128	H	-0.212857	0.500234	0.367471
Br129	Br	-0.974277	0.000312	-0.440471
Br130	Br	-0.474277	0.500312	0.059529
Br131	Br	-0.936645	-0.164702	-0.024550
Br132	Br	-0.436645	0.335298	0.475450
Br133	Br	-0.936656	-0.351496	-0.024551
Br134	Br	-0.436656	0.148504	0.475449
H135	H	-0.738812	-0.330071	0.229784
H136	H	-0.238812	0.169929	0.729784
H137	H	-0.738791	-0.186299	0.229781
H138	H	-0.238791	0.313701	0.729781
Br139	Br	-0.713089	-0.647979	0.262896
Br140	Br	-0.213089	-0.147979	0.762896
H141	H	-0.710365	0.000242	-0.301784
H142	H	-0.210365	0.500242	0.198216
H143	H	-0.738849	-0.813252	0.229799
H144	H	-0.238849	-0.313252	0.729799
H145	H	-0.495802	0.000223	-0.025769
H146	H	0.004198	0.500223	0.474231
H147	H	-0.708610	0.000240	-0.420268
H148	H	-0.208610	0.500240	0.079732
Br149	Br	-0.978522	0.000290	-0.152741
Br150	Br	-0.478522	0.500290	0.347259
H151	H	-0.910938	-0.669409	0.008558
H152	H	-0.410938	-0.169409	0.508558
H153	H	-0.910938	-0.813174	0.008553
H154	H	-0.410938	-0.313174	0.508553
H155	H	-0.936882	0.000305	-0.629124
H156	H	-0.436882	0.500305	-0.129124
Br157	Br	-0.613256	0.000215	0.317138
Br158	Br	-0.113256	0.500215	0.817138
H159	H	-0.153930	0.000265	0.264132
H160	H	0.346070	0.500265	0.764132
H161	H	-0.021812	0.000278	0.261637
H162	H	0.478188	0.500278	0.761637
H163	H	-0.706117	0.000227	-0.589517
H164	H	-0.206117	0.500227	-0.089517
Br165	Br	-0.652182	0.000176	-0.067165
Br166	Br	-0.152182	0.500176	0.432835
H167	H	-0.941124	0.000298	-0.341378
H168	H	-0.441124	0.500298	0.158622
Br169	Br	-0.441596	0.000227	0.313895
Br170	Br	0.058404	0.500227	0.813895
H171	H	-0.051764	0.000324	-0.034153
H172	H	0.448236	0.500324	0.465847
