data_functionalizedCrystal
_audit_creation_method	'MofGen! by Chris Wilmer'
_symmetry_space_group_name_H-M	'P1'
_symmetry_Int_Tables_number	1
_symmetry_cell_setting	triclinic
loop_
_symmetry_equiv_pos_as_xyz
  x,y,z
_cell_length_a	21.395362
_cell_length_b	29.839126
_cell_length_c	21.395361
_cell_angle_alpha	90.025490
_cell_angle_beta	89.953415
_cell_angle_gamma	89.960696
loop_
_atom_site_label
_atom_site_type_symbol
_atom_site_fract_x
_atom_site_fract_y
_atom_site_fract_z
Zn1	Zn	0.957831	-0.254237	0.249221
Zn2	Zn	1.291164	0.079096	0.582554
Zn3	Zn	1.624497	0.412430	0.915888
Zn4	Zn	0.957742	-0.179105	0.353988
Zn5	Zn	1.291075	0.154228	0.687321
Zn6	Zn	1.624408	0.487562	1.020655
Zn7	Zn	0.853054	-0.179094	0.249257
Zn8	Zn	1.186388	0.154240	0.582591
Zn9	Zn	1.519721	0.487573	0.915924
Zn10	Zn	0.853015	-0.254181	0.353994
Zn11	Zn	1.186348	0.079153	0.687327
Zn12	Zn	1.519682	0.412486	1.020660
O13	O	0.905410	-0.216654	0.301615
O14	O	1.238744	0.116679	0.634948
O15	O	1.572077	0.450013	0.968282
O16	O	1.045497	-0.244299	0.263101
O17	O	1.378830	0.089035	0.596434
O18	O	1.712164	0.422368	0.929768
O19	O	0.943834	-0.116236	0.340108
O20	O	1.277167	0.217097	0.673442
O21	O	1.610501	0.550430	1.006775
O22	O	0.867007	-0.189080	0.161575
O23	O	1.200340	0.144253	0.494908
O24	O	1.533673	0.477586	0.828241
O25	O	1.045432	-0.189100	0.340073
O26	O	1.378765	0.144234	0.673406
O27	O	1.712098	0.477567	1.006740
O28	O	0.943986	-0.244288	0.161548
O29	O	1.277319	0.089046	0.494881
O30	O	1.610652	0.422379	0.828215
O31	O	0.866920	-0.116228	0.263163
O32	O	1.200254	0.217105	0.596496
O33	O	1.533587	0.550439	0.929830
O34	O	0.765371	-0.189026	0.263169
O35	O	1.098704	0.144307	0.596502
O36	O	1.432038	0.477641	0.929835
O37	O	0.866940	-0.317055	0.340082
O38	O	1.200273	0.016278	0.673416
O39	O	1.533606	0.349611	1.006749
O40	O	0.765342	-0.244192	0.340118
O41	O	1.098676	0.089141	0.673451
O42	O	1.432009	0.422475	1.006784
O43	O	0.943948	-0.317097	0.263106
O44	O	1.277281	0.016237	0.596440
O45	O	1.610614	0.349570	0.929773
O46	O	0.943796	-0.189045	0.441667
O47	O	1.277129	0.144288	0.775000
O48	O	1.610463	0.477621	1.108333
O49	O	0.866853	-0.244203	0.441671
O50	O	1.200187	0.089130	0.775004
O51	O	1.533520	0.422464	1.108338
C52	C	0.742623	-0.216602	0.301648
C53	C	1.075956	0.116731	0.634982
C54	C	1.409289	0.450065	0.968315
C55	C	0.672981	-0.216590	0.301677
C56	C	1.006315	0.116743	0.635011
C57	C	1.339648	0.450076	0.968344
C58	C	0.640270	-0.245272	0.341798
C59	C	0.973603	0.088061	0.675131
C60	C	1.306936	0.421394	1.008465
C61	C	0.574834	-0.245292	0.341783
C62	C	0.908168	0.088041	0.675116
C63	C	1.241501	0.421374	1.008449
C64	C	0.542113	-0.216622	0.301653
C65	C	0.875447	0.116711	0.634987
C66	C	1.208780	0.450044	0.968320
C67	C	0.574833	-0.187938	0.261525
C68	C	0.908166	0.145395	0.594858
C69	C	1.241500	0.478728	0.928192
C70	C	0.640267	-0.187922	0.261537
C71	C	0.973600	0.145411	0.594870
C72	C	1.306934	0.478744	0.928204
C73	C	0.438393	-0.176179	0.296610
C74	C	0.771726	0.157155	0.629943
C75	C	1.105060	0.490488	0.963276
C76	C	0.372960	-0.176194	0.296602
C77	C	0.706293	0.157139	0.629935
C78	C	1.039627	0.490473	0.963269
C79	C	0.340293	-0.216672	0.301612
C80	C	0.673626	0.116661	0.634946
C81	C	1.006959	0.449995	0.968279
C82	C	0.373066	-0.257136	0.306644
C83	C	0.706399	0.076197	0.639977
C84	C	1.039733	0.409531	0.973310
C85	C	0.438500	-0.257120	0.306656
C86	C	0.771833	0.076213	0.639989
C87	C	1.105167	0.409547	0.973322
C88	C	0.471161	-0.216637	0.301635
C89	C	0.804494	0.116697	0.634969
C90	C	1.137828	0.450030	0.968302
C91	C	0.236628	-0.245378	0.341719
C92	C	0.569962	0.087955	0.675052
C93	C	0.903295	0.421289	1.008385
C94	C	0.171192	-0.245399	0.341699
C95	C	0.504525	0.087935	0.675032
C96	C	0.837858	0.421268	1.008365
C97	C	0.171191	-0.188041	0.261444
C98	C	0.504525	0.145293	0.594778
C99	C	0.837858	0.478626	0.928111
C100	C	0.236627	-0.188024	0.261461
C101	C	0.569960	0.145309	0.594794
C102	C	0.903293	0.478643	0.928127
C103	C	0.269341	-0.216692	0.301601
C104	C	0.602675	0.116641	0.634935
C105	C	0.936008	0.449975	0.968268
C106	C	0.905449	-0.333832	0.301591
C107	C	1.238783	-0.000499	0.634924
C108	C	1.572116	0.332834	0.968258
C109	C	0.905466	-0.383767	0.301581
C110	C	1.238799	-0.050434	0.634914
C111	C	1.572132	0.282900	0.968247
C112	C	0.865429	-0.693409	0.261453
C113	C	1.198763	-0.360076	0.594786
C114	C	1.532096	-0.026742	0.928119
C115	C	0.865447	-0.881082	0.261409
C116	C	1.198780	-0.547749	0.594743
C117	C	1.532114	-0.214415	0.928076
O118	O	0.831375	-0.905346	0.227353
O119	O	1.164709	-0.572012	0.560687
O120	O	1.498042	-0.238679	0.894020
N121	N	0.905495	-0.904552	0.301463
N122	N	1.238829	-0.571219	0.634797
N123	N	1.572162	-0.237886	0.968130
C124	C	0.945539	-0.881101	0.341534
C125	C	1.278873	-0.547768	0.674867
C126	C	1.612206	-0.214434	1.008201
O127	O	0.979599	-0.905370	0.375606
O128	O	1.312932	-0.572037	0.708939
O129	O	1.646265	-0.238704	1.042272
C130	C	0.945518	-0.693429	0.341580
C131	C	1.278851	-0.360096	0.674913
C132	C	1.612185	-0.026762	1.008247
C133	C	0.905471	-0.669961	0.301519
C134	C	1.238805	-0.336628	0.634852
C135	C	1.572138	-0.003295	0.968186
C136	C	0.825386	-0.669941	0.221395
C137	C	1.158719	-0.336608	0.554729
C138	C	1.492052	-0.003275	0.888062
C139	C	0.825384	-0.623026	0.221404
C140	C	1.158717	-0.289692	0.554738
C141	C	1.492051	0.043641	0.888071
C142	C	0.865426	-0.599578	0.261470
C143	C	1.198760	-0.266245	0.594804
C144	C	1.532093	0.067089	0.928137
C145	C	0.905470	-0.623046	0.301528
C146	C	1.238803	-0.289712	0.634861
C147	C	1.572137	0.043621	0.968194
C148	C	0.985558	-0.669979	0.381653
C149	C	1.318891	-0.336645	0.714987
C150	C	1.652225	-0.003312	1.048320
C151	C	0.985548	-0.623058	0.381662
C152	C	1.318881	-0.289724	0.714996
C153	C	1.652215	0.043609	1.048329
C154	C	0.945502	-0.599590	0.341601
C155	C	1.278835	-0.266257	0.674935
C156	C	1.612168	0.067077	1.008268
C157	C	0.945510	-0.552682	0.341603
C158	C	1.278844	-0.219349	0.674936
C159	C	1.612177	0.113984	1.008270
N160	N	0.905462	-0.529212	0.301549
N161	N	1.238795	-0.195879	0.634882
N162	N	1.572129	0.137454	0.968216
C163	C	0.865420	-0.552660	0.261483
C164	C	1.198753	-0.219327	0.594816
C165	C	1.532087	0.114006	0.928149
C166	C	0.945549	-0.979632	0.341506
C167	C	1.278882	-0.646298	0.674839
C168	C	1.612215	-0.312965	1.008173
C169	C	0.945555	-1.026550	0.341494
C170	C	1.278888	-0.693216	0.674827
C171	C	1.612221	-0.359883	1.008160
C172	C	0.865462	-1.026527	0.261370
C173	C	1.198795	-0.693194	0.594703
C174	C	1.532128	-0.359861	0.928036
C175	C	0.865459	-0.979609	0.261379
C176	C	1.198792	-0.646275	0.594713
C177	C	1.532126	-0.312942	0.928046
C178	C	0.905500	-0.956162	0.301452
C179	C	1.238834	-0.622828	0.634785
C180	C	1.572167	-0.289495	0.968119
C181	C	0.865420	-0.454134	0.261504
C182	C	1.198753	-0.120801	0.594837
C183	C	1.532087	0.212532	0.928171
C184	C	0.865424	-0.407215	0.261515
C185	C	1.198757	-0.073881	0.594848
C186	C	1.532090	0.259452	0.928181
C187	C	0.945514	-0.407241	0.341641
C188	C	1.278848	-0.073908	0.674974
C189	C	1.612181	0.259426	1.008307
C190	C	0.945513	-0.454157	0.341628
C191	C	1.278846	-0.120823	0.674961
C192	C	1.612180	0.212510	1.008295
C193	C	0.905461	-0.477602	0.301558
C194	C	1.238794	-0.144269	0.634891
C195	C	1.572128	0.189065	0.968224
O196	O	0.979559	-0.528390	0.375646
O197	O	1.312892	-0.195057	0.708979
O198	O	1.646226	0.138277	1.042312
O199	O	0.831356	-0.528383	0.227426
O200	O	1.164689	-0.195050	0.560759
O201	O	1.498022	0.138284	0.894092
C202	C	0.865431	-0.740324	0.261444
C203	C	1.198764	-0.406991	0.594777
C204	C	1.532098	-0.073658	0.928111
C205	C	0.905475	-0.763792	0.301501
C206	C	1.238808	-0.430459	0.634835
C207	C	1.572141	-0.097125	0.968168
C208	C	0.945517	-0.740344	0.341567
C209	C	1.278850	-0.407011	0.674901
C210	C	1.612183	-0.073678	1.008234
C211	C	0.905481	-0.810710	0.301489
C212	C	1.238814	-0.477377	0.634822
C213	C	1.572148	-0.144043	0.968156
C214	C	0.865439	-0.834158	0.261423
C215	C	1.198772	-0.500824	0.594756
C216	C	1.532106	-0.167491	0.928089
C217	C	0.825391	-0.810688	0.221369
C218	C	1.158724	-0.477354	0.554702
C219	C	1.492057	-0.144021	0.888035
C220	C	0.825389	-0.763772	0.221378
C221	C	1.158722	-0.430439	0.554711
C222	C	1.492056	-0.097106	0.888044
C223	C	0.985565	-0.763814	0.381621
C224	C	1.318898	-0.430481	0.714955
C225	C	1.652232	-0.097148	1.048288
C226	C	0.985564	-0.810730	0.381609
C227	C	1.318897	-0.477397	0.714942
C228	C	1.652231	-0.144063	1.048275
C229	C	0.945522	-0.834178	0.341543
C230	C	1.278855	-0.500844	0.674876
C231	C	1.612189	-0.167511	1.008209
C232	C	1.068834	-0.216707	0.301582
C233	C	1.402167	0.116627	0.634916
C234	C	1.735500	0.449960	0.968249
C235	C	1.138475	-0.216729	0.301568
C236	C	1.471808	0.116604	0.634902
C237	C	1.805142	0.449938	0.968235
C238	C	0.905328	-0.216629	0.464403
C239	C	1.238661	0.116704	0.797736
C240	C	1.571994	0.450038	1.131069
C241	C	0.905350	-0.216633	0.534044
C242	C	1.238683	0.116700	0.867377
C243	C	1.572016	0.450033	1.200711
C244	C	0.905408	-0.099932	0.301594
C245	C	1.238741	0.233402	0.634927
C246	C	1.572075	0.566735	0.968260
C247	C	0.905513	-0.049997	0.301427
C248	C	1.238846	0.283336	0.634761
C249	C	1.572179	0.616669	0.968094
C250	C	0.905511	-0.216689	0.138192
C251	C	1.238844	0.116644	0.471525
C252	C	1.572177	0.449978	0.804858
C253	C	0.905553	-0.216704	0.068550
C254	C	1.238887	0.116629	0.401884
C255	C	1.572220	0.449963	0.735217
C256	C	0.945449	-0.187942	0.566734
C257	C	1.278782	0.145391	0.900067
C258	C	1.612116	0.478725	1.233401
C259	C	0.945478	-0.187952	0.632169
C260	C	1.278812	0.145381	0.965503
C261	C	1.612145	0.478714	1.298836
C262	C	0.905397	-0.216649	0.664912
C263	C	1.238730	0.116685	0.998246
C264	C	1.572063	0.450018	1.331579
C265	C	0.865295	-0.245346	0.632214
C266	C	1.198628	0.087988	0.965548
C267	C	1.531961	0.421321	1.298881
C268	C	0.865271	-0.245338	0.566780
C269	C	1.198604	0.087995	0.900113
C270	C	1.531938	0.421329	1.233447
C271	C	0.848982	-0.220156	0.768643
C272	C	1.182315	0.113178	1.101976
C273	C	1.515648	0.446511	1.435309
C274	C	0.849004	-0.220160	0.834076
C275	C	1.182338	0.113173	1.167409
C276	C	1.515671	0.446506	1.500742
C277	C	0.905470	-0.216675	0.866733
C278	C	1.238803	0.116658	1.200066
C279	C	1.572136	0.449992	1.533400
C280	C	0.961915	-0.213176	0.833949
C281	C	1.295248	0.120157	1.167283
C282	C	1.628581	0.453491	1.500616
C283	C	0.961891	-0.213168	0.768515
C284	C	1.295224	0.120165	1.101848
C285	C	1.628558	0.453498	1.435182
C286	C	0.905418	-0.216661	0.735865
C287	C	1.238751	0.116673	1.069198
C288	C	1.572085	0.450006	1.402531
C289	C	0.945604	-0.187993	0.970376
C290	C	1.278937	0.145340	1.303709
C291	C	1.612271	0.478673	1.637042
C292	C	0.945634	-0.188007	1.035812
C293	C	1.278968	0.145327	1.369146
C294	C	1.612301	0.478660	1.702479
C295	C	0.865445	-0.245398	1.035856
C296	C	1.198778	0.087936	1.369189
C297	C	1.532112	0.421269	1.702522
C298	C	0.865420	-0.245387	0.970420
C299	C	1.198754	0.087947	1.303754
C300	C	1.532087	0.421280	1.637087
C301	C	0.905499	-0.216682	0.937684
C302	C	1.238832	0.116651	1.271018
C303	C	1.572166	0.449984	1.604351
H304	H	0.832813	-0.388109	0.228889
H305	H	1.166146	-0.054776	0.562222
H306	H	1.499480	0.278557	0.895556
H307	H	0.832850	-0.960504	0.228758
H308	H	1.166183	-0.627171	0.562091
H309	H	1.499517	-0.293838	0.895424
H310	H	0.548195	-0.268650	0.374453
H311	H	0.881529	0.064683	0.707787
H312	H	1.214862	0.398016	1.041120
H313	H	1.007850	-0.210321	0.741824
H314	H	1.341183	0.123013	1.075157
H315	H	1.674516	0.456346	1.408491
H316	H	0.802997	-0.222995	0.742060
H317	H	1.136330	0.110338	1.075393
H318	H	1.469664	0.443671	1.408726
H319	H	0.465182	-0.290067	0.310750
H320	H	0.798515	0.043266	0.644084
H321	H	1.131848	0.376599	0.977417
H322	H	1.007894	-0.210338	0.860537
H323	H	1.341228	0.122995	1.193871
H324	H	1.674561	0.456328	1.527204
H325	H	0.978292	-0.164644	1.062427
H326	H	1.311625	0.168690	1.395761
H327	H	1.644959	0.502023	1.729094
H328	H	0.978134	-0.164588	0.658791
H329	H	1.311467	0.168745	0.992124
H330	H	1.644801	0.502078	1.325458
H331	H	0.666902	-0.268617	0.374483
H332	H	1.000235	0.064717	0.707816
H333	H	1.333569	0.398050	1.041149
H334	H	0.346469	-0.290097	0.310722
H335	H	0.679803	0.043236	0.644056
H336	H	1.013136	0.376569	0.977389
H337	H	0.263266	-0.268724	0.374400
H338	H	0.596599	0.064610	0.707733
H339	H	0.929932	0.397943	1.041067
H340	H	0.978241	-0.164622	0.943721
H341	H	1.311574	0.168712	1.277054
H342	H	1.644907	0.502045	1.610387
H343	H	0.832813	-0.268765	1.062514
H344	H	1.166146	0.064568	1.395847
H345	H	1.499479	0.397902	1.729181
H346	H	0.666901	-0.164566	0.228864
H347	H	1.000234	0.168767	0.562197
H348	H	1.333567	0.502101	0.895531
H349	H	0.978155	-0.960546	0.374141
H350	H	1.311489	-0.627212	0.707475
H351	H	1.644822	-0.293879	1.040808
H352	H	0.792772	-0.603923	0.188785
H353	H	1.126105	-0.270589	0.522118
H354	H	1.459438	0.062744	0.855452
H355	H	0.803043	-0.223005	0.860763
H356	H	1.136376	0.110328	1.194096
H357	H	1.469710	0.443662	1.527430
H358	H	0.144559	-0.268758	0.374369
H359	H	0.477892	0.064575	0.707702
H360	H	0.811226	0.397909	1.041035
H361	H	0.144551	-0.164699	0.228767
H362	H	0.477884	0.168634	0.562101
H363	H	0.811217	0.501967	0.895434
H364	H	0.832661	-0.268711	0.658878
H365	H	1.165994	0.064622	0.992211
H366	H	1.499328	0.397955	1.325544
H367	H	0.263261	-0.164666	0.228793
H368	H	0.596594	0.168668	0.562127
H369	H	0.929928	0.502001	0.895460
H370	H	0.346281	-0.143246	0.292509
H371	H	0.679614	0.190088	0.625843
H372	H	1.012948	0.523421	0.959176
H373	H	0.792789	-0.829787	0.188743
H374	H	1.126123	-0.496454	0.522076
H375	H	1.459456	-0.163120	0.855410
H376	H	0.792775	-0.689027	0.188768
H377	H	1.126109	-0.355694	0.522102
H378	H	1.459442	-0.022361	0.855435
H379	H	0.464986	-0.143214	0.292527
H380	H	0.798319	0.190119	0.625860
H381	H	1.131652	0.523452	0.959194
H382	H	0.978129	-0.473265	0.374242
H383	H	1.311462	-0.139932	0.707575
H384	H	1.644796	0.193402	1.040909
H385	H	0.548187	-0.164596	0.228850
H386	H	0.881520	0.168737	0.562183
H387	H	1.214854	0.502071	0.895517
H388	H	0.832806	-0.473218	0.228874
H389	H	1.166139	-0.139885	0.562208
H390	H	1.499473	0.193449	0.895541
H391	H	1.018181	-0.829833	0.414230
H392	H	1.351514	-0.496500	0.747564
H393	H	1.684847	-0.163167	1.080897
H394	H	0.978117	-0.388141	0.374260
H395	H	1.311451	-0.054808	0.707593
H396	H	1.644784	0.278525	1.040926
H397	H	0.832765	-0.268748	0.943802
H398	H	1.166098	0.064585	1.277136
H399	H	1.499432	0.397919	1.610469
H400	H	0.832617	-0.268702	0.540163
H401	H	1.165950	0.064631	0.873496
H402	H	1.499283	0.397964	1.206830
H403	H	0.832859	-1.045627	0.228745
H404	H	1.166193	-0.712293	0.562078
H405	H	1.499526	-0.378960	0.895411
H406	H	0.978172	-1.045653	0.374108
H407	H	1.311505	-0.712320	0.707442
H408	H	1.644838	-0.378986	1.040775
H409	H	1.018168	-0.689078	0.414276
H410	H	1.351501	-0.355745	0.747609
H411	H	1.684834	-0.022411	1.080943
H412	H	1.018159	-0.603970	0.414291
H413	H	1.351493	-0.270636	0.747625
H414	H	1.684826	0.062697	1.080958
H415	H	0.792779	-0.744669	0.188756
H416	H	1.126112	-0.411336	0.522089
H417	H	1.459446	-0.078002	0.855422
H418	H	0.978085	-0.164570	0.540082
H419	H	1.311418	0.168763	0.873416
H420	H	1.644752	0.502096	1.206749
H421	H	1.018171	-0.744728	0.414251
H422	H	1.351504	-0.411395	0.747584
H423	H	1.684837	-0.078061	1.080918
