data_functionalizedCrystal
_audit_creation_method	'MofGen! by Chris Wilmer'
_symmetry_space_group_name_H-M	'P1'
_symmetry_Int_Tables_number	1
_symmetry_cell_setting	triclinic
loop_
_symmetry_equiv_pos_as_xyz
  x,y,z
_cell_length_a	16.109318
_cell_length_b	14.044220
_cell_length_c	15.186229
_cell_angle_alpha	89.987189
_cell_angle_beta	89.995013
_cell_angle_gamma	88.328720
loop_
_atom_site_label
_atom_site_type_symbol
_atom_site_fract_x
_atom_site_fract_y
_atom_site_fract_z
O1	O	1.112198	0.121924	-0.073157
O2	O	0.871265	0.137069	-0.073175
O3	O	0.988115	-0.008487	-0.073158
O4	O	0.995348	0.267481	-0.073175
O5	O	0.988094	-0.008511	0.073299
O6	O	0.871244	0.137045	0.073282
O7	O	1.112177	0.121900	0.073300
Zn8	Zn	0.991707	0.129469	0.096544
Zn9	Zn	0.991735	0.129501	-0.096420
O10	O	0.995327	0.267457	0.073283
C11	C	0.840234	0.136441	0.000051
C12	C	0.747802	0.134593	0.000044
C13	C	0.448295	0.128638	-0.079774
C14	C	0.535145	0.130368	-0.079779
C15	C	0.535141	0.130329	0.079897
C16	C	0.448293	0.128592	0.079901
C17	C	0.404872	0.127752	0.000064
C18	C	0.578570	0.131218	0.000053
C19	C	0.672737	0.133094	0.000048
C20	C	0.310699	0.125874	0.000069
C21	C	0.984939	-0.043813	0.000071
C22	C	0.975495	-0.149036	0.000071
C23	C	0.958230	-0.341693	0.000057
C24	C	1.025209	-0.399343	0.000060
C25	C	1.015602	-0.506544	0.000052
C26	C	0.967835	-0.234482	0.000065
C27	C	1.143208	0.122529	0.000072
C28	C	1.235640	0.124377	0.000073
C29	C	0.998503	0.302782	0.000052
C30	C	1.007947	0.408006	0.000046
N31	N	0.991695	0.129447	0.228237
C32	C	0.937035	0.071980	0.546189
C33	C	0.937028	0.071966	0.453999
C34	C	1.046408	0.186982	0.453942
C35	C	1.046418	0.186990	0.546130
C36	C	0.991728	0.129490	0.592251
C37	C	0.991710	0.129469	0.407874
C38	C	0.991703	0.129455	0.307917
C39	C	0.991736	0.129503	0.692214
N40	N	0.991743	0.129512	0.771888
H41	H	1.089766	-0.368187	0.000005
C42	C	0.872102	-0.383096	0.000190
C43	C	0.829017	-0.352301	0.075529
C44	C	0.749671	-0.390424	0.075679
H45	H	0.876885	-0.450669	0.000233
H46	H	0.842713	-0.362255	-0.050855
H47	H	0.858399	-0.373148	0.126562
H48	H	0.824211	-0.284734	0.075503
H49	H	0.720283	-0.369583	0.024633
H50	H	0.754463	-0.457995	0.075719
H51	H	0.720426	-0.369528	0.126791
H52	H	0.892503	0.025159	0.583738
C53	C	0.877553	0.009497	0.404148
C54	C	0.829649	-0.040836	0.464274
C55	C	0.774843	-0.098385	0.418384
H56	H	0.908286	-0.034199	0.368189
H57	H	0.842124	0.048306	0.368199
H58	H	0.865074	-0.079641	0.500207
H59	H	0.798899	0.002837	0.500234
H60	H	0.739414	-0.059576	0.382435
H61	H	0.805583	-0.142075	0.382427
H62	H	0.742329	-0.132536	0.459172
C63	C	0.582433	0.131304	0.166482
C64	C	0.667784	0.133043	0.149393
C65	C	0.711372	0.133958	0.229135
H66	H	0.570543	0.075788	0.199354
H67	H	0.566000	0.186276	0.199291
H68	H	0.684211	0.078076	0.116598
H69	H	0.679698	0.188555	0.116534
H70	H	0.694940	0.188931	0.261945
H71	H	0.699476	0.078441	0.262001
H72	H	0.769287	0.135147	0.217551
H73	H	0.412936	0.127869	0.144918
H74	H	1.090934	0.233798	0.416380
C75	C	1.105936	0.249371	0.596034
C76	C	1.187770	0.223267	0.573581
C77	C	1.242620	0.280713	0.619526
H78	H	1.098226	0.241191	0.657556
H79	H	1.095349	0.314233	0.580894
H80	H	1.198354	0.158421	0.588728
H81	H	1.195507	0.231451	0.512067
H82	H	1.232032	0.345575	0.604385
H83	H	1.234902	0.272529	0.681046
H84	H	1.298150	0.263016	0.604292
C85	C	0.401304	0.127674	-0.166544
C86	C	0.457927	0.128795	-0.236462
C87	C	0.414673	0.127894	-0.316409
H88	H	0.365181	0.182224	-0.169987
H89	H	0.369686	0.071735	-0.169909
H90	H	0.489532	0.184728	-0.233098
H91	H	0.494053	0.074249	-0.233047
H92	H	0.383054	0.071955	-0.319775
H93	H	0.378551	0.182445	-0.319844
H94	H	0.453085	0.128646	-0.363858
C95	C	0.582391	0.131486	-0.166396
C96	C	0.628960	0.213968	-0.171051
C97	C	0.672501	0.215023	-0.250828
H98	H	0.544183	0.130787	-0.214014
H99	H	0.618558	0.076951	-0.169728
H100	H	0.592796	0.268489	-0.167728
H101	H	0.667182	0.214685	-0.123452
H102	H	0.708668	0.160489	-0.254160
H103	H	0.634287	0.214322	-0.298440
H104	H	0.704109	0.270982	-0.253994
