data_functionalizedCrystal
_audit_creation_method	'MofGen! by Chris Wilmer'
_symmetry_space_group_name_H-M	'P1'
_symmetry_Int_Tables_number	1
_symmetry_cell_setting	triclinic
loop_
_symmetry_equiv_pos_as_xyz
  x,y,z
_cell_length_a	15.995350
_cell_length_b	19.188930
_cell_length_c	14.472310
_cell_angle_alpha	89.993787
_cell_angle_beta	89.990621
_cell_angle_gamma	83.318578
loop_
_atom_site_label
_atom_site_type_symbol
_atom_site_fract_x
_atom_site_fract_y
_atom_site_fract_z
O1	O	1.110667	0.089991	-0.076773
O2	O	1.610667	0.589991	0.423227
O3	O	0.866851	0.101105	-0.076794
O4	O	1.366851	0.601105	0.423206
O5	O	0.995795	-0.006090	-0.076765
O6	O	1.495795	0.493910	0.423235
O7	O	0.981723	0.197186	-0.076802
O8	O	1.481723	0.697186	0.423198
O9	O	0.995762	-0.006083	0.076917
O10	O	1.495762	0.493917	0.576917
O11	O	0.866818	0.101111	0.076888
O12	O	1.366818	0.601111	0.576888
O13	O	1.110634	0.089998	0.076909
O14	O	1.610634	0.589998	0.576909
Cu15	Cu	0.988723	0.095555	0.090931
Cu16	Cu	1.488723	0.595555	0.590931
Cu17	Cu	0.988762	0.095547	-0.090816
Cu18	Cu	1.488762	0.595547	0.409184
O19	O	0.981690	0.197192	0.076880
O20	O	1.481690	0.697192	0.576880
C21	C	0.835641	0.100648	0.000045
C22	C	1.335641	0.600648	0.500045
C23	C	0.742696	0.099271	0.000038
C24	C	1.242696	0.599271	0.500038
C25	C	0.995323	-0.032099	0.000079
C26	C	1.495323	0.467901	0.500079
C27	C	0.993955	-0.109607	0.000087
C28	C	1.493955	0.390393	0.500087
C29	C	0.404967	0.094324	0.000058
C30	C	0.904967	0.594324	0.500058
C31	C	0.452680	0.017982	0.000415
C32	C	0.952680	0.517982	0.500415
C33	C	0.549365	0.019360	0.000062
C34	C	1.049365	0.519360	0.500062
C35	C	0.572518	0.096778	0.000049
C36	C	1.072518	0.596778	0.500049
C37	C	0.531312	0.134429	-0.087714
C38	C	1.031312	0.634429	0.412286
C39	C	0.434683	0.132511	-0.087781
C40	C	0.934683	0.632511	0.412219
C41	C	0.434301	0.134095	0.086984
C42	C	0.934301	0.634095	0.586984
C43	C	0.531246	0.134077	0.088137
C44	C	1.031246	0.634077	0.588137
C45	C	0.667211	0.098169	0.000040
C46	C	1.167211	0.598169	0.500040
C47	C	0.310274	0.092936	0.000060
C48	C	0.810274	0.592936	0.500060
C49	C	1.069615	-0.154338	0.000097
C50	C	1.569615	0.345662	0.500097
C51	C	1.068330	-0.227165	0.000082
C52	C	1.568330	0.272835	0.500082
C53	C	0.991380	-0.255258	0.000075
C54	C	1.491380	0.244742	0.500075
C55	C	0.915710	-0.210517	0.000059
C56	C	1.415710	0.289483	0.500059
C57	C	0.916997	-0.137691	0.000065
C58	C	1.416997	0.362309	0.500065
N59	N	0.932550	-0.363410	0.052371
N60	N	1.432550	0.136590	0.552371
N61	N	0.931332	-0.432592	0.052368
N62	N	1.431332	0.067408	0.552368
C63	C	0.987497	-0.474676	0.000056
C64	C	1.487497	0.025324	0.500056
N65	N	1.044938	-0.444967	-0.052240
N66	N	1.544938	0.055033	0.447760
N67	N	1.046158	-0.375779	-0.052233
N68	N	1.546158	0.124221	0.447767
C69	C	0.989976	-0.334224	0.000069
C70	C	1.489976	0.165776	0.500069
C71	C	1.061769	-0.598375	0.000050
C72	C	1.561769	-0.098375	0.500050
C73	C	1.060480	-0.671204	0.000029
C74	C	1.560480	-0.171204	0.500029
C75	C	0.907859	-0.654553	0.000015
C76	C	1.407859	-0.154553	0.500015
C77	C	0.909149	-0.581727	0.000027
C78	C	1.409149	-0.081727	0.500027
C79	C	0.986106	-0.553643	0.000048
C80	C	1.486106	-0.053643	0.500048
C81	C	1.141843	0.090454	0.000068
C82	C	1.641843	0.590454	0.500068
C83	C	1.234789	0.091831	0.000069
C84	C	1.734789	0.591831	0.500069
C85	C	0.982162	0.223201	0.000034
C86	C	1.482162	0.723201	0.500034
C87	C	0.983530	0.300709	0.000020
C88	C	1.483530	0.800709	0.500020
N89	N	0.988701	0.095560	0.218762
N90	N	1.488701	0.595560	0.718762
N91	N	0.988790	0.095537	-0.218647
N92	N	1.488790	0.595537	0.281353
C93	C	0.988761	0.095545	0.592853
C94	C	1.488761	0.595545	1.092853
C95	C	0.919535	0.152710	0.553672
C96	C	1.419535	0.652710	1.053672
C97	C	0.919694	0.152918	0.446584
C98	C	1.419694	0.652918	0.946584
C99	C	0.988731	0.095552	0.407262
C100	C	1.488731	0.595552	0.907262
C101	C	1.076037	0.111464	0.446103
C102	C	1.576037	0.611464	0.946103
C103	C	1.075648	0.111870	0.553224
C104	C	1.575648	0.611870	1.053224
C105	C	0.971460	0.022298	0.553394
C106	C	1.471460	0.522298	1.053394
C107	C	0.969454	0.022787	0.446266
C108	C	1.469454	0.522787	0.946266
C109	C	0.988719	0.095555	0.302374
C110	C	1.488719	0.595555	0.802374
C111	C	0.988778	0.095543	0.697741
C112	C	1.488778	0.595543	1.197741
H113	H	0.434256	-0.012531	0.063354
H114	H	0.934256	0.487469	0.563354
H115	H	0.577346	-0.010441	-0.062950
H116	H	1.077346	0.489559	0.437050
H117	H	0.905232	0.010711	0.420881
H118	H	1.405232	0.510711	0.920881
H119	H	0.416490	0.105049	-0.153377
H120	H	0.916490	0.605049	0.346623
H121	H	1.090934	0.165288	0.578192
H122	H	1.590934	0.665288	1.078192
N123	N	0.827546	-0.533472	0.000026
N124	N	1.327546	-0.033472	0.500026
H125	H	0.793972	-0.542500	-0.056947
H126	H	1.293972	-0.042500	0.443053
H127	H	0.794016	-0.542534	0.057031
H128	H	1.294016	-0.042534	0.557031
N129	N	1.031934	-0.036206	0.410833
N130	N	1.531934	0.463794	0.910833
H131	H	1.073809	-0.016511	0.368807
H132	H	1.573809	0.483489	0.868807
H133	H	1.062603	-0.060922	0.464734
H134	H	1.562603	0.439078	0.964734
N135	N	0.551317	0.208861	0.095147
N136	N	1.051317	0.708861	0.595147
H137	H	0.497297	0.241847	0.094366
H138	H	0.997297	0.741847	0.594366
H139	H	0.582513	0.215108	0.154690
H140	H	1.082513	0.715108	0.654690
N141	N	1.145887	0.057782	0.412356
N142	N	1.645887	0.557782	0.912356
H143	H	1.187971	0.082055	0.375974
H144	H	1.687971	0.582055	0.875974
H145	H	1.174876	0.032789	0.467058
H146	H	1.674876	0.532789	0.967058
N147	N	1.038329	-0.034055	0.586952
N148	N	1.538329	0.465945	1.086952
H149	H	1.079636	-0.012285	0.627516
H150	H	1.579636	0.487715	1.127516
H151	H	1.011053	-0.070105	0.623584
H152	H	1.511053	0.429895	1.123584
N153	N	0.549756	0.209765	-0.092067
N154	N	1.049756	0.709765	0.407933
H155	H	0.495127	0.241978	-0.091205
H156	H	0.995127	0.741978	0.408795
H157	H	0.585105	0.220173	-0.037050
H158	H	1.085105	0.720173	0.462950
H159	H	0.433211	-0.012395	-0.062166
H160	H	0.933211	0.487605	0.437834
H161	H	0.402333	0.190382	0.087568
H162	H	0.902333	0.690382	0.587568
N163	N	1.096777	0.181417	0.410549
N164	N	1.596777	0.681417	0.910549
H165	H	1.103493	0.213780	0.464393
H166	H	1.603493	0.713780	0.964393
H167	H	1.150968	0.174385	0.374129
H168	H	1.650968	0.674385	0.874129
N169	N	0.888968	0.002038	0.589214
N170	N	1.388968	0.502038	1.089214
H171	H	0.861974	0.040139	0.631390
H172	H	1.361974	0.540139	1.131390
H173	H	0.850209	-0.004145	0.535500
H174	H	1.350209	0.495855	1.035500
N175	N	0.569036	0.099788	-0.174225
N176	N	1.069036	0.599788	0.325775
H177	H	0.612807	0.059714	-0.156767
H178	H	1.112807	0.559714	0.343233
H179	H	0.523237	0.081256	-0.211825
H180	H	1.023237	0.581256	0.288175
H181	H	1.129943	-0.263592	0.000087
H182	H	1.629943	0.236408	0.500087
H183	H	0.402230	0.188560	-0.091773
H184	H	0.902230	0.688560	0.408227
N185	N	1.152615	-0.124047	0.000119
N186	N	1.652615	0.375953	0.500119
H187	H	1.200351	-0.163439	0.000123
H188	H	1.700351	0.336561	0.500123
H189	H	1.156489	-0.094189	-0.056851
H190	H	1.656489	0.405811	0.443149
H191	H	0.413843	0.109140	0.153506
H192	H	0.913843	0.609140	0.653506
N193	N	0.832713	-0.240811	0.000047
N194	N	1.332713	0.259189	0.500047
H195	H	0.843378	-0.293734	0.000048
H196	H	1.343378	0.206266	0.500048
H197	H	0.799602	-0.224451	0.057015
H198	H	1.299602	0.275549	0.557015
N199	N	0.934302	0.224913	0.412609
N200	N	1.434302	0.724913	0.912609
H201	H	0.934465	0.225349	0.342823
H202	H	1.434465	0.725349	0.842823
H203	H	0.887893	0.260709	0.436126
H204	H	1.387893	0.760709	0.936126
N205	N	0.567539	0.097676	0.174146
N206	N	1.067539	0.597676	0.674146
H207	H	0.610536	0.057192	0.156135
H208	H	1.110536	0.557192	0.656135
H209	H	0.595406	0.132066	0.213063
H210	H	1.095406	0.632066	0.713063
N211	N	1.145888	0.058809	0.587589
N212	N	1.645888	0.558809	1.087589
H213	H	1.136958	0.010622	0.564272
H214	H	1.636958	0.510622	1.064272
H215	H	1.201567	0.071648	0.564135
H216	H	1.701567	0.571648	1.064135
N217	N	0.835390	-0.089440	0.000053
N218	N	1.335390	0.410560	0.500053
H219	H	0.786445	-0.118284	0.000043
H220	H	1.286445	0.381716	0.500043
H221	H	0.832587	-0.058869	0.057029
H222	H	1.332587	0.441131	0.557029
N223	N	0.587156	-0.019837	0.083397
N224	N	1.087156	0.480163	0.583397
H225	H	0.541013	-0.038170	0.120693
H226	H	1.041013	0.461830	0.620693
H227	H	0.628666	-0.060439	0.062376
H228	H	1.128666	0.439561	0.562376
H229	H	1.124432	-0.575508	0.000063
H230	H	1.624432	-0.075508	0.500063
H231	H	1.122095	-0.707624	0.000033
H232	H	1.622095	-0.207624	0.500033
N233	N	0.824861	-0.684842	-0.000003
N234	N	1.324861	-0.184842	0.499997
H235	H	0.835524	-0.737765	-0.000008
H236	H	1.335524	-0.237765	0.499992
H237	H	0.791748	-0.668485	0.056966
H238	H	1.291748	-0.168485	0.556966
H239	H	0.854420	0.143386	0.579456
H240	H	1.354420	0.643386	1.079456
N241	N	0.833722	0.140364	0.411791
N242	N	1.333722	0.640364	0.911791
H243	H	0.795380	0.134645	0.466041
H244	H	1.295380	0.634645	0.966041
H245	H	0.809512	0.181672	0.373121
H246	H	1.309512	0.681672	0.873121
N247	N	0.933949	0.224312	0.589256
N248	N	1.433949	0.724312	1.089256
H249	H	0.985122	0.219880	0.630652
H250	H	1.485122	0.719880	1.130652
H251	H	0.943274	0.255959	0.535376
H252	H	1.443274	0.755959	1.035376
