data_functionalizedCrystal
_audit_creation_method	'MofGen! by Chris Wilmer'
_symmetry_space_group_name_H-M	'P1'
_symmetry_Int_Tables_number	1
_symmetry_cell_setting	triclinic
loop_
_symmetry_equiv_pos_as_xyz
  x,y,z
_cell_length_a	16.109301
_cell_length_b	16.109304
_cell_length_c	15.186229
_cell_angle_alpha	90.000934
_cell_angle_beta	90.000994
_cell_angle_gamma	83.462111
loop_
_atom_site_label
_atom_site_type_symbol
_atom_site_fract_x
_atom_site_fract_y
_atom_site_fract_z
O1	O	1.103132	0.106867	0.073175
O2	O	1.603132	0.606867	0.573175
O3	O	0.861070	0.120166	0.073186
O4	O	1.361070	0.620166	0.573186
O5	O	0.988749	-0.007514	0.073181
O6	O	1.488749	0.492486	0.573181
O7	O	0.975452	0.234547	0.073180
O8	O	1.475452	0.734547	0.573180
O9	O	0.988741	-0.007516	-0.073277
O10	O	1.488741	0.492484	0.426723
O11	O	0.861061	0.120164	-0.073271
O12	O	1.361061	0.620164	0.426729
O13	O	1.103123	0.106865	-0.073283
O14	O	1.603123	0.606865	0.426717
Zn15	Zn	0.982091	0.113514	-0.096530
Zn16	Zn	1.482091	0.613514	0.403470
Zn17	Zn	0.982102	0.113517	0.096434
Zn18	Zn	1.482102	0.613517	0.596434
O19	O	0.975444	0.234545	-0.073277
O20	O	1.475444	0.734545	0.426723
C21	C	0.830091	0.119626	-0.000041
C22	C	1.330091	0.619626	0.499959
C23	C	0.737795	0.118011	-0.000036
C24	C	1.237795	0.618011	0.499964
C25	C	0.988206	-0.038490	-0.000046
C26	C	1.488206	0.461510	0.499954
C27	C	0.986590	-0.130785	-0.000040
C28	C	1.486590	0.369215	0.499960
C29	C	0.428798	0.188494	-0.000052
C30	C	0.928798	0.688494	0.499948
C31	C	0.515518	0.190020	-0.000046
C32	C	1.015518	0.690020	0.499954
C33	C	0.535390	0.038531	-0.000034
C34	C	1.035390	0.538531	0.499966
C35	C	0.448671	0.037007	-0.000033
C36	C	0.948671	0.537007	0.499967
C37	C	0.395377	0.111991	-0.000046
C38	C	0.895377	0.611991	0.499954
C39	C	0.568816	0.115040	-0.000042
C40	C	1.068816	0.615040	0.499958
C41	C	0.662842	0.116694	-0.000037
C42	C	1.162842	0.616694	0.499963
C43	C	0.301345	0.110338	-0.000050
C44	C	0.801345	0.610338	0.499950
C45	C	0.982861	-0.343122	0.079791
C46	C	1.482861	0.156878	0.579791
C47	C	0.981335	-0.429842	0.079790
C48	C	1.481335	0.070158	0.579790
C49	C	0.981330	-0.429841	-0.079886
C50	C	1.481330	0.070159	0.420114
C51	C	0.982850	-0.343121	-0.079884
C52	C	1.482850	0.156879	0.420116
C53	C	0.983620	-0.299765	-0.000043
C54	C	1.483620	0.200235	0.499957
C55	C	0.980573	-0.473204	-0.000046
C56	C	1.480573	0.026796	0.499954
C57	C	0.978919	-0.567230	-0.000047
C58	C	1.478919	-0.067230	0.499953
C59	C	0.985273	-0.205733	-0.000041
C60	C	1.485273	0.294267	0.499959
C61	C	1.134102	0.107405	-0.000054
C62	C	1.634102	0.607405	0.499946
C63	C	1.226398	0.109020	-0.000053
C64	C	1.726398	0.609020	0.499947
C65	C	0.975987	0.265521	-0.000048
C66	C	1.475987	0.765521	0.499952
C67	C	0.977603	0.357816	-0.000049
C68	C	1.477603	0.857816	0.499951
N69	N	0.982089	0.113512	-0.228223
N70	N	1.482089	0.613512	0.271777
C71	C	1.038645	0.056994	-0.453948
C72	C	1.538645	0.556994	0.046052
C73	C	1.038647	0.056992	-0.546138
C74	C	1.538647	0.556992	-0.046138
C75	C	0.925549	0.170033	-0.546142
C76	C	1.425549	0.670033	-0.046142
C77	C	0.925543	0.170030	-0.453954
C78	C	1.425543	0.670030	0.046046
C79	C	0.982095	0.113512	-0.407859
C80	C	1.482095	0.613512	0.092141
C81	C	0.982104	0.113513	-0.592237
C82	C	1.482104	0.613513	-0.092237
C83	C	0.982106	0.113511	-0.692193
C84	C	1.482106	0.613511	-0.192193
C85	C	0.982092	0.113512	-0.307897
C86	C	1.482092	0.613512	0.192103
N87	N	0.982110	0.113512	0.228126
N88	N	1.482110	0.613512	0.728126
H89	H	0.385408	0.249551	-0.000062
H90	H	0.885408	0.749551	0.499938
C91	C	0.552278	0.274173	-0.000057
C92	C	1.052278	0.774173	0.499943
H93	H	0.508115	0.318609	-0.000071
H94	H	1.008115	0.818609	0.499929
H95	H	0.585693	0.277926	0.051015
H96	H	1.085693	0.777926	0.551015
H97	H	0.585693	0.277910	-0.051137
H98	H	1.085693	0.777910	0.448863
H99	H	0.980715	-0.465139	0.144799
H100	H	1.480715	0.034861	0.644799
C101	C	0.594015	-0.043944	-0.000032
C102	C	1.094015	0.456056	0.499968
H103	H	0.650449	-0.032081	-0.000044
H104	H	1.150449	0.467919	0.499956
H105	H	0.583889	-0.075316	0.051041
H106	H	1.083889	0.424684	0.551041
H107	H	0.583881	-0.075315	-0.051111
H108	H	1.083881	0.424685	0.448889
C109	C	0.863353	0.232205	-0.596848
C110	C	1.363353	0.732205	-0.096848
H111	H	0.871461	0.224119	-0.658354
H112	H	1.371461	0.724119	-0.158354
H113	H	0.807869	0.223164	-0.581749
H114	H	1.307869	0.723164	-0.081749
H115	H	0.872374	0.287697	-0.581733
H116	H	1.372374	0.787697	-0.081733
H117	H	0.983485	-0.307823	0.144802
H118	H	1.483485	0.192177	0.644802
H119	H	0.980705	-0.465153	-0.144889
H120	H	1.480705	0.034847	0.355111
H121	H	0.983463	-0.307819	-0.144898
H122	H	1.483463	0.192181	0.355102
C123	C	0.863343	0.232207	-0.403249
C124	C	1.363343	0.732207	0.096751
H125	H	0.871436	0.224105	-0.341744
H126	H	1.371436	0.724105	0.158256
H127	H	0.872359	0.287697	-0.418352
H128	H	1.372359	0.787697	0.081648
H129	H	0.807856	0.223161	-0.418359
H130	H	1.307856	0.723161	0.081641
H131	H	1.084692	0.010973	-0.416420
H132	H	1.584692	0.510973	0.083580
H133	H	0.421460	-0.025296	-0.000026
H134	H	0.921460	0.474704	0.499974
H135	H	1.084694	0.010970	-0.583661
H136	H	1.584694	0.510970	-0.083661
