data_functionalizedCrystal
_audit_creation_method	'MofGen! by Chris Wilmer'
_symmetry_space_group_name_H-M	'P1'
_symmetry_Int_Tables_number	1
_symmetry_cell_setting	triclinic
loop_
_symmetry_equiv_pos_as_xyz
  x,y,z
_cell_length_a	12.759401
_cell_length_b	19.120786
_cell_length_c	12.759393
_cell_angle_alpha	92.477171
_cell_angle_beta	90.018702
_cell_angle_gamma	92.464332
loop_
_atom_site_label
_atom_site_type_symbol
_atom_site_fract_x
_atom_site_fract_y
_atom_site_fract_z
Zn1	Zn	1.588333	-0.279607	0.576103
Zn2	Zn	1.580698	-0.397084	0.392909
Zn3	Zn	1.412633	-0.279642	0.400440
Zn4	Zn	1.405098	-0.397027	0.568553
O5	O	1.496691	-0.338340	0.484501
O6	O	1.734341	-0.295200	0.551810
O7	O	1.558362	-0.381543	0.246884
O8	O	1.442289	-0.181346	0.430053
O9	O	1.728731	-0.381509	0.417218
O10	O	1.571375	-0.181321	0.559112
O11	O	1.434886	-0.295259	0.252417
O12	O	1.264613	-0.295204	0.422732
O13	O	1.429446	-0.381413	0.716578
O14	O	1.259077	-0.381447	0.546244
O15	O	1.564069	-0.295145	0.722125
O16	O	1.551055	-0.495367	0.409897
O17	O	1.422043	-0.495326	0.538942
C18	C	1.223724	-0.338324	0.484487
C19	C	1.106947	-0.338333	0.484504
C20	C	0.945263	-0.293489	0.554691
C21	C	1.054988	-0.293476	0.554685
C22	C	1.049175	-0.383213	0.414332
C23	C	0.939452	-0.383230	0.414344
C24	C	1.484931	-0.520832	0.472806
C25	C	1.479997	-0.598903	0.467838
C26	C	1.544837	-0.635507	0.532753
C27	C	1.540196	-0.708863	0.528086
C28	C	1.470720	-0.745613	0.458499
C29	C	1.405873	-0.709004	0.393582
C30	C	1.410509	-0.635649	0.398254
C31	C	1.453357	-0.967100	0.441033
C32	C	1.448728	-1.040460	0.436363
C33	C	1.583050	-1.040314	0.570870
C34	C	1.587684	-0.966958	0.575531
C35	C	1.522834	-0.930355	0.510618
C36	C	1.465977	-0.820595	0.453726
C37	C	1.527572	-0.855375	0.515397
C38	C	1.770723	-0.338357	0.484516
C39	C	1.887499	-0.338364	0.484523
C40	C	1.496769	-0.338269	0.758539
C41	C	1.496802	-0.338239	0.875318
C42	C	1.508525	-0.155135	0.496265
C43	C	1.513567	-0.077064	0.501278
C44	C	1.496677	-0.338360	0.211532
C45	C	1.496860	-0.338192	0.094767
C46	C	1.432532	-0.293302	0.933061
C47	C	1.432558	-0.293281	1.042786
C48	C	1.561132	-0.383134	1.037016
C49	C	1.561100	-0.383158	0.927292
H50	H	0.892418	-0.419776	0.357204
Cl51	Cl	1.361383	-1.086660	0.348872
Cl52	Cl	1.371820	-0.921095	0.359436
H53	H	1.380222	-0.256689	1.089796
Cl54	Cl	1.318520	-0.755205	0.306111
Cl55	Cl	1.114495	-0.439609	0.326109
H56	H	1.102015	-0.256935	0.611824
H57	H	1.357708	-0.605847	0.345395
Cl58	Cl	1.632188	-0.589314	0.620233
H59	H	1.593004	-0.738663	0.580939
Cl60	Cl	1.641962	-0.439599	1.102363
H61	H	1.409412	-0.850525	0.397065
H62	H	1.584136	-0.825451	0.572059
Cl63	Cl	1.351696	-0.236835	0.867725
H64	H	0.902967	-0.256957	0.611835
Cl65	Cl	1.675028	-0.920763	0.663017
Cl66	Cl	1.641898	-0.439658	0.854695
H67	H	1.635846	-1.070124	0.623720
