data_functionalizedCrystal
_audit_creation_method	'MofGen! by Chris Wilmer'
_symmetry_space_group_name_H-M	'P1'
_symmetry_Int_Tables_number	1
_symmetry_cell_setting	triclinic
loop_
_symmetry_equiv_pos_as_xyz
  x,y,z
_cell_length_a	27.732048
_cell_length_b	27.732048
_cell_length_c	26.809956
_cell_angle_alpha	89.999364
_cell_angle_beta	89.996742
_cell_angle_gamma	82.642655
loop_
_atom_site_label
_atom_site_type_symbol
_atom_site_fract_x
_atom_site_fract_y
_atom_site_fract_z
O1	O	0.640931	0.057510	-0.041421
O2	O	1.140931	0.557510	0.458579
O3	O	0.500138	0.066256	-0.041436
O4	O	1.000138	0.566256	0.458564
O5	O	0.574907	-0.008514	-0.041419
O6	O	1.074907	0.491486	0.458581
O7	O	0.566162	0.132280	-0.041439
O8	O	1.066162	0.632280	0.458561
O9	O	0.574893	-0.008502	0.041541
O10	O	1.074893	0.491498	0.541541
O11	O	0.500123	0.066267	0.041523
O12	O	1.000123	0.566267	0.541523
O13	O	0.640917	0.057522	0.041539
O14	O	1.140917	0.557522	0.541539
Zn15	Zn	0.570518	0.061896	0.054702
Zn16	Zn	1.070518	0.561896	0.554702
Zn17	Zn	0.570536	0.061881	-0.054600
Zn18	Zn	1.070536	0.561881	0.445400
O19	O	0.566147	0.132291	0.041521
O20	O	1.066147	0.632291	0.541521
C21	C	0.482124	0.066078	0.000041
C22	C	0.982124	0.566078	0.500041
C23	C	0.428469	0.065525	0.000036
C24	C	0.928469	0.565525	0.500036
C25	C	0.089654	0.106229	0.000051
C26	C	0.589654	0.606229	0.500051
C27	C	-0.112006	0.104178	0.000056
C28	C	0.387994	0.604178	0.500056
O29	O	-0.143262	0.141398	0.000073
O30	O	0.356738	0.641398	0.500073
N31	N	-0.131130	0.059843	0.000062
N32	N	0.368870	0.559843	0.500062
C33	C	-0.099835	0.016017	0.000069
C34	C	0.400165	0.516017	0.500069
O35	O	-0.120728	-0.021740	0.000079
O36	O	0.379272	0.478260	0.500079
C37	C	0.101824	0.018068	0.000068
C38	C	0.601824	0.518068	0.500068
C39	C	0.120944	0.062407	0.000057
C40	C	0.620944	0.562407	0.500057
C41	C	0.108775	0.150563	0.000042
C42	C	0.608775	0.650563	0.500042
C43	C	0.159187	0.151076	0.000038
C44	C	0.659187	0.651076	0.500038
C45	C	0.190477	0.107253	0.000044
C46	C	0.690477	0.607253	0.500044
C47	C	0.171356	0.062919	0.000054
C48	C	0.671356	0.562919	0.500054
C49	C	0.133117	-0.025757	0.000079
C50	C	0.633117	0.474243	0.500079
C51	C	0.183535	-0.025240	0.000080
C52	C	0.683535	0.474760	0.500080
C53	C	0.202655	0.019098	0.000069
C54	C	0.702655	0.519098	0.500069
C55	C	0.253059	0.019609	0.000056
C56	C	0.753059	0.519609	0.500056
N57	N	0.272183	0.063944	0.000050
N58	N	0.772183	0.563944	0.500050
C59	C	0.240892	0.107766	0.000044
C60	C	0.740892	0.607766	0.500044
C61	C	-0.205709	0.014943	0.000069
C62	C	0.294291	0.514943	0.500069
C63	C	-0.256124	0.014430	0.000068
C64	C	0.243876	0.514430	0.500068
C65	C	-0.268291	0.102591	0.000056
C66	C	0.231709	0.602591	0.500056
C67	C	-0.217876	0.103104	0.000053
C68	C	0.282124	0.603104	0.500053
C69	C	-0.186585	0.059278	0.000063
C70	C	0.313415	0.559278	0.500063
C71	C	0.346761	0.108839	0.000036
C72	C	0.846761	0.608839	0.500036
C73	C	0.397178	0.109347	0.000030
C74	C	0.897178	0.609347	0.500030
C75	C	0.409341	0.021186	0.000044
C76	C	0.909341	0.521186	0.500044
C77	C	0.358929	0.020678	0.000048
C78	C	0.858929	0.520678	0.500048
C79	C	0.327639	0.064508	0.000045
C80	C	0.827639	0.564508	0.500045
O81	O	0.284343	-0.017592	0.000045
O82	O	0.784343	0.482408	0.500045
O83	O	0.261794	0.145518	0.000045
O84	O	0.761794	0.645518	0.500045
C85	C	0.039242	0.105716	0.000055
C86	C	0.539242	0.605716	0.500055
C87	C	0.020120	0.061382	0.000065
C88	C	0.520120	0.561382	0.500065
C89	C	0.051411	0.017560	0.000071
C90	C	0.551411	0.517560	0.500071
C91	C	-0.030294	0.060869	0.000065
C92	C	0.469706	0.560869	0.500065
C93	C	-0.061585	0.104691	0.000059
C94	C	0.438415	0.604691	0.500059
C95	C	-0.042461	0.149026	0.000053
C96	C	0.457539	0.649026	0.500053
C97	C	0.007951	0.149539	0.000049
C98	C	0.507951	0.649539	0.500049
C99	C	0.032287	-0.026775	0.000077
C100	C	0.532287	0.473225	0.500077
C101	C	-0.018125	-0.027284	0.000080
C102	C	0.481875	0.472716	0.500080
C103	C	-0.049416	0.016538	0.000074
C104	C	0.450584	0.516538	0.500074
C105	C	0.574716	-0.026515	0.000062
C106	C	1.074716	0.473485	0.500062
C107	C	0.574164	-0.080170	0.000066
C108	C	1.074164	0.419830	0.500066
C109	C	0.614867	-0.418985	0.000045
C110	C	1.114867	0.081015	0.500045
C111	C	0.612816	-0.620645	0.000038
C112	C	1.112816	-0.120645	0.500038
O113	O	0.650037	-0.651900	0.000021
O114	O	1.150037	-0.151900	0.500021
N115	N	0.568481	-0.639768	0.000034
N116	N	1.068481	-0.139768	0.500034
C117	C	0.524656	-0.608474	0.000028
C118	C	1.024656	-0.108474	0.500028
O119	O	0.486899	-0.629367	0.000019
O120	O	0.986899	-0.129367	0.500019
C121	C	0.526707	-0.406815	0.000031
C122	C	1.026707	0.093185	0.500031
C123	C	0.571045	-0.387694	0.000041
C124	C	1.071045	0.112306	0.500041
C125	C	0.659202	-0.399864	0.000054
C126	C	1.159202	0.100136	0.500054
C127	C	0.659714	-0.349452	0.000059
C128	C	1.159714	0.150548	0.500059
C129	C	0.615892	-0.318161	0.000054
C130	C	1.115892	0.181839	0.500054
C131	C	0.571557	-0.337282	0.000045
C132	C	1.071557	0.162718	0.500045
C133	C	0.482882	-0.375521	0.000022
C134	C	0.982882	0.124479	0.500022
C135	C	0.483399	-0.325104	0.000021
C136	C	0.983399	0.174896	0.500021
C137	C	0.527737	-0.305983	0.000031
C138	C	1.027737	0.194017	0.500031
C139	C	0.528247	-0.255580	0.000045
C140	C	1.028247	0.244420	0.500045
N141	N	0.572583	-0.236456	0.000050
N142	N	1.072583	0.263544	0.500050
C143	C	0.616405	-0.267747	0.000054
C144	C	1.116405	0.232253	0.500054
C145	C	0.523582	-0.714348	0.000027
C146	C	1.023582	-0.214348	0.500027
C147	C	0.523069	-0.764762	0.000027
C148	C	1.023069	-0.264762	0.500027
C149	C	0.611230	-0.776930	0.000036
C150	C	1.111230	-0.276930	0.500036
C151	C	0.611742	-0.726514	0.000040
C152	C	1.111742	-0.226514	0.500040
C153	C	0.567917	-0.695224	0.000031
C154	C	1.067917	-0.195224	0.500031
C155	C	0.617477	-0.161878	0.000064
C156	C	1.117477	0.338122	0.500064
C157	C	0.617986	-0.111461	0.000071
C158	C	1.117986	0.388539	0.500071
C159	C	0.529825	-0.099298	0.000059
C160	C	1.029825	0.400702	0.500059
C161	C	0.529316	-0.149710	0.000055
C162	C	1.029316	0.350290	0.500055
C163	C	0.573147	-0.180999	0.000056
C164	C	1.073147	0.319001	0.500056
O165	O	0.491047	-0.224296	0.000057
O166	O	0.991047	0.275704	0.500057
O167	O	0.654156	-0.246844	0.000053
O168	O	1.154156	0.253156	0.500053
C169	C	0.614355	-0.469397	0.000041
C170	C	1.114355	0.030603	0.500041
C171	C	0.570021	-0.488518	0.000032
C172	C	1.070021	0.011482	0.500032
C173	C	0.526198	-0.457228	0.000027
C174	C	1.026198	0.042772	0.500027
C175	C	0.569508	-0.538933	0.000032
C176	C	1.069508	-0.038933	0.500032
C177	C	0.613330	-0.570223	0.000036
C178	C	1.113330	-0.070223	0.500036
C179	C	0.657665	-0.551100	0.000041
C180	C	1.157665	-0.051100	0.500041
C181	C	0.658177	-0.500688	0.000045
C182	C	1.158177	-0.000688	0.500045
C183	C	0.481863	-0.476351	0.000023
C184	C	0.981863	0.023649	0.500023
C185	C	0.481355	-0.526764	0.000019
C186	C	0.981355	-0.026764	0.500019
C187	C	0.525177	-0.558054	0.000023
C188	C	1.025177	-0.058054	0.500023
C189	C	0.658931	0.057699	0.000060
C190	C	1.158931	0.557699	0.500060
C191	C	0.712586	0.058252	0.000062
C192	C	1.212586	0.558252	0.500062
C193	C	0.566338	0.150292	0.000039
C194	C	1.066338	0.650292	0.500039
C195	C	0.566891	0.203947	0.000031
C196	C	1.066891	0.703947	0.500031
N197	N	0.570509	0.061906	0.129298
N198	N	1.070509	0.561906	0.629298
N199	N	0.570549	0.061867	-0.129196
N200	N	1.070549	0.561867	0.370804
C201	C	0.603640	0.028781	0.473932
C202	C	1.103640	0.528781	0.973932
C203	C	0.603652	0.028774	0.682810
C204	C	1.103652	0.528774	1.182810
O205	O	0.631801	0.000613	0.709820
O206	O	1.131801	0.500613	1.209820
N207	N	0.570539	0.061870	0.708925
N208	N	1.070539	0.561870	1.208925
C209	C	0.537419	0.094969	0.682818
C210	C	1.037419	0.594969	1.182818
O211	O	0.509252	0.123116	0.709824
O212	O	1.009252	0.623116	1.209824
C213	C	0.537406	0.094974	0.473941
C214	C	1.037406	0.594974	0.973941
C215	C	0.570524	0.061878	0.447829
C216	C	1.070524	0.561878	0.947829
C217	C	0.636755	-0.004312	0.447819
C218	C	1.136755	0.495688	0.947819
C219	C	0.636754	-0.004308	0.395603
C220	C	1.136754	0.495692	0.895603
C221	C	0.603637	0.028789	0.369500
C222	C	1.103637	0.528789	0.869500
C223	C	0.570522	0.061882	0.395612
C224	C	1.070522	0.561882	0.895612
C225	C	0.504284	0.128070	0.447835
C226	C	1.004284	0.628070	0.947835
C227	C	0.504283	0.128067	0.395613
C228	C	1.004283	0.628067	0.895613
C229	C	0.537401	0.094972	0.369500
C230	C	1.037401	0.594972	0.869500
C231	C	0.537405	0.094983	0.317293
C232	C	1.037405	0.594983	0.817293
N233	N	0.570517	0.061887	0.291177
N234	N	1.070517	0.561887	0.791177
C235	C	0.603633	0.028790	0.317281
C236	C	1.103633	0.528790	0.817281
C237	C	0.537429	0.094965	0.792481
C238	C	1.037429	0.594965	1.292481
C239	C	0.537433	0.094964	0.844700
C240	C	1.037433	0.594964	1.344700
C241	C	0.603665	0.028768	0.844689
C242	C	1.103665	0.528768	1.344689
C243	C	0.603663	0.028772	0.792469
C244	C	1.103663	0.528772	1.292469
C245	C	0.570542	0.061868	0.766366
C246	C	1.070542	0.561868	1.266366
C247	C	0.603628	0.028801	0.207623
C248	C	1.103628	0.528801	0.707623
C249	C	0.603625	0.028809	0.155402
C250	C	1.103625	0.528809	0.655402
C251	C	0.537392	0.095003	0.155418
C252	C	1.037392	0.595003	0.655418
C253	C	0.537396	0.094997	0.207635
C254	C	1.037396	0.594997	0.707635
C255	C	0.570516	0.061892	0.233735
C256	C	1.070516	0.561892	0.733735
O257	O	0.509266	0.123126	0.290250
O258	O	1.009266	0.623126	0.790250
O259	O	0.631789	0.000640	0.290266
O260	O	1.131789	0.500640	0.790266
C261	C	0.603642	0.028777	0.526149
C262	C	1.103642	0.528777	1.026149
C263	C	0.570527	0.061870	0.552261
C264	C	1.070527	0.561870	1.052261
C265	C	0.537410	0.094968	0.526158
C266	C	1.037410	0.594968	1.026158
C267	C	0.570531	0.061870	0.604480
C268	C	1.070531	0.561870	1.104480
C269	C	0.603647	0.028773	0.630584
C270	C	1.103647	0.528773	1.130584
C271	C	0.636759	-0.004324	0.604468
C272	C	1.136759	0.495676	1.104468
C273	C	0.636758	-0.004320	0.552252
C274	C	1.136758	0.495680	1.052252
C275	C	0.504298	0.128064	0.552273
C276	C	1.004298	0.628064	1.052273
C277	C	0.504303	0.128058	0.604489
C278	C	1.004303	0.628058	1.104489
C279	C	0.537419	0.094961	0.630593
C280	C	1.037419	0.594961	1.130593
H281	H	-0.033688	-0.063392	0.000085
H282	H	0.466312	0.436608	0.500085
O283	O	-0.199384	0.146216	0.000069
O284	O	0.300616	0.646216	0.500069
C285	C	-0.237819	0.184781	0.000048
C286	C	0.262181	0.684781	0.500048
H287	H	-0.271972	0.171491	0.015754
H288	H	0.228028	0.671491	0.515754
H289	H	-0.227515	0.215763	0.024129
H290	H	0.272485	0.715763	0.524129
H291	H	-0.245048	0.198273	-0.039754
H292	H	0.254952	0.698273	0.460246
H293	H	0.445246	-0.542327	0.000015
H294	H	0.945246	-0.042327	0.500015
O295	O	0.062727	-0.069316	0.000012
O296	O	0.562727	0.430684	0.500012
C297	C	0.092243	-0.071669	-0.042963
C298	C	0.592243	0.428331	0.457037
H299	H	0.094519	-0.033323	-0.057290
H300	H	0.594519	0.466677	0.442710
H301	H	0.130268	-0.089971	-0.033304
H302	H	0.630268	0.410029	0.466696
H303	H	0.075809	-0.093617	-0.073046
H304	H	0.575809	0.406383	0.426954
O305	O	0.660085	-0.192218	0.000001
O306	O	1.160085	0.307782	0.500001
C307	C	0.687029	-0.183603	-0.042964
C308	C	1.187029	0.316397	0.457036
H309	H	0.674865	-0.145270	-0.057289
H310	H	1.174865	0.354730	0.442711
H311	H	0.727369	-0.187438	-0.033293
H312	H	1.227369	0.312562	0.466707
H313	H	0.680642	-0.211135	-0.073053
H314	H	1.180642	0.288865	0.426947
O315	O	0.661028	-0.092830	0.000011
O316	O	1.161028	0.407170	0.500011
C317	C	0.663975	-0.064040	-0.042958
C318	C	1.163975	0.435960	0.457042
H319	H	0.625783	-0.051201	-0.057285
H320	H	1.125783	0.448799	0.442715
H321	H	0.682993	-0.031166	-0.033290
H322	H	1.182993	0.468834	0.466710
H323	H	0.685533	-0.086472	-0.073043
H324	H	1.185533	0.413528	0.426957
O325	O	0.480011	-0.783357	0.000110
O326	O	0.980011	-0.283357	0.500110
C327	C	0.477069	-0.812164	0.043068
C328	C	0.977069	-0.312164	0.543068
H329	H	0.502232	-0.800428	0.073103
H330	H	1.002232	-0.300428	0.573103
H331	H	0.438074	-0.807350	0.057482
H332	H	0.938074	-0.307350	0.557482
H333	H	0.488520	-0.852008	0.033354
H334	H	0.988520	-0.352008	0.533354
H335	H	0.209009	-0.060929	0.000089
H336	H	0.709009	0.439071	0.500089
H337	H	0.446177	-0.450879	0.000018
H338	H	0.946177	0.049121	0.500018
O339	O	-0.274752	-0.028609	0.000138
O340	O	0.225248	0.471391	0.500138
C341	C	-0.303543	-0.031546	0.043110
C342	C	0.196457	0.468454	0.543110
H343	H	-0.316384	0.006649	0.057429
H344	H	0.183616	0.506649	0.557429
H345	H	-0.336416	-0.050568	0.033449
H346	H	0.163584	0.449432	0.533449
H347	H	-0.281111	-0.053095	0.073199
H348	H	0.218889	0.446905	0.573199
H349	H	0.695819	-0.333889	0.000065
H350	H	1.195819	0.166111	0.500065
O351	O	0.653787	-0.807349	-0.000052
O352	O	1.153787	-0.307349	0.499948
C353	C	0.656118	-0.836880	-0.043013
C354	C	1.156118	-0.336880	0.456987
H355	H	0.631261	-0.818229	-0.073040
H356	H	1.131261	-0.318229	0.426960
H357	H	0.695098	-0.842838	-0.057437
H358	H	1.195098	-0.342838	0.442563
H359	H	0.643882	-0.873452	-0.033301
H360	H	1.143882	-0.373452	0.466699
O361	O	0.472196	0.160240	0.526867
O362	O	0.972196	0.660240	1.026867
C363	C	0.497859	0.189896	0.496675
C364	C	0.997859	0.689896	0.996675
H365	H	0.535824	0.170380	0.488840
H366	H	1.035824	0.670380	0.988840
H367	H	0.477622	0.197695	0.459959
H368	H	0.977622	0.697695	0.959959
H369	H	0.500882	0.225593	0.516809
H370	H	1.000882	0.725593	1.016809
H371	H	0.647846	-0.710950	0.000047
H372	H	1.147846	-0.210950	0.500047
H373	H	0.477317	0.155019	0.469089
H374	H	0.977317	0.655019	0.969089
O375	O	0.439791	-0.021348	-0.000015
O376	O	0.939791	0.478652	0.499985
C377	C	0.469312	-0.023701	-0.042986
C378	C	0.969312	0.476299	0.457014
H379	H	0.471576	0.014645	-0.057321
H380	H	0.971576	0.514645	0.442679
H381	H	0.507341	-0.041987	-0.033318
H382	H	1.007341	0.458013	0.466682
H383	H	0.452893	-0.045662	-0.073066
H384	H	0.952893	0.454338	0.426934
O385	O	-0.175386	-0.027676	0.000053
O386	O	0.324614	0.472324	0.500053
C387	C	-0.203082	-0.066912	0.000069
C388	C	0.296918	0.433088	0.500069
H389	H	-0.240801	-0.054350	-0.015638
H390	H	0.259199	0.445650	0.484362
H391	H	-0.184263	-0.097598	-0.024013
H392	H	0.315737	0.402402	0.475987
H393	H	-0.206578	-0.080516	0.039870
H394	H	0.293422	0.419484	0.539870
H395	H	0.174750	0.187180	0.000029
H396	H	0.674750	0.687180	0.500029
H397	H	0.321291	0.144530	0.000035
H398	H	0.821291	0.644530	0.500035
H399	H	0.510430	0.121952	0.134157
H400	H	1.010430	0.621952	0.634157
O401	O	0.440781	-0.294778	0.000035
O402	O	0.940781	0.205222	0.500035
C403	C	0.401542	-0.322470	0.000013
C404	C	0.901542	0.177530	0.500013
H405	H	0.414098	-0.360191	0.015719
H406	H	0.914098	0.139809	0.515719
H407	H	0.370854	-0.303651	0.024093
H408	H	0.870854	0.196349	0.524093
H409	H	0.387945	-0.325961	-0.039790
H410	H	0.887945	0.174039	0.460210
O411	O	0.472157	0.160286	0.370280
O412	O	0.972157	0.660286	0.870280
C413	C	0.479645	0.208083	0.383054
C414	C	0.979645	0.708083	0.883054
H415	H	0.518344	0.208053	0.397404
H416	H	1.018344	0.708053	0.897404
H417	H	0.473899	0.232386	0.348716
H418	H	0.973899	0.732386	0.848716
H419	H	0.452749	0.222461	0.413370
H420	H	0.952749	0.722461	0.913370
O421	O	0.701819	-0.430187	0.000083
O422	O	1.201819	0.069813	0.500083
C423	C	0.741053	-0.402488	0.000077
C424	C	1.241053	0.097512	0.500077
H425	H	0.728484	-0.364768	0.015778
H426	H	1.228484	0.135232	0.515778
H427	H	0.771731	-0.421302	0.024170
H428	H	1.271731	0.078698	0.524170
H429	H	0.754670	-0.398998	-0.039720
H430	H	1.254670	0.101002	0.460280
H431	H	0.510471	0.121919	0.865958
H432	H	1.010471	0.621919	1.365958
H433	H	0.510433	0.121951	0.228896
H434	H	1.010433	0.621951	0.728896
O435	O	0.340296	-0.022361	0.000120
O436	O	0.840296	0.477639	0.500120
C437	C	0.311512	-0.025296	0.043097
C438	C	0.811512	0.474704	0.543097
H439	H	0.298674	0.012900	0.057416
H440	H	0.798674	0.512900	0.557416
H441	H	0.278637	-0.044317	0.033444
H442	H	0.778637	0.455683	0.533444
H443	H	0.333948	-0.046845	0.073184
H444	H	0.833948	0.453155	0.573184
H445	H	0.630597	0.001843	0.228868
H446	H	1.130597	0.501843	0.728868
O447	O	0.078452	0.193180	0.000012
O448	O	0.578452	0.693180	0.500012
C449	C	0.106150	0.232414	0.000017
C450	C	0.606150	0.732414	0.500017
H451	H	0.143872	0.219846	-0.015684
H452	H	0.643872	0.719846	0.484316
H453	H	0.087338	0.263093	-0.024077
H454	H	0.587338	0.763093	0.475923
H455	H	0.109638	0.246031	0.039813
H456	H	0.609638	0.746031	0.539813
O457	O	0.480962	-0.684024	0.000045
O458	O	0.980962	-0.184024	0.500045
C459	C	0.441727	-0.711721	0.000030
C460	C	0.941727	-0.211721	0.500030
H461	H	0.454289	-0.749441	0.015735
H462	H	0.954289	-0.249441	0.515735
H463	H	0.411041	-0.692904	0.024115
H464	H	0.911041	-0.192904	0.524115
H465	H	0.428123	-0.715213	-0.039770
H466	H	0.928123	-0.215213	0.460230
H467	H	0.663725	-0.031269	0.530995
H468	H	1.163725	0.468731	1.030995
O469	O	0.486205	-0.168206	0.000025
O470	O	0.986205	0.331794	0.500025
C471	C	0.447637	-0.129775	0.000037
C472	C	0.947637	0.370225	0.500037
H473	H	0.460930	-0.095619	-0.015658
H474	H	0.960930	0.404381	0.484342
H475	H	0.416665	-0.140080	-0.024058
H476	H	0.916665	0.359920	0.475942
H477	H	0.434128	-0.122549	0.039835
H478	H	0.934128	0.377451	0.539835
O479	O	0.701235	-0.482094	0.000139
O480	O	1.201235	0.017906	0.500139
C481	C	0.704164	-0.453288	0.043098
C482	C	1.204164	0.046712	0.543098
H483	H	0.678990	-0.465023	0.073127
H484	H	1.178990	0.034977	0.573127
H485	H	0.743155	-0.458104	0.057523
H486	H	1.243155	0.041896	0.557523
H487	H	0.692718	-0.413444	0.033384
H488	H	1.192718	0.086556	0.533384
H489	H	0.446777	-0.391080	0.000011
H490	H	0.946777	0.108920	0.500011
H491	H	0.023514	0.185643	0.000042
H492	H	0.523514	0.685643	0.500042
O493	O	0.700222	-0.581520	-0.000044
O494	O	1.200222	-0.081520	0.499956
C495	C	0.702557	-0.611050	-0.043006
C496	C	1.202557	-0.111050	0.456994
H497	H	0.677703	-0.592398	-0.073036
H498	H	1.177703	-0.092398	0.426964
H499	H	0.741539	-0.617009	-0.057426
H500	H	1.241539	-0.117009	0.442574
H501	H	0.690319	-0.647622	-0.033296
H502	H	1.190319	-0.147622	0.466704
H503	H	0.494146	-0.073812	0.000057
H504	H	0.994146	0.426188	0.500057
H505	H	0.663726	-0.031271	0.625730
H506	H	1.163726	0.468729	1.125730
H507	H	0.663720	-0.031258	0.374345
H508	H	1.163720	0.468742	0.874345
O509	O	0.415670	0.152462	0.000043
O510	O	0.915670	0.652462	0.500043
C511	C	0.377238	0.191029	0.000028
C512	C	0.877238	0.691029	0.500028
H513	H	0.343086	0.177741	0.015738
H514	H	0.843086	0.677741	0.515738
H515	H	0.387546	0.222010	0.024108
H516	H	0.887546	0.722010	0.524108
H517	H	0.370004	0.204522	-0.039773
H518	H	0.870004	0.704522	0.460227
H519	H	0.630595	0.001859	0.134142
H520	H	1.130595	0.501859	0.634142
H521	H	0.663722	-0.031266	0.469068
H522	H	1.163722	0.468734	0.969068
O523	O	0.635850	-0.003426	0.767182
O524	O	1.135850	0.496574	1.267182
C525	C	0.665087	-0.032626	0.801426
C526	C	1.165087	0.467374	1.301426
H527	H	0.645274	-0.033032	0.838651
H528	H	1.145274	0.466968	1.338651
H529	H	0.672751	-0.071283	0.786342
H530	H	1.172751	0.428717	1.286342
H531	H	0.700876	-0.017177	0.806974
H532	H	1.200876	0.482823	1.306974
H533	H	-0.067947	0.184708	0.000046
H534	H	0.432053	0.684708	0.500046
H535	H	0.630630	0.001820	0.865951
H536	H	1.130630	0.501820	1.365951
H537	H	0.510457	0.121917	0.771232
H538	H	1.010457	0.621917	1.271232
H539	H	0.477335	0.155012	0.625747
H540	H	0.977335	0.655012	1.125747
H541	H	0.117558	-0.061861	0.000088
H542	H	0.617558	0.438139	0.500088
H543	H	-0.293777	0.138273	0.000051
H544	H	0.206223	0.638273	0.500051
