data_functionalizedCrystal
_audit_creation_method	'MofGen! by Chris Wilmer'
_symmetry_space_group_name_H-M	'P1'
_symmetry_Int_Tables_number	1
_symmetry_cell_setting	triclinic
loop_
_symmetry_equiv_pos_as_xyz
  x,y,z
_cell_length_a	19.077212
_cell_length_b	18.101397
_cell_length_c	19.076919
_cell_angle_alpha	92.268541
_cell_angle_beta	89.885058
_cell_angle_gamma	92.312452
loop_
_atom_site_label
_atom_site_type_symbol
_atom_site_fract_x
_atom_site_fract_y
_atom_site_fract_z
Zn1	Zn	1.058311	-0.268841	-0.440571
Zn2	Zn	1.391644	0.064493	-0.107237
Zn3	Zn	1.724977	0.397826	0.226096
Zn4	Zn	1.062959	-0.387521	-0.323058
Zn5	Zn	1.396292	-0.054188	0.010275
Zn6	Zn	1.729625	0.279146	0.343608
Zn7	Zn	0.945526	-0.268451	-0.318346
Zn8	Zn	1.278859	0.064882	0.014987
Zn9	Zn	1.612193	0.398216	0.348320
Zn10	Zn	0.940779	-0.397399	-0.435791
Zn11	Zn	1.274112	-0.064066	-0.102458
Zn12	Zn	1.607445	0.269267	0.230876
O13	O	1.001893	-0.330553	-0.379441
O14	O	1.335227	0.002780	-0.046108
O15	O	1.668560	0.336114	0.287225
O16	O	1.157261	-0.280613	-0.428955
O17	O	1.490594	0.052720	-0.095621
O18	O	1.823927	0.386054	0.237712
O19	O	1.051313	-0.367429	-0.224103
O20	O	1.384646	-0.034096	0.109231
O21	O	1.717980	0.299238	0.442564
O22	O	0.960529	-0.164869	-0.334588
O23	O	1.293862	0.168464	-0.001255
O24	O	1.627195	0.501798	0.332079
O25	O	1.160676	-0.367807	-0.342619
O26	O	1.494009	-0.034474	-0.009285
O27	O	1.827342	0.298860	0.324048
O28	O	1.043391	-0.165156	-0.424386
O29	O	1.376724	0.168178	-0.091052
O30	O	1.710058	0.501511	0.242281
O31	O	0.965036	-0.279949	-0.220641
O32	O	1.298369	0.053385	0.112693
O33	O	1.631702	0.386718	0.446026
O34	O	0.846563	-0.289527	-0.329953
O35	O	1.179896	0.043806	0.003380
O36	O	1.513229	0.377140	0.336713
O37	O	0.952437	-0.384643	-0.534755
O38	O	1.285771	-0.051310	-0.201422
O39	O	1.619104	0.282024	0.131911
O40	O	0.843075	-0.384265	-0.416239
O41	O	1.176408	-0.050932	-0.082906
O42	O	1.509741	0.282402	0.250427
O43	O	1.038788	-0.290192	-0.538267
O44	O	1.372121	0.043142	-0.204934
O45	O	1.705454	0.376475	0.128400
O46	O	1.046710	-0.492465	-0.337984
O47	O	1.380043	-0.159132	-0.004651
O48	O	1.713376	0.174202	0.328683
O49	O	0.956944	-0.499722	-0.420808
O50	O	1.290278	-0.166389	-0.087475
O51	O	1.623611	0.166944	0.245858
C52	C	0.819322	-0.337926	-0.372067
C53	C	1.152655	-0.004593	-0.038733
C54	C	1.485989	0.328741	0.294600
C55	C	0.741216	-0.341099	-0.368928
C56	C	1.074550	-0.007766	-0.035595
C57	C	1.407883	0.325568	0.297738
C58	C	0.301754	-0.363825	-0.346453
C59	C	0.635088	-0.030492	-0.013119
C60	C	0.968421	0.302842	0.320214
C61	C	0.375143	-0.360839	-0.349396
C62	C	0.708476	-0.027506	-0.016063
C63	C	1.041810	0.305827	0.317271
C64	C	0.410059	-0.314030	-0.395891
C65	C	0.743392	0.019303	-0.062558
C66	C	1.076725	0.352636	0.270775
C67	C	0.371582	-0.270198	-0.439441
C68	C	0.704915	0.063135	-0.106108
C69	C	1.038248	0.396469	0.227225
C70	C	0.298194	-0.273180	-0.436494
C71	C	0.631528	0.060153	-0.103160
C72	C	0.964861	0.393487	0.230173
C73	C	0.629352	-0.300249	-0.409531
C74	C	0.962686	0.033085	-0.076198
C75	C	1.296019	0.366418	0.257136
C76	C	0.702745	-0.297272	-0.412476
C77	C	1.036078	0.036062	-0.079143
C78	C	1.369411	0.369395	0.254190
C79	C	0.706301	-0.387912	-0.322430
C80	C	1.039634	-0.054579	0.010903
C81	C	1.372968	0.278754	0.344237
C82	C	0.632912	-0.390894	-0.319490
C83	C	0.966245	-0.057560	0.013844
C84	C	1.299579	0.275773	0.347177
C85	C	0.594442	-0.347059	-0.363037
C86	C	0.927775	-0.013725	-0.029703
C87	C	1.261108	0.319608	0.303630
N88	N	0.485074	-0.310979	-0.398903
N89	N	0.818407	0.022354	-0.065569
N90	N	1.151740	0.355687	0.267764
N91	N	0.519428	-0.350106	-0.360021
N92	N	0.852762	-0.016773	-0.026688
N93	N	1.186095	0.316561	0.306645
C94	C	1.001835	-0.522965	-0.379405
C95	C	1.335168	-0.189631	-0.046072
C96	C	1.668501	0.143702	0.287262
C97	C	1.001873	-0.605277	-0.379415
C98	C	1.335206	-0.271944	-0.046082
C99	C	1.668540	0.061389	0.287251
C100	C	1.001960	-0.904368	-0.379483
C101	C	1.335293	-0.571034	-0.046150
C102	C	1.668627	-0.237701	0.287183
C103	C	1.058292	-0.868445	-0.327221
C104	C	1.391626	-0.535112	0.006112
C105	C	1.724959	-0.201778	0.339446
C106	C	1.058474	-0.782825	-0.327369
C107	C	1.391807	-0.449492	0.005964
C108	C	1.725141	-0.116158	0.339297
C109	C	1.001917	-0.755985	-0.379449
C110	C	1.335250	-0.422652	-0.046116
C111	C	1.668584	-0.089319	0.287218
C112	C	1.019013	-0.789438	-0.454324
C113	C	1.352346	-0.456105	-0.120990
C114	C	1.685679	-0.122772	0.212343
C115	C	1.019444	-0.875053	-0.454044
C116	C	1.352777	-0.541720	-0.120711
C117	C	1.686110	-0.208387	0.212623
C118	C	0.928362	-0.875051	-0.357506
C119	C	1.261695	-0.541717	-0.024173
C120	C	1.595028	-0.208384	0.309161
C121	C	0.928795	-0.789314	-0.355868
C122	C	1.262129	-0.455980	-0.022534
C123	C	1.595462	-0.122647	0.310799
C124	C	1.001891	-0.672126	-0.379434
C125	C	1.335224	-0.338793	-0.046101
C126	C	1.668558	-0.005460	0.287232
C127	C	1.001987	-0.988227	-0.379503
C128	C	1.335321	-0.654893	-0.046170
C129	C	1.668654	-0.321560	0.287164
C130	C	1.185178	-0.323152	-0.386845
C131	C	1.518511	0.010182	-0.053512
C132	C	1.851844	0.343515	0.279821
C133	C	1.263283	-0.319998	-0.390001
C134	C	1.596616	0.013336	-0.056667
C135	C	1.929949	0.346669	0.276666
C136	C	0.994564	-0.338563	-0.562720
C137	C	1.327898	-0.005229	-0.229387
C138	C	1.661231	0.328104	0.103947
C139	C	0.991441	-0.341976	-0.640823
C140	C	1.324775	-0.008643	-0.307489
C141	C	1.658108	0.324691	0.025844
C142	C	1.001971	-0.137390	-0.379494
C143	C	1.335304	0.195943	-0.046161
C144	C	1.668638	0.529277	0.287172
C145	C	1.002004	-0.055075	-0.379517
C146	C	1.335337	0.278258	-0.046183
C147	C	1.668671	0.611591	0.287150
C148	C	1.034930	-0.294406	-0.679345
C149	C	1.368263	0.038927	-0.346011
C150	C	1.701596	0.372261	-0.012678
C151	C	1.031986	-0.297610	-0.752730
C152	C	1.365320	0.035723	-0.419396
C153	C	1.698653	0.369056	-0.086063
C154	C	0.985558	-0.348389	-0.787592
C155	C	1.318891	-0.015056	-0.454258
C156	C	1.652225	0.318277	-0.120925
C157	C	0.942065	-0.395961	-0.749064
C158	C	1.275398	-0.062628	-0.415731
C159	C	1.608731	0.270705	-0.082398
C160	C	0.945005	-0.392753	-0.675680
C161	C	1.278338	-0.059419	-0.342347
C162	C	1.611672	0.273914	-0.009014
C163	C	0.971941	-0.363255	-1.006870
C164	C	1.305274	-0.029922	-0.673536
C165	C	1.638607	0.303411	-0.340203
C166	C	0.969005	-0.366462	-1.080259
C167	C	1.302339	-0.033129	-0.746926
C168	C	1.635672	0.300205	-0.413592
C169	C	1.058926	-0.268110	-1.083919
C170	C	1.392260	0.065223	-0.750586
C171	C	1.725593	0.398557	-0.417253
C172	C	1.061865	-0.264909	-1.010534
C173	C	1.395199	0.068425	-0.677201
C174	C	1.728532	0.401758	-0.343867
C175	C	1.018370	-0.312478	-0.972013
C176	C	1.351703	0.020855	-0.638680
C177	C	1.685036	0.354189	-0.305346
N178	N	0.982550	-0.351668	-0.862603
N179	N	1.315883	-0.018334	-0.529270
N180	N	1.649217	0.314999	-0.195936
N181	N	1.021375	-0.309196	-0.897003
N182	N	1.354708	0.024138	-0.563669
N183	N	1.688041	0.357471	-0.230336
C184	C	1.009234	-0.322519	-0.196878
C185	C	1.342568	0.010814	0.136456
C186	C	1.675901	0.344147	0.469789
C187	C	1.012494	-0.318892	-0.118781
C188	C	1.345827	0.014441	0.214552
C189	C	1.679160	0.347775	0.547886
H190	H	1.048124	-0.759956	-0.271945
H191	H	1.381457	-0.426623	0.061389
H192	H	1.714790	-0.093289	0.394722
N193	N	1.111943	-0.210129	-0.972951
N194	N	1.445277	0.123204	-0.639617
N195	N	1.778610	0.456537	-0.306284
H196	H	1.100532	-0.158219	-0.985303
H197	H	1.433866	0.175114	-0.651970
H198	H	1.767199	0.508447	-0.318637
H199	H	1.107194	-0.215368	-0.920626
H200	H	1.440528	0.117965	-0.587293
H201	H	1.773861	0.451299	-0.253960
H202	H	1.112575	-0.888242	-0.341842
H203	H	1.445908	-0.554909	-0.008509
H204	H	1.779242	-0.221576	0.324824
H205	H	1.072739	-0.253058	-0.650966
H206	H	1.406072	0.080275	-0.317632
H207	H	1.739406	0.413608	0.015701
N208	N	0.256704	-0.225908	-0.483468
N209	N	0.590037	0.107425	-0.150135
N210	N	0.923370	0.440758	0.183198
H211	H	0.224955	-0.258715	-0.514755
H212	H	0.558288	0.074619	-0.181422
H213	H	0.891622	0.407952	0.151912
H214	H	0.227439	-0.191537	-0.453702
H215	H	0.560772	0.141796	-0.120369
H216	H	0.894106	0.475130	0.212965
N217	N	1.105836	-0.216804	-1.125466
N218	N	1.439169	0.116529	-0.792133
N219	N	1.772503	0.449862	-0.458799
H220	H	1.096930	-0.226539	-1.177244
H221	H	1.430263	0.106794	-0.843911
H222	H	1.763597	0.440127	-0.510578
H223	H	1.095433	-0.163795	-1.112210
H224	H	1.428766	0.169538	-0.778877
H225	H	1.762099	0.502872	-0.445543
H226	H	0.400016	-0.232082	-0.477296
H227	H	0.733349	0.101252	-0.143963
H228	H	1.066682	0.434585	0.189371
N229	N	0.587877	-0.252959	-0.456496
N230	N	0.921210	0.080375	-0.123163
N231	N	1.254544	0.413708	0.210171
H232	H	0.598651	-0.266214	-0.507196
H233	H	0.931985	0.067119	-0.173862
H234	H	1.265318	0.400452	0.159471
H235	H	0.536101	-0.261954	-0.447520
H236	H	0.869434	0.071379	-0.114187
H237	H	1.202768	0.404712	0.219147
H238	H	1.113052	-0.760605	-0.342147
H239	H	1.446385	-0.427272	-0.008814
H240	H	1.779719	-0.093938	0.324519
N241	N	0.918926	-0.421222	-1.117877
N242	N	1.252260	-0.087888	-0.784544
N243	N	1.585593	0.245445	-0.451210
H244	H	0.930318	-0.473142	-1.105540
H245	H	1.263652	-0.139808	-0.772207
H246	H	1.596985	0.193525	-0.438873
H247	H	0.869253	-0.411119	-1.103073
H248	H	1.202587	-0.077786	-0.769740
H249	H	1.535920	0.255548	-0.436406
N250	N	1.089340	-0.759036	-0.478848
N251	N	1.422674	-0.425703	-0.145515
N252	N	1.756007	-0.092369	0.187819
H253	H	1.099872	-0.780893	-0.527072
H254	H	1.433206	-0.447560	-0.193739
H255	H	1.766539	-0.114227	0.139595
H256	H	1.088192	-0.703425	-0.480825
H257	H	1.421525	-0.370091	-0.147491
H258	H	1.754858	-0.036758	0.185842
N259	N	1.078878	-0.246289	-0.794279
N260	N	1.412211	0.087044	-0.460945
N261	N	1.745544	0.420377	-0.127612
H262	H	1.108734	-0.213633	-0.761059
H263	H	1.442068	0.119700	-0.427725
H264	H	1.775401	0.453033	-0.094392
H265	H	1.110167	-0.276440	-0.826043
H266	H	1.443500	0.056893	-0.492710
H267	H	1.776833	0.390227	-0.159376
H268	H	0.936534	-0.402000	-0.975515
H269	H	1.269867	-0.068667	-0.642182
H270	H	1.603200	0.264666	-0.308848
H271	H	0.915851	-0.767270	-0.300751
H272	H	1.249184	-0.433937	0.032582
H273	H	1.582517	-0.100603	0.365915
H274	H	1.048100	-0.887167	-0.271638
H275	H	1.381433	-0.553834	0.061696
H276	H	1.714767	-0.220500	0.395029
N277	N	0.870520	-0.765394	-0.402262
N278	N	1.203853	-0.432060	-0.068929
N279	N	1.537186	-0.098727	0.264405
H280	H	0.890784	-0.732471	-0.439393
H281	H	1.224117	-0.399137	-0.106060
H282	H	1.557451	-0.065804	0.227273
H283	H	0.846164	-0.810485	-0.425488
H284	H	1.179498	-0.477152	-0.092155
H285	H	1.512831	-0.143818	0.241178
H286	H	0.904259	-0.437304	-0.777455
H287	H	1.237593	-0.103970	-0.444121
H288	H	1.570926	0.229363	-0.110788
H289	H	0.909585	-0.431482	-0.644316
H290	H	1.242918	-0.098149	-0.310983
H291	H	1.576252	0.235185	0.022351
H292	H	0.912233	-0.895116	-0.303698
H293	H	1.245567	-0.561782	0.029635
H294	H	1.578900	-0.228449	0.362969
N295	N	1.090590	-0.899466	-0.478225
N296	N	1.423923	-0.566133	-0.144892
N297	N	1.757257	-0.232800	0.188441
H298	H	1.099958	-0.882300	-0.527224
H299	H	1.433291	-0.548967	-0.193891
H300	H	1.766625	-0.215633	0.139443
H301	H	1.127850	-0.877231	-0.445320
H302	H	1.461184	-0.543897	-0.111987
H303	H	1.794517	-0.210564	0.221346
N304	N	0.264098	-0.414317	-0.296307
N305	N	0.597431	-0.080983	0.037026
N306	N	0.930765	0.252350	0.370359
H307	H	0.299609	-0.441626	-0.269166
H308	H	0.632942	-0.108293	0.064167
H309	H	0.966275	0.225040	0.397501
H310	H	0.234945	-0.383935	-0.262620
H311	H	0.568278	-0.050602	0.070713
H312	H	0.901612	0.282732	0.404047
H313	H	0.604489	-0.429010	-0.281627
H314	H	0.937822	-0.095676	0.051706
H315	H	1.271156	0.237657	0.385039
N316	N	0.416639	-0.408105	-0.302422
N317	N	0.749972	-0.074772	0.030911
N318	N	1.083305	0.258562	0.364245
H319	H	0.383384	-0.438213	-0.272522
H320	H	0.716717	-0.104879	0.060811
H321	H	1.050051	0.228454	0.394144
H322	H	0.445950	-0.442434	-0.332184
H323	H	0.779284	-0.109101	0.001150
H324	H	1.112617	0.224233	0.334483
N325	N	0.967246	-0.906982	-0.507596
N326	N	1.300579	-0.573649	-0.174263
N327	N	1.633912	-0.240316	0.159071
H328	H	0.944060	-0.865430	-0.531282
H329	H	1.277394	-0.532097	-0.197948
H330	H	1.610727	-0.198764	0.135385
H331	H	0.992370	-0.938340	-0.543859
H332	H	1.325704	-0.605006	-0.210525
H333	H	1.659037	-0.271673	0.122808
H334	H	0.737631	-0.423600	-0.286976
H335	H	1.070965	-0.090267	0.046357
H336	H	1.404298	0.243067	0.379691
H337	H	0.731171	-0.259149	-0.450338
H338	H	1.064504	0.074185	-0.117004
H339	H	1.397837	0.407518	0.216329
H340	H	0.979108	-0.772458	-0.494439
H341	H	1.312442	-0.439125	-0.161106
H342	H	1.645775	-0.105792	0.172228
H343	H	0.886426	-0.898693	-0.395535
H344	H	1.219760	-0.565360	-0.062201
H345	H	1.553093	-0.232027	0.271132
