data_functionalizedCrystal
_audit_creation_method	'MofGen! by Chris Wilmer'
_symmetry_space_group_name_H-M	'P1'
_symmetry_Int_Tables_number	1
_symmetry_cell_setting	triclinic
loop_
_symmetry_equiv_pos_as_xyz
  x,y,z
_cell_length_a	14.971486
_cell_length_b	16.992695
_cell_length_c	14.048226
_cell_angle_alpha	89.993436
_cell_angle_beta	89.998499
_cell_angle_gamma	87.141176
loop_
_atom_site_label
_atom_site_type_symbol
_atom_site_fract_x
_atom_site_fract_y
_atom_site_fract_z
O1	O	1.194127	0.102190	-0.079052
O2	O	1.694127	0.602190	0.420948
O3	O	0.934587	0.114427	-0.079078
O4	O	1.434587	0.614427	0.420922
O5	O	1.063316	-0.005835	-0.079057
O6	O	1.563316	0.494165	0.420943
O7	O	1.065397	0.222452	-0.079072
O8	O	1.565397	0.722452	0.420928
O9	O	1.063299	-0.005842	0.079264
O10	O	1.563299	0.494158	0.579264
O11	O	0.934570	0.114420	0.079244
O12	O	1.434570	0.614420	0.579244
O13	O	1.194110	0.102183	0.079270
O14	O	1.694110	0.602183	0.579270
Zn15	Zn	1.064337	0.108300	0.104394
Zn16	Zn	1.564337	0.608300	0.604394
Zn17	Zn	1.064359	0.108310	-0.104201
Zn18	Zn	1.564359	0.608310	0.395799
O19	O	1.065380	0.222445	0.079249
O20	O	1.565380	0.722445	0.579249
C21	C	0.901215	0.113876	0.000080
C22	C	1.401215	0.613876	0.500080
C23	C	0.801803	0.112236	0.000070
C24	C	1.301803	0.612236	0.500070
C25	C	0.749541	0.182887	0.000067
C26	C	1.249541	0.682887	0.500067
C27	C	0.656133	0.181341	0.000081
C28	C	1.156133	0.681341	0.500081
C29	C	0.614988	0.109144	0.000092
C30	C	1.114988	0.609144	0.500092
C31	C	0.667257	0.038488	0.000098
C32	C	1.167257	0.538488	0.500098
C33	C	0.760663	0.040034	0.000091
C34	C	1.260663	0.540034	0.500091
C35	C	0.472568	0.035269	0.000111
C36	C	0.972568	0.535269	0.500111
C37	C	0.379155	0.033723	0.000117
C38	C	0.879155	0.533723	0.500117
C39	C	0.368038	0.176577	0.000102
C40	C	0.868038	0.676577	0.500102
C41	C	0.461445	0.178123	0.000094
C42	C	0.961445	0.678123	0.500094
C43	C	0.513707	0.107466	0.000099
C44	C	1.013707	0.607466	0.500099
C45	C	1.060631	-0.035054	0.000103
C46	C	1.560631	0.464946	0.500103
C47	C	1.052644	-0.122105	0.000102
C48	C	1.552644	0.377895	0.500102
C49	C	1.129708	-0.172274	0.000111
C50	C	1.629708	0.327726	0.500111
C51	C	1.122198	-0.254067	0.000101
C52	C	1.622198	0.245933	0.500101
C53	C	1.037623	-0.285691	0.000089
C54	C	1.537623	0.214309	0.500089
C55	C	0.960553	-0.235517	0.000078
C56	C	1.460553	0.264483	0.500078
C57	C	0.968064	-0.153724	0.000081
C58	C	1.468064	0.346276	0.500081
C59	C	1.006493	-0.529318	0.000073
C60	C	1.506493	-0.029318	0.500073
C61	C	0.998988	-0.611117	0.000073
C62	C	1.498988	-0.111117	0.500073
C63	C	1.160634	-0.629662	0.000094
C64	C	1.660634	-0.129662	0.500094
C65	C	1.168138	-0.547867	0.000103
C66	C	1.668138	-0.047867	0.500103
C67	C	1.091068	-0.497700	0.000087
C68	C	1.591068	0.002300	0.500087
N69	N	1.029945	-0.369297	0.000082
N70	N	1.529945	0.130703	0.500082
N71	N	1.098747	-0.414095	0.000087
N72	N	1.598747	0.085905	0.500087
C73	C	1.227482	0.102733	0.000110
C74	C	1.727482	0.602733	0.500110
C75	C	1.326894	0.104373	0.000114
C76	C	1.826894	0.604373	0.500114
C77	C	1.068066	0.251664	0.000087
C78	C	1.568066	0.751664	0.500087
C79	C	1.076053	0.338715	0.000082
C80	C	1.576053	0.838715	0.500082
N81	N	1.064328	0.108293	0.246754
N82	N	1.564328	0.608293	0.746754
N83	N	1.064375	0.108310	-0.246562
N84	N	1.564375	0.608310	0.253438
C85	C	1.121350	0.055063	0.296581
C86	C	1.621350	0.555063	0.796581
C87	C	1.121356	0.055063	0.396239
C88	C	1.621356	0.555063	0.896239
C89	C	1.064344	0.108297	0.446068
C90	C	1.564344	0.608297	0.946068
C91	C	1.007316	0.161529	0.396234
C92	C	1.507316	0.661529	0.896234
C93	C	1.007306	0.161526	0.296578
C94	C	1.507306	0.661526	0.796578
C95	C	1.007342	0.161535	0.603948
C96	C	1.507342	0.661535	1.103948
C97	C	1.007353	0.161540	0.703611
C98	C	1.507353	0.661540	1.203611
C99	C	1.121393	0.055072	0.703609
C100	C	1.621393	0.555072	1.203609
C101	C	1.121383	0.055068	0.603953
C102	C	1.621383	0.555068	1.103953
C103	C	1.064355	0.108302	0.554126
C104	C	1.564355	0.608302	1.054126
H105	H	0.515117	-0.022267	0.000116
H106	H	1.015117	0.477733	0.500116
C107	C	0.621994	-0.040930	0.000112
C108	C	1.121994	0.459070	0.500112
N109	N	0.587903	-0.100750	0.000118
N110	N	1.087903	0.399250	0.500118
C111	C	0.944631	0.220096	0.758420
C112	C	1.444631	0.720096	1.258420
N113	N	0.897386	0.264200	0.799703
N114	N	1.397386	0.764200	1.299703
C115	C	1.261177	-0.513088	0.000117
C116	C	1.761177	-0.013088	0.500117
N117	N	1.331256	-0.486892	0.000131
N118	N	1.831256	0.013108	0.500131
H119	H	0.345658	-0.025067	0.000127
H120	H	0.845658	0.474933	0.500127
C121	C	0.506702	0.257544	0.000086
C122	C	1.006702	0.757544	0.500086
N123	N	0.540790	0.317365	0.000086
N124	N	1.040790	0.817365	0.500086
H125	H	0.960891	0.204871	0.436810
H126	H	1.460891	0.704871	0.936810
H127	H	1.167826	0.011728	0.744184
H128	H	1.667826	0.511728	1.244184
C129	C	1.222748	-0.137496	0.000124
C130	C	1.722748	0.362504	0.500124
N131	N	1.292829	-0.111304	0.000129
N132	N	1.792829	0.388696	0.500129
H133	H	0.905310	-0.112878	0.000073
H134	H	1.405310	0.387122	0.500073
H135	H	0.891690	-0.261271	0.000062
H136	H	1.391690	0.238729	0.500062
H137	H	0.943737	-0.488481	0.000060
H138	H	1.443737	0.011519	0.500060
H139	H	0.325482	0.234108	0.000103
H140	H	0.825482	0.734108	0.500103
H141	H	0.803213	-0.017497	0.000093
H142	H	1.303213	0.482503	0.500093
C143	C	1.184063	-0.003514	0.451044
C144	C	1.684063	0.496486	0.951044
N145	N	1.231287	-0.047643	0.492323
N146	N	1.731287	0.452357	0.992323
H147	H	1.223380	-0.670517	0.000106
H148	H	1.723380	-0.170517	0.500106
C149	C	0.944585	0.220089	0.241769
C150	C	1.444585	0.720089	0.741769
N151	N	0.897341	0.264202	0.200488
N152	N	1.397341	0.764202	0.700488
C153	C	0.944598	0.220087	0.549141
C154	C	1.444598	0.720087	1.049141
N155	N	0.897341	0.264188	0.507859
N156	N	1.397341	0.764188	1.007859
H157	H	1.167780	0.011717	0.256017
H158	H	1.667780	0.511717	0.756017
H159	H	0.783034	0.241679	0.000057
H160	H	1.283034	0.741679	0.500057
H161	H	1.184952	-0.294912	0.000110
H162	H	1.684952	0.205088	0.500110
H163	H	0.930114	-0.636861	0.000079
H164	H	1.430114	-0.136861	0.500079
H165	H	0.613586	0.238873	0.000077
H166	H	1.113586	0.738873	0.500077
H167	H	1.167811	0.011725	0.563383
H168	H	1.667811	0.511725	1.063383
