data_functionalizedCrystal
_audit_creation_method	'MofGen! by Chris Wilmer'
_symmetry_space_group_name_H-M	'P1'
_symmetry_Int_Tables_number	1
_symmetry_cell_setting	triclinic
loop_
_symmetry_equiv_pos_as_xyz
  x,y,z
_cell_length_a	14.971482
_cell_length_b	9.065218
_cell_length_c	14.048226
_cell_angle_alpha	90.013832
_cell_angle_beta	89.994098
_cell_angle_gamma	95.685720
loop_
_atom_site_label
_atom_site_type_symbol
_atom_site_fract_x
_atom_site_fract_y
_atom_site_fract_z
O1	O	1.188382	-0.192235	-0.079164
O2	O	1.688382	0.307765	0.420836
O3	O	0.928153	-0.215264	-0.079171
O4	O	1.428153	0.284736	0.420829
O5	O	1.063646	0.011002	-0.079143
O6	O	1.563646	0.511002	0.420857
O7	O	1.052889	-0.418501	-0.079192
O8	O	1.552889	0.081499	0.420808
O9	O	1.063630	0.011015	0.079178
O10	O	1.563630	0.511015	0.579178
O11	O	0.928136	-0.215251	0.079150
O12	O	1.428136	0.284749	0.579150
O13	O	1.188365	-0.192222	0.079157
O14	O	1.688365	0.307778	0.579157
Zn15	Zn	1.058248	-0.203734	0.104291
Zn16	Zn	1.558248	0.296266	0.604291
Zn17	Zn	1.058270	-0.203752	-0.104305
Zn18	Zn	1.558270	0.296248	0.395695
O19	O	1.052872	-0.418488	0.079129
O20	O	1.552872	0.081512	0.579129
C21	C	0.894812	-0.214229	-0.000011
C22	C	1.394812	0.285771	0.499989
C23	C	0.795492	-0.211145	-0.000012
C24	C	1.295492	0.288855	0.499988
C25	C	0.748827	-0.209686	0.086290
C26	C	1.248827	0.290314	0.586290
C27	C	0.655507	-0.206765	0.086291
C28	C	1.155507	0.293235	0.586291
C29	C	0.608852	-0.205314	-0.000010
C30	C	1.108852	0.294686	0.499990
C31	C	0.655524	-0.206770	-0.086319
C32	C	1.155524	0.293230	0.413681
C33	C	0.748843	-0.209680	-0.086320
C34	C	1.248843	0.290320	0.413680
C35	C	0.461017	-0.200708	-0.086312
C36	C	0.961017	0.299292	0.413688
C37	C	0.367691	-0.197800	-0.086312
C38	C	0.867691	0.302200	0.413688
C39	C	0.367681	-0.197793	0.086299
C40	C	0.867681	0.302207	0.586299
C41	C	0.461000	-0.200703	0.086298
C42	C	0.961000	0.299297	0.586298
C43	C	0.507665	-0.202161	-0.000011
C44	C	1.007665	0.297839	0.499989
C45	C	1.062604	0.065974	0.000022
C46	C	1.562604	0.565974	0.500022
C47	C	1.059513	0.229754	0.000034
C48	C	1.559513	0.729754	0.500034
C49	C	1.221706	-0.193257	-0.000005
C50	C	1.721706	0.306743	0.499995
C51	C	1.321026	-0.196341	-0.000010
C52	C	1.821026	0.303659	0.499990
N53	N	1.058240	-0.203721	0.246651
N54	N	1.558240	0.296279	0.746651
C55	C	1.053914	0.526540	-0.000012
C56	C	1.553914	1.026540	0.499988
C57	C	1.057005	0.362760	0.000048
C58	C	1.557005	0.862760	0.500048
N59	N	1.058285	-0.203753	-0.246665
N60	N	1.558285	0.296247	0.253335
C61	C	1.118256	-0.103572	0.296482
C62	C	1.618256	0.396428	0.796482
C63	C	1.118262	-0.103571	0.396139
C64	C	1.618262	0.396429	0.896139
C65	C	1.058255	-0.203728	0.445965
C66	C	1.558255	0.296272	0.945965
C67	C	0.998233	-0.303882	0.396127
C68	C	1.498233	0.196118	0.896127
C69	C	0.998223	-0.303874	0.296472
C70	C	1.498223	0.196126	0.796472
C71	C	0.998259	-0.303893	0.603842
C72	C	1.498259	0.196107	1.103842
C73	C	0.998270	-0.303902	0.703504
C74	C	1.498270	0.196098	1.203504
C75	C	1.118297	-0.103589	0.703509
C76	C	1.618297	0.396411	1.203509
C77	C	1.118287	-0.103582	0.603853
C78	C	1.618287	0.396418	1.103853
C79	C	1.058266	-0.203738	0.554023
C80	C	1.558266	0.296262	1.054023
H81	H	0.786806	-0.210879	0.156567
H82	H	1.286806	0.289121	0.656567
Br83	Br	0.524316	-0.202694	0.203423
Br84	Br	1.024316	0.297306	0.703423
H85	H	0.617531	-0.205578	-0.156588
H86	H	1.117531	0.294422	0.343412
Br87	Br	1.199757	0.032328	0.771139
Br88	Br	1.699757	0.532328	1.271139
Br89	Br	0.916764	-0.439788	0.228844
Br90	Br	1.416764	0.060212	0.728844
Br91	Br	0.916795	-0.439815	0.536218
Br92	Br	1.416795	0.060185	1.036218
H93	H	0.329707	-0.196620	-0.156587
H94	H	0.829707	0.303380	0.343413
H95	H	0.949405	-0.385459	0.744067
H96	H	1.449405	0.114541	1.244067
H97	H	0.499008	-0.201895	-0.156595
H98	H	0.999008	0.298105	0.343405
Br99	Br	0.812176	-0.211647	-0.203449
Br100	Br	1.312176	0.288353	0.296551
H101	H	0.329682	-0.196606	0.156575
H102	H	0.829682	0.303394	0.656575
Br103	Br	1.199732	0.032331	0.536230
Br104	Br	1.699732	0.532331	1.036230
H105	H	0.617519	-0.205552	0.156567
H106	H	1.117519	0.294448	0.656567
Br107	Br	0.916787	-0.439802	0.463744
Br108	Br	1.416787	0.060198	0.963744
Br109	Br	1.199704	0.032353	0.228872
Br110	Br	1.699704	0.532353	0.728872
H111	H	1.167130	-0.022021	0.436711
H112	H	1.667130	0.477979	0.936711
