data_functionalizedCrystal
_audit_creation_method	'MofGen! by Chris Wilmer'
_symmetry_space_group_name_H-M	'P1'
_symmetry_Int_Tables_number	1
_symmetry_cell_setting	triclinic
loop_
_symmetry_equiv_pos_as_xyz
  x,y,z
_cell_length_a	16.625548
_cell_length_b	12.594516
_cell_length_c	16.625539
_cell_angle_alpha	89.974997
_cell_angle_beta	89.979432
_cell_angle_gamma	90.012884
loop_
_atom_site_label
_atom_site_type_symbol
_atom_site_fract_x
_atom_site_fract_y
_atom_site_fract_z
Zn1	Zn	1.232740	-0.423710	-0.455928
Zn2	Zn	1.232668	-0.601711	-0.321103
Zn3	Zn	1.097902	-0.423750	-0.321108
Zn4	Zn	1.097897	-0.601650	-0.455893
O5	O	1.165302	-0.512705	-0.388508
O6	O	1.345563	-0.447331	-0.438055
O7	O	1.214763	-0.578147	-0.208271
O8	O	1.115820	-0.274799	-0.339010
O9	O	1.345510	-0.578107	-0.339000
O10	O	1.214885	-0.274769	-0.438061
O11	O	1.115751	-0.447400	-0.208275
O12	O	0.985069	-0.447341	-0.338975
O13	O	1.115813	-0.578003	-0.568730
O14	O	0.985066	-0.578043	-0.438001
O15	O	1.214881	-0.447271	-0.568756
O16	O	1.214759	-0.750649	-0.338966
O17	O	1.115743	-0.750604	-0.437996
C18	C	0.955811	-0.512690	-0.388485
C19	C	0.866190	-0.512709	-0.388495
C20	C	1.165265	-0.789246	-0.388494
C21	C	1.165322	-0.907552	-0.388515
C22	C	0.538014	-0.512716	-0.388529
C23	C	0.629323	-0.512711	-0.388517
C24	C	0.702099	-0.512713	-0.388512
C25	C	0.793414	-0.512707	-0.388501
C26	C	1.219240	-0.976791	-0.334710
C27	C	1.238943	-1.047491	-0.408305
C28	C	1.145720	-1.047650	-0.314967
C29	C	1.185064	-0.976694	-0.462148
C30	C	1.091806	-0.976846	-0.368761
C31	C	1.111482	-1.047515	-0.442406
C32	C	1.375611	-0.512721	-0.388531
C33	C	1.465232	-0.512728	-0.388541
C34	C	1.165354	-0.512626	-0.598817
C35	C	1.165377	-0.512592	-0.688438
C36	C	1.165361	-0.235085	-0.388540
C37	C	1.165387	-0.116779	-0.388553
C38	C	1.165414	-0.512473	-1.016614
C39	C	1.165401	-0.512510	-0.925305
C40	C	1.165396	-0.512534	-0.852529
C41	C	1.165382	-0.512568	-0.761215
C42	C	1.165296	-0.512708	-0.179017
C43	C	1.165430	-0.512441	-0.089396
H44	H	1.301142	-1.078526	-0.425034
H45	H	1.129113	-1.078816	-0.252753
H46	H	1.201609	-0.945660	-0.524416
C47	C	1.050616	-1.088734	-0.503034
C48	C	0.992656	-1.149951	-0.463201
C49	C	0.936572	-1.187930	-0.519025
H50	H	1.077286	-1.131214	-0.541980
H51	H	1.025207	-1.030483	-0.528970
H52	H	1.018062	-1.208194	-0.437279
H53	H	0.965966	-1.107494	-0.424259
H54	H	0.911163	-1.129679	-0.544960
H55	H	0.963249	-1.230405	-0.557968
H56	H	0.897236	-1.229461	-0.492005
C57	C	1.280169	-0.935430	-0.274200
C58	C	1.357065	-0.971204	-0.295284
C59	C	1.413216	-0.933111	-0.239572
H60	H	1.266842	-0.960742	-0.222041
H61	H	1.279434	-0.860002	-0.274277
H62	H	1.357799	-1.046616	-0.295199
H63	H	1.370418	-0.945895	-0.347433
H64	H	1.412480	-0.857683	-0.239648
H65	H	1.399881	-0.958425	-0.187416
H66	H	1.465397	-0.957369	-0.253873
C67	C	1.008924	-0.935482	-0.346262
C68	C	0.988675	-0.971351	-0.269145
C69	C	0.912335	-0.933253	-0.248379
H70	H	0.970429	-0.960726	-0.383885
H71	H	1.009374	-0.860053	-0.346851
H72	H	0.988218	-1.046763	-0.268562
H73	H	1.027149	-0.946109	-0.231506
H74	H	0.912786	-0.857825	-0.248968
H75	H	0.873847	-0.958500	-0.286006
H76	H	0.898589	-0.957577	-0.196051
