data_functionalizedCrystal
_audit_creation_method	'MofGen! by Chris Wilmer'
_symmetry_space_group_name_H-M	'P1'
_symmetry_Int_Tables_number	1
_symmetry_cell_setting	triclinic
loop_
_symmetry_equiv_pos_as_xyz
  x,y,z
_cell_length_a	16.959454
_cell_length_b	11.169417
_cell_length_c	11.169409
_cell_angle_alpha	89.980487
_cell_angle_beta	89.967057
_cell_angle_gamma	90.021324
loop_
_atom_site_label
_atom_site_type_symbol
_atom_site_fract_x
_atom_site_fract_y
_atom_site_fract_z
Zn1	Zn	-0.314591	1.834881	-0.678528
Zn2	Zn	-0.446798	1.834736	-0.477842
Zn3	Zn	-0.314640	1.634167	-0.477863
Zn4	Zn	-0.446734	1.634140	-0.678488
O5	O	-0.380691	1.734481	-0.578180
O6	O	-0.332135	2.002812	-0.651914
O7	O	-0.429314	1.808081	-0.309895
O8	O	-0.204023	1.660864	-0.504507
O9	O	-0.429266	2.002705	-0.504472
O10	O	-0.203987	1.808328	-0.651934
O11	O	-0.332218	1.660724	-0.309911
O12	O	-0.332157	1.466214	-0.504469
O13	O	-0.429158	1.660819	-0.846443
O14	O	-0.429206	1.466194	-0.651867
O15	O	-0.332073	1.808302	-0.846472
O16	O	-0.557400	1.808055	-0.504434
O17	O	-0.557354	1.660678	-0.651847
C18	C	-0.380680	1.422657	-0.578167
C19	C	-0.380695	1.289257	-0.578189
C20	C	-0.586057	1.734381	-0.578160
C21	C	-0.673914	1.734447	-0.578191
C22	C	-1.045395	1.657853	-0.654931
C23	C	-1.045384	1.811443	-0.501553
C24	C	-0.962838	1.811401	-0.501542
C25	C	-0.921567	1.734583	-0.578225
C26	C	-0.962842	1.657807	-0.654919
C27	C	-0.921557	1.888168	-0.424840
C28	C	-0.839006	1.888128	-0.424825
C29	C	-0.797733	1.811315	-0.501515
C30	C	-0.839013	1.734536	-0.578214
C31	C	-0.797742	1.657718	-0.654897
C32	C	-0.839021	1.580944	-0.731602
C33	C	-0.921569	1.580993	-0.731610
C34	C	-0.715185	1.811266	-0.501508
C35	C	-0.715189	1.657671	-0.654886
C36	C	-0.174523	1.734615	-0.578227
C37	C	-0.086666	1.734672	-0.578247
C38	C	-0.380603	1.734573	-0.891223
C39	C	-0.380566	1.734613	-1.024623
C40	C	-0.380702	2.047524	-0.578195
C41	C	-0.380707	2.180924	-0.578201
C42	C	-0.380721	1.734459	-0.266356
C43	C	-0.380536	1.734652	-0.132956
H44	H	-0.681591	1.595120	-0.717336
C45	C	-0.670468	1.894535	-0.418040
C46	C	-0.690625	1.868481	-0.299277
C47	C	-0.649456	1.945178	-0.222350
H48	H	-0.615382	1.883583	-0.428855
H49	H	-0.683966	1.975196	-0.435594
H50	H	-0.677122	1.787840	-0.281729
H51	H	-0.745704	1.879441	-0.288424
H52	H	-0.662954	2.025839	-0.239904
H53	H	-0.594372	1.934220	-0.233175
H54	H	-0.663132	1.927519	-0.141761
C55	C	-0.794163	1.497745	-0.815005
C56	C	-0.746715	1.565643	-0.891987
C57	C	-0.705385	1.489046	-0.968841
H58	H	-0.761944	1.445434	-0.769179
H59	H	-0.830538	1.452048	-0.860764
H60	H	-0.710344	1.611320	-0.846233
H61	H	-0.778914	1.617951	-0.937840
H62	H	-0.741760	1.443349	-1.014600
H63	H	-0.673171	1.436739	-0.923005
H64	H	-0.673192	1.535104	-1.021090
C65	C	-0.966528	1.497681	-0.814742
C66	C	-1.047654	1.514138	-0.798308
C67	C	-1.089097	1.437398	-0.874851
H68	H	-0.953057	1.515114	-0.895447
H69	H	-0.953090	1.417019	-0.797090
H70	H	-1.061086	1.594782	-0.815969
H71	H	-1.061148	1.496697	-0.717619
H72	H	-1.075659	1.356736	-0.857199
H73	H	-1.075620	1.454837	-0.955552
H74	H	-1.144145	1.448545	-0.863703
H75	H	-0.805402	1.950642	-0.362369
C76	C	-1.090332	1.894743	-0.418377
C77	C	-1.171459	1.878345	-0.434796
C78	C	-1.212893	1.955053	-0.358182
H79	H	-1.076923	1.877243	-0.337690
H80	H	-1.076823	1.975411	-0.435974
H81	H	-1.184962	1.797696	-0.417191
H82	H	-1.184892	1.895854	-0.515468
H83	H	-1.199384	2.035720	-0.375779
H84	H	-1.199478	1.937546	-0.277499
H85	H	-1.267942	1.943945	-0.369319
H86	H	-1.079008	1.595350	-0.717386
H87	H	-0.955166	1.950700	-0.362400
