data_functionalizedCrystal
_audit_creation_method	'MofGen! by Chris Wilmer'
_symmetry_space_group_name_H-M	'P1'
_symmetry_Int_Tables_number	1
_symmetry_cell_setting	triclinic
loop_
_symmetry_equiv_pos_as_xyz
  x,y,z
_cell_length_a	10.654541
_cell_length_b	15.625163
_cell_length_c	9.130307
_cell_angle_alpha	108.080751
_cell_angle_beta	89.999822
_cell_angle_gamma	84.351945
loop_
_atom_site_label
_atom_site_type_symbol
_atom_site_fract_x
_atom_site_fract_y
_atom_site_fract_z
O1	O	1.666517	0.126614	-0.054494
O2	O	1.300912	0.138681	-0.048097
O3	O	1.493487	0.001470	-0.120970
O4	O	1.473943	0.263825	0.018379
O5	O	1.493481	0.001468	0.122628
O6	O	1.300906	0.138679	0.195501
O7	O	1.666511	0.126613	0.189104
Cu8	Cu	1.483708	0.132646	0.214545
Cu9	Cu	1.483715	0.132648	-0.073538
O10	O	1.473936	0.263824	0.261978
C11	C	1.254120	0.137795	0.073230
C12	C	1.114704	0.135145	0.071818
C13	C	1.492600	-0.032124	-0.017017
C14	C	1.489953	-0.132222	-0.070194
C15	C	1.085021	0.299218	0.158947
C16	C	1.004684	0.380006	0.201842
C17	C	0.873692	0.377511	0.200516
C18	C	0.823036	0.294220	0.156293
C19	C	0.903373	0.213431	0.113398
C20	C	1.034367	0.215935	0.114725
C21	C	0.933056	0.049361	0.026281
C22	C	1.064049	0.051853	0.027596
C23	C	0.882400	-0.033931	-0.017941
C24	C	0.962738	-0.114721	-0.060848
C25	C	1.093737	-0.112223	-0.059521
C26	C	1.144386	-0.028935	-0.015299
C27	C	1.486224	-0.273302	-0.277917
C28	C	1.488712	-0.179245	-0.227934
C29	C	1.488700	-0.179246	0.037627
C30	C	1.486206	-0.273305	-0.012334
C31	C	1.484969	-0.320325	-0.170107
C32	C	1.484951	-0.320328	0.095476
C33	C	1.482463	-0.414379	0.045519
C34	C	1.481231	-0.461407	-0.112248
C35	C	1.482482	-0.414376	-0.220064
C36	C	1.486196	-0.273306	0.253249
C37	C	1.484941	-0.320330	0.361059
C38	C	1.482445	-0.414382	0.311103
C39	C	1.481212	-0.461409	0.153336
C40	C	1.481194	-0.461412	0.418919
C41	C	1.478706	-0.555463	0.368962
C42	C	1.478725	-0.555460	0.103378
C43	C	1.713303	0.127499	0.067774
C44	C	1.852719	0.130149	0.069176
C45	C	1.474823	0.297418	0.158021
C46	C	1.477470	0.397516	0.211188
N47	N	1.483712	0.132645	0.417167
N48	N	1.483721	0.132642	-0.276164
C49	C	1.654306	0.011180	0.352647
C50	C	1.739611	-0.049550	0.397055
C51	C	1.739624	-0.049550	0.550388
C52	C	1.654319	0.011184	0.659319
C53	C	1.569014	0.071913	0.614911
C54	C	1.569013	0.071909	0.461572
C55	C	1.398416	0.193372	0.679428
C56	C	1.398407	0.193378	0.526098
C57	C	1.313111	0.254106	0.788360
C58	C	1.227810	0.314841	0.743955
C59	C	1.227802	0.314840	0.590611
C60	C	1.313102	0.254108	0.481690
H61	H	1.191680	0.301258	0.159999
H62	H	0.775739	-0.035957	-0.019010
C63	C	1.060415	0.471623	0.250486
N64	N	1.102389	0.540629	0.287126
H65	H	1.654315	0.011182	0.227796
H66	H	1.158331	0.364290	0.554465
C67	C	0.907007	-0.206332	-0.109484
N68	N	0.865026	-0.275335	-0.146120
C69	C	1.182100	-0.201098	-0.106710
N70	N	1.248650	-0.268042	-0.142255
C71	C	1.654316	0.011163	0.827979
N72	N	1.654307	0.011144	0.955014
C73	C	1.288479	-0.026179	-0.013831
N74	N	1.397010	-0.024099	-0.012716
C75	C	0.678940	0.291480	0.154853
N76	N	0.570406	0.289416	0.153766
C77	C	1.477322	-0.607191	0.487559
N78	N	1.476282	-0.646153	0.576889
H79	H	1.489712	-0.140949	0.166087
C80	C	0.785318	0.466382	0.247702
N81	N	0.718755	0.533319	0.283241
H82	H	1.477696	-0.593745	-0.025096
H83	H	1.313120	0.254099	0.913208
H84	H	1.158356	0.364283	0.832652
H85	H	1.313107	0.254105	0.356837
C86	C	1.833422	-0.116368	0.277214
N87	N	1.904073	-0.166702	0.186950
H88	H	1.479209	-0.537989	-0.152921
C89	C	1.490084	-0.127521	-0.346547
N90	N	1.491117	-0.088564	-0.435885
H91	H	1.485195	-0.311587	-0.406391
C92	C	1.489026	-0.169855	0.308195
N93	N	1.491190	-0.091938	0.349577
H94	H	1.481453	-0.452661	-0.348538
H95	H	1.482213	-0.423115	0.547378
C96	C	1.833463	-0.116356	0.599237
N97	N	1.904144	-0.166673	0.636031
H98	H	1.485953	-0.282033	0.489519
