data_functionalizedCrystal
_audit_creation_method	'MofGen! by Chris Wilmer'
_symmetry_space_group_name_H-M	'P1'
_symmetry_Int_Tables_number	1
_symmetry_cell_setting	triclinic
loop_
_symmetry_equiv_pos_as_xyz
  x,y,z
_cell_length_a	16.109301
_cell_length_b	14.044190
_cell_length_c	15.186229
_cell_angle_alpha	89.991383
_cell_angle_beta	89.999006
_cell_angle_gamma	88.326680
loop_
_atom_site_label
_atom_site_type_symbol
_atom_site_fract_x
_atom_site_fract_y
_atom_site_fract_z
O1	O	1.112198	0.121836	-0.073190
O2	O	1.612198	0.621836	0.426810
O3	O	0.871264	0.136998	-0.073203
O4	O	1.371264	0.636998	0.426797
O5	O	0.988112	-0.008567	-0.073180
O6	O	1.488112	0.491433	0.426820
O7	O	0.995351	0.267400	-0.073214
O8	O	1.495351	0.767400	0.426786
O9	O	0.988103	-0.008569	0.073278
O10	O	1.488103	0.491431	0.573278
O11	O	0.871256	0.136996	0.073254
O12	O	1.371256	0.636996	0.573254
O13	O	1.112189	0.121834	0.073267
O14	O	1.612189	0.621834	0.573267
Zn15	Zn	0.991721	0.129414	0.096514
Zn16	Zn	1.491721	0.629414	0.596514
Zn17	Zn	0.991732	0.129417	-0.096450
Zn18	Zn	1.491732	0.629417	0.403550
O19	O	0.995342	0.267398	0.073243
O20	O	1.495342	0.767398	0.573243
C21	C	0.840239	0.136383	0.000024
C22	C	1.340239	0.636383	0.500024
C23	C	0.747807	0.134541	0.000019
C24	C	1.247807	0.634541	0.500019
C25	C	0.984940	-0.043881	0.000051
C26	C	1.484940	0.456119	0.500051
C27	C	0.975494	-0.149104	0.000059
C28	C	1.475494	0.350896	0.500059
C29	C	0.444789	0.214897	0.000025
C30	C	0.944789	0.714897	0.500025
C31	C	0.531639	0.216636	0.000019
C32	C	1.031639	0.716636	0.500019
C33	C	0.538659	0.043928	0.000029
C34	C	1.038659	0.543928	0.500029
C35	C	0.451811	0.042190	0.000028
C36	C	0.951811	0.542190	0.500028
C37	C	0.404878	0.127677	0.000030
C38	C	0.904878	0.627677	0.500030
C39	C	0.578576	0.131154	0.000026
C40	C	1.078576	0.631154	0.500026
C41	C	0.672742	0.133039	0.000020
C42	C	1.172742	0.633039	0.500020
C43	C	0.310706	0.125793	0.000034
C44	C	0.810706	0.625793	0.500034
C45	C	1.025219	-0.399406	0.000027
C46	C	1.525219	0.100594	0.500027
C47	C	0.958238	-0.341757	0.000029
C48	C	1.458238	0.158243	0.500029
C49	C	0.967842	-0.234555	0.000046
C50	C	1.467842	0.265445	0.500046
C51	C	1.015617	-0.506618	0.000011
C52	C	1.515617	-0.006618	0.500011
C53	C	1.143214	0.122449	0.000038
C54	C	1.643214	0.622449	0.500038
C55	C	1.235646	0.124290	0.000037
C56	C	1.735646	0.624290	0.500037
C57	C	0.998513	0.302713	0.000010
C58	C	1.498513	0.802713	0.500010
C59	C	1.007959	0.407936	-0.000002
C60	C	1.507959	0.907936	0.499998
N61	N	0.991719	0.129412	0.228206
N62	N	1.491719	0.629412	0.728206
N63	N	0.991740	0.129412	-0.228143
N64	N	1.491740	0.629412	0.271857
C65	C	1.043480	0.064978	0.453940
C66	C	1.543480	0.564978	0.953940
C67	C	1.043483	0.064975	0.546130
C68	C	1.543483	0.564975	1.046130
C69	C	0.939974	0.193849	0.546117
C70	C	1.439974	0.693849	1.046117
C71	C	0.939967	0.193846	0.453930
C72	C	1.439967	0.693846	0.953930
C73	C	0.991725	0.129412	0.407843
C74	C	1.491725	0.629412	0.907843
C75	C	0.991734	0.129412	0.592221
C76	C	1.491734	0.629412	1.092221
C77	C	0.991736	0.129410	0.692177
C78	C	1.491736	0.629410	1.192177
C79	C	0.991722	0.129412	0.307881
C80	C	1.491722	0.629412	0.807881
H81	H	0.406579	0.284506	0.000026
H82	H	0.906579	0.784506	0.500026
F83	F	0.588615	-0.047048	0.000033
F84	F	1.088615	0.452952	0.500033
H85	H	0.419314	-0.028839	0.000030
H86	H	0.919314	0.471161	0.500030
H87	H	0.564130	0.287658	0.000014
H88	H	1.064130	0.787658	0.500014
H89	H	1.089771	-0.368253	0.000040
H90	H	1.589771	0.131747	0.500040
F91	F	0.873857	-0.382476	0.000022
F92	F	1.373857	0.117524	0.500022
H93	H	1.085623	0.012510	0.416419
H94	H	1.585623	0.512510	0.916419
F95	F	1.098565	-0.003606	0.595186
F96	F	1.598565	0.496394	1.095186
H97	H	0.897835	0.246312	0.583650
H98	H	1.397835	0.746312	1.083650
F99	F	0.884877	0.262425	0.404866
F100	F	1.384877	0.762425	0.904866
