data_functionalizedCrystal
_audit_creation_method	'MofGen! by Chris Wilmer'
_symmetry_space_group_name_H-M	'P1'
_symmetry_Int_Tables_number	1
_symmetry_cell_setting	triclinic
loop_
_symmetry_equiv_pos_as_xyz
  x,y,z
_cell_length_a	27.440280
_cell_length_b	23.096457
_cell_length_c	23.096457
_cell_angle_alpha	60.004020
_cell_angle_beta	90.002567
_cell_angle_gamma	60.006385
loop_
_atom_site_label
_atom_site_type_symbol
_atom_site_fract_x
_atom_site_fract_y
_atom_site_fract_z
Zr1	Zr	-0.063948	0.633708	0.557827
O2	O	-0.141751	0.754477	0.465389
O3	O	-0.040099	0.512930	0.586156
O4	O	-0.141759	0.633698	0.586166
O5	O	0.040101	0.633721	0.465380
O6	O	-0.141762	0.633699	0.681447
O7	O	-0.040092	0.633710	0.465379
O8	O	0.040088	0.417668	0.681428
O9	O	-0.141749	0.849752	0.465399
O10	O	-0.029928	0.562612	0.669355
O11	O	0.029922	0.562619	0.598249
O12	O	-0.089769	0.704808	0.598261
O13	O	-0.029919	0.704815	0.527155
Zr14	Zr	0.063947	0.633728	0.709791
Zr15	Zr	-0.063953	0.633711	0.709788
Zr16	Zr	0.063951	0.633726	0.557829
Zr17	Zr	-0.063943	0.785660	0.557842
Zr18	Zr	0.063942	0.481776	0.709775
O19	O	0.040098	0.754506	0.681462
O20	O	-0.141758	0.754481	0.681459
O21	O	0.040105	0.754503	0.465393
O22	O	0.141750	0.512959	0.802228
O23	O	-0.040106	0.512934	0.802225
O24	O	0.141757	0.512955	0.586159
O25	O	-0.040103	0.633716	0.802237
O26	O	0.141757	0.633739	0.681451
O27	O	0.141760	0.633737	0.586171
O28	O	0.040091	0.633727	0.802239
O29	O	-0.141752	0.849754	0.586188
O30	O	0.141751	0.417682	0.681430
O31	O	0.141747	0.417684	0.802219
O32	O	0.040084	0.417670	0.802217
O33	O	-0.040086	0.849766	0.465401
O34	O	-0.040089	0.849768	0.586190
O35	O	0.089767	0.562629	0.669357
O36	O	0.029918	0.562622	0.740462
O37	O	-0.029923	0.704817	0.669369
O38	O	0.029926	0.704824	0.598263
C39	C	-0.000006	0.443649	0.633790
C40	C	-0.000008	0.379142	0.633783
C41	C	0.044165	0.296363	0.686275
C42	C	0.044171	0.235742	0.686280
C43	C	-0.000006	0.257903	0.633798
C44	C	-0.044184	0.340696	0.581297
C45	C	-0.044185	0.401315	0.581289
N46	N	-0.052395	0.201786	0.617919
N47	N	-0.052392	0.144196	0.617930
C48	C	-0.000005	0.075264	0.633817
N49	N	0.052381	0.066088	0.649705
N50	N	0.052378	0.123681	0.649697
C51	C	-0.000010	0.192178	0.633800
C52	C	0.044178	-0.073251	0.686317
C53	C	0.044184	-0.133871	0.686318
C54	C	-0.044175	-0.028915	0.581337
C55	C	-0.044177	0.031703	0.581334
C56	C	-0.000000	0.009530	0.633828
C57	C	-0.159983	0.633696	0.633806
C58	C	-0.214280	0.633688	0.633805
C59	C	-0.582250	0.707956	0.596705
C60	C	-0.633272	0.707961	0.596707
O61	O	-0.686226	0.771086	0.565168
N62	N	-0.627553	0.633737	0.633816
C63	C	-0.570808	0.559504	0.670931
O64	O	-0.570628	0.496371	0.702495
C65	C	-0.519787	0.559500	0.670932
C66	C	-0.525510	0.633729	0.633815
C67	C	-0.587971	0.782179	0.559592
C68	C	-0.536952	0.782174	0.559589
C69	C	-0.480212	0.707947	0.596699
C70	C	-0.474491	0.633724	0.633812
C71	C	-0.463042	0.485268	0.708051
C72	C	-0.412020	0.485271	0.708050
C73	C	-0.417744	0.559499	0.670933
C74	C	-0.366732	0.559492	0.670920
N75	N	-0.372451	0.633716	0.633811
C76	C	-0.429191	0.707943	0.596701
C77	C	-0.677957	0.559517	0.670925
C78	C	-0.728977	0.559520	0.670920
C79	C	-0.791439	0.707977	0.596697
C80	C	-0.740418	0.707974	0.596699
C81	C	-0.683676	0.633741	0.633817
C82	C	-0.322046	0.707927	0.596697
C83	C	-0.271020	0.707916	0.596695
C84	C	-0.208563	0.559459	0.670920
C85	C	-0.259584	0.559470	0.670920
C86	C	-0.316327	0.633711	0.633807
O87	O	-0.313760	0.496399	0.702445
O88	O	-0.429360	0.771065	0.565149
C89	C	0.159982	0.633741	0.633812
C90	C	0.214278	0.633748	0.633813
C91	C	0.000005	0.633715	0.443729
C92	C	0.000007	0.633714	0.379217
C93	C	0.000005	0.823787	0.633828
C94	C	0.000007	0.888295	0.633834
C95	C	0.031238	0.559492	0.386021
C96	C	0.031240	0.559491	0.325406
C97	C	0.000001	0.633716	0.257986
C98	C	-0.031231	0.707948	0.251185
C99	C	-0.031228	0.707947	0.311800
N100	N	-0.050842	0.688962	0.135195
N101	N	-0.050844	0.688958	0.077616
C102	C	-0.000010	0.633723	0.075354
N103	N	0.050826	0.578480	0.132852
N104	N	0.050827	0.578482	0.190438
C105	C	-0.000006	0.633725	0.192255
C106	C	0.031226	0.559495	0.016434
C107	C	0.031231	0.559496	-0.044184
C108	C	-0.031247	0.707956	-0.118405
C109	C	-0.031245	0.707952	-0.057787
C110	C	-0.000010	0.633719	0.009630
C111	C	-0.000007	0.633721	0.823889
C112	C	-0.000009	0.633723	0.888401
C113	C	-0.000012	0.443652	0.823870
C114	C	-0.000016	0.379146	0.888375
C115	C	0.159976	0.443672	0.633793
C116	C	0.214271	0.379171	0.633787
C117	C	0.159970	0.443675	0.823873
C118	C	0.214263	0.379176	0.888379
C119	C	-0.159972	0.823762	0.443745
C120	C	-0.214264	0.888261	0.379239
C121	C	0.000011	0.823784	0.443748
C122	C	0.000015	0.888291	0.379243
C123	C	-0.159977	0.823765	0.633825
C124	C	-0.214272	0.888265	0.633831
C125	C	-0.031262	0.348848	0.881550
C126	C	-0.031278	0.288245	0.942153
C127	C	-0.000043	0.257938	1.009582
C128	C	0.031203	0.288242	1.016405
C129	C	0.031215	0.348847	0.955803
C130	C	0.271012	0.348886	0.670902
C131	C	0.322032	0.288290	0.670894
C132	C	0.316310	0.257976	0.633775
C133	C	0.259563	0.288267	0.596655
C134	C	0.208544	0.348866	0.596660
C135	C	0.208518	0.348883	0.955794
C136	C	0.259527	0.288287	1.016410
C137	C	0.316280	0.257982	1.009609
C138	C	0.322023	0.288281	0.942187
C139	C	0.271015	0.348880	0.881572
C140	C	-0.208520	0.918561	0.311823
C141	C	-0.259529	0.979175	0.251207
C142	C	-0.316281	1.009484	0.258008
C143	C	-0.322025	0.979181	0.325431
C144	C	-0.271016	0.918572	0.386045
C145	C	0.031255	0.918595	0.386068
C146	C	0.031257	0.979214	0.325464
C147	C	0.000021	1.009524	0.258036
C148	C	-0.031223	0.979217	0.251212
C149	C	-0.031228	0.918603	0.311815
C150	C	-0.208531	0.918560	0.670957
C151	C	-0.259541	0.979157	0.670976
C152	C	-0.316293	1.009461	0.633864
C153	C	-0.322033	0.979160	0.596737
C154	C	-0.271023	0.918561	0.596722
H155	H	0.080144	0.168331	0.729026
N156	N	-0.253324	1.011835	0.178495
H157	H	-0.294246	1.054831	0.141123
H158	H	-0.230752	1.036925	0.172888
H159	H	-0.162326	0.893896	0.701178
N160	N	0.064914	0.479438	0.332729
H161	H	0.096350	0.476126	0.309232
H162	H	0.084664	0.432455	0.384647
N163	N	-0.064951	0.381528	0.808829
H164	H	-0.084747	0.353133	0.813712
H165	H	-0.096353	0.442368	0.782068
N166	N	0.277199	0.381574	0.710938
H167	H	0.257424	0.442414	0.676900
H168	H	0.257437	0.370964	0.748294
H169	H	0.056663	0.373508	0.961370
H170	H	-0.056722	0.263579	0.936583
H171	H	-0.357811	1.058835	0.208646
H172	H	0.056633	0.263557	1.071313
H173	H	-0.000057	0.208588	1.058922
H174	H	-0.275706	0.893901	0.566487
H175	H	0.162312	0.373548	0.961345
N176	N	-0.064920	0.885918	0.304439
H177	H	-0.036270	0.825082	0.327920
H178	H	-0.096362	0.896512	0.327919
N179	N	0.383233	0.255624	0.710934
H180	H	0.379111	0.284020	0.734454
H181	H	0.405761	0.194783	0.748242
H182	H	0.357858	0.208632	0.633777
N183	N	0.147345	0.381570	0.556584
H184	H	0.151468	0.353180	0.533058
H185	H	0.124783	0.371044	0.590627
N186	N	-0.277225	0.885888	0.458753
H187	H	-0.257461	0.825051	0.485544
H188	H	-0.257463	0.896484	0.485518
N189	N	0.064933	0.479434	0.458736
H190	H	0.036282	0.476121	0.485543
H191	H	0.084720	0.432456	0.453792
N192	N	0.253396	0.255563	0.556626
H193	H	0.294329	0.212574	0.562265
H194	H	0.230842	0.230449	0.576120
H195	H	-0.458369	0.424823	0.738277
N196	N	-0.253340	1.011840	0.711012
H197	H	-0.294263	1.054827	0.705396
H198	H	-0.230774	0.965550	0.762912
H199	H	-0.541620	0.842619	0.529368
N200	N	0.383239	0.255580	0.934864
H201	H	0.388023	0.230424	0.908092
H202	H	0.387995	0.301849	0.908114
N203	N	-0.091836	0.120989	0.524730
H204	H	-0.089916	0.133391	0.476537
H205	H	-0.132364	0.133302	0.527105
H206	H	0.056695	0.893921	0.440966
N207	N	-0.091831	0.364604	0.524689
H208	H	-0.085129	0.313641	0.532660
H209	H	-0.132370	0.398119	0.527007
H210	H	0.254840	0.263624	1.071303
N211	N	-0.371304	1.074818	0.633893
H212	H	-0.371317	1.125107	0.612780
H213	H	-0.408102	1.089359	0.604764
N214	N	0.091810	0.272451	0.742891
H215	H	0.119795	0.210808	0.776146
H216	H	0.114984	0.295311	0.719936
N217	N	-0.091838	0.490604	0.524680
H218	H	-0.119827	0.495448	0.491433
H219	H	-0.115005	0.518026	0.547645
H220	H	0.357809	0.208639	1.058971
H221	H	-0.162313	0.893888	0.306272
N222	N	0.277210	0.381546	0.808858
H223	H	0.299750	0.406694	0.803181
H224	H	0.299733	0.335258	0.803236
H225	H	-0.368239	1.003866	0.330960
N226	N	0.091824	-0.097157	0.742930
H227	H	0.119812	-0.158799	0.776182
H228	H	0.114993	-0.074290	0.719972
H229	H	-0.368247	1.003844	0.566521
H230	H	-0.275687	0.768364	0.566467
H231	H	0.056702	1.003880	0.331034
N232	N	-0.091826	-0.004993	0.524726
H233	H	-0.072551	-0.027805	0.497146
H234	H	-0.115029	-0.027802	0.547678
N235	N	-0.722799	0.479458	0.710953
H236	H	-0.763727	0.490715	0.705328
H237	H	-0.700244	0.447043	0.691460
N238	N	0.000029	1.074896	0.192671
H239	H	-0.017746	1.125185	0.192653
H240	H	0.042355	1.053730	0.192689
N241	N	0.091832	-0.223160	0.742936
H242	H	0.119814	-0.228003	0.776188
H243	H	0.072506	-0.250591	0.770462
N244	N	-0.383242	0.787998	0.556677
H245	H	-0.379115	0.835011	0.533170
H246	H	-0.405781	0.791244	0.519360
N247	N	-0.852649	0.788030	0.556696
H248	H	-0.857417	0.820468	0.576181
H249	H	-0.857412	0.820438	0.504777
H250	H	-0.056655	1.003904	0.196304
H251	H	-0.745084	0.768417	0.566475
N252	N	-0.649167	0.862245	0.519582
H253	H	-0.645039	0.909256	0.496081
H254	H	-0.671712	0.865501	0.482260
H255	H	-0.631756	0.499065	0.701148
H256	H	-0.365820	0.424820	0.738277
N257	N	-0.253416	0.479413	0.710935
H258	H	-0.209727	0.432390	0.734439
H259	H	-0.273217	0.476174	0.748255
H260	H	-0.162357	0.499025	0.701132
N261	N	-0.064921	0.788003	0.178469
H262	H	-0.096361	0.791310	0.151667
H263	H	-0.084668	0.834980	0.183415
N264	N	-0.064917	0.788004	0.304464
H265	H	-0.084708	0.835028	0.252557
H266	H	-0.096323	0.791229	0.327998
H267	H	0.056673	0.499050	0.071329
H268	H	-0.056683	0.768392	-0.173298
N269	N	0.064917	0.479441	-0.036850
H270	H	0.108619	0.446987	-0.010074
H271	H	0.048477	0.447056	-0.010100
N272	N	-0.064938	0.788007	-0.065121
H273	H	-0.084731	0.835030	-0.117028
H274	H	-0.096343	0.791229	-0.041585
