data_functionalizedCrystal
_audit_creation_method	'MofGen! by Chris Wilmer'
_symmetry_space_group_name_H-M	'P1'
_symmetry_Int_Tables_number	1
_symmetry_cell_setting	triclinic
loop_
_symmetry_equiv_pos_as_xyz
  x,y,z
_cell_length_a	12.759395
_cell_length_b	18.101395
_cell_length_c	18.101390
_cell_angle_alpha	90.031336
_cell_angle_beta	90.016968
_cell_angle_gamma	90.032641
loop_
_atom_site_label
_atom_site_type_symbol
_atom_site_fract_x
_atom_site_fract_y
_atom_site_fract_z
Zn1	Zn	1.606112	-0.294771	0.418695
Zn2	Zn	1.605963	-0.418628	0.294856
Zn3	Zn	1.430421	-0.294808	0.294872
Zn4	Zn	1.430352	-0.418579	0.418662
O5	O	1.518212	-0.356696	0.356771
O6	O	1.753114	-0.311206	0.402274
O7	O	1.582644	-0.402239	0.191226
O8	O	1.453818	-0.191170	0.311318
O9	O	1.753004	-0.402203	0.311291
O10	O	1.582898	-0.191143	0.402290
O11	O	1.453674	-0.311269	0.191237
O12	O	1.283391	-0.311221	0.311286
O13	O	1.453701	-0.402119	0.522299
O14	O	1.283341	-0.402155	0.402234
O15	O	1.582831	-0.311158	0.522323
O16	O	1.582577	-0.522254	0.311259
O17	O	1.453557	-0.522218	0.402218
C18	C	1.245245	-0.356687	0.356758
C19	C	1.128468	-0.356701	0.356771
C20	C	1.128454	-0.451544	0.451321
C21	C	1.073586	-0.498971	0.498598
C22	C	0.963865	-0.498980	0.498607
C23	C	0.909008	-0.451555	0.451336
C24	C	0.963876	-0.404128	0.404058
C25	C	1.073600	-0.404126	0.404053
C26	C	0.963890	-0.309283	0.309513
C27	C	1.073612	-0.309277	0.309499
C28	C	0.909034	-0.261859	0.262241
C29	C	0.963902	-0.214434	0.214959
C30	C	1.073630	-0.214428	0.214951
C31	C	1.128480	-0.261850	0.262222
C32	C	1.518072	-0.549107	0.356749
C33	C	1.518108	-0.631421	0.356765
C34	C	1.518338	-0.930512	0.356805
C35	C	1.437350	-0.899195	0.414176
C36	C	1.436965	-0.813577	0.413996
C37	C	1.518224	-0.782129	0.356786
C38	C	1.488248	-0.813287	0.278737
C39	C	1.487726	-0.898932	0.279080
C40	C	1.629480	-0.898852	0.376795
C41	C	1.628826	-0.813201	0.378507
C42	C	1.518161	-0.698270	0.356770
C43	C	1.518399	-1.014371	0.356815
C44	C	1.792246	-0.356706	0.356784
C45	C	1.909022	-0.356710	0.356790
C46	C	1.518275	-0.356629	0.549933
C47	C	1.518301	-0.356600	0.632247
C48	C	1.518382	-0.163534	0.356809
C49	C	1.518454	-0.081220	0.356826
C50	C	1.518211	-0.356710	0.164361
C51	C	1.518388	-0.356531	0.082047
C52	C	1.518358	-0.356554	0.931338
C53	C	1.599871	-0.299525	0.900028
C54	C	1.599616	-0.299313	0.814410
C55	C	1.518331	-0.356577	0.782956
C56	C	1.407651	-0.335376	0.814032
C57	C	1.408139	-0.334948	0.899678
C58	C	1.546551	-0.434930	0.899752
C59	C	1.548980	-0.434531	0.814102
C60	C	1.518309	-0.356591	0.699096
C61	C	1.518373	-0.356538	1.015198
H62	H	0.819667	-0.451560	0.451354
C63	C	1.462427	-0.926953	0.492613
N64	N	1.481314	-0.947868	0.551694
C65	C	1.133976	-0.162253	0.162941
N66	N	1.179425	-0.122955	0.123766
H67	H	1.681688	-0.312590	0.793400
H68	H	1.630431	-0.450518	0.793790
C69	C	1.474599	-0.495019	0.785180
N70	N	1.418564	-0.540577	0.763398
C71	C	1.375890	-0.257540	0.926685
N72	N	1.351617	-0.199231	0.947023
C73	C	1.379648	-0.784409	0.255451
N74	N	1.297847	-0.762660	0.237917
H75	H	1.580955	-0.241250	0.793936
C76	C	0.788337	-0.261863	0.262260
N77	N	0.697427	-0.261864	0.262273
C78	C	1.666397	-0.927952	0.452375
N79	N	1.694192	-0.949869	0.509305
C80	C	1.133936	-0.551138	0.550592
N81	N	1.179389	-0.590432	0.589753
H82	H	1.217821	-0.261851	0.262218
C83	C	1.462298	-0.785112	0.492180
N84	N	1.481374	-0.763677	0.551073
H85	H	0.919229	-0.175821	0.176478
H86	H	1.355470	-0.920784	0.401101
C87	C	1.325654	-0.785986	0.396162
N88	N	1.241804	-0.765205	0.382747
H89	H	1.217795	-0.451547	0.451313
C90	C	1.377967	-0.926015	0.256208
N91	N	1.295293	-0.946410	0.238982
H92	H	1.544155	-0.919651	0.234877
C93	C	1.323297	-0.388617	0.927659
N94	N	1.259389	-0.429035	0.948731
C95	C	0.903508	-0.551152	0.550614
N96	N	0.858048	-0.590449	0.589784
C97	C	1.565423	-0.785766	0.219411
N98	N	1.623551	-0.765033	0.174728
H99	H	1.345269	-0.375634	0.793656
C100	C	1.659392	-0.785654	0.456090
N101	N	1.682418	-0.764892	0.514520
C102	C	1.714658	-0.784279	0.326168
N103	N	1.779304	-0.762496	0.286739
C104	C	1.374781	-0.258829	0.785082
N105	N	1.350031	-0.201172	0.763279
H106	H	1.689819	-0.919104	0.335010
H107	H	1.682211	-0.312638	0.920628
H108	H	1.581445	-0.241786	0.921565
H109	H	1.625843	-0.454236	0.921394
C110	C	1.466349	-0.492335	0.927109
N111	N	1.405940	-0.535567	0.947720
