data_functionalizedCrystal
_audit_creation_method	'MofGen! by Chris Wilmer'
_symmetry_space_group_name_H-M	'P1'
_symmetry_Int_Tables_number	1
_symmetry_cell_setting	triclinic
loop_
_symmetry_equiv_pos_as_xyz
  x,y,z
_cell_length_a	16.109295
_cell_length_b	14.519709
_cell_length_c	15.186229
_cell_angle_alpha	89.999996
_cell_angle_beta	89.997166
_cell_angle_gamma	96.430334
loop_
_atom_site_label
_atom_site_type_symbol
_atom_site_fract_x
_atom_site_fract_y
_atom_site_fract_z
O1	O	-0.108980	1.223635	-0.073108
O2	O	-0.121815	0.955131	-0.073134
O3	O	0.005621	1.096762	-0.073121
O4	O	-0.236416	1.082004	-0.073120
O5	O	0.005614	1.096745	0.073336
O6	O	-0.121822	0.955114	0.073323
O7	O	-0.108987	1.223618	0.073350
Zn8	Zn	-0.115406	1.089364	0.096590
Zn9	Zn	-0.115396	1.089385	-0.096374
O10	O	-0.236423	1.081987	0.073337
C11	C	0.036594	1.096156	0.000105
C12	C	0.128892	1.094367	0.000099
C13	C	-0.121220	0.920764	0.000091
C14	C	-0.119428	0.818386	0.000081
C15	C	0.351027	1.174246	0.000074
C16	C	0.437750	1.172557	0.000059
C17	C	0.418167	1.004519	0.000047
C18	C	0.331445	1.006209	0.000056
C19	C	0.297878	1.091075	0.000074
C20	C	0.471323	1.087697	0.000050
C21	C	0.565352	1.085865	0.000035
C22	C	0.203842	1.092907	0.000088
C23	C	-0.112829	0.443505	0.000121
C24	C	-0.114661	0.547809	0.000110
C25	C	-0.116128	0.630942	0.000100
C26	C	-0.117961	0.735253	0.000091
C27	C	0.732605	1.082598	0.000088
C28	C	0.640308	1.084404	0.000025
C29	C	-0.109582	1.257985	0.000122
C30	C	-0.111374	1.360363	0.000127
N31	N	-0.115412	1.089355	0.228282
N32	N	-0.115384	1.089401	-0.228067
C33	C	-0.165937	1.145286	0.454011
C34	C	-0.165931	1.145296	0.546201
C35	C	-0.064853	1.033468	0.546198
C36	C	-0.064855	1.033463	0.454010
C37	C	-0.115402	1.089371	0.407919
C38	C	-0.115394	1.089385	0.592297
C39	C	-0.115387	1.089396	0.692253
C40	C	-0.115408	1.089362	0.307957
H41	H	0.481022	1.240283	0.000058
C42	C	0.272973	0.914715	0.000058
C43	C	0.309892	0.821366	0.000051
C44	C	0.251421	0.729877	0.000050
C45	C	0.156030	0.731737	0.000057
C46	C	0.119106	0.825090	0.000064
C47	C	0.177578	0.916579	0.000065
H48	H	0.380510	0.819986	0.000046
H49	H	0.278755	0.660771	0.000045
H50	H	0.112746	0.664012	0.000056
H51	H	0.048488	0.826470	0.000068
H52	H	0.150244	0.985685	0.000070
C53	C	-0.221529	1.206791	0.403309
C54	C	-0.209478	1.312673	0.415979
C55	C	-0.265069	1.374182	0.365280
C56	C	-0.332711	1.329809	0.301911
C57	C	-0.344765	1.223921	0.289239
C58	C	-0.289174	1.162412	0.339938
H59	H	-0.159403	1.345525	0.462891
H60	H	-0.256146	1.452567	0.374661
H61	H	-0.373863	1.375342	0.264381
H62	H	-0.394840	1.191069	0.242327
H63	H	-0.298097	1.084027	0.330557
H64	H	0.445508	0.935425	0.000035
H65	H	0.323699	1.243349	0.000087
C66	C	-0.221523	1.206801	0.596902
C67	C	-0.277120	1.268295	0.546200
C68	C	-0.332714	1.329804	0.596901
C69	C	-0.332712	1.329819	0.698304
C70	C	-0.277114	1.268323	0.749012
C71	C	-0.221519	1.206814	0.698311
H72	H	-0.277123	1.268286	0.471130
H73	H	-0.373871	1.375327	0.559363
H74	H	-0.373866	1.375351	0.735836
H75	H	-0.277110	1.268332	0.824082
H76	H	-0.180362	1.161291	0.735849
H77	H	-0.023700	0.987949	0.583737
C78	C	-0.009265	0.971950	0.403302
C79	C	0.046326	0.910444	0.453996
C80	C	0.101916	0.848937	0.403287
C81	C	0.101914	0.848935	0.301884
C82	C	0.046322	0.910443	0.251184
C83	C	-0.009268	0.971951	0.301893
H84	H	0.046329	0.910443	0.529065
H85	H	0.143069	0.803404	0.440819
H86	H	0.143065	0.803404	0.264346
H87	H	0.046319	0.910444	0.176114
H88	H	-0.050422	1.017483	0.264361
