data_functionalizedCrystal
_audit_creation_method	'MofGen! by Chris Wilmer'
_symmetry_space_group_name_H-M	'P1'
_symmetry_Int_Tables_number	1
_symmetry_cell_setting	triclinic
loop_
_symmetry_equiv_pos_as_xyz
  x,y,z
_cell_length_a	13.262390
_cell_length_b	23.532357
_cell_length_c	11.804365
_cell_angle_alpha	101.747256
_cell_angle_beta	62.657606
_cell_angle_gamma	83.660309
loop_
_atom_site_label
_atom_site_type_symbol
_atom_site_fract_x
_atom_site_fract_y
_atom_site_fract_z
O1	O	1.519178	0.008376	-0.591066
O2	O	1.190578	0.029020	-0.484644
O3	O	1.364811	-0.064554	-0.541047
O4	O	1.344945	0.101951	-0.534663
O5	O	1.318942	-0.039943	-0.328143
O6	O	1.144709	0.053631	-0.271739
O7	O	1.473310	0.032988	-0.378161
Cu8	Cu	1.304821	0.045557	-0.305511
Cu9	Cu	1.359066	0.016451	-0.557295
O10	O	1.299077	0.126562	-0.321758
C11	C	1.125612	0.042432	-0.364579
C12	C	1.000370	0.045722	-0.324017
C13	C	0.747361	0.001322	-0.673916
C14	C	0.865032	-0.001772	-0.712028
C15	C	0.898873	0.010101	-0.615029
C16	C	0.815030	0.025069	-0.479910
C17	C	0.697348	0.028158	-0.441794
C18	C	0.848860	0.036938	-0.382907
C19	C	0.765017	0.051905	-0.247788
C20	C	0.647347	0.054994	-0.209679
C21	C	0.613507	0.043121	-0.306678
C22	C	0.966542	0.033848	-0.421023
C23	C	0.916529	0.060685	-0.188901
C24	C	0.798858	0.063778	-0.150789
C25	C	1.341378	-0.073449	-0.434430
C26	C	1.339881	-0.136617	-0.433934
C27	C	1.355515	-0.541748	-0.547018
C28	C	1.354095	-0.601103	-0.546565
O29	O	1.374586	-0.643204	-0.645015
N30	N	1.328388	-0.617376	-0.430284
C31	C	1.304087	-0.574289	-0.314445
O32	O	1.282090	-0.593581	-0.215497
C33	C	1.305499	-0.514935	-0.314897
C34	C	1.331219	-0.498668	-0.431189
C35	C	1.381232	-0.525479	-0.663301
C36	C	1.382653	-0.466129	-0.663754
C37	C	1.358357	-0.423048	-0.547924
C38	C	1.332640	-0.439318	-0.431642
C39	C	1.281190	-0.471849	-0.199056
C40	C	1.282603	-0.412492	-0.199517
C41	C	1.308323	-0.396225	-0.315810
C42	C	1.309766	-0.336887	-0.316266
N43	N	1.335473	-0.320614	-0.432547
C44	C	1.359769	-0.363695	-0.548376
C45	C	1.301123	-0.698937	-0.313505
C46	C	1.299719	-0.758291	-0.313055
C47	C	1.349725	-0.785100	-0.545175
C48	C	1.351137	-0.725746	-0.545626
C49	C	1.326830	-0.682664	-0.429786
C50	C	1.362753	-0.239054	-0.549319
C51	C	1.364177	-0.179698	-0.549763
C52	C	1.314165	-0.152894	-0.317642
C53	C	1.312747	-0.212245	-0.317199
C54	C	1.337039	-0.255325	-0.433046
O55	O	1.289282	-0.294753	-0.217866
O56	O	1.381748	-0.344393	-0.647303
C57	C	1.538277	0.019575	-0.498230
C58	C	1.663520	0.016285	-0.538800
C59	C	1.322510	0.135456	-0.428378
C60	C	1.324009	0.198624	-0.428883
N61	N	1.266677	0.066028	-0.128422
N62	N	1.397220	-0.004025	-0.734387
C63	C	1.488820	-0.053193	0.173614
C64	C	1.517675	-0.068682	0.039611
C65	C	1.454927	-0.035006	-0.002404
C66	C	1.363321	0.014161	0.089598
C67	C	1.334468	0.029654	0.223612
C68	C	1.300576	0.047842	0.047594
C69	C	1.208969	0.097009	0.139595
C70	C	1.180121	0.112499	0.273596
C71	C	1.242869	0.078823	0.315611
C72	C	1.329428	0.032349	-0.086420
C73	C	1.175077	0.115196	-0.036423
C74	C	1.146222	0.130685	0.097580
H75	H	0.730577	0.075964	-0.040773
H76	H	1.034796	0.021663	-0.531037
N77	N	1.611256	-0.118878	-0.054448
N78	N	1.697124	-0.111845	-0.151842
H79	H	1.763226	-0.147291	-0.218303
N80	N	1.213401	0.094633	0.452493
N81	N	1.269429	0.064555	0.489983
H82	H	1.248619	0.075719	0.586657
H83	H	0.944080	0.070352	-0.109916
N84	N	1.374523	-0.829103	-0.663499
N85	N	1.397471	-0.814574	-0.767321
H86	H	1.414982	-0.845651	-0.850883
H87	H	1.105538	0.152538	0.348502
N88	N	1.052668	0.180915	0.191555
N89	N	1.056819	0.231794	0.176277
H90	H	0.990746	0.267269	0.242647
H91	H	1.123984	0.142620	-0.070629
H92	H	1.278792	-0.771531	-0.218363
H93	H	0.517690	0.045641	-0.275654
H94	H	1.401013	-0.560551	-0.757627
H95	H	0.994688	0.007582	-0.646068
H96	H	1.404015	-0.007683	-0.161317
H97	H	1.478425	-0.047619	-0.111516
H98	H	0.933290	-0.013961	-0.822042
H99	H	1.539906	-0.080605	0.207832
H100	H	1.262792	-0.377415	-0.105178
N101	N	0.712774	-0.010811	-0.772969
N102	N	0.607704	-0.008054	-0.738916
H103	H	0.583276	-0.016625	-0.808879
H104	H	1.382529	-0.274123	-0.643651
N105	N	0.561721	0.070272	-0.071656
N106	N	0.591944	0.080870	0.014939
H107	H	0.531473	0.091660	0.112419
H108	H	1.385125	-0.166458	-0.644467
H109	H	1.372079	-0.712506	-0.640321
N110	N	1.408924	-0.449527	-0.782555
N111	N	1.430608	-0.488006	-0.885954
H112	H	1.449160	-0.476285	-0.969864
N113	N	1.276294	-0.654939	-0.195158
N114	N	1.253343	-0.669483	-0.091352
H115	H	1.235805	-0.638412	-0.007768
H116	H	1.260247	-0.485083	-0.104359
N117	N	1.286482	-0.228857	-0.198404
N118	N	1.264793	-0.190383	-0.094995
H119	H	1.246230	-0.202109	-0.011088
N120	N	1.289361	-0.108876	-0.199345
N121	N	1.290634	-0.055886	-0.199781
H122	H	1.273111	-0.024795	-0.116231
