data_functionalizedCrystal
_audit_creation_method	'MofGen! by Chris Wilmer'
_symmetry_space_group_name_H-M	'P1'
_symmetry_Int_Tables_number	1
_symmetry_cell_setting	triclinic
loop_
_symmetry_equiv_pos_as_xyz
  x,y,z
_cell_length_a	14.971486
_cell_length_b	9.730217
_cell_length_c	14.971496
_cell_angle_alpha	90.004163
_cell_angle_beta	83.616127
_cell_angle_gamma	89.996453
loop_
_atom_site_label
_atom_site_type_symbol
_atom_site_fract_x
_atom_site_fract_y
_atom_site_fract_z
O1	O	1.186945	0.114135	0.116561
O2	O	0.926545	0.114173	0.130519
O3	O	1.063720	0.114140	-0.006659
O4	O	1.049770	0.114167	0.253739
O5	O	1.063716	-0.114440	-0.006661
O6	O	0.926541	-0.114408	0.130518
O7	O	1.186941	-0.114445	0.116559
Zn8	Zn	1.056740	-0.150718	0.123539
Zn9	Zn	1.056746	0.150446	0.123540
O10	O	1.049766	-0.114413	0.253738
C11	C	0.893218	-0.000113	0.129895
C12	C	0.793921	-0.000099	0.128024
N13	N	1.056743	-0.356255	0.123537
C14	C	0.736699	-0.000092	0.208613
C15	C	0.643399	-0.000113	0.206850
C16	C	0.607324	-0.000130	0.124497
C17	C	0.664554	-0.000141	0.043902
C18	C	0.757852	-0.000130	0.045666
C19	C	0.470091	-0.000160	0.040231
C20	C	0.376787	-0.000168	0.038466
C21	C	0.355639	-0.000143	0.201414
C22	C	0.448937	-0.000132	0.203179
C23	C	0.506160	-0.000140	0.122583
C24	C	1.178261	-0.356274	0.002100
C25	C	1.239025	-0.428224	-0.058616
C26	C	1.239034	-0.572103	-0.058616
C27	C	1.178270	-0.644037	0.002104
C28	C	1.117506	-0.572087	0.062820
C29	C	1.117505	-0.428204	0.062815
C30	C	0.995985	-0.572068	0.184251
C31	C	0.995979	-0.428189	0.184257
C32	C	0.935221	-0.644002	0.244971
C33	C	0.874459	-0.572053	0.305692
C34	C	0.874453	-0.428164	0.305691
C35	C	0.935214	-0.356239	0.244973
C36	C	1.220268	-0.000157	0.117184
C37	C	1.319565	-0.000162	0.119055
C38	C	1.063092	-0.000150	-0.039985
C39	C	1.061218	-0.000150	-0.139281
N40	N	1.056750	0.355982	0.123535
C41	C	1.053153	0.124486	-0.566985
C42	C	1.054918	0.124480	-0.473685
C43	C	1.055793	-0.000125	-0.427043
C44	C	1.054911	-0.124731	-0.473705
C45	C	1.053151	-0.124723	-0.567003
C46	C	1.058576	-0.124738	-0.279242
C47	C	1.060333	-0.124747	-0.185937
C48	C	1.060343	0.124464	-0.185924
C49	C	1.058583	0.124472	-0.279222
C50	C	1.057700	-0.000135	-0.325878
C51	C	1.050394	-0.000120	0.287063
C52	C	1.052268	-0.000111	0.386360
H53	H	0.766063	-0.000078	0.275674
O54	O	0.341593	-0.000143	-0.041452
C55	C	0.246976	-0.000184	-0.025722
H56	H	0.225145	0.043120	0.044051
H57	H	0.221010	-0.109851	-0.030067
C58	C	0.234999	0.036233	-0.182618
C59	C	0.208186	0.089430	-0.096924
H60	H	0.211070	0.091505	-0.226541
H61	H	0.298744	0.036255	-0.193217
H62	H	0.213359	-0.055156	-0.186226
H63	H	0.229836	0.180810	-0.093314
H64	H	0.144443	0.089426	-0.086326
O65	O	0.587854	0.000142	0.285160
C66	C	0.604225	0.118524	0.335158
H67	H	0.636048	0.201261	0.287966
H68	H	0.651794	0.091780	0.386978
C69	C	0.475777	0.070580	0.441482
C70	C	0.514856	0.172204	0.383519
H71	H	0.420652	0.103690	0.471317
H72	H	0.464749	-0.009179	0.407800
H73	H	0.515427	0.048302	0.484657
H74	H	0.475212	0.194467	0.340338
H75	H	0.525875	0.251968	0.417195
H76	H	0.824968	-0.369590	0.355130
H77	H	0.478306	-0.000105	0.270237
O78	O	1.057678	-0.245903	-0.324421
C79	C	1.058846	-0.355886	-0.263251
H80	H	1.031809	-0.319355	-0.193070
H81	H	1.130733	-0.394221	-0.262638
C82	C	1.032744	-0.518456	-0.378263
C83	C	0.999529	-0.473590	-0.292066
H84	H	0.996159	-0.591065	-0.396038
H85	H	1.031961	-0.444360	-0.419475
H86	H	1.092650	-0.550392	-0.377741
H87	H	0.939630	-0.441639	-0.292591
H88	H	1.000302	-0.547684	-0.250854
H89	H	1.288497	-0.369643	-0.108055
O90	O	0.935116	-0.216475	0.245118
C91	C	0.868439	-0.168388	0.311708
H92	H	0.852889	-0.251291	0.364968
H93	H	0.804850	-0.142865	0.279665
C94	C	0.921607	0.063471	0.290370
C95	C	0.902513	-0.038348	0.355790
H96	H	0.942622	0.143690	0.317560
H97	H	0.966526	0.031076	0.245505
H98	H	0.868612	0.084724	0.263673
H99	H	0.955510	-0.059611	0.382477
H100	H	0.857603	-0.005953	0.400661
H101	H	0.516681	-0.000168	-0.025399
O102	O	0.629618	0.000028	-0.036151
C103	C	0.658824	0.118426	-0.085274
H104	H	0.723555	0.157899	-0.060828
H105	H	0.604844	0.201321	-0.074970
C106	C	0.596702	0.033975	-0.215899
C107	C	0.676210	0.082450	-0.185879
H108	H	0.607423	0.011787	-0.277958
H109	H	0.577022	-0.045790	-0.182804
H110	H	0.551726	0.103063	-0.207305
H111	H	0.721181	0.013357	-0.194463
H112	H	0.695899	0.162203	-0.218978
O113	O	0.815402	-0.642080	0.364545
C114	C	0.760166	-0.725276	0.316538
H115	H	0.795722	-0.746826	0.246605
H116	H	0.694056	-0.669824	0.310351
C117	C	0.697435	-0.835483	0.452818
C118	C	0.741108	-0.861961	0.366928
H119	H	0.685675	-0.919794	0.483902
H120	H	0.734645	-0.779429	0.485162
H121	H	0.642348	-0.789269	0.447650
H122	H	0.796199	-0.908158	0.372097
H123	H	0.703906	-0.918026	0.334586
O124	O	1.298141	-0.641789	-0.117633
C125	C	1.351750	-0.547456	-0.171247
H126	H	1.352802	-0.444886	-0.134576
H127	H	1.322638	-0.532162	-0.237742
C128	C	1.446925	-0.729603	-0.234563
C129	C	1.448222	-0.603628	-0.189520
H130	H	1.506432	-0.764254	-0.245839
H131	H	1.410805	-0.793159	-0.198445
H132	H	1.422660	-0.716842	-0.289970
H133	H	1.472476	-0.616395	-0.134109
H134	H	1.484348	-0.540076	-0.225629
H135	H	0.309043	-0.000143	0.267038
O136	O	1.052170	0.245610	-0.612181
C137	C	0.975180	0.321396	-0.579343
H138	H	0.950662	0.285971	-0.508251
H139	H	0.919982	0.304114	-0.624811
C140	C	1.028878	0.518887	-0.665400
C141	C	0.998769	0.475386	-0.578081
H142	H	1.043426	0.613876	-0.664625
H143	H	1.080746	0.467828	-0.687527
H144	H	0.982874	0.504474	-0.703280
H145	H	1.044776	0.489783	-0.540205
H146	H	0.946908	0.526451	-0.555948
O147	O	1.061001	0.245460	-0.140526
C148	C	0.984556	0.252860	-0.076581
H149	H	0.959094	0.144646	-0.059229
H150	H	0.929648	0.314204	-0.105568
C151	C	1.040891	0.457167	-0.012323
C152	C	1.009623	0.324255	0.008994
H153	H	1.056351	0.501212	0.040462
H154	H	1.092392	0.452185	-0.055407
H155	H	0.995129	0.508269	-0.036481
H156	H	1.055388	0.273151	0.033140
H157	H	0.958130	0.329230	0.052084
H158	H	0.804442	-0.000134	-0.019958
H159	H	1.178267	-0.239120	0.002102
H160	H	1.178274	-0.761191	0.002092
H161	H	0.935228	-0.761157	0.244964
H162	H	1.055641	0.225939	-0.435703
H163	H	1.057866	0.225936	-0.317196
H164	H	1.052430	-0.226183	-0.604989
H165	H	1.061017	-0.226211	-0.147959
H166	H	1.055629	-0.226186	-0.435722
