data_functionalizedCrystal
_audit_creation_method	'MofGen! by Chris Wilmer'
_symmetry_space_group_name_H-M	'P1'
_symmetry_Int_Tables_number	1
_symmetry_cell_setting	triclinic
loop_
_symmetry_equiv_pos_as_xyz
  x,y,z
_cell_length_a	16.120530
_cell_length_b	18.101395
_cell_length_c	16.120297
_cell_angle_alpha	87.127310
_cell_angle_beta	89.871860
_cell_angle_gamma	87.126665
loop_
_atom_site_label
_atom_site_type_symbol
_atom_site_fract_x
_atom_site_fract_y
_atom_site_fract_z
Zn1	Zn	1.247384	-0.375190	0.534565
Zn2	Zn	1.747384	0.124810	1.034565
Zn3	Zn	1.254317	-0.493082	0.395508
Zn4	Zn	1.754317	0.006918	0.895508
Zn5	Zn	1.115376	-0.362676	0.388483
Zn6	Zn	1.615376	0.137324	0.888483
Zn7	Zn	1.108274	-0.492400	0.527477
Zn8	Zn	1.608274	0.007600	1.027477
O9	O	1.181338	-0.430837	0.461508
O10	O	1.681338	0.069163	0.961508
O11	O	1.364669	-0.396351	0.522025
O12	O	1.864669	0.103649	1.022025
O13	O	1.241761	-0.470832	0.278211
O14	O	1.741761	0.029168	0.778211
O15	O	1.132958	-0.260707	0.407888
O16	O	1.632958	0.239293	0.907888
O17	O	1.369763	-0.482966	0.419860
O18	O	1.869763	0.017034	0.919860
O19	O	1.229944	-0.269901	0.515214
O20	O	1.729944	0.230099	1.015214
O21	O	1.139681	-0.375023	0.273050
O22	O	1.639681	0.124977	0.773050
O23	O	0.998069	-0.374361	0.401015
O24	O	1.498069	0.125639	0.901015
O25	O	1.120853	-0.481804	0.644783
O26	O	1.620853	0.018196	1.144783
O27	O	0.992851	-0.469669	0.503133
O28	O	1.492851	0.030331	1.003133
O29	O	1.223057	-0.395690	0.649990
O30	O	1.723057	0.104310	1.149990
O31	O	1.234873	-0.596620	0.412987
O32	O	1.734873	-0.096620	0.912987
O33	O	1.127576	-0.596119	0.509945
O34	O	1.627576	-0.096119	1.009945
C35	C	0.965287	-0.420584	0.450543
C36	C	1.465287	0.079416	0.950543
C37	C	0.872859	-0.416216	0.445872
C38	C	1.372859	0.083784	0.945872
C39	C	0.703631	-0.408225	0.437350
C40	C	1.203631	0.091775	0.937350
C41	C	0.659883	-0.453506	0.485727
C42	C	1.159883	0.046494	0.985727
C43	C	0.565718	-0.449060	0.480986
C44	C	1.065718	0.050940	0.980986
C45	C	0.797804	-0.412671	0.442091
C46	C	1.297804	0.087329	0.942091
C47	C	1.181228	-0.623241	0.461478
C48	C	1.681228	-0.123241	0.961478
C49	C	1.181256	-0.705558	0.461497
C50	C	1.681256	-0.205558	0.961497
C51	C	1.181436	-1.004659	0.461551
C52	C	1.681436	-0.504659	0.961551
C53	C	1.114068	-0.973063	0.522721
C54	C	1.614068	-0.473063	1.022721
C55	C	1.113774	-0.887422	0.522504
C56	C	1.613774	-0.387422	1.022504
C57	C	1.181346	-0.856271	0.461525
C58	C	1.681346	-0.356271	0.961525
C59	C	1.162064	-0.882548	0.372686
C60	C	1.662064	-0.382548	0.872686
C61	C	1.161632	-0.968190	0.373050
C62	C	1.661632	-0.468190	0.873050
C63	C	1.268265	-0.978132	0.488456
C64	C	1.768265	-0.478132	0.988456
C65	C	1.267650	-0.892539	0.490352
C66	C	1.767650	-0.392539	0.990352
C67	C	1.181297	-0.772409	0.461505
C68	C	1.681297	-0.272409	0.961505
C69	C	1.181483	-1.088521	0.461565
C70	C	1.681483	-0.588521	0.961565
C71	C	1.398232	-0.441131	0.472517
C72	C	1.898232	0.058869	0.972517
C73	C	1.490660	-0.445517	0.477208
C74	C	1.990660	0.054483	0.977208
C75	C	1.170389	-0.440067	0.678403
C76	C	1.670389	0.059933	1.178403
C77	C	1.165724	-0.444000	0.770830
C78	C	1.665724	0.056000	1.270830
C79	C	1.181470	-0.237683	0.461558
C80	C	1.681470	0.262317	0.961558
C81	C	1.181526	-0.155373	0.461579
C82	C	1.681526	0.344627	0.961579
C83	C	1.192292	-0.421592	0.245460
C84	C	1.692292	0.078408	0.745460
C85	C	1.197119	-0.417458	0.153042
C86	C	1.697119	0.082542	0.653042
C87	C	1.157175	-0.451163	0.940055
C88	C	1.657175	0.048837	1.440055
C89	C	1.205665	-0.410297	0.983822
C90	C	1.705665	0.089703	1.483822
C91	C	1.200908	-0.414283	1.077985
C92	C	1.700908	0.085717	1.577985
C93	C	1.161931	-0.447178	0.845884
C94	C	1.661931	0.052822	1.345884
H95	H	0.693149	-0.495611	0.530706
H96	H	1.193149	0.004389	1.030706
H97	H	1.125322	-0.869842	0.588238
H98	H	1.625322	-0.369842	1.088238
H99	H	0.670367	-0.366124	0.392376
H100	H	1.170367	0.133876	0.892376
H101	H	1.125459	-0.997097	0.588658
H102	H	1.625459	-0.497097	1.088658
H103	H	1.050005	-0.990950	0.504755
H104	H	1.550005	-0.490950	1.004755
H105	H	1.250750	-0.372317	0.950575
H106	H	1.750750	0.127683	1.450575
H107	H	1.112094	-0.489140	0.973300
H108	H	1.612094	0.010860	1.473300
H109	H	1.286711	-1.003393	0.552368
H110	H	1.786711	-0.503393	1.052368
H111	H	1.049324	-0.863273	0.504331
H112	H	1.549324	-0.363273	1.004331
H113	H	1.098292	-0.984372	0.350776
H114	H	1.598292	-0.484372	0.850776
O115	O	1.217915	-0.992775	0.316473
O116	O	1.717915	-0.492775	0.816473
C117	C	1.320291	-0.959869	0.213778
C118	C	1.820291	-0.459869	0.713778
C119	C	1.256573	-0.931930	0.277814
C120	C	1.756573	-0.431930	0.777814
H121	H	1.351576	-0.910691	0.182517
H122	H	1.851576	-0.410691	0.682517
H123	H	1.287321	-0.991099	0.164894
H124	H	1.787321	-0.491099	0.664894
H125	H	1.369192	-0.998514	0.246565
H126	H	1.869192	-0.498514	0.746565
H127	H	1.207654	-0.893257	0.245100
H128	H	1.707654	-0.393257	0.745100
H129	H	1.289601	-0.900742	0.326694
H130	H	1.789601	-0.400742	0.826694
H131	H	1.099423	-0.857320	0.350105
H132	H	1.599423	-0.357320	0.850105
O133	O	1.218883	-0.858274	0.316488
O134	O	1.718883	-0.358274	0.816488
C135	C	1.242784	-0.785639	0.190107
C136	C	1.742784	-0.285639	0.690107
C137	C	1.178342	-0.813073	0.253679
C138	C	1.678342	-0.313073	0.753679
H139	H	1.210034	-0.749076	0.139319
H140	H	1.710034	-0.249076	0.639319
H141	H	1.276018	-0.835178	0.161273
H142	H	1.776018	-0.335178	0.661273
H143	H	1.290024	-0.752312	0.222705
H144	H	1.790024	-0.252312	0.722705
H145	H	1.131051	-0.846388	0.221142
H146	H	1.631051	-0.346388	0.721142
H147	H	1.145171	-0.763503	0.282510
H148	H	1.645171	-0.263503	0.782510
O149	O	1.285041	-0.872687	0.568442
O150	O	1.785041	-0.372687	1.068442
C151	C	1.314109	-0.914056	0.710283
C152	C	1.814109	-0.414056	1.210283
C153	C	1.294426	-0.936636	0.621882
C154	C	1.794426	-0.436636	1.121882
H155	H	1.321720	-0.965747	0.753510
H156	H	1.821720	-0.465747	1.253510
H157	H	1.261105	-0.876396	0.733429
H158	H	1.761105	-0.376396	1.233429
H159	H	1.374138	-0.883303	0.709340
H160	H	1.874138	-0.383303	1.209340
H161	H	1.234421	-0.967417	0.622755
H162	H	1.734421	-0.467417	1.122755
H163	H	1.347478	-0.974261	0.598771
H164	H	1.847478	-0.474261	1.098771
O165	O	1.330331	-0.867749	0.441487
O166	O	1.830331	-0.367749	0.941487
C167	C	1.441875	-0.899848	0.348131
C168	C	1.941875	-0.399848	0.848131
C169	C	1.370934	-0.928023	0.403467
C170	C	1.870934	-0.428023	0.903467
H171	H	1.474712	-0.948563	0.317363
H172	H	1.974712	-0.448563	0.817363
H173	H	1.488164	-0.871589	0.387757
H174	H	1.988164	-0.371589	0.887757
H175	H	1.415225	-0.858519	0.298258
H176	H	1.915225	-0.358519	0.798258
H177	H	1.397510	-0.969378	0.453348
H178	H	1.897510	-0.469378	0.953348
H179	H	1.324657	-0.956238	0.363785
H180	H	1.824657	-0.456238	0.863785
O181	O	1.328077	-1.002724	0.435444
O182	O	1.828077	-0.502724	0.935444
C183	C	1.398558	-1.108513	0.376906
C184	C	1.898558	-0.608513	0.876906
C185	C	1.330817	-1.080758	0.436986
C186	C	1.830817	-0.580758	0.936986
H187	H	1.400783	-1.171606	0.378120
H188	H	1.900783	-0.671606	0.878120
H189	H	1.461378	-1.089132	0.396788
H190	H	1.961378	-0.589132	0.896788
H191	H	1.383621	-1.085337	0.311281
H192	H	1.883621	-0.585337	0.811281
H193	H	1.345675	-1.103922	0.502629
H194	H	1.845675	-0.603922	1.002629
H195	H	1.268017	-1.100131	0.417033
H196	H	1.768017	-0.600131	0.917033
