data_functionalizedCrystal
_audit_creation_method	'MofGen! by Chris Wilmer'
_symmetry_space_group_name_H-M	'P1'
_symmetry_Int_Tables_number	1
_symmetry_cell_setting	triclinic
loop_
_symmetry_equiv_pos_as_xyz
  x,y,z
_cell_length_a	18.101398
_cell_length_b	12.759400
_cell_length_c	18.101389
_cell_angle_alpha	90.014960
_cell_angle_beta	90.009745
_cell_angle_gamma	90.010241
loop_
_atom_site_label
_atom_site_type_symbol
_atom_site_fract_x
_atom_site_fract_y
_atom_site_fract_z
Zn1	Zn	1.132205	-0.418501	0.418568
Zn2	Zn	1.132137	-0.594169	0.294734
Zn3	Zn	1.008364	-0.418491	0.294761
Zn4	Zn	1.008351	-0.594125	0.418554
O5	O	1.070264	-0.506322	0.356655
O6	O	1.235829	-0.441826	0.402136
O7	O	1.115695	-0.570879	0.191105
O8	O	1.024827	-0.271471	0.311201
O9	O	1.235779	-0.570889	0.311156
O10	O	1.115812	-0.271479	0.402162
O11	O	1.024760	-0.441809	0.191125
O12	O	0.904730	-0.441767	0.311188
O13	O	1.024803	-0.570814	0.522189
O14	O	0.904720	-0.570804	0.402138
O15	O	1.115799	-0.441784	0.522199
O16	O	1.115682	-0.741184	0.311142
O17	O	1.024737	-0.741152	0.402112
C18	C	1.070220	-0.779289	0.356639
C19	C	1.070269	-0.896066	0.356657
C20	C	0.877854	-0.506280	0.356665
C21	C	0.795540	-0.506288	0.356687
C22	C	1.117677	-0.950910	0.309342
C23	C	1.117722	-1.060634	0.309364
C24	C	1.022946	-1.060660	0.404021
C25	C	1.022905	-0.950938	0.404001
C26	C	1.172393	-0.950895	0.254690
C27	C	1.172439	-1.060619	0.254713
C28	C	0.496449	-0.506350	0.356656
C29	C	0.527792	-0.587929	0.413597
C30	C	0.613411	-0.587674	0.413831
C31	C	0.644831	-0.506320	0.356671
C32	C	0.613754	-0.395666	0.377994
C33	C	0.528109	-0.396155	0.378399
C34	C	0.528002	-0.534449	0.278254
C35	C	0.613652	-0.536877	0.278673
C36	C	0.728691	-0.506296	0.356679
C37	C	0.412589	-0.506366	0.356650
C38	C	1.263426	-0.506364	0.356645
C39	C	1.345740	-0.506382	0.356640
C40	C	1.070307	-0.506295	0.549817
C41	C	1.070325	-0.506284	0.632131
C42	C	1.070329	-0.232288	0.356686
C43	C	1.070356	-0.115512	0.356700
C44	C	1.070264	-0.506272	0.164244
C45	C	1.070390	-0.505988	0.081930
C46	C	1.070368	-0.506087	0.931222
C47	C	1.012919	-0.587011	0.899890
C48	C	1.013075	-0.587386	0.814272
C49	C	1.070346	-0.506184	0.782839
C50	C	1.148378	-0.536246	0.813926
C51	C	1.148058	-0.536778	0.899571
C52	C	1.050465	-0.394921	0.899646
C53	C	1.048729	-0.395563	0.813996
C54	C	1.070339	-0.506238	0.698980
C55	C	1.070381	-0.506036	1.015081
H56	H	0.984309	-0.906285	0.442536
C57	C	1.246051	-1.106502	0.282519
N58	N	1.301495	-1.141063	0.303461
H59	H	1.151866	-0.916923	0.200186
C60	C	0.641120	-0.646868	0.256937
N61	N	0.661824	-0.729706	0.240561
C62	C	1.249851	-0.910571	0.275492
N63	N	1.308190	-0.880199	0.291160
C64	C	0.499959	-0.699148	0.395751
N65	N	0.478988	-0.782921	0.382310
C66	C	0.498818	-0.641586	0.252071
N67	N	0.476837	-0.722286	0.232358
H68	H	0.635041	-0.481772	0.233970
H69	H	1.157119	-1.090456	0.197351
H70	H	1.192332	-0.479157	0.793567
C71	C	0.500611	-0.454180	0.220937
N72	N	0.479975	-0.393719	0.177770
H73	H	0.994552	-0.367534	0.921245
C74	C	0.641798	-0.698531	0.395782
N75	N	0.663176	-0.782034	0.382190
H76	H	0.507375	-0.333196	0.338827
H77	H	0.506278	-0.569575	0.471352
H78	H	0.984384	-1.105350	0.442567
H79	H	0.633909	-0.569083	0.471922
H80	H	0.508143	-0.372320	0.435714
H81	H	1.025931	-0.668907	0.921416
H82	H	0.954882	-0.568391	0.920490
C83	C	1.101119	-0.309778	0.785077
N84	N	1.140582	-0.245166	0.763290
H85	H	1.192314	-0.480395	0.920298
H86	H	0.991304	-0.372893	0.793678
C87	C	0.641220	-0.311331	0.323695
N88	N	0.661898	-0.247814	0.282788
C89	C	1.171562	-0.644867	0.784963
N90	N	1.189020	-0.726684	0.763151
H91	H	0.635214	-0.371399	0.434686
H92	H	1.092308	-0.334628	0.919909
C93	C	0.934905	-0.561968	0.785875
N94	N	0.876023	-0.542826	0.764490
C95	C	1.030817	-0.698709	0.786598
N96	N	1.044166	-0.782567	0.765755
C97	C	1.170843	-0.646564	0.926569
N98	N	1.188003	-0.729258	0.946899
