data_functionalizedCrystal
_audit_creation_method	'MofGen! by Chris Wilmer'
_symmetry_space_group_name_H-M	'P1'
_symmetry_Int_Tables_number	1
_symmetry_cell_setting	triclinic
loop_
_symmetry_equiv_pos_as_xyz
  x,y,z
_cell_length_a	16.109301
_cell_length_b	16.109304
_cell_length_c	14.586319
_cell_angle_alpha	89.999019
_cell_angle_beta	89.999213
_cell_angle_gamma	83.462059
loop_
_atom_site_label
_atom_site_type_symbol
_atom_site_fract_x
_atom_site_fract_y
_atom_site_fract_z
O1	O	1.103132	0.106866	-0.076177
O2	O	1.436465	0.440199	0.257157
O3	O	1.769799	0.773533	0.590490
O4	O	0.861070	0.120165	-0.076190
O5	O	1.194403	0.453499	0.257143
O6	O	1.527737	0.786832	0.590476
O7	O	0.988749	-0.007515	-0.076184
O8	O	1.322083	0.325818	0.257150
O9	O	1.655416	0.659151	0.590483
O10	O	0.975453	0.234546	-0.076183
O11	O	1.308786	0.567880	0.257150
O12	O	1.642119	0.901213	0.590483
O13	O	0.988741	-0.007517	0.076297
O14	O	1.322074	0.325816	0.409631
O15	O	1.655407	0.659150	0.742964
O16	O	0.861061	0.120163	0.076290
O17	O	1.194395	0.453497	0.409624
O18	O	1.527728	0.786830	0.742957
O19	O	1.103123	0.106864	0.076304
O20	O	1.436456	0.440197	0.409638
O21	O	1.769790	0.773531	0.742971
Cu22	Cu	0.982091	0.113514	0.090220
Cu23	Cu	1.315425	0.446847	0.423553
Cu24	Cu	1.648758	0.780180	0.756887
Cu25	Cu	0.982102	0.113516	-0.090106
Cu26	Cu	1.315435	0.446849	0.243227
Cu27	Cu	1.648768	0.780182	0.576560
O28	O	0.975444	0.234545	0.076297
O29	O	1.308777	0.567878	0.409631
O30	O	1.642110	0.901211	0.742964
C31	C	0.830091	0.119626	0.000048
C32	C	1.163424	0.452959	0.333381
C33	C	1.496757	0.786292	0.666715
C34	C	0.737795	0.118010	0.000043
C35	C	1.071129	0.451344	0.333376
C36	C	1.404462	0.784677	0.666709
C37	C	0.988206	-0.038491	0.000055
C38	C	1.321539	0.294842	0.333388
C39	C	1.654873	0.628176	0.666721
C40	C	0.986590	-0.130786	0.000048
C41	C	1.319923	0.202547	0.333382
C42	C	1.653257	0.535880	0.666715
C43	C	0.515524	0.190018	0.000053
C44	C	0.848857	0.523351	0.333387
C45	C	1.182190	0.856685	0.666720
C46	C	0.428803	0.188494	0.000059
C47	C	0.762137	0.521827	0.333393
C48	C	1.095470	0.855161	0.666726
C49	C	0.448676	0.037005	0.000055
C50	C	0.782009	0.370339	0.333389
C51	C	1.115343	0.703672	0.666722
C52	C	0.535395	0.038530	0.000056
C53	C	0.868728	0.371864	0.333389
C54	C	1.202062	0.705197	0.666723
C55	C	0.568816	0.115039	0.000050
C56	C	0.902149	0.448372	0.333384
C57	C	1.235483	0.781706	0.666717
C58	C	0.395377	0.111990	0.000055
C59	C	0.728710	0.445324	0.333389
C60	C	1.062044	0.778657	0.666722
C61	C	0.301351	0.110337	0.000062
C62	C	0.634684	0.443670	0.333395
C63	C	0.968018	0.777004	0.666729
C64	C	0.662848	0.116693	0.000046
C65	C	0.996181	0.450026	0.333379
C66	C	1.329515	0.783359	0.666712
C67	C	0.982861	-0.343123	-0.083066
C68	C	1.316194	-0.009789	0.250268
C69	C	1.649528	0.323544	0.583601
C70	C	0.981335	-0.429843	-0.083065
C71	C	1.314668	-0.096509	0.250268
C72	C	1.648002	0.236824	0.583602
C73	C	0.981330	-0.429842	0.083178
C74	C	1.314663	-0.096508	0.416511
C75	C	1.647996	0.236825	0.749845
C76	C	0.982850	-0.343122	0.083176
C77	C	1.316183	-0.009789	0.416510
C78	C	1.649516	0.323544	0.749843
C79	C	0.983620	-0.299766	0.000052
C80	C	1.316953	0.033568	0.333385
C81	C	1.650286	0.366901	0.666718
C82	C	0.980573	-0.473205	0.000054
C83	C	1.313907	-0.139872	0.333387
C84	C	1.647240	0.193462	0.666721
C85	C	0.978919	-0.567231	0.000056
C86	C	1.312252	-0.233898	0.333389
C87	C	1.645585	0.099436	0.666722
C88	C	0.985273	-0.205734	0.000050
C89	C	1.318606	0.127600	0.333383
C90	C	1.651940	0.460933	0.666716
C91	C	1.134102	0.107404	0.000064
C92	C	1.467436	0.440737	0.333397
C93	C	1.800769	0.774070	0.666730
C94	C	1.226398	0.109019	0.000063
C95	C	1.559731	0.442352	0.333396
C96	C	1.893064	0.775686	0.666730
C97	C	0.975987	0.265520	0.000057
C98	C	1.309320	0.598854	0.333390
C99	C	1.642654	0.932187	0.666724
C100	C	0.977603	0.357816	0.000057
C101	C	1.310937	0.691149	0.333391
C102	C	1.644270	1.024482	0.666724
N103	N	0.982090	0.113511	0.217052
N104	N	1.315423	0.446845	0.550385
N105	N	1.648757	0.780178	0.883718
N106	N	0.982110	0.113511	-0.216938
N107	N	1.315443	0.446845	0.116395
N108	N	1.648776	0.780178	0.449729
C109	C	1.038645	0.056993	0.452061
C110	C	1.371978	0.390327	0.785395
C111	C	1.705312	0.723660	1.118728
C112	C	1.038647	0.056991	0.548042
C113	C	1.371981	0.390325	0.881376
C114	C	1.705314	0.723658	1.214709
C115	C	0.925549	0.170032	0.548046
C116	C	1.258882	0.503365	0.881379
C117	C	1.592215	0.836699	1.214713
C118	C	0.925543	0.170029	0.452066
C119	C	1.258876	0.503363	0.785400
C120	C	1.592209	0.836696	1.118733
C121	C	0.982096	0.113511	0.404077
C122	C	1.315429	0.446844	0.737410
C123	C	1.648762	0.780178	1.070743
C124	C	0.982104	0.113512	0.596037
C125	C	1.315437	0.446845	0.929371
C126	C	1.648771	0.780178	1.262704
C127	C	0.982106	0.113510	0.700104
C128	C	1.315439	0.446843	1.033438
C129	C	1.648773	0.780177	1.366771
C130	C	0.982093	0.113512	0.300003
C131	C	1.315426	0.446845	0.633336
C132	C	1.648759	0.780178	0.966669
H133	H	0.542732	0.252316	0.000056
H134	H	0.876065	0.585650	0.333389
H135	H	1.209399	0.918983	0.666722
Cl136	Cl	1.109737	-0.014061	0.391735
Cl137	Cl	1.443070	0.319272	0.725068
Cl138	Cl	1.776404	0.652605	1.058402
H139	H	0.879490	0.216053	0.412995
H140	H	1.212823	0.549386	0.746328
H141	H	1.546156	0.882720	1.079661
Cl142	Cl	0.602396	-0.055737	0.000059
Cl143	Cl	0.935730	0.277597	0.333393
Cl144	Cl	1.269063	0.610930	0.666726
H145	H	0.980704	-0.465154	0.150855
H146	H	1.314038	-0.131820	0.484188
H147	H	1.647371	0.201513	0.817522
H148	H	0.385416	0.249550	0.000064
H149	H	0.718749	0.582883	0.333397
H150	H	1.052082	0.916216	0.666730
H151	H	0.980716	-0.465140	-0.150748
H152	H	1.314049	-0.131806	0.182586
H153	H	1.647382	0.201527	0.515919
Cl154	Cl	0.406654	-0.059172	0.000056
Cl155	Cl	0.739988	0.274162	0.333390
Cl156	Cl	1.073321	0.607495	0.666723
Cl157	Cl	0.983824	-0.288619	-0.187565
Cl158	Cl	1.317158	0.044714	0.145768
Cl159	Cl	1.650491	0.378048	0.479102
H160	H	1.084694	0.010969	0.587109
H161	H	1.418027	0.344302	0.920442
H162	H	1.751361	0.677635	1.253776
H163	H	0.983463	-0.307820	0.150864
H164	H	1.316796	0.025514	0.484198
H165	H	1.650129	0.358847	0.817531
H166	H	0.879505	0.216049	0.587129
H167	H	1.212839	0.549382	0.920462
H168	H	1.546172	0.882716	1.253795
