data_functionalizedCrystal
_audit_creation_method	'MofGen! by Chris Wilmer'
_symmetry_space_group_name_H-M	'P1'
_symmetry_Int_Tables_number	1
_symmetry_cell_setting	triclinic
loop_
_symmetry_equiv_pos_as_xyz
  x,y,z
_cell_length_a	14.044220
_cell_length_b	23.532407
_cell_length_c	12.503572
_cell_angle_alpha	93.496478
_cell_angle_beta	86.164750
_cell_angle_gamma	88.018778
loop_
_atom_site_label
_atom_site_type_symbol
_atom_site_fract_x
_atom_site_fract_y
_atom_site_fract_z
O1	O	1.261903	0.134222	-0.089227
O2	O	0.985982	0.129269	-0.089253
O3	O	1.132262	0.049265	-0.089219
O4	O	1.115623	0.214225	-0.089260
O5	O	1.121261	0.055293	0.089420
O6	O	0.974981	0.135296	0.089386
O7	O	1.250902	0.140249	0.089413
Cu8	Cu	1.111937	0.138323	0.105711
Cu9	Cu	1.124947	0.131195	-0.105551
O10	O	1.104622	0.220253	0.089379
C11	C	0.945188	0.130115	0.000063
C12	C	0.840023	0.123648	0.000054
C13	C	0.647472	0.111828	0.000078
C14	C	0.589407	0.157687	0.000072
C15	C	0.482265	0.151110	0.000085
C16	C	0.754624	0.118404	0.000065
C17	C	1.126337	0.031040	0.000103
C18	C	1.125063	-0.032246	0.000111
C19	C	1.203641	-0.427092	0.000060
C20	C	1.202458	-0.486556	0.000051
O21	O	1.275300	-0.519354	0.000019
N22	N	1.115494	-0.513896	0.000044
C23	C	1.029708	-0.481769	0.000034
O24	O	0.955630	-0.510484	0.000026
C25	C	1.030893	-0.422305	0.000034
C26	C	1.117862	-0.394968	0.000053
C27	C	1.290603	-0.399754	0.000077
C28	C	1.291786	-0.340294	0.000087
C29	C	1.206006	-0.308170	0.000080
C30	C	1.119044	-0.335508	0.000063
C31	C	0.945109	-0.390179	0.000016
C32	C	0.946301	-0.330712	0.000016
C33	C	1.033270	-0.303375	0.000035
C34	C	1.034447	-0.243924	0.000066
N35	N	1.121411	-0.216584	0.000074
C36	C	1.207191	-0.248707	0.000081
C37	C	1.027228	-0.606646	0.000031
C38	C	1.026042	-0.666108	0.000038
C39	C	1.198792	-0.670891	0.000053
C40	C	1.199976	-0.611428	0.000054
C41	C	1.114192	-0.579306	0.000038
C42	C	1.209668	-0.123835	0.000103
C43	C	1.210842	-0.064369	0.000118
C44	C	1.038093	-0.059591	0.000097
C45	C	1.036917	-0.119052	0.000088
C46	C	1.122713	-0.151173	0.000087
O47	O	0.961644	-0.211090	0.000095
O48	O	1.281258	-0.219985	0.000075
C49	C	1.291696	0.139403	0.000094
C50	C	1.396861	0.145869	0.000096
C51	C	1.110547	0.238478	0.000054
C52	C	1.111822	0.301763	0.000039
N53	N	1.102793	0.143337	0.254301
N54	N	1.134098	0.126177	-0.254141
C55	C	1.089342	0.150717	0.473413
C56	C	1.147546	0.118799	0.526753
C57	C	1.140062	0.122905	0.648675
C58	C	1.096825	0.146611	0.351480
H59	H	0.620163	0.201888	0.000055
C60	C	0.941256	-0.149130	0.000073
C61	C	0.864442	-0.135868	0.092825
C62	C	0.768782	-0.165944	0.092797
C63	C	0.749937	-0.209282	0.000016
C64	C	0.826753	-0.222546	-0.092744
C65	C	0.922413	-0.192470	-0.092715
H66	H	0.878391	-0.103784	0.161513
H67	H	0.711918	-0.156124	0.161464
H68	H	0.679123	-0.231545	-0.000005
H69	H	0.812804	-0.254629	-0.161432
H70	H	0.979277	-0.202290	-0.161382
H71	H	0.616718	0.067631	0.000095
H72	H	1.033896	0.181126	0.519308
H73	H	1.279531	-0.149982	0.000099
C74	C	1.384971	-0.435083	0.000090
C75	C	1.450666	-0.425746	0.092869
C76	C	1.545041	-0.461069	0.092893
C77	C	1.573721	-0.505729	0.000138
C78	C	1.508025	-0.515068	-0.092648
C79	C	1.413650	-0.479745	-0.092672
H80	H	1.429437	-0.392684	0.161538
H81	H	1.593674	-0.454155	0.161579
H82	H	1.643583	-0.531877	0.000155
H83	H	1.529255	-0.548130	-0.161317
H84	H	1.365018	-0.486659	-0.161358
C85	C	0.932855	-0.571314	0.000033
C86	C	0.867141	-0.580643	-0.092730
C87	C	0.772769	-0.545315	-0.092729
C88	C	0.744111	-0.500657	0.000036
C89	C	0.809826	-0.491325	0.092806
C90	C	0.904198	-0.526653	0.092804
H91	H	0.888355	-0.613704	-0.161407
H92	H	0.724123	-0.552223	-0.161404
H93	H	0.674251	-0.474505	0.000037
H94	H	0.788612	-0.458264	0.161482
H95	H	0.952844	-0.519745	0.161480
H96	H	1.281666	-0.042114	0.000136
C97	C	1.222465	0.077720	0.464753
C98	C	1.229898	0.073588	0.341068
C99	C	1.304816	0.032513	0.279061
C100	C	1.372301	-0.004430	0.340739
C101	C	1.364871	-0.000299	0.464431
C102	C	1.289953	0.040776	0.526438
H103	H	1.179939	0.100936	0.295404
H104	H	1.310316	0.029455	0.187495
H105	H	1.427760	-0.034836	0.294838
H106	H	1.414829	-0.027648	0.510095
H107	H	1.284452	0.043833	0.618003
H108	H	1.362605	-0.318041	0.000098
H109	H	1.270794	-0.589174	0.000068
H110	H	1.268638	-0.697057	0.000055
H111	H	0.955222	-0.688360	0.000041
H112	H	0.968253	-0.033425	0.000095
H113	H	0.874290	-0.412427	-0.000005
H114	H	0.876442	-0.304561	0.000002
