data_functionalizedCrystal
_audit_creation_method	'MofGen! by Chris Wilmer'
_symmetry_space_group_name_H-M	'P1'
_symmetry_Int_Tables_number	1
_symmetry_cell_setting	triclinic
loop_
_symmetry_equiv_pos_as_xyz
  x,y,z
_cell_length_a	15.944551
_cell_length_b	13.339070
_cell_length_c	11.804365
_cell_angle_alpha	74.887832
_cell_angle_beta	101.844682
_cell_angle_gamma	99.564016
loop_
_atom_site_label
_atom_site_type_symbol
_atom_site_fract_x
_atom_site_fract_y
_atom_site_fract_z
O1	O	-1.157119	-0.110075	-0.098894
O2	O	-0.916321	-0.126155	-0.098923
O3	O	-1.009083	0.029150	-0.098908
O4	O	-1.064356	-0.265381	-0.098909
O5	O	-0.984653	-0.011695	0.099144
O6	O	-0.891890	-0.167000	0.099129
O7	O	-1.132688	-0.150920	0.099158
Cu8	Cu	-1.010058	-0.162690	0.117227
Cu9	Cu	-1.038950	-0.114386	-0.116992
O10	O	-1.039925	-0.306226	0.099143
C11	C	-0.872656	-0.145909	0.000099
C12	C	-0.778945	-0.143905	0.000088
C13	C	-0.987532	0.046418	0.000115
C14	C	-0.959703	0.158723	0.000107
C15	C	-1.176353	-0.131166	0.000133
C16	C	-1.270065	-0.133169	0.000136
C17	C	-0.540539	-0.042857	0.000111
C18	C	-0.502499	-0.069644	-0.097539
C19	C	-0.607374	-0.140286	0.000102
C20	C	-0.478440	-0.109937	0.097725
C21	C	-0.441642	-0.136784	0.000121
C22	C	-0.570578	-0.167083	-0.097629
C23	C	-0.546511	-0.207380	0.097723
C24	C	-0.508508	-0.234233	0.000049
C25	C	-0.702847	-0.142300	0.000090
C26	C	-0.346172	-0.134776	0.000124
C27	C	-1.061477	-0.323493	0.000117
C28	C	-1.089307	-0.435797	0.000118
N29	N	-0.989743	-0.196663	0.281964
C30	C	-1.176092	0.523496	0.000133
C31	C	-1.202241	0.417979	0.000148
C32	C	-1.141609	0.353160	0.000137
C33	C	-1.054823	0.393868	0.000113
C34	C	-1.028671	0.499394	0.000108
C35	C	-0.994187	0.329058	0.000111
C36	C	-0.907401	0.369767	0.000087
C37	C	-0.881254	0.475283	0.000082
C38	C	-0.941886	0.540101	0.000092
C39	C	-1.020339	0.223532	0.000116
C40	C	-0.872918	0.199430	0.000091
C41	C	-0.846769	0.304948	0.000077
N42	N	-1.059270	-0.080404	-0.281730
C43	C	-1.108049	0.001198	0.655932
C44	C	-1.123416	0.026903	0.531273
C45	C	-1.089999	-0.028986	0.468939
C46	C	-1.041213	-0.110585	0.531278
C47	C	-1.025851	-0.136298	0.655949
C48	C	-1.007800	-0.166482	0.468957
C49	C	-0.959015	-0.248082	0.531295
C50	C	-0.943655	-0.273790	0.655954
C51	C	-0.977072	-0.217901	0.718288
C52	C	-1.023163	-0.140769	0.344285
C53	C	-0.940964	-0.278266	0.344303
C54	C	-0.925598	-0.303971	0.468962
H55	H	-0.555046	0.038028	-0.000009
Br56	Br	-0.636869	-0.207310	-0.235378
H57	H	-0.482970	-0.011409	-0.180095
H58	H	-0.885876	-0.370411	0.519733
H59	H	-0.494216	-0.315165	-0.000006
H60	H	-0.438564	-0.085734	0.180278
Br61	Br	-0.906420	0.683344	-0.000089
H62	H	-0.566052	-0.265582	0.180283
H63	H	-1.091001	0.190398	0.000137
H64	H	-1.135259	0.046691	0.706692
Br65	Br	-0.956209	-0.252783	0.887476
H66	H	-0.903939	-0.340240	0.706710
Br67	Br	-0.895617	-0.354127	0.259717
H68	H	-1.062884	-0.074331	0.293541
Br69	Br	-1.177098	0.209956	0.000153
H70	H	-1.272901	0.384841	0.000169
H71	H	-1.102512	-0.008053	0.367436
Br72	Br	-1.258365	0.611460	0.000176
Br73	Br	-0.763471	0.530524	0.000071
Br74	Br	-0.728993	0.360209	0.000037
H75	H	-0.823545	0.146653	0.000088
Br76	Br	-1.189623	0.137636	0.446672
