data_functionalizedCrystal
_audit_creation_method	'MofGen! by Chris Wilmer'
_symmetry_space_group_name_H-M	'P1'
_symmetry_Int_Tables_number	1
_symmetry_cell_setting	triclinic
loop_
_symmetry_equiv_pos_as_xyz
  x,y,z
_cell_length_a	10.686220
_cell_length_b	19.121063
_cell_length_c	19.120915
_cell_angle_alpha	85.261346
_cell_angle_beta	83.402892
_cell_angle_gamma	96.652836
loop_
_atom_site_label
_atom_site_type_symbol
_atom_site_fract_x
_atom_site_fract_y
_atom_site_fract_z
Zn1	Zn	1.887697	-0.212792	0.325674
Zn2	Zn	2.387697	0.287208	0.825674
Zn3	Zn	1.887547	-0.325452	0.213032
Zn4	Zn	2.387547	0.174548	0.713032
Zn5	Zn	1.684715	-0.216863	0.217070
Zn6	Zn	2.184715	0.283137	0.717070
Zn7	Zn	1.665701	-0.340333	0.340535
Zn8	Zn	2.165701	0.159667	0.840535
O9	O	1.781415	-0.273860	0.274077
O10	O	2.281415	0.226140	0.774077
O11	O	2.065469	-0.219805	0.302822
O12	O	2.565469	0.280195	0.802822
O13	O	1.868536	-0.306523	0.114756
O14	O	2.368536	0.193477	0.614756
O15	O	1.719662	-0.117503	0.226947
O16	O	2.219662	0.382497	0.726947
O17	O	2.065359	-0.302576	0.220065
O18	O	2.565359	0.197424	0.720065
O19	O	1.868791	-0.114512	0.306738
O20	O	2.368791	0.385488	0.806738
O21	O	1.719516	-0.226744	0.117722
O22	O	2.219516	0.273256	0.617722
O23	O	1.504401	-0.241174	0.241357
O24	O	2.004401	0.258826	0.741357
O25	O	1.687254	-0.327938	0.437375
O26	O	2.187254	0.172062	0.937375
O27	O	1.490431	-0.331886	0.332066
O28	O	1.990431	0.168114	0.832066
O29	O	1.850354	-0.234235	0.426457
O30	O	2.350354	0.265765	0.926457
O31	O	1.850098	-0.426246	0.234475
O32	O	2.350098	0.073754	0.734475
O33	O	1.687109	-0.437179	0.328151
O34	O	2.187109	0.062821	0.828151
C35	C	1.451317	-0.288587	0.288763
C36	C	1.951317	0.211413	0.788763
C37	C	1.310097	-0.294905	0.295063
C38	C	1.810097	0.205095	0.795063
C39	C	1.766557	-0.457335	0.282501
C40	C	2.266557	0.042665	0.782501
C41	C	1.760315	-0.535823	0.286123
C42	C	2.260315	-0.035823	0.786123
C43	C	1.842303	-0.566979	0.239087
C44	C	2.342303	-0.066979	0.739087
C45	C	1.836439	-0.640727	0.242497
C46	C	2.336439	-0.140727	0.742497
C47	C	1.748582	-0.683316	0.292941
C48	C	2.248582	-0.183316	0.792941
C49	C	1.666591	-0.652155	0.339982
C50	C	2.166591	-0.152155	0.839982
C51	C	1.672461	-0.578408	0.336574
C52	C	2.172461	-0.078408	0.836574
C53	C	1.726614	-0.906268	0.305671
C54	C	2.226614	-0.406268	0.805671
C55	C	1.720747	-0.980019	0.309073
C56	C	2.220747	-0.480019	0.809073
C57	C	1.890599	-0.968586	0.211590
C58	C	2.390599	-0.468586	0.711590
C59	C	1.896456	-0.894839	0.208184
C60	C	2.396456	-0.394839	0.708184
C61	C	1.814470	-0.863684	0.255227
C62	C	2.314470	-0.363684	0.755227
C63	C	1.742584	-0.758698	0.296426
C64	C	2.242584	-0.258698	0.796426
C65	C	1.820475	-0.788303	0.251744
C66	C	2.320475	-0.288303	0.751744
C67	C	2.112802	-0.259076	0.259335
C68	C	2.612802	0.240924	0.759335
C69	C	2.254020	-0.252777	0.253053
C70	C	2.754020	0.247223	0.753053
C71	C	1.766700	-0.282292	0.458253
C72	C	2.266700	0.217708	0.958253
C73	C	1.760429	-0.285886	0.536738
C74	C	2.260429	0.214114	1.036738
C75	C	1.796364	-0.089668	0.265635
C76	C	2.296364	0.410332	0.765635
C77	C	1.802735	-0.011176	0.262037
C78	C	2.302735	0.488824	0.762037
C79	C	1.796150	-0.265406	0.090613
C80	C	2.296150	0.234594	0.590613
C81	C	1.802683	-0.261603	0.012108
C82	C	2.302683	0.238397	0.512108
C83	C	1.720711	-0.308695	0.980918
C84	C	2.220711	0.191305	1.480918
C85	C	1.726600	-0.305309	0.907173
C86	C	2.226600	0.194691	1.407173
C87	C	1.814467	-0.254833	0.864619
C88	C	2.314467	0.245167	1.364619
C89	C	1.896442	-0.207736	0.895814
C90	C	2.396442	0.292264	1.395814
C91	C	1.890547	-0.211120	0.969558
C92	C	2.390547	0.288880	1.469558
C93	C	1.836509	-0.242173	0.641677
C94	C	2.336509	0.257827	1.141677
C95	C	1.842401	-0.238794	0.567928
C96	C	2.342401	0.261206	1.067928
C97	C	1.672556	-0.336366	0.579292
C98	C	2.172556	0.163634	1.079292
C99	C	1.666673	-0.339748	0.653037
C100	C	2.166673	0.160252	1.153037
C101	C	1.748644	-0.292649	0.684225
C102	C	2.248644	0.207351	1.184225
C103	C	1.820490	-0.251372	0.789240
C104	C	2.320490	0.248628	1.289240
C105	C	1.742614	-0.296107	0.759603
C106	C	2.242614	0.203893	1.259603
H107	H	1.913841	-0.532307	0.198008
H108	H	2.413841	-0.032307	0.698008
H109	H	1.314047	-0.211876	0.212266
H110	H	1.814047	0.288124	0.712266
Cl111	Cl	1.632136	-0.812245	0.359838
Cl112	Cl	2.132136	-0.312245	0.859838
Cl113	Cl	1.217417	-0.358065	0.358032
Cl114	Cl	1.717417	0.141935	0.858032
H115	H	1.903202	-0.666091	0.204195
H116	H	2.403202	-0.166091	0.704195
Cl117	Cl	2.006928	-0.841303	0.144776
Cl118	Cl	2.506928	-0.341303	0.644776
Cl119	Cl	1.993668	-1.007757	0.152458
Cl120	Cl	2.493668	-0.507757	0.652458
H121	H	1.649217	-1.014694	0.350162
H122	H	2.149217	-0.514694	0.850162
H123	H	1.659855	-0.880907	0.343974
H124	H	2.159855	-0.380907	0.843974
Cl125	Cl	1.939624	-0.182996	0.680874
Cl126	Cl	2.439624	0.317004	1.180874
H127	H	1.595060	-0.686837	0.381056
H128	H	2.095060	-0.186837	0.881056
H129	H	1.957293	-0.172770	0.994952
H130	H	2.457293	0.327230	1.494952
H131	H	1.605700	-0.553042	0.374876
H132	H	2.105700	-0.053042	0.874876
H133	H	1.892013	-0.753625	0.210675
H134	H	2.392013	-0.253625	0.710675
H135	H	1.649165	-0.349801	1.015561
H136	H	2.149165	0.150199	1.515561
Cl137	Cl	1.556221	-0.403213	0.706527
Cl138	Cl	2.056221	0.096787	1.206527
Cl139	Cl	1.623538	-0.364510	0.867966
Cl140	Cl	2.123538	0.135490	1.367966
H141	H	1.605818	-0.374711	0.553890
H142	H	2.105818	0.125289	1.053890
H143	H	1.671067	-0.337201	0.794254
H144	H	2.171067	0.162799	1.294254
Cl145	Cl	1.952873	-0.175335	0.514432
Cl146	Cl	2.452873	0.324665	1.014432
Cl147	Cl	2.006876	-0.144265	0.842319
Cl148	Cl	2.506876	0.355735	1.342319
Cl149	Cl	1.930915	-0.187900	0.735739
Cl150	Cl	2.430915	0.312100	1.235739
