data_functionalizedCrystal
_audit_creation_method	'MofGen! by Chris Wilmer'
_symmetry_space_group_name_H-M	'P1'
_symmetry_Int_Tables_number	1
_symmetry_cell_setting	triclinic
loop_
_symmetry_equiv_pos_as_xyz
  x,y,z
_cell_length_a	12.837943
_cell_length_b	22.610064
_cell_length_c	12.837942
_cell_angle_alpha	89.994876
_cell_angle_beta	94.828940
_cell_angle_gamma	90.007937
loop_
_atom_site_label
_atom_site_type_symbol
_atom_site_fract_x
_atom_site_fract_y
_atom_site_fract_z
O1	O	1.402342	0.049173	0.272127
O2	O	1.099208	0.049177	0.258684
O3	O	1.244053	0.049172	0.113838
O4	O	1.257497	0.049179	0.416972
O5	O	1.244027	-0.049198	0.113859
O6	O	1.099182	-0.049192	0.258704
O7	O	1.402316	-0.049196	0.272148
Zn8	Zn	1.250745	-0.064812	0.265429
Zn9	Zn	1.250779	0.064793	0.265402
O10	O	1.257470	-0.049190	0.416993
C11	C	1.060126	-0.000007	0.254153
C12	C	0.943711	-0.000006	0.240608
C13	C	0.718837	-0.000011	0.403437
C14	C	0.609454	-0.000010	0.390716
C15	C	0.615562	-0.000008	0.202445
C16	C	0.724944	-0.000009	0.215166
C17	C	0.776578	-0.000009	0.315666
C18	C	0.885962	-0.000006	0.328386
C19	C	0.892067	-0.000008	0.140116
C20	C	0.782685	-0.000007	0.127395
N21	N	1.250729	-0.153265	0.265448
C22	C	1.314921	-0.561908	0.201276
C23	C	1.314925	-0.623828	0.201269
O24	O	1.369461	-0.655849	0.146718
N25	N	1.250776	-0.654802	0.265380
C26	C	1.186610	-0.623852	0.329495
O27	O	1.132046	-0.655883	0.384025
C28	C	1.186601	-0.561933	0.329496
C29	C	1.250762	-0.530963	0.265388
C30	C	1.379076	-0.530938	0.137172
C31	C	1.379073	-0.469022	0.137181
C32	C	1.314914	-0.438077	0.201293
C33	C	1.250759	-0.469047	0.265397
C34	C	1.122430	-0.530985	0.393604
C35	C	1.122426	-0.469062	0.393599
C36	C	1.186587	-0.438092	0.329491
C37	C	1.186597	-0.376187	0.329518
N38	N	1.250746	-0.345213	0.265406
C39	C	1.314905	-0.376158	0.201294
C40	C	1.186633	-0.753886	0.329487
C41	C	1.186647	-0.815803	0.329493
C42	C	1.314961	-0.815775	0.201265
C43	C	1.314952	-0.753857	0.201265
C44	C	1.250783	-0.722912	0.265376
C45	C	1.314893	-0.246131	0.201318
C46	C	1.314887	-0.184210	0.201336
C47	C	1.186570	-0.184243	0.329559
C48	C	1.186579	-0.246159	0.329546
C49	C	1.250744	-0.277101	0.265417
O50	O	1.132086	-0.344126	0.384037
O51	O	1.369450	-0.344120	0.146763
C52	C	1.441398	-0.000010	0.276679
C53	C	1.557813	-0.000008	0.290223
C54	C	1.239499	-0.000013	0.074780
C55	C	1.225954	-0.000011	-0.041635
N56	N	1.250802	0.153246	0.265376
C57	C	1.388784	-0.000001	-0.266510
C58	C	1.376062	0.000000	-0.375892
C59	C	1.187791	-0.000004	-0.369785
C60	C	1.200513	-0.000005	-0.260402
C61	C	1.301012	-0.000004	-0.208769
C62	C	1.313732	-0.000010	-0.099384
C63	C	1.125462	-0.000010	-0.093279
C64	C	1.112741	-0.000008	-0.202661
C65	C	1.262025	-0.000005	0.456052
C66	C	1.275569	-0.000002	0.572467
H67	H	0.740630	-0.000014	0.045571
F68	F	0.953527	0.000001	0.046697
F69	F	1.383181	-0.151252	0.133103
H70	H	0.573502	-0.000056	0.120623
F71	F	1.080841	0.000010	-0.424755
F72	F	1.032043	-0.000019	-0.031819
H73	H	1.030917	-0.000007	-0.244717
H74	H	1.070168	-0.443870	0.445804
H75	H	0.928000	-0.000007	0.410218
H76	H	1.367141	-0.271317	0.149097
H77	H	0.760878	-0.000010	0.485268
H78	H	0.562446	-0.000013	0.462189
H79	H	1.431315	-0.443810	0.084976
H80	H	1.431321	-0.556128	0.084960
F81	F	1.118303	-0.279119	0.397790
H82	H	1.367197	-0.728644	0.149063
F83	F	1.383243	-0.848721	0.133029
H84	H	1.070184	-0.556192	0.445806
F85	F	1.495741	-0.000013	-0.211555
H86	H	1.134413	-0.841015	0.381707
F87	F	1.118339	-0.720958	0.397734
H88	H	1.134336	-0.159038	0.381762
H89	H	1.395564	-0.000012	-0.057346
F90	F	1.469481	0.000006	-0.437341
