data_functionalizedCrystal
_audit_creation_method	'MofGen! by Chris Wilmer'
_symmetry_space_group_name_H-M	'P1'
_symmetry_Int_Tables_number	1
_symmetry_cell_setting	triclinic
loop_
_symmetry_equiv_pos_as_xyz
  x,y,z
_cell_length_a	21.395361
_cell_length_b	21.395364
_cell_length_c	12.827885
_cell_angle_alpha	90.022002
_cell_angle_beta	89.961841
_cell_angle_gamma	89.952591
loop_
_atom_site_label
_atom_site_type_symbol
_atom_site_fract_x
_atom_site_fract_y
_atom_site_fract_z
Zn1	Zn	-0.249129	-0.957839	-0.590864
Zn2	Zn	-0.353919	-0.957747	-0.416099
Zn3	Zn	-0.249190	-0.853060	-0.416130
Zn4	Zn	-0.353903	-0.853023	-0.590791
O5	O	-0.301535	-0.905417	-0.503471
O6	O	-0.263011	-1.045505	-0.567699
O7	O	-0.340059	-0.943838	-0.269867
O8	O	-0.161504	-0.867013	-0.439352
O9	O	-0.340000	-1.045437	-0.439300
O10	O	-0.161459	-0.943993	-0.567729
O11	O	-0.263115	-0.866924	-0.269889
O12	O	-0.263099	-0.765377	-0.439281
O13	O	-0.339972	-0.866950	-0.737037
O14	O	-0.340032	-0.765350	-0.567603
O15	O	-0.262995	-0.943958	-0.737091
O16	O	-0.441595	-0.943802	-0.439229
O17	O	-0.441583	-0.866861	-0.567574
C18	C	-0.301571	-0.742630	-0.503438
C19	C	-0.301601	-0.672988	-0.503449
C20	C	-0.261580	-0.640333	-0.570409
C21	C	-0.261565	-0.574897	-0.570411
C22	C	-0.301583	-0.542120	-0.503465
C23	C	-0.341607	-0.574784	-0.436492
C24	C	-0.341616	-0.640218	-0.436484
C25	C	-0.358012	-0.438396	-0.495056
C26	C	-0.358004	-0.372963	-0.495071
C27	C	-0.301555	-0.340299	-0.503484
C28	C	-0.245111	-0.373077	-0.511903
C29	C	-0.245120	-0.438511	-0.511895
C30	C	-0.301577	-0.471168	-0.503466
C31	C	-0.261514	-0.236691	-0.570450
C32	C	-0.261498	-0.171254	-0.570446
C33	C	-0.341546	-0.171142	-0.436531
C34	C	-0.341556	-0.236578	-0.436531
C35	C	-0.301541	-0.269348	-0.503496
C36	C	-0.464323	-0.905335	-0.503413
C37	C	-0.533964	-0.905357	-0.503423
C38	C	-0.566663	-0.945455	-0.436662
C39	C	-0.632098	-0.945484	-0.436685
C40	C	-0.664833	-0.905404	-0.503459
C41	C	-0.632126	-0.865302	-0.570233
C42	C	-0.566692	-0.865279	-0.570215
C43	C	-0.768563	-0.848989	-0.511647
C44	C	-0.833996	-0.849011	-0.511657
C45	C	-0.866653	-0.905477	-0.503520
C46	C	-0.833870	-0.961921	-0.495350
C47	C	-0.768436	-0.961898	-0.495332
C48	C	-0.735785	-0.905425	-0.503486
C49	C	-0.970304	-0.945610	-0.436781
C50	C	-1.035741	-0.945640	-0.436812
C51	C	-1.035768	-0.865453	-0.570353
C52	C	-0.970332	-0.865428	-0.570328
C53	C	-0.937605	-0.905506	-0.503536
C54	C	-0.138112	-0.905517	-0.503552
C55	C	-0.068471	-0.905560	-0.503587
C56	C	-0.301475	-0.905460	-0.776041
C57	C	-0.301450	-0.905478	-0.892194
C58	C	-0.301508	-0.068841	-0.503499
C59	C	-0.301516	-0.138482	-0.503497
C60	C	-0.263351	-0.943588	-0.944006
C61	C	-0.263324	-0.943608	-1.064056
C62	C	-0.301550	-0.905411	-0.231961
C63	C	-0.301399	-0.905514	-0.115808
H64	H	-0.228971	-0.548304	-0.624937
H65	H	-0.230752	-0.976199	-0.899487
H66	H	-0.374190	-0.548092	-0.381983
H67	H	-0.540068	-0.832625	-0.624581
F68	F	-0.344039	-0.862868	-1.057580
H69	H	-0.403984	-0.464985	-0.488204
F70	F	-0.344055	-0.862846	-0.950379
F71	F	-0.185051	-0.473392	-0.520851
F72	F	-0.935531	-0.822747	-0.641381
F73	F	-0.220692	-0.986259	-1.122291
H74	H	-0.540018	-0.978090	-0.382279
F75	F	-0.868880	-0.788938	-0.520349
H76	H	-0.228995	-0.667010	-0.624936
F77	F	-1.070602	-0.822800	-0.641425
F78	F	-0.733813	-0.788886	-0.520309
H79	H	-1.062363	-0.978297	-0.382449
F80	F	-0.185028	-0.338319	-0.520856
H81	H	-0.228904	-0.144667	-0.624971
F82	F	-0.218923	-0.271570	-0.641713
F83	F	-0.418076	-0.338085	-0.486126
F84	F	-0.733548	-1.021969	-0.486645
H85	H	-0.374149	-0.263166	-0.382009
F86	F	-0.384133	-0.136263	-0.365275
F87	F	-0.384213	-0.674974	-0.365210
F88	F	-0.666905	-0.988164	-0.365625
H89	H	-0.860458	-1.007901	-0.488724
H90	H	-0.943656	-0.978246	-0.382398
H91	H	-0.658783	-0.832670	-0.624602
