data_functionalizedCrystal
_audit_creation_method	'MofGen! by Chris Wilmer'
_symmetry_space_group_name_H-M	'P1'
_symmetry_Int_Tables_number	1
_symmetry_cell_setting	triclinic
loop_
_symmetry_equiv_pos_as_xyz
  x,y,z
_cell_length_a	9.065218
_cell_length_b	7.540329
_cell_length_c	9.065218
_cell_angle_alpha	89.998243
_cell_angle_beta	85.015885
_cell_angle_gamma	89.996962
loop_
_atom_site_label
_atom_site_type_symbol
_atom_site_fract_x
_atom_site_fract_y
_atom_site_fract_z
O1	O	-1.960398	0.147479	-0.216355
O2	O	-1.627065	0.480812	0.116979
O3	O	-1.293732	0.814146	0.450312
O4	O	-1.531114	0.147481	-0.234101
O5	O	-1.197780	0.480814	0.099232
O6	O	-0.864447	0.814148	0.432566
O7	O	-1.754629	0.147476	-0.010585
O8	O	-1.421296	0.480810	0.322748
O9	O	-1.087963	0.814143	0.656081
O10	O	-1.736883	0.147484	-0.439870
O11	O	-1.403549	0.480817	-0.106537
O12	O	-1.070216	0.814150	0.226796
O13	O	-1.754616	-0.147489	-0.010583
O14	O	-1.421282	0.185845	0.322751
O15	O	-1.087949	0.519178	0.656084
O16	O	-1.531100	-0.147484	-0.234098
O17	O	-1.197767	0.185849	0.099235
O18	O	-0.864433	0.519183	0.432568
O19	O	-1.960385	-0.147486	-0.216352
O20	O	-1.627052	0.185847	0.116982
O21	O	-1.293718	0.519181	0.450315
Cu22	Cu	-1.745741	-0.174418	-0.225225
Cu23	Cu	-1.412408	0.158916	0.108109
Cu24	Cu	-1.079075	0.492249	0.441442
Cu25	Cu	-1.745757	0.174413	-0.225228
Cu26	Cu	-1.412424	0.507746	0.108105
Cu27	Cu	-1.079091	0.841079	0.441438
O28	O	-1.736869	-0.147481	-0.439867
O29	O	-1.403536	0.185852	-0.106534
O30	O	-1.070203	0.519185	0.226799
C31	C	-1.476120	-0.000001	-0.232394
C32	C	-1.142787	0.333332	0.100939
C33	C	-0.809454	0.666665	0.434273
C34	C	-1.312277	-0.000000	-0.227294
C35	C	-0.978944	0.333333	0.106039
C36	C	-0.645611	0.666666	0.439372
N37	N	-1.745741	-0.419766	-0.225222
N38	N	-1.412408	-0.086433	0.108112
N39	N	-1.079074	0.246900	0.441445
C40	C	-1.752917	-0.000003	0.044403
C41	C	-1.419584	0.333330	0.377736
C42	C	-1.086250	0.666663	0.711069
C43	C	-1.747817	0.000005	0.208245
C44	C	-1.414484	0.333339	0.541579
C45	C	-1.081151	0.666672	0.874912
C46	C	-2.015378	0.000000	-0.218059
C47	C	-1.682045	0.333333	0.115275
C48	C	-1.348712	0.666667	0.448608
C49	C	-2.179221	0.000011	-0.223158
C50	C	-1.845888	0.333344	0.110175
C51	C	-1.512555	0.666678	0.443508
N52	N	-1.745769	0.419761	-0.225220
N53	N	-1.412436	0.753094	0.108113
N54	N	-1.079103	1.086428	0.441447
C55	C	-1.738582	0.000002	-0.494855
C56	C	-1.405248	0.333335	-0.161522
C57	C	-1.071915	0.666669	0.171811
C58	C	-1.743681	0.000005	-0.658698
C59	C	-1.410348	0.333339	-0.325365
C60	C	-1.077015	0.666672	0.007968
