data_functionalizedCrystal
_audit_creation_method	'MofGen! by Chris Wilmer'
_symmetry_space_group_name_H-M	'P1'
_symmetry_Int_Tables_number	1
_symmetry_cell_setting	triclinic
loop_
_symmetry_equiv_pos_as_xyz
  x,y,z
_cell_length_a	13.262522
_cell_length_b	14.519709
_cell_length_c	13.596369
_cell_angle_alpha	90.006934
_cell_angle_beta	105.921070
_cell_angle_gamma	84.070299
loop_
_atom_site_label
_atom_site_type_symbol
_atom_site_fract_x
_atom_site_fract_y
_atom_site_fract_z
O1	O	1.392918	0.124217	0.454386
O2	O	1.087357	0.137724	0.372653
O3	O	1.248239	-0.003249	0.415678
O4	O	1.232036	0.265189	0.411361
O5	O	1.248223	-0.003256	0.252091
O6	O	1.087341	0.137717	0.209066
O7	O	1.392902	0.124209	0.290799
Zn8	Zn	1.240119	0.130962	0.223959
Zn9	Zn	1.240140	0.130972	0.439493
O10	O	1.232020	0.265182	0.247774
C11	C	1.048243	0.136963	0.280400
C12	C	0.931720	0.134697	0.249231
C13	C	0.876976	0.133630	0.145412
C14	C	0.767499	0.131492	0.116120
C15	C	0.712753	0.130428	0.190645
C16	C	0.767496	0.131502	0.294466
C17	C	0.876986	0.133633	0.323761
C18	C	0.712763	0.130431	0.368994
C19	C	0.767506	0.131505	0.472816
C20	C	0.876985	0.133637	0.502106
C21	C	0.931730	0.134700	0.427581
C22	C	0.603273	0.128300	0.339699
C23	C	0.603283	0.128303	0.518049
C24	C	0.712760	0.130441	0.547341
C25	C	1.247476	-0.037614	0.333682
C26	C	1.245213	-0.140001	0.333076
C27	C	1.236883	-0.514916	0.330874
C28	C	1.239196	-0.410603	0.331485
C29	C	1.241048	-0.327462	0.331974
C30	C	1.243361	-0.223142	0.332587
C31	C	1.432016	0.124970	0.383055
C32	C	1.548539	0.127236	0.414229
C33	C	1.232783	0.299547	0.329772
C34	C	1.235046	0.401934	0.330384
N35	N	1.240112	0.130954	0.076866
C36	C	1.240139	0.130973	-0.324418
C37	C	1.240128	0.130971	-0.212769
C38	C	1.240126	0.130964	-0.123780
C39	C	1.240114	0.130961	-0.012124
N40	N	1.240155	0.130972	0.586588
H41	H	0.623611	0.128689	0.166789
O42	O	0.766043	0.131605	0.648153
C43	C	0.817611	0.212626	0.667299
H44	H	0.830087	0.239541	0.593215
H45	H	0.767202	0.267667	0.697827
C46	C	0.909860	0.157364	0.838038
C47	C	0.925191	0.190417	0.747050
H48	H	0.976218	0.143667	0.887236
H49	H	0.875115	0.102780	0.825142
H50	H	0.867849	0.203237	0.863465
H51	H	0.967189	0.144540	0.721618
H52	H	0.959945	0.244993	0.759944
O53	O	0.550081	0.127096	0.238874
C54	C	0.498469	0.046099	0.219727
H55	H	0.539664	-0.009016	0.281349
H56	H	0.412838	0.062521	0.220768
C57	C	0.451519	0.077583	0.038479
C58	C	0.502122	0.009887	0.114159
H59	H	0.453767	0.055248	-0.026642
H60	H	0.486288	0.132155	0.051378
H61	H	0.380165	0.091262	0.039360
H62	H	0.573477	-0.003782	0.113286
H63	H	0.467365	-0.044688	0.101258
H64	H	0.558709	0.127439	0.578733
O65	O	0.714480	0.130498	0.015230
C66	C	0.786275	0.131873	-0.044266
H67	H	0.860028	0.162555	0.001613
H68	H	0.808793	0.058202	-0.065668
C69	C	0.644069	0.153763	-0.198666
C70	C	0.734651	0.191454	-0.142320
H71	H	0.612225	0.190511	-0.259153
H72	H	0.595699	0.152833	-0.158583
H73	H	0.662847	0.092371	-0.216491
H74	H	0.715870	0.252840	-0.124485
H75	H	0.783017	0.192396	-0.182402
H76	H	0.921561	0.134489	0.084745
H77	H	1.020875	0.136444	0.451425
H78	H	0.921555	0.134498	0.586644
