data_functionalizedCrystal
_audit_creation_method	'MofGen! by Chris Wilmer'
_symmetry_space_group_name_H-M	'P1'
_symmetry_Int_Tables_number	1
_symmetry_cell_setting	triclinic
loop_
_symmetry_equiv_pos_as_xyz
  x,y,z
_cell_length_a	16.625548
_cell_length_b	12.594516
_cell_length_c	16.625539
_cell_angle_alpha	89.978538
_cell_angle_beta	89.982945
_cell_angle_gamma	90.017121
loop_
_atom_site_label
_atom_site_type_symbol
_atom_site_fract_x
_atom_site_fract_y
_atom_site_fract_z
Zn1	Zn	1.232688	-0.423729	-0.455937
Zn2	Zn	1.732688	0.076271	0.044063
Zn3	Zn	1.232615	-0.601725	-0.321116
Zn4	Zn	1.732615	-0.101725	0.178884
Zn5	Zn	1.097859	-0.423764	-0.321118
Zn6	Zn	1.597859	0.076236	0.178882
Zn7	Zn	1.097836	-0.601670	-0.455906
Zn8	Zn	1.597836	-0.101670	0.044094
O9	O	1.165249	-0.512722	-0.388519
O10	O	1.665249	-0.012722	0.111481
O11	O	1.345511	-0.447350	-0.438065
O12	O	1.845511	0.052650	0.061935
O13	O	1.214718	-0.578156	-0.208284
O14	O	1.714718	-0.078156	0.291716
O15	O	1.115784	-0.274814	-0.339016
O16	O	1.615784	0.225186	0.160984
O17	O	1.345457	-0.578122	-0.339013
O18	O	1.845457	-0.078122	0.160987
O19	O	1.214843	-0.274788	-0.438067
O20	O	1.714843	0.225212	0.061933
O21	O	1.115713	-0.447409	-0.208285
O22	O	1.615713	0.052591	0.291715
O23	O	0.985023	-0.447355	-0.338985
O24	O	1.485023	0.052645	0.161015
O25	O	1.115745	-0.578028	-0.568743
O26	O	1.615745	-0.078028	-0.068743
O27	O	0.985006	-0.578062	-0.438014
O28	O	1.485006	-0.078062	0.061986
O29	O	1.214821	-0.447296	-0.568766
O30	O	1.714821	0.052704	-0.068766
O31	O	1.214696	-0.750663	-0.338983
O32	O	1.714696	-0.250663	0.161017
O33	O	1.115674	-0.750623	-0.438012
O34	O	1.615674	-0.250623	0.061988
C35	C	0.955759	-0.512707	-0.388497
C36	C	1.455759	-0.012707	0.111503
C37	C	0.866137	-0.512726	-0.388506
C38	C	1.366137	-0.012726	0.111494
C39	C	0.537962	-0.512733	-0.388541
C40	C	1.037962	-0.012733	0.111459
C41	C	0.629270	-0.512728	-0.388529
C42	C	1.129270	-0.012728	0.111471
C43	C	0.702047	-0.512730	-0.388523
C44	C	1.202047	-0.012730	0.111477
C45	C	0.793361	-0.512724	-0.388512
C46	C	1.293361	-0.012724	0.111488
C47	C	1.165197	-0.789263	-0.388511
C48	C	1.665197	-0.289263	0.111489
C49	C	1.165248	-0.907568	-0.388535
C50	C	1.665248	-0.407568	0.111465
C51	C	1.111385	-0.976838	-0.442359
C52	C	1.611385	-0.476838	0.057641
C53	C	1.091744	-1.047696	-0.368785
C54	C	1.591744	-0.547696	0.131215
C55	C	1.184962	-1.047510	-0.462122
C56	C	1.684962	-0.547510	0.037878
C57	C	1.145568	-0.976868	-0.314921
C58	C	1.645568	-0.476868	0.185079
C59	C	1.238820	-0.976675	-0.408308
C60	C	1.738820	-0.476675	0.091692
C61	C	1.219208	-1.047501	-0.334683
C62	C	1.719208	-0.547501	0.165317
C63	C	1.375558	-0.512738	-0.388542
C64	C	1.875558	-0.012738	0.111458
C65	C	1.465179	-0.512745	-0.388552
C66	C	1.965179	-0.012745	0.111448
C67	C	1.165289	-0.512652	-0.598828
C68	C	1.665289	-0.012652	-0.098828
C69	C	1.165306	-0.512622	-0.688449
C70	C	1.665306	-0.012622	-0.188449
C71	C	1.165324	-0.235101	-0.388545
C72	C	1.665324	0.264899	0.111455
C73	C	1.165356	-0.116796	-0.388556
C74	C	1.665356	0.383204	0.111444
C75	C	1.165319	-0.512598	-0.761232
C76	C	1.665319	-0.012598	-0.261232
C77	C	1.165338	-0.512559	-0.852540
C78	C	1.665338	-0.012559	-0.352540
C79	C	1.165357	-0.512521	-0.925317
C80	C	1.665357	-0.012521	-0.425317
C81	C	1.165377	-0.512483	-1.016631
C82	C	1.665377	-0.012483	-0.516631
C83	C	1.165256	-0.512715	-0.179028
C84	C	1.665256	-0.012715	0.320972
C85	C	1.165396	-0.512445	-0.089408
C86	C	1.665396	-0.012445	0.410592
H87	H	1.065753	-0.945810	-0.487811
H88	H	1.565753	-0.445810	0.012189
F89	F	1.206698	-1.088073	-0.543451
F90	F	1.706698	-0.588073	-0.043451
F91	F	1.010482	-1.088468	-0.346928
F92	F	1.510482	-0.588468	0.153072
H93	H	1.128866	-0.945966	-0.252681
H94	H	1.628866	-0.445966	0.247319
F95	F	1.320061	-0.935871	-0.430192
F96	F	1.820061	-0.435871	0.069808
F97	F	1.278808	-1.087802	-0.275134
F98	F	1.778808	-0.587802	0.224866
