data_functionalizedCrystal
_audit_creation_method	'MofGen! by Chris Wilmer'
_symmetry_space_group_name_H-M	'P1'
_symmetry_Int_Tables_number	1
_symmetry_cell_setting	triclinic
loop_
_symmetry_equiv_pos_as_xyz
  x,y,z
_cell_length_a	10.723022
_cell_length_b	10.723024
_cell_length_c	7.681481
_cell_angle_alpha	84.204337
_cell_angle_beta	95.778539
_cell_angle_gamma	84.467548
loop_
_atom_site_label
_atom_site_type_symbol
_atom_site_fract_x
_atom_site_fract_y
_atom_site_fract_z
O1	O	1.645493	0.186730	-0.146413
O2	O	1.282340	0.203486	-0.146419
O3	O	1.472293	0.013532	-0.146409
O4	O	1.455539	0.376685	-0.146423
O5	O	1.495673	-0.009902	0.146450
O6	O	1.305719	0.180053	0.146440
O7	O	1.668873	0.163297	0.146446
Zn8	Zn	1.491008	0.167954	0.192941
Zn9	Zn	1.460204	0.198829	-0.192914
O10	O	1.478919	0.353251	0.146436
C11	C	1.247530	0.190551	0.000010
C12	C	1.108975	0.186904	0.000008
C13	C	0.890796	0.289421	0.000001
C14	C	1.033999	0.293192	0.000003
C15	C	1.482764	-0.044685	0.000018
C16	C	1.479116	-0.183238	0.000012
C17	C	1.585403	-0.258222	0.000011
C18	C	1.581635	-0.401424	0.000005
C19	C	1.703682	0.176233	0.000013
C20	C	1.842236	0.179880	0.000004
C21	C	1.468448	0.411468	0.000005
C22	C	1.472095	0.550023	-0.000000
N23	N	1.512040	0.146882	0.456276
N24	N	1.439182	0.219891	-0.456249
H25	H	0.906677	0.088892	-0.000003
H26	H	1.364809	0.294411	0.468551
O27	O	1.610578	0.048170	0.555871
H28	H	1.564108	-0.019557	0.639875
H29	H	0.826353	0.380410	-0.000014
H30	H	1.067168	0.093115	-0.000036
H31	H	1.075812	0.386979	0.000010
H32	H	1.679190	-0.216401	0.000023
O33	O	1.351559	-0.364640	0.000005
H34	H	1.305956	-0.392440	0.119377
H35	H	1.672626	-0.465858	0.000012
H36	H	1.385329	-0.225059	-0.000001
