data_functionalizedCrystal
_audit_creation_method	'MofGen! by Chris Wilmer'
_symmetry_space_group_name_H-M	'P1'
_symmetry_Int_Tables_number	1
_symmetry_cell_setting	triclinic
loop_
_symmetry_equiv_pos_as_xyz
  x,y,z
_cell_length_a	6.817900
_cell_length_b	11.102288
_cell_length_c	27.923456
_cell_angle_alpha	95.517030
_cell_angle_beta	98.963413
_cell_angle_gamma	108.605689
loop_
_atom_site_label
_atom_site_type_symbol
_atom_site_fract_x
_atom_site_fract_y
_atom_site_fract_z
V1	V	-4.003161	-0.177720	-0.151273
O2	O	-3.964256	0.006604	-0.148393
O3	O	-3.980679	-0.350528	-0.150238
O4	O	-3.932678	-0.175836	-0.217248
O5	O	-4.012589	-0.169297	-0.080919
V6	V	-4.486292	-0.155573	-0.142858
O7	O	-4.265279	-0.226303	-0.169731
O8	O	-4.674370	-0.106990	-0.124399
O9	O	-4.285567	0.017235	-0.143892
O10	O	-4.642593	-0.339897	-0.145737
O11	O	-4.594260	-0.163996	-0.213211
O12	O	-4.333568	-0.157457	-0.076883
C13	C	-3.832699	-0.392628	-0.147852
C14	C	-3.895457	-0.533906	-0.147446
C15	C	-4.107215	-0.606782	-0.149675
C16	C	-4.166173	-0.739529	-0.149298
C17	C	-3.801594	-0.726510	-0.144458
C18	C	-3.742641	-0.593767	-0.144839
C19	C	-3.771468	-0.169790	-0.233329
C20	C	-3.795296	-0.169393	-0.287264
C21	C	-4.125458	-0.173187	-0.624184
C22	C	-4.215096	-0.171646	-0.826892
O23	O	-4.381648	-0.176812	-0.855201
N24	N	-4.044061	-0.165085	-0.849767
C25	C	-3.850598	-0.158899	-0.821961
O26	O	-3.707172	-0.153270	-0.846068
C27	C	-3.760957	-0.160431	-0.619254
C28	C	-3.932012	-0.167006	-0.596383
C29	C	-4.296497	-0.179760	-0.601312
C30	C	-4.274090	-0.180152	-0.550639
C31	C	-4.080644	-0.173971	-0.522837
C32	C	-3.909605	-0.167399	-0.545709
C33	C	-3.567492	-0.154237	-0.591449
C34	C	-3.545095	-0.154618	-0.540769
C35	C	-3.716150	-0.161192	-0.517898
C36	C	-3.693752	-0.161610	-0.467234
N37	N	-3.864788	-0.168171	-0.444359
C38	C	-4.058234	-0.174352	-0.472161
C39	C	-3.897675	-0.158098	-0.928386
C40	C	-3.920085	-0.157717	-0.979062
C41	C	-4.284582	-0.170462	-0.983989
C42	C	-4.262173	-0.170851	-0.933312
C43	C	-4.068710	-0.164660	-0.905510
C44	C	-4.011164	-0.175176	-0.365743
C45	C	-3.988742	-0.175573	-0.315065
C46	C	-3.624245	-0.162823	-0.310142
C47	C	-3.646668	-0.162432	-0.360816
C48	C	-3.840141	-0.168606	-0.388615
O49	O	-3.527261	-0.156433	-0.438894
O50	O	-4.201618	-0.179952	-0.448043
C51	C	-4.147865	-0.172795	-0.674858
C52	C	-3.976826	-0.166222	-0.697730
C53	C	-3.783380	-0.160041	-0.669928
C54	C	-3.999236	-0.165841	-0.748406
C55	C	-4.192682	-0.172022	-0.776208
C56	C	-4.363717	-0.178583	-0.753332
C57	C	-4.341310	-0.178976	-0.702659
C58	C	-3.612345	-0.153480	-0.692803
C59	C	-3.634767	-0.153090	-0.743477
C60	C	-3.828213	-0.159270	-0.771278
C61	C	-4.096890	0.059328	-0.146277
C62	C	-4.013369	0.200605	-0.146687
C63	C	-4.158121	-0.163507	-0.060799
C64	C	-4.113531	-0.163898	-0.006864
H65	H	-4.128045	-0.180931	-0.296446
Br66	Br	-3.455237	-0.494857	-0.141818
Br67	Br	-4.547119	-0.178849	-1.021729
H68	H	-4.168706	-0.180205	-0.388371
Br69	Br	-4.559062	-0.188152	-0.639034
H70	H	-4.413381	-0.185500	-0.532021
Br71	Br	-3.282519	-0.146201	-0.503041
Br72	Br	-4.494328	-0.179774	-0.902277
Br73	Br	-3.349794	-0.145103	-0.655081
H74	H	-3.677184	-0.775265	-0.142335
H75	H	-3.740134	-0.153067	-0.905755
Br76	Br	-4.314610	-0.525546	-0.153216
H77	H	-3.780802	-0.152383	-0.997681
Br78	Br	-3.414532	-0.153532	-0.391859
Br79	Br	-4.453570	-0.838429	-0.152327
H80	H	-3.428196	-0.148884	-0.610062
Br81	Br	-3.361722	-0.154442	-0.272403
Br82	Br	-4.626258	-0.186981	-0.791074
H83	H	-4.480604	-0.184329	-0.684042
H84	H	-3.495464	-0.147745	-0.762095
