data_functionalizedCrystal
_audit_creation_method	'MofGen! by Chris Wilmer'
_symmetry_space_group_name_H-M	'P1'
_symmetry_Int_Tables_number	1
_symmetry_cell_setting	triclinic
loop_
_symmetry_equiv_pos_as_xyz
  x,y,z
_cell_length_a	19.077312
_cell_length_b	13.033855
_cell_length_c	19.076919
_cell_angle_alpha	94.625887
_cell_angle_beta	85.331053
_cell_angle_gamma	80.847641
loop_
_atom_site_label
_atom_site_type_symbol
_atom_site_fract_x
_atom_site_fract_y
_atom_site_fract_z
Zn1	Zn	1.106337	-0.500460	0.310718
Zn2	Zn	1.606337	-0.000460	0.810718
Zn3	Zn	1.125992	-0.668457	0.177882
Zn4	Zn	1.625992	-0.168457	0.677882
Zn5	Zn	0.991993	-0.487003	0.198784
Zn6	Zn	1.491993	0.012997	0.698784
Zn7	Zn	1.003420	-0.668414	0.300469
Zn8	Zn	1.503420	-0.168414	0.800469
O9	O	1.056935	-0.581083	0.246963
O10	O	1.556935	-0.081083	0.746963
O11	O	1.208094	-0.528395	0.288639
O12	O	1.708094	-0.028395	0.788639
O13	O	1.111660	-0.638773	0.082507
O14	O	1.611660	-0.138773	0.582507
O15	O	0.994153	-0.342560	0.226669
O16	O	1.494153	0.157440	0.726669
O17	O	1.222535	-0.651821	0.191045
O18	O	1.722535	-0.151821	0.691045
O19	O	1.078161	-0.352446	0.308907
O20	O	1.578161	0.147554	0.808907
O21	O	1.013212	-0.505460	0.097863
O22	O	1.513212	-0.005460	0.597863
O23	O	0.894358	-0.505418	0.216730
O24	O	1.394358	-0.005418	0.716730
O25	O	1.013628	-0.651748	0.399976
O26	O	1.513628	-0.151748	0.899976
O27	O	0.902753	-0.638700	0.291438
O28	O	1.402753	-0.138700	0.791438
O29	O	1.089241	-0.528353	0.407506
O30	O	1.589241	-0.028353	0.907506
O31	O	1.122740	-0.814680	0.181106
O32	O	1.622740	-0.314680	0.681106
O33	O	1.032687	-0.814648	0.271170
O34	O	1.532687	-0.314648	0.771170
C35	C	0.872847	-0.570595	0.255240
C36	C	1.372847	-0.070595	0.755240
C37	C	0.794095	-0.566133	0.258796
C38	C	1.294095	-0.066133	0.758796
C39	C	0.349991	-0.534054	0.284311
C40	C	0.849991	-0.034054	0.784311
C41	C	0.423989	-0.538265	0.280965
C42	C	0.923989	-0.038265	0.780965
C43	C	0.468490	-0.604518	0.228417
C44	C	0.968490	-0.104518	0.728417
C45	C	0.438990	-0.666572	0.179216
C46	C	0.938990	-0.166572	0.679216
C47	C	0.364994	-0.662366	0.182566
C48	C	0.864994	-0.162366	0.682566
C49	C	0.690600	-0.623981	0.212945
C50	C	1.190600	-0.123981	0.712945
C51	C	0.764600	-0.628180	0.209598
C52	C	1.264600	-0.128180	0.709598
C53	C	0.749594	-0.499874	0.311348
C54	C	1.249594	0.000126	0.811348
C55	C	0.675597	-0.495670	0.314690
C56	C	1.175597	0.004330	0.814690
C57	C	0.646104	-0.557728	0.265492
C58	C	1.146104	-0.057728	0.765492
N59	N	0.544127	-0.608822	0.224993
N60	N	1.044127	-0.108822	0.724993
N61	N	0.570468	-0.553429	0.268919
N62	N	1.070468	-0.053429	0.768919
C63	C	1.081105	-0.852581	0.222772
C64	C	1.581105	-0.352581	0.722772
C65	C	1.091509	-0.968734	0.212444
C66	C	1.591509	-0.468734	0.712444
C67	C	1.051560	-1.020533	0.252365
C68	C	1.551560	-0.520533	0.752365
C69	C	1.062312	-1.140584	0.241691
C70	C	1.562312	-0.640584	0.741691
C71	C	1.241742	-0.591614	0.238654
C72	C	1.741742	-0.091614	0.738654
C73	C	1.320496	-0.596101	0.235113
C74	C	1.820496	-0.096101	0.735113
C75	C	1.050517	-0.591547	0.429901
C76	C	1.550517	-0.091547	0.929901
C77	C	1.047781	-0.596006	0.507859
C78	C	1.547781	-0.096006	1.007859
C79	C	1.032690	-0.308527	0.271263
C80	C	1.532690	0.191473	0.771263
C81	C	1.022358	-0.192380	0.281618
C82	C	1.522358	0.307620	0.781618
C83	C	1.063363	-0.570588	0.064741
C84	C	1.563363	-0.070588	0.564741
C85	C	1.066209	-0.565842	-0.013196
C86	C	1.566209	-0.065842	0.486804
C87	C	1.085862	-0.533858	0.548405
C88	C	1.585862	-0.033858	1.048405
C89	C	1.083283	-0.538043	0.621655
C90	C	1.583283	-0.038043	1.121655
C91	C	1.042627	-0.604382	0.654357
C92	C	1.542627	-0.104382	1.154357
C93	C	1.004542	-0.666532	0.613806
C94	C	1.504542	-0.166532	1.113806
C95	C	1.007117	-0.662341	0.540558
C96	C	1.507117	-0.162341	1.040558
C97	C	1.030699	-0.623801	0.873005
C98	C	1.530699	-0.123801	1.373005
C99	C	1.028129	-0.627990	0.946258
C100	C	1.528129	-0.127990	1.446258
C101	C	1.106869	-0.499499	0.954103
C102	C	1.606869	0.000501	1.454103
C103	C	1.109444	-0.495318	0.880852
C104	C	1.609444	0.004682	1.380852
C105	C	1.071356	-0.557464	0.840308
C106	C	1.571356	-0.057464	1.340308
N107	N	1.039992	-0.608664	0.729230
N108	N	1.539992	-0.108664	1.229230
N109	N	1.073988	-0.553176	0.765437
N110	N	1.573988	-0.053176	1.265437
H111	H	0.639368	-0.441723	0.357483
H112	H	1.139368	0.058277	0.857483
H113	H	0.666596	-0.674510	0.172883
H114	H	1.166596	-0.174510	0.672883
C115	C	0.813552	-0.701079	0.151802
C116	C	1.313552	-0.201079	0.651802
H117	H	0.785390	-0.737447	0.122986
H118	H	1.285390	-0.237447	0.622986
H119	H	0.839918	-0.660940	0.123544
H120	H	1.339918	-0.160940	0.623544
H121	H	0.845541	-0.749840	0.173226
H122	H	1.345541	-0.249840	0.673226
C123	C	0.965393	-1.132246	0.338468
C124	C	1.465393	-0.632246	0.838468
H125	H	0.941721	-1.180314	0.362125
H126	H	1.441721	-0.680314	0.862125
H127	H	0.987604	-1.092901	0.371596
H128	H	1.487604	-0.592901	0.871596
H129	H	0.931702	-1.086436	0.316747
H130	H	1.431702	-0.586436	0.816747
H131	H	1.104475	-1.185108	0.199607
H132	H	1.604475	-0.685108	0.699607
C133	C	1.148465	-1.028878	0.155594
C134	C	1.648465	-0.528878	0.655594
H135	H	1.148221	-1.101676	0.155880
H136	H	1.648221	-0.601676	0.655880
H137	H	1.138204	-1.007797	0.110498
H138	H	1.638204	-0.507797	0.610498
H139	H	1.194112	-1.014277	0.165340
H140	H	1.694112	-0.514277	0.665340
H141	H	1.137877	-0.448902	0.987122
H142	H	1.637877	0.051098	1.487122
C143	C	1.130580	-0.460880	0.512440
C144	C	1.630580	0.039120	1.012440
H145	H	1.152883	-0.424458	0.547082
H146	H	1.652883	0.075542	1.047082
H147	H	1.166013	-0.500969	0.478914
H148	H	1.666013	-0.000969	0.978914
H149	H	1.100423	-0.412167	0.489146
H150	H	1.600423	0.087833	0.989146
C151	C	0.983400	-0.700956	0.982233
C152	C	1.483400	-0.200956	1.482233
H153	H	0.987329	-0.694556	1.031663
H154	H	1.487329	-0.194556	1.531663
H155	H	0.934856	-0.682257	0.973734
H156	H	1.434856	-0.182257	1.473734
H157	H	1.000436	-0.771076	0.963504
H158	H	1.500436	-0.271076	1.463504
C159	C	0.487939	-0.739447	0.121413
C160	C	0.987939	-0.239447	0.621413
H161	H	0.536232	-0.733058	0.126458
H162	H	1.036232	-0.233058	0.626458
H163	H	0.481712	-0.809576	0.125886
H164	H	0.981712	-0.309576	0.625886
H165	H	0.476075	-0.720647	0.076227
H166	H	0.976075	-0.220647	0.576227
C167	C	1.125175	-0.469686	0.666252
C168	C	1.625175	0.030314	1.166252
H169	H	1.149765	-0.429588	0.636284
H170	H	1.649765	0.070412	1.136284
H171	H	1.093021	-0.424242	0.700103
H172	H	1.593021	0.075758	1.200103
H173	H	1.158599	-0.513063	0.689875
H174	H	1.658599	-0.013063	1.189875
H175	H	0.976100	-0.712937	0.507547
H176	H	1.476100	-0.212937	1.007547
H177	H	0.313762	-0.480097	0.327098
H178	H	0.813762	0.019903	0.827098
C179	C	0.332549	-0.730615	0.128447
C180	C	0.832549	-0.230615	0.628447
H181	H	0.369649	-0.770669	0.096667
H182	H	0.869649	-0.270669	0.596667
H183	H	0.306811	-0.776100	0.152469
H184	H	0.806811	-0.276100	0.652469
H185	H	0.301179	-0.687177	0.102806
H186	H	0.801179	-0.187177	0.602806
C187	C	1.154166	-0.422346	0.844885
C188	C	1.654166	0.077654	1.344885
H189	H	1.176473	-0.385927	0.879525
H190	H	1.676473	0.114073	1.379525
H191	H	1.189596	-0.462447	0.811362
H192	H	1.689596	0.037553	1.311362
H193	H	1.124014	-0.373631	0.821588
H194	H	1.624014	0.126369	1.321588
H195	H	0.773615	-0.449351	0.351403
H196	H	1.273615	0.050649	0.851403
H197	H	0.999697	-0.674420	0.840000
H198	H	1.499697	-0.174420	1.340000
C199	C	0.959822	-0.739504	0.649776
C200	C	1.459822	-0.239504	1.149776
H201	H	0.963748	-0.733109	0.699206
H202	H	1.463748	-0.233109	1.199206
H203	H	0.911278	-0.720814	0.641274
H204	H	1.411278	-0.220814	1.141274
H205	H	0.976865	-0.809621	0.631043
H206	H	1.476865	-0.309621	1.131043
H207	H	1.009395	-0.976007	0.294443
H208	H	1.509395	-0.476007	0.794443
C209	C	0.456430	-0.470005	0.335078
C210	C	0.956430	0.029995	0.835078
H211	H	0.419328	-0.429933	0.366847
H212	H	0.919328	0.070067	0.866847
H213	H	0.487799	-0.513429	0.360721
H214	H	0.987799	-0.013429	0.860721
H215	H	0.482166	-0.424519	0.311047
H216	H	0.982166	0.075481	0.811047
