data_functionalizedCrystal
_audit_creation_method	'MofGen! by Chris Wilmer'
_symmetry_space_group_name_H-M	'P1'
_symmetry_Int_Tables_number	1
_symmetry_cell_setting	triclinic
loop_
_symmetry_equiv_pos_as_xyz
  x,y,z
_cell_length_a	19.077236
_cell_length_b	19.077068
_cell_length_c	19.805399
_cell_angle_alpha	87.730571
_cell_angle_beta	92.320300
_cell_angle_gamma	94.708605
loop_
_atom_site_label
_atom_site_type_symbol
_atom_site_fract_x
_atom_site_fract_y
_atom_site_fract_z
Zn1	Zn	1.066451	-0.237465	0.433142
Zn2	Zn	1.061624	-0.355357	0.324317
Zn3	Zn	0.948562	-0.242210	0.315589
Zn4	Zn	0.943787	-0.360044	0.433086
O5	O	1.005106	-0.298769	0.376533
O6	O	1.164463	-0.249156	0.422382
O7	O	1.046604	-0.340373	0.228443
O8	O	0.968218	-0.142928	0.327554
O9	O	1.160916	-0.335771	0.342429
O10	O	1.054831	-0.139442	0.413919
O11	O	0.963537	-0.257244	0.222030
O12	O	0.849276	-0.261788	0.327499
O13	O	0.960081	-0.343759	0.527810
O14	O	0.845768	-0.348360	0.413823
O15	O	1.050202	-0.253700	0.527851
O16	O	1.041974	-0.454631	0.342374
O17	O	0.955400	-0.458074	0.422286
C18	C	0.821943	-0.306098	0.369708
C19	C	0.743584	-0.309251	0.366805
C20	C	0.708616	-0.265708	0.407137
C21	C	0.634989	-0.268666	0.404404
C22	C	0.596333	-0.315172	0.361341
C23	C	0.631307	-0.358718	0.321004
C24	C	0.704932	-0.355755	0.323735
C25	C	0.375941	-0.328858	0.348699
C26	C	0.302311	-0.331819	0.345973
C27	C	0.305998	-0.241767	0.429372
C28	C	0.379624	-0.238811	0.432102
C29	C	0.414592	-0.282354	0.391763
N30	N	0.521075	-0.318199	0.358547
N31	N	0.489848	-0.279322	0.394554
C32	C	0.997664	-0.481931	0.383287
C33	C	0.994545	-0.560287	0.386201
C34	C	1.038189	-0.595281	0.346001
C35	C	1.035260	-0.668903	0.348746
C36	C	0.988682	-0.707531	0.391688
C37	C	0.945036	-0.672532	0.431892
C38	C	0.947970	-0.598910	0.429150
C39	C	0.975075	-0.927912	0.404349
C40	C	0.972143	-1.001538	0.407086
C41	C	1.062368	-0.997904	0.323941
C42	C	1.065294	-0.924282	0.321200
C43	C	1.021651	-0.889289	0.361407
N44	N	0.985685	-0.782786	0.394493
N45	N	1.024652	-0.814036	0.358605
C46	C	1.188984	-0.291411	0.383386
C47	C	1.267342	-0.288276	0.386306
C48	C	1.005147	-0.298723	0.553076
C49	C	1.005165	-0.298703	0.628308
C50	C	1.012596	-0.114890	0.369769
C51	C	1.015787	-0.036532	0.366887
C52	C	1.005107	-0.298762	0.200677
C53	C	1.005234	-0.298578	0.125443
C54	C	1.052092	-0.251808	0.663675
C55	C	1.052100	-0.251787	0.734363
C56	C	1.005184	-0.298666	0.769683
C57	C	0.958252	-0.345564	0.734311
C58	C	0.958241	-0.345580	0.663624
C59	C	0.958294	-0.345496	1.019384
C60	C	0.958310	-0.345477	1.090076
C61	C	1.052153	-0.251703	1.090122
C62	C	1.052142	-0.251720	1.019435
C63	C	1.005208	-0.298615	0.984069
C64	C	1.005199	-0.298636	0.907421
C65	C	1.005196	-0.298649	0.846330
H66	H	0.733402	-0.391212	0.290891
H67	H	1.076115	-0.563835	0.311031
H68	H	1.090367	-0.213516	1.118925
H69	H	0.277520	-0.206316	0.462214
H70	H	0.740084	-0.227839	0.442206
C71	C	0.588788	-0.409876	0.273635
C72	C	0.507803	-0.413142	0.270632
C73	C	0.465285	-0.464305	0.223264
C74	C	0.503752	-0.512202	0.178898
C75	C	0.584741	-0.508937	0.181899
C76	C	0.627259	-0.457775	0.229267
H77	H	0.479323	-0.377685	0.303476
H78	H	0.405331	-0.466721	0.221043
H79	H	0.472278	-0.550075	0.143833
H80	H	0.613221	-0.544395	0.149056
H81	H	0.687213	-0.455359	0.231488
H82	H	0.939538	-0.899426	0.437086
C83	C	1.116525	-0.881793	0.273958
C84	C	1.119744	-0.800813	0.270933
C85	C	1.170969	-0.758324	0.223683
C86	C	1.218973	-0.796817	0.179459
C87	C	1.215756	-0.877802	0.182482
C88	C	1.164531	-0.920290	0.229731
H89	H	1.084207	-0.772314	0.303672
H90	H	1.173351	-0.698373	0.221446
H91	H	1.256893	-0.765364	0.144482
H92	H	1.251293	-0.906300	0.149743
H93	H	1.162149	-0.980241	0.231969
C94	C	0.893803	-0.715020	0.479131
C95	C	0.890572	-0.796002	0.482149
C96	C	0.839337	-0.838488	0.529389
C97	C	0.791332	-0.799993	0.573612
C98	C	0.794561	-0.719007	0.570596
C99	C	0.845796	-0.676521	0.523356
H100	H	0.926110	-0.824502	0.449411
H101	H	0.836947	-0.898439	0.531622
H102	H	0.753404	-0.831444	0.608582
H103	H	0.759023	-0.690507	0.603333
H104	H	0.848186	-0.616570	0.521123
H105	H	0.270838	-0.369694	0.310906
C106	C	0.422153	-0.187667	0.479479
C107	C	0.475015	-0.130249	0.450085
C108	C	0.517548	-0.079114	0.497469
C109	C	0.507219	-0.085397	0.574247
C110	C	0.454355	-0.142816	0.603644
C111	C	0.411822	-0.193952	0.556260
H112	H	0.482663	-0.125597	0.393247
H113	H	0.556682	-0.036608	0.475707
H114	H	0.538705	-0.047543	0.609323
H115	H	0.446707	-0.147469	0.660483
H116	H	0.372688	-0.236457	0.578023
C117	C	0.906643	-0.397132	0.773161
C118	C	0.906655	-0.397119	0.850914
C119	C	0.855046	-0.448691	0.889762
C120	C	0.803426	-0.500274	0.850857
C121	C	0.803412	-0.500289	0.773100
C122	C	0.855020	-0.448717	0.734252
H123	H	0.944869	-0.358932	0.879718
H124	H	0.855057	-0.448680	0.947324
H125	H	0.765222	-0.538450	0.879615
H126	H	0.765198	-0.538476	0.744296
H127	H	0.855010	-0.448728	0.676690
H128	H	1.090298	-0.213635	0.634922
C129	C	0.906624	-0.397173	0.624721
C130	C	0.934912	-0.451310	0.579302
C131	C	0.883292	-0.502904	0.540401
C132	C	0.803386	-0.500360	0.546919
C133	C	0.775094	-0.446222	0.592339
C134	C	0.826714	-0.394628	0.631241
H135	H	0.994067	-0.453194	0.574475
H136	H	0.904236	-0.542981	0.506777
H137	H	0.765174	-0.538553	0.518122
H138	H	0.715939	-0.444337	0.597166
H139	H	0.805770	-0.354551	0.664864
C140	C	1.110378	-1.036398	0.279722
C141	C	1.077848	-1.088299	0.227308
C142	C	1.125862	-1.126792	0.183089
C143	C	1.206407	-1.113385	0.191283
C144	C	1.238942	-1.061482	0.243699
C145	C	1.190927	-1.022989	0.287918
H146	H	1.018220	-1.098226	0.221241
H147	H	1.101777	-1.165214	0.144288
H148	H	1.241950	-1.141880	0.158549
H149	H	1.298570	-1.051555	0.249766
H150	H	1.215012	-0.984567	0.326720
H151	H	0.606521	-0.233210	0.437248
C152	C	1.103719	-0.200199	0.773266
C153	C	1.155327	-0.148635	0.734417
C154	C	1.206946	-0.097042	0.773320
C155	C	1.206956	-0.097013	0.851072
C156	C	1.155346	-0.148579	0.889926
C157	C	1.103727	-0.200172	0.851023
H158	H	1.155321	-0.148655	0.676856
H159	H	1.245151	-0.058870	0.744557
H160	H	1.245167	-0.058821	0.879870
H161	H	1.155351	-0.148559	0.947487
H162	H	1.065521	-0.238344	0.879786
H163	H	1.070799	-0.697392	0.316011
C164	C	0.920906	-1.044031	0.454327
C165	C	0.872900	-1.005543	0.498553
C166	C	0.821664	-1.048035	0.545788
C167	C	0.818434	-1.129017	0.548797
C168	C	0.866442	-1.167509	0.504569
C169	C	0.917678	-1.125017	0.457333
H170	H	0.875289	-0.945592	0.496328
H171	H	0.786125	-1.019540	0.578529
H172	H	0.780506	-1.160472	0.583763
H173	H	0.864053	-1.227460	0.506794
H174	H	0.953217	-1.153512	0.424593
C175	C	0.906694	-0.397042	1.128929
C176	C	0.855064	-0.448622	1.090030
C177	C	0.803451	-0.500184	1.128884
C178	C	0.803468	-0.500165	1.206637
C179	C	0.855100	-0.448583	1.245541
C180	C	0.906712	-0.397021	1.206687
H181	H	0.855050	-0.448638	1.032469
H182	H	0.765230	-0.538368	1.100085
H183	H	0.765261	-0.538334	1.235399
H184	H	0.855114	-0.448567	1.303102
H185	H	0.944934	-0.358837	1.235486
H186	H	0.404402	-0.364314	0.315853
H187	H	0.912431	-0.570419	0.461886
H188	H	1.090348	-0.213548	0.990681
H189	H	0.920088	-0.383691	0.990598
