data_functionalizedCrystal
_audit_creation_method	'MofGen! by Chris Wilmer'
_symmetry_space_group_name_H-M	'P1'
_symmetry_Int_Tables_number	1
_symmetry_cell_setting	triclinic
loop_
_symmetry_equiv_pos_as_xyz
  x,y,z
_cell_length_a	18.215407
_cell_length_b	13.897447
_cell_length_c	18.215399
_cell_angle_alpha	90.025056
_cell_angle_beta	90.017368
_cell_angle_gamma	90.016973
loop_
_atom_site_label
_atom_site_type_symbol
_atom_site_fract_x
_atom_site_fract_y
_atom_site_fract_z
Zn1	Zn	1.125099	-0.384091	0.416082
Zn2	Zn	1.125019	-0.545400	0.293022
Zn3	Zn	1.002032	-0.384114	0.293035
Zn4	Zn	1.002009	-0.545338	0.416052
O5	O	1.063540	-0.464736	0.354548
O6	O	1.228073	-0.405505	0.399765
O7	O	1.108681	-0.524041	0.190040
O8	O	1.018400	-0.249129	0.309375
O9	O	1.228014	-0.524019	0.309354
O10	O	1.108817	-0.249112	0.399778
O11	O	1.018322	-0.405544	0.190049
O12	O	0.899045	-0.405484	0.309346
O13	O	1.018361	-0.523913	0.519041
O14	O	0.899028	-0.523935	0.399727
O15	O	1.108795	-0.405445	0.519063
O16	O	1.108659	-0.680374	0.309325
O17	O	1.018284	-0.680328	0.399714
C18	C	0.872334	-0.464706	0.354535
C19	C	0.790535	-0.464717	0.354547
C20	C	0.602370	-0.403134	0.401699
C21	C	0.525512	-0.403142	0.401701
C22	C	0.525461	-0.526365	0.307410
C23	C	0.602319	-0.526351	0.307404
C24	C	0.640771	-0.464737	0.354553
C25	C	0.487055	-0.464759	0.354561
C26	C	0.403722	-0.464768	0.354563
C27	C	0.724110	-0.464726	0.354550
C28	C	1.063480	-0.715350	0.354531
C29	C	1.063522	-0.822564	0.354548
C30	C	1.063557	-0.909634	0.354565
C31	C	1.063609	-1.018866	0.354584
C32	C	1.255493	-0.464766	0.354561
C33	C	1.337292	-0.464779	0.354567
C34	C	1.063585	-0.464669	0.546501
C35	C	1.063604	-0.464641	0.628300
C36	C	1.063620	-0.213143	0.354581
C37	C	1.063654	-0.105929	0.354595
C38	C	1.063538	-0.464732	0.163342
C39	C	1.063661	-0.464489	0.081543
C40	C	1.110710	-0.402897	0.816507
C41	C	1.110718	-0.402869	0.893365
C42	C	1.016550	-0.526236	0.893331
C43	C	1.016538	-0.526258	0.816474
C44	C	1.063622	-0.464590	0.778063
C45	C	1.063643	-0.464540	0.931780
C46	C	1.063652	-0.464510	1.015113
C47	C	1.063612	-0.464619	0.694724
H48	H	0.633676	-0.352960	0.440088
Cl49	Cl	0.477240	-0.325693	0.460972
Cl50	Cl	1.169898	-0.325368	0.768222
H51	H	1.149061	-0.352630	0.924662
Cl52	Cl	0.957366	-0.603762	0.941624
H53	H	0.494144	-0.576530	0.269024
Cl54	Cl	0.650598	-0.603792	0.248123
Cl55	Cl	0.957333	-0.603816	0.768142
