data_functionalizedCrystal
_audit_creation_method	'MofGen! by Chris Wilmer'
_symmetry_space_group_name_H-M	'P1'
_symmetry_Int_Tables_number	1
_symmetry_cell_setting	triclinic
loop_
_symmetry_equiv_pos_as_xyz
  x,y,z
_cell_length_a	6.817900
_cell_length_b	17.110486
_cell_length_c	15.300992
_cell_angle_alpha	96.160201
_cell_angle_beta	104.175078
_cell_angle_gamma	99.060439
loop_
_atom_site_label
_atom_site_type_symbol
_atom_site_fract_x
_atom_site_fract_y
_atom_site_fract_z
V1	V	-3.980315	-0.246958	-0.124489
O2	O	-3.965202	-0.242012	0.006259
O3	O	-3.935526	-0.245505	-0.247107
O4	O	-3.910117	-0.354557	-0.122453
O5	O	-3.990787	-0.132204	-0.119258
V6	V	-4.466299	-0.233204	-0.108865
O7	O	-4.236173	-0.277129	-0.158763
O8	O	-4.660638	-0.203033	-0.074591
O9	O	-4.287882	-0.234657	0.013753
O10	O	-4.598809	-0.238150	-0.239613
O11	O	-4.573224	-0.347957	-0.114096
O12	O	-4.313291	-0.125605	-0.110901
C13	C	-3.782110	-0.241670	-0.277003
C14	C	-3.826631	-0.241199	-0.377243
C15	C	-3.821592	-0.168489	-0.411538
C16	C	-3.863443	-0.168049	-0.505726
C17	C	-3.910320	-0.240320	-0.565617
C18	C	-3.915365	-0.313036	-0.531317
C19	C	-3.873528	-0.313475	-0.437131
C20	C	-4.002559	-0.312115	-0.727629
C21	C	-4.044396	-0.311676	-0.821821
C22	C	-3.992475	-0.166689	-0.796224
C23	C	-3.950638	-0.167128	-0.702038
C24	C	-3.955682	-0.239844	-0.667744
C25	C	-3.749698	-0.380776	-0.117993
C26	C	-3.773610	-0.468740	-0.117139
C27	C	-3.966264	-0.514106	-0.121239
C28	C	-3.988721	-0.596758	-0.120436
C29	C	-3.818524	-0.634043	-0.115541
C30	C	-3.625854	-0.588671	-0.111439
C31	C	-3.603396	-0.506020	-0.112235
C32	C	-3.877251	-0.883393	-0.112907
C33	C	-3.899725	-0.966051	-0.112114
C34	C	-4.262590	-0.974131	-0.121110
C35	C	-4.240119	-0.891479	-0.121911
C36	C	-4.047449	-0.846114	-0.117804
C37	C	-3.841475	-0.718527	-0.114723
C38	C	-4.024497	-0.761631	-0.118615
C39	C	-4.104640	-0.238490	0.043644
C40	C	-4.039356	-0.238966	0.143884
C41	C	-4.137053	-0.099382	-0.115364
C42	C	-4.092379	-0.011416	-0.116213
H43	H	-4.082561	-0.370525	-0.870583
H44	H	-3.761118	-0.996405	-0.108124
H45	H	-4.163067	-0.731269	-0.122598
H46	H	-3.446509	-0.469081	-0.108874
F47	F	-3.858095	-0.090661	-0.542221
F48	F	-4.007942	-0.389508	-0.691134
F49	F	-4.421270	-0.851804	-0.127124
H50	H	-3.720387	-0.846471	-0.109594
H51	H	-3.702906	-0.748894	-0.110741
H52	H	-3.953549	-0.371880	-0.580088
H53	H	-4.104864	-0.483756	-0.125231
H54	H	-3.912458	-0.108279	-0.653276
H55	H	-4.145594	-0.633691	-0.123769
F56	F	-4.467631	-1.022418	-0.125478
H57	H	-3.988361	-0.107481	-0.824150
F58	F	-3.444717	-0.628355	-0.106228
F59	F	-3.878903	-0.390863	-0.400633
H60	H	-3.783407	-0.109637	-0.362780
