data_functionalizedCrystal
_audit_creation_method	'MofGen! by Chris Wilmer'
_symmetry_space_group_name_H-M	'P1'
_symmetry_Int_Tables_number	1
_symmetry_cell_setting	triclinic
loop_
_symmetry_equiv_pos_as_xyz
  x,y,z
_cell_length_a	17.077404
_cell_length_b	25.639240
_cell_length_c	17.077396
_cell_angle_alpha	89.961743
_cell_angle_beta	89.981638
_cell_angle_gamma	90.030728
loop_
_atom_site_label
_atom_site_type_symbol
_atom_site_fract_x
_atom_site_fract_y
_atom_site_fract_z
Zn1	Zn	1.200001	-0.208179	-0.443765
Zn2	Zn	1.533334	0.125154	-0.110432
Zn3	Zn	1.866667	0.458488	0.222901
Zn4	Zn	1.199885	-0.295617	-0.312477
Zn5	Zn	1.533219	0.037717	0.020856
Zn6	Zn	1.866552	0.371050	0.354190
Zn7	Zn	1.068733	-0.208194	-0.312516
Zn8	Zn	1.402066	0.125139	0.020817
Zn9	Zn	1.735399	0.458473	0.354151
Zn10	Zn	1.068678	-0.295582	-0.443703
Zn11	Zn	1.402011	0.037751	-0.110370
Zn12	Zn	1.735345	0.371084	0.222963
O13	O	1.134324	-0.251893	-0.378115
O14	O	1.467657	0.081440	-0.044782
O15	O	1.800991	0.414774	0.288551
O16	O	1.309832	-0.219786	-0.426360
O17	O	1.643166	0.113547	-0.093026
O18	O	1.976499	0.446881	0.240307
O19	O	1.182462	-0.284041	-0.202635
O20	O	1.515795	0.049293	0.130698
O21	O	1.849129	0.382626	0.464031
O22	O	1.086217	-0.135027	-0.329969
O23	O	1.419550	0.198307	0.003364
O24	O	1.752883	0.531640	0.336698
O25	O	1.309747	-0.284026	-0.329902
O26	O	1.643081	0.049307	0.003431
O27	O	1.976414	0.382641	0.336764
O28	O	1.182659	-0.135016	-0.426397
O29	O	1.515992	0.198317	-0.093064
O30	O	1.849326	0.531651	0.240269
O31	O	1.086105	-0.219811	-0.202664
O32	O	1.419438	0.113522	0.130669
O33	O	1.752771	0.446855	0.464003
O34	O	0.958878	-0.219778	-0.329909
O35	O	1.292212	0.113555	0.003425
O36	O	1.625545	0.446889	0.336758
O37	O	1.086124	-0.283967	-0.553559
O38	O	1.419457	0.049366	-0.220225
O39	O	1.752790	0.382699	0.113108
O40	O	0.958838	-0.283982	-0.426291
O41	O	1.292172	0.049352	-0.092958
O42	O	1.625505	0.382685	0.240375
O43	O	1.182606	-0.219753	-0.553604
O44	O	1.515939	0.113581	-0.220271
O45	O	1.849273	0.446914	0.113062
O46	O	1.182409	-0.368777	-0.329842
O47	O	1.515742	-0.035444	0.003491
O48	O	1.849076	0.297889	0.336824
O49	O	1.086012	-0.368752	-0.426254
O50	O	1.419345	-0.035419	-0.092920
O51	O	1.752678	0.297915	0.240413
C52	C	0.930376	-0.251878	-0.378098
C53	C	1.263710	0.081455	-0.044765
C54	C	1.597043	0.414788	0.288569
C55	C	0.843126	-0.251884	-0.378109
C56	C	1.176460	0.081449	-0.044776
C57	C	1.509793	0.414782	0.288558
C58	C	1.134213	-0.387736	-0.378054
C59	C	1.467547	-0.054402	-0.044721
C60	C	1.800880	0.278931	0.288613
C61	C	1.134238	-0.445850	-0.378054
C62	C	1.467571	-0.112516	-0.044721
C63	C	1.800904	0.220817	0.288613
C64	C	0.802181	-0.218494	-0.428411
C65	C	1.135515	0.114839	-0.095077
C66	C	1.468848	0.448173	0.238256
C67	C	0.720201	-0.218498	-0.428414
C68	C	1.053534	0.114836	-0.095081
C69	C	1.386867	0.448169	0.238252
C70	C	0.679167	-0.251894	-0.378120
C71	C	1.012500	0.081439	-0.044786
C72	C	1.345834	0.414772	0.288547
C73	C	0.720118	-0.285286	-0.327812
C74	C	1.053451	0.048047	0.005521
C75	C	1.386785	0.381381	0.338854
C76	C	0.802097	-0.285280	-0.327805
C77	C	1.135430	0.048054	0.005528
C78	C	1.468764	0.381387	0.338861
C79	C	0.549248	-0.285298	-0.327832
C80	C	0.882581	0.048035	0.005502
C81	C	1.215915	0.381369	0.338835
C82	C	0.467263	-0.285305	-0.327840
C83	C	0.800597	0.048028	0.005494
C84	C	1.133930	0.381362	0.338827
C85	C	0.467352	-0.218516	-0.428441
C86	C	0.800685	0.114818	-0.095108
C87	C	1.134018	0.448151	0.238226
C88	C	0.549331	-0.218509	-0.428434
C89	C	0.882664	0.114824	-0.095101
C90	C	1.215997	0.448157	0.238233
C91	C	0.590276	-0.251902	-0.378127
C92	C	0.923609	0.081431	-0.044794
C93	C	1.256943	0.414765	0.288539
C94	C	1.184566	-0.806168	-0.428416
C95	C	1.517900	-0.472835	-0.095083
C96	C	1.851233	-0.139502	0.238250
C97	C	1.184590	-0.860773	-0.428432
C98	C	1.517923	-0.527439	-0.095099
C99	C	1.851256	-0.194106	0.238234
O100	O	1.227249	-0.888972	-0.471189
O101	O	1.560582	-0.555639	-0.137856
O102	O	1.893916	-0.222305	0.195478
N103	N	1.134433	-0.888132	-0.378191
N104	N	1.467766	-0.554799	-0.044858
N105	N	1.801100	-0.221465	0.288475
C106	C	1.084244	-0.860884	-0.327937
C107	C	1.417578	-0.527551	0.005397
C108	C	1.750911	-0.194218	0.338730
O109	O	1.041584	-0.889169	-0.285205
O110	O	1.374917	-0.555836	0.048128
O111	O	1.708251	-0.222503	0.381462
C112	C	1.084218	-0.806281	-0.327925
C113	C	1.417551	-0.472948	0.005408
C114	C	1.750885	-0.139614	0.338741
C115	C	1.134383	-0.778924	-0.378164
C116	C	1.467717	-0.445591	-0.044831
C117	C	1.801050	-0.112258	0.288503
C118	C	1.234727	-0.778812	-0.478651
C119	C	1.568061	-0.445479	-0.145318
C120	C	1.901394	-0.112145	0.188015
C121	C	1.234705	-0.724211	-0.478634
C122	C	1.568038	-0.390878	-0.145301
C123	C	1.901372	-0.057545	0.188032
C124	C	1.184522	-0.696967	-0.428382
C125	C	1.517855	-0.363634	-0.095049
C126	C	1.851189	-0.030301	0.238285
C127	C	1.134361	-0.724324	-0.378147
C128	C	1.467694	-0.390991	-0.044813
C129	C	1.801028	-0.057657	0.288520
C130	C	1.034026	-0.779034	-0.277675
C131	C	1.367359	-0.445701	0.055658
C132	C	1.700692	-0.112367	0.388991
C133	C	1.034003	-0.724427	-0.277669
C134	C	1.367336	-0.391094	0.055665
C135	C	1.700670	-0.057760	0.388998
C136	C	1.084169	-0.697071	-0.327907
C137	C	1.417502	-0.363737	0.005426
C138	C	1.750835	-0.030404	0.338759
C139	C	1.084156	-0.642479	-0.327877
C140	C	1.417489	-0.309146	0.005456
C141	C	1.750822	0.024187	0.338789
N142	N	1.134312	-0.615120	-0.378118
N143	N	1.467646	-0.281787	-0.044785
N144	N	1.800979	0.051547	0.288548
C145	C	1.184495	-0.642364	-0.428371
C146	C	1.517829	-0.309031	-0.095037
C147	C	1.851162	0.024303	0.238296
C148	C	1.084303	-0.975555	-0.327966
C149	C	1.417636	-0.642221	0.005368
C150	C	1.750970	-0.308888	0.338701
C151	C	1.084333	-1.030157	-0.327972
C152	C	1.417666	-0.696824	0.005361
C153	C	1.750999	-0.363490	0.338694
C154	C	1.184677	-1.030042	-0.428469
C155	C	1.518011	-0.696709	-0.095136
C156	C	1.851344	-0.363375	0.238198
C157	C	1.184651	-0.975439	-0.428458
C158	C	1.517984	-0.642105	-0.095124
C159	C	1.851317	-0.308772	0.238209
C160	C	1.134460	-0.948196	-0.378206
C161	C	1.467793	-0.614862	-0.044873
C162	C	1.801126	-0.281529	0.288460
C163	C	1.184445	-0.527699	-0.428330
C164	C	1.517778	-0.194366	-0.094997
C165	C	1.851112	0.138968	0.238336
C166	C	1.184421	-0.473094	-0.428306
C167	C	1.517754	-0.139760	-0.094973
C168	C	1.851087	0.193573	0.238360
C169	C	1.084074	-0.473214	-0.327813
C170	C	1.417407	-0.139880	0.005521
C171	C	1.750740	0.193453	0.338854
C172	C	1.084101	-0.527814	-0.327833
C173	C	1.417434	-0.194481	0.005500
C174	C	1.750767	0.138852	0.338833
C175	C	1.134289	-0.555056	-0.378099
C176	C	1.467622	-0.221722	-0.044765
C177	C	1.800956	0.111611	0.288568
O178	O	1.041516	-0.614245	-0.285145
O179	O	1.374849	-0.280912	0.048189
O180	O	1.708182	0.052421	0.381522
O181	O	1.227141	-0.614072	-0.471102
O182	O	1.560475	-0.280739	-0.137769
O183	O	1.893808	0.052594	0.195564
C184	C	1.339068	-0.251908	-0.378134
C185	C	1.672402	0.081425	-0.044800
C186	C	2.005735	0.414758	0.288533
C187	C	1.426318	-0.251915	-0.378141
C188	C	1.759651	0.081419	-0.044808
C189	C	2.092985	0.414752	0.288525
C190	C	1.134372	-0.251855	-0.582860
C191	C	1.467705	0.081479	-0.249527
C192	C	1.801038	0.414812	0.083807
C193	C	1.134392	-0.251838	-0.670110
C194	C	1.467725	0.081495	-0.336776
C195	C	1.801059	0.414829	-0.003443
C196	C	1.134457	-0.115520	-0.378194
C197	C	1.467790	0.217813	-0.044861
C198	C	1.801124	0.551147	0.288472
C199	C	1.134513	-0.057406	-0.378228
C200	C	1.467847	0.275927	-0.044895
C201	C	1.801180	0.609261	0.288439
C202	C	1.184632	-0.218399	-0.711125
C203	C	1.517965	0.114935	-0.377792
C204	C	1.851299	0.448268	-0.044458
C205	C	1.184641	-0.218381	-0.793105
C206	C	1.517975	0.114952	-0.459772
C207	C	1.851308	0.448285	-0.126439
C208	C	1.134414	-0.251806	-0.834069
C209	C	1.467747	0.081527	-0.500736
C210	C	1.801081	0.414860	-0.167403
C211	C	1.084168	-0.285247	-0.793048
C212	C	1.417502	0.048086	-0.459715
C213	C	1.750835	0.381419	-0.126382
C214	C	1.084156	-0.285262	-0.711069
C215	C	1.417489	0.048072	-0.377736
C216	C	1.750822	0.381405	-0.044403
C217	C	1.084200	-0.285216	-0.963918
C218	C	1.417533	0.048118	-0.630585
C219	C	1.750867	0.381451	-0.297252
C220	C	1.084214	-0.285202	-1.045903
C221	C	1.417547	0.048131	-0.712570
C222	C	1.750880	0.381464	-0.379236
C223	C	1.184686	-0.218335	-1.045955
C224	C	1.518019	0.114998	-0.712621
C225	C	1.851353	0.448331	-0.379288
C226	C	1.184673	-0.218350	-0.963976
C227	C	1.518006	0.114983	-0.630642
C228	C	1.851340	0.448317	-0.297309
C229	C	1.134428	-0.251792	-0.922960
C230	C	1.467762	0.081542	-0.589627
C231	C	1.801095	0.414875	-0.256294
C232	C	1.134322	-0.251894	-0.174168
C233	C	1.467655	0.081440	0.159166
C234	C	1.800989	0.414773	0.492499
C235	C	1.134454	-0.251763	-0.086918
C236	C	1.467787	0.081571	0.246415
C237	C	1.801121	0.414904	0.579748
H238	H	0.835585	-0.191300	-0.469369
H239	H	1.168918	0.142033	-0.136035
H240	H	1.502252	0.475367	0.197298
O241	O	0.423000	-0.321317	-0.273585
O242	O	0.756333	0.012016	0.059749
O243	O	1.089667	0.345349	0.393082
H244	H	0.438713	-0.362365	-0.286909
H245	H	0.772046	-0.029032	0.046424
H246	H	1.105380	0.304302	0.379758
H247	H	0.582583	-0.312488	-0.286865
H248	H	0.915916	0.020845	0.046469
H249	H	1.249250	0.354178	0.379802
H250	H	1.225577	-0.191135	-0.930625
H251	H	1.558910	0.142198	-0.597292
H252	H	1.892244	0.475531	-0.263958
H253	H	1.043491	-1.052426	-0.287055
H254	H	1.376825	-0.719093	0.046279
H255	H	1.710158	-0.385759	0.379612
H256	H	1.275552	-0.701941	-0.519545
H257	H	1.608885	-0.368608	-0.186212
H258	H	1.942218	-0.035274	0.147122
H259	H	0.686702	-0.312476	-0.286858
H260	H	1.020035	0.020858	0.046476
H261	H	1.353368	0.354191	0.379809
H262	H	1.043434	-0.953376	-0.287038
H263	H	1.376767	-0.620043	0.046295
H264	H	1.710100	-0.286709	0.379628
O265	O	0.676035	-0.182484	-0.482667
O266	O	1.009369	0.150850	-0.149334
O267	O	1.342702	0.484183	0.183999
H268	H	0.718341	-0.159264	-0.517645
H269	H	1.051674	0.174069	-0.184312
H270	H	1.385008	0.507403	0.149022
H271	H	0.993176	-0.801298	-0.236765
H272	H	1.326509	-0.467965	0.096568
H273	H	1.659843	-0.134632	0.429901
O274	O	0.593594	-0.182486	-0.482672
O275	O	0.926927	0.150847	-0.149339
O276	O	1.260260	0.484181	0.183994
H277	H	0.551351	-0.159262	-0.517647
H278	H	0.884685	0.174071	-0.184314
H279	H	1.218018	0.507405	0.149019
H280	H	1.225308	-0.549873	-0.469266
H281	H	1.558641	-0.216539	-0.135933
H282	H	1.891975	0.116794	0.197401
H283	H	1.043237	-0.312486	-0.677676
H284	H	1.376570	0.020847	-0.344342
H285	H	1.709904	0.354181	-0.011009
O286	O	1.238801	-1.059433	-0.482676
O287	O	1.572135	-0.726099	-0.149343
O288	O	1.905468	-0.392766	0.183990
H289	H	1.225298	-1.048923	-0.544268
H290	H	1.558631	-0.715590	-0.210935
H291	H	1.891964	-0.382257	0.122398
H292	H	1.275592	-0.800988	-0.519578
H293	H	1.608926	-0.467655	-0.186244
H294	H	1.942259	-0.134322	0.147089
O295	O	0.423197	-0.182494	-0.482697
O296	O	0.756530	0.150840	-0.149363
O297	O	1.089864	0.484173	0.183970
H298	H	0.359298	-0.188102	-0.474246
H299	H	0.692631	0.145231	-0.140913
H300	H	1.025965	0.478565	0.192421
O301	O	0.979870	-0.695047	-0.223459
O302	O	1.313203	-0.361714	0.109874
O303	O	1.646537	-0.028381	0.443207
H304	H	0.939895	-0.670174	-0.258546
H305	H	1.273228	-0.336841	0.074787
H306	H	1.606562	-0.003508	0.408120
O307	O	0.846266	-0.321294	-0.273553
O308	O	1.179599	0.012040	0.059781
O309	O	1.512932	0.345373	0.393114
H310	H	0.803961	-0.344521	-0.238585
H311	H	1.137295	-0.011188	0.094749
H312	H	1.470628	0.322146	0.428082
H313	H	1.043258	-0.550089	-0.286919
H314	H	1.376591	-0.216756	0.046414
H315	H	1.709925	0.116578	0.379748
O316	O	1.030025	-0.321244	-1.090084
O317	O	1.363358	0.012089	-0.756751
O318	O	1.696691	0.345423	-0.423418
H319	H	1.038480	-0.315616	-1.153979
H320	H	1.371813	0.017717	-0.820646
H321	H	1.705147	0.351051	-0.487313
O322	O	1.238538	-0.443586	-0.482485
O323	O	1.571872	-0.110253	-0.149151
O324	O	1.905205	0.223080	0.184182
H325	H	1.273434	-0.471708	-0.517432
H326	H	1.606767	-0.138375	-0.184098
H327	H	1.940101	0.194959	0.149235
H328	H	1.225535	-0.191182	-0.677778
H329	H	1.558869	0.142152	-0.344445
H330	H	1.892202	0.475485	-0.011111
H331	H	1.043270	-0.312460	-0.826407
H332	H	1.376603	0.020873	-0.493074
H333	H	1.709936	0.354206	-0.159741
O334	O	1.029946	-0.443825	-0.273615
O335	O	1.363280	-0.110491	0.059719
O336	O	1.696613	0.222842	0.393052
H337	H	1.038357	-0.401261	-0.282055
H338	H	1.371690	-0.067927	0.051279
H339	H	1.705023	0.265406	0.384612
H340	H	1.225554	-0.191153	-0.826496
H341	H	1.558887	0.142180	-0.493163
H342	H	1.892221	0.475514	-0.159830
H343	H	1.225499	-0.953168	-0.469367
H344	H	1.558833	-0.619835	-0.136033
H345	H	1.892166	-0.286502	0.197300
H346	H	1.225596	-0.191105	-1.079353
H347	H	1.558929	0.142228	-0.746020
H348	H	1.892262	0.475561	-0.412687
O349	O	1.030004	-0.321280	-0.919676
O350	O	1.363337	0.012053	-0.586342
O351	O	1.696670	0.345386	-0.253009
H352	H	0.995083	-0.344524	-0.961931
H353	H	1.328416	-0.011190	-0.628598
H354	H	1.661750	0.322143	-0.295264
