data_functionalizedCrystal
_audit_creation_method	'MofGen! by Chris Wilmer'
_symmetry_space_group_name_H-M	'P1'
_symmetry_Int_Tables_number	1
_symmetry_cell_setting	triclinic
loop_
_symmetry_equiv_pos_as_xyz
  x,y,z
_cell_length_a	27.732048
_cell_length_b	27.732064
_cell_length_c	10.868271
_cell_angle_alpha	89.998962
_cell_angle_beta	90.001179
_cell_angle_gamma	82.646039
loop_
_atom_site_label
_atom_site_type_symbol
_atom_site_fract_x
_atom_site_fract_y
_atom_site_fract_z
O1	O	0.640930	0.057517	-0.102154
O2	O	0.974264	0.390850	0.231180
O3	O	1.307597	0.724183	0.564513
O4	O	0.500137	0.066262	-0.102189
O5	O	0.833471	0.399596	0.231144
O6	O	1.166804	0.732929	0.564477
O7	O	0.574902	-0.008507	-0.102175
O8	O	0.908236	0.324827	0.231158
O9	O	1.241569	0.658160	0.564492
O10	O	0.566165	0.132286	-0.102168
O11	O	0.899499	0.465619	0.231166
O12	O	1.232832	0.798952	0.564499
O13	O	0.574896	-0.008509	0.102470
O14	O	0.908230	0.324824	0.435803
O15	O	1.241563	0.658157	0.769136
O16	O	0.500131	0.066259	0.102455
O17	O	0.833465	0.399593	0.435789
O18	O	1.166798	0.732926	0.769122
O19	O	0.640924	0.057514	0.102491
O20	O	0.974258	0.390847	0.435824
O21	O	1.307591	0.724181	0.769158
Zn22	Zn	0.570527	0.061886	0.134965
Zn23	Zn	0.903860	0.395220	0.468298
Zn24	Zn	1.237194	0.728553	0.801632
Zn25	Zn	0.570535	0.061890	-0.134663
Zn26	Zn	0.903868	0.395223	0.198670
Zn27	Zn	1.237202	0.728557	0.532003
O28	O	0.566159	0.132283	0.102477
O29	O	0.899493	0.465616	0.435810
O30	O	1.232826	0.798949	0.769144
C31	C	0.482127	0.066077	0.000128
C32	C	0.815461	0.399411	0.333462
C33	C	1.148794	0.732744	0.666795
C34	C	0.428473	0.065524	0.000114
C35	C	0.761806	0.398858	0.333448
C36	C	1.095139	0.732191	0.666781
C37	C	0.089660	0.106228	0.000170
C38	C	0.422993	0.439561	0.333503
C39	C	0.756327	0.772895	0.666836
C40	C	-0.112000	0.104177	0.000181
C41	C	0.221334	0.437510	0.333514
C42	C	0.554667	0.770844	0.666847
O43	O	-0.143253	0.141397	0.000236
O44	O	0.190080	0.474731	0.333569
O45	O	0.523413	0.808064	0.666902
N46	N	-0.131126	0.059842	0.000176
N47	N	0.202207	0.393175	0.333509
N48	N	0.535540	0.726509	0.666843
C49	C	-0.099834	0.016017	0.000177
C50	C	0.233499	0.349350	0.333510
C51	C	0.566833	0.682683	0.666844
O52	O	-0.120729	-0.021740	0.000186
O53	O	0.212604	0.311594	0.333519
O54	O	0.545937	0.644927	0.666853
C55	C	0.101825	0.018068	0.000175
C56	C	0.435158	0.351402	0.333508
C57	C	0.768491	0.684735	0.666841
C58	C	0.120948	0.062406	0.000167
C59	C	0.454281	0.395739	0.333500
C60	C	0.787615	0.729073	0.666834
C61	C	0.108784	0.150562	0.000163
C62	C	0.442117	0.483895	0.333496
C63	C	0.775451	0.817229	0.666830
C64	C	0.159196	0.151074	0.000154
C65	C	0.492529	0.484408	0.333487
C66	C	0.825862	0.817741	0.666820
C67	C	0.190484	0.107252	0.000151
C68	C	0.523817	0.440586	0.333484
C69	C	0.857151	0.773919	0.666817
C70	C	0.171360	0.062918	0.000157
C71	C	0.504693	0.396252	0.333491
C72	C	0.838027	0.729585	0.666824
C73	C	0.133116	-0.025756	0.000184
C74	C	0.466449	0.307577	0.333518
C75	C	0.799782	0.640910	0.666851
C76	C	0.183533	-0.025240	0.000187
C77	C	0.516866	0.308094	0.333520
C78	C	0.850200	0.641427	0.666854
C79	C	0.202656	0.019098	0.000179
C80	C	0.535990	0.352431	0.333512
C81	C	0.869323	0.685765	0.666846
C82	C	0.253060	0.019609	0.000145
C83	C	0.586393	0.352942	0.333478
C84	C	0.919727	0.686275	0.666812
N85	N	0.272186	0.063944	0.000150
N86	N	0.605520	0.397277	0.333483
N87	N	0.938853	0.730610	0.666816
C88	C	0.240898	0.107765	0.000152
C89	C	0.574232	0.441099	0.333486
C90	C	0.907565	0.774432	0.666819
C91	C	-0.205708	0.014943	0.000176
C92	C	0.127625	0.348276	0.333509
C93	C	0.460958	0.681610	0.666842
C94	C	-0.256123	0.014430	0.000174
C95	C	0.077211	0.347763	0.333507
C96	C	0.410544	0.681097	0.666841
C97	C	-0.268285	0.102590	0.000180
C98	C	0.065048	0.435923	0.333513
C99	C	0.398382	0.769257	0.666847
C100	C	-0.217870	0.103103	0.000173
C101	C	0.115464	0.436436	0.333506
C102	C	0.448797	0.769769	0.666839
C103	C	-0.186582	0.059278	0.000180
C104	C	0.146751	0.392611	0.333513
C105	C	0.480085	0.725944	0.666847
C106	C	0.346768	0.108838	0.000132
C107	C	0.680101	0.442171	0.333465
C108	C	1.013434	0.775505	0.666798
C109	C	0.397185	0.109346	0.000117
C110	C	0.730518	0.442680	0.333450
C111	C	1.063851	0.776013	0.666784
C112	C	0.409342	0.021186	0.000118
C113	C	0.742676	0.354520	0.333451
C114	C	1.076009	0.687853	0.666784
C115	C	0.358930	0.020678	0.000126
C116	C	0.692263	0.354011	0.333459
C117	C	1.025596	0.687344	0.666792
C118	C	0.327643	0.064507	0.000137
C119	C	0.660976	0.397841	0.333470
C120	C	0.994310	0.731174	0.666803
O121	O	0.284342	-0.017592	0.000104
O122	O	0.617675	0.315742	0.333437
O123	O	0.951008	0.649075	0.666770
O124	O	0.261803	0.145516	0.000171
O125	O	0.595136	0.478850	0.333504
O126	O	0.928470	0.812183	0.666837
C127	C	0.039248	0.105716	0.000179
C128	C	0.372581	0.439049	0.333512
C129	C	0.705915	0.772382	0.666846
C130	C	0.020124	0.061381	0.000186
C131	C	0.353457	0.394715	0.333519
C132	C	0.686791	0.728048	0.666852
C133	C	0.051412	0.017560	0.000183
C134	C	0.384745	0.350893	0.333516
C135	C	0.718079	0.684226	0.666850
C136	C	-0.030290	0.060868	0.000184
C137	C	0.303043	0.394202	0.333517
C138	C	0.636376	0.727535	0.666851
C139	C	-0.061578	0.104690	0.000187
C140	C	0.271755	0.438024	0.333520
C141	C	0.605088	0.771357	0.666854
C142	C	-0.042452	0.149025	0.000191
C143	C	0.290881	0.482359	0.333525
C144	C	0.624215	0.815692	0.666858
C145	C	0.007960	0.149537	0.000182
C146	C	0.341293	0.482871	0.333515
C147	C	0.674627	0.816204	0.666849
C148	C	0.032286	-0.026775	0.000178
C149	C	0.365619	0.306558	0.333512
C150	C	0.698952	0.639891	0.666845
C151	C	-0.018127	-0.027284	0.000186
C152	C	0.315207	0.306049	0.333520
C153	C	0.648540	0.639383	0.666853
C154	C	-0.049415	0.016538	0.000189
C155	C	0.283918	0.349871	0.333523
C156	C	0.617252	0.683205	0.666856
C157	C	0.574715	-0.026515	0.000143
C158	C	0.908048	0.306818	0.333477
C159	C	1.241381	0.640152	0.666810
C160	C	0.574159	-0.080169	0.000132
C161	C	0.907492	0.253164	0.333465
C162	C	1.240825	0.586497	0.666798
C163	C	0.526192	-0.457242	0.000115
C164	C	0.859525	-0.123909	0.333448
C165	C	1.192858	0.209425	0.666781
C166	C	0.528238	-0.255582	0.000114
C167	C	0.861571	0.077752	0.333447
C168	C	1.194905	0.411085	0.666780
O169	O	0.491017	-0.224329	0.000055
O170	O	0.824350	0.109004	0.333388
O171	O	1.157684	0.442338	0.666722
N172	N	0.572572	-0.236454	0.000125
N173	N	0.905906	0.096879	0.333458
N174	N	1.239239	0.430212	0.666791
C175	C	0.616398	-0.267745	0.000128
C176	C	0.949731	0.065588	0.333461
C177	C	1.283065	0.398921	0.666795
O178	O	0.654154	-0.246849	0.000125
O179	O	0.987487	0.086484	0.333458
O180	O	1.320821	0.419818	0.666791
C181	C	0.614351	-0.469405	0.000120
C182	C	0.947685	-0.136071	0.333454
C183	C	1.281018	0.197262	0.666787
C184	C	0.570014	-0.488529	0.000122
C185	C	0.903347	-0.155196	0.333455
C186	C	1.236681	0.178138	0.666788
C187	C	0.481858	-0.476367	0.000115
C188	C	0.815191	-0.143034	0.333448
C189	C	1.148525	0.190300	0.666781
C190	C	0.481347	-0.526779	0.000122
C191	C	0.814680	-0.193446	0.333455
C192	C	1.148014	0.139888	0.666788
C193	C	0.525169	-0.558066	0.000129
C194	C	0.858503	-0.224733	0.333462
C195	C	1.191836	0.108600	0.666795
C196	C	0.569503	-0.538941	0.000129
C197	C	0.902836	-0.205608	0.333462
C198	C	1.236170	0.127725	0.666795
C199	C	0.658177	-0.500695	0.000115
C200	C	0.991510	-0.167361	0.333448
C201	C	1.324843	0.165972	0.666781
C202	C	0.657661	-0.551112	0.000110
C203	C	0.990994	-0.217779	0.333443
C204	C	1.324328	0.115554	0.666776
C205	C	0.613324	-0.570237	0.000111
C206	C	0.946657	-0.236903	0.333444
C207	C	1.279991	0.096430	0.666778
C208	C	0.612814	-0.620640	0.000143
C209	C	0.946148	-0.287307	0.333476
C210	C	1.279481	0.046026	0.666809
N211	N	0.568480	-0.639768	0.000131
N212	N	0.901813	-0.306435	0.333465
N213	N	1.235147	0.026899	0.666798
C214	C	0.524658	-0.608481	0.000125
C215	C	0.857991	-0.275147	0.333458
C216	C	1.191324	0.058186	0.666791
C217	C	0.617469	-0.161871	0.000134
C218	C	0.950803	0.171462	0.333468
C219	C	1.284136	0.504796	0.666801
C220	C	0.617981	-0.111456	0.000139
C221	C	0.951315	0.221877	0.333472
C222	C	1.284648	0.555210	0.666805
C223	C	0.529821	-0.099296	0.000122
C224	C	0.863154	0.234037	0.333455
C225	C	1.196488	0.567370	0.666789
C226	C	0.529310	-0.149712	0.000127
C227	C	0.862643	0.183622	0.333460
C228	C	1.195976	0.516955	0.666793
C229	C	0.573135	-0.180998	0.000123
C230	C	0.906469	0.152335	0.333457
C231	C	1.239802	0.485668	0.666790
C232	C	0.523588	-0.714350	0.000140
C233	C	0.856921	-0.381017	0.333474
C234	C	1.190254	-0.047684	0.666807
C235	C	0.523080	-0.764767	0.000152
C236	C	0.856414	-0.431434	0.333486
C237	C	1.189747	-0.098101	0.666819
C238	C	0.611241	-0.776923	0.000163
C239	C	0.944574	-0.443590	0.333496
C240	C	1.277907	-0.110257	0.666829
C241	C	0.611748	-0.726511	0.000157
C242	C	0.945081	-0.393177	0.333490
C243	C	1.278415	-0.059844	0.666824
C244	C	0.567918	-0.695225	0.000142
C245	C	0.901251	-0.361891	0.333475
C246	C	1.234584	-0.028558	0.666808
O247	O	0.650016	-0.651921	0.000187
O248	O	0.983349	-0.318588	0.333521
O249	O	1.316682	0.014745	0.666854
O250	O	0.486907	-0.629387	0.000101
O251	O	0.820241	-0.296053	0.333434
O252	O	1.153574	0.037280	0.666767
C253	C	0.526703	-0.406830	0.000108
C254	C	0.860036	-0.073497	0.333441
C255	C	1.193369	0.259837	0.666774
C256	C	0.571036	-0.387705	0.000108
C257	C	0.904370	-0.054372	0.333441
C258	C	1.237703	0.278962	0.666774
C259	C	0.614859	-0.418992	0.000115
C260	C	0.948192	-0.085659	0.333448
C261	C	1.281525	0.247675	0.666781
C262	C	0.571548	-0.337290	0.000112
C263	C	0.904881	-0.003957	0.333445
C264	C	1.238215	0.329376	0.666779
C265	C	0.527726	-0.306003	0.000105
C266	C	0.861059	0.027330	0.333438
C267	C	1.194392	0.360663	0.666772
C268	C	0.483391	-0.325131	0.000094
C269	C	0.816725	0.008203	0.333427
C270	C	1.150058	0.341536	0.666760
C271	C	0.482880	-0.375543	0.000101
C272	C	0.816214	-0.042209	0.333434
C273	C	1.149547	0.291124	0.666767
C274	C	0.659193	-0.399865	0.000126
C275	C	0.992526	-0.066531	0.333459
C276	C	1.325860	0.266802	0.666792
C277	C	0.659701	-0.349452	0.000120
C278	C	0.993034	-0.016119	0.333454
C279	C	1.326367	0.317215	0.666787
C280	C	0.615878	-0.318165	0.000113
C281	C	0.949211	0.015169	0.333447
C282	C	1.282545	0.348502	0.666780
C283	C	0.658934	0.057699	0.000171
C284	C	0.992268	0.391032	0.333504
C285	C	1.325601	0.724366	0.666837
C286	C	0.712589	0.058252	0.000177
C287	C	1.045923	0.391585	0.333510
C288	C	1.379256	0.724918	0.666843
C289	C	0.566347	0.150291	0.000156
C290	C	0.899680	0.483624	0.333489
C291	C	1.233014	0.816958	0.666822
C292	C	0.566903	0.203945	0.000159
C293	C	0.900236	0.537279	0.333493
C294	C	1.233570	0.870612	0.666826
N295	N	0.570525	0.061883	0.318979
N296	N	0.903858	0.395217	0.652312
N297	N	1.237192	0.728550	0.985646
N298	N	0.570541	0.061889	-0.318677
N299	N	0.903874	0.395222	0.014656
N300	N	1.237207	0.728556	0.347989
C301	C	0.570532	0.061889	0.569985
C302	C	0.903866	0.395222	0.903318
C303	C	1.237199	0.728556	1.236652
C304	C	0.570527	0.061887	0.430308
C305	C	0.903860	0.395221	0.763641
C306	C	1.237193	0.728554	1.096974
H307	H	0.057756	-0.062461	0.000179
H308	H	0.391090	0.270872	0.333512
H309	H	0.724423	0.604206	0.666846
H310	H	0.446171	-0.450897	0.000105
H311	H	0.779504	-0.117564	0.333438
H312	H	1.112837	0.215769	0.666772
H313	H	0.486974	-0.780335	0.000159
H314	H	0.820308	-0.447002	0.333492
H315	H	1.153641	-0.113669	0.666826
H316	H	0.493206	-0.165279	0.000133
H317	H	0.826540	0.168054	0.333466
H318	H	1.159873	0.501388	0.666799
O319	O	0.340294	-0.022361	0.000288
O320	O	0.673628	0.310972	0.333621
O321	O	1.006961	0.644306	0.666955
C322	C	0.311515	-0.025303	0.106303
C323	C	0.644848	0.308030	0.439636
C324	C	0.978181	0.641363	0.772970
H325	H	0.298681	0.012890	0.141640
H326	H	0.632014	0.346224	0.474974
H327	H	0.965347	0.679557	0.808307
H328	H	0.278638	-0.044323	0.082482
H329	H	0.611971	0.289011	0.415815
H330	H	0.945304	0.622344	0.749148
H331	H	0.333953	-0.046857	0.180512
H332	H	0.667286	0.286476	0.513845
H333	H	1.000619	0.619810	0.847179
H334	H	0.695808	-0.333886	0.000129
H335	H	1.029141	-0.000553	0.333462
H336	H	1.362475	0.332781	0.666795
O337	O	0.439768	-0.394036	0.000039
O338	O	0.773101	-0.060703	0.333373
O339	O	1.106435	0.272631	0.666706
C340	C	0.401205	-0.355603	0.000062
C341	C	0.734538	-0.022269	0.333395
C342	C	1.067871	0.311064	0.666728
H343	H	0.414499	-0.321451	-0.038678
H344	H	0.747832	0.011882	0.294655
H345	H	1.081166	0.345215	0.627988
H346	H	0.370227	-0.365910	-0.059359
H347	H	0.703560	-0.032576	0.273974
H348	H	1.036893	0.300757	0.607308
H349	H	0.387704	-0.348370	0.098237
H350	H	0.721037	-0.015036	0.431571
H351	H	1.054371	0.318297	0.764904
O352	O	0.480967	-0.684033	0.000184
O353	O	0.814301	-0.350699	0.333517
O354	O	1.147634	-0.017366	0.666851
C355	C	0.441733	-0.711733	0.000155
C356	C	0.775066	-0.378399	0.333488
C357	C	1.108400	-0.045066	0.666822
H358	H	0.454297	-0.749451	0.038901
H359	H	0.787631	-0.416118	0.372235
H360	H	1.120964	-0.082785	0.705568
H361	H	0.411049	-0.692918	0.059567
H362	H	0.744383	-0.359585	0.392900
H363	H	1.077716	-0.026251	0.726234
H364	H	0.428125	-0.715227	-0.098024
H365	H	0.761459	-0.381894	0.235310
H366	H	1.094792	-0.048561	0.568643
O367	O	0.661008	-0.092801	0.000203
O368	O	0.994341	0.240532	0.333536
O369	O	1.327674	0.573865	0.666869
C370	C	0.652069	-0.041595	0.000171
C371	C	0.985403	0.291739	0.333504
C372	C	1.318736	0.625072	0.666837
H373	H	0.614258	-0.029478	0.038913
H374	H	0.947591	0.303855	0.372247
H375	H	1.280925	0.637189	0.705580
H376	H	0.680418	-0.026322	0.059585
H377	H	1.013751	0.307011	0.392918
H378	H	1.347084	0.640344	0.726251
H379	H	0.654305	-0.027576	-0.098008
H380	H	0.987638	0.305757	0.235325
H381	H	1.320972	0.639090	0.568659
O382	O	0.487295	-0.068831	0.000052
O383	O	0.820629	0.264503	0.333385
O384	O	1.153962	0.597836	0.666718
C385	C	0.497260	-0.020234	0.000084
C386	C	0.830594	0.313099	0.333418
C387	C	1.163927	0.646432	0.666751
H388	H	0.535217	-0.018582	-0.038636
H389	H	0.868550	0.314751	0.294697
H390	H	1.201884	0.648085	0.628030
H391	H	0.469312	0.002813	-0.059349
H392	H	0.802645	0.336146	0.273985
H393	H	1.135978	0.669479	0.607318
H394	H	0.495310	-0.005638	0.098260
H395	H	0.828643	0.327695	0.431594
H396	H	1.161976	0.661029	0.764927
O397	O	0.440834	-0.294713	-0.000134
O398	O	0.774168	0.038620	0.333199
O399	O	1.107501	0.371953	0.666533
C400	C	0.438508	-0.265182	-0.106111
C401	C	0.771841	0.068151	0.227223
C402	C	1.105174	0.401485	0.560556
H403	H	0.463368	-0.283831	-0.180179
H404	H	0.796701	0.049502	0.153154
H405	H	1.130034	0.382835	0.486487
H406	H	0.399529	-0.259225	-0.141700
H407	H	0.732863	0.074108	0.191633
H408	H	1.066196	0.407441	0.524966
H409	H	0.450743	-0.228610	-0.082150
H410	H	0.784077	0.104723	0.251183
H411	H	1.117410	0.438057	0.584516
O412	O	0.653821	-0.807300	0.000381
O413	O	0.987154	-0.473966	0.333714
O414	O	1.320488	-0.140633	0.667048
C415	C	0.680773	-0.798678	0.106347
C416	C	1.014107	-0.465345	0.439681
C417	C	1.347440	-0.132011	0.773014
H418	H	0.655128	-0.781260	0.180434
H419	H	0.988461	-0.447927	0.513768
H420	H	1.321795	-0.114593	0.847101
H421	H	0.700429	-0.834594	0.141915
H422	H	1.033763	-0.501260	0.475249
H423	H	1.367096	-0.167927	0.808582
H424	H	0.708557	-0.773209	0.082381
H425	H	1.041891	-0.439876	0.415715
H426	H	1.375224	-0.106542	0.749048
H427	H	0.321299	0.144528	0.000145
H428	H	0.654633	0.477862	0.333478
H429	H	0.987966	0.811195	0.666811
H430	H	-0.271688	-0.021674	0.000161
H431	H	0.061645	0.311659	0.333494
H432	H	0.394979	0.644992	0.666828
H433	H	-0.067936	0.184706	0.000189
H434	H	0.265397	0.518040	0.333522
H435	H	0.598731	0.851373	0.666855
O436	O	0.439721	-0.021392	-0.000103
O437	O	0.773055	0.311941	0.333230
O438	O	1.106388	0.645274	0.666563
C439	C	0.431098	-0.048343	-0.106069
C440	C	0.764431	0.284990	0.227264
C441	C	1.097764	0.618323	0.560597
H442	H	0.413675	-0.022697	-0.180153
H443	H	0.747008	0.310636	0.153181
H444	H	1.080341	0.643970	0.486514
H445	H	0.467013	-0.067995	-0.141644
H446	H	0.800347	0.265338	0.191690
H447	H	1.133680	0.598671	0.525023
H448	H	0.405633	-0.076130	-0.082100
H449	H	0.738966	0.257203	0.251233
H450	H	1.072299	0.590536	0.584566
H451	H	0.083313	0.186249	0.000170
H452	H	0.416647	0.519582	0.333503
H453	H	0.749980	0.852916	0.666837
O454	O	-0.036619	-0.070400	0.000247
O455	O	0.296714	0.262934	0.333580
O456	O	0.630048	0.596267	0.666913
C457	C	0.001813	-0.108964	0.000214
C458	C	0.335146	0.224369	0.333547
C459	C	0.668480	0.557702	0.666881
H460	H	0.035967	-0.095671	0.038942
H461	H	0.369301	0.237662	0.372275
H462	H	0.702634	0.570996	0.705609
H463	H	-0.008492	-0.139941	0.059640
H464	H	0.324842	0.193392	0.392973
H465	H	0.658175	0.526725	0.726307
H466	H	0.009041	-0.122466	-0.097963
H467	H	0.342374	0.210868	0.235370
H468	H	0.675708	0.544201	0.568704
H469	H	0.209006	-0.060928	0.000194
H470	H	0.542339	0.272405	0.333527
H471	H	0.875672	0.605739	0.666861
H472	H	0.694879	-0.425334	0.000130
H473	H	1.028213	-0.092001	0.333463
H474	H	1.361546	0.241332	0.666797
H475	H	-0.293769	0.138272	0.000182
H476	H	0.039565	0.471605	0.333516
H477	H	0.372898	0.804938	0.666849
O478	O	0.660089	-0.192191	0.000197
O479	O	0.993422	0.141142	0.333530
O480	O	1.326756	0.474476	0.666863
C481	C	0.699324	-0.164491	0.000180
C482	C	1.032657	0.168842	0.333514
C483	C	1.365990	0.502175	0.666847
H484	H	0.686758	-0.126773	0.038920
H485	H	1.020091	0.206561	0.372253
H486	H	1.353424	0.539894	0.705586
H487	H	0.730005	-0.183306	0.059605
H488	H	1.063338	0.150027	0.392938
H489	H	1.396671	0.483361	0.726272
H490	H	0.712935	-0.160997	-0.097993
H491	H	1.046269	0.172337	0.235340
H492	H	1.379602	0.505670	0.568674
H493	H	0.445243	-0.542345	0.000112
H494	H	0.778577	-0.209012	0.333446
H495	H	1.111910	0.124321	0.666779
H496	H	0.023525	0.185642	0.000177
H497	H	0.356858	0.518975	0.333511
H498	H	0.690192	0.852308	0.666844
H499	H	0.694281	-0.485133	0.000113
H500	H	1.027614	-0.151800	0.333446
H501	H	1.360947	0.181534	0.666779
O502	O	-0.199376	0.146214	0.000228
O503	O	0.133958	0.479548	0.333561
O504	O	0.467291	0.812881	0.666895
C505	C	-0.237808	0.184779	0.000193
C506	C	0.095525	0.518113	0.333527
C507	C	0.428859	0.851446	0.666860
H508	H	-0.271960	0.171487	0.038932
H509	H	0.061373	0.504820	0.372265
H510	H	0.394706	0.838153	0.705599
H511	H	-0.227500	0.215757	0.059609
H512	H	0.105833	0.549091	0.392943
H513	H	0.439166	0.882424	0.726276
H514	H	-0.245040	0.198278	-0.097986
H515	H	0.088293	0.531612	0.235348
H516	H	0.421626	0.864945	0.568681
H517	H	0.412752	0.145453	0.000110
H518	H	0.746085	0.478786	0.333443
H519	H	1.079418	0.812120	0.666777
O520	O	0.700266	-0.581455	-0.000055
O521	O	1.033599	-0.248121	0.333278
O522	O	1.366933	0.085212	0.666612
C523	C	0.727200	-0.572842	-0.106058
C524	C	1.060533	-0.239509	0.227275
C525	C	1.393867	0.093824	0.560608
H526	H	0.715035	-0.534510	-0.141398
H527	H	1.048368	-0.201176	0.191936
H528	H	1.381701	0.132157	0.525269
H529	H	0.767542	-0.576678	-0.082221
H530	H	1.100876	-0.243345	0.251112
H531	H	1.434209	0.089989	0.584446
H532	H	0.720803	-0.600375	-0.180272
H533	H	1.054136	-0.267041	0.153061
H534	H	1.387470	0.066292	0.486395
O535	O	0.177688	0.194187	0.000215
O536	O	0.511021	0.527520	0.333549
O537	O	0.844355	0.860854	0.666882
C538	C	0.139254	0.232750	0.000193
C539	C	0.472587	0.566083	0.333527
C540	C	0.805921	0.899416	0.666860
H541	H	0.105103	0.219453	0.038930
H542	H	0.438436	0.552787	0.372264
H543	H	0.771770	0.886120	0.705597
H544	H	0.149561	0.263726	0.059617
H545	H	0.482894	0.597059	0.392950
H546	H	0.816227	0.930393	0.726283
H547	H	0.132019	0.246253	-0.097982
H548	H	0.465353	0.579586	0.235351
H549	H	0.798686	0.912919	0.568685
H550	H	-0.180238	-0.020747	0.000182
H551	H	0.153096	0.312587	0.333515
H552	H	0.486429	0.645920	0.666848
H553	H	0.117555	-0.061861	0.000192
H554	H	0.450888	0.271472	0.333525
H555	H	0.784221	0.604806	0.666859
H556	H	0.647851	-0.710939	0.000173
H557	H	0.981184	-0.377605	0.333507
H558	H	1.314518	-0.044272	0.666840
