data_functionalizedCrystal
_audit_creation_method	'MofGen! by Chris Wilmer'
_symmetry_space_group_name_H-M	'P1'
_symmetry_Int_Tables_number	1
_symmetry_cell_setting	triclinic
loop_
_symmetry_equiv_pos_as_xyz
  x,y,z
_cell_length_a	14.908571
_cell_length_b	14.909351
_cell_length_c	14.908308
_cell_angle_alpha	83.253152
_cell_angle_beta	89.824947
_cell_angle_gamma	83.622639
loop_
_atom_site_label
_atom_site_type_symbol
_atom_site_fract_x
_atom_site_fract_y
_atom_site_fract_z
Zn1	Zn	1.370974	-0.473902	0.616439
Zn2	Zn	1.870974	0.026098	1.116439
Zn3	Zn	1.387337	-0.617538	0.474826
Zn4	Zn	1.887337	-0.117538	0.974826
Zn5	Zn	1.228344	-0.456459	0.456375
Zn6	Zn	1.728344	0.043541	0.956375
Zn7	Zn	1.228306	-0.616459	0.616412
Zn8	Zn	1.728306	-0.116459	1.116412
O9	O	1.303740	-0.541089	0.541013
O10	O	1.803740	-0.041089	1.041013
O11	O	1.499391	-0.500706	0.605387
O12	O	1.999391	-0.000706	1.105387
O13	O	1.373110	-0.589322	0.346137
O14	O	1.873110	-0.089322	0.846137
O15	O	1.240432	-0.331701	0.469898
O16	O	1.740432	0.168299	0.969898
O17	O	1.511413	-0.606235	0.501345
O18	O	2.011413	-0.106235	1.001345
O19	O	1.345221	-0.344516	0.587496
O20	O	1.845221	0.155484	1.087496
O21	O	1.256299	-0.470979	0.332581
O22	O	1.756299	0.029021	0.832581
O23	O	1.102093	-0.469932	0.469871
O24	O	1.602093	0.030068	0.969871
O25	O	1.240368	-0.604396	0.742657
O26	O	1.740368	-0.104396	1.242657
O27	O	1.102065	-0.587483	0.587450
O28	O	1.602065	-0.087483	1.087450
O29	O	1.345185	-0.499660	0.742677
O30	O	1.845185	0.000340	1.242677
O31	O	1.373074	-0.744467	0.501318
O32	O	1.873074	-0.244467	1.001318
O33	O	1.256235	-0.743674	0.605341
O34	O	1.756235	-0.243674	1.105341
C35	C	1.069345	-0.526699	0.526656
C36	C	1.569345	-0.026699	1.026656
C37	C	0.969070	-0.520565	0.520536
C38	C	1.469070	-0.020565	1.020536
C39	C	1.316449	-0.777021	0.555350
C40	C	1.816449	-0.277021	1.055350
C41	C	1.321967	-0.877961	0.561519
C42	C	1.821967	-0.377961	1.061519
C43	C	0.780680	-0.631618	0.631328
C44	C	1.280680	-0.131618	1.131328
C45	C	0.686462	-0.625858	0.625581
C46	C	1.186462	-0.125858	1.125581
C47	C	0.686415	-0.503282	0.503302
C48	C	1.186415	-0.003282	1.003302
C49	C	0.780632	-0.509042	0.509048
C50	C	1.280632	-0.009042	1.009048
C51	C	0.827762	-0.573213	0.573063
C52	C	1.327762	-0.073213	1.073063
C53	C	0.921981	-0.578976	0.578804
C54	C	1.421981	-0.078976	1.078804
C55	C	0.921932	-0.456397	0.456530
C56	C	1.421932	0.043603	0.956530
C57	C	0.827714	-0.450637	0.450783
C58	C	1.327714	0.049363	0.950783
C59	C	1.384240	-1.026828	0.631471
C60	C	1.884240	-0.526828	1.131471
C61	C	1.379061	-0.931987	0.625680
C62	C	1.879061	-0.431987	1.125680
C63	C	1.270049	-0.918782	0.503142
C64	C	1.770049	-0.418782	1.003142
C65	C	1.275227	-1.013623	0.508932
C66	C	1.775227	-0.513623	1.008932
C67	C	1.332324	-1.067643	0.573100
C68	C	1.832324	-0.567643	1.073100
C69	C	1.337497	-1.162486	0.578894
C70	C	1.837497	-0.662486	1.078894
C71	C	1.228489	-1.149279	0.456352
C72	C	1.728489	-0.649279	0.956352
C73	C	1.223311	-1.054438	0.450562
C74	C	1.723311	-0.554438	0.950562
C75	C	1.539051	-0.555537	0.555427
C76	C	2.039051	-0.055537	1.055427
C77	C	1.639326	-0.561693	0.561570
C78	C	2.139326	-0.061693	1.061570
C79	C	1.290947	-0.553854	0.776316
C80	C	1.790947	-0.053854	1.276316
C81	C	1.285495	-0.559293	0.876588
C82	C	1.785495	-0.059293	1.376588
C83	C	1.291006	-0.304238	0.526642
C84	C	1.791006	0.195762	1.026642
C85	C	1.285579	-0.203307	0.520517
C86	C	1.785579	0.296693	1.020517
C87	C	1.316533	-0.528312	0.306625
C88	C	1.816533	-0.028312	0.806625
C89	C	1.322145	-0.522628	0.206349
C90	C	1.822145	-0.022628	0.706349
C91	C	1.384393	-0.460431	1.065030
C92	C	1.884393	0.039569	1.565030
C93	C	1.379273	-0.465539	1.159245
C94	C	1.879273	0.034461	1.659245
C95	C	1.270131	-0.574611	1.159232
C96	C	1.770131	-0.074611	1.659232
C97	C	1.275251	-0.569503	1.065018
C98	C	1.775251	-0.069503	1.565018
C99	C	1.332385	-0.512412	1.017920
C100	C	1.832385	-0.012412	1.517920
C101	C	1.337509	-0.507310	0.923705
C102	C	1.837509	-0.007310	1.423705
C103	C	1.228363	-0.616377	0.923693
C104	C	1.728363	-0.116377	1.423693
C105	C	1.223243	-0.621484	1.017907
C106	C	1.723243	-0.121484	1.517907
H107	H	0.960353	-0.631229	0.630926
H108	H	1.460353	-0.131229	1.130926
H109	H	0.819054	-0.683873	0.683446
H110	H	1.319054	-0.183873	1.183446
H111	H	1.383980	-1.206467	0.631150
H112	H	1.883980	-0.706467	1.131150
H113	H	1.421338	-0.898758	0.673210
H114	H	1.921338	-0.398758	1.173210
Cl115	Cl	0.768457	-0.369967	0.370316
Cl116	Cl	1.268457	0.130033	0.870316
H117	H	1.186210	-1.182520	0.408827
H118	H	1.686210	-0.682520	0.908827
H119	H	1.430715	-1.070812	0.683732
H120	H	1.930715	-0.570812	1.183732
H121	H	1.223569	-0.874787	0.450892
H122	H	1.723569	-0.374787	0.950892
Cl123	Cl	1.151538	-0.986520	0.369897
Cl124	Cl	1.651538	-0.486520	0.869897
Cl125	Cl	1.409335	-0.435542	0.864498
Cl126	Cl	1.909335	0.064458	1.364498
H127	H	1.186017	-0.658706	0.885326
H128	H	1.686017	-0.158706	1.385326
Cl129	Cl	1.456226	-0.388673	1.005820
Cl130	Cl	1.956226	0.111327	1.505820
H131	H	1.421621	-0.423208	1.197598
H132	H	1.921621	0.076792	1.697598
H133	H	0.648131	-0.673416	0.673029
H134	H	1.148131	-0.173416	1.173029
H135	H	1.176725	-0.667964	1.056267
H136	H	1.676725	-0.167964	1.556267
Cl137	Cl	0.627150	-0.422605	0.422847
Cl138	Cl	1.127150	0.077395	0.922847
Cl139	Cl	0.981127	-0.382977	0.383270
Cl140	Cl	1.481127	0.117023	0.883270
H141	H	1.223616	-0.621091	1.197595
H142	H	1.723616	-0.121091	1.697595
