data_functionalizedCrystal
_audit_creation_method	'MofGen! by Chris Wilmer'
_symmetry_space_group_name_H-M	'P1'
_symmetry_Int_Tables_number	1
_symmetry_cell_setting	triclinic
loop_
_symmetry_equiv_pos_as_xyz
  x,y,z
_cell_length_a	23.532407
_cell_length_b	27.732048
_cell_length_c	22.010155
_cell_angle_alpha	89.999275
_cell_angle_beta	89.996931
_cell_angle_gamma	82.745667
loop_
_atom_site_label
_atom_site_type_symbol
_atom_site_fract_x
_atom_site_fract_y
_atom_site_fract_z
O1	O	0.755138	0.058672	-0.050456
O2	O	1.255138	0.558672	0.449544
O3	O	0.589257	0.067162	-0.050475
O4	O	1.089257	0.567162	0.449525
O5	O	0.677350	-0.007472	-0.050453
O6	O	1.177350	0.492528	0.449547
O7	O	0.667046	0.133306	-0.050477
O8	O	1.167046	0.633306	0.449523
O9	O	0.677334	-0.007461	0.050597
O10	O	1.177334	0.492539	0.550597
O11	O	0.589241	0.067173	0.050576
O12	O	1.089241	0.567173	0.550576
O13	O	0.755122	0.058683	0.050595
O14	O	1.255122	0.558683	0.550595
Cu15	Cu	0.672180	0.062929	0.059812
Cu16	Cu	1.172180	0.562929	0.559812
Cu17	Cu	0.672199	0.062916	-0.059692
Cu18	Cu	1.172199	0.562916	0.440308
O19	O	0.667030	0.133317	0.050573
O20	O	1.167030	0.633317	0.550573
C21	C	0.568033	0.066952	0.000048
C22	C	1.068033	0.566952	0.500048
C23	C	0.504818	0.066302	0.000042
C24	C	1.004818	0.566302	0.500042
C25	C	0.105629	0.106391	0.000062
C26	C	0.605629	0.606391	0.500062
C27	C	0.046230	0.105787	0.000066
C28	C	0.546230	0.605787	0.500066
O29	O	0.009406	0.142951	0.000082
O30	O	0.509406	0.642951	0.500082
N31	N	0.023699	0.061418	0.000073
N32	N	0.523699	0.561418	0.500073
C33	C	0.060570	0.017649	0.000082
C34	C	0.560570	0.517649	0.500082
O35	O	0.035951	-0.020147	0.000088
O36	O	0.535951	0.479853	0.500088
C37	C	0.119967	0.018253	0.000082
C38	C	0.619967	0.518253	0.500082
C39	C	0.142495	0.062626	0.000070
C40	C	0.642495	0.562626	0.500070
C41	C	0.128158	0.150760	0.000050
C42	C	0.628158	0.650760	0.500050
C43	C	0.187552	0.151364	0.000045
C44	C	0.687552	0.651364	0.500045
C45	C	0.224419	0.107599	0.000052
C46	C	0.724419	0.607599	0.500052
C47	C	0.201890	0.063229	0.000065
C48	C	0.701890	0.563229	0.500065
C49	C	0.156837	-0.025515	0.000096
C50	C	0.656837	0.474485	0.500096
C51	C	0.216239	-0.024907	0.000097
C52	C	0.716239	0.475093	0.500097
C53	C	0.238766	0.019466	0.000084
C54	C	0.738766	0.519466	0.500084
C55	C	0.298151	0.020068	0.000067
C56	C	0.798151	0.520068	0.500067
N57	N	0.320683	0.064437	0.000060
N58	N	0.820683	0.564437	0.500060
C59	C	0.283817	0.108203	0.000053
C60	C	0.783817	0.608203	0.500053
C61	C	-0.064170	0.016383	0.000082
C62	C	0.435830	0.516383	0.500082
C63	C	-0.123567	0.015778	0.000077
C64	C	0.376433	0.515778	0.500077
C65	C	-0.137902	0.103917	0.000062
C66	C	0.362098	0.603917	0.500062
C67	C	-0.078505	0.104521	0.000063
C68	C	0.421495	0.604521	0.500063
C69	C	-0.041639	0.060753	0.000075
C70	C	0.458361	0.560753	0.500075
C71	C	0.408551	0.109467	0.000042
C72	C	0.908551	0.609467	0.500042
C73	C	0.467951	0.110067	0.000035
C74	C	0.967951	0.610067	0.500035
C75	C	0.482282	0.021928	0.000052
C76	C	0.982282	0.521928	0.500052
C77	C	0.422886	0.021328	0.000057
C78	C	0.922886	0.521328	0.500057
C79	C	0.386021	0.065102	0.000053
C80	C	0.886021	0.565102	0.500053
O81	O	0.335010	-0.017077	0.000054
O82	O	0.835010	0.482923	0.500054
O83	O	0.308444	0.145992	0.000054
O84	O	0.808444	0.645992	0.500054
C85	C	0.677125	-0.025473	0.000074
C86	C	1.177125	0.474527	0.500074
C87	C	0.676474	-0.079129	0.000079
C88	C	1.176474	0.420871	0.500079
C89	C	0.724431	-0.417871	0.000053
C90	C	1.224431	0.082129	0.500053
C91	C	0.722014	-0.619534	0.000044
C92	C	1.222014	-0.119534	0.500044
O93	O	0.765867	-0.650722	0.000023
O94	O	1.265867	-0.150722	0.500023
N95	N	0.669779	-0.638738	0.000039
N96	N	1.169779	-0.138738	0.500039
C97	C	0.618144	-0.607523	0.000032
C98	C	1.118144	-0.107523	0.500032
O99	O	0.573659	-0.628484	0.000021
O100	O	1.073659	-0.128484	0.500021
C101	C	0.620561	-0.405860	0.000036
C102	C	1.120561	0.094140	0.500036
C103	C	0.672800	-0.386659	0.000048
C104	C	1.172800	0.113341	0.500048
C105	C	0.776665	-0.398669	0.000064
C106	C	1.276665	0.101331	0.500064
C107	C	0.777269	-0.348256	0.000069
C108	C	1.277269	0.151744	0.500069
C109	C	0.725638	-0.317045	0.000064
C110	C	1.225638	0.182955	0.500064
C111	C	0.673403	-0.336247	0.000053
C112	C	1.173403	0.163753	0.500053
C113	C	0.568927	-0.374646	0.000025
C114	C	1.068927	0.125354	0.500025
C115	C	0.569536	-0.324228	0.000024
C116	C	1.069536	0.175772	0.500024
C117	C	0.621775	-0.305027	0.000036
C118	C	1.121775	0.194973	0.500036
C119	C	0.622376	-0.254622	0.000053
C120	C	1.122376	0.245378	0.500053
N121	N	0.674611	-0.235418	0.000059
N122	N	1.174611	0.264582	0.500059
C123	C	0.726242	-0.266630	0.000064
C124	C	1.226242	0.233370	0.500064
C125	C	0.616879	-0.713399	0.000031
C126	C	1.116879	-0.213399	0.500031
C127	C	0.616274	-0.763814	0.000031
C128	C	1.116274	-0.263814	0.500031
C129	C	0.720145	-0.775822	0.000042
C130	C	1.220145	-0.275822	0.500042
C131	C	0.720749	-0.725406	0.000046
C132	C	1.220749	-0.225406	0.500046
C133	C	0.669114	-0.694195	0.000036
C134	C	1.169114	-0.194195	0.500036
C135	C	0.727506	-0.160758	0.000076
C136	C	1.227506	0.339242	0.500076
C137	C	0.728105	-0.110341	0.000084
C138	C	1.228105	0.389659	0.500084
C139	C	0.624235	-0.098337	0.000069
C140	C	1.124235	0.401663	0.500069
C141	C	0.623635	-0.148751	0.000065
C142	C	1.123635	0.351249	0.500065
C143	C	0.675276	-0.179961	0.000066
C144	C	1.175276	0.320039	0.500066
O145	O	0.578547	-0.223406	0.000068
O146	O	1.078547	0.276594	0.500068
O147	O	0.770721	-0.245659	0.000061
O148	O	1.270721	0.254341	0.500061
C149	C	0.723827	-0.468283	0.000047
C150	C	1.223827	0.031717	0.500047
C151	C	0.671593	-0.487485	0.000037
C152	C	1.171593	0.012515	0.500037
C153	C	0.619962	-0.456274	0.000031
C154	C	1.119962	0.043726	0.500031
C155	C	0.670988	-0.537900	0.000037
C156	C	1.170988	-0.037900	0.500037
C157	C	0.722619	-0.569112	0.000042
C158	C	1.222619	-0.069112	0.500042
C159	C	0.774855	-0.549908	0.000047
C160	C	1.274855	-0.049908	0.500047
C161	C	0.775458	-0.499495	0.000053
C162	C	1.275458	0.000505	0.500053
C163	C	0.567727	-0.475478	0.000026
C164	C	1.067727	0.024522	0.500026
C165	C	0.567127	-0.525891	0.000021
C166	C	1.067127	-0.025891	0.500021
C167	C	0.618758	-0.557103	0.000026
C168	C	1.118758	-0.057103	0.500026
C169	C	0.776346	0.058894	0.000070
C170	C	1.276346	0.558894	0.500070
C171	C	0.839562	0.059544	0.000073
C172	C	1.339562	0.559544	0.500073
C173	C	0.667254	0.151319	0.000045
C174	C	1.167254	0.651319	0.500045
C175	C	0.667905	0.204975	0.000036
C176	C	1.167905	0.704975	0.500036
N177	N	0.672171	0.062938	0.143864
N178	N	1.172171	0.562938	0.643864
N179	N	0.672213	0.062903	-0.143744
N180	N	1.172213	0.562903	0.356256
C181	C	0.711209	0.029873	0.563653
C182	C	1.211209	0.529873	1.063653
C183	C	0.711211	0.029869	0.627261
C184	C	1.211211	0.529869	1.127261
O185	O	0.744380	0.001762	0.660160
O186	O	1.244380	0.501762	1.160160
N187	N	0.672199	0.062906	0.659071
N188	N	1.172199	0.562906	1.159071
C189	C	0.633177	0.095945	0.627271
C190	C	1.133177	0.595945	1.127271
O191	O	0.599994	0.124044	0.660169
O192	O	1.099994	0.624044	1.160169
C193	C	0.633172	0.095945	0.563665
C194	C	1.133172	0.595945	1.063665
C195	C	0.672191	0.062910	0.531857
C196	C	1.172191	0.562910	1.031857
C197	C	0.750224	-0.003160	0.531846
C198	C	1.250224	0.496840	1.031846
C199	C	0.750222	-0.003156	0.468243
C200	C	1.250222	0.496844	0.968243
C201	C	0.711205	0.029881	0.436447
C202	C	1.211205	0.529881	0.936447
C203	C	0.672189	0.062914	0.468254
C204	C	1.172189	0.562914	0.968254
C205	C	0.594148	0.128981	0.531866
C206	C	1.094148	0.628981	1.031866
C207	C	0.594147	0.128979	0.468255
C208	C	1.094147	0.628979	0.968255
C209	C	0.633166	0.095943	0.436447
C210	C	1.133166	0.595943	0.936447
C211	C	0.633170	0.095955	0.372855
C212	C	1.133170	0.595955	0.872855
N213	N	0.672182	0.062919	0.341045
N214	N	1.172182	0.562919	0.841045
C215	C	0.711200	0.029881	0.372840
C216	C	1.211200	0.529881	0.872840
C217	C	0.633190	0.095940	0.760849
C218	C	1.133190	0.595940	1.260849
C219	C	0.633197	0.095942	0.824454
C220	C	1.133197	0.595942	1.324454
C221	C	0.711231	0.029866	0.824440
C222	C	1.211231	0.529866	1.324440
C223	C	0.711226	0.029867	0.760833
C224	C	1.211226	0.529867	1.260833
C225	C	0.672202	0.062904	0.729038
C226	C	1.172202	0.562904	1.229038
C227	C	0.711193	0.029893	0.239269
C228	C	1.211193	0.529893	0.739269
C229	C	0.711189	0.029901	0.175660
C230	C	1.211189	0.529901	0.675660
C231	C	0.633153	0.095975	0.175680
C232	C	1.133153	0.595975	0.675680
C233	C	0.633159	0.095969	0.239284
C234	C	1.133159	0.595969	0.739284
C235	C	0.672181	0.062924	0.271076
C236	C	1.172181	0.562924	0.771076
O237	O	0.600017	0.124047	0.339915
O238	O	1.100017	0.624047	0.839915
O239	O	0.744372	0.001783	0.339935
O240	O	1.244372	0.501783	0.839935
H241	H	-0.167930	0.139553	0.000059
H242	H	0.332070	0.639553	0.500059
H243	H	-0.060167	0.140653	0.000056
H244	H	0.439833	0.640653	0.500056
H245	H	0.818712	-0.424077	0.000066
H246	H	1.318712	0.075923	0.500066
H247	H	0.562367	0.155881	0.442371
H248	H	1.062367	0.655881	0.942371
H249	H	0.404543	-0.014804	0.000058
H250	H	0.904543	0.485196	0.500058
C251	C	0.132278	-0.073643	0.000080
C252	C	0.632278	0.426357	0.500080
C253	C	0.072369	-0.064817	0.000064
C254	C	0.572369	0.435183	0.500064
C255	C	0.049727	-0.109143	0.000042
C256	C	0.549727	0.390857	0.500042
H257	H	0.144899	-0.091680	0.035314
H258	H	0.644899	0.408320	0.535314
H259	H	0.144932	-0.091660	-0.035168
H260	H	0.644932	0.408340	0.464832
H261	H	0.059720	-0.046808	0.035309
H262	H	0.559720	0.453192	0.535309
H263	H	0.059733	-0.046787	-0.035167
H264	H	0.559733	0.453213	0.464833
H265	H	0.062381	-0.127160	-0.035206
H266	H	0.562381	0.372840	0.464794
H267	H	0.062351	-0.127177	0.035276
H268	H	0.562351	0.372823	0.535276
H269	H	0.009077	-0.103161	0.000026
H270	H	0.509077	0.396839	0.500026
H271	H	-0.141903	-0.020355	0.000078
H272	H	0.358097	0.479645	0.500078
C273	C	0.590766	0.131896	0.141261
C274	C	1.090766	0.631896	0.641261
C275	C	0.556603	0.160836	0.182726
C276	C	1.056603	0.660836	0.682726
C277	C	0.517552	0.193934	0.151040
C278	C	1.017552	0.693934	0.651040
H279	H	0.567162	0.114663	0.116448
H280	H	1.067162	0.614663	0.616448
H281	H	0.611058	0.151958	0.116459
H282	H	1.111058	0.651958	0.616459
H283	H	0.536313	0.140777	0.207518
H284	H	1.036313	0.640777	0.707518
H285	H	0.580191	0.178081	0.207540
H286	H	1.080191	0.678081	0.707540
H287	H	0.537844	0.213996	0.126238
H288	H	1.037844	0.713996	0.626238
H289	H	0.493952	0.176696	0.126228
H290	H	0.993952	0.676696	0.626228
H291	H	0.494371	0.213577	0.179169
H292	H	0.994371	0.713577	0.679169
H293	H	0.525681	-0.450070	0.000020
H294	H	1.025681	0.049930	0.500020
C295	C	0.776246	-0.809657	-0.000052
C296	C	1.276246	-0.309657	0.499948
C297	C	0.807734	-0.801009	-0.052033
C298	C	1.307734	-0.301009	0.447967
C299	C	0.859417	-0.832165	-0.052141
C300	C	1.359417	-0.332165	0.447859
H301	H	0.768482	-0.842448	-0.000086
H302	H	1.268482	-0.342448	0.499914
H303	H	0.797716	-0.803859	0.035168
H304	H	1.297716	-0.303859	0.535168
H305	H	0.786268	-0.806810	-0.087244
H306	H	1.286268	-0.306810	0.412756
H307	H	0.815513	-0.768224	-0.052010
H308	H	1.315513	-0.268224	0.447990
H309	H	0.880888	-0.826368	-0.016922
H310	H	1.380888	-0.326368	0.483078
H311	H	0.851647	-0.864954	-0.052173
H312	H	1.351647	-0.364954	0.447827
H313	H	0.880790	-0.826298	-0.087407
H314	H	1.380790	-0.326298	0.412593
C315	C	0.792619	-0.038954	0.566438
C316	C	1.292619	0.461046	1.066438
C317	C	0.827249	-0.013356	0.602958
C318	C	1.327249	0.486644	1.102958
C319	C	0.866311	-0.046312	0.634834
C320	C	1.366311	0.453688	1.134834
H321	H	0.815906	-0.058638	0.538447
H322	H	1.315906	0.441362	1.038447
H323	H	0.772336	-0.058986	0.591291
H324	H	1.272336	0.441014	1.091291
H325	H	0.847532	0.006668	0.578108
H326	H	1.347532	0.506668	1.078108
H327	H	0.803978	0.006327	0.630961
H328	H	1.303978	0.506327	1.130961
H329	H	0.846027	-0.066345	0.659686
H330	H	1.346027	0.433655	1.159686
H331	H	0.889594	-0.065995	0.606838
H332	H	1.389594	0.434005	1.106838
H333	H	0.889808	-0.028949	0.659620
H334	H	1.389808	0.471051	1.159620
C335	C	0.256169	-0.072481	0.000075
C336	C	0.756169	0.427519	0.500075
C337	C	0.223721	-0.111465	0.000070
C338	C	0.723721	0.388535	0.500070
C339	C	0.260484	-0.155297	0.000039
C340	C	0.760484	0.344703	0.500039
H341	H	0.279653	-0.074144	0.035302
H342	H	0.779653	0.425856	0.535302
H343	H	0.279630	-0.074110	-0.035180
H344	H	0.779630	0.425890	0.464820
H345	H	0.200271	-0.109838	0.035321
H346	H	0.700271	0.390162	0.535321
H347	H	0.200239	-0.109818	-0.035154
H348	H	0.700239	0.390182	0.464846
H349	H	0.283945	-0.156925	-0.035216
H350	H	0.783945	0.343075	0.464784
H351	H	0.283966	-0.156955	0.035266
H352	H	0.783966	0.343045	0.535266
H353	H	0.238474	-0.181753	0.000030
H354	H	0.738474	0.318247	0.500030
H355	H	0.601414	0.122847	0.734965
H356	H	1.101414	0.622847	1.234965
C357	C	0.522289	-0.025601	-0.000065
C358	C	1.022289	0.474399	0.499935
C359	C	0.512185	-0.052341	-0.052053
C360	C	1.012185	0.447659	0.447947
C361	C	0.549035	-0.096124	-0.052181
C362	C	1.049035	0.403876	0.447819
H363	H	0.515536	-0.043860	0.035138
H364	H	1.015536	0.456140	0.535138
H365	H	0.560897	-0.018902	-0.000100
H366	H	1.060897	0.481098	0.499900
H367	H	0.473585	-0.059041	-0.052012
H368	H	0.973585	0.440959	0.447988
H369	H	0.518941	-0.034096	-0.087264
H370	H	1.018941	0.465904	0.412736
H371	H	0.587644	-0.089425	-0.052217
H372	H	1.087644	0.410575	0.447783
H373	H	0.542280	-0.114379	-0.016977
H374	H	1.042280	0.385621	0.483023
H375	H	0.542188	-0.114270	-0.087457
H376	H	1.042188	0.385730	0.412543
C377	C	0.753564	-0.006084	0.858890
C378	C	1.253564	0.493916	1.358890
C379	C	0.744756	-0.053545	0.843409
C380	C	1.244756	0.446455	1.343409
C381	C	0.783745	-0.086673	0.875127
C382	C	1.283745	0.413327	1.375127
H383	H	0.748016	-0.001420	0.901336
H384	H	1.248016	0.498580	1.401336
H385	H	0.791538	-0.001030	0.848452
H386	H	1.291538	0.498970	1.348452
H387	H	0.706791	-0.058598	0.853851
H388	H	1.206791	0.441402	1.353851
H389	H	0.750309	-0.058225	0.800969
H390	H	1.250309	0.441775	1.300969
H391	H	0.821720	-0.081618	0.864690
H392	H	1.321720	0.418382	1.364690
H393	H	0.778194	-0.082004	0.917571
H394	H	1.278194	0.417996	1.417571
H395	H	0.777778	-0.118879	0.864624
H396	H	1.277778	0.381121	1.364624
C397	C	0.212032	0.199530	-0.000098
C398	C	0.712032	0.699530	0.499902
C399	C	0.245697	0.202455	-0.052099
C400	C	0.745697	0.702455	0.447901
C401	C	0.268242	0.246825	-0.052259
C402	C	0.768242	0.746825	0.447741
H403	H	0.234942	0.201660	0.035095
H404	H	0.734942	0.701660	0.535095
H405	H	0.181573	0.225515	-0.000137
H406	H	0.681573	0.725515	0.499863
H407	H	0.276151	0.176477	-0.052055
H408	H	0.776151	0.676477	0.447945
H409	H	0.222799	0.200334	-0.087301
H410	H	0.722799	0.700334	0.412699
H411	H	0.237784	0.272810	-0.052297
H412	H	0.737784	0.772810	0.447703
H413	H	0.291151	0.248951	-0.017063
H414	H	0.791151	0.748951	0.482937
H415	H	0.291083	0.248818	-0.087544
H416	H	0.791083	0.748818	0.412456
H417	H	0.486290	0.146202	0.000024
H418	H	0.986290	0.646202	0.500024
H419	H	0.574829	-0.687991	0.000022
H420	H	1.074829	-0.187991	0.500022
H421	H	0.098146	0.186402	0.000047
H422	H	0.598146	0.686402	0.500047
H423	H	0.769556	-0.186164	0.000075
H424	H	1.269556	0.313836	0.500075
H425	H	0.573737	-0.779443	0.000032
H426	H	1.073737	-0.279443	0.500032
H427	H	0.378542	0.145112	0.000041
H428	H	0.878542	0.645112	0.500041
C429	C	0.784883	-0.089589	0.000063
C430	C	1.284883	0.410411	0.500063
C431	C	0.829968	-0.127717	0.000048
C432	C	1.329968	0.372283	0.500048
C433	C	0.882278	-0.108621	0.000018
C434	C	1.382278	0.391379	0.500018
H435	H	0.787356	-0.070181	0.035293
H436	H	1.287356	0.429819	0.535293
H437	H	0.787315	-0.070184	-0.035188
H438	H	1.287315	0.429816	0.464812
H439	H	0.827538	-0.147113	0.035295
H440	H	1.327538	0.352887	0.535295
H441	H	0.827514	-0.147128	-0.035181
H442	H	1.327514	0.352872	0.464819
H443	H	0.884709	-0.089216	-0.035233
H444	H	1.384709	0.410784	0.464767
H445	H	0.884745	-0.089213	0.035250
H446	H	1.384745	0.410787	0.535250
H447	H	0.912874	-0.134487	0.000002
H448	H	1.412874	0.365513	0.500002
H449	H	0.562376	0.155881	0.557754
H450	H	1.062376	0.655881	1.057754
C451	C	0.753622	-0.006007	0.273671
C452	C	1.253622	0.493993	0.773671
C453	C	0.787795	-0.034923	0.232191
C454	C	1.287795	0.465077	0.732191
C455	C	0.826893	-0.067993	0.263859
C456	C	1.326893	0.432007	0.763859
H457	H	0.733386	-0.026091	0.298486
H458	H	1.233386	0.473909	0.798486
H459	H	0.777210	0.011264	0.298470
H460	H	1.277210	0.511264	0.798470
H461	H	0.764210	-0.052192	0.207402
H462	H	1.264210	0.447808	0.707402
H463	H	0.808044	-0.014852	0.207375
H464	H	1.308044	0.485148	0.707375
H465	H	0.850481	-0.050722	0.288658
H466	H	1.350481	0.449278	0.788658
H467	H	0.806651	-0.088074	0.288673
H468	H	1.306651	0.411926	0.788673
H469	H	0.850087	-0.087613	0.235720
H470	H	1.350087	0.412387	0.735720
C471	C	0.510389	-0.546706	-0.000117
C472	C	1.010389	-0.046706	0.499883
C473	C	0.479226	-0.530822	-0.052119
C474	C	0.979226	-0.030822	0.447881
C475	C	0.426961	-0.549990	-0.052277
C476	C	0.926961	-0.049990	0.447723
H477	H	0.489071	-0.535991	0.035076
H478	H	0.989071	-0.035991	0.535076
H479	H	0.517393	-0.581204	-0.000154
H480	H	1.017393	-0.081204	0.499846
H481	H	0.472220	-0.496331	-0.052076
H482	H	0.972220	0.003669	0.447924
H483	H	0.500526	-0.541537	-0.087320
H484	H	1.000526	-0.041537	0.412680
H485	H	0.433966	-0.584488	-0.052314
H486	H	0.933966	-0.084488	0.447686
H487	H	0.405649	-0.539273	-0.017081
H488	H	0.905649	-0.039273	0.482919
H489	H	0.405813	-0.539218	-0.087562
H490	H	0.905813	-0.039218	0.412438
C491	C	0.834045	-0.327508	0.000045
C492	C	1.334045	0.172492	0.500045
C493	C	0.879126	-0.365639	0.000032
C494	C	1.379126	0.134361	0.500032
C495	C	0.931439	-0.346549	-0.000001
C496	C	1.431439	0.153451	0.499999
H497	H	0.836522	-0.308099	0.035274
H498	H	1.336522	0.191901	0.535274
H499	H	0.836479	-0.308105	-0.035208
H500	H	1.336479	0.191895	0.464792
H501	H	0.876693	-0.385034	0.035280
H502	H	1.376693	0.114966	0.535280
H503	H	0.876668	-0.385052	-0.035195
H504	H	1.376668	0.114948	0.464805
H505	H	0.933872	-0.327146	-0.035253
H506	H	1.433872	0.172854	0.464747
H507	H	0.933909	-0.327140	0.035229
H508	H	1.433909	0.172860	0.535229
H509	H	0.962032	-0.372418	-0.000016
H510	H	1.462032	0.127582	0.499984
H511	H	0.526389	-0.390270	0.000012
H512	H	1.026389	0.109730	0.500012
C513	C	0.777423	-0.704494	-0.000042
C514	C	1.277423	-0.204494	0.499958
C515	C	0.780809	-0.675894	-0.052024
C516	C	1.280809	-0.175894	0.447976
C517	C	0.833008	-0.656621	-0.052124
C518	C	1.333008	-0.156621	0.447876
H519	H	0.808133	-0.730257	-0.000069
H520	H	1.308133	-0.230257	0.499931
H521	H	0.779820	-0.685048	0.035177
H522	H	1.279820	-0.185048	0.535177
H523	H	0.778418	-0.695339	-0.087234
H524	H	1.278418	-0.195339	0.412766
H525	H	0.750112	-0.650124	-0.052008
H526	H	1.250112	-0.150124	0.447992
H527	H	0.835405	-0.637175	-0.016904
H528	H	1.335405	-0.137175	0.483096
H529	H	0.863713	-0.682386	-0.052149
H530	H	1.363713	-0.182386	0.447851
H531	H	0.835310	-0.637210	-0.087390
H532	H	1.335310	-0.137210	0.412610
H533	H	0.781993	-0.030058	0.442349
H534	H	1.281993	0.469942	0.942349
C535	C	0.832235	-0.478746	0.000029
C536	C	1.332235	0.021254	0.500029
C537	C	0.877315	-0.516878	0.000016
C538	C	1.377315	-0.016878	0.500016
C539	C	0.929628	-0.497787	-0.000015
C540	C	1.429628	0.002213	0.499985
H541	H	0.834711	-0.459337	0.035259
H542	H	1.334711	0.040663	0.535259
H543	H	0.834669	-0.459343	-0.035223
H544	H	1.334669	0.040657	0.464777
H545	H	0.874882	-0.536273	0.035265
H546	H	1.374882	-0.036273	0.535265
H547	H	0.874858	-0.536290	-0.035210
H548	H	1.374858	-0.036290	0.464790
H549	H	0.932062	-0.478384	-0.035267
H550	H	1.432062	0.021616	0.464733
H551	H	0.932098	-0.478379	0.035215
H552	H	1.432098	0.021621	0.535215
H553	H	0.960221	-0.523657	-0.000029
H554	H	1.460221	-0.023657	0.499971
C555	C	0.513412	-0.290423	0.000044
C556	C	1.013412	0.209577	0.500044
C557	C	0.467540	-0.318034	0.000049
C558	C	0.967540	0.181966	0.500049
C559	C	0.415832	-0.286911	0.000076
C560	C	0.915832	0.213089	0.500076
H561	H	0.511414	-0.270493	-0.035183
H562	H	1.011414	0.229507	0.464817
H563	H	0.511448	-0.270514	0.035298
H564	H	1.011448	0.229486	0.535298
H565	H	0.469504	-0.337934	-0.035202
H566	H	0.969504	0.162066	0.464798
H567	H	0.469520	-0.337962	0.035274
H568	H	0.969520	0.162038	0.535274
H569	H	0.413867	-0.267002	0.035330
H570	H	0.913867	0.232998	0.535330
H571	H	0.413839	-0.266983	-0.035152
H572	H	0.913839	0.233017	0.464848
H573	H	0.384701	-0.305640	0.000085
H574	H	0.884701	0.194360	0.500085
C575	C	0.753477	-0.006056	0.726246
C576	C	1.253477	0.493944	1.226246
C577	C	0.723375	-0.035508	0.689751
C578	C	1.223375	0.464492	1.189751
C579	C	0.762271	-0.068618	0.657888
C580	C	1.262271	0.431382	1.157888
H581	H	0.776712	-0.025775	0.754245
H582	H	1.276712	0.474225	1.254245
H583	H	0.777042	0.011185	0.701378
H584	H	1.277042	0.511185	1.201378
H585	H	0.699821	-0.052748	0.714616
H586	H	1.199821	0.447252	1.214616
H587	H	0.700143	-0.015803	0.661740
H588	H	1.200143	0.484197	1.161740
H589	H	0.785836	-0.051377	0.633020
H590	H	1.285836	0.448623	1.133020
H591	H	0.785504	-0.088333	0.685891
H592	H	1.285504	0.411667	1.185891
H593	H	0.741853	-0.088602	0.633118
H594	H	1.241853	0.411398	1.133118
H595	H	0.581099	-0.164385	0.000072
H596	H	1.081099	0.335615	0.500072
C597	C	0.590773	0.131835	0.858874
C598	C	1.090773	0.631835	1.358874
C599	C	0.556597	0.160758	0.817406
C600	C	1.056597	0.660758	1.317406
C601	C	0.517501	0.193822	0.849089
C602	C	1.017501	0.693822	1.349089
H603	H	0.611012	0.151916	0.883689
H604	H	1.111012	0.651916	1.383689
H605	H	0.567188	0.114560	0.883674
H606	H	1.067188	0.614560	1.383674
H607	H	0.580179	0.178031	0.792617
H608	H	1.080179	0.678031	1.292617
H609	H	0.536345	0.140690	0.792590
H610	H	1.036345	0.640690	1.292590
H611	H	0.493915	0.176547	0.873889
H612	H	0.993915	0.676547	1.373889
H613	H	0.537744	0.213900	0.873903
H614	H	1.037744	0.713900	1.373903
H615	H	0.494304	0.213447	0.820958
H616	H	0.994304	0.713447	1.320958
C617	C	0.590773	0.131759	0.273902
C618	C	1.090773	0.631759	0.773902
C619	C	0.556151	0.106153	0.310426
C620	C	1.056151	0.606153	0.810426
C621	C	0.517099	0.139104	0.342327
C622	C	1.017099	0.639104	0.842327
H623	H	0.567480	0.151452	0.245926
H624	H	1.067480	0.651452	0.745926
H625	H	0.611065	0.151784	0.298753
H626	H	1.111065	0.651784	0.798753
H627	H	0.535860	0.086137	0.285577
H628	H	1.035860	0.586137	0.785577
H629	H	0.579428	0.086463	0.338414
H630	H	1.079428	0.586463	0.838414
H631	H	0.537391	0.159128	0.367179
H632	H	1.037391	0.659128	0.867179
H633	H	0.493810	0.158794	0.314347
H634	H	0.993810	0.658794	0.814347
H635	H	0.493607	0.121735	0.367117
H636	H	0.993607	0.621735	0.867117
H637	H	-0.034156	-0.019261	0.000086
H638	H	0.465844	0.480739	0.500086
H639	H	0.582198	-0.072916	0.000067
H640	H	1.082198	0.427084	0.500067
H641	H	0.816894	-0.575329	0.000054
H642	H	1.316894	-0.075329	0.500054
H643	H	0.742965	0.003000	0.149765
H644	H	1.242965	0.503000	0.649765
