data_functionalizedCrystal
_audit_creation_method	'MofGen! by Chris Wilmer'
_symmetry_space_group_name_H-M	'P1'
_symmetry_Int_Tables_number	1
_symmetry_cell_setting	triclinic
loop_
_symmetry_equiv_pos_as_xyz
  x,y,z
_cell_length_a	15.944551
_cell_length_b	10.654550
_cell_length_c	9.730223
_cell_angle_alpha	89.995869
_cell_angle_beta	89.996201
_cell_angle_gamma	96.008179
loop_
_atom_site_label
_atom_site_type_symbol
_atom_site_fract_x
_atom_site_fract_y
_atom_site_fract_z
O1	O	1.115457	-0.161968	0.114143
O2	O	1.615457	0.338032	0.614143
O3	O	0.871023	-0.181937	0.114177
O4	O	1.371023	0.318063	0.614177
O5	O	0.998860	0.010860	0.114154
O6	O	1.498860	0.510860	0.614154
O7	O	0.987620	-0.354764	0.114166
O8	O	1.487620	0.145236	0.614166
O9	O	0.998858	0.010869	-0.114426
O10	O	1.498858	0.510869	0.385574
O11	O	0.871021	-0.181927	-0.114403
O12	O	1.371021	0.318073	0.385597
O13	O	1.115455	-0.161959	-0.114437
O14	O	1.615455	0.338041	0.385563
Zn15	Zn	0.993238	-0.171941	-0.150712
Zn16	Zn	1.493238	0.328059	0.349288
Zn17	Zn	0.993240	-0.171954	0.150452
Zn18	Zn	1.493240	0.328046	0.650452
O19	O	0.987618	-0.354755	-0.114414
O20	O	1.487618	0.145245	0.385586
C21	C	0.839723	-0.181103	-0.000109
C22	C	1.339723	0.318897	0.499891
C23	C	0.746463	-0.178618	-0.000096
C24	C	1.246463	0.321382	0.499904
N25	N	0.993242	-0.171953	0.355988
N26	N	1.493242	0.328047	0.855988
C27	C	0.998034	0.057652	-0.000134
C28	C	1.498034	0.557652	0.499866
C29	C	0.995565	0.197063	-0.000129
C30	C	1.495565	0.697063	0.499871
C31	C	0.530880	-0.053173	-0.000127
C32	C	1.030880	0.446827	0.499873
C33	C	0.470198	-0.111430	0.112577
C34	C	0.970198	0.388570	0.612577
C35	C	0.575711	-0.174122	-0.000112
C36	C	1.075711	0.325878	0.499888
C37	C	0.470219	-0.111449	-0.112785
C38	C	0.970219	0.388551	0.387215
C39	C	0.410773	-0.169770	-0.000134
C40	C	0.910773	0.330230	0.499866
C41	C	0.516257	-0.232412	0.112684
C42	C	1.016257	0.267588	0.612684
C43	C	0.516284	-0.232414	-0.112779
C44	C	1.016284	0.267586	0.387221
C45	C	0.455620	-0.290759	-0.000047
C46	C	0.955620	0.209241	0.499953
C47	C	0.670728	-0.176625	-0.000099
C48	C	1.170728	0.323375	0.499901
C49	C	0.315757	-0.167276	-0.000138
C50	C	0.815757	0.332724	0.499862
C51	C	1.146755	-0.162792	-0.000148
C52	C	1.646755	0.337208	0.499852
C53	C	1.240015	-0.165278	-0.000152
C54	C	1.740015	0.334722	0.499848
C55	C	0.988444	-0.401547	-0.000123
C56	C	1.488444	0.098453	0.499877
C57	C	0.990913	-0.540958	-0.000119
C58	C	1.490913	-0.040958	0.499881
C59	C	1.070833	0.277523	-0.000144
C60	C	1.570833	0.777523	0.499856
C61	C	1.068508	0.408513	-0.000134
C62	C	1.568508	0.908513	0.499866
C63	C	0.915639	0.378572	-0.000100
C64	C	1.415639	0.878572	0.499900
C65	C	0.917965	0.247584	-0.000101
C66	C	1.417965	0.747584	0.499899
C67	C	1.148432	0.227002	-0.000172
C68	C	1.648432	0.727002	0.499828
C69	C	1.223707	0.307463	-0.000188
C70	C	1.723707	0.807463	0.499812
C71	C	1.221382	0.438453	-0.000178
C72	C	1.721382	0.938453	0.499822
C73	C	1.143782	0.488983	-0.000152
C74	C	1.643782	0.988983	0.499848
N75	N	0.993243	-0.171932	-0.356249
N76	N	1.493243	0.328068	0.143751
C77	C	1.049955	-0.086748	0.427904
C78	C	1.549955	0.413252	0.927904
C79	C	1.049957	-0.086740	0.571787
C80	C	1.549957	0.413260	1.071787
C81	C	0.936527	-0.257146	0.571825
C82	C	1.436527	0.242854	1.071825
C83	C	0.936529	-0.257159	0.427945
C84	C	1.436529	0.242841	0.927945
C85	C	1.106667	-0.001542	0.355947
C86	C	1.606667	0.498458	0.855947
C87	C	1.163384	0.083671	0.427863
C88	C	1.663384	0.583671	0.927863
C89	C	1.163387	0.083679	0.571746
C90	C	1.663387	0.583679	1.071746
C91	C	1.106673	-0.001526	0.643713
C92	C	1.606673	0.498474	1.143713
H93	H	0.563632	0.047204	0.000009
H94	H	1.063632	0.547204	0.500009
Br95	Br	0.436245	-0.026146	-0.271590
Br96	Br	0.936245	0.473854	0.228410
Br97	Br	1.240365	0.199308	0.669347
Br98	Br	1.740365	0.699308	1.169347
H99	H	1.282674	0.503962	-0.000177
H100	H	1.782674	1.003962	0.499823
Br101	Br	1.106661	-0.001542	0.160678
Br102	Br	1.606661	0.498458	0.660678
H103	H	1.141895	0.595646	-0.000130
H104	H	1.641895	1.095646	0.499870
H105	H	0.890349	-0.326543	0.369391
H106	H	1.390349	0.173457	0.869391
Br107	Br	1.151592	0.049230	-0.000196
Br108	Br	1.651592	0.549230	0.499804
Br109	Br	0.436190	-0.026181	0.271389
Br110	Br	0.936190	0.473819	0.771389
Br111	Br	0.550058	-0.317621	0.271669
Br112	Br	1.050058	0.182379	0.771669
H113	H	1.106685	-0.001520	0.760873
H114	H	1.606685	0.498480	1.260873
H115	H	0.852461	0.419724	-0.000081
H116	H	1.352461	0.919724	0.499919
Br117	Br	0.859562	-0.372773	0.669492
Br118	Br	1.359562	0.127227	1.169492
H119	H	1.286886	0.266312	-0.000175
H120	H	1.786886	0.766312	0.499825
H121	H	0.423043	-0.391240	0.000019
H122	H	0.923043	0.108760	0.500019
H123	H	0.856675	0.182071	-0.000091
H124	H	1.356675	0.682071	0.499909
Br125	Br	1.240359	0.199286	0.330201
Br126	Br	1.740359	0.699286	0.830201
H127	H	0.536711	-0.283524	-0.208063
H128	H	1.036711	0.216476	0.291937
