data_functionalizedCrystal
_audit_creation_method	'MofGen! by Chris Wilmer'
_symmetry_space_group_name_H-M	'P1'
_symmetry_Int_Tables_number	1
_symmetry_cell_setting	triclinic
loop_
_symmetry_equiv_pos_as_xyz
  x,y,z
_cell_length_a	21.295417
_cell_length_b	19.805407
_cell_length_c	19.805398
_cell_angle_alpha	89.986879
_cell_angle_beta	89.968132
_cell_angle_gamma	90.030507
loop_
_atom_site_label
_atom_site_type_symbol
_atom_site_fract_x
_atom_site_fract_y
_atom_site_fract_z
Zn1	Zn	-0.250617	1.034673	-0.382704
Zn2	Zn	0.249383	1.534673	0.117296
Zn3	Zn	-0.355888	1.034593	-0.269510
Zn4	Zn	0.144112	1.534593	0.230490
Zn5	Zn	-0.250637	0.921501	-0.269529
Zn6	Zn	0.249363	1.421501	0.230471
Zn7	Zn	-0.355853	0.921443	-0.382656
Zn8	Zn	0.144147	1.421443	0.117344
O9	O	-0.303249	0.978053	-0.326100
O10	O	0.196751	1.478053	0.173900
O11	O	-0.264589	1.129379	-0.367701
O12	O	0.235411	1.629379	0.132299
O13	O	-0.341949	1.019581	-0.174796
O14	O	0.158051	1.519581	0.325204
O15	O	-0.162545	0.936571	-0.284570
O16	O	0.337455	1.436571	0.215430
O17	O	-0.341930	1.129320	-0.284537
O18	O	0.158070	1.629320	0.215463
O19	O	-0.162531	1.019718	-0.367719
O20	O	0.337469	1.519718	0.132281
O21	O	-0.264621	0.936493	-0.174810
O22	O	0.235379	1.436493	0.325190
O23	O	-0.264587	0.826777	-0.284523
O24	O	0.235413	1.326777	0.215477
O25	O	-0.341870	0.936473	-0.477379
O26	O	0.158130	1.436473	0.022621
O27	O	-0.341889	0.826734	-0.367638
O28	O	0.158111	1.326734	0.132362
O29	O	-0.264554	1.019663	-0.477415
O30	O	0.235446	1.519663	0.022585
O31	O	-0.443973	1.019526	-0.284491
O32	O	0.056027	1.519526	0.215509
O33	O	-0.443947	0.936395	-0.367619
O34	O	0.056053	1.436395	0.132381
C35	C	-0.303237	0.802197	-0.326078
C36	C	0.196763	1.302197	0.173922
C37	C	-0.303247	0.726965	-0.326085
C38	C	0.196753	1.226965	0.173915
C39	C	-0.466800	0.977964	-0.326062
C40	C	0.033200	1.477964	0.173938
C41	C	-0.536768	0.977988	-0.326069
C42	C	-0.036768	1.477988	0.173931
C43	C	-0.343558	0.691616	-0.369292
C44	C	0.156442	1.191616	0.130708
C45	C	-0.343559	0.620928	-0.369302
C46	C	0.156441	1.120928	0.130698
C47	C	-0.303252	0.585589	-0.326100
C48	C	0.196748	1.085589	0.173900
C49	C	-0.262936	0.620942	-0.282890
C50	C	0.237064	1.120942	0.217110
C51	C	-0.262932	0.691629	-0.282885
C52	C	0.237068	1.191629	0.217115
C53	C	-0.262949	0.335869	-0.282913
C54	C	0.237051	0.835869	0.217087
C55	C	-0.262958	0.265177	-0.282920
C56	C	0.237042	0.765177	0.217080
C57	C	-0.343577	0.265167	-0.369330
C58	C	0.156423	0.765167	0.130670
C59	C	-0.343573	0.335854	-0.369324
C60	C	0.156427	0.835854	0.130676
C61	C	-0.303255	0.371202	-0.326117
C62	C	0.196745	0.871202	0.173883
C63	C	-0.303254	0.447850	-0.326109
C64	C	0.196746	0.947850	0.173891
C65	C	-0.303256	0.508942	-0.326105
C66	C	0.196744	1.008942	0.173895
C67	C	-0.569628	1.021312	-0.282828
C68	C	-0.069628	1.521312	0.217172
C69	C	-0.635370	1.021344	-0.282844
C70	C	-0.135370	1.521344	0.217156
C71	C	-0.668251	0.978039	-0.326092
C72	C	-0.168251	1.478039	0.173908
C73	C	-0.635384	0.934712	-0.369341
C74	C	-0.135384	1.434712	0.130659
C75	C	-0.569643	0.934686	-0.369330
C76	C	-0.069643	1.434686	0.130670
N77	N	-0.771517	0.918828	-0.331245
N78	N	-0.271517	1.418828	0.168755
N79	N	-0.833968	0.918854	-0.331252
N80	N	-0.333968	1.418854	0.168748
C81	C	-0.866326	0.978115	-0.326131
C82	C	-0.366326	1.478115	0.173869
N83	N	-0.833872	1.037349	-0.320989
N84	N	-0.333872	1.537349	0.179011
N85	N	-0.771415	1.037322	-0.320979
N86	N	-0.271415	1.537322	0.179021
C87	C	-0.739536	0.978062	-0.326110
C88	C	-0.239536	1.478062	0.173890
C89	C	-0.970470	1.021477	-0.282905
C90	C	-0.470470	1.521477	0.217095
C91	C	-1.036214	1.021510	-0.282925
C92	C	-0.536214	1.521510	0.217075
C93	C	-1.036226	0.934872	-0.369419
C94	C	-0.536226	1.434872	0.130581
C95	C	-0.970484	0.934845	-0.369402
C96	C	-0.470484	1.434845	0.130598
C97	C	-0.937610	0.978147	-0.326142
C98	C	-0.437610	1.478147	0.173858
C99	C	-0.139058	0.978160	-0.326152
C100	C	0.360942	1.478160	0.173848
C101	C	-0.069090	0.978206	-0.326175
C102	C	0.430910	1.478206	0.173825
C103	C	-0.303206	0.978071	-0.502643
C104	C	0.196794	1.478071	-0.002643
C105	C	-0.303188	0.978078	-0.577875
C106	C	0.196812	1.478078	-0.077875
C107	C	-0.303261	1.154595	-0.326122
C108	C	0.196739	1.654595	0.173878
C109	C	-0.303267	1.229827	-0.326132
C110	C	0.196733	1.729827	0.173868
C111	C	-0.343352	1.021449	-1.039656
C112	C	0.156648	1.521449	-0.539656
C113	C	-0.343370	1.021430	-0.968968
C114	C	0.156630	1.521430	-0.468968
C115	C	-0.303117	0.978162	-0.933637
C116	C	0.196883	1.478162	-0.433637
C117	C	-0.262849	0.934905	-0.968998
C118	C	0.237151	1.434905	-0.468998
C119	C	-0.262836	0.934921	-1.039685
C120	C	0.237164	1.434921	-0.539685
C121	C	-0.262903	0.934840	-0.683924
C122	C	0.237097	1.434840	-0.183924
C123	C	-0.262918	0.934829	-0.613232
C124	C	0.237082	1.434829	-0.113232
C125	C	-0.343437	1.021349	-0.613207
C126	C	0.156563	1.521349	-0.113207
C127	C	-0.343423	1.021365	-0.683894
C128	C	0.156577	1.521365	-0.183894
C129	C	-0.303158	0.978106	-0.719249
C130	C	0.196842	1.478106	-0.219249
C131	C	-0.303141	0.978126	-0.795898
C132	C	0.196859	1.478126	-0.295898
C133	C	-0.303131	0.978145	-0.856989
C134	C	0.196869	1.478145	-0.356989
C135	C	-0.303246	0.978073	-0.150244
C136	C	0.196754	1.478073	0.349756
C137	C	-0.303087	0.978197	-0.075012
C138	C	0.196913	1.478197	0.424988
H139	H	-0.376386	0.592150	-0.404485
H140	H	0.123614	1.092150	0.095515
O141	O	-0.935011	1.068202	-0.236268
O142	O	-0.435011	1.568202	0.263732
H143	H	-0.883776	1.060905	-0.243522
H144	H	-0.383776	1.560905	0.256478
H145	H	-0.376128	1.056686	-1.068418
H146	H	0.123872	1.556686	-0.568418
O147	O	-0.386786	1.068094	-0.930831
O148	O	0.113214	1.568094	-0.430831
H149	H	-0.414764	1.098194	-0.967274
H150	H	0.085236	1.598194	-0.467274
O151	O	-0.219474	0.582832	-0.236275
O152	O	0.280526	1.082832	0.263725
H153	H	-0.226259	0.527740	-0.243525
H154	H	0.273741	1.027740	0.256475
O155	O	-0.670824	1.068068	-0.236198
O156	O	-0.170824	1.568068	0.263802
H157	H	-0.636920	1.098170	-0.206112
H158	H	-0.136920	1.598170	0.293888
H159	H	-0.376225	1.056571	-0.584412
H160	H	0.123775	1.556571	-0.084412
O161	O	-0.219501	0.888160	-0.575121
O162	O	0.280499	1.388160	-0.075121
H163	H	-0.191503	0.858078	-0.611580
H164	H	0.308497	1.358078	-0.111580
O165	O	-1.071660	1.068247	-0.236291
O166	O	-0.571660	1.568247	0.263709
H167	H	-1.101669	1.037990	-0.201839
H168	H	-0.601669	1.537990	0.298161
H169	H	-0.376199	1.056601	-0.712657
H170	H	0.123801	1.556601	-0.212657
O171	O	-0.387044	0.373972	-0.415924
O172	O	0.112956	0.873972	0.084076
H173	H	-0.415071	0.337516	-0.445977
H174	H	0.084929	0.837516	0.054023
O175	O	-0.387059	0.227044	-0.415942
O176	O	0.112941	0.727044	0.084058
H177	H	-0.380286	0.171954	-0.408698
H178	H	0.119714	0.671954	0.091302
H179	H	-0.230103	0.720409	-0.247704
H180	H	0.269897	1.220409	0.252296
H181	H	-0.542888	0.899405	-0.404542
H182	H	-0.042888	1.399405	0.095458
O183	O	-0.219478	0.888184	-0.722055
O184	O	0.280522	1.388184	-0.222055
H185	H	-0.187451	0.918502	-0.754281
H186	H	0.312549	1.418502	-0.254281
O187	O	-0.670842	0.887995	-0.415982
O188	O	-0.170842	1.387995	0.084018
H189	H	-0.722077	0.895284	-0.408719
H190	H	-0.222077	1.395284	0.091281
H191	H	-0.230047	0.899702	-1.068471
H192	H	0.269953	1.399702	-0.568471
O193	O	-0.219429	0.888239	-0.930896
O194	O	0.280571	1.388239	-0.430896
H195	H	-0.226196	0.895500	-0.875802
H196	H	0.273804	1.395500	-0.375802
O197	O	-0.534169	1.068023	-0.236180
O198	O	-0.034169	1.568023	0.263820
H199	H	-0.568068	1.098161	-0.206120
H200	H	-0.068068	1.598161	0.293880
H201	H	-0.230130	0.236406	-0.247740
H202	H	0.269870	0.736406	0.252260
O203	O	-0.387031	0.729731	-0.415892
O204	O	0.112969	1.229731	0.084108
H205	H	-0.415057	0.693272	-0.445943
H206	H	0.084943	1.193272	0.054057
H207	H	-0.230125	0.364640	-0.247726
H208	H	0.269875	0.864640	0.252274
H209	H	-1.062997	0.899615	-0.404636
H210	H	-0.562997	1.399615	0.095364
O211	O	-0.935036	0.888099	-0.416023
O212	O	-0.435036	1.388099	0.083977
H213	H	-0.968943	0.857983	-0.446093
H214	H	-0.468943	1.357983	0.053907
