data_functionalizedCrystal
_audit_creation_method	'MofGen! by Chris Wilmer'
_symmetry_space_group_name_H-M	'P1'
_symmetry_Int_Tables_number	1
_symmetry_cell_setting	triclinic
loop_
_symmetry_equiv_pos_as_xyz
  x,y,z
_cell_length_a	19.077236
_cell_length_b	17.638516
_cell_length_c	19.076919
_cell_angle_alpha	77.040002
_cell_angle_beta	90.112677
_cell_angle_gamma	103.941351
loop_
_atom_site_label
_atom_site_type_symbol
_atom_site_fract_x
_atom_site_fract_y
_atom_site_fract_z
Zn1	Zn	1.003734	-0.291660	0.490803
Zn2	Zn	0.984288	-0.420421	0.395485
Zn3	Zn	0.891028	-0.291239	0.368510
Zn4	Zn	0.860102	-0.431140	0.510071
O5	O	0.934788	-0.358615	0.441217
O6	O	1.100294	-0.304431	0.481384
O7	O	0.976721	-0.398623	0.292773
O8	O	0.927060	-0.178859	0.365380
O9	O	1.086007	-0.399031	0.411355
O10	O	1.009864	-0.179168	0.455228
O11	O	0.908204	-0.303713	0.272954
O12	O	0.787786	-0.314107	0.384063
O13	O	0.874351	-0.417300	0.606649
O14	O	0.765065	-0.416892	0.488067
O15	O	0.979876	-0.314825	0.592493
O16	O	0.946733	-0.534279	0.430038
O17	O	0.855495	-0.542155	0.514224
C18	C	0.750719	-0.366617	0.435229
C19	C	0.671969	-0.370061	0.432688
C20	C	0.642393	-0.322510	0.468037
C21	C	0.568400	-0.325742	0.465642
C22	C	0.523984	-0.376528	0.427902
C23	C	0.553565	-0.424081	0.392548
C24	C	0.627558	-0.420845	0.394939
C25	C	0.301895	-0.391475	0.416828
C26	C	0.227897	-0.394710	0.414442
C27	C	0.242737	-0.296369	0.487536
C28	C	0.316730	-0.293141	0.489927
C29	C	0.346305	-0.340690	0.454570
N30	N	0.448351	-0.379834	0.425455
N31	N	0.421938	-0.337379	0.457013
C32	C	0.895666	-0.567370	0.477165
C33	C	0.878994	-0.656675	0.492569
C34	C	1.061871	-0.929747	0.324260
C35	C	1.046192	-1.013663	0.338746
C36	C	0.951112	-1.021908	0.426334
C37	C	0.966781	-0.937991	0.411853
C38	C	1.022162	-0.891917	0.360816
C39	C	0.927072	-0.900161	0.448409
C40	C	0.942743	-0.816251	0.433931
C41	C	0.998122	-0.770171	0.382898
C42	C	1.037833	-0.808007	0.346338
C43	C	0.871695	-0.946237	0.499449
C44	C	0.831986	-0.908406	0.536005
C45	C	0.847653	-0.824495	0.521524
C46	C	0.903032	-0.778415	0.470491
C47	C	0.807943	-0.786659	0.558084
C48	C	0.823613	-0.702749	0.543606
C49	C	0.918703	-0.694505	0.456013
C50	C	1.119575	-0.350582	0.447229
C51	C	1.198321	-0.347159	0.449791
C52	C	0.925833	-0.367305	0.625994
C53	C	0.922017	-0.371008	0.704735
C54	C	0.974081	-0.149045	0.405146
C55	C	0.990825	-0.059738	0.389774
C56	C	0.943760	-0.349899	0.257151
C57	C	0.947756	-0.345964	0.178376
C58	C	0.975163	-0.319397	0.734359
C59	C	0.971569	-0.322874	0.808344
C60	C	0.914831	-0.377967	0.852704
C61	C	0.861680	-0.429580	0.823075
C62	C	0.865272	-0.426099	0.749091
C63	C	0.898196	-0.394096	1.074763
C64	C	0.894610	-0.397575	1.148752
C65	C	1.004498	-0.290867	1.134015
C66	C	1.008087	-0.287394	1.060031
C67	C	0.954934	-0.339005	1.030408
N68	N	0.911158	-0.381524	0.928329
N69	N	0.958605	-0.335443	0.954784
H70	H	0.218648	-0.257656	0.516320
H71	H	0.786897	-0.945931	0.577561
H72	H	0.854923	-0.436132	1.050655
H73	H	0.762856	-0.824185	0.599643
H74	H	1.021366	-0.274537	0.698246
C75	C	1.030035	-0.266098	0.840926
N76	N	1.074074	-0.223332	0.865466
H77	H	1.054290	-0.242534	1.023917
C78	C	0.660091	-0.473156	0.356053
N79	N	0.684593	-0.512557	0.326761
H80	H	0.191734	-0.436070	0.383709
C81	C	1.062956	-0.234090	1.166605
N82	N	1.106985	-0.191319	1.191150
H83	H	0.517397	-0.465428	0.361814
H84	H	0.325966	-0.430194	0.388039
C85	C	0.979627	-0.643818	0.399872
N86	N	1.025516	-0.605641	0.357592
H87	H	0.848405	-0.442440	1.184869
H88	H	1.010882	-0.701846	0.371113
C89	C	0.799263	-0.490175	0.871873
N90	N	0.752248	-0.535816	0.908626
H91	H	1.082924	-0.770491	0.304773
H92	H	0.906023	-1.059433	0.467890
H93	H	0.791278	-0.671948	0.573375
C94	C	0.806808	-0.482877	0.716506
N95	N	0.762770	-0.525642	0.691964
C96	C	0.854459	-1.038541	0.515373
N97	N	0.841476	-1.108064	0.527366
C98	C	1.122796	-0.879060	0.268119
N99	N	1.168685	-0.840883	0.225838
C100	C	1.089878	-1.055273	0.298525
N101	N	1.122783	-1.086613	0.268233
H102	H	0.678551	-0.281156	0.498772
H103	H	0.544322	-0.287022	0.494430
H104	H	0.352888	-0.251788	0.520663
