data_functionalizedCrystal
_audit_creation_method	'MofGen! by Chris Wilmer'
_symmetry_space_group_name_H-M	'P1'
_symmetry_Int_Tables_number	1
_symmetry_cell_setting	triclinic
loop_
_symmetry_equiv_pos_as_xyz
  x,y,z
_cell_length_a	13.032721
_cell_length_b	11.169417
_cell_length_c	11.169409
_cell_angle_alpha	89.980176
_cell_angle_beta	97.146003
_cell_angle_gamma	97.204996
loop_
_atom_site_label
_atom_site_type_symbol
_atom_site_fract_x
_atom_site_fract_y
_atom_site_fract_z
Zn1	Zn	-0.415926	1.774209	-0.739163
Zn2	Zn	-0.590714	1.748568	-0.563955
Zn3	Zn	-0.415989	1.573486	-0.538507
Zn4	Zn	-0.590629	1.547984	-0.764588
O5	O	-0.503314	1.661062	-0.651553
O6	O	-0.439121	1.938756	-0.715931
O7	O	-0.567598	1.725284	-0.392639
O8	O	-0.269744	1.621516	-0.543834
O9	O	-0.567537	1.919918	-0.587207
O10	O	-0.269697	1.768986	-0.691255
O11	O	-0.439229	1.596652	-0.373942
O12	O	-0.439147	1.402155	-0.568487
O13	O	-0.567392	1.578052	-0.929156
O14	O	-0.567453	1.383419	-0.734588
O15	O	-0.439038	1.744259	-0.910477
O16	O	-0.736939	1.700556	-0.611860
O17	O	-0.736877	1.553189	-0.759264
C18	C	-0.503298	1.349239	-0.651535
C19	C	-0.503317	1.215837	-0.651560
C20	C	-0.774825	1.621355	-0.691108
C21	C	-0.890979	1.604479	-0.708070
C22	C	-0.942760	1.669934	-0.642755
C23	C	-1.062811	1.652492	-0.660284
C24	C	-0.230743	1.700956	-0.611870
C25	C	-0.114589	1.717956	-0.594959
C26	C	-0.503198	1.661171	-0.964579
C27	C	-0.503149	1.661217	-1.097972
C28	C	-0.503331	1.974102	-0.651572
C29	C	-0.503338	2.107501	-0.651580
C30	C	-0.503355	1.661033	-0.339734
C31	C	-0.503110	1.661262	-0.206299
H32	H	-0.898217	1.738890	-0.573862
C33	C	-1.096524	1.589063	-0.868354
C34	C	-1.122931	1.559406	-0.753304
H35	H	-1.133646	1.531599	-0.925779
H36	H	-1.023744	1.588563	-0.868769
H37	H	-1.114289	1.667134	-0.888548
H38	H	-1.105159	1.481338	-0.733106
H39	H	-1.195727	1.559893	-0.752886
H40	H	-1.070049	1.786917	-0.526062
H41	H	-0.935524	1.535533	-0.776972
