data_functionalizedCrystal
_audit_creation_method	'MofGen! by Chris Wilmer'
_symmetry_space_group_name_H-M	'P1'
_symmetry_Int_Tables_number	1
_symmetry_cell_setting	triclinic
loop_
_symmetry_equiv_pos_as_xyz
  x,y,z
_cell_length_a	18.215407
_cell_length_b	25.639239
_cell_length_c	25.639233
_cell_angle_alpha	89.981253
_cell_angle_beta	89.986457
_cell_angle_gamma	90.039134
loop_
_atom_site_label
_atom_site_type_symbol
_atom_site_fract_x
_atom_site_fract_y
_atom_site_fract_z
Zn1	Zn	1.124956	-0.208208	-0.295622
Zn2	Zn	1.124848	-0.295627	-0.208186
Zn3	Zn	1.001902	-0.208208	-0.208199
Zn4	Zn	1.001824	-0.295615	-0.295589
O5	O	1.063382	-0.251915	-0.251899
O6	O	1.227926	-0.219809	-0.284032
O7	O	1.108526	-0.284036	-0.135023
O8	O	1.018303	-0.135043	-0.219815
O9	O	1.227846	-0.284036	-0.219793
O10	O	1.108710	-0.135043	-0.284044
O11	O	1.018198	-0.219809	-0.135032
O12	O	0.898907	-0.219798	-0.219783
O13	O	1.018171	-0.284015	-0.368759
O14	O	0.898850	-0.284015	-0.283989
O15	O	1.108635	-0.219798	-0.368783
O16	O	1.108451	-0.368791	-0.219761
O17	O	1.018066	-0.368782	-0.283976
C18	C	0.872176	-0.251906	-0.251884
C19	C	0.790377	-0.251914	-0.251890
C20	C	0.602173	-0.285405	-0.285280
C21	C	0.525314	-0.285407	-0.285286
C22	C	0.525344	-0.218434	-0.218530
C23	C	0.602201	-0.218430	-0.218526
C24	C	0.640614	-0.251918	-0.251901
C25	C	0.486898	-0.251924	-0.251911
C26	C	0.403564	-0.251925	-0.251917
C27	C	0.723953	-0.251916	-0.251895
C28	C	1.063259	-0.387757	-0.251875
C29	C	1.063273	-0.445871	-0.251883
C30	C	1.110569	-0.806226	-0.218520
C31	C	1.110597	-0.860830	-0.218527
O32	O	1.150681	-0.889060	-0.190134
N33	N	1.063512	-0.888154	-0.251934
C34	C	1.016400	-0.860870	-0.285340
O35	O	0.976353	-0.889124	-0.313757
C36	C	1.016376	-0.806266	-0.285335
C37	C	1.063459	-0.778946	-0.251922
C38	C	1.157649	-0.778906	-0.185110
C39	C	1.157619	-0.724305	-0.185102
C40	C	1.110509	-0.697025	-0.218505
C41	C	1.063429	-0.724345	-0.251915
C42	C	0.969268	-0.778983	-0.318744
C43	C	0.969249	-0.724376	-0.318736
C44	C	1.016332	-0.697056	-0.285323
C45	C	1.016290	-0.642465	-0.285310
N46	N	1.063375	-0.615142	-0.251902
C47	C	1.110485	-0.642422	-0.218500
C48	C	1.016456	-0.975540	-0.285348
C49	C	1.016476	-1.030142	-0.285351
C50	C	1.110674	-1.030100	-0.218538
C51	C	1.110649	-0.975496	-0.218533
C52	C	1.063541	-0.948217	-0.251941
C53	C	1.110419	-0.527757	-0.218486
C54	C	1.110383	-0.473151	-0.218480
C55	C	1.016188	-0.473199	-0.285295
C56	C	1.016220	-0.527800	-0.285299
C57	C	1.063342	-0.555077	-0.251893
O58	O	0.976229	-0.614200	-0.313689
O59	O	1.150532	-0.614161	-0.190093
C60	C	1.255335	-0.251924	-0.251915
C61	C	1.337134	-0.251928	-0.251921
C62	C	1.063406	-0.251905	-0.388272
C63	C	1.063416	-0.251901	-0.446386
C64	C	1.063527	-0.115542	-0.251935
C65	C	1.063588	-0.057427	-0.251950
C66	C	1.110581	-0.218364	-0.806768
C67	C	1.110590	-0.218350	-0.861372
O68	O	1.150631	-0.189897	-0.889624
N69	N	1.063497	-0.251779	-0.888669
C70	C	1.016388	-0.285221	-0.861359
O71	O	0.976332	-0.313654	-0.889591
C72	C	1.016375	-0.285232	-0.806756
C73	C	1.063476	-0.251805	-0.779461
C74	C	1.157677	-0.184939	-0.779473
C75	C	1.157668	-0.184954	-0.724873
C76	C	1.110564	-0.218395	-0.697567
C77	C	1.063468	-0.251820	-0.724861
C78	C	0.969263	-0.318672	-0.779446
C79	C	0.969254	-0.318680	-0.724839
C80	C	1.016355	-0.285252	-0.697545
C81	C	1.016355	-0.285276	-0.642954
N82	N	1.063447	-0.251847	-0.615657
C83	C	1.110552	-0.218406	-0.642963
C84	C	1.016416	-0.285194	-0.976030
C85	C	1.016432	-0.285185	-1.030632
C86	C	1.110633	-0.218313	-1.030641
C87	C	1.110620	-0.218325	-0.976038
C88	C	1.063508	-0.251765	-0.948733
C89	C	1.110531	-0.218441	-0.528298
C90	C	1.110521	-0.218461	-0.473693
C91	C	1.016317	-0.285331	-0.473688
C92	C	1.016330	-0.285313	-0.528289
C93	C	1.063439	-0.251864	-0.555592
O94	O	0.976332	-0.313713	-0.614667
O95	O	1.150593	-0.189973	-0.614724
C96	C	1.063401	-0.251886	-0.116057
C97	C	1.063534	-0.251743	-0.057943
H98	H	0.494019	-0.312674	-0.312468
H99	H	1.148791	-0.549960	-0.191285
F100	F	0.966205	-0.320894	-0.557338
H101	H	1.148986	-0.191083	-1.052884
H102	H	0.494059	-0.191169	-0.191357
H103	H	1.149036	-1.052321	-0.191341
H104	H	1.148723	-0.450909	-0.191269
H105	H	0.978129	-1.052382	-0.312554
F106	F	0.966311	-0.320771	-1.059675
F107	F	1.207740	-0.695236	-0.149545
F108	F	0.643052	-0.321045	-0.320801
H109	H	0.978088	-0.953332	-0.312551
H110	H	0.930908	-0.345892	-0.801660
H111	H	0.930881	-0.345906	-0.702610
H112	H	0.977968	-0.312559	-0.451445
H113	H	1.196035	-0.157704	-0.801700
F114	F	1.207795	-0.807931	-0.149556
H115	H	0.633501	-0.191158	-0.191345
F116	F	0.966274	-0.320791	-0.946974
H117	H	1.148989	-0.953255	-0.191325
H118	H	0.930925	-0.801218	-0.345950
F119	F	0.919109	-0.695347	-0.354296
F120	F	0.966096	-0.556877	-0.320851
F121	F	0.966055	-0.444156	-0.320844
H122	H	1.148878	-0.191239	-0.451472
H123	H	1.148890	-0.191202	-0.550522
H124	H	1.196021	-0.157733	-0.702655
F125	F	1.160750	-0.182746	-0.946994
