data_functionalizedCrystal
_audit_creation_method	'MofGen! by Chris Wilmer'
_symmetry_space_group_name_H-M	'P1'
_symmetry_Int_Tables_number	1
_symmetry_cell_setting	triclinic
loop_
_symmetry_equiv_pos_as_xyz
  x,y,z
_cell_length_a	19.188929
_cell_length_b	17.019282
_cell_length_c	15.500346
_cell_angle_alpha	89.308724
_cell_angle_beta	86.799823
_cell_angle_gamma	96.731347
loop_
_atom_site_label
_atom_site_type_symbol
_atom_site_fract_x
_atom_site_fract_y
_atom_site_fract_z
O1	O	-0.088663	1.046103	-0.005978
O2	O	-0.100699	0.817172	0.011091
O3	O	0.006986	0.938242	0.002010
O4	O	-0.196347	0.925034	0.003102
O5	O	0.012726	0.931730	-0.141393
O6	O	-0.094959	0.810660	-0.132313
O7	O	-0.082922	1.039591	-0.149382
Cu8	Cu	-0.088416	0.924531	-0.153942
Cu9	Cu	-0.095205	0.932232	0.015650
O10	O	-0.190607	0.918522	-0.140302
C11	C	-0.097488	0.784628	-0.058428
C12	C	-0.096462	0.697357	-0.051924
C13	C	-0.092849	0.652812	-0.127040
C14	C	-0.091874	0.570813	-0.120931
C15	C	-0.094517	0.533360	-0.039706
C16	C	-0.098128	0.577911	0.035416
C17	C	-0.099098	0.659909	0.029306
C18	C	-0.091741	0.285957	-0.017348
C19	C	-0.090773	0.203952	-0.011244
C20	C	-0.084518	0.196860	-0.167591
C21	C	-0.085492	0.278859	-0.173694
C22	C	-0.089099	0.323404	-0.098573
C23	C	-0.093523	0.449543	-0.033460
C24	C	-0.090088	0.407219	-0.104820
C25	C	-0.219488	0.922206	-0.068618
C26	C	-0.296993	0.923492	-0.068673
C27	C	-0.342010	0.852451	-0.063393
C28	C	-0.414831	0.853657	-0.063503
C29	C	-0.442632	0.925907	-0.068909
C30	C	-0.397605	0.996959	-0.074184
C31	C	-0.324786	0.995751	-0.074066
N32	N	-0.548571	0.978916	-0.121885
N33	N	-0.617747	0.980058	-0.121999
C34	C	-0.662032	0.929550	-0.069264
N35	N	-0.634529	0.877844	-0.016421
N36	N	-0.565346	0.876699	-0.016311
C37	C	-0.521591	0.927225	-0.069037
C38	C	-0.786011	0.859811	-0.064102
C39	C	-0.858834	0.861020	-0.064206
C40	C	-0.841605	1.004324	-0.074896
C41	C	-0.768785	1.003113	-0.074783
C42	C	-0.740992	0.930854	-0.069390
C43	C	0.035867	0.934557	-0.069671
C44	C	0.113371	0.933271	-0.069611
C45	C	-0.086134	1.072136	-0.079861
C46	C	-0.087160	1.159407	-0.086360
N47	N	-0.083641	0.919120	-0.273224
C48	C	-0.059614	0.892162	-0.816405
C49	C	-0.063252	0.896249	-0.726137
C50	C	-0.107256	0.945820	-0.684532
C51	C	-0.147618	0.991312	-0.733202
C52	C	-0.143976	0.987229	-0.823469
C53	C	-0.120361	0.960530	-0.412161
C54	C	-0.124002	0.964608	-0.321887
C55	C	-0.039635	0.869545	-0.314827
C56	C	-0.035999	0.865462	-0.405096
C57	C	-0.076359	0.910958	-0.453758
C58	C	-0.110978	0.949996	-0.592263
C59	C	-0.072633	0.906785	-0.546026
N60	N	-0.099975	0.937649	0.134932
H61	H	-0.087933	0.437717	-0.170953
H62	H	-0.083337	0.309348	-0.239836
H63	H	-0.319386	0.793612	-0.058994
H64	H	-0.732130	1.060963	-0.079088
O65	O	-0.095635	0.333996	0.063672
H66	H	-0.144541	0.312789	0.102884
O67	O	-0.907386	0.784387	-0.058514
H68	H	-0.943344	0.784152	0.000143
O69	O	-0.100981	0.537521	0.123027
H70	H	-0.099709	0.473017	0.114658
H71	H	-0.102041	0.696177	0.090474
H72	H	-0.006776	0.832506	-0.275197
H73	H	-0.183444	1.031678	-0.699321
H74	H	-0.451491	0.795804	-0.059205
O75	O	-0.427583	1.074889	-0.080018
H76	H	-0.485782	1.063794	-0.079223
O77	O	-0.276223	1.072377	-0.079774
H78	H	-0.307785	1.122822	-0.083558
O79	O	-0.756026	0.781881	-0.058270
H80	H	-0.799568	0.732682	-0.054602
O81	O	-0.012139	0.838711	-0.861279
H82	H	0.015325	0.807780	-0.812272
H83	H	-0.095674	0.419040	0.032675
H84	H	-0.092927	0.173461	0.054903
O85	O	-0.019726	0.847182	-0.673646
H86	H	0.011476	0.812017	-0.717740
H87	H	-0.864242	1.063154	-0.079236
H88	H	-0.000166	0.825098	-0.438964
H89	H	-0.159840	1.004973	-0.288015
H90	H	-0.146806	0.990356	-0.558379
H91	H	-0.081580	0.160583	-0.228751
H92	H	-0.153226	0.997576	-0.451771
O93	O	-0.187510	1.036286	-0.875963
H94	H	-0.218726	1.071436	-0.831869
H95	H	-0.036803	0.866428	-0.579904
H96	H	-0.090703	0.683299	-0.193183
H97	H	-0.088921	0.534549	-0.182099
