data_functionalizedCrystal
_audit_creation_method	'MofGen! by Chris Wilmer'
_symmetry_space_group_name_H-M	'P1'
_symmetry_Int_Tables_number	1
_symmetry_cell_setting	triclinic
loop_
_symmetry_equiv_pos_as_xyz
  x,y,z
_cell_length_a	19.902436
_cell_length_b	14.809374
_cell_length_c	14.809374
_cell_angle_alpha	61.589507
_cell_angle_beta	98.948871
_cell_angle_gamma	55.131216
loop_
_atom_site_label
_atom_site_type_symbol
_atom_site_fract_x
_atom_site_fract_y
_atom_site_fract_z
Zr1	Zr	0.474160	1.187759	-0.307143
O2	O	0.319650	1.414094	-0.488734
O3	O	0.542563	0.961408	-0.226753
O4	O	0.490147	1.187762	-0.453107
O5	O	0.389482	1.187743	-0.111951
O6	O	0.600708	1.187783	-0.453128
O7	O	0.372066	1.187739	-0.262379
O8	O	0.694470	0.782877	-0.048221
O9	O	0.295720	1.592649	-0.516858
O10	O	0.628830	1.054531	-0.222353
O11	O	0.559317	1.054518	-0.110074
O12	O	0.497604	1.321021	-0.376577
O13	O	0.428092	1.321007	-0.264299
Zr14	Zr	0.678270	1.187798	-0.067261
Zr15	Zr	0.650492	1.187792	-0.307177
Zr16	Zr	0.501938	1.187764	-0.067228
Zr17	Zr	0.435995	1.472534	-0.351998
Zr18	Zr	0.716435	0.903022	-0.022407
O19	O	0.609867	1.414149	-0.147652
O20	O	0.570371	1.414141	-0.488781
O21	O	0.359146	1.414101	-0.147605
O22	O	0.832780	0.961463	0.114329
O23	O	0.793284	0.961456	-0.226800
O24	O	0.582059	0.961415	0.114376
O25	O	0.762947	1.187814	-0.262453
O26	O	0.662283	1.187795	0.078702
O27	O	0.551722	1.187774	0.078723
O28	O	0.780364	1.187817	-0.112025
O29	O	0.435880	1.592676	-0.516884
O30	O	0.716549	0.782881	0.142479
O31	O	0.856710	0.782908	0.142453
O32	O	0.834630	0.782903	-0.048248
O33	O	0.317799	1.592653	-0.326157
O34	O	0.457960	1.592680	-0.326183
O35	O	0.654825	1.054536	0.002173
O36	O	0.724338	1.054549	-0.110106
O37	O	0.593112	1.321039	-0.264330
O38	O	0.523600	1.321026	-0.152052
C39	C	0.623954	0.831568	-0.131096
C40	C	0.640156	0.710673	-0.112054
C41	C	0.567848	0.750246	-0.197036
C42	C	0.584592	0.625297	-0.177357
C43	C	0.355650	1.187736	-0.187161
C44	C	0.280793	1.187722	-0.187146
C45	C	0.008727	1.187798	-0.187221
C46	C	0.119958	1.019691	-0.090271
C47	C	0.197921	1.019585	-0.089857
C48	C	0.143703	1.187759	-0.187184
C49	C	0.084374	1.271246	-0.148686
C50	C	0.007016	1.270171	-0.148001
C51	C	-0.014772	1.273620	-0.322889
C52	C	0.064551	1.270461	-0.322198
C53	C	0.219981	1.187746	-0.187165
C54	C	-0.067553	1.187815	-0.187236
C55	C	0.796779	1.187820	-0.187244
C56	C	0.871637	1.187835	-0.187258
C57	C	0.541469	1.187772	-0.487300
C58	C	0.529677	1.187769	-0.589151
C59	C	0.528476	1.543989	-0.243308
C60	C	0.512273	1.664883	-0.262350
C61	C	0.582305	1.187779	-0.634570
C62	C	0.570118	1.187777	-0.739837
C63	C	0.610960	1.187785	0.112895
C64	C	0.622753	1.187787	0.214746
C65	C	0.844518	0.831610	-0.131138
C66	C	0.935578	0.710730	-0.112110
C67	C	0.658699	0.831575	0.169002
C68	C	0.686694	0.710682	0.289894
C69	C	0.879264	0.831616	0.168960
C70	C	0.982116	0.710738	0.289838
C71	C	0.273166	1.543940	-0.543364
C72	C	0.170314	1.664818	-0.664243
C73	C	0.307911	1.543947	-0.243267
C74	C	0.216852	1.664827	-0.262294
C75	C	0.493730	1.543982	-0.543406
C76	C	0.465736	1.664874	-0.664299
C77	C	0.928485	0.653953	-0.161777
C78	C	1.014034	0.540389	-0.143923
C79	C	1.106677	0.483596	-0.076395
C80	C	1.113767	0.540383	-0.026729
C81	C	1.028217	0.653953	-0.044590
C82	C	0.749696	0.653919	0.405268
C83	C	0.775996	0.540344	0.518866
C84	C	0.739298	0.483526	0.517088
C85	C	0.676288	0.540300	0.401701
C86	C	0.649984	0.653881	0.288104
C87	C	1.066708	0.653980	0.287995
C88	C	1.163352	0.540418	0.401561
C89	C	1.175403	0.483609	0.516970
C90	C	1.090800	0.540379	0.518809
C91	C	0.994157	0.653946	0.405243
C92	C	0.085719	1.721591	-0.662402
C93	C	-0.010929	1.835188	-0.775974
C94	C	-0.022980	1.892003	-0.891383
C95	C	0.061623	1.835226	-0.893221
C96	C	0.158269	1.721638	-0.779652
C97	C	0.223942	1.721615	-0.212640
C98	C	0.138385	1.835211	-0.230525
C99	C	0.045742	1.892008	-0.298057
C100	C	0.038653	1.835216	-0.347718
C101	C	0.124207	1.721630	-0.329840
C102	C	0.502451	1.721657	-0.662479
C103	C	0.476166	1.835233	-0.776059
C104	C	0.413160	1.892032	-0.891458
C105	C	0.376446	1.835239	-0.893273
C106	C	0.402737	1.721657	-0.779694
H107	H	0.242071	0.954106	-0.114203
H108	H	-0.036788	1.881478	-0.402704
H109	H	1.176329	0.391118	-0.061859
H110	H	1.189207	0.494125	0.028253
H111	H	1.232229	0.494207	0.400043
H112	H	0.636388	1.187782	-0.595519
H113	H	1.034007	0.700165	-0.004136
H114	H	0.779585	0.700168	0.406739
H115	H	1.100627	0.494108	0.612790
H116	H	0.760724	0.391041	0.609595
H117	H	0.022994	1.393153	-0.398448
H118	H	0.658900	0.498912	-0.090028
H119	H	0.299370	1.675379	-0.157642
H120	H	-0.079805	1.881397	-0.774453
H121	H	1.056916	0.700217	0.194035
H122	H	0.437967	0.791268	-0.349685
H123	H	0.714459	0.584291	-0.024732
H124	H	0.126507	0.953701	-0.114337
H125	H	1.254101	0.391135	0.609434
H126	H	0.372831	1.675438	-0.781193
H127	H	0.475603	1.187751	-0.628193
H128	H	0.646414	0.494022	0.400272
H129	H	0.827304	0.494132	0.612807
H130	H	0.144177	1.881432	-0.190077
H131	H	0.598687	0.700082	0.194168
H132	H	0.227145	1.675415	-0.781164
H133	H	0.925285	0.700145	0.406761
H134	H	0.105568	1.209588	-0.351194
H135	H	0.493548	0.876628	-0.284364
H136	H	0.139875	0.954040	0.009635
H137	H	0.095514	1.675338	-0.568440
H138	H	-0.072109	1.393510	-0.215440
H139	H	0.256308	0.953486	0.010670
H140	H	-0.101681	1.984493	-0.983850
H141	H	0.676839	1.187789	-0.746206
H142	H	0.051798	1.881499	-0.987201
H143	H	-0.023913	1.984497	-0.312605
H144	H	0.506067	1.881462	-0.774556
H145	H	0.118421	1.675396	-0.370273
H146	H	0.025569	1.210845	-0.048770
H147	H	0.042380	1.394899	-0.217019
H148	H	0.553752	1.675428	-0.568527
H149	H	0.325144	1.881503	-0.987247
H150	H	0.139907	1.213267	-0.050520
H151	H	-0.015546	1.219820	-0.357558
H152	H	0.391760	1.984518	-0.983932
H153	H	-0.094248	1.397460	-0.395148
H154	H	1.008243	0.494167	-0.184370
H155	H	0.853056	0.700194	-0.216779
H156	H	0.516040	1.187759	-0.778876
