data_functionalizedCrystal
_audit_creation_method	'MofGen! by Chris Wilmer'
_symmetry_space_group_name_H-M	'P1'
_symmetry_Int_Tables_number	1
_symmetry_cell_setting	triclinic
loop_
_symmetry_equiv_pos_as_xyz
  x,y,z
_cell_length_a	10.654550
_cell_length_b	10.654552
_cell_length_c	9.730223
_cell_angle_alpha	89.997973
_cell_angle_beta	89.996251
_cell_angle_gamma	95.514716
loop_
_atom_site_label
_atom_site_type_symbol
_atom_site_fract_x
_atom_site_fract_y
_atom_site_fract_z
O1	O	1.667835	-0.176393	-0.114392
O2	O	1.302357	-0.193199	-0.114369
O3	O	1.493498	-0.002057	-0.114383
O4	O	1.476694	-0.367535	-0.114377
O5	O	1.493496	-0.002062	0.114197
O6	O	1.302355	-0.193204	0.114211
O7	O	1.667833	-0.176398	0.114188
Zn8	Zn	1.485093	-0.184802	0.150492
Zn9	Zn	1.485096	-0.184795	-0.150672
O10	O	1.476692	-0.367540	0.114203
C11	C	1.255558	-0.191968	-0.000076
C12	C	1.116114	-0.188276	-0.000067
C13	C	1.036629	-0.300817	-0.000086
C14	C	0.905609	-0.297341	-0.000109
C15	C	0.933571	-0.068771	-0.000103
C16	C	1.064589	-0.072249	-0.000069
C17	C	1.088155	-0.416844	-0.000084
C18	C	1.008669	-0.529394	-0.000104
C19	C	0.877648	-0.525918	-0.000127
C20	C	0.826113	-0.409891	-0.000132
C21	C	1.492262	0.044739	-0.000097
C22	C	1.488570	0.184182	-0.000107
C23	C	1.486838	0.249696	-0.124705
C24	C	1.483358	0.380717	-0.124699
C25	C	1.483345	0.380697	0.124511
C26	C	1.486817	0.249678	0.124504
C27	C	1.488591	0.184200	-0.249316
C28	C	1.486862	0.249715	-0.373924
C29	C	1.483381	0.380735	-0.373918
C30	C	1.481630	0.446241	-0.249306
C31	C	1.714632	-0.177629	-0.000108
C32	C	1.854075	-0.181321	-0.000125
N33	N	1.485101	-0.184805	0.356028
C34	C	1.477927	0.585664	-0.000089
C35	C	1.481617	0.446221	-0.000096
N36	N	1.485099	-0.184782	-0.356209
C37	C	1.569760	-0.100196	0.427948
C38	C	1.569756	-0.100181	0.571831
C39	C	1.400431	-0.269395	0.571862
C40	C	1.400429	-0.269403	0.427982
C41	C	1.654431	-0.015599	0.355994
C42	C	1.739098	0.069016	0.427914
C43	C	1.739095	0.069031	0.571797
C44	C	1.654425	-0.015568	0.643760
H45	H	0.719426	-0.407069	-0.000130
H46	H	0.891600	0.025693	-0.000129
H47	H	1.488275	0.196370	-0.475378
H48	H	1.331490	-0.338298	0.369424
H49	H	1.808026	0.137936	0.630352
O50	O	1.318142	-0.351402	0.641916
C51	C	1.240066	-0.283413	0.725119
H52	H	1.289234	-0.185599	0.746654
H53	H	1.220659	-0.335643	0.826305
H54	H	1.147172	-0.274022	0.669680
O55	O	1.654616	-0.015417	0.783529
C56	C	1.747465	0.077434	0.831581
H57	H	1.822094	0.098632	0.748665
H58	H	1.793518	0.041642	0.927849
H59	H	1.701865	0.167106	0.857088
H60	H	1.050637	-0.623860	-0.000088
H61	H	1.194837	-0.419687	-0.000071
H62	H	1.808028	0.137901	0.369314
O63	O	1.141628	0.037189	-0.000124
C64	C	1.068059	0.140343	-0.000115
H65	H	0.970575	0.109324	-0.043410
H66	H	1.115714	0.219263	-0.066473
H67	H	1.058399	0.175854	0.109542
H68	H	0.812933	-0.617562	-0.000129
H69	H	1.491429	0.077517	-0.249335
H70	H	1.481960	0.434072	-0.475379
H71	H	1.478778	0.552924	-0.249312
H72	H	1.481920	0.434042	0.225964
H73	H	1.654444	-0.015606	0.238838
O74	O	1.488525	0.186226	0.245659
C75	C	1.486197	0.272122	0.355646
H76	H	1.523444	0.370372	0.319141
H77	H	1.548031	0.241682	0.442807
H78	H	1.385239	0.273770	0.393928
