data_functionalizedCrystal
_audit_creation_method	'MofGen! by Chris Wilmer'
_symmetry_space_group_name_H-M	'P1'
_symmetry_Int_Tables_number	1
_symmetry_cell_setting	triclinic
loop_
_symmetry_equiv_pos_as_xyz
  x,y,z
_cell_length_a	17.077404
_cell_length_b	21.295417
_cell_length_c	17.077396
_cell_angle_alpha	90.033192
_cell_angle_beta	90.019501
_cell_angle_gamma	90.030732
loop_
_atom_site_label
_atom_site_type_symbol
_atom_site_fract_x
_atom_site_fract_y
_atom_site_fract_z
Zn1	Zn	1.200013	-0.250605	0.443817
Zn2	Zn	1.533346	0.082728	0.777150
Zn3	Zn	1.866680	0.416061	1.110484
Zn4	Zn	1.199903	-0.355878	0.312540
Zn5	Zn	1.533236	-0.022545	0.645874
Zn6	Zn	1.866569	0.310788	0.979207
Zn7	Zn	1.068745	-0.250628	0.312565
Zn8	Zn	1.402078	0.082706	0.645898
Zn9	Zn	1.735412	0.416039	0.979232
Zn10	Zn	1.068695	-0.355841	0.443764
Zn11	Zn	1.402029	-0.022508	0.777097
Zn12	Zn	1.735362	0.310826	1.110430
O13	O	1.134339	-0.303238	0.378171
O14	O	1.467672	0.030095	0.711505
O15	O	1.801006	0.363429	1.044838
O16	O	1.309845	-0.264577	0.426415
O17	O	1.643179	0.068757	0.759748
O18	O	1.976512	0.402090	1.093081
O19	O	1.182479	-0.341942	0.202697
O20	O	1.515812	-0.008608	0.536030
O21	O	1.849145	0.324725	0.869363
O22	O	1.086225	-0.162535	0.330008
O23	O	1.419558	0.170798	0.663342
O24	O	1.752891	0.504131	0.996675
O25	O	1.309764	-0.341920	0.329966
O26	O	1.643098	-0.008587	0.663300
O27	O	1.976431	0.324746	0.996633
O28	O	1.182667	-0.162519	0.426439
O29	O	1.516000	0.170814	0.759772
O30	O	1.849334	0.504148	1.093105
O31	O	1.086118	-0.264614	0.202715
O32	O	1.419451	0.068719	0.536048
O33	O	1.752784	0.402052	0.869381
O34	O	0.958891	-0.264578	0.329957
O35	O	1.292225	0.068755	0.663290
O36	O	1.625558	0.402089	0.996624
O37	O	1.086140	-0.341857	0.553618
O38	O	1.419474	-0.008523	0.886951
O39	O	1.752807	0.324810	1.220285
O40	O	0.958855	-0.341878	0.426348
O41	O	1.292188	-0.008545	0.759681
O42	O	1.625522	0.324789	1.093015
O43	O	1.182619	-0.264540	0.553657
O44	O	1.515952	0.068793	0.886990
O45	O	1.849286	0.402126	1.220324
O46	O	1.182431	-0.443963	0.329915
O47	O	1.515764	-0.110630	0.663248
O48	O	1.849098	0.222704	0.996581
O49	O	1.086033	-0.443935	0.426324
O50	O	1.419367	-0.110602	0.759657
O51	O	1.752700	0.222731	1.092991
C52	C	0.930391	-0.303227	0.378150
C53	C	1.263724	0.030107	0.711483
C54	C	1.597058	0.363440	1.044816
C55	C	0.843141	-0.303237	0.378159
C56	C	1.176475	0.030096	0.711493
C57	C	1.509808	0.363430	1.044826
C58	C	0.802153	-0.343548	0.428270
C59	C	1.135486	-0.010215	0.761603
C60	C	1.468819	0.323119	1.094936
C61	C	0.720172	-0.343549	0.428282
C62	C	1.053506	-0.010216	0.761615
C63	C	1.386839	0.323117	1.094949
C64	C	0.679182	-0.303242	0.378180
C65	C	1.012515	0.030091	0.711513
C66	C	1.345849	0.363424	1.044846
C67	C	0.720176	-0.262927	0.328067
C68	C	1.053510	0.070406	0.661400
C69	C	1.386843	0.403739	0.994734
C70	C	0.802155	-0.262923	0.328059
C71	C	1.135489	0.070410	0.661392
C72	C	1.468822	0.403744	0.994726
C73	C	0.549306	-0.262940	0.328086
C74	C	0.882640	0.070394	0.661419
C75	C	1.215973	0.403727	0.994753
C76	C	0.467322	-0.262944	0.328093
C77	C	0.800655	0.070389	0.661426
C78	C	1.133988	0.403722	0.994759
C79	C	0.467323	-0.343566	0.428309
C80	C	0.800657	-0.010232	0.761642
C81	C	1.133990	0.323101	1.094976
C82	C	0.549302	-0.343562	0.428301
C83	C	0.882636	-0.010228	0.761634
C84	C	1.215969	0.323105	1.094968
C85	C	0.590291	-0.303247	0.378187
C86	C	0.923624	0.030086	0.711520
C87	C	1.256958	0.363420	1.044854
C88	C	1.134236	-0.466790	0.378128
C89	C	1.467569	-0.133456	0.711461
C90	C	1.800903	0.199877	1.044795
C91	C	1.134264	-0.536758	0.378136
C92	C	1.467597	-0.203425	0.711469
C93	C	1.800931	0.129909	1.044802
C94	C	1.184503	-0.569618	0.327987
C95	C	1.517836	-0.236285	0.661320
C96	C	1.851169	0.097049	0.994653
C97	C	1.184539	-0.635360	0.328004
C98	C	1.517873	-0.302027	0.661338
C99	C	1.851206	0.031306	0.994671
C100	C	1.134323	-0.668240	0.378163
C101	C	1.467657	-0.334907	0.711496
C102	C	1.800990	-0.001574	1.044829
C103	C	1.084081	-0.635372	0.428321
C104	C	1.417415	-0.302039	0.761655
C105	C	1.750748	0.031294	1.094988
C106	C	1.084051	-0.569631	0.428308
C107	C	1.417385	-0.236298	0.761641
C108	C	1.750718	0.097036	1.094975
N109	N	1.065655	-0.771506	0.384140
N110	N	1.398988	-0.438173	0.717473
N111	N	1.732321	-0.104840	1.050806
N112	N	1.065685	-0.833958	0.384148
N113	N	1.399019	-0.500624	0.717481
N114	N	1.732352	-0.167291	1.050815
C115	C	1.134411	-0.866315	0.378208
C116	C	1.467745	-0.532982	0.711541
C117	C	1.801078	-0.199648	1.044874
N118	N	1.203107	-0.833862	0.372244
N119	N	1.536441	-0.500528	0.705577
N120	N	1.869774	-0.167195	1.038910
N121	N	1.203076	-0.771405	0.372231
N122	N	1.536409	-0.438071	0.705565
N123	N	1.869743	-0.104738	1.038898
C124	C	1.134351	-0.739526	0.378183
C125	C	1.467684	-0.406192	0.711517
C126	C	1.801017	-0.072859	1.044850
C127	C	1.184694	-0.970461	0.328075
C128	C	1.518028	-0.637127	0.661409
C129	C	1.851361	-0.303794	0.994742
C130	C	1.184732	-1.036204	0.328098
C131	C	1.518066	-0.702871	0.661432
C132	C	1.851399	-0.369538	0.994765
C133	C	1.084267	-1.036215	0.428411
C134	C	1.417600	-0.702882	0.761745
C135	C	1.750934	-0.369548	1.095078
C136	C	1.084236	-0.970473	0.428392
C137	C	1.417569	-0.637139	0.761726
C138	C	1.750903	-0.303806	1.095059
C139	C	1.134449	-0.937599	0.378220
C140	C	1.467782	-0.604266	0.711553
C141	C	1.801115	-0.270933	1.044887
C142	C	1.339083	-0.303250	0.378194
C143	C	1.672417	0.030083	0.711527
C144	C	2.005750	0.363417	1.044860
C145	C	1.426333	-0.303255	0.378203
C146	C	1.759666	0.030078	0.711536
C147	C	2.093000	0.363412	1.044870
C148	C	1.134386	-0.303192	0.582916
C149	C	1.467720	0.030142	0.916249
C150	C	1.801053	0.363475	1.249583
C151	C	1.134407	-0.303172	0.670166
C152	C	1.467740	0.030161	1.003499
C153	C	1.801073	0.363495	1.336832
C154	C	1.134464	-0.139048	0.378232
C155	C	1.467797	0.194285	0.711566
C156	C	1.801130	0.527619	1.044899
C157	C	1.134517	-0.069080	0.378258
C158	C	1.467850	0.264254	0.711592
C159	C	1.801183	0.597587	1.044925
C160	C	1.134337	-0.303239	0.174224
C161	C	1.467670	0.030094	0.507557
C162	C	1.801004	0.363428	0.840890
C163	C	1.134469	-0.303081	0.086974
C164	C	1.467802	0.030252	0.420308
C165	C	1.801135	0.363585	0.753641
C166	C	1.184645	-0.262910	0.711177
C167	C	1.517978	0.070423	1.044511
C168	C	1.851312	0.403757	1.377844
C169	C	1.184654	-0.262889	0.793158
C170	C	1.517988	0.070444	1.126491
C171	C	1.851321	0.403778	1.459825
C172	C	1.134429	-0.303134	0.834125
C173	C	1.467762	0.030200	1.167459
C174	C	1.801096	0.363533	1.500792
C175	C	1.084185	-0.343397	0.793108
C176	C	1.417519	-0.010064	1.126441
C177	C	1.750852	0.323269	1.459774
C178	C	1.084172	-0.343415	0.711129
C179	C	1.417506	-0.010081	1.044462
C180	C	1.750839	0.323252	1.377795
C181	C	1.084217	-0.343360	0.963978
C182	C	1.417550	-0.010026	1.297311
C183	C	1.750884	0.323307	1.630645
C184	C	1.084231	-0.343343	1.045963
C185	C	1.417564	-0.010010	1.379296
C186	C	1.750897	0.323323	1.712629
C187	C	1.184699	-0.262834	1.046007
C188	C	1.518032	0.070499	1.379340
C189	C	1.851365	0.403833	1.712674
C190	C	1.184686	-0.262851	0.964028
C191	C	1.518019	0.070482	1.297361
C192	C	1.851353	0.403815	1.630695
C193	C	1.134443	-0.303116	0.923016
C194	C	1.467776	0.030217	1.256350
C195	C	1.801110	0.363551	1.589683
H196	H	0.433949	-0.230115	0.287304
H197	H	0.767283	0.103218	0.620638
H198	H	1.100616	0.436551	0.953971
H199	H	0.582674	-0.376386	0.469094
H200	H	0.916008	-0.043053	0.802428
H201	H	1.249341	0.290280	1.135761
F202	F	0.676549	-0.220026	0.274749
F203	F	1.009882	0.113308	0.608082
F204	F	1.343216	0.446641	0.941416
H205	H	0.686803	-0.376375	0.469086
H206	H	1.020136	-0.043042	0.802420
H207	H	1.353470	0.290292	1.135753
H208	H	1.225565	-0.230105	0.826546
H209	H	1.558899	0.103228	1.159880
H210	H	1.892232	0.436561	1.493213
F211	F	1.238172	-0.219981	1.089656
F212	F	1.571505	0.113352	1.422989
F213	F	1.904839	0.446685	1.756322
H214	H	1.225588	-0.230084	0.930675
H215	H	1.558922	0.103249	1.264008
H216	H	1.892255	0.436583	1.597342
F217	F	1.030741	-0.386213	0.920332
F218	F	1.364074	-0.052879	1.253665
F219	F	1.697407	0.280454	1.586999
H220	H	1.043288	-0.376163	0.826470
H221	H	1.376621	-0.042830	1.159803
H222	H	1.709955	0.290504	1.493136
F223	F	1.237952	-0.534635	0.274597
F224	F	1.571286	-0.201302	0.607931
F225	F	1.904619	0.132031	0.941264
F226	F	1.030641	-0.670366	0.481706
F227	F	1.363974	-0.337033	0.815040
F228	F	1.697307	-0.003700	1.148373
F229	F	1.238012	-0.670340	0.274626
F230	F	1.571345	-0.337006	0.607960
F231	F	1.904679	-0.003673	0.941293
H232	H	1.043331	-0.376113	1.079316
H233	H	1.376664	-0.042779	1.412649
H234	H	1.709998	0.290554	1.745983
F235	F	1.030578	-0.534658	0.481686
F236	F	1.363911	-0.201325	0.815019
F237	F	1.697245	0.132009	1.148352
F238	F	1.238212	-1.071176	0.274725
F239	F	1.571545	-0.737843	0.608059
F240	F	1.904878	-0.404510	0.941392
F241	F	0.845771	-0.386452	0.481593
F242	F	1.179104	-0.053118	0.814926
F243	F	1.512437	0.280215	1.148259
F244	F	0.423700	-0.386465	0.481653
F245	F	0.757033	-0.053131	0.814986
F246	F	1.090366	0.280202	1.148320
F247	F	1.030700	-0.386265	0.667481
F248	F	1.364033	-0.052932	1.000815
F249	F	1.697367	0.280401	1.334148
F250	F	1.238133	-0.935472	0.274678
F251	F	1.571467	-0.602139	0.608011
F252	F	1.904800	-0.268806	0.941345
F253	F	0.592927	-0.220031	0.274750
F254	F	0.926261	0.113302	0.608083
F255	F	1.259594	0.446636	0.941417
H256	H	0.835527	-0.230095	0.287258
H257	H	1.168860	0.103239	0.620592
H258	H	1.502194	0.436572	0.953925
H259	H	1.043384	-1.062985	0.469255
H260	H	1.376717	-0.729652	0.802588
H261	H	1.710050	-0.396319	1.135921
H262	H	1.043324	-0.943716	0.469225
H263	H	1.376657	-0.610383	0.802558
H264	H	1.709990	-0.277049	1.135892
H265	H	1.225547	-0.230140	0.677828
H266	H	1.558880	0.103193	1.011161
H267	H	1.892213	0.436527	1.344495
