data_functionalizedCrystal
_audit_creation_method	'MofGen! by Chris Wilmer'
_symmetry_space_group_name_H-M	'P1'
_symmetry_Int_Tables_number	1
_symmetry_cell_setting	triclinic
loop_
_symmetry_equiv_pos_as_xyz
  x,y,z
_cell_length_a	10.685969
_cell_length_b	8.497374
_cell_length_c	10.686285
_cell_angle_alpha	85.626860
_cell_angle_beta	81.628116
_cell_angle_gamma	94.376340
loop_
_atom_site_label
_atom_site_type_symbol
_atom_site_fract_x
_atom_site_fract_y
_atom_site_fract_z
Zn1	Zn	-1.979181	0.639325	0.654124
Zn2	Zn	-1.995432	0.353659	0.866319
Zn3	Zn	-1.766982	0.397484	0.637852
Zn4	Zn	-1.783214	0.639323	0.850056
O5	O	-1.881202	0.507448	0.752088
O6	O	-2.158957	0.583091	0.695888
O7	O	-1.965136	0.138710	0.836009
O8	O	-1.781537	0.447906	0.462398
O9	O	-2.170896	0.373214	0.851787
O10	O	-1.937438	0.625586	0.474353
O11	O	-1.797295	0.170908	0.668155
O12	O	-1.591515	0.447904	0.652385
O13	O	-1.809201	0.860086	0.824069
O14	O	-1.603441	0.625582	0.808291
O15	O	-1.953177	0.860088	0.680119
O16	O	-1.980875	0.373211	1.041774
O17	O	-1.824959	0.583087	1.029826
C18	C	-1.551423	0.541499	0.726808
C19	C	-1.410345	0.556101	0.716024
C20	C	-1.212268	0.473248	0.777455
C21	C	-1.353346	0.458631	0.788233
C22	C	-1.881193	0.918929	0.752089
C23	C	-1.881197	1.097571	0.752103
C24	C	-1.906476	0.473424	1.081855
C25	C	-1.917404	0.458910	1.222940
C26	C	-1.855864	0.541635	0.421035
C27	C	-1.845067	0.556204	0.279961
H28	H	-1.412485	0.364010	0.858318
O29	O	-1.761038	0.668686	1.209490
C30	C	-1.637040	0.643874	1.232239
H31	H	-1.633510	0.514770	1.268312
H32	H	-1.567651	0.672753	1.140246
H33	H	-1.609688	0.724031	1.306552
O34	O	-2.001126	0.346083	1.293415
C35	C	-1.971075	0.194938	1.259062
H36	H	-1.866898	0.201016	1.214844
H37	H	-1.988738	0.107024	1.347167
H38	H	-2.033288	0.154554	1.187400
H39	H	-1.351214	0.650729	0.645955
