data_functionalizedCrystal
_audit_creation_method	'MofGen! by Chris Wilmer'
_symmetry_space_group_name_H-M	'P1'
_symmetry_Int_Tables_number	1
_symmetry_cell_setting	triclinic
loop_
_symmetry_equiv_pos_as_xyz
  x,y,z
_cell_length_a	10.654554
_cell_length_b	12.837942
_cell_length_c	9.130313
_cell_angle_alpha	89.998975
_cell_angle_beta	89.999615
_cell_angle_gamma	89.657842
loop_
_atom_site_label
_atom_site_type_symbol
_atom_site_fract_x
_atom_site_fract_y
_atom_site_fract_z
O1	O	1.683735	0.145741	-0.121804
O2	O	1.319771	0.159619	-0.121806
O3	O	1.493682	0.001719	-0.121796
O4	O	1.509823	0.303641	-0.121814
O5	O	1.493681	0.001723	0.121803
O6	O	1.319769	0.159624	0.121793
O7	O	1.683733	0.145745	0.121795
Cu8	Cu	1.501751	0.152685	0.144037
Cu9	Cu	1.501753	0.152680	-0.144047
O10	O	1.509822	0.303645	0.121785
C11	C	1.272861	0.158601	-0.000006
C12	C	1.133085	0.155550	-0.000007
C13	C	1.488229	-0.036939	0.000003
C14	C	1.471966	-0.152133	0.000000
C15	C	0.932409	0.245655	-0.000015
C16	C	1.063744	0.248523	-0.000016
C17	C	1.071086	0.059702	-0.000012
C18	C	0.939754	0.056835	-0.000023
C19	C	0.928172	0.354670	-0.000011
C20	C	1.059506	0.357538	-0.000011
C21	C	1.667471	-0.391683	-0.000029
C22	C	1.652197	-0.499919	-0.000032
C23	C	1.426145	-0.476842	-0.000018
C24	C	1.441419	-0.368607	-0.000015
C25	C	1.562086	-0.326031	-0.000019
C26	C	1.577359	-0.217793	-0.000006
C27	C	1.351309	-0.194719	-0.000002
C28	C	1.336034	-0.302955	-0.000005
C29	C	1.730643	0.146763	-0.000008
C30	C	1.870419	0.149815	-0.000017
C31	C	1.515275	0.342303	-0.000017
C32	C	1.531538	0.457497	-0.000024
N33	N	1.501758	0.152688	0.346659
N34	N	1.501755	0.152669	-0.346670
C35	C	1.578791	0.082793	0.423316
C36	C	1.578786	0.082781	0.576652
C37	C	1.424713	0.222566	0.576663
C38	C	1.424713	0.222573	0.423329
C39	C	1.667748	0.002092	0.423311
C40	C	1.667743	0.002080	0.576647
H41	H	0.889286	-0.021207	-0.000042
H42	H	1.361975	0.279477	0.360917
Cl43	Cl	1.819161	-0.338155	0.000003
Cl44	Cl	1.274463	-0.530385	-0.000057
Cl45	Cl	1.112026	0.423355	0.157379
Cl46	Cl	1.784687	-0.582450	-0.000049
Cl47	Cl	1.184348	-0.356489	-0.000013
Cl48	Cl	1.729052	-0.164271	-0.000001
Cl49	Cl	1.218817	-0.112178	0.000030
H50	H	1.361984	0.279464	0.639104
H51	H	1.637603	-0.077654	0.381695
Cl52	Cl	1.607928	-0.114261	0.650076
H53	H	1.766194	0.019858	0.618263
Cl54	Cl	0.870633	0.418089	-0.157401
Cl55	Cl	0.863228	0.405526	0.162364
Cl56	Cl	1.120383	0.411135	-0.162400
Cl57	Cl	1.812777	0.041120	0.349870
H58	H	1.127554	-0.015999	-0.000020
