data_functionalizedCrystal
_audit_creation_method	'MofGen! by Chris Wilmer'
_symmetry_space_group_name_H-M	'P1'
_symmetry_Int_Tables_number	1
_symmetry_cell_setting	triclinic
loop_
_symmetry_equiv_pos_as_xyz
  x,y,z
_cell_length_a	6.817900
_cell_length_b	17.982959
_cell_length_c	17.078481
_cell_angle_alpha	96.484289
_cell_angle_beta	99.306161
_cell_angle_gamma	102.451857
loop_
_atom_site_label
_atom_site_type_symbol
_atom_site_fract_x
_atom_site_fract_y
_atom_site_fract_z
V1	V	-3.974480	-0.105234	-0.247692
O2	O	-3.968302	0.005240	-0.242636
O3	O	-3.921245	-0.208838	-0.246326
O4	O	-3.905609	-0.103535	-0.355570
O5	O	-3.984046	-0.100792	-0.132636
V6	V	-4.461387	-0.092030	-0.233891
O7	O	-4.228316	-0.134200	-0.277967
O8	O	-4.657750	-0.063065	-0.203616
O9	O	-4.291416	0.011574	-0.235257
O10	O	-4.584963	-0.202504	-0.238947
O11	O	-4.569219	-0.096473	-0.348947
O12	O	-4.307052	-0.093729	-0.126013
C13	C	-3.765732	-0.234097	-0.242503
C14	C	-3.803356	-0.318794	-0.242105
C15	C	-4.002196	-0.362462	-0.245888
C16	C	-4.037538	-0.442045	-0.245519
C17	C	-3.874035	-0.477956	-0.241361
C18	C	-3.675180	-0.434282	-0.237581
C19	C	-3.639843	-0.354702	-0.237956
C20	C	-3.817687	-0.755219	-0.236070
C21	C	-3.853040	-0.834804	-0.235693
C22	C	-4.215382	-0.842561	-0.243633
C23	C	-4.180045	-0.762981	-0.244007
C24	C	-3.981196	-0.719315	-0.240231
C25	C	-3.942877	-0.633023	-0.240633
C26	C	-3.912350	-0.564246	-0.240954
C27	C	-3.745786	-0.099772	-0.381854
C28	C	-3.770728	-0.099068	-0.470046
C29	C	-3.963600	-0.102541	-0.515533
C30	C	-3.987024	-0.101879	-0.598399
C31	C	-3.817575	-0.097751	-0.635778
C32	C	-3.624686	-0.094275	-0.590285
C33	C	-3.601263	-0.094931	-0.507419
C34	C	-3.868202	-0.095376	-0.883173
C35	C	-3.891643	-0.094722	-0.966045
C36	C	-4.253979	-0.102325	-0.974154
C37	C	-4.230540	-0.102985	-0.891287
C38	C	-4.037652	-0.099506	-0.845801
N39	N	-3.841515	-0.097077	-0.720480
N40	N	-4.013713	-0.100174	-0.761099
C41	C	-4.110271	0.036829	-0.239078
C42	C	-4.051884	0.121525	-0.239481
C43	C	-4.130218	-0.097495	-0.099725
C44	C	-4.084515	-0.098195	-0.011532
H45	H	-4.313188	-0.733746	-0.247389
H46	H	-3.444198	-0.092085	-0.470381
H47	H	-4.101591	-0.105908	-0.485106
C48	C	-4.199195	-0.105702	-0.648430
C49	C	-4.312457	-0.042474	-0.629373
C50	C	-4.524639	-0.046295	-0.679400
C51	C	-4.623560	-0.113345	-0.748485
C52	C	-4.510298	-0.176577	-0.767545
C53	C	-4.298115	-0.172756	-0.717517
H54	H	-4.239230	0.007164	-0.578229
H55	H	-4.608483	0.000514	-0.665290
H56	H	-4.780630	-0.116173	-0.785518
H57	H	-4.583524	-0.226215	-0.818688
H58	H	-4.214272	-0.219565	-0.731627
C59	C	-3.656028	-0.091550	-0.833150
C60	C	-3.557098	-0.024492	-0.764076
C61	C	-3.344908	-0.020664	-0.714051
C62	C	-3.231649	-0.083895	-0.733099
C63	C	-3.330579	-0.150958	-0.802176
C64	C	-3.542768	-0.154786	-0.852202
H65	H	-3.640939	0.022320	-0.749973
H66	H	-3.271675	0.028981	-0.662915
H67	H	-3.074574	-0.081061	-0.696067
H68	H	-3.246737	-0.197770	-0.816280
H69	H	-3.616002	-0.204431	-0.903338
H70	H	-4.135341	-0.333228	-0.249266
H71	H	-4.377299	-0.878124	-0.246709
H72	H	-4.199450	-0.477597	-0.248600
H73	H	-3.719887	-0.864041	-0.232312
H74	H	-3.655776	-0.719674	-0.232990
H75	H	-4.368527	-0.106346	-0.860859
H76	H	-3.542058	-0.463528	-0.234201
H77	H	-3.477931	-0.319149	-0.234879
H78	H	-4.411021	-0.105156	-1.011198
H79	H	-3.753645	-0.091357	-0.996476
H80	H	-3.486718	-0.090909	-0.620724
