data_functionalizedCrystal
_audit_creation_method	'MofGen! by Chris Wilmer'
_symmetry_space_group_name_H-M	'P1'
_symmetry_Int_Tables_number	1
_symmetry_cell_setting	triclinic
loop_
_symmetry_equiv_pos_as_xyz
  x,y,z
_cell_length_a	14.519731
_cell_length_b	9.065215
_cell_length_c	7.540329
_cell_angle_alpha	89.997574
_cell_angle_beta	89.995423
_cell_angle_gamma	84.351775
loop_
_atom_site_label
_atom_site_type_symbol
_atom_site_fract_x
_atom_site_fract_y
_atom_site_fract_z
O1	O	0.135211	1.957883	-0.147467
O2	O	0.468545	2.291217	0.185867
O3	O	0.801878	2.624550	0.519200
O4	O	0.146306	1.528392	-0.147475
O5	O	0.479639	1.861725	0.185858
O6	O	0.812973	2.195058	0.519192
O7	O	0.006605	1.754508	-0.147454
O8	O	0.339938	2.087842	0.185879
O9	O	0.673271	2.421175	0.519212
O10	O	0.274913	1.731766	-0.147487
O11	O	0.608246	2.065100	0.185846
O12	O	0.941579	2.398433	0.519180
O13	O	0.006603	1.754495	0.147511
O14	O	0.339936	2.087828	0.480844
O15	O	0.673269	2.421162	0.814177
O16	O	0.146304	1.528378	0.147490
O17	O	0.479637	1.861711	0.480823
O18	O	0.812971	2.195045	0.814157
O19	O	0.135209	1.957870	0.147498
O20	O	0.468543	2.291203	0.480832
O21	O	0.801876	2.624537	0.814165
Cu22	Cu	0.140757	1.743123	0.174427
Cu23	Cu	0.474090	2.076456	0.507760
Cu24	Cu	0.807423	2.409789	0.841094
Cu25	Cu	0.140759	1.743139	-0.174403
Cu26	Cu	0.474092	2.076472	0.158930
Cu27	Cu	0.807425	2.409805	0.492263
O28	O	0.274911	1.731753	0.147478
O29	O	0.608244	2.065086	0.480811
O30	O	0.941577	2.398420	0.814145
C31	C	0.145239	1.473418	0.000007
C32	C	0.478573	1.806751	0.333340
C33	C	0.811906	2.140085	0.666673
C34	C	0.142053	1.309634	0.000004
C35	C	0.475386	1.642967	0.333337
C36	C	0.808720	1.976301	0.666671
C37	C	-0.027764	1.753436	0.000028
C38	C	0.305570	2.086769	0.333362
C39	C	0.638903	2.420103	0.666695
C40	C	-0.130167	1.750243	0.000029
C41	C	0.203166	2.083576	0.333363
C42	C	0.536500	2.416910	0.666696
C43	C	-0.213330	1.747648	0.000025
C44	C	0.120003	2.080982	0.333359
C45	C	0.453336	2.414315	0.666692
C46	C	-0.317663	1.744406	0.000012
C47	C	0.015671	2.077740	0.333345
C48	C	0.349004	2.411073	0.666678
C49	C	-0.400821	1.741833	0.000000
C50	C	-0.067487	2.075167	0.333334
C51	C	0.265846	2.408500	0.666667
C52	C	-0.505160	1.738592	-0.000010
C53	C	-0.171826	2.071925	0.333323
C54	C	0.161507	2.405258	0.666657
C55	C	0.309279	1.732825	-0.000009
C56	C	0.642612	2.066159	0.333324
C57	C	0.975946	2.399492	0.666658
C58	C	0.411682	1.736018	-0.000022
C59	C	0.745016	2.069352	0.333312
C60	C	1.078349	2.402685	0.666645
C61	C	0.136276	2.012844	0.000013
C62	C	0.469609	2.346177	0.333346
C63	C	0.802943	2.679510	0.666680
C64	C	0.139462	2.176627	0.000004
C65	C	0.472796	2.509961	0.333337
C66	C	0.806129	2.843294	0.666671
N67	N	0.140755	1.743122	0.419775
N68	N	0.474088	2.076456	0.753109
N69	N	0.807421	2.409789	1.086442
N70	N	0.140754	1.743151	-0.419752
N71	N	0.474087	2.076484	-0.086419
N72	N	0.807420	2.409817	0.246915
