data_functionalizedCrystal
_audit_creation_method	'MofGen! by Chris Wilmer'
_symmetry_space_group_name_H-M	'P1'
_symmetry_Int_Tables_number	1
_symmetry_cell_setting	triclinic
loop_
_symmetry_equiv_pos_as_xyz
  x,y,z
_cell_length_a	19.805407
_cell_length_b	29.839131
_cell_length_c	19.805399
_cell_angle_alpha	89.962782
_cell_angle_beta	89.975799
_cell_angle_gamma	90.034474
loop_
_atom_site_label
_atom_site_type_symbol
_atom_site_fract_x
_atom_site_fract_y
_atom_site_fract_z
Zn1	Zn	1.034694	-0.178873	-0.382758
Zn2	Zn	1.368028	0.154461	-0.049425
Zn3	Zn	1.701361	0.487794	0.283909
Zn4	Zn	1.034592	-0.254000	-0.269551
Zn5	Zn	1.367925	0.079333	0.063783
Zn6	Zn	1.701258	0.412666	0.397116
Zn7	Zn	0.921509	-0.178884	-0.269573
Zn8	Zn	1.254842	0.154449	0.063760
Zn9	Zn	1.588176	0.487783	0.397093
Zn10	Zn	0.921455	-0.253975	-0.382688
Zn11	Zn	1.254788	0.079358	-0.049355
Zn12	Zn	1.588122	0.412691	0.283978
O13	O	0.978062	-0.216433	-0.326142
O14	O	1.311396	0.116900	0.007191
O15	O	1.644729	0.450233	0.340524
O16	O	1.129397	-0.188844	-0.367760
O17	O	1.462731	0.144489	-0.034427
O18	O	1.796064	0.477822	0.298906
O19	O	1.019571	-0.244051	-0.174837
O20	O	1.352904	0.089282	0.158496
O21	O	1.686237	0.422615	0.491830
O22	O	0.936589	-0.116016	-0.284626
O23	O	1.269922	0.217318	0.048707
O24	O	1.603255	0.550651	0.382041
O25	O	1.129322	-0.244040	-0.284587
O26	O	1.462655	0.089293	0.048746
O27	O	1.795988	0.422627	0.382079
O28	O	1.019745	-0.116007	-0.367782
O29	O	1.353079	0.217326	-0.034449
O30	O	1.686412	0.550660	0.298884
O31	O	0.936489	-0.188864	-0.174854
O32	O	1.269822	0.144470	0.158480
O33	O	1.603156	0.477803	0.491813
O34	O	0.826785	-0.188840	-0.284559
O35	O	1.160118	0.144494	0.048775
O36	O	1.493452	0.477827	0.382108
O37	O	0.936497	-0.243998	-0.477414
O38	O	1.269830	0.089336	-0.144081
O39	O	1.603163	0.422669	0.189253
O40	O	0.826746	-0.244009	-0.367664
O41	O	1.160079	0.089325	-0.034330
O42	O	1.493412	0.422658	0.299003
O43	O	1.019693	-0.188820	-0.477465
O44	O	1.353026	0.144513	-0.144132
O45	O	1.686360	0.477847	0.189201
O46	O	1.019518	-0.316864	-0.284520
O47	O	1.352852	0.016469	0.048814
O48	O	1.686185	0.349802	0.382147
O49	O	0.936397	-0.316846	-0.367642
O50	O	1.269731	0.016487	-0.034308
O51	O	1.603064	0.349821	0.299025
C52	C	0.802206	-0.216423	-0.326106
C53	C	1.135540	0.116910	0.007227
C54	C	1.468873	0.450244	0.340560
C55	C	0.726974	-0.216430	-0.326107
C56	C	1.060308	0.116904	0.007226
C57	C	1.393641	0.450237	0.340560
C58	C	0.265180	-0.245214	-0.369391
C59	C	0.598514	0.088120	-0.036057
C60	C	0.931847	0.421453	0.297276
C61	C	0.335869	-0.245213	-0.369376
C62	C	0.669202	0.088120	-0.036043
C63	C	1.002536	0.421454	0.297290
C64	C	0.371213	-0.216444	-0.326169
C65	C	0.704546	0.116889	0.007164
C66	C	1.037879	0.450223	0.340498
C67	C	0.335864	-0.187677	-0.282968
C68	C	0.669198	0.145656	0.050365
C69	C	1.002531	0.478990	0.383698
C70	C	0.265177	-0.187680	-0.282980
C71	C	0.598511	0.145653	0.050354
C72	C	0.931844	0.478986	0.383687
C73	C	0.620938	-0.187663	-0.282921
C74	C	0.954271	0.145670	0.050413
C75	C	1.287604	0.479003	0.383746
C76	C	0.691630	-0.187661	-0.282914
C77	C	1.024963	0.145672	0.050419
C78	C	1.358296	0.479005	0.383753
C79	C	0.691629	-0.245196	-0.369317
C80	C	1.024963	0.088137	-0.035984
C81	C	1.358296	0.421471	0.297349
C82	C	0.620942	-0.245199	-0.369329
C83	C	0.954276	0.088134	-0.035995
C84	C	1.287609	0.421467	0.297338
C85	C	0.585600	-0.216434	-0.326126
C86	C	0.918933	0.116899	0.007208
C87	C	1.252267	0.450232	0.340541
C88	C	0.508952	-0.216436	-0.326141
C89	C	0.842285	0.116897	0.007192
C90	C	1.175618	0.450231	0.340526
C91	C	0.447860	-0.216440	-0.326157
C92	C	0.781193	0.116894	0.007177
C93	C	1.114526	0.450227	0.340510
C94	C	0.977959	-0.333156	-0.326085
C95	C	1.311293	0.000178	0.007248
C96	C	1.644626	0.333511	0.340581
C97	C	0.977977	-0.383090	-0.326084
C98	C	1.311310	-0.049757	0.007250
C99	C	1.644644	0.283576	0.340583
C100	C	1.021353	-0.692694	-0.369504
C101	C	1.354686	-0.359361	-0.036170
C102	C	1.688019	-0.026028	0.297163
C103	C	1.021426	-0.880367	-0.369544
C104	C	1.354760	-0.547034	-0.036211
C105	C	1.688093	-0.213701	0.297122
O106	O	1.058205	-0.904599	-0.406419
O107	O	1.391538	-0.571265	-0.073086
O108	O	1.724871	-0.237932	0.260248
N109	N	0.978177	-0.903875	-0.326218
N110	N	1.311511	-0.570542	0.007116
N111	N	1.644844	-0.237209	0.340449
C112	C	0.934904	-0.880462	-0.282881
C113	C	1.268237	-0.547129	0.050453
C114	C	1.601571	-0.213795	0.383786
O115	O	0.898115	-0.904763	-0.246035
O116	O	1.231448	-0.571430	0.087299
O117	O	1.564782	-0.238096	0.420632
C118	C	0.934828	-0.692790	-0.282844
C119	C	1.268161	-0.359456	0.050489
C120	C	1.601494	-0.026123	0.383823
C121	C	0.978084	-0.669284	-0.326169
C122	C	1.311417	-0.335951	0.007165
C123	C	1.644751	-0.002618	0.340498
C124	C	1.064605	-0.669189	-0.412825
C125	C	1.397938	-0.335855	-0.079492
C126	C	1.731272	-0.002522	0.253841
C127	C	1.064589	-0.622273	-0.412812
C128	C	1.397922	-0.288940	-0.079479
C129	C	1.731256	0.044393	0.253855
C130	C	1.021320	-0.598863	-0.369477
C131	C	1.354654	-0.265530	-0.036144
C132	C	1.687987	0.067803	0.297189
C133	C	0.978068	-0.622369	-0.326156
C134	C	1.311401	-0.289036	0.007178
C135	C	1.644735	0.044298	0.340511
C136	C	0.891551	-0.669377	-0.239511
C137	C	1.224885	-0.336044	0.093822
C138	C	1.558218	-0.002711	0.427156
C139	C	0.891535	-0.622456	-0.239507
C140	C	1.224868	-0.289123	0.093826
C141	C	1.558201	0.044210	0.427160
C142	C	0.934791	-0.598951	-0.282832
C143	C	1.268125	-0.265618	0.050502
C144	C	1.601458	0.067716	0.383835
C145	C	0.934783	-0.552043	-0.282807
C146	C	1.268116	-0.218710	0.050526
C147	C	1.601450	0.114623	0.383859
N148	N	0.978032	-0.528536	-0.326134
N149	N	1.311365	-0.195202	0.007199
N150	N	1.644699	0.138131	0.340533
C151	C	1.021301	-0.551946	-0.369469
C152	C	1.354634	-0.218612	-0.036136
C153	C	1.687967	0.114721	0.297198
C154	C	0.934948	-0.978993	-0.282902
C155	C	1.268281	-0.645659	0.050431
C156	C	1.601615	-0.312326	0.383764
C157	C	0.934968	-1.025910	-0.282910
C158	C	1.268301	-0.692577	0.050423
C159	C	1.601635	-0.359244	0.383756
C160	C	1.021489	-1.025813	-0.369575
C161	C	1.354823	-0.692479	-0.036242
C162	C	1.688156	-0.359146	0.297092
C163	C	1.021472	-0.978894	-0.369563
C164	C	1.354806	-0.645560	-0.036230
C165	C	1.688139	-0.312227	0.297104
C166	C	0.978197	-0.955485	-0.326229
C167	C	1.311530	-0.622151	0.007104
C168	C	1.644864	-0.288818	0.340438
C169	C	1.021264	-0.453420	-0.369438
C170	C	1.354597	-0.120086	-0.036104
C171	C	1.687930	0.213247	0.297229
C172	C	1.021246	-0.406500	-0.369419
C173	C	1.354579	-0.073167	-0.036085
C174	C	1.687912	0.260167	0.297248
C175	C	0.934722	-0.406602	-0.282757
C176	C	1.268055	-0.073269	0.050577
C177	C	1.601389	0.260065	0.383910
C178	C	0.934742	-0.453518	-0.282773
C179	C	1.268075	-0.120184	0.050560
C180	C	1.601409	0.213149	0.383894
C181	C	0.978015	-0.476925	-0.326119
C182	C	1.311349	-0.143592	0.007214
C183	C	1.644682	0.189741	0.340548
O184	O	0.898018	-0.527783	-0.245957
O185	O	1.231352	-0.194450	0.087376
O186	O	1.564685	0.138884	0.420709
O187	O	1.058073	-0.527636	-0.406320
O188	O	1.391407	-0.194303	-0.072987
O189	O	1.724740	0.139030	0.260346
C190	C	1.021369	-0.739610	-0.369517
C191	C	1.354702	-0.406276	-0.036183
C192	C	1.688036	-0.072943	0.297150
C193	C	0.978116	-0.763115	-0.326195
C194	C	1.311450	-0.429782	0.007138
C195	C	1.644783	-0.096449	0.340472
C196	C	0.934848	-0.739705	-0.282860
C197	C	1.268181	-0.406372	0.050473
C198	C	1.601515	-0.073039	0.383806
C199	C	0.978136	-0.810033	-0.326203
C200	C	1.311470	-0.476700	0.007130
C201	C	1.644803	-0.143366	0.340463
C202	C	1.021405	-0.833443	-0.369538
C203	C	1.354738	-0.500110	-0.036205
C204	C	1.688072	-0.166776	0.297128
C205	C	1.064654	-0.809935	-0.412865
C206	C	1.397987	-0.476602	-0.079532
C207	C	1.731320	-0.143268	0.253802
C208	C	1.064638	-0.763020	-0.412852
C209	C	1.397971	-0.429686	-0.079518
C210	C	1.731304	-0.096353	0.253815
C211	C	0.891599	-0.763213	-0.239534
C212	C	1.224932	-0.429880	0.093800
C213	C	1.558266	-0.096546	0.427133
C214	C	0.891619	-0.810129	-0.239550
C215	C	1.224953	-0.476795	0.093784
C216	C	1.558286	-0.143462	0.427117
C217	C	0.934888	-0.833539	-0.282885
C218	C	1.268221	-0.500205	0.050449
C219	C	1.601555	-0.166872	0.383782
C220	C	1.154605	-0.216444	-0.326179
C221	C	1.487938	0.116890	0.007154
C222	C	1.821272	0.450223	0.340488
C223	C	1.229837	-0.216448	-0.326195
C224	C	1.563170	0.116885	0.007139
C225	C	1.896504	0.450219	0.340472
C226	C	0.978100	-0.216405	-0.502685
C227	C	1.311434	0.116928	-0.169352
C228	C	1.644767	0.450262	0.163981
C229	C	0.978117	-0.216393	-0.577917
C230	C	1.311450	0.116941	-0.244584
C231	C	1.644783	0.450274	0.088749
C232	C	0.978184	-0.099255	-0.326215
C233	C	1.311518	0.234079	0.007119
C234	C	1.644851	0.567412	0.340452
C235	C	0.978237	-0.049320	-0.326245
C236	C	1.311570	0.284013	0.007088
C237	C	1.644903	0.617346	0.340421
C238	C	1.021438	-0.187660	-0.613289
C239	C	1.354771	0.145673	-0.279956
C240	C	1.688105	0.479006	0.053377
C241	C	1.021445	-0.187647	-0.683978
C242	C	1.354778	0.145686	-0.350644
C243	C	1.688112	0.479019	-0.017311
C244	C	0.978133	-0.216369	-0.719293
C245	C	1.311467	0.116964	-0.385960
C246	C	1.644800	0.450297	-0.052626
C247	C	0.934807	-0.245103	-0.683916
C248	C	1.268141	0.088230	-0.350583
C249	C	1.601474	0.421564	-0.017249
C250	C	0.934797	-0.245113	-0.613229
C251	C	1.268131	0.088220	-0.279896
C252	C	1.601464	0.421553	0.053438
C253	C	0.934845	-0.245061	-0.968990
C254	C	1.268179	0.088272	-0.635656
C255	C	1.601512	0.421605	-0.302323
C256	C	0.934860	-0.245049	-1.039682
C257	C	1.268193	0.088284	-0.706348
C258	C	1.601527	0.421617	-0.373015
C259	C	1.021493	-0.187595	-1.039738
C260	C	1.354826	0.145738	-0.706405
C261	C	1.688160	0.479072	-0.373072
C262	C	1.021483	-0.187605	-0.969051
C263	C	1.354816	0.145728	-0.635718
C264	C	1.688150	0.479061	-0.302385
C265	C	0.978155	-0.216337	-0.933680
C266	C	1.311488	0.116996	-0.600347
C267	C	1.644821	0.450329	-0.267014
C268	C	0.978147	-0.216350	-0.857032
C269	C	1.311480	0.116983	-0.523699
C270	C	1.644813	0.450316	-0.190365
C271	C	0.978144	-0.216359	-0.795940
C272	C	1.311478	0.116975	-0.462607
C273	C	1.644811	0.450308	-0.129273
C274	C	0.978064	-0.216429	-0.150286
C275	C	1.311397	0.116904	0.183047
C276	C	1.644730	0.450238	0.516380
C277	C	0.978179	-0.216314	-0.075055
C278	C	1.311512	0.117019	0.258278
C279	C	1.644845	0.450352	0.591612
H280	H	0.236409	-0.268639	-0.404579
H281	H	0.569742	0.064695	-0.071246
H282	H	0.903075	0.398028	0.262088
H283	H	0.720413	-0.268619	-0.404493
H284	H	1.053747	0.064714	-0.071160
H285	H	1.387080	0.398048	0.262173
H286	H	0.364642	-0.268638	-0.404549
H287	H	0.697976	0.064695	-0.071216
H288	H	1.031309	0.398029	0.262117
H289	H	0.856327	-0.688508	-0.204231
H290	H	1.189661	-0.355174	0.129102
H291	H	1.522994	-0.021841	0.462435
H292	H	1.056771	-0.164199	-1.068546
H293	H	1.390104	0.169135	-0.735212
H294	H	1.723437	0.502468	-0.401879
C295	C	0.374745	-0.156027	-0.235445
C296	C	0.708078	0.177306	0.097889
C297	C	1.041412	0.510639	0.431222
N298	N	0.404029	-0.132185	-0.199653
N299	N	0.737363	0.201148	0.133680
N300	N	1.070696	0.534481	0.467014
C301	C	0.730506	-0.156014	-0.235376
C302	C	1.063840	0.177319	0.097957
C303	C	1.397173	0.510652	0.431290
N304	N	0.759788	-0.132179	-0.199572
N305	N	1.093122	0.201154	0.133761
N306	N	1.426455	0.534488	0.467094
C307	C	0.582070	-0.156015	-0.235405
C308	C	0.915404	0.177319	0.097928
C309	C	1.248737	0.510652	0.431261
N310	N	0.552793	-0.132173	-0.199618
N311	N	0.886127	0.201160	0.133716
N312	N	1.219460	0.534493	0.467049
H313	H	0.236402	-0.164255	-0.247807
H314	H	0.569735	0.169078	0.085526
H315	H	0.903068	0.502411	0.418860
C316	C	1.112177	-0.596423	-0.460471
C317	C	1.445511	-0.263090	-0.127137
C318	C	1.778844	0.070243	0.206196
N319	N	1.148024	-0.576956	-0.496369
N320	N	1.481357	-0.243623	-0.163036
N321	N	1.814691	0.089710	0.170297
H322	H	1.056473	-0.387363	-0.404699
H323	H	1.389806	-0.054030	-0.071365
H324	H	1.723139	0.279303	0.261968
C325	C	1.068871	-0.479161	-0.417116
C326	C	1.402204	-0.145828	-0.083782
C327	C	1.735537	0.187505	0.249551
N328	N	1.104733	-0.498550	-0.453023
N329	N	1.438066	-0.165216	-0.119690
N330	N	1.771399	0.168117	0.213644
H331	H	1.099840	-0.688244	-0.448118
H332	H	1.433173	-0.354911	-0.114784
H333	H	1.766506	-0.021578	0.218549
C334	C	0.887207	-0.276644	-1.078527
C335	C	1.220541	0.056689	-0.745194
C336	C	1.553874	0.390022	-0.411860
N337	N	0.851316	-0.300440	-1.107786
N338	N	1.184650	0.032893	-0.774452
N339	N	1.517983	0.366227	-0.441119
H340	H	0.899525	-0.472657	-0.247489
H341	H	1.232858	-0.139323	0.085844
H342	H	1.566191	0.194010	0.419177
C343	C	1.069055	-0.953042	-0.417226
C344	C	1.402388	-0.619709	-0.083892
C345	C	1.735721	-0.286376	0.249441
N346	N	1.104895	-0.933573	-0.453129
N347	N	1.438228	-0.600240	-0.119795
N348	N	1.771561	-0.266906	0.213538
H349	H	1.056723	-0.164252	-0.712774
H350	H	1.390056	0.169082	-0.379441
H351	H	1.723390	0.502415	-0.046108
C352	C	1.069082	-1.051572	-0.417248
C353	C	1.402415	-0.718239	-0.083914
C354	C	1.735748	-0.384905	0.249419
N355	N	1.104922	-1.070976	-0.453157
N356	N	1.438255	-0.737643	-0.119823
N357	N	1.771588	-0.404310	0.213510
C358	C	0.887388	-1.051761	-0.235245
C359	C	1.220721	-0.718428	0.098089
C360	C	1.554054	-0.385094	0.431422
N361	N	0.851545	-1.071230	-0.199344
N362	N	1.184879	-0.737897	0.133989
N363	N	1.518212	-0.404564	0.467323
C364	C	0.887331	-0.953248	-0.235235
C365	C	1.220665	-0.619915	0.098098
C366	C	1.553998	-0.286582	0.431432
N367	N	0.851465	-0.933860	-0.199333
N368	N	1.184798	-0.600527	0.134000
N369	N	1.518131	-0.267193	0.467334
C370	C	0.843928	-0.596709	-0.191834
C371	C	1.177261	-0.263376	0.141499
C372	C	1.510594	0.069957	0.474833
N373	N	0.808072	-0.577317	-0.155925
N374	N	1.141405	-0.243984	0.177408
N375	N	1.474738	0.089349	0.510741
H376	H	0.899514	-0.268506	-0.584430
H377	H	1.232847	0.064827	-0.251097
H378	H	1.566181	0.398161	0.082237
C379	C	1.069126	-0.156007	-0.930208
C380	C	1.402460	0.177326	-0.596875
C381	C	1.735793	0.510659	-0.263542
N382	N	1.105009	-0.132205	-0.900953
N383	N	1.438342	0.201128	-0.567620
N384	N	1.771676	0.534462	-0.234286
H385	H	0.592169	-0.268624	-0.404515
H386	H	0.925502	0.064709	-0.071182
H387	H	1.258835	0.398042	0.262152
C388	C	0.887126	-0.380842	-0.235094
C389	C	1.220459	-0.047509	0.098240
C390	C	1.553792	0.285824	0.431573
N391	N	0.851272	-0.361438	-0.199198
N392	N	1.184605	-0.028105	0.134136
N393	N	1.517938	0.305228	0.467469
C394	C	0.887158	-0.276693	-0.722765
C395	C	1.220491	0.056640	-0.389432
C396	C	1.553824	0.389973	-0.056099
N397	N	0.851266	-0.300488	-0.752026
N398	N	1.184600	0.032846	-0.418693
N399	N	1.517933	0.366179	-0.085360
C400	C	0.887181	-0.276666	-0.930091
C401	C	1.220514	0.056668	-0.596758
C402	C	1.553848	0.390001	-0.263424
N403	N	0.851276	-0.300471	-0.900790
N404	N	1.184610	0.032862	-0.567457
N405	N	1.517943	0.366196	-0.234124
C406	C	1.112224	-0.737170	-0.460512
C407	C	1.445558	-0.403836	-0.127179
C408	C	1.778891	-0.070503	0.206155
N409	N	1.148069	-0.717703	-0.496412
N410	N	1.481403	-0.384369	-0.163079
N411	N	1.814736	-0.051036	0.170254
H412	H	1.099887	-0.829004	-0.448147
H413	H	1.433220	-0.495670	-0.114814
H414	H	1.766554	-0.162337	0.218519
H415	H	0.856396	-0.829263	-0.204263
H416	H	1.189729	-0.495929	0.129070
H417	H	1.523062	-0.162596	0.462403
H418	H	0.856364	-0.744156	-0.204246
H419	H	1.189697	-0.410823	0.129088
H420	H	1.523030	-0.077490	0.462421
C421	C	1.069084	-0.156063	-0.574449
C422	C	1.402417	0.177270	-0.241116
C423	C	1.735751	0.510604	0.092218
N424	N	1.104970	-0.132261	-0.545196
N425	N	1.438304	0.201072	-0.211863
N426	N	1.771637	0.534406	0.121470
