data_functionalizedCrystal
_audit_creation_method	'MofGen! by Chris Wilmer'
_symmetry_space_group_name_H-M	'P1'
_symmetry_Int_Tables_number	1
_symmetry_cell_setting	triclinic
loop_
_symmetry_equiv_pos_as_xyz
  x,y,z
_cell_length_a	14.560432
_cell_length_b	16.704503
_cell_length_c	16.704494
_cell_angle_alpha	66.032140
_cell_angle_beta	90.001599
_cell_angle_gamma	62.458403
loop_
_atom_site_label
_atom_site_type_symbol
_atom_site_fract_x
_atom_site_fract_y
_atom_site_fract_z
Zr1	Zr	0.955193	0.814751	-0.043749
O2	O	0.827235	0.960113	-0.155578
O3	O	0.985790	0.661226	-0.017012
O4	O	1.006394	0.802976	-0.166453
O5	O	0.800195	0.830498	0.120326
O6	O	1.157534	0.802975	-0.166450
O7	O	0.806631	0.818363	-0.006137
O8	O	1.120677	0.549409	0.100873
O9	O	0.837051	1.084063	-0.146996
O10	O	1.122060	0.727396	0.003508
O11	O	1.004462	0.736453	0.097884
O12	O	1.028720	0.903346	-0.078064
O13	O	0.911123	0.912403	0.016312
Zr14	Zr	1.185980	0.834103	0.157950
Zr15	Zr	1.196245	0.814749	-0.043744
Zr16	Zr	0.944929	0.834105	0.157945
Zr17	Zr	0.970850	1.012438	-0.030063
Zr18	Zr	1.170324	0.636416	0.144263
O19	O	1.155384	0.987628	0.131212
O20	O	1.169979	0.960109	-0.155571
O21	O	0.812640	0.987632	0.131205
O22	O	1.313939	0.688741	0.269778
O23	O	1.328534	0.661222	-0.017005
O24	O	0.971195	0.688745	0.269771
O25	O	1.340979	0.818356	-0.006126
O26	O	1.134780	0.845877	0.280653
O27	O	0.983640	0.845879	0.280650
O28	O	1.334543	0.830491	0.120337
O29	O	1.028655	1.084061	-0.146992
O30	O	1.112518	0.564793	0.261193
O31	O	1.304122	0.564791	0.261196
O32	O	1.312281	0.549407	0.100877
O33	O	0.828892	1.099447	0.013324
O34	O	1.020496	1.099445	0.013328
O35	O	1.112453	0.745508	0.192264
O36	O	1.230051	0.736450	0.097888
O37	O	1.136712	0.912401	0.016317
O38	O	1.019114	0.921458	0.110692
C39	C	1.051003	0.577152	0.039980
C40	C	1.044356	0.493229	0.034170
C41	C	0.769068	0.824430	0.057094
C42	C	0.666735	0.824432	0.057092
C43	C	1.180490	0.212312	0.153164
C44	C	1.174247	0.133456	0.147708
C45	C	1.025623	0.256660	0.017806
C46	C	1.031866	0.335516	0.023262
C47	C	1.109303	0.313336	0.090943
C48	C	1.115550	0.392194	0.096394
C49	C	0.966922	0.515396	-0.033503
C50	C	0.960680	0.436540	-0.038959
C51	C	0.673804	0.811073	-0.082259
C52	C	0.629261	0.804397	-0.151933
C53	C	0.533111	0.804397	-0.151930
C54	C	0.481503	0.811071	-0.082244
C55	C	0.526046	0.817746	-0.012569
C56	C	0.622196	0.817749	-0.012581
C57	C	0.518981	0.831098	0.126783
C58	C	0.615127	0.831105	0.126778
C59	C	0.467373	0.837771	0.196470
C60	C	0.511912	0.844454	0.266143
C61	C	0.608067	0.844455	0.266136
C62	C	0.659670	0.837781	0.196453
C63	C	1.372106	0.824423	0.057106
C64	C	1.474439	0.824422	0.057109
C65	C	1.083426	0.800218	-0.195188
C66	C	1.087784	0.792002	-0.280813
C67	C	1.090171	1.071702	0.074220
C68	C	1.096818	1.155625	0.080030
C69	C	0.998535	0.960271	-0.526880
C70	C	1.002627	0.952556	-0.607334
C71	C	1.100066	0.768857	-0.522177
C72	C	1.095974	0.776572	-0.441723
C73	C	1.045205	0.872282	-0.444079
C74	C	1.041107	0.879997	-0.363623
C75	C	1.138553	0.696299	-0.278468
C76	C	1.142645	0.688584	-0.358922
C77	C	1.057747	0.848636	0.309389
C78	C	1.053390	0.856852	0.395013
C79	C	1.352522	0.577148	0.039986
C80	C	1.448208	0.493224	0.034178
C81	C	1.038163	0.601361	0.292269
C82	C	1.027159	0.525654	0.372083
C83	C	1.339682	0.601357	0.292275
C84	C	1.431011	0.525649	0.372091
C85	C	0.801492	1.047497	-0.178075
C86	C	0.710163	1.123205	-0.257891
C87	C	0.788652	1.071706	0.074214
C88	C	0.692966	1.155630	0.080022
C89	C	1.103010	1.047493	-0.178068
C90	C	1.114015	1.123200	-0.257883
C91	C	1.436773	0.449085	-0.017823
C92	C	1.526673	0.370238	-0.023299
C93	C	1.628006	0.335527	0.023233
C94	C	1.639439	0.379674	0.075237
C95	C	1.549541	0.458524	0.080706
C96	C	1.078361	0.494829	0.458838
C97	C	1.068018	0.423706	0.533841
C98	C	1.006478	0.383404	0.522085
C99	C	0.955269	0.414236	0.435321
C100	C	0.965607	0.485363	0.360321
C101	C	1.535294	0.485368	0.360311
C102	C	1.621118	0.414243	0.435299
C103	C	1.602654	0.383394	0.522068
C104	C	1.498360	0.423683	0.533847
C105	C	1.412540	0.494813	0.458859
C106	C	0.605880	1.163495	-0.246110
C107	C	0.520059	1.234645	-0.321097
C108	C	0.538522	1.265498	-0.407865
C109	C	0.642816	1.225204	-0.419644
C110	C	0.728636	1.154061	-0.344658
C111	C	0.704402	1.199776	0.132016
C112	C	0.614505	1.278643	0.137471
C113	C	0.513172	1.313356	0.090936
C114	C	0.501739	1.269206	0.038936
C115	C	0.591635	1.190346	0.033477
C116	C	1.175563	1.163479	-0.246099
C117	C	1.185923	1.234604	-0.321085
C118	C	1.134729	1.265454	-0.407855
C119	C	1.073178	1.225166	-0.419638
C120	C	1.062825	1.154038	-0.344652
H121	H	1.243547	0.194251	0.208268
C122	C	0.390269	1.307391	-0.012239
H123	H	0.338375	1.360671	-0.001527
H124	H	0.387548	1.331939	-0.074927
H125	H	0.376107	1.253117	0.008183
C126	C	0.686027	0.797062	-0.228585
H127	H	0.749665	0.798028	-0.218617
H128	H	0.702893	0.735564	-0.229983
H129	H	0.640543	0.853086	-0.284448
C130	C	0.815859	1.161606	0.183204
H131	H	0.867770	1.108311	0.172518
H132	H	0.830012	1.215881	0.162788
H133	H	0.818556	1.137064	0.245892
H134	H	1.031499	1.250295	-0.490296
H135	H	0.962569	0.274702	-0.037288
H136	H	0.439981	1.377569	0.095389
C137	C	0.627099	1.327185	0.194681
H138	H	0.700324	1.295199	0.221624
H139	H	0.600115	1.397550	0.157323
H140	H	0.588640	1.318731	0.240409
H141	H	1.012702	1.121250	-0.354259
C142	C	0.579041	1.141781	-0.023707
H143	H	0.505813	1.173747	-0.050627
H144	H	0.617492	1.150218	-0.069437
H145	H	0.606029	1.071414	0.013674
H146	H	1.701198	0.271321	0.018772
C147	C	1.231887	1.129555	-0.150662
H148	H	1.270033	1.163730	-0.154397
H149	H	1.180395	1.145689	-0.116331
H150	H	1.280008	1.058311	-0.122386
C151	C	1.562130	0.507058	0.137923
H152	H	1.635357	0.475080	0.164856
H153	H	1.535134	0.577427	0.100571
H154	H	1.523683	0.498588	0.183657
C155	C	1.253615	1.278919	-0.308108
H156	H	1.282601	1.250370	-0.245689
H157	H	1.309815	1.263178	-0.338323
H158	H	1.210176	1.350556	-0.332292
C159	C	0.887593	0.369887	0.422400
H160	H	0.888789	0.323103	0.479497
H161	H	0.816311	0.423271	0.392890
H162	H	0.915952	0.335900	0.386854
C163	C	0.484112	0.797056	-0.228570
H164	H	0.528611	0.793087	-0.270076
H165	H	0.477917	0.738024	-0.204229
H166	H	0.415578	0.855545	-0.258700
C167	C	1.735827	0.369927	0.422326
H168	H	1.734522	0.398477	0.359908
H169	H	1.775326	0.385669	0.452543
H170	H	1.768394	0.298291	0.446510
H171	H	0.908959	0.597663	-0.084170
C172	C	1.146116	1.343702	-0.490330
H173	H	1.190098	1.363276	-0.470876
H174	H	1.177446	1.314375	-0.528522
H175	H	1.077824	1.401745	-0.522464
C176	C	0.875503	0.460933	-0.113402
H177	H	0.833997	0.532396	-0.149674
H178	H	0.909249	0.429702	-0.149742
H179	H	0.830699	0.435764	-0.086711
C180	C	0.657053	0.851805	0.342777
H181	H	0.612540	0.855787	0.384271
H182	H	0.725588	0.793331	0.372908
H183	H	0.663231	0.910852	0.318429
H184	H	1.109723	0.398611	0.604481
H185	H	0.923914	0.510451	0.289683
H186	H	1.178605	0.374130	0.151502
H187	H	1.354272	0.477344	-0.055727
C188	C	1.252555	0.022332	0.216149
H189	H	1.299569	0.020421	0.257232
H190	H	1.213937	-0.007965	0.248234
H191	H	1.292487	-0.014017	0.185203
H192	H	0.403220	0.811058	-0.082240
H193	H	0.752088	0.811084	-0.082274
H194	H	1.721956	0.351401	0.113120
H195	H	0.389086	0.837765	0.196472
C196	C	0.843341	1.109707	-0.357626
H197	H	0.891817	1.062912	-0.300545
H198	H	0.850990	1.075753	-0.393189
H199	H	0.857986	1.163094	-0.387137
C200	C	0.585556	1.129572	-0.150672
H201	H	0.651595	1.081424	-0.107691
H202	H	0.549736	1.186859	-0.139697
H203	H	0.542802	1.099490	-0.145748
C204	C	0.455143	0.851796	0.342786
H205	H	0.391500	0.850841	0.332808
H206	H	0.500619	0.795787	0.398652
H207	H	0.438265	0.913308	0.344169
C208	C	1.514082	0.321679	-0.080494
H209	H	1.582131	0.269754	-0.077101
H210	H	1.470461	0.293252	-0.058285
H211	H	1.481900	0.372080	-0.141390
C212	C	1.146042	0.539162	0.471788
H213	H	1.175036	0.510620	0.534204
H214	H	1.202236	0.523427	0.441566
H215	H	1.102592	0.610797	0.447601
H216	H	0.737957	0.837786	0.196439
H217	H	0.957185	1.038202	-0.528800
C218	C	0.985274	0.985272	-0.366213
H219	H	0.958077	1.036568	-0.427052
H220	H	0.928380	0.992114	-0.336602
H221	H	1.034936	0.992087	-0.336595
H222	H	1.550348	0.510473	0.289666
C223	C	1.697063	0.305145	0.604545
H224	H	1.761812	0.285569	0.585094
H225	H	1.697279	0.334471	0.642738
H226	H	1.690353	0.247103	0.636678
C227	C	1.155910	0.663588	-0.519600
H228	H	1.151658	0.671600	-0.579376
H229	H	1.228527	0.627109	-0.488916
H230	H	1.121979	0.627118	-0.488929
C231	C	0.951283	1.049343	-0.698413
H232	H	0.920455	1.107445	-0.688289
H233	H	1.004119	1.050151	-0.731569
H234	H	0.897576	1.050152	-0.731566
H235	H	1.183983	0.610660	-0.357016
H236	H	1.176549	0.624652	-0.211039
C237	C	1.478064	0.389734	0.629293
H238	H	1.544116	0.341593	0.672258
H239	H	1.442237	0.447006	0.640288
H240	H	1.435330	0.359631	0.634222
C241	C	0.405346	1.278953	-0.308129
H242	H	0.356872	1.325753	-0.365210
H243	H	0.390734	1.225547	-0.278625
H244	H	0.397662	1.312912	-0.272559
C245	C	0.995115	0.305163	0.604587
H246	H	0.951126	0.285575	0.585168
H247	H	1.063409	0.247138	0.636724
H248	H	0.963783	0.334518	0.642765
H249	H	1.327629	0.527601	0.468464
C250	C	0.444113	1.343739	-0.490343
H251	H	0.379363	1.363301	-0.470892
H252	H	0.450812	1.401780	-0.522490
H253	H	0.443906	1.314390	-0.528522
C254	C	0.663111	1.259140	-0.515092
H255	H	0.597058	1.307270	-0.558057
H256	H	0.705859	1.289226	-0.520036
H257	H	0.698922	1.201851	-0.526073
