data_functionalizedCrystal
_audit_creation_method	'MofGen! by Chris Wilmer'
_symmetry_space_group_name_H-M	'P1'
_symmetry_Int_Tables_number	1
_symmetry_cell_setting	triclinic
loop_
_symmetry_equiv_pos_as_xyz
  x,y,z
_cell_length_a	10.654541
_cell_length_b	11.804783
_cell_length_c	10.654545
_cell_angle_alpha	103.189678
_cell_angle_beta	95.515322
_cell_angle_gamma	76.822757
loop_
_atom_site_label
_atom_site_type_symbol
_atom_site_fract_x
_atom_site_fract_y
_atom_site_fract_z
O1	O	1.645034	0.098978	-0.153550
O2	O	1.279553	0.098987	-0.170357
O3	O	1.470696	0.098981	0.020786
O4	O	1.453891	0.098984	-0.344693
O5	O	1.516320	-0.099060	-0.024897
O6	O	1.325177	-0.099054	-0.216040
O7	O	1.690658	-0.099064	-0.199233
Cu8	Cu	1.512083	-0.117142	-0.211807
Cu9	Cu	1.458128	0.117065	-0.157782
O10	O	1.499515	-0.099058	-0.390375
C11	C	1.255567	-0.000032	-0.191964
C12	C	1.116122	-0.000028	-0.188273
N13	N	1.550042	-0.281871	-0.249805
C14	C	1.088149	-0.000012	-0.416834
C15	C	1.008652	0.000001	-0.529374
C16	C	0.877634	0.000002	-0.525898
C17	C	0.826111	-0.000013	-0.409870
C18	C	0.905608	-0.000026	-0.297330
C19	C	1.036627	-0.000024	-0.300818
C20	C	0.933583	-0.000051	-0.068774
C21	C	1.064600	-0.000044	-0.072245
C22	C	0.882061	-0.000066	0.047253
C23	C	0.961556	-0.000071	0.159798
C24	C	1.092582	-0.000071	0.156318
C25	C	1.144097	-0.000057	0.040295
C26	C	1.328982	-0.655888	-0.028518
C27	C	1.300242	-0.531235	0.000235
C28	C	1.362689	-0.468888	-0.062273
C29	C	1.453882	-0.531206	-0.153538
C30	C	1.482632	-0.655871	-0.182287
C31	C	1.516339	-0.468871	-0.216042
C32	C	1.607532	-0.531189	-0.307307
C33	C	1.636277	-0.655842	-0.336051
C34	C	1.573829	-0.718189	-0.273543
C35	C	1.487589	-0.344206	-0.187293
C36	C	1.641239	-0.344189	-0.341062
C37	C	1.669979	-0.468842	-0.369815
C38	C	1.714644	-0.000042	-0.177625
C39	C	1.854087	-0.000038	-0.181314
C40	C	1.492273	-0.000037	0.044743
C41	C	1.488579	-0.000030	0.184188
N42	N	1.420179	0.281794	-0.119775
C43	C	1.477937	-0.000037	-0.414332
C44	C	1.481630	-0.000036	-0.553775
C45	C	1.438854	0.215881	0.234001
C46	C	1.412261	0.323836	0.324417
C47	C	1.408792	0.323838	0.455436
C48	C	1.431914	0.215872	0.496039
C49	C	1.458506	0.107917	0.405622
C50	C	1.461977	0.107928	0.274604
C51	C	1.508222	-0.107991	0.355809
C52	C	1.511701	-0.107995	0.224790
C53	C	1.531344	-0.215957	0.396411
C54	C	1.557947	-0.323914	0.305995
C55	C	1.561417	-0.323911	0.174970
C56	C	1.538294	-0.215951	0.134374
H57	H	1.194823	0.000013	-0.419669
H58	H	1.250774	-0.000042	0.037453
H59	H	0.919595	-0.000082	0.254259
H60	H	1.050617	0.000010	-0.623842
H61	H	0.775380	-0.000072	0.050074
H62	H	1.278156	-0.706662	0.022374
H63	H	1.744230	-0.519598	-0.444125
H64	H	1.157303	-0.000086	0.247961
H65	H	1.413339	-0.293479	-0.112986
H66	H	1.528511	-0.215948	0.503095
H67	H	1.393434	0.411739	0.291343
H68	H	0.812908	0.000004	-0.617540
H69	H	1.429071	0.215883	0.602722
H70	H	1.710543	-0.706577	-0.410354
H71	H	1.692091	-0.293426	-0.391960
H72	H	1.441691	0.215891	0.127322
H73	H	1.339283	-0.367390	-0.038857
H74	H	0.719431	-0.000027	-0.407054
H75	H	1.387126	0.411744	0.529054
H76	H	1.597220	-0.819691	-0.296955
H77	H	1.541123	-0.215938	0.027695
H78	H	1.576762	-0.411811	0.339065
H79	H	1.225997	-0.480505	0.074546
H80	H	1.583052	-0.411822	0.101355
