data_functionalizedCrystal
_audit_creation_method	'MofGen! by Chris Wilmer'
_symmetry_space_group_name_H-M	'P1'
_symmetry_Int_Tables_number	1
_symmetry_cell_setting	triclinic
loop_
_symmetry_equiv_pos_as_xyz
  x,y,z
_cell_length_a	6.394984
_cell_length_b	10.654550
_cell_length_c	9.730223
_cell_angle_alpha	90.000043
_cell_angle_beta	89.997126
_cell_angle_gamma	94.509859
loop_
_atom_site_label
_atom_site_type_symbol
_atom_site_fract_x
_atom_site_fract_y
_atom_site_fract_z
O1	O	0.293442	-1.670943	-0.114182
O2	O	0.321399	-1.305761	-0.114207
O3	O	0.003431	-1.493539	-0.114190
O4	O	0.611411	-1.483165	-0.114199
O5	O	0.003422	-1.493527	0.114390
O6	O	0.321391	-1.305748	0.114373
O7	O	0.293433	-1.670931	0.114398
Zn8	Zn	0.307411	-1.488337	0.150677
Zn9	Zn	0.307422	-1.488354	-0.150487
O10	O	0.611402	-1.483152	0.114381
C11	C	0.319342	-1.258935	0.000080
C12	C	0.313201	-1.119426	0.000070
N13	N	0.307402	-1.488335	0.356214
C14	C	0.925578	-1.491470	0.000104
C15	C	0.689250	-1.485218	0.000101
C16	C	0.295491	-1.717757	0.000108
C17	C	0.301632	-1.857265	0.000108
N18	N	0.307415	-1.488366	-0.356023
C19	C	0.500415	-1.041921	0.000071
C20	C	0.494632	-0.910839	0.000095
C21	C	0.114403	-0.934780	0.000111
C22	C	0.120188	-1.065860	0.000097
C23	C	0.166665	-1.571513	0.428147
C24	C	0.166666	-1.571526	0.572030
C25	C	0.448158	-1.405179	0.572034
C26	C	0.448145	-1.405161	0.428153
H27	H	0.657578	-1.085531	0.000060
C28	C	-0.117253	-1.594327	0.733836
C29	C	0.011964	-1.662960	0.651098
H30	H	-0.212772	-1.650778	0.782640
H31	H	-0.033435	-1.544813	0.797271
H32	H	-0.193213	-1.540857	0.677701
H33	H	0.087936	-1.716423	0.707233
H34	H	-0.071864	-1.712495	0.587655
H35	H	0.562752	-1.337461	0.630621
H36	H	0.052060	-1.639237	0.369577
H37	H	0.562751	-1.337421	0.369581
C38	C	-0.211468	-0.914829	0.117630
C39	C	-0.097750	-0.875895	0.000125
H40	H	-0.342439	-0.878471	0.117636
H41	H	-0.234810	-1.003977	0.117615
H42	H	-0.134286	-0.888424	0.197332
H43	H	-0.174926	-0.902309	-0.079577
H44	H	-0.074415	-0.786728	0.000128
C45	C	-0.202125	-1.126630	-0.117409
C46	C	-0.085613	-1.151066	0.000090
H47	H	-0.329163	-1.179240	-0.117411
H48	H	-0.233197	-1.040910	-0.117390
H49	H	-0.123039	-1.143191	-0.197115
H50	H	-0.164693	-1.134497	0.079796
H51	H	-0.054546	-1.236807	0.000083
H52	H	0.647082	-0.847739	0.000099
