data_functionalizedCrystal
_audit_creation_method	'MofGen! by Chris Wilmer'
_symmetry_space_group_name_H-M	'P1'
_symmetry_Int_Tables_number	1
_symmetry_cell_setting	triclinic
loop_
_symmetry_equiv_pos_as_xyz
  x,y,z
_cell_length_a	16.625547
_cell_length_b	12.594516
_cell_length_c	16.625539
_cell_angle_alpha	90.025003
_cell_angle_beta	90.024822
_cell_angle_gamma	90.011753
loop_
_atom_site_label
_atom_site_type_symbol
_atom_site_fract_x
_atom_site_fract_y
_atom_site_fract_z
Zn1	Zn	1.232740	-0.423742	0.456019
Zn2	Zn	1.482740	-0.173742	0.706019
Zn3	Zn	1.732740	0.076258	0.956019
Zn4	Zn	1.982740	0.326258	1.206019
Zn5	Zn	1.232668	-0.601743	0.321194
Zn6	Zn	1.482668	-0.351743	0.571194
Zn7	Zn	1.732668	-0.101743	0.821194
Zn8	Zn	1.982668	0.148257	1.071194
Zn9	Zn	1.097902	-0.423779	0.321190
Zn10	Zn	1.347902	-0.173779	0.571190
Zn11	Zn	1.597902	0.076221	0.821190
Zn12	Zn	1.847902	0.326221	1.071190
Zn13	Zn	1.097897	-0.601679	0.455974
Zn14	Zn	1.347897	-0.351679	0.705974
Zn15	Zn	1.597897	-0.101679	0.955974
Zn16	Zn	1.847897	0.148321	1.205974
O17	O	1.165302	-0.512736	0.388594
O18	O	1.415302	-0.262736	0.638594
O19	O	1.665302	-0.012736	0.888594
O20	O	1.915302	0.237264	1.138594
O21	O	1.345563	-0.447366	0.438155
O22	O	1.595563	-0.197366	0.688155
O23	O	1.845563	0.052634	0.938155
O24	O	2.095563	0.302634	1.188155
O25	O	1.214763	-0.578178	0.208361
O26	O	1.464763	-0.328178	0.458361
O27	O	1.714763	-0.078178	0.708361
O28	O	1.964763	0.171822	0.958361
O29	O	1.115820	-0.274828	0.339092
O30	O	1.365820	-0.024828	0.589092
O31	O	1.615820	0.225172	0.839092
O32	O	1.865820	0.475172	1.089092
O33	O	1.345510	-0.578142	0.339100
O34	O	1.595510	-0.328142	0.589100
O35	O	1.845510	-0.078142	0.839100
O36	O	2.095510	0.171858	1.089100
O37	O	1.214886	-0.274801	0.438151
O38	O	1.464886	-0.024801	0.688151
O39	O	1.714886	0.225199	0.938151
O40	O	1.964886	0.475199	1.188151
O41	O	1.115751	-0.447429	0.208358
O42	O	1.365751	-0.197429	0.458358
O43	O	1.615751	0.052571	0.708358
O44	O	1.865751	0.302571	0.958358
O45	O	0.985069	-0.447366	0.339049
O46	O	1.235069	-0.197366	0.589049
O47	O	1.485069	0.052634	0.839049
O48	O	1.735069	0.302634	1.089049
O49	O	1.115813	-0.578032	0.568813
O50	O	1.365813	-0.328032	0.818813
O51	O	1.615813	-0.078032	1.068813
O52	O	1.865813	0.171968	1.318813
O53	O	0.985066	-0.578068	0.438074
O54	O	1.235066	-0.328068	0.688074
O55	O	1.485066	-0.078068	0.938074
O56	O	1.735066	0.171932	1.188074
O57	O	1.214881	-0.447303	0.568846
O58	O	1.464881	-0.197303	0.818846
O59	O	1.714881	0.052697	1.068846
O60	O	1.964881	0.302697	1.318846
O61	O	1.214759	-0.750680	0.339056
O62	O	1.464759	-0.500680	0.589056
O63	O	1.714759	-0.250680	0.839056
O64	O	1.964759	-0.000680	1.089056
O65	O	1.115743	-0.750633	0.438078
O66	O	1.365743	-0.500633	0.688078
O67	O	1.615743	-0.250633	0.938078
O68	O	1.865743	-0.000633	1.188078
C69	C	0.955811	-0.512715	0.388556
C70	C	1.205811	-0.262715	0.638556
C71	C	1.455811	-0.012715	0.888556
C72	C	1.705811	0.237285	1.138556
C73	C	0.866190	-0.512732	0.388559
C74	C	1.116190	-0.262732	0.638559
C75	C	1.366190	-0.012732	0.888559
C76	C	1.616190	0.237268	1.138559
C77	C	0.793408	-0.512734	0.388569
C78	C	1.043408	-0.262734	0.638569
C79	C	1.293408	-0.012734	0.888569
C80	C	1.543408	0.237266	1.138569
C81	C	0.702099	-0.512739	0.388589
C82	C	0.952099	-0.262739	0.638589
C83	C	1.202099	-0.012739	0.888589
C84	C	1.452099	0.237261	1.138589
C85	C	0.629323	-0.512749	0.388610
C86	C	0.879323	-0.262749	0.638610
C87	C	1.129323	-0.012749	0.888610
C88	C	1.379323	0.237251	1.138610
C89	C	0.538008	-0.512757	0.388629
C90	C	0.788008	-0.262757	0.638629
C91	C	1.038008	-0.012757	0.888629
C92	C	1.288008	0.237243	1.138629
C93	C	1.165265	-0.789277	0.388580
C94	C	1.415265	-0.539277	0.638580
C95	C	1.665265	-0.289277	0.888580
C96	C	1.915265	-0.039277	1.138580
C97	C	1.165322	-0.907582	0.388601
C98	C	1.415322	-0.657582	0.638601
C99	C	1.665322	-0.407582	0.888601
C100	C	1.915322	-0.157582	1.138601
C101	C	1.219240	-0.976822	0.334801
C102	C	1.469240	-0.726822	0.584801
C103	C	1.719240	-0.476822	0.834801
C104	C	1.969240	-0.226822	1.084801
C105	C	1.238943	-1.047524	0.408397
C106	C	1.488943	-0.797524	0.658397
C107	C	1.738943	-0.547524	0.908397
C108	C	1.988943	-0.297524	1.158397
C109	C	1.145720	-1.047680	0.315052
C110	C	1.395720	-0.797680	0.565052
C111	C	1.645720	-0.547680	0.815052
C112	C	1.895720	-0.297680	1.065052
C113	C	1.185064	-0.976725	0.462236
C114	C	1.435064	-0.726725	0.712236
C115	C	1.685064	-0.476725	0.962236
C116	C	1.935064	-0.226725	1.212236
C117	C	1.091806	-0.976875	0.368842
C118	C	1.341806	-0.726875	0.618842
C119	C	1.591806	-0.476875	0.868842
C120	C	1.841806	-0.226875	1.118842
C121	C	1.111482	-1.047544	0.442489
C122	C	1.361482	-0.797544	0.692489
C123	C	1.611482	-0.547544	0.942489
C124	C	1.861482	-0.297544	1.192489
C125	C	1.375611	-0.512757	0.388633
C126	C	1.625611	-0.262757	0.638633
C127	C	1.875611	-0.012757	0.888633
C128	C	2.125611	0.237243	1.138633
C129	C	1.465232	-0.512766	0.388650
C130	C	1.715232	-0.262766	0.638650
C131	C	1.965232	-0.012766	0.888650
C132	C	2.215232	0.237234	1.138650
C133	C	1.165354	-0.512656	0.598903
C134	C	1.415354	-0.262656	0.848903
C135	C	1.665354	-0.012656	1.098903
C136	C	1.915354	0.237344	1.348903
C137	C	1.165377	-0.512623	0.688525
C138	C	1.415377	-0.262623	0.938525
C139	C	1.665377	-0.012623	1.188525
C140	C	1.915377	0.237377	1.438525
C141	C	1.165362	-0.235115	0.388626
C142	C	1.415362	0.014885	0.638626
C143	C	1.665362	0.264885	0.888626
C144	C	1.915362	0.514885	1.138626
C145	C	1.165387	-0.116809	0.388640
C146	C	1.415387	0.133191	0.638640
C147	C	1.665387	0.383191	0.888640
C148	C	1.915387	0.633191	1.138640
C149	C	1.165296	-0.512738	0.179104
C150	C	1.415296	-0.262738	0.429104
C151	C	1.665296	-0.012738	0.679104
C152	C	1.915296	0.237262	0.929104
C153	C	1.165430	-0.512472	0.089483
C154	C	1.415430	-0.262472	0.339483
C155	C	1.665430	-0.012472	0.589483
C156	C	1.915430	0.237528	0.839483
C157	C	1.165414	-0.512503	1.016700
C158	C	1.415414	-0.262503	1.266700
C159	C	1.665414	-0.012503	1.516700
C160	C	1.915414	0.237497	1.766700
C161	C	1.165401	-0.512540	0.925392
C162	C	1.415401	-0.262540	1.175392
C163	C	1.665401	-0.012540	1.425392
C164	C	1.915401	0.237460	1.675392
C165	C	1.165396	-0.512564	0.852615
C166	C	1.415396	-0.262564	1.102615
C167	C	1.665396	-0.012564	1.352615
C168	C	1.915396	0.237436	1.602615
C169	C	1.165382	-0.512599	0.761301
C170	C	1.415382	-0.262599	1.011301
C171	C	1.665382	-0.012599	1.261301
C172	C	1.915382	0.237401	1.511301
H173	H	1.264843	-0.945768	0.289344
H174	H	1.514843	-0.695768	0.539344
H175	H	1.764843	-0.445768	0.789344
H176	H	2.014843	-0.195768	1.039344
H177	H	1.201609	-0.945691	0.524505
H178	H	1.451609	-0.695691	0.774505
H179	H	1.701609	-0.445691	1.024505
H180	H	1.951609	-0.195691	1.274505
H181	H	1.129113	-1.078846	0.252837
H182	H	1.379113	-0.828846	0.502837
H183	H	1.629113	-0.578846	0.752837
H184	H	1.879113	-0.328846	1.002837
H185	H	1.301142	-1.078560	0.425131
H186	H	1.551142	-0.828560	0.675131
H187	H	1.801142	-0.578560	0.925131
H188	H	2.051142	-0.328560	1.175131
C189	C	1.049919	-1.089231	0.504045
C190	C	1.299919	-0.839231	0.754045
C191	C	1.549919	-0.589231	1.004045
C192	C	1.799919	-0.339231	1.254045
N193	N	1.003552	-1.120630	0.550411
N194	N	1.253552	-0.870630	0.800411
N195	N	1.503552	-0.620630	1.050411
N196	N	1.753552	-0.370630	1.300411
C197	C	1.007806	-0.934901	0.346200
C198	C	1.257806	-0.684901	0.596200
C199	C	1.507806	-0.434901	0.846200
C200	C	1.757806	-0.184901	1.096200
N201	N	0.944538	-0.903281	0.329137
N202	N	1.194538	-0.653281	0.579137
N203	N	1.444538	-0.403281	0.829137
N204	N	1.694538	-0.153281	1.079137
