data_functionalizedCrystal
_audit_creation_method	'MofGen! by Chris Wilmer'
_symmetry_space_group_name_H-M	'P1'
_symmetry_Int_Tables_number	1
_symmetry_cell_setting	triclinic
loop_
_symmetry_equiv_pos_as_xyz
  x,y,z
_cell_length_a	21.295418
_cell_length_b	29.839131
_cell_length_c	21.295396
_cell_angle_alpha	89.895379
_cell_angle_beta	89.913243
_cell_angle_gamma	90.057233
loop_
_atom_site_label
_atom_site_type_symbol
_atom_site_fract_x
_atom_site_fract_y
_atom_site_fract_z
Zn1	Zn	0.962576	-0.178341	-0.356240
Zn2	Zn	1.295909	0.154992	-0.022907
Zn3	Zn	1.629243	0.488326	0.310426
Zn4	Zn	0.962379	-0.253567	-0.250968
Zn5	Zn	1.295713	0.079766	0.082366
Zn6	Zn	1.629046	0.413100	0.415699
Zn7	Zn	0.857220	-0.178472	-0.250950
Zn8	Zn	1.190553	0.154861	0.082384
Zn9	Zn	1.523887	0.488194	0.415717
Zn10	Zn	0.857249	-0.253465	-0.356164
Zn11	Zn	1.190582	0.079868	-0.022831
Zn12	Zn	1.523915	0.413201	0.310502
O13	O	0.909856	-0.215961	-0.303581
O14	O	1.243189	0.117372	0.029753
O15	O	1.576523	0.450705	0.363086
O16	O	1.050639	-0.188307	-0.342315
O17	O	1.383973	0.145026	-0.008982
O18	O	1.717306	0.478360	0.324352
O19	O	0.948335	-0.243703	-0.162876
O20	O	1.281669	0.089630	0.170458
O21	O	1.615002	0.422964	0.503791
O22	O	0.871266	-0.115588	-0.264941
O23	O	1.204600	0.217745	0.068392
O24	O	1.537933	0.551079	0.401726
O25	O	1.050495	-0.243575	-0.264972
O26	O	1.383828	0.089758	0.068362
O27	O	1.717161	0.423091	0.401695
O28	O	0.948671	-0.115491	-0.342298
O29	O	1.282004	0.217842	-0.008964
O30	O	1.615337	0.551176	0.324369
O31	O	0.871075	-0.188532	-0.162862
O32	O	1.204409	0.144802	0.170471
O33	O	1.537742	0.478135	0.503804
O34	O	0.769134	-0.188433	-0.264867
O35	O	1.102468	0.144900	0.068466
O36	O	1.435801	0.478234	0.401799
O37	O	0.871315	-0.243402	-0.444264
O38	O	1.204648	0.089931	-0.110931
O39	O	1.537981	0.423264	0.222402
O40	O	0.769155	-0.243530	-0.342168
O41	O	1.102489	0.089803	-0.008835
O42	O	1.435822	0.423137	0.324498
O43	O	0.948698	-0.188209	-0.444320
O44	O	1.282032	0.145125	-0.110987
O45	O	1.615365	0.478458	0.222347
O46	O	0.948363	-0.316421	-0.264898
O47	O	1.281696	0.016913	0.068435
O48	O	1.615030	0.350246	0.401769
O49	O	0.871124	-0.316346	-0.342186
O50	O	1.204457	0.016987	-0.008852
O51	O	1.537791	0.350321	0.324481
C52	C	0.746304	-0.215985	-0.303508
C53	C	1.079638	0.117348	0.029825
C54	C	1.412971	0.450682	0.363159
C55	C	0.676336	-0.216006	-0.303492
C56	C	1.009669	0.117327	0.029841
C57	C	1.343003	0.450661	0.363175
C58	C	0.643497	-0.244733	-0.343682
C59	C	0.976830	0.088600	-0.010349
C60	C	1.310163	0.421934	0.322984
C61	C	0.577754	-0.244722	-0.343711
C62	C	0.911088	0.088611	-0.010377
C63	C	1.244421	0.421945	0.322956
C64	C	0.544854	-0.215989	-0.303537
C65	C	0.878187	0.117345	0.029796
C66	C	1.211520	0.450678	0.363129
C67	C	0.577701	-0.187256	-0.263344
C68	C	0.911034	0.146077	0.069989
C69	C	1.244368	0.479411	0.403323
C70	C	0.643442	-0.187265	-0.263321
C71	C	0.976775	0.146069	0.070012
C72	C	1.310109	0.479402	0.403345
N73	N	0.441537	-0.212530	-0.248479
N74	N	0.774871	0.120803	0.084854
N75	N	1.108204	0.454137	0.418187
N76	N	0.379086	-0.212524	-0.248503
N77	N	0.712419	0.120809	0.084831
N78	N	1.045752	0.454142	0.418164
C79	C	0.346779	-0.215960	-0.303604
C80	C	0.680112	0.117373	0.029729
C81	C	1.013446	0.450707	0.363063
N82	N	0.379283	-0.219410	-0.358682
N83	N	0.712616	0.113923	-0.025349
N84	N	1.045950	0.447257	0.307984
N85	N	0.441740	-0.219418	-0.358658
N86	N	0.775074	0.113915	-0.025325
N87	N	1.108407	0.447249	0.308008
C88	C	0.473568	-0.215976	-0.303558
C89	C	0.806902	0.117358	0.029776
C90	C	1.140235	0.450691	0.363109
C91	C	0.242654	-0.244676	-0.343828
C92	C	0.575988	0.088657	-0.010495
C93	C	0.909321	0.421990	0.322838
C94	C	0.176911	-0.244662	-0.343858
C95	C	0.510244	0.088671	-0.010524
C96	C	0.843577	0.422004	0.322809
C97	C	0.176859	-0.187198	-0.263486
C98	C	0.510192	0.146135	0.069848
C99	C	0.843525	0.479468	0.403181
C100	C	0.242601	-0.187210	-0.263462
C101	C	0.575934	0.146123	0.069871
C102	C	0.909268	0.479456	0.403205
C103	C	0.275495	-0.215952	-0.303632
C104	C	0.608828	0.117382	0.029701
C105	C	0.942162	0.450715	0.363034
C106	C	0.909742	-0.332684	-0.303549
C107	C	1.243076	0.000649	0.029784
C108	C	1.576409	0.333983	0.363117
C109	C	0.909751	-0.382618	-0.303557
C110	C	1.243085	-0.049285	0.029776
C111	C	1.576418	0.284048	0.363110
C112	C	0.950148	-0.692288	-0.263396
C113	C	1.283481	-0.358955	0.069938
C114	C	1.616814	-0.025621	0.403271
C115	C	0.950225	-0.879961	-0.263420
C116	C	1.283559	-0.546628	0.069913
C117	C	1.616892	-0.213294	0.403246
O118	O	0.984482	-0.904248	-0.229250
O119	O	1.317815	-0.570915	0.104084
O120	O	1.651148	-0.237581	0.437417
N121	N	0.909987	-0.903403	-0.303628
N122	N	1.243320	-0.570070	0.029705
N123	N	1.576653	-0.236737	0.363039
C124	C	0.869728	-0.879925	-0.343836
C125	C	1.203062	-0.546591	-0.010502
C126	C	1.536395	-0.213258	0.322831
O127	O	0.835509	-0.904170	-0.378040
O128	O	1.168843	-0.570837	-0.044707
O129	O	1.502176	-0.237504	0.288627
C130	C	0.869654	-0.692253	-0.343814
C131	C	1.202988	-0.358919	-0.010481
C132	C	1.536321	-0.025586	0.322853
C133	C	0.909891	-0.668813	-0.303599
C134	C	1.243225	-0.335479	0.029734
C135	C	1.576558	-0.002146	0.363068
C136	C	0.990382	-0.668848	-0.223184
C137	C	1.323715	-0.335515	0.110149
C138	C	1.657048	-0.002181	0.443482
C139	C	0.990359	-0.621932	-0.223176
C140	C	1.323693	-0.288599	0.110157
C141	C	1.657026	0.044734	0.443490
C142	C	0.950103	-0.598457	-0.263379
C143	C	1.283436	-0.265124	0.069954
C144	C	1.616770	0.068210	0.403287
C145	C	0.909869	-0.621897	-0.303591
C146	C	1.243202	-0.288564	0.029743
C147	C	1.576536	0.044770	0.363076
C148	C	0.829400	-0.668775	-0.384024
C149	C	1.162733	-0.335441	-0.050691
C150	C	1.496066	-0.002108	0.282643
C151	C	0.829386	-0.621854	-0.384016
C152	C	1.162719	-0.288520	-0.050683
C153	C	1.496053	0.044813	0.282650
C154	C	0.869623	-0.598414	-0.343801
C155	C	1.202956	-0.265080	-0.010468
C156	C	1.536290	0.068253	0.322865
C157	C	0.869590	-0.551506	-0.343786
C158	C	1.202924	-0.218173	-0.010452
C159	C	1.536257	0.115160	0.322881
N160	N	0.909829	-0.528064	-0.303578
N161	N	1.243162	-0.194731	0.029756
N162	N	1.576496	0.138603	0.363089
C163	C	0.950085	-0.551539	-0.263375
C164	C	1.283419	-0.218206	0.069959
C165	C	1.616752	0.115127	0.403292
C166	C	0.869769	-0.978455	-0.343843
C167	C	1.203103	-0.645122	-0.010510
C168	C	1.536436	-0.311789	0.322823
C169	C	0.869787	-1.025373	-0.343848
C170	C	1.203120	-0.692040	-0.010515
C171	C	1.536454	-0.358706	0.322819
C172	C	0.950285	-1.025406	-0.263433
C173	C	1.283618	-0.692073	0.069900
C174	C	1.616951	-0.358739	0.403233
C175	C	0.950264	-0.978487	-0.263426
C176	C	1.283597	-0.645154	0.069908
C177	C	1.616930	-0.311821	0.403241
C178	C	0.910008	-0.955013	-0.303635
C179	C	1.243341	-0.621679	0.029698
C180	C	1.576675	-0.288346	0.363031
C181	C	0.950035	-0.453013	-0.263360
C182	C	1.283369	-0.119680	0.069973
C183	C	1.616702	0.213653	0.403306
C184	C	0.950008	-0.406094	-0.263354
C185	C	1.283341	-0.072761	0.069979
C186	C	1.616674	0.260573	0.403313
C187	C	0.869512	-0.406065	-0.343771
C188	C	1.202846	-0.072732	-0.010437
C189	C	1.536179	0.260602	0.322896
C190	C	0.869537	-0.452980	-0.343775
C191	C	1.202871	-0.119647	-0.010442
C192	C	1.536204	0.213686	0.322892
C193	C	0.909804	-0.476454	-0.303568
C194	C	1.243137	-0.143120	0.029766
C195	C	1.576471	0.190213	0.363099
O196	O	0.835357	-0.527190	-0.377943
O197	O	1.168690	-0.193857	-0.044610
O198	O	1.502024	0.139476	0.288723
O199	O	0.984309	-0.527286	-0.229185
O200	O	1.317643	-0.193952	0.104148
O201	O	1.650976	0.139381	0.437481
C202	C	0.950170	-0.739203	-0.263404
C203	C	1.283503	-0.405870	0.069929
C204	C	1.616837	-0.072537	0.403263
C205	C	0.909936	-0.762643	-0.303615
C206	C	1.243269	-0.429310	0.029718
C207	C	1.576602	-0.095977	0.363052
C208	C	0.869679	-0.739168	-0.343818
C209	C	1.203013	-0.405835	-0.010485
C210	C	1.536346	-0.072501	0.322848
C211	C	0.909953	-0.809561	-0.303620
C212	C	1.243287	-0.476228	0.029713
C213	C	1.576620	-0.142895	0.363047
C214	C	0.950210	-0.833037	-0.263417
C215	C	1.283543	-0.499703	0.069917
C216	C	1.616876	-0.166370	0.403250
C217	C	0.990449	-0.809594	-0.223209
C218	C	1.323782	-0.476261	0.110124
C219	C	1.657115	-0.142927	0.443458
C220	C	0.990426	-0.762679	-0.223201
C221	C	1.323760	-0.429345	0.110133
C222	C	1.657093	-0.096012	0.443466
C223	C	0.829441	-0.762610	-0.384026
C224	C	1.162774	-0.429277	-0.050693
C225	C	1.496107	-0.095944	0.282641
C226	C	0.829466	-0.809526	-0.384030
C227	C	1.162799	-0.476193	-0.050697
C228	C	1.496132	-0.142859	0.282636
C229	C	0.869722	-0.833001	-0.343827
C230	C	1.203055	-0.499668	-0.010494
C231	C	1.536389	-0.166335	0.322839
C232	C	1.074046	-0.215938	-0.303654
C233	C	1.407380	0.117395	0.029680
C234	C	1.740713	0.450729	0.363013
C235	C	1.144015	-0.215928	-0.303685
C236	C	1.477348	0.117405	0.029649
C237	C	1.810681	0.450739	0.362982
C238	C	0.910032	-0.215779	-0.467771
C239	C	1.243365	0.117554	-0.134438
C240	C	1.576698	0.450887	0.198895
C241	C	0.910107	-0.215702	-0.537740
C242	C	1.243440	0.117631	-0.204406
C243	C	1.576773	0.450965	0.128927
C244	C	0.909987	-0.098783	-0.303626
C245	C	1.243321	0.234550	0.029708
C246	C	1.576654	0.567884	0.363041
C247	C	0.910043	-0.048848	-0.303645
C248	C	1.243377	0.284485	0.029688
C249	C	1.576710	0.617818	0.363022
C250	C	0.909717	-0.216110	-0.140028
C251	C	1.243050	0.117223	0.193305
C252	C	1.576384	0.450556	0.526638
C253	C	0.909764	-0.216061	-0.070061
C254	C	1.243098	0.117272	0.263273
C255	C	1.576431	0.450606	0.596606
C256	C	0.950085	-0.186785	0.429195
C257	C	1.283419	0.146548	0.762529
C258	C	1.616752	0.479882	1.095862
C259	C	0.950041	-0.186826	0.363453
C260	C	1.283374	0.146507	0.696786
C261	C	1.616708	0.479841	1.030120
C262	C	0.910025	-0.215792	0.330778
C263	C	1.243358	0.117541	0.664111
C264	C	1.576691	0.450874	0.997445
C265	C	0.870038	-0.244711	0.363851
C266	C	1.203371	0.088622	0.697184
C267	C	1.536705	0.421955	1.030517
C268	C	0.870079	-0.244666	0.429592
C269	C	1.203412	0.088667	0.762925
C270	C	1.536746	0.422000	1.096259
N271	N	0.905487	-0.255213	0.227722
N272	N	1.238821	0.078121	0.561055
N273	N	1.572154	0.411454	0.894388
N274	N	0.905452	-0.255254	0.165270
N275	N	1.238785	0.078079	0.498604
N276	N	1.572119	0.411412	0.831937
C277	C	0.909898	-0.215930	0.132704
C278	C	1.243231	0.117404	0.466037
C279	C	1.576564	0.450737	0.799370
N280	N	0.914393	-0.176560	0.164948
N281	N	1.247726	0.156773	0.498281
N282	N	1.581059	0.490106	0.831614
N283	N	0.914431	-0.176519	0.227405
N284	N	1.247764	0.156814	0.560738
N285	N	1.581098	0.490147	0.894071
C286	C	0.909975	-0.215844	0.259493
C287	C	1.243309	0.117489	0.592826
C288	C	1.576642	0.450822	0.926159
C289	C	0.949831	-0.187055	0.028354
C290	C	1.283164	0.146279	0.361687
C291	C	1.616497	0.479612	0.695020
C292	C	0.949782	-0.187095	-0.037390
C293	C	1.283115	0.146238	0.295943
C294	C	1.616449	0.479572	0.629277
C295	C	0.869782	-0.244984	-0.036991
C296	C	1.203115	0.088349	0.296342
C297	C	1.536449	0.421682	0.629676
C298	C	0.869828	-0.244940	0.028751
C299	C	1.203161	0.088393	0.362085
C300	C	1.536494	0.421727	0.695418
C301	C	0.909855	-0.215976	0.061420
C302	C	1.243189	0.117358	0.394753
C303	C	1.576522	0.450691	0.728086
H304	H	0.551011	-0.268115	-0.376441
H305	H	0.884345	0.065218	-0.043107
H306	H	1.217678	0.398552	0.290226
Br307	Br	0.688013	-0.148274	-0.208774
Br308	Br	1.021346	0.185060	0.124559
Br309	Br	1.354680	0.518393	0.457892
Br310	Br	0.774851	-0.841332	-0.438612
Br311	Br	1.108184	-0.507998	-0.105278
Br312	Br	1.441518	-0.174665	0.228055
H313	H	0.837521	-0.268213	0.456513
H314	H	1.170854	0.065120	0.789846
H315	H	1.504187	0.398453	1.123180
Br316	Br	1.004872	-0.946681	-0.208846
Br317	Br	1.338205	-0.613348	0.124487
Br318	Br	1.671539	-0.280014	0.457821
Br319	Br	0.774802	-0.730758	-0.438594
Br320	Br	1.108136	-0.397425	-0.105261
Br321	Br	1.441469	-0.064092	0.228072
Br322	Br	0.815725	-0.284020	0.319508
Br323	Br	1.149058	0.049313	0.652841
Br324	Br	1.482392	0.382647	0.986175
H325	H	0.269438	-0.268077	-0.376541
H326	H	0.602771	0.065256	-0.043208
H327	H	0.936105	0.398590	0.290126
Br328	Br	0.132341	-0.283649	-0.398412
Br329	Br	0.465675	0.049685	-0.065079
Br330	Br	0.799008	0.383018	0.268254
H331	H	0.982336	-0.163545	-0.064310
H332	H	1.315670	0.169789	0.269023
H333	H	1.649003	0.503122	0.602356
Br334	Br	0.533052	-0.148256	-0.208828
Br335	Br	0.866385	0.185077	0.124506
Br336	Br	1.199719	0.518410	0.457839
H337	H	0.982420	-0.163468	0.054954
H338	H	1.315753	0.169866	0.388287
H339	H	1.649087	0.503199	0.721620
Br340	Br	1.004617	-0.374285	-0.208771
Br341	Br	1.337951	-0.040952	0.124562
Br342	Br	1.671284	0.292382	0.457895
Br343	Br	0.815465	-0.284291	-0.081329
Br344	Br	1.148798	0.049042	0.252005
Br345	Br	1.482132	0.382376	0.585338
Br346	Br	0.815569	-0.284188	0.073628
Br347	Br	1.148902	0.049146	0.406962
Br348	Br	1.482235	0.382479	0.740295
Br349	Br	0.815168	-1.057179	-0.398418
Br350	Br	1.148501	-0.723845	-0.065085
Br351	Br	1.481835	-0.390512	0.268248
H352	H	0.670275	-0.268136	-0.376393
H353	H	1.003608	0.065197	-0.043060
H354	H	1.336942	0.398531	0.290273
Br355	Br	1.004406	-0.147475	0.473528
Br356	Br	1.337739	0.185858	0.806862
Br357	Br	1.671072	0.519192	1.140195
Br358	Br	0.132215	-0.148198	-0.208969
Br359	Br	0.465548	0.185135	0.124364
Br360	Br	0.798882	0.518469	0.457697
Br361	Br	1.004683	-0.484862	-0.208793
Br362	Br	1.338017	-0.151529	0.124540
Br363	Br	1.671350	0.181804	0.457874
Br364	Br	0.287172	-0.148221	-0.208915
Br365	Br	0.620505	0.185112	0.124419
Br366	Br	0.953839	0.518445	0.457752
H367	H	1.023126	-0.602850	-0.190432
H368	H	1.356459	-0.269517	0.142902
H369	H	1.689792	0.063816	0.476235
Br370	Br	1.004286	-0.147568	0.318569
Br371	Br	1.337619	0.185766	0.651903
Br372	Br	1.670953	0.519099	0.985236
Br373	Br	1.045024	-0.700698	-0.168617
Br374	Br	1.378358	-0.367365	0.164716
Br375	Br	1.711691	-0.034032	0.498050
H376	H	0.983063	-1.044528	-0.230698
H377	H	1.316397	-0.711194	0.102635
H378	H	1.649730	-0.377861	0.435968
Br379	Br	0.815131	-0.946604	-0.398419
Br380	Br	1.148464	-0.613270	-0.065085
Br381	Br	1.481798	-0.279937	0.268248
H382	H	0.796606	-0.602743	-0.416762
H383	H	1.129939	-0.269410	-0.083428
H384	H	1.463272	0.063924	0.249905
Br385	Br	0.814915	-0.484793	-0.398338
Br386	Br	1.148248	-0.151460	-0.065004
Br387	Br	1.481581	0.181874	0.268329
H388	H	0.796632	-0.687852	-0.416769
H389	H	1.129965	-0.354518	-0.083435
H390	H	1.463298	-0.021185	0.249898
H391	H	0.836734	-0.386944	-0.376502
H392	H	1.170067	-0.053611	-0.043168
H393	H	1.503401	0.279723	0.290165
H394	H	1.023191	-0.743597	-0.190454
H395	H	1.356524	-0.410264	0.142879
H396	H	1.689858	-0.076931	0.476213
H397	H	1.023225	-0.828716	-0.190472
H398	H	1.356558	-0.495383	0.142861
H399	H	1.689892	-0.162049	0.476194
