data_functionalizedCrystal
_audit_creation_method	'MofGen! by Chris Wilmer'
_symmetry_space_group_name_H-M	'P1'
_symmetry_Int_Tables_number	1
_symmetry_cell_setting	triclinic
loop_
_symmetry_equiv_pos_as_xyz
  x,y,z
_cell_length_a	21.395362
_cell_length_b	19.805405
_cell_length_c	21.395355
_cell_angle_alpha	90.019910
_cell_angle_beta	90.043940
_cell_angle_gamma	90.042288
loop_
_atom_site_label
_atom_site_type_symbol
_atom_site_fract_x
_atom_site_fract_y
_atom_site_fract_z
Zn1	Zn	0.957878	-0.269255	0.354580
Zn2	Zn	1.291212	0.064079	0.687913
Zn3	Zn	1.624545	0.397412	1.021246
Zn4	Zn	0.957789	-0.382425	0.249800
Zn5	Zn	1.291122	-0.049091	0.583133
Zn6	Zn	1.624455	0.284242	0.916466
Zn7	Zn	0.853093	-0.269286	0.249781
Zn8	Zn	1.186426	0.064047	0.583114
Zn9	Zn	1.519760	0.397380	0.916447
Zn10	Zn	0.853070	-0.382438	0.354504
Zn11	Zn	1.186403	-0.049105	0.687838
Zn12	Zn	1.519737	0.284228	1.021171
O13	O	0.905458	-0.325851	0.302166
O14	O	1.238791	0.007482	0.635499
O15	O	1.572124	0.340816	0.968833
O16	O	1.045544	-0.284248	0.340720
O17	O	1.378878	0.049085	0.674053
O18	O	1.712211	0.382419	1.007386
O19	O	0.943873	-0.367424	0.162119
O20	O	1.277206	-0.034091	0.495452
O21	O	1.610539	0.299243	0.828786
O22	O	0.867040	-0.174565	0.263706
O23	O	1.200374	0.158768	0.597040
O24	O	1.533707	0.492101	0.930373
O25	O	1.045478	-0.367393	0.263738
O26	O	1.378812	-0.034060	0.597071
O27	O	1.712145	0.299273	0.930405
O28	O	0.944025	-0.174542	0.340701
O29	O	1.277359	0.158791	0.674035
O30	O	1.610692	0.492124	1.007368
O31	O	0.866953	-0.284302	0.162105
O32	O	1.200287	0.049032	0.495439
O33	O	1.533620	0.382365	0.828772
O34	O	0.765412	-0.284315	0.263633
O35	O	1.098746	0.049018	0.596967
O36	O	1.432079	0.382352	0.930300
O37	O	0.867001	-0.367417	0.442192
O38	O	1.200334	-0.034084	0.775525
O39	O	1.533668	0.299250	1.108859
O40	O	0.765395	-0.367448	0.340573
O41	O	1.098729	-0.034114	0.673906
O42	O	1.432062	0.299219	1.007240
O43	O	0.944003	-0.284261	0.442247
O44	O	1.277336	0.049072	0.775581
O45	O	1.610670	0.382405	1.108914
O46	O	0.943850	-0.477143	0.263665
O47	O	1.277184	-0.143810	0.596998
O48	O	1.610517	0.189524	0.930332
O49	O	0.866914	-0.477153	0.340591
O50	O	1.200247	-0.143820	0.673925
O51	O	1.533581	0.189513	1.007258
C52	C	0.742670	-0.325887	0.302093
C53	C	1.076003	0.007447	0.635427
C54	C	1.409336	0.340780	0.968760
C55	C	0.673029	-0.325918	0.302077
C56	C	1.006362	0.007415	0.635410
C57	C	1.339695	0.340748	0.968744
C58	C	0.640323	-0.369263	0.342080
C59	C	0.973656	-0.035930	0.675413
C60	C	1.306990	0.297404	1.008746
C61	C	0.574888	-0.369246	0.342108
C62	C	0.908221	-0.035913	0.675441
C63	C	1.241554	0.297420	1.008774
C64	C	0.542160	-0.325892	0.302122
C65	C	0.875494	0.007441	0.635455
C66	C	1.208827	0.340774	0.968788
C67	C	0.574874	-0.282539	0.262116
C68	C	0.908207	0.050794	0.595450
C69	C	1.241540	0.384127	0.928783
C70	C	0.640308	-0.282553	0.262094
C71	C	0.973641	0.050781	0.595427
C72	C	1.306974	0.384114	0.928761
C73	C	0.438435	-0.320440	0.245717
C74	C	0.771768	0.012894	0.579050
C75	C	1.105102	0.346227	0.912383
C76	C	0.373002	-0.320431	0.245738
C77	C	0.706336	0.012902	0.579071
C78	C	1.039669	0.346235	0.912405
C79	C	0.340340	-0.325848	0.302191
C80	C	0.673673	0.007485	0.635524
C81	C	1.007006	0.340818	0.968858
C82	C	0.373118	-0.331287	0.358624
C83	C	0.706451	0.002046	0.691958
C84	C	1.039785	0.335379	1.025291
C85	C	0.438552	-0.331301	0.358602
C86	C	0.771885	0.002033	0.691935
C87	C	1.105219	0.335366	1.025269
C88	C	0.471208	-0.325873	0.302142
C89	C	0.804541	0.007460	0.635475
C90	C	1.137875	0.340794	0.968808
C91	C	0.236682	-0.369177	0.342227
C92	C	0.570015	-0.035844	0.675560
C93	C	0.903348	0.297490	1.008894
C94	C	0.171245	-0.369156	0.342256
C95	C	0.504578	-0.035822	0.675589
C96	C	0.837912	0.297511	1.008923
C97	C	0.171232	-0.282452	0.262259
C98	C	0.504566	0.050881	0.595593
C99	C	0.837899	0.384214	0.928926
C100	C	0.236668	-0.282470	0.262236
C101	C	0.570001	0.050863	0.595569
C102	C	0.903334	0.384196	0.928903
C103	C	0.269388	-0.325836	0.302219
C104	C	0.602722	0.007497	0.635552
C105	C	0.936055	0.340831	0.968886
C106	C	0.905387	-0.501707	0.302136
C107	C	1.238720	-0.168374	0.635469
C108	C	1.572054	0.164960	0.968802
C109	C	0.905414	-0.576939	0.302144
C110	C	1.238748	-0.243606	0.635477
C111	C	1.572081	0.089728	0.968810
C112	C	0.945514	-0.612255	0.262130
C113	C	1.278847	-0.278922	0.595464
C114	C	1.612180	0.054411	0.928797
C115	C	0.945540	-0.682944	0.262144
C116	C	1.278874	-0.349610	0.595477
C117	C	1.612207	-0.016277	0.928811
C118	C	0.905464	-0.718315	0.302169
C119	C	1.238797	-0.384981	0.635502
C120	C	1.572130	-0.051648	0.968835
C121	C	0.865362	-0.682993	0.342187
C122	C	1.198696	-0.349660	0.675520
C123	C	1.532029	-0.016327	1.008853
C124	C	0.865339	-0.612306	0.342175
C125	C	1.198673	-0.278973	0.675509
C126	C	1.532006	0.054361	1.008842
C127	C	0.865455	-0.968067	0.342233
C128	C	1.198788	-0.634733	0.675566
C129	C	1.532122	-0.301400	1.008900
C130	C	0.865480	-1.038759	0.342240
C131	C	1.198813	-0.705425	0.675573
C132	C	1.532146	-0.372092	1.008906
C133	C	0.945656	-1.038704	0.262202
C134	C	1.278989	-0.705371	0.595535
C135	C	1.612322	-0.372037	0.928868
C136	C	0.945633	-0.968017	0.262191
C137	C	1.278966	-0.634684	0.595524
C138	C	1.612299	-0.301350	0.928857
C139	C	0.905534	-0.932702	0.302210
C140	C	1.238867	-0.599369	0.635544
C141	C	1.572201	-0.266035	0.968877
C142	C	0.905507	-0.856053	0.302196
C143	C	1.238840	-0.522720	0.635529
C144	C	1.572173	-0.189387	0.968862
C145	C	0.905488	-0.794962	0.302181
C146	C	1.238821	-0.461628	0.635514
C147	C	1.572154	-0.128295	0.968847
C148	C	1.068881	-0.325816	0.302239
C149	C	1.402214	0.007518	0.635573
C150	C	1.735548	0.340851	0.968906
C151	C	1.138522	-0.325800	0.302271
C152	C	1.471855	0.007533	0.635604
C153	C	1.805189	0.340866	0.968937
C154	C	0.905510	-0.325837	0.465589
C155	C	1.238843	0.007496	0.798923
C156	C	1.572176	0.340829	1.132256
C157	C	0.905532	-0.325831	0.535231
C158	C	1.238865	0.007502	0.868564
C159	C	1.572198	0.340835	1.201897
C160	C	0.905545	-0.149308	0.302210
C161	C	1.238879	0.184025	0.635544
C162	C	1.572212	0.517358	0.968877
C163	C	0.905583	-0.074076	0.302229
C164	C	1.238916	0.259257	0.635562
C165	C	1.572249	0.592590	0.968896
C166	C	0.905442	-0.325816	0.139378
C167	C	1.238775	0.007518	0.472712
C168	C	1.572108	0.340851	0.806045
C169	C	0.905541	-0.325631	0.069738
C170	C	1.238874	0.007702	0.403071
C171	C	1.572208	0.341036	0.736404
C172	C	0.945625	-0.282530	0.567974
C173	C	1.278958	0.050803	0.901307
C174	C	1.612292	0.384136	1.234640
C175	C	0.945624	-0.282501	0.633409
C176	C	1.278957	0.050832	0.966742
C177	C	1.612291	0.384165	1.300076
C178	C	0.905537	-0.325785	0.666099
C179	C	1.238870	0.007548	0.999432
C180	C	1.572203	0.340881	1.332766
C181	C	0.865436	-0.369089	0.633348
C182	C	1.198769	-0.035756	0.966682
C183	C	1.532102	0.297577	1.300015
C184	C	0.865433	-0.369112	0.567914
C185	C	1.198766	-0.035779	0.901247
C186	C	1.532100	0.297554	1.234581
C187	C	0.900565	-0.386731	0.769762
C188	C	1.233898	-0.053398	1.103095
C189	C	1.567232	0.279936	1.436428
C190	C	0.900572	-0.386709	0.835195
C191	C	1.233905	-0.053376	1.168528
C192	C	1.567238	0.279958	1.501861
C193	C	0.905540	-0.325714	0.867920
C194	C	1.238874	0.007620	1.201253
C195	C	1.572207	0.340953	1.534587
C196	C	0.910516	-0.264738	0.835204
C197	C	1.243849	0.068595	1.168538
C198	C	1.577182	0.401928	1.501871
C199	C	0.910513	-0.264762	0.769770
C200	C	1.243846	0.068572	1.103103
C201	C	1.577180	0.401905	1.436437
C202	C	0.905534	-0.325765	0.737051
C203	C	1.238868	0.007569	1.070385
C204	C	1.572201	0.340902	1.403718
C205	C	0.945635	-0.282378	0.971615
C206	C	1.278968	0.050956	1.304949
C207	C	1.612302	0.384289	1.638282
C208	C	0.945630	-0.282347	1.037052
C209	C	1.278963	0.050986	1.370385
C210	C	1.612296	0.384319	1.703719
C211	C	0.865444	-0.368941	1.036990
C212	C	1.198778	-0.035608	1.370323
C213	C	1.532111	0.297725	1.703657
C214	C	0.865446	-0.368966	0.971555
C215	C	1.198780	-0.035632	1.304888
C216	C	1.532113	0.297701	1.638221
C217	C	0.905545	-0.325685	0.938871
C218	C	1.238878	0.007649	1.272205
C219	C	1.572212	0.340982	1.605538
H220	H	0.548254	-0.404542	0.374685
H221	H	0.881587	-0.071209	0.708018
H222	H	1.214920	0.262124	1.041352
Br223	Br	0.811035	-0.920148	0.396546
Br224	Br	1.144369	-0.586814	0.729879
Br225	Br	1.477702	-0.253481	1.063213
Br226	Br	0.999901	-0.564259	0.207802
Br227	Br	1.333234	-0.230926	0.541135
Br228	Br	1.666567	0.102408	0.874469
H229	H	0.896524	-0.436359	0.861827
H230	H	1.229858	-0.103026	1.195160
H231	H	1.563191	0.230308	1.528493
Br232	Br	1.000023	-0.920017	0.207869
Br233	Br	1.333356	-0.586684	0.541202
Br234	Br	1.666690	-0.253350	0.874535
H235	H	0.978193	-0.711695	0.229561
H236	H	1.311526	-0.378362	0.562894
H237	H	1.644860	-0.045029	0.896227
Br238	Br	0.126857	-0.427980	0.396556
Br239	Br	0.460191	-0.094646	0.729889
Br240	Br	0.793524	0.238687	1.063222
H241	H	0.832798	-0.404177	1.063606
H242	H	1.166131	-0.070844	1.396939
H243	H	1.499465	0.262490	1.730272
H244	H	0.832845	-1.067556	0.374837
H245	H	1.166179	-0.734222	0.708171
H246	H	1.499512	-0.400889	1.041504
Br247	Br	0.126824	-0.223607	0.207997
Br248	Br	0.460157	0.109726	0.541331
Br249	Br	0.793490	0.443059	0.874664
H250	H	0.832734	-0.711798	0.374778
H251	H	1.166067	-0.378464	0.708111
H252	H	1.499401	-0.045131	1.041445
H253	H	0.832802	-0.404230	0.944895
H254	H	1.166135	-0.070897	1.278228
H255	H	1.499469	0.262437	1.611562
Br256	Br	0.328799	-0.338637	0.435245
Br257	Br	0.662132	-0.005304	0.768579
Br258	Br	0.995466	0.328029	1.101912
H259	H	0.978308	-1.067466	0.229618
H260	H	1.311642	-0.734133	0.562951
H261	H	1.644975	-0.400800	0.896285
Br262	Br	0.810921	-0.564376	0.396486
Br263	Br	1.144254	-0.231042	0.729819
Br264	Br	1.477587	0.102291	1.063152
Br265	Br	0.811026	-0.427828	0.677711
Br266	Br	1.144360	-0.094494	1.011045
Br267	Br	1.477693	0.238839	1.344378
H268	H	0.896351	-0.436388	0.743122
H269	H	1.229684	-0.103055	1.076455
H270	H	1.563018	0.230278	1.409789
Br271	Br	0.281057	-0.223642	0.207943
Br272	Br	0.614390	0.109691	0.541277
Br273	Br	0.947724	0.443024	0.874610
H274	H	0.978276	-0.247287	0.541367
H275	H	1.311609	0.086046	0.874700
H276	H	1.644942	0.419380	1.208034
Br277	Br	0.684697	-0.223722	0.207802
Br278	Br	1.018031	0.109612	0.541135
Br279	Br	1.351364	0.442945	0.874468
H280	H	0.346319	-0.316007	0.199786
H281	H	0.679652	0.017327	0.533120
H282	H	1.012986	0.350660	0.866453
Br283	Br	0.530460	-0.223696	0.207854
Br284	Br	0.863793	0.109637	0.541188
Br285	Br	1.197127	0.442971	0.874521
Br286	Br	0.482756	-0.313088	0.169095
Br287	Br	0.816090	0.020245	0.502428
Br288	Br	1.149423	0.353578	0.835761
H289	H	0.978271	-0.247237	0.660074
H290	H	1.311605	0.086096	0.993407
H291	H	1.644938	0.419430	1.326740
H292	H	0.914562	-0.215113	0.743136
H293	H	1.247896	0.118220	1.076469
H294	H	1.581229	0.451553	1.409802
H295	H	0.914563	-0.215070	0.861848
H296	H	1.247896	0.118263	1.195181
H297	H	1.581229	0.451596	1.528514
Br298	Br	1.000051	-0.223639	0.927256
Br299	Br	1.333384	0.109695	1.260589
Br300	Br	1.666717	0.443028	1.593922
Br301	Br	1.000056	-0.223587	1.081491
Br302	Br	1.333390	0.109747	1.414824
Br303	Br	1.666723	0.443080	1.748157
Br304	Br	0.811016	-0.427882	0.523474
Br305	Br	1.144349	-0.094548	0.856807
Br306	Br	1.477682	0.238785	1.190141
H307	H	0.666960	-0.404574	0.374638
H308	H	1.000294	-0.071240	0.707971
H309	H	1.333627	0.262093	1.041305
H310	H	0.465238	-0.335727	0.404552
H311	H	0.798571	-0.002394	0.737886
H312	H	1.131904	0.330939	1.071219
H313	H	0.263324	-0.404485	0.374787
H314	H	0.596658	-0.071151	0.708120
H315	H	0.929991	0.262182	1.041454
