data_functionalizedCrystal
_audit_creation_method	'MofGen! by Chris Wilmer'
_symmetry_space_group_name_H-M	'P1'
_symmetry_Int_Tables_number	1
_symmetry_cell_setting	triclinic
loop_
_symmetry_equiv_pos_as_xyz
  x,y,z
_cell_length_a	12.759401
_cell_length_b	16.959453
_cell_length_c	12.759393
_cell_angle_alpha	90.033968
_cell_angle_beta	90.019676
_cell_angle_gamma	90.020414
loop_
_atom_site_label
_atom_site_type_symbol
_atom_site_fract_x
_atom_site_fract_y
_atom_site_fract_z
Zn1	Zn	1.606228	-0.314634	0.593959
Zn2	Zn	1.606103	-0.446833	0.418269
Zn3	Zn	1.430526	-0.314674	0.418298
Zn4	Zn	1.430502	-0.446776	0.593910
O5	O	1.518340	-0.380729	0.506109
O6	O	1.753232	-0.332178	0.570662
O7	O	1.582770	-0.429343	0.271252
O8	O	1.453896	-0.204058	0.441633
O9	O	1.753140	-0.429305	0.441583
O10	O	1.582983	-0.204029	0.570691
O11	O	1.453775	-0.332246	0.271273
O12	O	1.283502	-0.332190	0.441585
O13	O	1.453855	-0.429206	0.740938
O14	O	1.283484	-0.429244	0.570606
O15	O	1.582960	-0.332122	0.740974
O16	O	1.582746	-0.557437	0.441535
O17	O	1.453733	-0.557394	0.570578
C18	C	1.245372	-0.380716	0.506094
C19	C	1.128596	-0.380729	0.506113
C20	C	1.073782	-0.330247	0.573428
C21	C	0.964058	-0.330255	0.573435
C22	C	0.963971	-0.431234	0.438809
C23	C	1.073693	-0.431221	0.438797
C24	C	0.814150	-0.237086	0.611211
C25	C	0.759333	-0.186611	0.678542
C26	C	0.794993	-0.174564	0.781082
C27	C	0.885468	-0.213003	0.816311
C28	C	0.940280	-0.263485	0.748985
C29	C	0.904622	-0.275517	0.646431
C30	C	1.223603	-0.524391	0.401032
C31	C	1.278416	-0.574877	0.333711
C32	C	1.242759	-0.586932	0.231169
C33	C	1.152280	-0.548506	0.195944
C34	C	1.097466	-0.498021	0.263266
C35	C	1.133132	-0.485964	0.365806
C36	C	1.518252	-0.586096	0.506071
C37	C	1.518311	-0.673952	0.506089
C38	C	1.585641	-1.045354	0.573436
C39	C	1.451332	-1.045501	0.438938
C40	C	1.451293	-0.962955	0.438914
C41	C	1.518428	-0.921605	0.506153
C42	C	1.585602	-0.962801	0.573416
C43	C	1.384112	-0.921754	0.371660
C44	C	1.384070	-0.839203	0.371634
C45	C	1.451211	-0.797851	0.438868
C46	C	1.518389	-0.839052	0.506133
C47	C	1.585524	-0.797701	0.573372
C48	C	1.652708	-0.838900	0.640633
C49	C	1.652744	-0.921449	0.640651
C50	C	1.451175	-0.715303	0.438850
C51	C	1.585485	-0.715148	0.573353
C52	C	1.792373	-0.380744	0.506125
C53	C	1.909150	-0.380750	0.506131
C54	C	1.518418	-0.380653	0.780143
C55	C	1.518452	-0.380621	0.896919
C56	C	1.518456	-0.174561	0.506171
C57	C	1.518506	-0.086704	0.506197
C58	C	1.518322	-0.380748	0.233142
C59	C	1.518492	-0.380558	0.116366
C60	C	1.585682	-0.330062	0.951802
C61	C	1.585700	-0.330027	1.061526
C62	C	1.451255	-0.431119	1.061475
C63	C	1.451232	-0.431149	0.951753
C64	C	1.623323	-0.236770	1.211511
C65	C	1.690569	-0.186217	1.266397
C66	C	1.793084	-0.174098	1.230804
C67	C	1.828372	-0.212543	1.140327
C68	C	1.761132	-0.263101	1.085447
C69	C	1.658603	-0.275205	1.121038
C70	C	1.413620	-0.524408	0.801767
C71	C	1.346383	-0.574971	0.746884
C72	C	1.243867	-0.587098	0.782474
C73	C	1.208582	-0.548667	0.872955
C74	C	1.275819	-0.498104	0.927838
C75	C	1.378333	-0.485976	0.892240
H76	H	1.023793	-0.466733	0.234577
H77	H	1.497095	-0.514532	0.772774
H78	H	1.707366	-0.805223	0.695384
H79	H	0.919255	-0.472344	0.384004
H80	H	1.789865	-0.294405	1.011785
O81	O	1.928030	-0.200793	1.105945
C82	C	1.999395	-0.224569	1.184164
H83	H	1.959090	-0.222977	1.263860
H84	H	2.027344	-0.287111	1.167095
C85	C	2.143548	-0.170161	1.087125
C86	C	2.094046	-0.168200	1.185010
H87	H	2.201935	-0.135393	1.087645
H88	H	2.095469	-0.154145	1.034425
H89	H	2.166829	-0.222283	1.072912
H90	H	2.070755	-0.116081	1.199216
H91	H	2.142124	-0.184206	1.237713
H92	H	1.123242	-0.558326	0.112449
H93	H	1.707440	-0.955000	0.695412
H94	H	0.685667	-0.155313	0.649849
O95	O	1.296150	-0.635980	0.165896
C96	C	1.383633	-0.667339	0.218981
H97	H	1.406140	-0.626614	0.286449
H98	H	1.363196	-0.728131	0.251137
C99	C	1.448754	-0.724505	0.059526
C100	C	1.476403	-0.674482	0.142386
H101	H	1.505979	-0.728916	0.012279
H102	H	1.389813	-0.703381	0.023761
H103	H	1.431723	-0.775161	0.086336
H104	H	1.493421	-0.623826	0.115577
H105	H	1.535349	-0.695598	0.178144
H106	H	1.847836	-0.132936	1.275501
H107	H	1.352100	-0.606155	0.362394
H108	H	1.396470	-0.681762	0.384093
H109	H	1.189128	-0.628278	0.737784
O110	O	1.650588	-0.675017	0.638822
C111	C	1.627601	-0.695160	0.743516
H112	H	1.543679	-0.717898	0.748752
H113	H	1.683941	-0.743029	0.771036
C114	C	1.742826	-0.593857	0.807201
C115	C	1.639748	-0.621778	0.813633
H116	H	1.750323	-0.548593	0.850454
H117	H	1.758317	-0.580288	0.736666
H118	H	1.789764	-0.633755	0.830132
H119	H	1.592814	-0.581885	0.790690
H120	H	1.624250	-0.635339	0.884166
H121	H	1.640344	-1.078902	0.628195
H122	H	1.329366	-0.805664	0.316866
O123	O	1.386169	-1.085577	0.373481
C124	C	1.409197	-1.065473	0.268782
H125	H	1.449560	-1.005518	0.266623
H126	H	1.463250	-1.111927	0.233458
C127	C	1.257232	-1.135387	0.207701
C128	C	1.306799	-1.061746	0.205049
H129	H	1.194070	-1.133091	0.168385
H130	H	1.241719	-1.148934	0.278238
H131	H	1.302287	-1.174091	0.178266
H132	H	1.261749	-1.023045	0.234496
H133	H	1.322302	-1.048192	0.134515
H134	H	1.118481	-0.289130	0.628237
H135	H	1.640413	-0.288916	0.907159
H136	H	0.914489	-0.203197	0.899813
O137	O	1.318799	-0.961798	0.306318
C138	C	1.259511	-0.907736	0.246934
H139	H	1.255819	-0.848869	0.289948
H140	H	1.298017	-0.898982	0.167170
C141	C	1.152254	-1.012331	0.178878
C142	C	1.147712	-0.940030	0.231713
H143	H	1.083292	-1.032252	0.169484
H144	H	1.192199	-1.048754	0.218882
H145	H	1.184346	-1.005025	0.112414
H146	H	1.115632	-0.947338	0.298181
H147	H	1.107758	-0.903609	0.191719
O148	O	1.241617	-0.460643	1.015664
C149	C	1.247994	-0.378394	1.000928
H150	H	1.308431	-0.364833	0.937668
H151	H	1.168217	-0.354827	0.975703
C152	C	1.206857	-0.355361	1.182057
C153	C	1.281093	-0.338705	1.104367
H154	H	1.227269	-0.330877	1.245863
H155	H	1.202557	-0.410773	1.191985
H156	H	1.140382	-0.335721	1.161023
H157	H	1.347562	-0.358353	1.125396
H158	H	1.285405	-0.283295	1.094445
H159	H	1.661827	-0.154915	1.340064
O160	O	1.108952	-0.560505	0.907366
C161	C	1.057182	-0.613388	0.839539
H162	H	1.096842	-0.612507	0.759502
H163	H	1.061116	-0.675481	0.873490
C164	C	0.893030	-0.589546	0.926005
C165	C	0.941736	-0.588460	0.827700
H166	H	0.821817	-0.574172	0.918705
H167	H	0.927908	-0.553920	0.971705
H168	H	0.896319	-0.641292	0.954287
H169	H	0.938458	-0.536712	0.799426
H170	H	0.906855	-0.624076	0.781995
O171	O	0.741649	-0.125478	0.846337
C172	C	0.654134	-0.094155	0.793268
H173	H	0.668383	-0.096670	0.705134
H174	H	0.581450	-0.130175	0.813475
C175	C	0.619976	-0.004791	0.935308
C176	C	0.637480	-0.007875	0.827059
H177	H	0.609698	0.048428	0.956154
H178	H	0.678934	-0.025897	0.971064
H179	H	0.559407	-0.034813	0.952133
H180	H	0.698054	0.022138	0.810238
H181	H	0.578531	0.013237	0.791301
H182	H	1.013947	-0.294778	0.777665
H183	H	0.785115	-0.246882	0.527711
H184	H	1.252651	-0.514573	0.484527
H185	H	1.539845	-0.246627	1.240494
H186	H	1.396529	-0.472259	1.106135
H187	H	1.375126	-0.606271	0.673217
