data_functionalizedCrystal
_audit_creation_method	'MofGen! by Chris Wilmer'
_symmetry_space_group_name_H-M	'P1'
_symmetry_Int_Tables_number	1
_symmetry_cell_setting	triclinic
loop_
_symmetry_equiv_pos_as_xyz
  x,y,z
_cell_length_a	13.635800
_cell_length_b	10.992421
_cell_length_c	19.551833
_cell_angle_alpha	85.521057
_cell_angle_beta	101.663477
_cell_angle_gamma	71.235237
loop_
_atom_site_label
_atom_site_type_symbol
_atom_site_fract_x
_atom_site_fract_y
_atom_site_fract_z
V1	V	2.016744	-0.179108	0.217848
O2	O	1.996575	0.007221	0.213711
O3	O	2.005811	-0.353807	0.216349
O4	O	1.987928	-0.176961	0.312864
O5	O	2.014582	-0.170850	0.116528
V6	V	2.257437	-0.156749	0.205731
O7	O	2.149717	-0.228154	0.244429
O8	O	2.349562	-0.107703	0.179150
O9	O	2.156766	0.017951	0.207230
O10	O	2.336305	-0.343077	0.209868
O11	O	2.318298	-0.165006	0.307051
O12	O	2.174650	-0.158896	0.110715
V13	V	2.516744	-0.179108	0.217848
O14	O	2.496575	0.007221	0.213711
O15	O	2.505811	-0.353807	0.216349
O16	O	2.487928	-0.176961	0.312864
O17	O	2.514582	-0.170850	0.116528
V18	V	2.757437	-0.156749	0.205731
O19	O	2.649717	-0.228154	0.244429
O20	O	2.849562	-0.107703	0.179150
O21	O	2.656766	0.017951	0.207230
O22	O	2.836305	-0.343077	0.209868
O23	O	2.818298	-0.165006	0.307051
O24	O	2.674650	-0.158896	0.110715
C25	C	1.931689	-0.396376	0.212909
C26	C	1.963363	-0.539199	0.212317
C27	C	1.898080	-0.734457	0.207539
C28	C	1.864976	-0.585815	0.207878
C29	C	2.010745	-0.577432	0.147156
C30	C	2.042991	-0.725971	0.146466
C31	C	2.083984	-0.765378	0.280042
C32	C	2.049195	-0.616874	0.281455
C33	C	1.908876	-0.170789	0.336023
C34	C	1.926046	-0.170190	0.413699
C35	C	2.062561	0.060513	0.210667
C36	C	2.020506	0.203335	0.211265
C37	C	2.085373	-0.165071	0.087552
C38	C	2.057822	-0.165664	0.009876
C39	C	2.431689	-0.396376	0.212909
C40	C	2.463363	-0.539199	0.212317
C41	C	2.408876	-0.170789	0.336023
C42	C	2.426046	-0.170190	0.413699
C43	C	2.025488	-0.176357	0.453746
C44	C	2.041621	-0.175794	0.526730
C45	C	1.958312	-0.169090	0.559667
C46	C	1.858853	-0.162914	0.519610
C47	C	1.842720	-0.163464	0.446626
C48	C	1.932216	-0.238948	0.678975
C49	C	1.948354	-0.238406	0.751959
C50	C	2.008066	-0.167387	0.784774
C51	C	2.051658	-0.096927	0.744599
C52	C	2.035525	-0.097478	0.671614
C53	C	1.975795	-0.168492	0.638806
C54	C	2.125007	-0.172942	0.903959
C55	C	2.141135	-0.172371	0.976944
C56	C	1.958367	-0.159503	0.969824
C57	C	1.942239	-0.160062	0.896839
C58	C	2.025565	-0.166788	0.863912
C59	C	2.562561	0.060513	0.210667
C60	C	2.520506	0.203335	0.211265
C61	C	2.585373	-0.165071	0.087552
C62	C	2.557822	-0.165664	0.009876
C63	C	2.525493	-0.176336	0.453737
C64	C	2.541635	-0.175756	0.526721
C65	C	2.458331	-0.169039	0.559665
C66	C	2.358875	-0.162888	0.519621
C67	C	2.342732	-0.163459	0.446638
C68	C	2.458894	-0.172367	-0.023051
C69	C	2.432988	-0.172908	-0.096037
C70	C	2.506016	-0.166757	-0.136094
C71	C	2.604952	-0.160050	-0.103163
C72	C	2.630853	-0.159499	-0.030179
C73	C	2.398080	-0.734457	0.207539
C74	C	2.364976	-0.585815	0.207878
C75	C	2.510745	-0.577432	0.147156
C76	C	2.542991	-0.725971	0.146466
C77	C	2.583984	-0.765378	0.280042
C78	C	2.549195	-0.616874	0.281455
H79	H	1.827784	-0.560338	0.254438
H80	H	1.876592	-0.781163	0.253809
F81	F	2.605738	-0.537918	0.148135
F82	F	2.736153	-0.152381	0.004857
H83	H	2.291055	-0.157420	0.546456
H84	H	2.071018	-0.040105	0.638906
H85	H	1.883580	-0.296772	0.652262
F86	F	1.869695	-0.152348	1.004871
H87	H	2.352426	-0.178369	-0.122838
H88	H	2.327784	-0.560338	0.254438
F89	F	2.369988	-0.795511	0.268015
H90	H	2.664403	-0.155038	-0.135789
F91	F	1.834419	-0.760927	0.142709
F92	F	2.647492	-0.182310	0.569327
F93	F	2.145324	-0.577454	0.290968
F94	F	2.381156	-0.178914	0.019569
H95	H	2.349378	-0.754710	0.157939
H96	H	2.593336	-0.181809	0.426924
F97	F	2.279833	-0.516862	0.142994
H98	H	2.261751	-0.158457	0.414044
H99	H	2.222112	-0.177384	1.009549
F100	F	2.483116	-0.748449	0.078843
F101	F	2.475529	-0.168436	0.637342
H102	H	1.799837	-0.533066	0.158237
F103	F	2.478436	-0.167348	-0.213770
F104	F	2.147465	-0.182352	0.569359
H105	H	2.631116	-0.766853	0.146363
F106	F	2.700693	-0.819134	0.284502
H107	H	2.449938	-0.522878	0.095971
F108	F	1.983116	-0.748449	0.078843
F109	F	2.567903	-0.830505	0.344488
F110	F	2.105738	-0.537918	0.148135
F111	F	2.505491	-0.586041	0.344469
F112	F	1.836401	-0.153515	0.854218
H113	H	1.791022	-0.157451	0.546431
F114	F	2.158175	-0.779411	0.146333
F115	F	1.931269	-0.506128	0.080252
F116	F	2.005491	-0.586041	0.344469
H117	H	2.173276	-0.806516	0.283457
H118	H	2.622737	-0.586711	0.288733
H119	H	2.093339	-0.181829	0.426941
F120	F	2.115216	-0.021344	0.779517
F121	F	2.067903	-0.830505	0.344488
F122	F	2.213686	-0.180092	0.868912
H123	H	1.912864	-0.295786	0.784665
F124	F	1.736876	-0.156903	0.404004
