data_functionalizedCrystal
_audit_creation_method	'MofGen! by Chris Wilmer'
_symmetry_space_group_name_H-M	'P1'
_symmetry_Int_Tables_number	1
_symmetry_cell_setting	triclinic
loop_
_symmetry_equiv_pos_as_xyz
  x,y,z
_cell_length_a	12.759401
_cell_length_b	18.050589
_cell_length_c	12.759393
_cell_angle_alpha	89.969379
_cell_angle_beta	89.981504
_cell_angle_gamma	90.028382
loop_
_atom_site_label
_atom_site_type_symbol
_atom_site_fract_x
_atom_site_fract_y
_atom_site_fract_z
Zn1	Zn	1.606157	-0.295612	-0.593988
Zn2	Zn	1.606010	-0.419823	-0.418311
Zn3	Zn	1.430459	-0.295651	-0.418328
Zn4	Zn	1.430406	-0.419766	-0.593953
O5	O	1.518258	-0.357713	-0.506145
O6	O	1.753158	-0.312097	-0.570692
O7	O	1.582683	-0.403391	-0.271292
O8	O	1.453849	-0.191722	-0.441651
O9	O	1.753050	-0.403354	-0.441623
O10	O	1.582934	-0.191693	-0.570708
O11	O	1.453706	-0.312163	-0.271304
O12	O	1.283431	-0.312108	-0.441617
O13	O	1.453759	-0.403256	-0.740979
O14	O	1.283392	-0.403294	-0.570648
O15	O	1.582882	-0.312041	-0.741005
O16	O	1.582632	-0.523740	-0.441589
O17	O	1.453616	-0.523698	-0.570632
C18	C	1.245290	-0.357699	-0.506131
C19	C	1.128514	-0.357711	-0.506149
C20	C	1.073659	-0.405268	-0.573225
C21	C	0.963935	-0.405277	-0.573236
C22	C	0.963930	-0.310171	-0.439088
C23	C	1.073652	-0.310159	-0.439083
C24	C	1.073661	-0.460179	-0.650671
C25	C	0.963937	-0.460188	-0.650683
C26	C	1.518131	-0.550665	-0.506127
C27	C	1.518173	-0.633211	-0.506155
C28	C	1.448083	-0.832666	-0.576304
C29	C	1.422469	-0.882114	-0.480436
C30	C	1.518276	-0.784341	-0.506169
C31	C	1.543942	-0.881974	-0.602048
C32	C	1.518374	-0.930326	-0.506191
C33	C	1.492611	-0.832703	-0.410250
C34	C	1.614129	-0.832558	-0.531927
C35	C	1.588551	-0.881985	-0.435992
C36	C	1.518217	-0.700243	-0.506158
C37	C	1.518433	-1.014423	-0.506191
C38	C	1.792291	-0.357727	-0.506160
C39	C	1.909068	-0.357733	-0.506166
C40	C	1.518331	-0.357638	-0.780178
C41	C	1.518363	-0.357606	-0.896955
C42	C	1.518414	-0.164007	-0.506185
C43	C	1.518480	-0.081462	-0.506203
C44	C	1.585606	-0.310106	-0.951832
C45	C	1.585631	-0.310079	-1.061557
C46	C	1.451166	-0.405059	-1.061516
C47	C	1.451136	-0.405081	-0.951794
C48	C	1.663242	-0.255273	-0.951857
C49	C	1.663267	-0.255246	-1.061581
C50	C	1.518245	-0.357734	-0.233178
C51	C	1.518417	-0.357557	-0.116401
H52	H	0.934122	-0.517692	-0.628752
C53	C	1.633853	-0.177580	-0.911645
C54	C	1.610183	-0.114924	-0.990086
C55	C	1.580792	-0.037235	-0.949874
C56	C	1.575072	-0.022202	-0.831221
C57	C	1.598743	-0.084860	-0.752772
C58	C	1.628133	-0.162549	-0.792984
H59	H	1.614416	-0.126051	-1.077927
H60	H	1.563269	0.009148	-1.007948
H61	H	1.553315	0.035308	-0.801453
H62	H	1.594509	-0.073733	-0.664931
H63	H	1.645656	-0.208933	-0.734910
H64	H	1.118311	-0.271429	-0.384470
C65	C	1.767633	-0.283106	-0.905876
C66	C	1.833163	-0.232194	-0.834598
C67	C	1.937558	-0.260024	-0.788622
C68	C	1.976422	-0.338766	-0.813923
C69	C	1.910891	-0.389682	-0.885204
C70	C	1.806496	-0.361853	-0.931180
H71	H	1.804395	-0.173901	-0.815866
H72	H	1.986068	-0.222332	-0.735855
H73	H	2.053701	-0.359367	-0.779888
H74	H	1.939659	-0.447976	-0.903936
H75	H	1.757986	-0.399545	-0.983948
H76	H	1.396430	-0.443710	-1.106180
H77	H	0.919248	-0.271455	-0.384485
C78	C	1.623976	-0.181422	-1.107592
C79	C	1.696069	-0.135110	-1.178929
C80	C	1.656774	-0.061291	-1.224944
C81	C	1.545387	-0.033785	-1.199622
C82	C	1.473287	-0.080098	-1.128281
C83	C	1.512582	-0.153917	-1.082266
H84	H	1.778531	-0.155470	-1.197677
H85	H	1.710148	-0.027006	-1.277756
H86	H	1.516299	0.020861	-1.233685
H87	H	1.390826	-0.059737	-1.109533
H88	H	1.459209	-0.188202	-1.029454
H89	H	1.744633	-0.270650	-1.091359
C90	C	1.367781	-0.803400	-0.656315
C91	C	1.250913	-0.822999	-0.644332
C92	C	1.170610	-0.793731	-0.724335
C93	C	1.207175	-0.744865	-0.816322
C94	C	1.324049	-0.725264	-0.828309
C95	C	1.404352	-0.754531	-0.748305
H96	H	1.223840	-0.859175	-0.576234
H97	H	1.084092	-0.808242	-0.715461
H98	H	1.147730	-0.723200	-0.875545
H99	H	1.351122	-0.689088	-0.896406
H100	H	1.490870	-0.740021	-0.757179
C101	C	1.313021	-0.911523	-0.451007
C102	C	1.223314	-0.856874	-0.427898
C103	C	1.113864	-0.886279	-0.398478
C104	C	1.094122	-0.970333	-0.392168
C105	C	1.183832	-1.024988	-0.415278
C106	C	1.293282	-0.995583	-0.444698
H107	H	1.237926	-0.794648	-0.432568
H108	H	1.047454	-0.845820	-0.381370
H109	H	1.013100	-0.992100	-0.370390
H110	H	1.169220	-1.087214	-0.410608
H111	H	1.359691	-1.036042	-0.461805
H112	H	1.103474	-0.444840	-0.732077
C113	C	1.463218	-0.803592	-0.300687
C114	C	1.457695	-0.719590	-0.280440
C115	C	1.428304	-0.690478	-0.170880
C116	C	1.404435	-0.745369	-0.081567
C117	C	1.409956	-0.829377	-0.101811
C118	C	1.439348	-0.858489	-0.211371
H119	H	1.475365	-0.678951	-0.346558
H120	H	1.424216	-0.628289	-0.155894
H121	H	1.382677	-0.723818	-0.000464
H122	H	1.392286	-0.870015	-0.035694
H123	H	1.443435	-0.920677	-0.226357
H124	H	0.929946	-0.439658	-0.728034
C125	C	1.119599	-0.533949	-0.611124
C126	C	1.045917	-0.597174	-0.577239
C127	C	1.091856	-0.670944	-0.537691
C128	C	1.211477	-0.681489	-0.532026
C129	C	1.285167	-0.618262	-0.565912
C130	C	1.239228	-0.544492	-0.605460
H131	H	0.957359	-0.589370	-0.581431
H132	H	1.037305	-0.717749	-0.512606
H133	H	1.245484	-0.736098	-0.502750
H134	H	1.373725	-0.626066	-0.561720
H135	H	1.293778	-0.497688	-0.630545
H136	H	1.647952	-0.903503	-0.376622
C137	C	1.573223	-0.911215	-0.711572
C138	C	1.504483	-0.891734	-0.806851
C139	C	1.533754	-0.920972	-0.916376
C140	C	1.631764	-0.969691	-0.930622
C141	C	1.700510	-0.989174	-0.835340
C142	C	1.671239	-0.959936	-0.725815
H143	H	1.431924	-0.855667	-0.796308
H144	H	1.482863	-0.906549	-0.986910
H145	H	1.653432	-0.991335	-1.011699
H146	H	1.773069	-1.025241	-0.845883
H147	H	1.722130	-0.974359	-0.655281
H148	H	1.695124	-0.810777	-0.553739
C149	C	1.377148	-0.457326	-0.891442
C150	C	1.257726	-0.451237	-0.906547
C151	C	1.183727	-0.503483	-0.846201
C152	C	1.229151	-0.561818	-0.770749
C153	C	1.348579	-0.567910	-0.755641
C154	C	1.422577	-0.515664	-0.815987
H155	H	1.224095	-0.408052	-0.962404
H156	H	1.095318	-0.498974	-0.857386
H157	H	1.174372	-0.600494	-0.726078
H158	H	1.382210	-0.611095	-0.699784
H159	H	1.510986	-0.520173	-0.804802
