data_functionalizedCrystal
_audit_creation_method	'MofGen! by Chris Wilmer'
_symmetry_space_group_name_H-M	'P1'
_symmetry_Int_Tables_number	1
_symmetry_cell_setting	triclinic
loop_
_symmetry_equiv_pos_as_xyz
  x,y,z
_cell_length_a	19.077236
_cell_length_b	18.050588
_cell_length_c	19.076919
_cell_angle_alpha	92.272257
_cell_angle_beta	89.887323
_cell_angle_gamma	92.322377
loop_
_atom_site_label
_atom_site_type_symbol
_atom_site_fract_x
_atom_site_fract_y
_atom_site_fract_z
Zn1	Zn	1.058268	-0.269585	-0.440545
Zn2	Zn	1.558268	0.230415	0.059455
Zn3	Zn	1.062898	-0.388600	-0.323039
Zn4	Zn	1.562898	0.111400	0.176961
Zn5	Zn	0.945484	-0.269196	-0.318325
Zn6	Zn	1.445484	0.230804	0.181675
Zn7	Zn	0.940717	-0.398508	-0.435778
Zn8	Zn	1.440717	0.101492	0.064222
O9	O	1.001842	-0.331472	-0.379422
O10	O	1.501842	0.168528	0.120578
O11	O	1.157217	-0.281389	-0.428926
O12	O	1.657217	0.218611	0.071074
O13	O	1.051256	-0.368452	-0.224083
O14	O	1.551256	0.131548	0.275917
O15	O	0.960503	-0.165321	-0.334560
O16	O	1.460503	0.334679	0.165440
O17	O	1.160618	-0.368829	-0.342595
O18	O	1.660618	0.131171	0.157405
O19	O	1.043365	-0.165607	-0.424354
O20	O	1.543365	0.334393	0.075646
O21	O	0.964992	-0.280726	-0.220619
O22	O	1.464992	0.219274	0.279381
O23	O	0.846518	-0.290333	-0.329937
O24	O	1.346518	0.209667	0.170063
O25	O	0.952378	-0.385716	-0.534741
O26	O	1.452378	0.114284	-0.034741
O27	O	0.843015	-0.385338	-0.416229
O28	O	1.343015	0.114662	0.083771
O29	O	1.038742	-0.290996	-0.538243
O30	O	1.538742	0.209004	-0.038243
O31	O	1.046633	-0.493841	-0.337973
O32	O	1.546633	0.006159	0.162027
O33	O	0.956867	-0.501120	-0.420801
O34	O	1.456867	-0.001120	0.079199
C35	C	0.819269	-0.338869	-0.372055
C36	C	1.319269	0.161131	0.127945
C37	C	0.741163	-0.342052	-0.368920
C38	C	1.241163	0.157948	0.131080
C39	C	0.702696	-0.298100	-0.412463
C40	C	1.202696	0.201900	0.087537
C41	C	0.629307	-0.301087	-0.409512
C42	C	1.129307	0.198913	0.090488
C43	C	0.594387	-0.348030	-0.363019
C44	C	1.094387	0.151970	0.136981
C45	C	0.632860	-0.391983	-0.319471
C46	C	1.132860	0.108017	0.180529
C47	C	0.706248	-0.388992	-0.322420
C48	C	1.206248	0.111008	0.177580
C49	C	0.375093	-0.361846	-0.349370
C50	C	0.875093	0.138154	0.150630
C51	C	0.301700	-0.364835	-0.346426
C52	C	0.801700	0.135165	0.153574
C53	C	0.298152	-0.273938	-0.436466
C54	C	0.798152	0.226062	0.063534
C55	C	0.371541	-0.270954	-0.439414
C56	C	0.871541	0.229046	0.060586
C57	C	0.410008	-0.314904	-0.395863
C58	C	0.910008	0.185096	0.104137
N59	N	0.519372	-0.351086	-0.360003
N60	N	1.019372	0.148914	0.139997
N61	N	0.485022	-0.311844	-0.398876
N62	N	0.985022	0.188156	0.101124
C63	C	1.001754	-0.524427	-0.379397
C64	C	1.501754	-0.024427	0.120603
C65	C	1.001779	-0.606973	-0.379413
C66	C	1.501779	-0.106973	0.120587
C67	C	0.953038	-0.859781	-0.424458
C68	C	1.453038	-0.359781	0.075542
C69	C	1.016420	-0.808470	-0.444280
C70	C	1.516420	-0.308470	0.055720
C71	C	1.001924	-0.904089	-0.379458
C72	C	1.501924	-0.404089	0.120542
C73	C	0.938473	-0.808321	-0.359647
C74	C	1.438473	-0.308321	0.140353
C75	C	1.001849	-0.758106	-0.379437
C76	C	1.501849	-0.258106	0.120563
C77	C	1.065338	-0.853865	-0.399314
C78	C	1.565338	-0.353865	0.100686
C79	C	0.987349	-0.853721	-0.314650
C80	C	1.487349	-0.353721	0.185350
C81	C	1.050776	-0.802430	-0.334449
C82	C	1.550776	-0.302430	0.165551
C83	C	1.001965	-0.988186	-0.379471
C84	C	1.501965	-0.488186	0.120529
C85	C	1.001815	-0.674010	-0.379424
C86	C	1.501815	-0.174010	0.120576
C87	C	1.185127	-0.324047	-0.386818
C88	C	1.685127	0.175953	0.113182
C89	C	1.263233	-0.320883	-0.389970
C90	C	1.763233	0.179117	0.110030
C91	C	0.994512	-0.339505	-0.562701
C92	C	1.494512	0.160495	-0.062701
C93	C	0.991388	-0.342928	-0.640804
C94	C	1.491388	0.157072	-0.140804
C95	C	1.001949	-0.137764	-0.379463
C96	C	1.501949	0.362236	0.120537
C97	C	1.001995	-0.055217	-0.379480
C98	C	1.501995	0.444783	0.120520
C99	C	1.034884	-0.295223	-0.679321
C100	C	1.534884	0.204777	-0.179321
C101	C	1.031940	-0.298436	-0.752707
C102	C	1.531940	0.201564	-0.252707
C103	C	0.985504	-0.349359	-0.787574
C104	C	1.485504	0.150641	-0.287574
C105	C	0.942003	-0.397066	-0.749051
C106	C	1.442003	0.102934	-0.249051
C107	C	0.944944	-0.393848	-0.675667
C108	C	1.444944	0.106152	-0.175667
C109	C	0.971884	-0.364268	-1.006853
C110	C	1.471884	0.135732	-0.506853
C111	C	0.968948	-0.367483	-1.080243
C112	C	1.468948	0.132517	-0.580243
C113	C	1.058884	-0.268852	-1.083893
C114	C	1.558884	0.231148	-0.583893
C115	C	1.061824	-0.265642	-1.010508
C116	C	1.561824	0.234358	-0.510508
C117	C	1.018321	-0.313346	-0.971991
C118	C	1.518321	0.186654	-0.471991
N119	N	0.982495	-0.352647	-0.862585
N120	N	1.482495	0.147353	-0.362585
N121	N	1.021326	-0.310054	-0.896981
N122	N	1.521326	0.189946	-0.396981
C123	C	1.009184	-0.323416	-0.196857
C124	C	1.509184	0.176584	0.303143
C125	C	1.012444	-0.319778	-0.118760
C126	C	1.512444	0.180222	0.381240
H127	H	0.737567	-0.424781	-0.286961
H128	H	1.237567	0.075219	0.213039
H129	H	0.904191	-0.438526	-0.777445
H130	H	1.404191	0.061474	-0.277445
H131	H	0.273271	-0.403065	-0.308566
H132	H	0.773271	0.096935	0.191434
H133	H	0.909518	-0.432688	-0.644306
H134	H	1.409518	0.067312	-0.144306
C135	C	1.085961	-0.239204	-0.640974
C136	C	1.585961	0.260796	-0.140974
H137	H	1.111437	-0.211248	-0.674426
H138	H	1.611437	0.288752	-0.174426
H139	H	1.117711	-0.265112	-0.613576
H140	H	1.617711	0.234888	-0.113576
H141	H	1.060237	-0.206677	-0.611270
H142	H	1.560237	0.293323	-0.111270
C143	C	1.106639	-0.768762	-0.283033
C144	C	1.606639	-0.268762	0.216967
H145	H	1.151639	-0.784405	-0.297212
H146	H	1.651639	-0.284405	0.202788
H147	H	1.096695	-0.784941	-0.237156
H148	H	1.596695	-0.284941	0.262844
H149	H	1.106054	-0.716160	-0.283025
H150	H	1.606054	-0.216160	0.216975
H151	H	0.975029	-0.873685	-0.259866
H152	H	1.475029	-0.373685	0.240134
H153	H	0.731122	-0.259876	-0.450324
H154	H	1.231122	0.240124	0.049676
H155	H	1.094301	-0.230013	-1.115261
H156	H	1.594301	0.269987	-0.615261
C157	C	0.866033	-0.781186	-0.337036
C158	C	1.366033	-0.281186	0.162964
H159	H	0.831385	-0.800926	-0.369071
H160	H	1.331385	-0.300926	0.130929
H161	H	0.866666	-0.728527	-0.336786
H162	H	1.366666	-0.228527	0.163214
H163	H	0.855351	-0.797373	-0.291310
H164	H	1.355351	-0.297373	0.208690
H165	H	0.604423	-0.430201	-0.281613
H166	H	1.104423	0.069799	0.218387
H167	H	0.931132	-0.408953	-1.108629
H168	H	1.431132	0.091047	-0.608629
C169	C	0.586993	-0.252747	-0.457413
C170	C	1.086993	0.247253	0.042587
H171	H	0.538285	-0.261244	-0.448995
H172	H	1.038285	0.238756	0.051005
H173	H	0.597137	-0.265276	-0.505089
H174	H	1.097137	0.234724	-0.005089
H175	H	0.599444	-0.201890	-0.447697
H176	H	1.099444	0.298110	0.052303
C177	C	0.897303	-0.893632	-0.475919
C178	C	1.397303	-0.393632	0.024081
H179	H	0.907752	-0.878184	-0.521943
H180	H	1.407752	-0.378184	-0.021943
H181	H	0.852352	-0.877379	-0.462307
H182	H	1.352352	-0.377379	0.037693
H183	H	0.897436	-0.946224	-0.475265
H184	H	1.397436	-0.446224	0.024735
H185	H	1.067360	-0.259592	-0.784065
H186	H	1.567360	0.240408	-0.284065
H187	H	0.406404	-0.397634	-0.313909
H188	H	0.906404	0.102366	0.186091
C189	C	1.112904	-0.209627	-0.972159
C190	C	1.612904	0.290373	-0.472159
H191	H	1.138385	-0.181672	-1.005610
H192	H	1.638385	0.318328	-0.505610
H193	H	1.144651	-0.235544	-0.944764
H194	H	1.644651	0.264456	-0.444764
H195	H	1.087186	-0.177099	-0.942452
H196	H	1.587186	0.322901	-0.442452
H197	H	1.028720	-0.788524	-0.499078
H198	H	1.528720	-0.288524	0.000922
C199	C	0.924039	-0.416744	-0.964491
C200	C	1.424039	0.083256	-0.464491
H201	H	0.932433	-0.407533	-0.915792
H202	H	1.432433	0.092467	-0.415792
H203	H	0.933814	-0.466753	-0.976923
H204	H	1.433814	0.033247	-0.476923
H205	H	0.876348	-0.408310	-0.974615
H206	H	1.376348	0.091690	-0.474615
C207	C	0.409951	-0.219322	-0.490557
C208	C	0.909951	0.280678	0.009443
H209	H	0.459167	-0.223842	-0.486083
H210	H	0.959167	0.276158	0.013917
H211	H	0.398352	-0.169447	-0.479881
H212	H	0.898352	0.330553	0.020119
H213	H	0.396038	-0.232838	-0.537269
H214	H	0.896038	0.267162	-0.037269
C215	C	0.255838	-0.225590	-0.484361
C216	C	0.755838	0.274410	0.015639
H217	H	0.207130	-0.234088	-0.475944
H218	H	0.707130	0.265912	0.024056
H219	H	0.265982	-0.238110	-0.532039
H220	H	0.765982	0.261890	-0.032039
H221	H	0.268291	-0.174735	-0.474636
H222	H	0.768291	0.325265	0.025364
C223	C	1.137802	-0.880850	-0.422026
C224	C	1.637802	-0.380850	0.077974
H225	H	1.137380	-0.933493	-0.421918
H226	H	1.637380	-0.433493	0.078082
H227	H	1.172517	-0.860724	-0.390263
H228	H	1.672517	-0.360724	0.109737
H229	H	1.148207	-0.864989	-0.467921
H230	H	1.648207	-0.364989	0.032079
