data_functionalizedCrystal
_audit_creation_method	'MofGen! by Chris Wilmer'
_symmetry_space_group_name_H-M	'P1'
_symmetry_Int_Tables_number	1
_symmetry_cell_setting	triclinic
loop_
_symmetry_equiv_pos_as_xyz
  x,y,z
_cell_length_a	15.995355
_cell_length_b	15.995292
_cell_length_c	9.798715
_cell_angle_alpha	90.000361
_cell_angle_beta	89.999828
_cell_angle_gamma	96.518589
loop_
_atom_site_label
_atom_site_type_symbol
_atom_site_fract_x
_atom_site_fract_y
_atom_site_fract_z
O1	O	-1.110960	0.107945	-0.113349
O2	O	-0.867183	0.121269	-0.113379
O3	O	-0.995761	-0.007284	-0.113365
O4	O	-0.982382	0.236498	-0.113363
O5	O	-0.995750	-0.007283	0.113617
O6	O	-0.867172	0.121270	0.113603
O7	O	-1.110950	0.107946	0.113633
Zn8	Zn	-0.989060	0.114608	0.149656
Zn9	Zn	-0.989073	0.114607	-0.149402
O10	O	-0.982372	0.236499	0.113619
C11	C	-0.835983	0.120718	0.000108
C12	C	-0.743033	0.119065	0.000096
C13	C	-0.572848	0.116063	0.000114
C14	C	-0.549522	0.023263	0.000113
C15	C	-0.452845	0.021513	0.000637
C16	C	-0.405290	0.113107	0.000132
C17	C	-0.434366	0.159770	0.129492
C18	C	-0.531158	0.160875	0.129592
C19	C	-0.531080	0.162233	-0.128538
C20	C	-0.434586	0.158803	-0.130230
C21	C	-0.310593	0.111442	0.000146
C22	C	-0.667545	0.117732	0.000109
C23	C	-0.995211	-0.038479	0.000122
C24	C	-0.993579	-0.131432	0.000112
C25	C	-0.987577	-0.469171	0.000123
C26	C	-1.080382	-0.445857	0.000642
C27	C	-1.082145	-0.349181	0.000126
C28	C	-0.990555	-0.301615	0.000118
C29	C	-0.944164	-0.330717	-0.129501
C30	C	-0.943046	-0.427507	-0.129605
C31	C	-0.941139	-0.427364	0.128516
C32	C	-0.944578	-0.330871	0.130225
C33	C	-0.992233	-0.206918	0.000111
C34	C	-0.985897	-0.563866	0.000122
C35	C	-0.142151	0.108486	0.000144
C36	C	-0.235105	0.110106	0.000151
C37	C	-0.982922	0.267694	0.000129
C38	C	-0.984554	0.360647	0.000130
N39	N	-0.989056	0.114608	0.353756
C40	C	-1.043175	0.060516	0.578694
C41	C	-1.043164	0.060516	0.421531
N42	N	-0.989076	0.114607	0.646498
H43	H	-0.577541	-0.012706	-0.092638
H44	H	-0.942735	0.160916	0.412056
F45	F	-1.103700	-0.000019	0.345321
H46	H	-0.401616	0.225636	-0.138441
H47	H	-0.942756	0.160919	0.588197
F48	F	-1.129618	-0.324308	0.121589
H49	H	-0.545079	0.230540	-0.129784
F50	F	-0.566174	0.119133	0.256464
H51	H	-0.433838	-0.015015	-0.092075
F52	F	-0.856070	-0.289063	-0.135816
H53	H	-0.402506	0.227181	0.133940
H54	H	-0.559360	0.132956	-0.226620
H55	H	-0.416040	0.124821	-0.225933
F56	F	-0.587408	-0.022987	0.121184
H57	H	-0.434412	-0.014843	0.093910
H58	H	-0.976388	-0.310656	-0.225957
F59	F	-1.127134	-0.482449	0.122144
F60	F	-0.408110	0.117924	0.255804
H61	H	-1.115958	-0.474874	-0.091783
F62	F	-0.988726	-0.306598	0.255565
F63	F	-0.979086	-0.464347	0.256930
F64	F	-1.129924	-0.325120	-0.121526
H65	H	-0.545717	0.228928	0.135124
H66	H	-0.875002	-0.442059	-0.135483
F67	F	-0.985057	-0.462561	-0.256239
F68	F	-0.857196	-0.287781	0.140451
F69	F	-0.851853	-0.445652	0.129653
F70	F	-1.103729	-0.000012	0.654889
