data_functionalizedCrystal
_audit_creation_method	'MofGen! by Chris Wilmer'
_symmetry_space_group_name_H-M	'P1'
_symmetry_Int_Tables_number	1
_symmetry_cell_setting	triclinic
loop_
_symmetry_equiv_pos_as_xyz
  x,y,z
_cell_length_a	14.908571
_cell_length_b	18.101395
_cell_length_c	14.908308
_cell_angle_alpha	93.266316
_cell_angle_beta	90.175053
_cell_angle_gamma	86.727274
loop_
_atom_site_label
_atom_site_type_symbol
_atom_site_fract_x
_atom_site_fract_y
_atom_site_fract_z
Zn1	Zn	1.345208	-0.386468	-0.587575
Zn2	Zn	1.678541	-0.053135	-0.254242
Zn3	Zn	2.011875	0.280198	0.079092
Zn4	Zn	1.353762	-0.503604	-0.437213
Zn5	Zn	1.687095	-0.170270	-0.103880
Zn6	Zn	2.020429	0.163063	0.229453
Zn7	Zn	1.203527	-0.372244	-0.428573
Zn8	Zn	1.536860	-0.038911	-0.095240
Zn9	Zn	1.870193	0.294423	0.238094
Zn10	Zn	1.194790	-0.502724	-0.578865
Zn11	Zn	1.528123	-0.169391	-0.245532
Zn12	Zn	1.861457	0.163943	0.087802
O13	O	1.274322	-0.441260	-0.508057
O14	O	1.607655	-0.107927	-0.174723
O15	O	1.940988	0.225407	0.158610
O16	O	1.472167	-0.408328	-0.574890
O17	O	1.805501	-0.074994	-0.241557
O18	O	2.138834	0.258339	0.091776
O19	O	1.341069	-0.480594	-0.310243
O20	O	1.674402	-0.147261	0.023091
O21	O	2.007736	0.186073	0.356424
O22	O	1.222397	-0.270503	-0.449694
O23	O	1.555731	0.062830	-0.116361
O24	O	1.889064	0.396164	0.216972
O25	O	1.478452	-0.494387	-0.464420
O26	O	1.811785	-0.161053	-0.131087
O27	O	2.145119	0.172280	0.202246
O28	O	1.326490	-0.280953	-0.566512
O29	O	1.659824	0.052380	-0.233179
O30	O	1.993157	0.385713	0.100154
O31	O	1.230692	-0.384085	-0.303895
O32	O	1.564025	-0.050751	0.029439
O33	O	1.897358	0.282582	0.362772
O34	O	1.076543	-0.383231	-0.441249
O35	O	1.409876	-0.049898	-0.107915
O36	O	1.743210	0.283435	0.225418
O37	O	1.207507	-0.492887	-0.705845
O38	O	1.540840	-0.159554	-0.372512
O39	O	1.874174	0.173780	-0.039178
O40	O	1.070124	-0.479094	-0.551667
O41	O	1.403458	-0.145761	-0.218334
O42	O	1.736791	0.187572	0.114999
O43	O	1.318019	-0.407474	-0.712244
O44	O	1.651352	-0.074141	-0.378911
O45	O	1.984685	0.259192	-0.045578
O46	O	1.332598	-0.607115	-0.455974
O47	O	1.665931	-0.273782	-0.122641
O48	O	1.999264	0.059552	0.210692
O49	O	1.215801	-0.606469	-0.560045
O50	O	1.549135	-0.273135	-0.226712
O51	O	1.882468	0.060198	0.106621
C52	C	1.040709	-0.429524	-0.494576
C53	C	1.374042	-0.096191	-0.161242
C54	C	1.707375	0.237142	0.172091
C55	C	0.940767	-0.424523	-0.488830
C56	C	1.274100	-0.091189	-0.155496
C57	C	1.607434	0.242144	0.177837
C58	C	0.746339	-0.515086	-0.592857
C59	C	1.079672	-0.181753	-0.259524
C60	C	1.413006	0.151581	0.073810
C61	C	0.652434	-0.510389	-0.587462
C62	C	0.985768	-0.177056	-0.254128
C63	C	1.319101	0.156278	0.079205
C64	C	0.659052	-0.410428	-0.472648
C65	C	0.992385	-0.077095	-0.139315
C66	C	1.325718	0.256238	0.194019
C67	C	0.752956	-0.415125	-0.478044
C68	C	1.086289	-0.081792	-0.144710
C69	C	1.419623	0.251541	0.188623
C70	C	0.796596	-0.467457	-0.538149
C71	C	1.129930	-0.134124	-0.204816
C72	C	1.463263	0.199210	0.128517
C73	C	0.890503	-0.472157	-0.543540
C74	C	1.223836	-0.138824	-0.210206
C75	C	1.557169	0.194510	0.123127
C76	C	0.897118	-0.372193	-0.428731
C77	C	1.230451	-0.038860	-0.095398
C78	C	1.563784	0.294473	0.237935
C79	C	0.803213	-0.367496	-0.423336
C80	C	1.136547	-0.034163	-0.090003
C81	C	1.469880	0.299170	0.243331
C82	C	1.274203	-0.633663	-0.508023
C83	C	1.607536	-0.300330	-0.174690
C84	C	1.940870	0.033003	0.158643
C85	C	1.274233	-0.715980	-0.508044
C86	C	1.607566	-0.382646	-0.174710
C87	C	1.940899	-0.049313	0.158623
C88	C	1.274427	-1.015083	-0.508104
C89	C	1.607760	-0.681749	-0.174770
C90	C	1.941094	-0.348416	0.158563
C91	C	1.201093	-0.983397	-0.573764
C92	C	1.534427	-0.650064	-0.240431
C93	C	1.867760	-0.316731	0.092903
C94	C	1.200777	-0.897753	-0.573527
C95	C	1.534110	-0.564420	-0.240194
C96	C	1.867443	-0.231087	0.093140
C97	C	1.274331	-0.866694	-0.508075
C98	C	1.607664	-0.533361	-0.174741
C99	C	1.940997	-0.200028	0.158592
C100	C	1.254147	-0.892332	-0.411835
C101	C	1.587481	-0.558999	-0.078502
C102	C	1.920814	-0.225665	0.254831
C103	C	1.253677	-0.977973	-0.412227
C104	C	1.587010	-0.644640	-0.078893
C105	C	1.920343	-0.311307	0.254440
C106	C	1.368144	-0.989281	-0.537857
C107	C	1.701477	-0.655948	-0.204524
C108	C	2.034811	-0.322615	0.128810
C109	C	1.367465	-0.903695	-0.539903
C110	C	1.700798	-0.570361	-0.206570
C111	C	2.034131	-0.237028	0.126764
C112	C	1.274278	-0.782831	-0.508053
C113	C	1.607611	-0.449498	-0.174719
C114	C	1.940945	-0.116165	0.158614
C115	C	1.274478	-1.098945	-0.508119
C116	C	1.607811	-0.765612	-0.174786
C117	C	1.941145	-0.432279	0.158548
C118	C	1.508847	-0.453042	-0.521591
C119	C	1.842180	-0.119709	-0.188257
C120	C	2.175513	0.213625	0.145076
C121	C	1.608787	-0.458063	-0.527358
C122	C	1.942121	-0.124729	-0.194025
C123	C	2.275454	0.208604	0.139309
C124	C	1.260834	-0.451669	-0.742582
C125	C	1.594168	-0.118336	-0.409248
C126	C	1.927501	0.214997	-0.075915
C127	C	1.255087	-0.456105	-0.842522
C128	C	1.588420	-0.122772	-0.509189
C129	C	1.921753	0.210562	-0.175856
C130	C	1.274464	-0.248107	-0.508111
C131	C	1.607798	0.085226	-0.174778
C132	C	1.941131	0.418559	0.158555
C133	C	1.274525	-0.165797	-0.508134
C134	C	1.607858	0.167536	-0.174801
C135	C	1.941192	0.500869	0.158532
C136	C	1.359359	-0.375483	-1.036986
C137	C	1.692693	-0.042150	-0.703653
C138	C	2.026026	0.291184	-0.370320
C139	C	1.353962	-0.379648	-1.130890
C140	C	1.687295	-0.046315	-0.797556
C141	C	2.020629	0.287018	-0.464223
C142	C	1.238890	-0.468597	-1.124234
C143	C	1.572223	-0.135264	-0.790900
C144	C	1.905557	0.198070	-0.457567
C145	C	1.244288	-0.464432	-1.030330
C146	C	1.577621	-0.131098	-0.696997
C147	C	1.910954	0.202235	-0.363664
C148	C	1.304525	-0.417874	-0.986710
C149	C	1.637859	-0.084540	-0.653377
C150	C	1.971192	0.248793	-0.320044
C151	C	1.309927	-0.413713	-0.892805
C152	C	1.643260	-0.080379	-0.559472
C153	C	1.976593	0.252954	-0.226139
C154	C	1.194851	-0.502657	-0.886151
C155	C	1.528184	-0.169324	-0.552817
C156	C	1.861518	0.164010	-0.219484
C157	C	1.189453	-0.506822	-0.980054
C158	C	1.522787	-0.173489	-0.646721
C159	C	1.856120	0.159844	-0.313387
C160	C	1.287808	-0.430840	-0.274447
C161	C	1.621142	-0.097507	0.058886
C162	C	1.954475	0.235826	0.392220
C163	C	1.293730	-0.426205	-0.174517
C164	C	1.627064	-0.092871	0.158817
C165	C	1.960397	0.240462	0.492150
H166	H	0.611518	-0.549172	-0.632012
H167	H	0.944851	-0.215839	-0.298679
H168	H	1.278185	0.117494	0.034654
F169	F	0.612590	-0.354729	-0.408697
F170	F	0.945924	-0.021396	-0.075363
F171	F	1.279257	0.311937	0.257970
F172	F	1.322079	-0.865806	-0.345832
F173	F	1.655413	-0.532473	-0.012498
F174	F	1.988746	-0.199140	0.320835
F175	F	1.125346	-0.556368	-1.026488
F176	F	1.458680	-0.223035	-0.693154
F177	F	1.792013	0.110298	-0.359821
F178	F	1.136496	-0.547782	-0.832637
F179	F	1.469830	-0.214449	-0.499304
F180	F	1.803163	0.118885	-0.165970
F181	F	0.756758	-0.311802	-0.359374
F182	F	1.090091	0.021532	-0.026041
F183	F	1.423425	0.354865	0.307292
F184	F	1.374039	-0.364165	-0.846383
F185	F	1.707372	-0.030832	-0.513050
F186	F	2.040705	0.302502	-0.179716
F187	F	0.792787	-0.570786	-0.656817
F188	F	1.126120	-0.237453	-0.323483
F189	F	1.459453	0.095880	0.009850
F190	F	1.216451	-0.875368	-0.666577
F191	F	1.549784	-0.542034	-0.333243
F192	F	1.883117	-0.208701	0.000090
F193	F	0.936947	-0.527854	-0.607506
F194	F	1.270280	-0.194520	-0.274173
F195	F	1.603614	0.138813	0.059160
H196	H	0.938048	-0.333411	-0.384182
H197	H	1.271381	-0.000078	-0.050849
H198	H	1.604714	0.333255	0.282484
H199	H	1.189847	-0.506502	-1.159766
H200	H	1.523181	-0.173168	-0.826432
H201	H	1.856514	0.160165	-0.493099
H202	H	1.185333	-0.993611	-0.387659
H203	H	1.518666	-0.660277	-0.054325
H204	H	1.851999	-0.326944	0.279008
H205	H	1.212915	-1.007887	-0.645171
H206	H	1.546248	-0.674553	-0.311838
H207	H	1.879581	-0.341220	0.021495
F208	F	1.110699	-1.006105	-0.547751
F209	F	1.444032	-0.672772	-0.214418
F210	F	1.777366	-0.339439	0.118915
H211	H	1.131201	-0.873076	-0.553387
H212	H	1.464534	-0.539742	-0.220053
H213	H	1.797868	-0.206409	0.113280
H214	H	1.424553	-0.882912	-0.496001
H215	H	1.757887	-0.549579	-0.162668
H216	H	2.091220	-0.216246	0.170666
F217	F	1.423476	-0.325941	-0.990561
F218	F	1.756810	0.007392	-0.657228
F219	F	2.090143	0.340725	-0.323894
H220	H	1.305069	-0.998720	-0.361342
H221	H	1.638403	-0.665386	-0.028009
H222	H	1.971736	-0.332053	0.305325
F223	F	1.165806	-0.858653	-0.379296
F224	F	1.499139	-0.525320	-0.045963
F225	F	1.832473	-0.191986	0.287371
F226	F	1.412323	-0.334529	-1.184394
F227	F	1.745656	-0.001196	-0.851061
F228	F	2.078990	0.332137	-0.517728
H229	H	1.382784	-0.887413	-0.610757
H230	H	1.716117	-0.554080	-0.277423
H231	H	2.049451	-0.220746	0.055910
F232	F	1.393590	-1.022939	-0.628398
F233	F	1.726924	-0.689605	-0.295064
F234	F	2.060257	-0.356272	0.038269
H235	H	1.422713	-1.009859	-0.490101
H236	H	1.756046	-0.676526	-0.156767
H237	H	2.089380	-0.343192	0.176566
