data_functionalizedCrystal
_audit_creation_method	'MofGen! by Chris Wilmer'
_symmetry_space_group_name_H-M	'P1'
_symmetry_Int_Tables_number	1
_symmetry_cell_setting	triclinic
loop_
_symmetry_equiv_pos_as_xyz
  x,y,z
_cell_length_a	14.446369
_cell_length_b	20.919151
_cell_length_c	14.446369
_cell_angle_alpha	58.207165
_cell_angle_beta	90.002026
_cell_angle_gamma	58.213904
loop_
_atom_site_label
_atom_site_type_symbol
_atom_site_fract_x
_atom_site_fract_y
_atom_site_fract_z
Zr1	Zr	0.832635	0.741699	-0.180748
O2	O	0.673554	0.883071	-0.339859
O3	O	0.889218	0.600327	-0.124133
O4	O	0.877947	0.741691	-0.328547
O5	O	0.684824	0.741713	0.016883
O6	O	1.030285	0.741685	-0.328541
O7	O	0.684825	0.741707	-0.135445
O8	O	1.050446	0.488810	0.037119
O9	O	0.664663	0.994588	-0.348776
O10	O	1.017595	0.658471	-0.109453
O11	O	0.903906	0.658480	0.004223
O12	O	0.890636	0.824918	-0.236448
O13	O	0.776948	0.824927	-0.122772
Zr14	Zr	1.075595	0.741699	0.062208
Zr15	Zr	1.075596	0.741689	-0.180738
Zr16	Zr	0.832634	0.741709	0.062198
Zr17	Zr	0.818455	0.919556	-0.194969
Zr18	Zr	1.089775	0.563843	0.076430
O19	O	1.019012	0.883071	0.005593
O20	O	1.019013	0.883057	-0.339845
O21	O	0.673553	0.883085	0.005579
O22	O	1.234676	0.600327	0.221319
O23	O	1.234677	0.600313	-0.124119
O24	O	0.889217	0.600341	0.221305
O25	O	1.223406	0.741685	-0.135423
O26	O	1.030283	0.741707	0.210007
O27	O	0.877945	0.741713	0.210001
O28	O	1.223405	0.741691	0.016905
O29	O	0.857785	0.994580	-0.348768
O30	O	1.050445	0.488818	0.230228
O31	O	1.243567	0.488810	0.230236
O32	O	1.243568	0.488802	0.037126
O33	O	0.664662	0.994596	-0.155666
O34	O	0.857784	0.994588	-0.155658
O35	O	1.017594	0.658480	0.117908
O36	O	1.131282	0.658471	0.004232
O37	O	1.004324	0.824918	-0.122763
O38	O	0.890635	0.824927	-0.009086
C39	C	0.971853	0.519228	-0.041481
C40	C	0.977873	0.443723	-0.035443
C41	C	0.650208	0.741711	-0.059282
C42	C	0.547065	0.741715	-0.059286
C43	C	0.320327	0.846683	-0.139020
C44	C	0.427553	0.846754	-0.139426
C45	C	0.547899	0.689568	-0.107415
C46	C	0.440077	0.690235	-0.107991
C47	C	0.441612	0.688080	0.068732
C48	C	0.547423	0.690058	0.068379
C49	C	0.891874	0.469708	-0.121461
C50	C	0.897533	0.398777	-0.115829
C51	C	0.989187	0.301861	-0.024174
C52	C	1.075194	0.275876	0.061849
C53	C	1.069539	0.346807	0.056211
C54	C	1.010709	0.084621	-0.002712
C55	C	1.016356	0.013690	0.002921
C56	C	0.838695	0.136596	-0.174759
C57	C	0.833045	0.207522	-0.180384
C58	C	0.919055	0.181532	-0.094365
C59	C	0.994971	0.229356	-0.018413
C60	C	0.913274	0.254036	-0.100132
C61	C	1.258022	0.741687	-0.059258
C62	C	1.361165	0.741683	-0.059254
C63	C	0.954116	0.741687	-0.363158
C64	C	0.954117	0.741683	-0.466295
C65	C	0.936377	0.964170	-0.077059
C66	C	0.930357	1.039675	-0.083096
C67	C	1.034545	0.636715	-0.532882
C68	C	1.034239	0.636644	-0.425547
C69	C	0.826429	0.793830	-0.545029
C70	C	0.826877	0.793163	-0.651835
C71	C	1.000313	0.795318	-0.653574
C72	C	1.002970	0.793340	-0.544745
C73	C	0.954114	0.741711	0.244618
C74	C	0.954113	0.741715	0.347755
C75	C	1.275760	0.519216	-0.041469
C76	C	1.384923	0.443707	-0.035427
C77	C	0.971851	0.519240	0.262408
C78	C	0.977871	0.443739	0.371582
C79	C	1.275758	0.519228	0.262420
C80	C	1.384921	0.443723	0.371598
C81	C	0.632472	0.964170	-0.380960
C82	C	0.523309	1.039675	-0.490138
C83	C	0.632470	0.964183	-0.077071
C84	C	0.523307	1.039691	-0.083113
C85	C	0.936379	0.964158	-0.380947
C86	C	0.930359	1.039659	-0.490122
C87	C	1.376844	0.408247	-0.091943
C88	C	1.479404	0.337308	-0.086289
C89	C	1.590043	0.301826	-0.024113
C90	C	1.598120	0.337292	0.032404
C91	C	1.495560	0.408235	0.026743
C92	C	1.040041	0.408284	0.482204
C93	C	1.045692	0.337353	0.584794
C94	C	0.989179	0.301874	0.576759
C95	C	0.927001	0.337337	0.466124
C96	C	0.921343	0.408271	0.363537
C97	C	1.495539	0.408261	0.363532
C98	C	1.598118	0.337326	0.466107
C99	C	1.590076	0.301850	0.576747
C100	C	1.479446	0.337319	0.584811
C101	C	1.376869	0.408258	0.482237
C102	C	0.412690	1.075146	-0.482072
C103	C	0.310109	1.146103	-0.584649
C104	C	0.318151	1.181583	-0.695290
C105	C	0.428782	1.146109	-0.703353
C106	C	0.531359	1.075158	-0.600778
C107	C	0.531386	1.075159	-0.026608
C108	C	0.428824	1.146117	-0.032289
C109	C	0.318185	1.181602	-0.094469
C110	C	0.310108	1.146132	-0.150981
C111	C	0.412669	1.075180	-0.145306
C112	C	0.986886	1.075115	-0.482049
C113	C	0.981253	1.146046	-0.584620
C114	C	0.919085	1.181525	-0.695263
C115	C	0.862557	1.146062	-0.703333
C116	C	0.868198	1.075127	-0.600763
H117	H	0.422515	0.887876	-0.107907
H118	H	1.688216	0.308392	0.083026
C119	C	0.368069	0.740295	-0.234966
N120	N	0.313834	0.778004	-0.330608
H121	H	0.993794	0.244115	0.660301
H122	H	0.914501	1.239285	-0.778773
H123	H	0.234617	1.239355	-0.778803
C124	C	0.403763	1.036163	-0.207455
N125	N	0.397047	1.006777	-0.254268
C126	C	0.864847	0.298295	0.457306
N127	N	0.818041	0.268881	0.450668
H128	H	0.263085	0.887894	-0.107412
C129	C	0.852963	0.447255	0.241856
N130	N	0.801457	0.476612	0.150207
H131	H	0.632325	0.612337	-0.051759
C132	C	0.188428	1.185110	-0.575753
N133	N	0.096780	1.214488	-0.569048
H134	H	0.811942	1.174960	-0.793433
H135	H	1.286765	0.437136	-0.142588
H136	H	0.621464	1.046272	0.024033
C137	C	1.055286	1.036096	-0.360350
N138	N	1.106815	1.006707	-0.268690
C139	C	1.176015	0.169265	0.162671
N140	N	1.251952	0.088965	0.238615
H141	H	0.822162	1.046267	-0.607353
C142	C	0.437735	1.185113	0.029893
N143	N	0.444450	1.214481	0.076732
H144	H	1.097015	0.755310	-0.490283
H145	H	1.139568	0.325643	0.126256
C146	C	1.504468	0.447223	0.088933
N147	N	1.511186	0.476585	0.135780
H148	H	0.838654	0.332947	-0.174761
H149	H	0.220012	1.175035	-0.201608
H150	H	0.768672	0.157747	-0.244792
C151	C	1.470620	0.298278	0.706528
N152	N	1.463976	0.268864	0.798209
C153	C	1.114108	0.298348	0.706480
N154	N	1.165643	0.268968	0.798131
H155	H	1.003127	0.595712	-0.528571
C156	C	1.702852	0.223780	-0.017888
N157	N	1.787816	0.164993	-0.013198
H158	H	1.673610	0.244087	0.660260
C159	C	1.255192	0.447257	0.491130
N160	N	1.163546	0.476629	0.497837
H161	H	0.406120	1.046263	-0.391992
H162	H	0.262073	0.887689	-0.232997
H163	H	1.027284	1.174913	-0.578026
C164	C	0.653039	1.036136	-0.609669
N165	N	0.744686	1.006746	-0.616375
H166	H	0.435315	1.175005	-0.793449
C167	C	1.117180	-0.092924	0.103761
N168	N	1.193112	-0.173223	0.179714
H169	H	0.234683	1.239376	-0.099081
C170	C	1.095782	0.122743	0.082412
N171	N	1.171713	0.042441	0.158353
C172	C	0.419815	0.902363	-0.267148
N173	N	0.413988	0.944246	-0.363352
H174	H	0.472873	0.613198	-0.053210
H175	H	1.086062	0.437162	0.488769
H176	H	1.128465	0.595731	-0.367999
C177	C	0.776288	0.743099	-0.647468
N178	N	0.738187	0.705386	-0.644171
H179	H	0.388909	0.721679	0.109734
H180	H	0.547147	0.725783	-0.200473
H181	H	0.632692	0.613427	0.132156
C182	C	0.487019	0.583584	0.149264
N183	N	0.521211	0.504882	0.209912
C184	C	0.542640	0.741417	0.117061
N185	N	0.539046	0.780101	0.153727
H186	H	0.817228	0.548619	-0.196086
H187	H	0.764249	0.871061	-0.578438
C188	C	0.802908	0.427368	-0.210437
N189	N	0.731625	0.448907	-0.281695
H190	H	0.758426	0.286433	-0.255036
H191	H	1.129031	0.595503	-0.527244
H192	H	1.002516	0.595469	-0.368470
C193	C	0.775357	0.744900	-0.471412
N194	N	0.736896	0.708040	-0.415962
C195	C	0.742136	0.897237	-0.766320
N196	N	0.678317	0.975625	-0.852546
H197	H	1.080746	0.063448	0.067331
H198	H	1.092583	0.761715	-0.655000
H199	H	0.949831	0.869970	-0.576389
H200	H	1.472805	0.308440	-0.132313
C201	C	0.921416	0.899814	-0.767599
N202	N	0.861987	0.978516	-0.853485
H203	H	1.502110	0.437134	0.273452
H204	H	1.688188	0.308454	0.459520
