data_functionalizedCrystal
_audit_creation_method	'MofGen! by Chris Wilmer'
_symmetry_space_group_name_H-M	'P1'
_symmetry_Int_Tables_number	1
_symmetry_cell_setting	triclinic
loop_
_symmetry_equiv_pos_as_xyz
  x,y,z
_cell_length_a	8.497366
_cell_length_b	21.395364
_cell_length_c	21.395361
_cell_angle_alpha	89.954341
_cell_angle_beta	90.057459
_cell_angle_gamma	89.965570
loop_
_atom_site_label
_atom_site_type_symbol
_atom_site_fract_x
_atom_site_fract_y
_atom_site_fract_z
Zn1	Zn	-0.891956	0.957920	0.249039
Zn2	Zn	-0.628125	0.957805	0.353864
Zn3	Zn	-0.628174	0.853117	0.249132
Zn4	Zn	-0.891848	0.853105	0.353810
O5	O	-0.760026	0.905487	0.301461
O6	O	-0.856982	1.045583	0.262928
O7	O	-0.407369	0.943875	0.340033
O8	O	-0.663231	0.867073	0.161442
O9	O	-0.663147	1.045498	0.339943
O10	O	-0.857030	0.944072	0.161373
O11	O	-0.407405	0.866961	0.263087
O12	O	-0.663127	0.765438	0.263034
O13	O	-1.112625	0.867052	0.339850
O14	O	-0.856847	0.765428	0.339940
O15	O	-1.112704	0.944059	0.262875
O16	O	-0.663042	0.943862	0.441535
O17	O	-0.856799	0.866940	0.441495
C18	C	-0.759981	0.742699	0.301492
C19	C	-0.760000	0.673058	0.301520
C20	C	-0.759938	0.905404	0.464249
C21	C	-0.759953	0.905426	0.533890
C22	C	-0.861086	0.640411	0.261484
C23	C	-0.861092	0.574976	0.261467
C24	C	-0.760029	0.542190	0.301498
C25	C	-0.658923	0.574844	0.341537
C26	C	-0.658908	0.640278	0.341548
C27	C	-0.747337	0.438464	0.357926
C28	C	-0.747363	0.373031	0.357916
C29	C	-0.760064	0.340369	0.301463
C30	C	-0.772773	0.373147	0.245019
C31	C	-0.772758	0.438581	0.245030
C32	C	-0.760032	0.471237	0.301490
C33	C	-0.861162	0.236770	0.261406
C34	C	-0.861157	0.171333	0.261388
C35	C	-0.658996	0.171203	0.341463
C36	C	-0.658993	0.236638	0.341475
C37	C	-0.760084	0.269418	0.301447
C38	C	-0.171506	0.905523	0.301404
C39	C	-0.350150	0.905440	0.301535
C40	C	-0.760071	1.068910	0.301431
C41	C	-0.760091	1.138551	0.301418
C42	C	-0.760148	0.905587	0.138038
C43	C	-0.760201	0.905630	0.068397
C44	C	-0.659168	0.945515	0.566603
C45	C	-0.659203	0.945544	0.632039
C46	C	-0.760007	0.905473	0.664759
C47	C	-0.860813	0.865381	0.632037
C48	C	-0.860786	0.865358	0.566603
C49	C	-0.772370	0.849059	0.768485
C50	C	-0.772386	0.849082	0.833918
C51	C	-0.760100	0.905546	0.866579
C52	C	-0.747765	0.961990	0.833799
C53	C	-0.747738	0.961966	0.768365
C54	C	-0.760048	0.905494	0.735711
C55	C	-0.659347	0.945670	0.970245
C56	C	-0.659393	0.945700	1.035681
C57	C	-0.860995	0.865532	1.035679
C58	C	-0.860957	0.865507	0.970244
C59	C	-0.760124	0.905576	0.937530
H60	H	-0.943406	0.548390	0.228862
H61	H	-0.577131	0.978192	0.658679
N62	N	-0.549890	0.675492	0.384739
H63	H	-0.565222	0.721919	0.378673
H64	H	-0.437267	0.664037	0.374947
H65	H	-0.943471	0.144754	0.228782
H66	H	-0.783115	0.346555	0.199050
N67	N	-0.550689	0.988941	1.070971
H68	H	-0.575275	1.033702	1.059518
H69	H	-0.437987	0.979162	1.059637
H70	H	-0.737698	1.007924	0.741677
H71	H	-0.782414	0.803122	0.860603
N72	N	-0.549982	0.135846	0.384634
H73	H	-0.613958	0.108685	0.413687
H74	H	-0.485963	0.166498	0.409960
H75	H	-0.577068	0.978143	0.539970
N76	N	-0.549965	0.271855	0.384658
H77	H	-0.485939	0.241157	0.410015
H78	H	-0.614036	0.298994	0.413680
N79	N	-0.733651	0.337679	0.418790
H80	H	-0.824725	0.349066	0.446868
H81	H	-0.631388	0.349032	0.440018
H82	H	-0.737761	1.007968	0.860390
N83	N	-0.550603	0.988885	0.934956
H84	H	-0.486767	1.014290	0.965611
H85	H	-0.614872	1.017861	0.907740
H86	H	-0.783101	0.465267	0.199072
H87	H	-0.943079	0.832908	1.062319
H88	H	-0.736993	0.465053	0.403899
N89	N	-0.969650	0.822263	0.934955
H90	H	-1.033515	0.796881	0.965610
H91	H	-0.905349	0.793267	0.907871
H92	H	-0.782381	0.803076	0.741899
N93	N	-0.549905	0.539486	0.384709
H94	H	-0.565253	0.493080	0.378627
H95	H	-0.574238	0.550887	0.429467
H96	H	-0.942859	0.832712	0.539968
N97	N	-0.970112	0.675767	0.218312
H98	H	-1.034151	0.645152	0.192946
H99	H	-0.906028	0.702925	0.189298
N100	N	-0.970184	0.272131	0.218234
H101	H	-1.034216	0.241518	0.192864
H102	H	-0.906099	0.299294	0.189223
H103	H	-0.942891	0.832756	0.658682
