data_functionalizedCrystal
_audit_creation_method	'MofGen! by Chris Wilmer'
_symmetry_space_group_name_H-M	'P1'
_symmetry_Int_Tables_number	1
_symmetry_cell_setting	triclinic
loop_
_symmetry_equiv_pos_as_xyz
  x,y,z
_cell_length_a	16.992694
_cell_length_b	16.992695
_cell_length_c	16.053802
_cell_angle_alpha	87.258926
_cell_angle_beta	92.750953
_cell_angle_gamma	90.668223
loop_
_atom_site_label
_atom_site_type_symbol
_atom_site_fract_x
_atom_site_fract_y
_atom_site_fract_z
O1	O	-1.053959	-0.163815	-0.069325
O2	O	-0.720626	0.169518	0.264008
O3	O	-0.387293	0.502852	0.597342
O4	O	-0.825560	-0.161983	-0.069350
O5	O	-0.492227	0.171351	0.263984
O6	O	-0.158894	0.504684	0.597317
O7	O	-0.938844	-0.048699	-0.069331
O8	O	-0.605510	0.284634	0.264003
O9	O	-0.272177	0.617968	0.597336
O10	O	-0.940676	-0.277099	-0.069344
O11	O	-0.607342	0.056235	0.263989
O12	O	-0.274009	0.389568	0.597323
O13	O	-0.932607	-0.054907	0.069527
O14	O	-0.599273	0.278426	0.402860
O15	O	-0.265940	0.611759	0.736194
O16	O	-0.819323	-0.168191	0.069508
O17	O	-0.485990	0.165143	0.402842
O18	O	-0.152656	0.498476	0.736175
O19	O	-1.047722	-0.170023	0.069533
O20	O	-0.714389	0.163310	0.402866
O21	O	-0.381055	0.496644	0.736200
Zn22	Zn	-0.932532	-0.170093	0.091567
Zn23	Zn	-0.599199	0.163241	0.424901
Zn24	Zn	-0.265866	0.496574	0.758234
Zn25	Zn	-0.940750	-0.161913	-0.091384
Zn26	Zn	-0.607417	0.171420	0.241949
Zn27	Zn	-0.274083	0.504753	0.575283
O28	O	-0.934438	-0.283307	0.069514
O29	O	-0.601105	0.050027	0.402847
O30	O	-0.267772	0.383360	0.736181
C31	C	-0.793082	-0.162731	0.000076
C32	C	-0.459748	0.170602	0.333410
C33	C	-0.126415	0.503936	0.666743
C34	C	-0.705597	-0.155702	0.000067
C35	C	-0.372264	0.177632	0.333400
C36	C	-0.038931	0.510965	0.666734
C37	C	-0.933370	-0.022443	0.000098
C38	C	-0.600036	0.310890	0.333431
C39	C	-0.266703	0.644224	0.666764
C40	C	-0.926341	0.065042	0.000097
C41	C	-0.593007	0.398375	0.333430
C42	C	-0.259674	0.731708	0.666763
C43	C	-1.080201	-0.169275	0.000105
C44	C	-0.746867	0.164058	0.333439
C45	C	-0.413534	0.497392	0.666772
C46	C	-1.167685	-0.176304	0.000109
C47	C	-0.834352	0.157030	0.333442
C48	C	-0.501018	0.490363	0.666776
C49	C	-0.659607	-0.223520	0.000064
C50	C	-0.326273	0.109814	0.333397
C51	C	0.007060	0.443147	0.666730
C52	C	-0.577405	-0.216911	0.000076
C53	C	-0.244072	0.116422	0.333409
C54	C	0.089261	0.449756	0.666742
C55	C	-0.541197	-0.142484	0.000085
C56	C	-0.207863	0.190849	0.333418
C57	C	0.125470	0.524183	0.666751
C58	C	-0.587193	-0.074661	0.000091
C59	C	-0.253860	0.258672	0.333424
C60	C	0.079473	0.592006	0.666757
C61	C	-0.669393	-0.081270	0.000085
C62	C	-0.336060	0.252063	0.333418
C63	C	-0.002726	0.585396	0.666751
C64	C	-0.295881	-0.115090	0.000109
C65	C	0.037452	0.218243	0.333442
C66	C	0.370785	0.551576	0.666775
C67	C	-0.213676	-0.108486	0.000112
C68	C	0.119657	0.224847	0.333445
C69	C	0.452991	0.558181	0.666779
C70	C	-0.203893	-0.250737	0.000099
C71	C	0.129440	0.082597	0.333432
C72	C	0.462773	0.415930	0.666766
C73	C	-0.286095	-0.257339	0.000088
C74	C	0.047238	0.075994	0.333421
C75	C	0.380572	0.409327	0.666755
C76	C	-0.332084	-0.189517	0.000098
C77	C	0.001249	0.143817	0.333431
C78	C	0.334582	0.477150	0.666765
N79	N	-0.457174	-0.135727	0.000094
N80	N	-0.123841	0.197606	0.333428
N81	N	0.209493	0.530940	0.666761
N82	N	-0.416105	-0.196275	0.000094
N83	N	-0.082772	0.137059	0.333428
N84	N	0.250561	0.470392	0.666761
C85	C	-0.939913	-0.309563	0.000084
C86	C	-0.606579	0.023771	0.333417
C87	C	-0.273246	0.357104	0.666750
C88	C	-0.946942	-0.397047	0.000079
C89	C	-0.613608	-0.063714	0.333412
C90	C	-0.280275	0.269620	0.666746
N91	N	-0.926930	-0.175675	0.216427
N92	N	-0.593596	0.157659	0.549760
N93	N	-0.260263	0.490992	0.883093
C94	C	-0.994158	0.111032	0.000105
C95	C	-0.660825	0.444366	0.333438
C96	C	-0.327492	0.777699	0.666772
C97	C	-0.987550	0.193233	0.000096
C98	C	-0.654216	0.526567	0.333430
C99	C	-0.320883	0.859900	0.666763
C100	C	-0.913123	0.229442	0.000086
C101	C	-0.579789	0.562775	0.333419
C102	C	-0.246456	0.896109	0.666752
C103	C	-0.845300	0.183446	0.000075
C104	C	-0.511967	0.516779	0.333408
C105	C	-0.178633	0.850112	0.666742
C106	C	-0.851910	0.101246	0.000078
C107	C	-0.518576	0.434580	0.333411
C108	C	-0.185243	0.767913	0.666744
C109	C	-0.885729	0.474757	0.000071
C110	C	-0.552395	0.808090	0.333404
C111	C	-0.219062	1.141424	0.666738
C112	C	-0.879124	0.556962	0.000071
C113	C	-0.545791	0.890296	0.333404
C114	C	-0.212458	1.223629	0.666738
C115	C	-1.021375	0.566745	0.000091
C116	C	-0.688041	0.900078	0.333424
C117	C	-0.354708	1.233411	0.666758
C118	C	-1.027978	0.484543	0.000099
C119	C	-0.694644	0.817876	0.333432
C120	C	-0.361311	1.151210	0.666765
C121	C	-0.960155	0.438554	0.000083
C122	C	-0.626822	0.771887	0.333417
C123	C	-0.293488	1.105221	0.666750
N124	N	-0.906366	0.313465	0.000079
N125	N	-0.573032	0.646798	0.333413
N126	N	-0.239699	0.980131	0.666746
N127	N	-0.966913	0.354533	0.000084
N128	N	-0.633580	0.687866	0.333417
N129	N	-0.300246	1.021200	0.666750
N130	N	-0.946358	-0.156325	-0.216243
N131	N	-0.613025	0.177008	0.117090
N132	N	-0.279692	0.510341	0.450423
C133	C	-0.975152	-0.127492	0.260129
C134	C	-0.641819	0.205842	0.593462
C135	C	-0.308485	0.539175	0.926795
C136	C	-0.971241	-0.131404	0.347535
C137	C	-0.637907	0.201929	0.680868
C138	C	-0.304574	0.535262	1.014201
C139	C	-0.919110	-0.183504	0.391237
C140	C	-0.585777	0.149829	0.724571
C141	C	-0.252444	0.483162	1.057904
C142	C	-0.870883	-0.231689	0.347529
C143	C	-0.537550	0.101644	0.680863
C144	C	-0.204216	0.434977	1.014196
C145	C	-0.874791	-0.227772	0.260125
C146	C	-0.541457	0.105561	0.593458
C147	C	-0.208124	0.438895	0.926791
C148	C	-0.902039	-0.200593	0.652644
C149	C	-0.568705	0.132740	0.985977
C150	C	-0.235372	0.466074	1.319311
C151	C	-0.898136	-0.204508	0.740055
C152	C	-0.564803	0.128825	1.073388
C153	C	-0.231470	0.462158	1.406721
C154	C	-0.998493	-0.104222	0.740054
C155	C	-0.665160	0.229112	1.073387
C156	C	-0.331827	0.562445	1.406721
C157	C	-1.002400	-0.100313	0.652648
C158	C	-0.669067	0.233021	0.985981
C159	C	-0.335733	0.566354	1.319315
C160	C	-0.954169	-0.148494	0.608948
C161	C	-0.620836	0.184839	0.942281
C162	C	-0.287503	0.518172	1.275614
N163	N	-0.915113	-0.187507	0.480580
N164	N	-0.581780	0.145826	0.813914
N165	N	-0.248446	0.479160	1.147247
N166	N	-0.958163	-0.144487	0.519606
N167	N	-0.624830	0.188846	0.852939
N168	N	-0.291497	0.522179	1.186273
H169	H	-0.689081	-0.284126	0.000056
H170	H	-0.355748	0.049207	0.333389
H171	H	-0.022415	0.382541	0.666722
F172	F	-1.107194	0.446014	0.000089
F173	F	-0.773861	0.779347	0.333422
F174	F	-0.440527	1.112681	0.666756
F175	F	-1.093551	0.615695	0.000106
F176	F	-0.760217	0.949028	0.333439
F177	F	-0.426884	1.282362	0.666772
F178	F	-1.022563	-0.080122	0.394046
F179	F	-0.689230	0.253211	0.727379
F180	F	-0.355896	0.586545	1.060712
H181	H	-0.818513	0.586440	0.000076
H182	H	-0.485180	0.919773	0.333409
H183	H	-0.151846	1.253107	0.666742
F184	F	-0.528462	-0.289093	0.000069
F185	F	-0.195129	0.044241	0.333402
F186	F	0.138205	0.377574	0.666735
H187	H	-1.044848	-0.057889	0.617067
H188	H	-0.711515	0.275445	0.950400
H189	H	-0.378182	0.608778	1.283734
F190	F	-1.073374	0.072503	0.000125
F191	F	-0.740041	0.405837	0.333458
F192	F	-0.406708	0.739170	0.666791
F193	F	-0.813545	0.425822	0.000053
F194	F	-0.480212	0.759156	0.333386
F195	F	-0.146879	1.092489	0.666720
H196	H	-0.333316	-0.059864	0.000118
H197	H	0.000017	0.273469	0.333451
H198	H	0.333350	0.606803	0.666784
H199	H	-1.037759	-0.064994	0.775643
H200	H	-0.704426	0.268340	1.108976
H201	H	-0.371093	0.601673	1.442310
H202	H	-0.784700	0.212933	0.000061
H203	H	-0.451367	0.546267	0.333394
H204	H	-0.118033	0.879600	0.666727
H205	H	-0.796685	0.063801	0.000071
H206	H	-0.463352	0.397135	0.333404
H207	H	-0.130018	0.730468	0.666737
H208	H	-1.017605	-0.085070	0.224552
H209	H	-0.684272	0.248263	0.557885
H210	H	-0.350938	0.581597	0.891218
H211	H	-0.828433	-0.274107	0.383117
H212	H	-0.495100	0.059226	0.716450
H213	H	-0.161767	0.392559	1.049784
F214	F	-0.175141	-0.029267	0.000136
F215	F	0.158192	0.304066	0.333470
F216	F	0.491525	0.637399	0.666803
H217	H	-0.315571	-0.317945	0.000071
H218	H	0.017763	0.015388	0.333404
H219	H	0.351096	0.348721	0.666737
F220	F	-0.154943	-0.322913	0.000090
F221	F	0.178391	0.010420	0.333423
F222	F	0.511724	0.343754	0.666757
H223	H	-0.855683	-0.246937	0.775633
H224	H	-0.522350	0.086396	1.108967
H225	H	-0.189017	0.419729	1.442300
H226	H	-0.557705	-0.014061	0.000110
H227	H	-0.224372	0.319272	0.333443
H228	H	0.108961	0.652605	0.666777
H229	H	-0.862769	-0.239826	0.617070
H230	H	-0.529436	0.093507	0.950403
H231	H	-0.196102	0.426841	1.283737
F232	F	-0.823463	-0.279053	0.213615
F233	F	-0.490130	0.054280	0.546948
F234	F	-0.156796	0.387614	0.880282
H235	H	-1.042774	0.230676	0.000105
H236	H	-0.709441	0.564009	0.333438
H237	H	-0.376108	0.897342	0.666771
F238	F	-0.718339	-0.009089	0.000091
F239	F	-0.385006	0.324244	0.333424
F240	F	-0.051673	0.657577	0.666758
