data_functionalizedCrystal
_audit_creation_method	'MofGen! by Chris Wilmer'
_symmetry_space_group_name_H-M	'P1'
_symmetry_Int_Tables_number	1
_symmetry_cell_setting	triclinic
loop_
_symmetry_equiv_pos_as_xyz
  x,y,z
_cell_length_a	11.026607
_cell_length_b	9.065218
_cell_length_c	7.540329
_cell_angle_alpha	90.003038
_cell_angle_beta	89.998289
_cell_angle_gamma	83.199049
loop_
_atom_site_label
_atom_site_type_symbol
_atom_site_fract_x
_atom_site_fract_y
_atom_site_fract_z
O1	O	0.178453	-2.004900	-0.147482
O2	O	0.678453	-1.504900	0.352518
O3	O	0.193091	-1.579265	-0.147484
O4	O	0.693091	-1.079265	0.352516
O5	O	0.008731	-1.756807	-0.147476
O6	O	0.508731	-1.256807	0.352524
O7	O	0.362813	-1.827359	-0.147489
O8	O	0.862813	-1.327359	0.352511
O9	O	0.008729	-1.756792	0.147489
O10	O	0.508729	-1.256792	0.647489
O11	O	0.193088	-1.579251	0.147481
O12	O	0.693088	-1.079251	0.647481
O13	O	0.178451	-2.004886	0.147483
O14	O	0.678451	-1.504886	0.647483
Cu15	Cu	0.185769	-1.792067	0.174415
Cu16	Cu	0.685769	-1.292067	0.674415
Cu17	Cu	0.185772	-1.792084	-0.174415
Cu18	Cu	0.685772	-1.292084	0.325585
O19	O	0.362810	-1.827345	0.147476
O20	O	0.862810	-1.327345	0.647476
C21	C	0.191683	-1.523921	-0.000002
C22	C	0.691683	-1.023921	0.499998
C23	C	0.187476	-1.359029	-0.000002
C24	C	0.687476	-0.859029	0.499998
C25	C	-0.036624	-1.743784	0.000004
C26	C	0.463376	-1.243784	0.500004
C27	C	-0.171765	-1.704984	-0.000003
C28	C	0.328235	-1.204984	0.499997
C29	C	0.179859	-2.060230	-0.000003
C30	C	0.679859	-1.560230	0.499997
C31	C	0.184065	-2.225122	-0.000014
C32	C	0.684065	-1.725122	0.499986
C33	C	-0.244393	-1.812117	-0.000005
C34	C	0.255607	-1.312117	0.499995
C35	C	-0.384068	-1.772018	-0.000011
C36	C	0.115932	-1.272018	0.499989
C37	C	0.408165	-1.840368	-0.000008
C38	C	0.908165	-1.340368	0.499992
C39	C	0.543306	-1.879168	-0.000013
C40	C	1.043306	-1.379168	0.499987
N41	N	0.185767	-1.792066	0.419763
N42	N	0.685767	-1.292066	0.919763
N43	N	0.185765	-1.792094	-0.419764
N44	N	0.685765	-1.292094	0.080236
H45	H	-0.203167	-1.933525	0.000007
H46	H	0.296833	-1.433525	0.500007
Cl47	Cl	-0.393065	-2.066627	-0.000021
Cl48	Cl	0.106935	-1.566627	0.499979
Cl49	Cl	-0.447700	-1.584560	-0.000030
Cl50	Cl	0.052300	-1.084560	0.499970
H51	H	-0.212990	-1.583576	-0.000015
H52	H	0.287010	-1.083576	0.499985
