data_functionalizedCrystal
_audit_creation_method	'MofGen! by Chris Wilmer'
_symmetry_space_group_name_H-M	'P1'
_symmetry_Int_Tables_number	1
_symmetry_cell_setting	triclinic
loop_
_symmetry_equiv_pos_as_xyz
  x,y,z
_cell_length_a	14.971487
_cell_length_b	8.140239
_cell_length_c	14.971486
_cell_angle_alpha	90.003728
_cell_angle_beta	96.385734
_cell_angle_gamma	90.003450
loop_
_atom_site_label
_atom_site_type_symbol
_atom_site_fract_x
_atom_site_fract_y
_atom_site_fract_z
O1	O	-1.186942	0.136379	0.116564
O2	O	-0.853609	0.469712	0.449898
O3	O	-0.520275	0.803046	0.783231
O4	O	-0.926542	0.136434	0.130522
O5	O	-0.593209	0.469767	0.463856
O6	O	-0.259875	0.803101	0.797189
O7	O	-1.063722	0.136393	-0.006657
O8	O	-0.730388	0.469727	0.326677
O9	O	-0.397055	0.803060	0.660010
O10	O	-1.049763	0.136420	0.253743
O11	O	-0.716429	0.469753	0.587077
O12	O	-0.383096	0.803086	0.920410
O13	O	-1.063714	-0.136834	-0.006658
O14	O	-0.730381	0.196500	0.326675
O15	O	-0.397047	0.529833	0.660008
O16	O	-0.926535	-0.136793	0.130521
O17	O	-0.593201	0.196540	0.463854
O18	O	-0.259868	0.529874	0.797187
O19	O	-1.186935	-0.136848	0.116563
O20	O	-0.853601	0.196485	0.449896
O21	O	-0.520268	0.529819	0.783229
Zn22	Zn	-1.056733	-0.180201	0.123541
Zn23	Zn	-0.723400	0.153132	0.456875
Zn24	Zn	-0.390067	0.486465	0.790208
Zn25	Zn	-1.056743	0.179787	0.123544
Zn26	Zn	-0.723410	0.513121	0.456877
Zn27	Zn	-0.390077	0.846454	0.790210
O28	O	-1.049755	-0.136807	0.253742
O29	O	-0.716422	0.196526	0.587075
O30	O	-0.383089	0.529859	0.920408
C31	C	-0.893214	-0.000173	0.129897
C32	C	-0.559880	0.333161	0.463231
C33	C	-0.226547	0.666494	0.796564
C34	C	-0.793917	-0.000152	0.128026
C35	C	-0.460583	0.333181	0.461360
C36	C	-0.127250	0.666515	0.794693
N37	N	-1.056733	-0.425884	0.123540
N38	N	-0.723400	-0.092551	0.456873
N39	N	-0.390066	0.240783	0.790206
C40	C	-0.736691	-0.000144	0.208615
C41	C	-0.403358	0.333189	0.541949
C42	C	-0.070025	0.666523	0.875282
C43	C	-0.643392	-0.000165	0.206852
C44	C	-0.310059	0.333168	0.540185
C45	C	0.023275	0.666502	0.873519
C46	C	-0.607320	-0.000182	0.124499
C47	C	-0.273986	0.333151	0.457832
C48	C	0.059347	0.666484	0.791165
C49	C	-0.664552	-0.000195	0.043903
C50	C	-0.331219	0.333138	0.377237
C51	C	0.002114	0.666472	0.710570
C52	C	-0.757850	-0.000186	0.045668
C53	C	-0.424516	0.333148	0.379001
C54	C	-0.091183	0.666481	0.712334
C55	C	-0.470090	-0.000210	0.040232
C56	C	-0.136756	0.333123	0.373565
C57	C	0.196577	0.666456	0.706899
C58	C	-0.376786	-0.000217	0.038467
C59	C	-0.043452	0.333117	0.371801
C60	C	0.289881	0.666450	0.705134
C61	C	-0.355632	-0.000190	0.201416
C62	C	-0.022298	0.333144	0.534750
C63	C	0.311035	0.666477	0.868083
C64	C	-0.448929	-0.000180	0.203181
C65	C	-0.115596	0.333153	0.536514
C66	C	0.217737	0.666486	0.869847
C67	C	-0.506156	-0.000190	0.122585
C68	C	-0.172822	0.333143	0.455918
C69	C	0.160511	0.666477	0.789251
C70	C	-0.220263	-0.000228	0.117187
C71	C	0.113070	0.333105	0.450520
C72	C	0.446404	0.666439	0.783854
C73	C	-0.319560	-0.000209	0.119056
C74	C	0.013773	0.333125	0.452390
C75	C	0.347106	0.666458	0.785723
C76	C	-1.063094	-0.000220	-0.039982
C77	C	-0.729760	0.333114	0.293351
C78	C	-0.396427	0.666447	0.626684
C79	C	-1.061223	-0.000218	-0.139279
C80	C	-0.727889	0.333116	0.194054
C81	C	-0.394556	0.666449	0.527387
N82	N	-1.056751	0.425470	0.123538
N83	N	-0.723417	0.758803	0.456872
N84	N	-0.390084	1.092136	0.790205
C85	C	-1.141812	-0.000236	-0.196504
C86	C	-0.808479	0.333097	0.136829
C87	C	-0.475145	0.666431	0.470162
C88	C	-1.140049	-0.000219	-0.289804
C89	C	-0.806716	0.333114	0.043529
C90	C	-0.473382	0.666448	0.376863
C91	C	-1.057696	-0.000196	-0.325876
C92	C	-0.724362	0.333138	0.007457
C93	C	-0.391029	0.666471	0.340790
C94	C	-0.977100	-0.000173	-0.268644
C95	C	-0.643767	0.333161	0.064689
C96	C	-0.310434	0.666494	0.398023
C97	C	-0.978864	-0.000178	-0.175346
C98	C	-0.645531	0.333156	0.157987
C99	C	-0.312198	0.666489	0.491320
C100	C	-0.973429	-0.000166	-0.463107
C101	C	-0.640096	0.333168	-0.129773
C102	C	-0.306763	0.666501	0.203560
C103	C	-0.971665	-0.000164	-0.556411
C104	C	-0.638331	0.333170	-0.223077
C105	C	-0.304998	0.666503	0.110256
C106	C	-1.134614	-0.000207	-0.577564
C107	C	-0.801280	0.333126	-0.244231
C108	C	-0.467947	0.666460	0.089103
C109	C	-1.136378	-0.000212	-0.484266
C110	C	-0.803044	0.333121	-0.150933
C111	C	-0.469711	0.666454	0.182400
C112	C	-1.055782	-0.000192	-0.427040
C113	C	-0.722449	0.333141	-0.093707
C114	C	-0.389115	0.666474	0.239626
C115	C	-1.050383	-0.000191	0.287067
C116	C	-0.717050	0.333142	0.620401
C117	C	-0.383717	0.666476	0.953734
C118	C	-1.052254	-0.000182	0.386364
C119	C	-0.718921	0.333151	0.719698
C120	C	-0.385587	0.666485	1.053031
H121	H	-0.766053	-0.000129	0.275677
H122	H	-0.432720	0.333205	0.609010
H123	H	-0.099387	0.666538	0.942344
H124	H	-0.913240	-0.000163	-0.128754
H125	H	-0.579907	0.333171	0.204580
H126	H	-0.246573	0.666504	0.537913
Br127	Br	-0.864048	-0.000133	-0.385443
Br128	Br	-0.530715	0.333201	-0.052109
Br129	Br	-0.197381	0.666534	0.281224
H130	H	-0.596802	-0.000157	0.272476
H131	H	-0.263469	0.333177	0.605809
H132	H	0.069865	0.666510	0.939143
Br133	Br	-0.277969	-0.000174	0.310797
Br134	Br	0.055364	0.333159	0.644130
Br135	Br	0.388697	0.666493	0.977463
H136	H	-1.203437	-0.000243	-0.454900
H137	H	-0.870104	0.333090	-0.121566
H138	H	-0.536770	0.666424	0.211767
Br139	Br	-1.253583	-0.000291	-0.147559
Br140	Br	-0.920250	0.333042	0.185775
Br141	Br	-0.586917	0.666375	0.519108
H142	H	-0.910047	-0.000143	-0.298021
H143	H	-0.576713	0.333190	0.035312
H144	H	-0.243380	0.666523	0.368645
Br145	Br	-0.327830	-0.000295	-0.073299
Br146	Br	0.005503	0.333038	0.260034
Br147	Br	0.338836	0.666372	0.593368
H148	H	-0.516682	-0.000221	-0.025398
H149	H	-0.183348	0.333112	0.307935
H150	H	0.149985	0.666446	0.641269
H151	H	-0.635175	-0.000233	-0.023150
H152	H	-0.301842	0.333101	0.310183
H153	H	0.031492	0.666434	0.643516
Br154	Br	-0.497885	-0.000132	0.314947
Br155	Br	-0.164551	0.333201	0.648280
Br156	Br	0.168782	0.666534	0.981613
H157	H	-1.200238	-0.000218	-0.624162
H158	H	-0.866904	0.333115	-0.290829
H159	H	-0.533571	0.666448	0.042504
Br160	Br	-0.835515	-0.000211	-0.063708
Br161	Br	-0.502181	0.333123	0.269626
Br162	Br	-0.168848	0.666456	0.602959
H163	H	-1.205673	-0.000237	-0.336394
H164	H	-0.872340	0.333096	-0.003060
H165	H	-0.539006	0.666429	0.330273
H166	H	-0.904606	-0.000171	-0.585777
H167	H	-0.571272	0.333162	-0.252444
H168	H	-0.237939	0.666496	0.080889
