data_functionalizedCrystal
_audit_creation_method	'MofGen! by Chris Wilmer'
_symmetry_space_group_name_H-M	'P1'
_symmetry_Int_Tables_number	1
_symmetry_cell_setting	triclinic
loop_
_symmetry_equiv_pos_as_xyz
  x,y,z
_cell_length_a	19.121102
_cell_length_b	29.839131
_cell_length_c	19.120904
_cell_angle_alpha	92.401768
_cell_angle_beta	90.088173
_cell_angle_gamma	87.589066
loop_
_atom_site_label
_atom_site_type_symbol
_atom_site_fract_x
_atom_site_fract_y
_atom_site_fract_z
Zn1	Zn	1.054788	-0.219753	-0.441992
Zn2	Zn	1.388121	0.113580	-0.108659
Zn3	Zn	1.721454	0.446913	0.224674
Zn4	Zn	1.059688	-0.291815	-0.324733
Zn5	Zn	1.393022	0.041518	0.008601
Zn6	Zn	1.726355	0.374851	0.341934
Zn7	Zn	0.942558	-0.213364	-0.319778
Zn8	Zn	1.275892	0.119970	0.013555
Zn9	Zn	1.609225	0.453303	0.346889
Zn10	Zn	0.937500	-0.291513	-0.436935
Zn11	Zn	1.270833	0.041820	-0.103602
Zn12	Zn	1.604166	0.375153	0.229732
O13	O	0.998633	-0.254111	-0.380859
O14	O	1.331967	0.079222	-0.047526
O15	O	1.665300	0.412555	0.285807
O16	O	1.153542	-0.232113	-0.430627
O17	O	1.486876	0.101220	-0.097294
O18	O	1.820209	0.434554	0.236039
O19	O	1.048319	-0.278861	-0.225971
O20	O	1.381652	0.054473	0.107362
O21	O	1.714985	0.387806	0.440695
O22	O	0.957512	-0.151347	-0.336033
O23	O	1.290845	0.181986	-0.002700
O24	O	1.624179	0.515320	0.330634
O25	O	1.157143	-0.285057	-0.344477
O26	O	1.490476	0.048277	-0.011144
O27	O	1.823809	0.381610	0.322189
O28	O	1.039966	-0.156042	-0.425823
O29	O	1.373300	0.177292	-0.092490
O30	O	1.706633	0.510625	0.240844
O31	O	0.962264	-0.221223	-0.222331
O32	O	1.295597	0.112111	0.111002
O33	O	1.628930	0.445444	0.444335
O34	O	0.843783	-0.220930	-0.331129
O35	O	1.177116	0.112404	0.002204
O36	O	1.510449	0.445737	0.335537
O37	O	0.948890	-0.284542	-0.535710
O38	O	1.282224	0.048791	-0.202377
O39	O	1.615557	0.382125	0.130957
O40	O	0.840066	-0.278346	-0.417204
O41	O	1.173399	0.054987	-0.083871
O42	O	1.506733	0.388321	0.249463
O43	O	1.035061	-0.231820	-0.539425
O44	O	1.368395	0.101513	-0.206092
O45	O	1.701728	0.434846	0.127241
O46	O	1.043414	-0.354639	-0.339574
O47	O	1.376747	-0.021306	-0.006240
O48	O	1.710080	0.312027	0.327093
O49	O	0.953642	-0.354418	-0.422008
O50	O	1.286975	-0.021084	-0.088675
O51	O	1.620309	0.312249	0.244658
C52	C	0.816487	-0.248912	-0.373081
C53	C	1.149820	0.084421	-0.039747
C54	C	1.483154	0.417755	0.293586
C55	C	0.738563	-0.246699	-0.369769
C56	C	1.071896	0.086634	-0.036436
C57	C	1.405230	0.419968	0.296897
C58	C	0.700041	-0.275595	-0.412958
C59	C	1.033374	0.057739	-0.079625
C60	C	1.366707	0.391072	0.253709
C61	C	0.626823	-0.273509	-0.409850
C62	C	0.960156	0.059824	-0.076517
C63	C	1.293489	0.393157	0.256817
C64	C	0.592129	-0.242531	-0.363550
C65	C	0.925462	0.090803	-0.030216
C66	C	1.258795	0.424136	0.303117
C67	C	0.630656	-0.213632	-0.320360
C68	C	0.963990	0.119701	0.012974
C69	C	1.297323	0.453035	0.346307
C70	C	0.703873	-0.215715	-0.323471
C71	C	1.037206	0.117618	0.009862
C72	C	1.370539	0.450951	0.343195
C73	C	0.371158	-0.234741	-0.351919
C74	C	0.704492	0.098593	-0.018585
C75	C	1.037825	0.431926	0.314748
C76	C	0.297937	-0.232660	-0.348809
C77	C	0.631270	0.100673	-0.015475
C78	C	0.964603	0.434006	0.317858
C79	C	0.294108	-0.292537	-0.438300
C80	C	0.627441	0.040796	-0.104967
C81	C	0.960775	0.374129	0.228366
C82	C	0.367326	-0.294620	-0.441405
C83	C	0.700660	0.038714	-0.108072
C84	C	1.033993	0.372047	0.225261
C85	C	0.405847	-0.265720	-0.398218
C86	C	0.739181	0.067614	-0.064884
C87	C	1.072514	0.400947	0.268449
C88	C	0.517289	-0.240399	-0.360370
C89	C	0.850622	0.092934	-0.027037
C90	C	1.183955	0.426267	0.306296
C91	C	0.480686	-0.267849	-0.401401
C92	C	0.814019	0.065484	-0.068068
C93	C	1.147353	0.398818	0.265266
C94	C	0.998529	-0.370829	-0.380796
C95	C	1.331862	-0.037496	-0.047463
C96	C	1.665196	0.295837	0.285871
C97	C	0.998548	-0.420764	-0.380795
C98	C	1.331881	-0.087431	-0.047461
C99	C	1.665214	0.245902	0.285872
C100	C	1.041555	-0.732823	-0.427677
C101	C	1.374888	-0.399489	-0.094343
C102	C	1.708222	-0.066156	0.238990
C103	C	1.041629	-0.920499	-0.427722
C104	C	1.374963	-0.587166	-0.094389
C105	C	1.708296	-0.253832	0.238945
O106	O	1.078093	-0.946813	-0.467534
O107	O	1.411426	-0.613480	-0.134201
O108	O	1.744759	-0.280146	0.199132
N109	N	0.998749	-0.941559	-0.380942
N110	N	1.332083	-0.608226	-0.047609
N111	N	1.665416	-0.274892	0.285724
C112	C	0.955844	-0.915697	-0.334151
C113	C	1.289177	-0.582363	-0.000818
C114	C	1.622511	-0.249030	0.332516
O115	O	0.919368	-0.937916	-0.294368
O116	O	1.252702	-0.604582	0.038965
O117	O	1.586035	-0.271249	0.372299
C118	C	0.955767	-0.728021	-0.334110
C119	C	1.289100	-0.394688	-0.000776
C120	C	1.622433	-0.061354	0.332557
C121	C	0.998655	-0.706964	-0.380888
C122	C	1.331988	-0.373631	-0.047554
C123	C	1.665321	-0.040297	0.285779
C124	C	1.084439	-0.711765	-0.474451
C125	C	1.417772	-0.378432	-0.141118
C126	C	1.751106	-0.045099	0.192215
C127	C	1.084423	-0.664849	-0.474437
C128	C	1.417756	-0.331516	-0.141104
C129	C	1.751089	0.001818	0.192230
C130	C	1.041523	-0.638990	-0.427648
C131	C	1.374856	-0.305657	-0.094315
C132	C	1.708189	0.027677	0.239019
C133	C	0.998639	-0.660048	-0.380873
C134	C	1.331972	-0.326714	-0.047540
C135	C	1.665305	0.006619	0.285793
C136	C	0.912858	-0.702160	-0.287322
C137	C	1.246192	-0.368826	0.046011
C138	C	1.579525	-0.035493	0.379344
C139	C	0.912841	-0.655238	-0.287317
C140	C	1.246175	-0.321905	0.046016
C141	C	1.579508	0.011429	0.379349
C142	C	0.955730	-0.634181	-0.334095
C143	C	1.289063	-0.300848	-0.000762
C144	C	1.622396	0.032486	0.332571
C145	C	0.955722	-0.587273	-0.334070
C146	C	1.289055	-0.253939	-0.000736
C147	C	1.622389	0.079394	0.332597
N148	N	0.998602	-0.566213	-0.380849
N149	N	1.331936	-0.232879	-0.047516
N150	N	1.665269	0.100454	0.285817
C151	C	1.041502	-0.592071	-0.427639
C152	C	1.374836	-0.258738	-0.094305
C153	C	1.708169	0.074595	0.239028
C154	C	0.955889	-1.014229	-0.334175
C155	C	1.289222	-0.680896	-0.000842
C156	C	1.622556	-0.347562	0.332491
C157	C	0.955909	-1.061148	-0.334185
C158	C	1.289242	-0.727814	-0.000851
C159	C	1.622576	-0.394481	0.332482
C160	C	1.041693	-1.065947	-0.427757
C161	C	1.375027	-0.732614	-0.094423
C162	C	1.708360	-0.399280	0.238910
C163	C	1.041676	-1.019027	-0.427743
C164	C	1.375010	-0.685694	-0.094410
C165	C	1.708343	-0.352361	0.238923
C166	C	0.998769	-0.993169	-0.380955
C167	C	1.332102	-0.659836	-0.047622
C168	C	1.665436	-0.326503	0.285712
C169	C	1.041466	-0.493544	-0.427604
C170	C	1.374799	-0.160210	-0.094271
C171	C	1.708132	0.173123	0.239062
C172	C	1.041448	-0.446623	-0.427584
C173	C	1.374781	-0.113290	-0.094251
C174	C	1.708114	0.220044	0.239083
C175	C	0.955661	-0.441828	-0.334015
C176	C	1.288994	-0.108495	-0.000681
C177	C	1.622328	0.224839	0.332652
C178	C	0.955681	-0.488745	-0.334032
C179	C	1.289015	-0.155411	-0.000699
C180	C	1.622348	0.177922	0.332634
C181	C	0.998586	-0.514601	-0.380833
C182	C	1.331919	-0.181268	-0.047500
C183	C	1.665252	0.152065	0.285834
O184	O	0.919272	-0.560931	-0.294284
O185	O	1.252605	-0.227597	0.039050
O186	O	1.585939	0.105736	0.372383
O187	O	1.077961	-0.569844	-0.467426
O188	O	1.411295	-0.236511	-0.134093
O189	O	1.744628	0.096823	0.199240
C190	C	1.041571	-0.779739	-0.427691
C191	C	1.374904	-0.446406	-0.094358
C192	C	1.708238	-0.113072	0.238976
C193	C	0.998687	-0.800796	-0.380916
C194	C	1.332020	-0.467463	-0.047583
C195	C	1.665354	-0.134130	0.285750
C196	C	0.955787	-0.774938	-0.334127
C197	C	1.289120	-0.441604	-0.000794
C198	C	1.622454	-0.108271	0.332539
C199	C	0.998707	-0.847715	-0.380926
C200	C	1.332041	-0.514382	-0.047592
C201	C	1.665374	-0.181048	0.285741
C202	C	1.041608	-0.873574	-0.427715
C203	C	1.374941	-0.540241	-0.094382
C204	C	1.708274	-0.206907	0.238952
C205	C	1.084488	-0.852514	-0.474495
C206	C	1.417821	-0.519181	-0.141161
C207	C	1.751154	-0.185847	0.192172
C208	C	1.084471	-0.805598	-0.474480
C209	C	1.417805	-0.472264	-0.141147
C210	C	1.751138	-0.138931	0.192187
C211	C	0.912907	-0.795997	-0.287348
C212	C	1.246240	-0.462664	0.045986
C213	C	1.579574	-0.129331	0.379319
C214	C	0.912927	-0.842914	-0.287365
C215	C	1.246260	-0.509581	0.045968
C216	C	1.579594	-0.176247	0.379301
C217	C	0.955827	-0.868773	-0.334154
C218	C	1.289161	-0.535439	-0.000821
C219	C	1.622494	-0.202106	0.332512
C220	C	1.181491	-0.259331	-0.388669
C221	C	1.514825	0.074002	-0.055336
C222	C	1.848158	0.407335	0.277998
C223	C	1.259414	-0.261556	-0.391997
C224	C	1.592748	0.071778	-0.058664
C225	C	1.926081	0.405111	0.274670
C226	C	0.990865	-0.258860	-0.563716
C227	C	1.324198	0.074473	-0.230383
C228	C	1.657532	0.407806	0.102950
C229	C	0.987554	-0.260884	-0.641639
C230	C	1.320888	0.072449	-0.308306
C231	C	1.654221	0.405783	0.025028
C232	C	0.998757	-0.136939	-0.380940
C233	C	1.332090	0.196395	-0.047606
C234	C	1.665423	0.529728	0.285727
C235	C	0.998809	-0.087006	-0.380974
C236	C	1.332143	0.246327	-0.047640
C237	C	1.665476	0.579660	0.285693
C238	C	1.030861	-0.234386	-0.680183
C239	C	1.364195	0.098947	-0.346849
C240	C	1.697528	0.432280	-0.013516
C241	C	1.027742	-0.236286	-0.753399
C242	C	1.361076	0.097047	-0.420066
C243	C	1.694409	0.430381	-0.086732
C244	C	0.981319	-0.264685	-0.788070
C245	C	1.314652	0.068648	-0.454737
C246	C	1.647986	0.401981	-0.121404
C247	C	0.938007	-0.291184	-0.749521
C248	C	1.271341	0.042149	-0.416188
C249	C	1.604674	0.375483	-0.082854
C250	C	0.941123	-0.289282	-0.676306
C251	C	1.274457	0.044052	-0.342973
C252	C	1.607790	0.377385	-0.009639
C253	C	0.969663	-0.271800	-1.009035
C254	C	1.302996	0.061534	-0.675702
C255	C	1.636330	0.394867	-0.342369
C256	C	0.966552	-0.273701	-1.082256
C257	C	1.299885	0.059632	-0.748922
C258	C	1.633218	0.392966	-0.415589
C259	C	1.056286	-0.218802	-1.086128
C260	C	1.389619	0.114531	-0.752795
C261	C	1.722953	0.447865	-0.419462
C262	C	1.059401	-0.216904	-1.012912
C263	C	1.392734	0.116429	-0.679579
C264	C	1.726067	0.449762	-0.346245
C265	C	1.016086	-0.243401	-0.974369
C266	C	1.349420	0.089932	-0.641036
C267	C	1.682753	0.423266	-0.307702
C268	C	0.978131	-0.266629	-0.862909
C269	C	1.311465	0.066705	-0.529576
C270	C	1.644798	0.400038	-0.196242
C271	C	1.019271	-0.241455	-0.899532
C272	C	1.352605	0.091878	-0.566198
C273	C	1.685938	0.425212	-0.232865
C274	C	1.006412	-0.249350	-0.198716
C275	C	1.339746	0.083984	0.134618
C276	C	1.673079	0.417317	0.467951
C277	C	1.009859	-0.247203	-0.120799
C278	C	1.343192	0.086130	0.212534
C279	C	1.676525	0.419463	0.545867
H280	H	0.402514	-0.211211	-0.316747
H281	H	0.735847	0.122122	0.016586
H282	H	1.069180	0.455455	0.349920
H283	H	1.057066	-0.218330	-0.871299
H284	H	1.390399	0.115003	-0.537966
H285	H	1.723732	0.448336	-0.204632
C286	C	0.251729	-0.324322	-0.485809
C287	C	0.585062	0.009011	-0.152475
C288	C	0.918396	0.342345	0.180858
N289	N	0.219809	-0.348262	-0.521596
N290	N	0.553142	-0.014929	-0.188263
N291	N	0.886475	0.318405	0.145070
H292	H	1.063009	-0.214710	-0.784778
H293	H	1.396342	0.118623	-0.451445
H294	H	1.729676	0.451957	-0.118112
C295	C	1.088632	-0.423463	-0.479044
C296	C	1.421965	-0.090130	-0.145710
C297	C	1.755299	0.243203	0.187623
N298	N	1.124170	-0.406021	-0.517802
N299	N	1.457504	-0.072687	-0.184469
N300	N	1.790837	0.260646	0.148865
C301	C	0.738197	-0.309674	-0.463892
C302	C	1.071530	0.023659	-0.130559
C303	C	1.404864	0.356993	0.202775
N304	N	0.766934	-0.335343	-0.502259
N305	N	1.100268	-0.002009	-0.168926
N306	N	1.433601	0.331324	0.164407
H307	H	0.920948	-0.993178	-0.296073
H308	H	1.254281	-0.659845	0.037261
H309	H	1.587614	-0.326511	0.370594
H310	H	0.269691	-0.207429	-0.311110
H311	H	0.603024	0.125905	0.022224
H312	H	0.936358	0.459238	0.355557
C313	C	0.865672	-0.725312	-0.235866
C314	C	1.199005	-0.391979	0.097467
C315	C	1.532339	-0.058645	0.430800
N316	N	0.830126	-0.742749	-0.197109
N317	N	1.163460	-0.409416	0.136225
N318	N	1.496793	-0.076083	0.469558
C319	C	1.103920	-0.189652	-1.128531
C320	C	1.437253	0.143681	-0.795197
C321	C	1.770586	0.477015	-0.461864
N322	N	1.139796	-0.167692	-1.160468
N323	N	1.473129	0.165641	-0.827135
N324	N	1.806462	0.498974	-0.493802
H325	H	0.940337	-0.289754	-0.891147
H326	H	1.273670	0.043579	-0.557813
H327	H	1.607003	0.376913	-0.224480
C328	C	0.865743	-0.866071	-0.235902
C329	C	1.199076	-0.532738	0.097431
C330	C	1.532410	-0.199405	0.430764
N331	N	0.830200	-0.883512	-0.197146
N332	N	1.163533	-0.550178	0.136187
N333	N	1.496866	-0.216845	0.469521
C334	C	0.746247	-0.183929	-0.275959
C335	C	1.079581	0.149404	0.057374
C336	C	1.412914	0.482738	0.390708
N337	N	0.778163	-0.159986	-0.240172
N338	N	1.111496	0.173348	0.093161
N339	N	1.444829	0.506681	0.426494
H340	H	0.595461	-0.297039	-0.445018
H341	H	0.928794	0.036294	-0.111685
H342	H	1.262128	0.369627	0.221649
C343	C	0.405484	-0.328701	-0.492336
C344	C	0.738817	0.004633	-0.159002
C345	C	1.072151	0.337966	0.174331
N346	N	0.434225	-0.354373	-0.530694
N347	N	0.767558	-0.021040	-0.197361
N348	N	1.100891	0.312294	0.135972
H349	H	0.905851	-0.310854	-0.644924
H350	H	1.239185	0.022479	-0.311591
H351	H	1.572518	0.355813	0.021742
C352	C	0.592490	-0.179554	-0.269430
C353	C	0.925824	0.153779	0.063903
C354	C	1.259157	0.487113	0.397236
N355	N	0.563745	-0.153886	-0.231068
N356	N	0.897078	0.179447	0.102266
N357	N	1.230411	0.512780	0.435599
C358	C	0.518852	-0.301926	-0.452328
C359	C	0.852185	0.031408	-0.118995
C360	C	1.185518	0.364741	0.214339
N361	N	0.547605	-0.327595	-0.490683
N362	N	0.880938	0.005739	-0.157350
N363	N	1.214271	0.339072	0.175983
C364	C	0.479118	-0.206325	-0.309439
C365	C	0.812451	0.127008	0.023895
C366	C	1.145785	0.460342	0.357228
N367	N	0.450365	-0.180659	-0.271078
N368	N	0.783699	0.152674	0.062255
N369	N	1.117032	0.486007	0.395589
H370	H	0.928746	-0.296828	-1.110483
H371	H	1.262079	0.036505	-0.777149
H372	H	1.595413	0.369838	-0.443816
H373	H	1.097205	-0.193780	-0.984688
H374	H	1.430539	0.139554	-0.651354
H375	H	1.763872	0.472887	-0.318021
H376	H	0.934404	-0.293382	-0.977663
H377	H	1.267737	0.039951	-0.644330
H378	H	1.601070	0.373285	-0.310996
H379	H	1.076625	-1.087009	-0.465853
H380	H	1.409959	-0.753676	-0.132520
H381	H	1.743292	-0.420343	0.200813
C382	C	1.131653	-0.782441	-0.525939
C383	C	1.464986	-0.449108	-0.192606
C384	C	1.798320	-0.115775	0.140727
N385	N	1.167193	-0.765003	-0.564701
N386	N	1.500526	-0.431669	-0.231368
N387	N	1.833859	-0.098336	0.101965
C388	C	1.131677	-0.880968	-0.525964
C389	C	1.465010	-0.547634	-0.192630
C390	C	1.798344	-0.214301	0.140703
N391	N	1.167215	-0.902401	-0.564731
N392	N	1.500548	-0.569068	-0.231398
N393	N	1.833881	-0.235735	0.101936
C394	C	1.088668	-0.521980	-0.479083
C395	C	1.422001	-0.188646	-0.145750
C396	C	1.755334	0.144687	0.187584
N397	N	1.124224	-0.543397	-0.517853
N398	N	1.457558	-0.210064	-0.184519
N399	N	1.790891	0.123269	0.148814
C400	C	0.886935	-0.322419	-0.787662
C401	C	1.220268	0.010914	-0.454329
C402	C	1.553601	0.344247	-0.120995
N403	N	0.848465	-0.345946	-0.816389
N404	N	1.181798	-0.012613	-0.483056
N405	N	1.515132	0.320720	-0.149722
C406	C	1.131606	-0.641692	-0.525895
C407	C	1.464939	-0.308359	-0.192561
C408	C	1.798273	0.024974	0.140772
N409	N	1.167148	-0.624254	-0.564655
N410	N	1.500481	-0.290920	-0.231321
N411	N	1.833814	0.042413	0.102012
H412	H	1.119373	-0.732815	-0.512557
H413	H	1.452707	-0.399482	-0.179223
H414	H	1.786040	-0.066148	0.154110
H415	H	0.920764	-0.505890	-0.295937
H416	H	1.254097	-0.172557	0.037397
H417	H	1.587431	0.160777	0.370730
H418	H	1.076599	-1.001886	-0.465834
H419	H	1.409932	-0.668552	-0.132501
H420	H	1.743266	-0.335219	0.200832
H421	H	0.920993	-1.078288	-0.296086
H422	H	1.254326	-0.744955	0.037247
H423	H	1.587660	-0.411622	0.370581
C424	C	0.865639	-0.626797	-0.235844
C425	C	1.198973	-0.293463	0.097489
C426	C	1.532306	0.039870	0.430823
N427	N	0.830089	-0.605376	-0.197073
N428	N	1.163422	-0.272042	0.136260
N429	N	1.496755	0.061291	0.469594
H430	H	0.920734	-0.420766	-0.295917
H431	H	1.254068	-0.087433	0.037416
H432	H	1.587401	0.245900	0.370749
H433	H	0.877971	-0.774947	-0.249247
H434	H	1.211305	-0.441613	0.084086
H435	H	1.544638	-0.108280	0.417420
C436	C	1.081930	-0.203144	-0.642051
C437	C	1.415263	0.130189	-0.308718
C438	C	1.748597	0.463523	0.024616
N439	N	1.120394	-0.179609	-0.613332
N440	N	1.453728	0.153724	-0.279999
N441	N	1.787061	0.487057	0.053334
