data_functionalizedCrystal
_audit_creation_method	'MofGen! by Chris Wilmer'
_symmetry_space_group_name_H-M	'P1'
_symmetry_Int_Tables_number	1
_symmetry_cell_setting	triclinic
loop_
_symmetry_equiv_pos_as_xyz
  x,y,z
_cell_length_a	16.120530
_cell_length_b	16.120484
_cell_length_c	12.759387
_cell_angle_alpha	92.863831
_cell_angle_beta	87.081276
_cell_angle_gamma	90.167327
loop_
_atom_site_label
_atom_site_type_symbol
_atom_site_fract_x
_atom_site_fract_y
_atom_site_fract_z
Zn1	Zn	1.254492	-0.395556	-0.699367
Zn2	Zn	1.754492	0.104444	-0.199367
Zn3	Zn	1.247331	-0.534628	-0.532099
Zn4	Zn	1.747331	-0.034628	-0.032099
Zn5	Zn	1.115427	-0.388537	-0.514373
Zn6	Zn	1.615427	0.111463	-0.014373
Zn7	Zn	1.108344	-0.527509	-0.698405
Zn8	Zn	1.608344	-0.027509	-0.198405
O9	O	1.181399	-0.461558	-0.611061
O10	O	1.681399	0.038442	-0.111061
O11	O	1.369908	-0.419921	-0.684999
O12	O	1.869908	0.080079	-0.184999
O13	O	1.229801	-0.515290	-0.382727
O14	O	1.729801	-0.015290	0.117273
O15	O	1.139835	-0.273105	-0.531896
O16	O	1.639835	0.226895	-0.031896
O17	O	1.364647	-0.522097	-0.562108
O18	O	1.864647	-0.022097	-0.062108
O19	O	1.242006	-0.278262	-0.667811
O20	O	1.742006	0.221738	-0.167811
O21	O	1.132891	-0.407957	-0.369703
O22	O	1.632891	0.092043	0.130297
O23	O	0.998122	-0.401055	-0.530964
O24	O	1.498122	0.098945	-0.030964
O25	O	1.127764	-0.509964	-0.845554
O26	O	1.627764	-0.009964	-0.345554
O27	O	0.992918	-0.503157	-0.666172
O28	O	1.492918	-0.003157	-0.166172
O29	O	1.235138	-0.413019	-0.846260
O30	O	1.735138	0.086981	-0.346260
O31	O	1.222933	-0.650046	-0.561176
O32	O	1.722933	-0.150046	-0.061176
O33	O	1.120820	-0.644816	-0.683361
O34	O	1.620820	-0.144816	-0.183361
C35	C	0.965348	-0.450573	-0.596541
C36	C	1.465348	0.049427	-0.096541
C37	C	0.872919	-0.445893	-0.590356
C38	C	1.372919	0.054107	-0.090356
C39	C	1.170354	-0.677604	-0.624112
C40	C	1.670354	-0.177604	-0.124112
C41	C	1.165705	-0.770033	-0.629735
C42	C	1.665705	-0.270033	-0.129735
C43	C	0.703692	-0.437330	-0.579070
C44	C	1.203692	0.062670	-0.079070
C45	C	0.659943	-0.485846	-0.643132
C46	C	1.159943	0.014154	-0.143132
C47	C	0.565779	-0.481082	-0.636853
C48	C	1.065779	0.018918	-0.136853
C49	C	0.797864	-0.442094	-0.585348
C50	C	1.297864	0.057906	-0.085348
C51	C	1.157221	-0.939264	-0.640024
C52	C	1.657221	-0.439264	-0.140024
C53	C	1.205725	-0.983018	-0.582125
C54	C	1.705725	-0.483018	-0.082125
C55	C	1.201005	-1.077184	-0.587849
C56	C	1.701005	-0.577184	-0.087849
C57	C	1.161940	-0.845090	-0.634301
C58	C	1.661940	-0.345090	-0.134301
C59	C	1.398293	-0.472586	-0.625638
C60	C	1.898293	0.027414	-0.125638
C61	C	1.490721	-0.477286	-0.631850
C62	C	1.990721	0.022714	-0.131850
C63	C	1.181460	-0.461480	-0.885093
C64	C	1.681460	0.038520	-0.385093
C65	C	1.181486	-0.461447	-1.001870
C66	C	1.681486	0.038553	-0.501870
C67	C	1.192509	-0.244669	-0.597983
C68	C	1.692509	0.255331	-0.097983
C69	C	1.197244	-0.152243	-0.592411
C70	C	1.697244	0.347757	-0.092411
C71	C	1.293351	-0.360442	-1.222049
C72	C	1.793351	0.139558	-0.722049
C73	C	1.349244	-0.309983	-1.167555
C74	C	1.849244	0.190017	-0.667555
C75	C	1.349219	-0.310009	-1.057833
C76	C	1.849219	0.189991	-0.557833
C77	C	1.293297	-0.360502	-1.002603
C78	C	1.793297	0.139498	-0.502603
C79	C	1.237404	-0.410962	-1.057097
C80	C	1.737404	0.089038	-0.557097
C81	C	1.237433	-0.410928	-1.166821
C82	C	1.737433	0.089072	-0.666821
C83	C	1.125594	-0.511907	-1.056364
C84	C	1.625594	-0.011907	-0.556364
C85	C	1.125613	-0.511877	-1.166085
C86	C	1.625613	-0.011877	-0.666085
C87	C	1.069672	-0.562400	-1.001134
C88	C	1.569672	-0.062400	-0.501134
C89	C	1.013773	-0.612856	-1.055628
C90	C	1.513773	-0.112856	-0.555628
C91	C	1.013800	-0.612827	-1.165356
C92	C	1.513800	-0.112827	-0.665356
C93	C	1.069720	-0.562336	-1.220579
C94	C	1.569720	-0.062336	-0.720579
C95	C	1.181388	-0.461577	-0.338094
C96	C	1.681388	0.038423	0.161906
C97	C	1.181535	-0.461384	-0.221315
C98	C	1.681535	0.038616	0.278685
H99	H	0.693208	-0.530959	-0.702694
H100	H	1.193208	-0.030959	-0.202694
Cl101	Cl	1.087639	-0.990613	-0.723186
Cl102	Cl	1.587639	-0.490613	-0.223186
H103	H	1.293367	-0.360404	-1.311388
H104	H	1.793367	0.139596	-0.811388
H105	H	0.968288	-0.653920	-1.209719
H106	H	1.468288	-0.153920	-0.709719
Cl107	Cl	1.293277	-0.360545	-0.864668
Cl108	Cl	1.793277	0.139455	-0.364668
H109	H	0.670428	-0.392221	-0.519514
H110	H	1.170428	0.107779	-0.019514
H111	H	1.394733	-0.268923	-1.013464
H112	H	1.894733	0.231077	-0.513464
Cl113	Cl	1.275307	-0.931670	-0.498949
Cl114	Cl	1.775307	-0.431670	0.001051
Cl115	Cl	1.419545	-0.246512	-1.236991
Cl116	Cl	1.919545	0.253488	-0.736991
Cl117	Cl	0.943483	-0.676329	-0.986192
Cl118	Cl	1.443483	-0.176329	-0.486192
Cl119	Cl	1.069754	-0.562291	-1.358515
Cl120	Cl	1.569754	-0.062291	-0.858515
Cl121	Cl	1.069643	-0.562437	-0.863198
Cl122	Cl	1.569643	-0.062437	-0.363198
