data_functionalizedCrystal
_audit_creation_method	'MofGen! by Chris Wilmer'
_symmetry_space_group_name_H-M	'P1'
_symmetry_Int_Tables_number	1
_symmetry_cell_setting	triclinic
loop_
_symmetry_equiv_pos_as_xyz
  x,y,z
_cell_length_a	10.540539
_cell_length_b	16.109301
_cell_length_c	14.586319
_cell_angle_alpha	89.994230
_cell_angle_beta	90.002078
_cell_angle_gamma	96.006514
loop_
_atom_site_label
_atom_site_type_symbol
_atom_site_fract_x
_atom_site_fract_y
_atom_site_fract_z
O1	O	1.684216	-0.117166	0.076200
O2	O	2.184216	0.382834	0.576200
O3	O	1.314646	-0.128205	0.076212
O4	O	1.814646	0.371795	0.576212
O5	O	1.509584	-0.001717	0.076197
O6	O	2.009584	0.498283	0.576197
O7	O	1.489279	-0.243654	0.076216
O8	O	1.989279	0.256346	0.576216
O9	O	1.509568	-0.001714	-0.076284
O10	O	2.009568	0.498286	0.423716
O11	O	1.314630	-0.128202	-0.076269
O12	O	1.814630	0.371798	0.423731
O13	O	1.684201	-0.117163	-0.076280
O14	O	2.184201	0.382837	0.423720
Cu15	Cu	1.499414	-0.122682	-0.090197
Cu16	Cu	1.999414	0.377318	0.409803
Cu17	Cu	1.499433	-0.122686	0.090129
Cu18	Cu	1.999433	0.377314	0.590129
O19	O	1.489263	-0.243651	-0.076265
O20	O	1.989263	0.256349	0.423735
C21	C	1.267347	-0.127376	-0.000027
C22	C	1.767347	0.372624	0.499973
C23	C	1.126434	-0.124899	-0.000023
C24	C	1.626434	0.375101	0.499977
C25	C	1.508753	0.029265	-0.000044
C26	C	2.008753	0.529265	0.499956
C27	C	1.506287	0.121575	-0.000046
C28	C	2.006287	0.621575	0.499954
N29	N	1.499410	-0.122679	-0.217029
N30	N	1.999410	0.377321	0.282971
C31	C	0.944360	-0.029989	-0.000386
C32	C	1.444360	0.470011	0.499614
C33	C	1.090943	-0.032500	-0.000033
C34	C	1.590943	0.467500	0.499967
C35	C	1.064137	-0.169367	0.087051
C36	C	1.564137	0.330633	0.587051
C37	C	0.917637	-0.166214	0.087115
C38	C	1.417637	0.333786	0.587115
C39	C	0.917104	-0.168090	-0.086285
C40	C	1.417104	0.331910	0.413715
C41	C	1.064074	-0.168941	-0.087426
C42	C	1.564074	0.331059	0.412574
C43	C	1.731500	-0.117992	-0.000039
C44	C	2.231500	0.382008	0.499961
C45	C	1.872413	-0.120469	-0.000037
C46	C	2.372413	0.379531	0.499963
C47	C	1.490093	-0.274633	-0.000022
C48	C	1.990093	0.225367	0.499978
C49	C	1.492559	-0.366943	-0.000015
C50	C	1.992559	0.133057	0.499985
C51	C	1.616226	0.343175	-0.000034
C52	C	2.116226	0.843175	0.499966
C53	C	1.613899	0.429910	-0.000027
C54	C	2.113899	0.929910	0.499973
C55	C	1.382612	0.411450	-0.000023
C56	C	1.882612	0.911450	0.499977
C57	C	1.384940	0.324717	-0.000024
C58	C	1.884940	0.824717	0.499976
C59	C	1.501751	0.290582	-0.000034
C60	C	2.001751	0.790582	0.499966
C61	C	1.497096	0.464050	-0.000026
C62	C	1.997096	0.964050	0.499974
C63	C	1.494572	0.558091	-0.000018
C64	C	1.994572	1.058091	0.499982
C65	C	1.504275	0.196535	-0.000041
C66	C	2.004275	0.696535	0.499959
C67	C	1.585762	-0.066689	-0.548030
C68	C	2.085762	0.433311	-0.048030
C69	C	1.585759	-0.066689	-0.452048
C70	C	2.085759	0.433311	0.047952
C71	C	1.413090	-0.178679	-0.452045
C72	C	1.913090	0.321321	0.047955
C73	C	1.413101	-0.178682	-0.548025
C74	C	1.913101	0.321318	-0.048025
C75	C	1.499435	-0.122682	-0.596015
C76	C	1.999435	0.377318	-0.096015
C77	C	1.499422	-0.122679	-0.404054
C78	C	1.999422	0.377321	0.095946
C79	C	1.499418	-0.122680	-0.299987
C80	C	1.999418	0.377320	0.200013
C81	C	1.499441	-0.122682	-0.700088
C82	C	1.999441	0.377318	-0.200088
N83	N	1.499446	-0.122682	0.216961
N84	N	1.999446	0.377318	0.716961
H85	H	1.134049	0.002489	-0.062452
H86	H	1.634049	0.502489	0.437548
H87	H	1.342797	-0.224272	-0.412963
H88	H	1.842797	0.275728	0.087037
F89	F	0.876426	-0.129001	-0.172554
F90	F	1.376426	0.370999	0.327446
H91	H	1.105493	-0.136455	-0.151843
H92	H	1.605493	0.363545	0.348157
F93	F	1.677643	-0.007095	-0.400982
F94	F	2.177643	0.492905	0.099018
F95	F	1.094475	-0.256994	-0.094290
F96	F	1.594475	0.243006	0.405710
H97	H	0.916289	0.006515	-0.062833
H98	H	1.416289	0.506515	0.437167
H99	H	1.342802	-0.224282	-0.587097
H100	H	1.842802	0.275718	-0.087097
H101	H	0.914678	0.006358	0.061706
H102	H	1.414678	0.506358	0.561706
H103	H	1.707116	0.472728	-0.000025
H104	H	2.207116	0.972728	0.499975
H105	H	1.287509	0.439253	-0.000017
H106	H	1.787509	0.939253	0.499983
H107	H	1.656063	-0.021091	-0.587101
H108	H	2.156063	0.478909	-0.087101
F109	F	1.146140	0.013366	0.081815
F110	F	1.646140	0.513366	0.581815
F111	F	0.881381	-0.123259	0.172183
F112	F	1.381381	0.376741	0.672183
F113	F	0.853696	-0.253069	0.092288
F114	F	1.353696	0.246931	0.592288
H115	H	1.085523	-0.237222	0.090296
H116	H	1.585523	0.262778	0.590296
H117	H	1.107172	-0.138479	0.151849
H118	H	1.607172	0.361521	0.651849
F119	F	0.854134	-0.255322	-0.087047
F120	F	1.354134	0.244678	0.412953
H121	H	1.711340	0.315386	-0.000041
H122	H	2.211340	0.815386	0.499959
H123	H	1.291715	0.281893	-0.000022
H124	H	1.791715	0.781893	0.499978
