data_functionalizedCrystal
_audit_creation_method	'MofGen! by Chris Wilmer'
_symmetry_space_group_name_H-M	'P1'
_symmetry_Int_Tables_number	1
_symmetry_cell_setting	triclinic
loop_
_symmetry_equiv_pos_as_xyz
  x,y,z
_cell_length_a	12.811457
_cell_length_b	8.965430
_cell_length_c	12.784905
_cell_angle_alpha	89.998492
_cell_angle_beta	78.600470
_cell_angle_gamma	84.571878
loop_
_atom_site_label
_atom_site_type_symbol
_atom_site_fract_x
_atom_site_fract_y
_atom_site_fract_z
O1	O	1.379598	-0.062587	0.143098
O2	O	1.072598	-0.021056	0.158659
O3	O	1.248563	-0.044865	-0.003750
O4	O	1.203632	-0.038778	0.305507
O5	O	1.248549	-0.292942	-0.003739
O6	O	1.072583	-0.269133	0.158670
O7	O	1.379584	-0.310664	0.143109
Cu8	Cu	1.226082	-0.312550	0.150890
Cu9	Cu	1.226099	-0.019170	0.150878
O10	O	1.203618	-0.286855	0.305517
C11	C	1.033566	-0.139815	0.157792
C12	C	0.917288	-0.124085	0.155181
C13	C	0.698776	-0.365010	0.150266
C14	C	0.589522	-0.350238	0.147812
C15	C	0.589527	-0.079769	0.147812
C16	C	0.698780	-0.094542	0.150266
C17	C	0.753401	-0.237167	0.151494
C18	C	0.862655	-0.251938	0.153956
C19	C	0.862659	0.018529	0.153948
C20	C	0.753405	0.033302	0.151494
N21	N	1.226078	-0.518898	0.150899
C22	C	1.144679	-0.605191	0.225982
C23	C	1.237605	-0.717175	0.247018
C24	C	1.133191	-0.703047	0.129872
C25	C	1.319047	-0.628700	0.171982
C26	C	1.214575	-0.614555	0.054795
C27	C	1.307573	-0.726504	0.075790
C28	C	1.418615	-0.191902	0.143976
C29	C	1.534893	-0.207622	0.146587
C30	C	1.251478	-0.169297	-0.043331
C31	C	1.260173	-0.170467	-0.161286
N32	N	1.226113	0.187177	0.150861
C33	C	1.083029	-0.146517	-0.358453
C34	C	1.091194	-0.147616	-0.469282
C35	C	1.284665	-0.173773	-0.493774
C36	C	1.276501	-0.172674	-0.382946
C37	C	1.175679	-0.159044	-0.315289
C38	C	1.167516	-0.157935	-0.204458
C39	C	1.360987	-0.184102	-0.228952
C40	C	1.369151	-0.185201	-0.339781
C41	C	1.200703	-0.162420	0.345098
C42	C	1.192008	-0.161241	0.463054
H43	H	0.907124	-0.368070	0.154962
H44	H	0.545049	-0.454341	0.146818
F45	F	0.756906	-0.516799	0.151587
F46	F	1.054774	-0.536045	0.309049
F47	F	1.459599	-0.197425	-0.183006
H48	H	1.247359	-0.762201	0.328275
F49	F	0.531397	0.072007	0.146423
F50	F	0.695270	0.185084	0.150158
H51	H	1.204789	-0.569490	-0.026436
H52	H	1.397623	-0.595811	0.189848
H53	H	0.907145	0.122629	0.154954
H54	H	1.376493	-0.779145	0.012274
F55	F	1.030499	-0.746280	0.106646
F56	F	0.975729	-0.131994	-0.286446
F57	F	1.060214	-0.143423	-0.132454
H58	H	1.015748	-0.137423	-0.504422
F59	F	1.391958	-0.188312	-0.565796
F60	F	1.476447	-0.199717	-0.411797
