data_functionalizedCrystal
_audit_creation_method	'MofGen! by Chris Wilmer'
_symmetry_space_group_name_H-M	'P1'
_symmetry_Int_Tables_number	1
_symmetry_cell_setting	triclinic
loop_
_symmetry_equiv_pos_as_xyz
  x,y,z
_cell_length_a	19.188925
_cell_length_b	19.188930
_cell_length_c	9.798715
_cell_angle_alpha	89.991738
_cell_angle_beta	89.995370
_cell_angle_gamma	83.143665
loop_
_atom_site_label
_atom_site_type_symbol
_atom_site_fract_x
_atom_site_fract_y
_atom_site_fract_z
O1	O	0.926147	0.087148	-0.113536
O2	O	0.722835	0.098886	-0.113534
O3	O	0.830358	-0.008639	-0.113508
O4	O	0.818624	0.194673	-0.113561
O5	O	0.830350	-0.008639	0.113474
O6	O	0.722827	0.098886	0.113448
O7	O	0.926139	0.087148	0.113447
Zn8	Zn	0.824481	0.093017	0.149486
Zn9	Zn	0.824492	0.093017	-0.149573
O10	O	0.818616	0.194673	0.113421
C11	C	0.696820	0.098507	-0.000042
C12	C	0.619315	0.097367	-0.000040
C13	C	0.057545	0.152831	-0.000058
C14	C	0.130368	0.153908	-0.000066
C15	C	0.175302	0.090816	-0.000047
C16	C	0.147408	0.026642	-0.000055
C17	C	0.074586	0.025568	-0.000061
N18	N	0.295977	0.045140	0.077231
N19	N	0.365154	0.046165	0.077240
C20	C	0.394712	0.094050	-0.000032
N21	N	0.352477	0.140882	-0.077295
N22	N	0.283293	0.139858	-0.077298
C23	C	0.254267	0.091974	-0.000041
C24	C	0.501561	0.159386	-0.000041
C25	C	0.574385	0.160460	-0.000057
C26	C	0.591425	0.033193	-0.000033
C27	C	0.518601	0.032121	-0.000031
C28	C	0.473673	0.095220	-0.000028
C29	C	0.829974	-0.034650	-0.000013
C30	C	0.828833	-0.112154	-0.000001
C31	C	0.891924	-0.157079	0.000005
C32	C	0.890852	-0.229903	-0.000017
C33	C	0.826686	-0.257799	-0.000018
C34	C	0.763587	-0.212864	-0.000031
C35	C	0.764660	-0.140041	-0.000023
N36	N	0.777636	-0.365803	0.077229
N37	N	0.776621	-0.434981	0.077224
C38	C	0.823448	-0.477207	-0.000045
N39	N	0.871340	-0.447643	-0.077293
N40	N	0.872357	-0.378458	-0.077282
C41	C	0.825515	-0.336761	-0.000027
C42	C	0.885381	-0.601097	-0.000065
C43	C	0.884307	-0.673922	-0.000095
C44	C	0.757040	-0.656880	-0.000096
C45	C	0.758116	-0.584057	-0.000079
C46	C	0.822289	-0.556170	-0.000057
C47	C	0.952154	0.087527	-0.000048
C48	C	1.029658	0.088666	-0.000059
C49	C	0.819000	0.220684	-0.000077
C50	C	0.820140	0.298188	-0.000098
N51	N	0.824479	0.093016	0.353585
N52	N	0.824500	0.093012	-0.353673
C53	C	0.869628	0.047673	0.421373
C54	C	0.869639	0.047670	0.578536
H55	H	0.495896	-0.020129	-0.000023
F56	F	0.604063	0.228757	-0.000070
H57	H	0.464978	0.210765	-0.000042
H58	H	0.183999	-0.024728	-0.000044
H59	H	0.051883	-0.026685	-0.000062
H60	H	0.944179	-0.134379	0.000018
F61	F	0.639242	-0.033955	-0.000030
F62	F	0.009733	0.219987	-0.000069
H63	H	0.908271	0.008851	0.363060
F64	F	0.695297	-0.242553	-0.000041
F65	F	0.920167	-0.003069	0.654728
H66	H	0.942230	-0.266488	-0.000018
H67	H	0.785847	0.131837	0.588041
H68	H	0.713282	-0.103462	-0.000028
F69	F	0.953679	-0.571415	-0.000035
H70	H	0.785832	0.131832	0.411901
H71	H	0.935686	-0.710500	-0.000098
H72	H	0.153078	0.206160	-0.000052
F73	F	0.688749	-0.686564	-0.000103
H74	H	0.706740	-0.547478	-0.000076
