data_functionalizedCrystal
_audit_creation_method	'MofGen! by Chris Wilmer'
_symmetry_space_group_name_H-M	'P1'
_symmetry_Int_Tables_number	1
_symmetry_cell_setting	triclinic
loop_
_symmetry_equiv_pos_as_xyz
  x,y,z
_cell_length_a	11.792241
_cell_length_b	16.109301
_cell_length_c	10.268362
_cell_angle_alpha	89.994258
_cell_angle_beta	89.991152
_cell_angle_gamma	96.172552
loop_
_atom_site_label
_atom_site_type_symbol
_atom_site_fract_x
_atom_site_fract_y
_atom_site_fract_z
O1	O	1.505894	-0.113955	0.108178
O2	O	1.839227	0.219378	0.441512
O3	O	2.172561	0.552712	0.774845
O4	O	1.175450	-0.125699	0.108209
O5	O	1.508783	0.207634	0.441542
O6	O	1.842117	0.540968	0.774876
O7	O	1.349750	0.001161	0.108180
O8	O	1.683083	0.334495	0.441513
O9	O	2.016416	0.667828	0.774846
O10	O	1.331595	-0.240815	0.108208
O11	O	1.664928	0.092518	0.441541
O12	O	1.998261	0.425851	0.774874
O13	O	1.349765	0.001167	-0.108421
O14	O	1.683098	0.334500	0.224912
O15	O	2.016432	0.667833	0.558246
O16	O	1.175465	-0.125694	-0.108392
O17	O	1.508799	0.207640	0.224942
O18	O	1.842132	0.540973	0.558275
O19	O	1.505909	-0.113950	-0.108422
O20	O	1.839243	0.219384	0.224911
O21	O	2.172576	0.552717	0.558244
Cu22	Cu	1.340689	-0.119821	-0.128184
Cu23	Cu	1.674022	0.213512	0.205149
Cu24	Cu	2.007355	0.546846	0.538482
Cu25	Cu	1.340671	-0.119827	0.127971
Cu26	Cu	1.674004	0.213506	0.461304
Cu27	Cu	2.007337	0.546839	0.794638
O28	O	1.331610	-0.240810	-0.108393
O29	O	1.664943	0.092523	0.224941
O30	O	1.998276	0.425857	0.558274
C31	C	1.133173	-0.124959	-0.000087
C32	C	1.466507	0.208375	0.333246
C33	C	1.799840	0.541708	0.666579
C34	C	1.007179	-0.122751	-0.000076
C35	C	1.340512	0.210583	0.333257
C36	C	1.673846	0.543916	0.666591
C37	C	1.349022	0.032142	-0.000121
C38	C	1.682355	0.365476	0.333212
C39	C	2.015689	0.698809	0.666545
C40	C	1.346817	0.124448	-0.000123
C41	C	1.680150	0.457781	0.333210
C42	C	2.013484	0.791115	0.666544
N43	N	1.340659	-0.119826	0.308137
N44	N	1.673992	0.213507	0.641470
N45	N	2.007325	0.546841	0.974804
C46	C	0.776502	-0.118690	-0.000114
C47	C	1.109836	0.214643	0.333219
C48	C	1.443169	0.547976	0.666553
C49	C	0.904868	-0.120946	-0.000093
C50	C	1.238201	0.212387	0.333240
C51	C	1.571534	0.545720	0.666573
C52	C	1.548186	-0.114690	-0.000123
C53	C	1.881520	0.218643	0.333210
C54	C	2.214853	0.551977	0.666544
C55	C	1.674181	-0.116898	-0.000126
C56	C	2.007514	0.216435	0.333208
C57	C	2.340847	0.549769	0.666541
C58	C	1.332338	-0.271791	-0.000089
C59	C	1.665671	0.061542	0.333244
C60	C	1.999004	0.394876	0.666578
C61	C	1.334542	-0.364097	-0.000079
C62	C	1.667876	-0.030763	0.333255
C63	C	2.001209	0.302570	0.666588
C64	C	1.445116	0.346258	-0.000111
C65	C	1.778450	0.679591	0.333222
C66	C	2.111783	1.012924	0.666555
C67	C	1.443036	0.432988	-0.000101
C68	C	1.776369	0.766321	0.333233
C69	C	2.109703	1.099655	0.666566
C70	C	1.236235	0.414087	-0.000086
C71	C	1.569569	0.747420	0.333247
C72	C	1.902902	1.080753	0.666580
C73	C	1.238317	0.327358	-0.000088
C74	C	1.571650	0.660692	0.333245
C75	C	1.904984	0.994025	0.666579
C76	C	1.342761	0.293446	-0.000107
C77	C	1.676094	0.626780	0.333226
C78	C	2.009428	0.960113	0.666560
C79	C	1.338599	0.466905	-0.000095
C80	C	1.671932	0.800238	0.333239
C81	C	2.005265	1.133572	0.666572
C82	C	1.336342	0.560942	-0.000083
C83	C	1.669675	0.894275	0.333250
C84	C	2.003009	1.227608	0.666584
C85	C	1.345018	0.199404	-0.000117
C86	C	1.678351	0.532737	0.333217
C87	C	2.011685	0.866070	0.666550
N88	N	1.340710	-0.119816	-0.308350
N89	N	1.674043	0.213517	0.024983
N90	N	2.007376	0.546850	0.358317
C91	C	1.340666	-0.119826	0.425979
C92	C	1.674000	0.213508	0.759313
C93	C	2.007333	0.546841	1.092646
C94	C	1.340687	-0.119823	0.573817
C95	C	1.674020	0.213510	0.907151
C96	C	2.007353	0.546844	1.240484
H97	H	1.530161	0.318650	-0.000124
H98	H	1.863495	0.651983	0.333209
H99	H	2.196828	0.985316	0.666542
Br100	Br	1.581953	0.504658	-0.000099
Br101	Br	1.915287	0.837992	0.333234
Br102	Br	2.248620	1.171325	0.666568
H103	H	1.151201	0.441709	-0.000073
H104	H	1.484534	0.775042	0.333260
H105	H	1.817867	1.108376	0.666593
Br106	Br	1.099396	0.255679	-0.000065
Br107	Br	1.432729	0.589012	0.333269
Br108	Br	1.766062	0.922346	0.666602
