data_functionalizedCrystal
_audit_creation_method	'MofGen! by Chris Wilmer'
_symmetry_space_group_name_H-M	'P1'
_symmetry_Int_Tables_number	1
_symmetry_cell_setting	triclinic
loop_
_symmetry_equiv_pos_as_xyz
  x,y,z
_cell_length_a	16.974897
_cell_length_b	22.010155
_cell_length_c	16.992695
_cell_angle_alpha	90.004303
_cell_angle_beta	92.972799
_cell_angle_gamma	93.660029
loop_
_atom_site_label
_atom_site_type_symbol
_atom_site_fract_x
_atom_site_fract_y
_atom_site_fract_z
O1	O	1.055462	0.102369	-0.099965
O2	O	1.555462	0.602369	0.400035
O3	O	0.826061	0.091102	-0.112683
O4	O	1.326061	0.591102	0.387317
O5	O	0.939842	0.096685	0.007818
O6	O	1.439842	0.596685	0.507818
O7	O	0.941681	0.096785	-0.220465
O8	O	1.441681	0.596785	0.279535
O9	O	0.939821	-0.004366	0.007800
O10	O	1.439821	0.495634	0.507800
O11	O	0.826040	-0.009949	-0.112701
O12	O	1.326040	0.490051	0.387299
O13	O	1.055441	0.001317	-0.099983
O14	O	1.555441	0.501317	0.400017
Cu15	Cu	0.940739	-0.013543	-0.106343
Cu16	Cu	1.440739	0.486457	0.393657
Cu17	Cu	0.940763	0.105962	-0.106322
Cu18	Cu	1.440763	0.605962	0.393678
O19	O	0.941660	-0.004266	-0.220483
O20	O	1.441660	0.495734	0.279517
C21	C	0.796562	0.039128	-0.112206
C22	C	1.296562	0.539128	0.387794
C23	C	0.708693	0.034813	-0.110751
C24	C	1.208693	0.534813	0.389249
C25	C	0.667417	0.087864	-0.110059
C26	C	1.167417	0.587864	0.389941
C27	C	0.584855	0.083800	-0.108703
C28	C	1.084855	0.583800	0.391297
C29	C	0.543571	0.026684	-0.108034
C30	C	1.043571	0.526684	0.391966
C31	C	0.584853	-0.026371	-0.108729
C32	C	1.084853	0.473629	0.391271
C33	C	0.667413	-0.022307	-0.110090
C34	C	1.167413	0.477693	0.389910
C35	C	0.296651	0.008622	-0.103970
C36	C	0.796651	0.508622	0.396030
C37	C	0.214085	0.004561	-0.102607
C38	C	0.714085	0.504561	0.397393
C39	C	0.214093	0.114732	-0.102583
C40	C	0.714093	0.614732	0.397417
C41	C	0.296655	0.118792	-0.103939
C42	C	0.796655	0.618792	0.396061
C43	C	0.337929	0.065737	-0.104638
C44	C	0.837929	0.565737	0.395362
N45	N	0.459179	0.022529	-0.106646
N46	N	0.959179	0.522529	0.393354
N47	N	0.422319	0.069893	-0.106031
N48	N	0.922319	0.569893	0.393969
N49	N	0.940727	-0.097596	-0.106358
N50	N	1.440727	0.402404	0.393642
C51	C	0.991149	-0.514901	-0.052972
C52	C	1.491149	-0.014901	0.447028
C53	C	0.991153	-0.578508	-0.052967
C54	C	1.491153	-0.078508	0.447033
O55	O	1.033992	-0.609298	-0.007586
O56	O	1.533992	-0.109298	0.492414
N57	N	0.940762	-0.612801	-0.106306
N58	N	1.440762	-0.112801	0.393694
C59	C	0.890359	-0.583484	-0.159648
C60	C	1.390359	-0.083484	0.340352
O61	O	0.847498	-0.618493	-0.205017
O62	O	1.347498	-0.118493	0.294983
C63	C	0.890352	-0.519878	-0.159649
C64	C	1.390352	-0.019878	0.340351
C65	C	0.940752	-0.485588	-0.106312
C66	C	1.440752	0.014412	0.393688
C67	C	1.041544	-0.480611	0.000362
C68	C	1.541544	0.019389	0.500362
C69	C	1.041542	-0.417008	0.000355
C70	C	1.541542	0.082992	0.500355
C71	C	0.991144	-0.387695	-0.052985
C72	C	1.491144	0.112305	0.447015
C73	C	0.940749	-0.421985	-0.106319
C74	C	1.440749	0.078015	0.393681
C75	C	0.839946	-0.490561	-0.212988
C76	C	1.339946	0.009439	0.287012
C77	C	0.839943	-0.426951	-0.212984
C78	C	1.339943	0.073049	0.287016
C79	C	0.890343	-0.392661	-0.159646
C80	C	1.390343	0.107339	0.340354
C81	C	0.890350	-0.329068	-0.159665
C82	C	1.390350	0.170932	0.340335
N83	N	0.940740	-0.294775	-0.106326
N84	N	1.440740	0.205225	0.393674
C85	C	0.991138	-0.324089	-0.052986
C86	C	1.491138	0.175911	0.447014
C87	C	0.890376	-0.717061	-0.159641
C88	C	1.390376	-0.217061	0.340359
C89	C	0.890386	-0.780665	-0.159645
C90	C	1.390386	-0.280665	0.340355
C91	C	0.991179	-0.775686	-0.052962
C92	C	1.491179	-0.275686	0.447038
C93	C	0.991172	-0.712080	-0.052963
C94	C	1.491172	-0.212080	0.447037
C95	C	0.940767	-0.682768	-0.106302
C96	C	1.440767	-0.182768	0.393698
C97	C	0.991129	-0.190518	-0.053004
C98	C	1.491129	0.309482	0.446996
C99	C	0.991124	-0.126909	-0.053018
C100	C	1.491124	0.373091	0.446982
C101	C	0.890329	-0.131894	-0.159698
C102	C	1.390329	0.368106	0.340302
C103	C	0.890336	-0.195497	-0.159687
C104	C	1.390336	0.304503	0.340313
C105	C	0.940739	-0.224807	-0.106334
C106	C	1.440739	0.275193	0.393666
O107	O	0.847529	-0.298238	-0.205021
O108	O	1.347529	0.201762	0.294979
O109	O	1.033984	-0.289072	-0.007619
O110	O	1.533984	0.210928	0.492381
C111	C	1.084941	0.053293	-0.100459
C112	C	1.584941	0.553293	0.399541
C113	C	1.172809	0.057612	-0.101915
C114	C	1.672809	0.557612	0.398085
C115	C	0.937465	0.046044	0.037019
C116	C	1.437465	0.546044	0.537019
C117	C	0.930406	0.045697	0.124056
C118	C	1.430406	0.545697	0.624056
N119	N	0.940781	0.190016	-0.106301
N120	N	1.440781	0.690016	0.393699
C121	C	0.944037	0.046377	-0.249685
C122	C	1.444037	0.546377	0.250315
C123	C	0.951096	0.046728	-0.336721
C124	C	1.451096	0.546728	0.163279
C125	C	0.998521	0.049042	0.174367
C126	C	1.498521	0.549042	0.674367
C127	C	0.991883	0.048722	0.256147
C128	C	1.491883	0.548722	0.756147
C129	C	0.917129	0.045052	0.287614
C130	C	1.417129	0.545052	0.787614
C131	C	0.849009	0.041709	0.237296
C132	C	1.349009	0.541709	0.737296
C133	C	0.855648	0.042034	0.155518
C134	C	1.355648	0.542034	0.655518
C135	C	0.889615	0.043709	0.531183
C136	C	1.389615	0.543709	1.031183
C137	C	0.882981	0.043383	0.612968
C138	C	1.382981	0.543383	1.112968
C139	C	1.025856	0.050397	0.631812
C140	C	1.525856	0.550397	1.131812
C141	C	1.032488	0.050717	0.550032
C142	C	1.532488	0.550717	1.050032
C143	C	0.964368	0.047377	0.499721
C144	C	1.464368	0.547377	0.999721
N145	N	0.910342	0.044723	0.371206
N146	N	1.410342	0.544723	0.871206
N147	N	0.971155	0.047711	0.416131
N148	N	1.471155	0.547711	0.916131
H149	H	0.701019	-0.065507	-0.110656
H150	H	1.201019	0.434493	0.389344
N151	N	0.772643	0.037949	0.269423
N152	N	1.272643	0.537949	0.769423
N153	N	0.711832	0.034959	0.224491
N154	N	1.211832	0.534959	0.724491
H155	H	0.657895	0.032299	0.247178
H156	H	1.157895	0.532299	0.747178
H157	H	0.180478	0.157927	-0.102016
H158	H	0.680478	0.657927	0.397984
N159	N	0.542704	0.137996	-0.108006
N160	N	1.042704	0.637996	0.391994
N161	N	0.579574	0.188989	-0.108604
N162	N	1.079574	0.688989	0.391396
H163	H	0.549805	0.227268	-0.108114
H164	H	1.049805	0.727268	0.391886
N165	N	0.786068	0.038603	0.104126
N166	N	1.286068	0.538603	0.604126
N167	N	0.773821	-0.004595	0.056387
N168	N	1.273821	0.495405	0.556387
H169	H	0.724678	-0.007017	0.020092
H170	H	1.224678	0.492983	0.520092
N171	N	0.709596	0.146202	-0.110748
N172	N	1.209596	0.646202	0.389252
N173	N	0.783309	0.149826	-0.111964
N174	N	1.283309	0.649826	0.388036
H175	H	0.813098	0.191029	-0.112453
H176	H	1.313098	0.691029	0.387547
N177	N	1.108842	0.054470	0.517879
N178	N	1.608842	0.554470	1.017879
N179	N	1.114758	0.054758	0.444862
N180	N	1.614758	0.554758	0.944862
H181	H	1.168684	0.057405	0.422152
H182	H	1.668684	0.557405	0.922152
H183	H	1.059394	0.052026	0.148753
H184	H	1.559394	0.552026	0.648753
H185	H	0.551233	-0.072876	-0.108189
H186	H	1.051233	0.427124	0.391811
H187	H	0.798905	-0.518472	-0.256419
H188	H	1.298905	-0.018472	0.243581
H189	H	1.032169	-0.098992	-0.009584
H190	H	1.532169	0.401008	0.490416
N191	N	1.095427	0.053807	0.683214
N192	N	1.595427	0.553807	1.183214
N193	N	1.089494	0.053515	0.756229
N194	N	1.589494	0.553515	1.256229
H195	H	1.138631	0.055925	0.792533
H196	H	1.638631	0.555925	1.292533
H197	H	1.032171	-0.214375	-0.009558
H198	H	1.532171	0.285625	0.490442
N199	N	1.093089	-0.381993	0.054788
N200	N	1.593089	0.118007	0.554788
N201	N	1.138119	-0.408182	0.102368
N202	N	1.638119	0.091818	0.602368
H203	H	1.174549	-0.383455	0.140794
H204	H	1.674549	0.116545	0.640794
H205	H	1.047350	0.051444	0.297107
H206	H	1.547350	0.551444	0.797107
H207	H	0.180472	-0.041952	-0.102084
H208	H	0.680472	0.458048	0.397916
N209	N	1.093030	-0.510538	0.054861
N210	N	1.593030	-0.010538	0.554861
N211	N	1.138015	-0.479903	0.102473
N212	N	1.638015	0.020097	0.602473
H213	H	1.174384	-0.501033	0.140964
H214	H	1.674384	-0.001033	0.640964
H215	H	1.032211	-0.684164	-0.009530
H216	H	1.532211	-0.184164	0.490470
N217	N	1.042638	-0.805646	0.001537
N218	N	1.542638	-0.305646	0.501537
N219	N	1.042617	-0.862438	0.001537
N220	N	1.542617	-0.362438	0.501537
H221	H	1.078951	-0.883600	0.040030
H222	H	1.578951	-0.383600	0.540030
H223	H	0.849298	-0.108018	-0.203129
H224	H	1.349298	0.391982	0.296871
H225	H	0.822105	0.040385	0.638584
H226	H	1.322105	0.540385	1.138584
H227	H	0.330263	0.165301	-0.104479
H228	H	0.830263	0.665301	0.395521
H229	H	0.849355	-0.808580	-0.203085
H230	H	1.349355	-0.308580	0.296915
H231	H	0.834146	0.040989	0.490230
H232	H	1.334146	0.540989	0.990230
N233	N	0.838882	-0.687132	-0.214139
N234	N	1.338882	-0.187132	0.285861
N235	N	0.793898	-0.717763	-0.261755
N236	N	1.293898	-0.217763	0.238245
H237	H	0.757529	-0.696629	-0.300243
H238	H	1.257529	-0.196629	0.199757
H239	H	0.798894	-0.403089	-0.256419
H240	H	1.298894	0.096911	0.243581
N241	N	0.338794	-0.045577	-0.104663
N242	N	0.838794	0.454423	0.395337
N243	N	0.301922	-0.096568	-0.104050
N244	N	0.801922	0.403432	0.395950
H245	H	0.331688	-0.134848	-0.104531
H246	H	0.831688	0.365152	0.395469
H247	H	0.849304	-0.223417	-0.203127
H248	H	1.349304	0.276583	0.296873
