data_functionalizedCrystal
_audit_creation_method	'MofGen! by Chris Wilmer'
_symmetry_space_group_name_H-M	'P1'
_symmetry_Int_Tables_number	1
_symmetry_cell_setting	triclinic
loop_
_symmetry_equiv_pos_as_xyz
  x,y,z
_cell_length_a	18.215407
_cell_length_b	18.215406
_cell_length_c	18.215399
_cell_angle_alpha	89.982426
_cell_angle_beta	89.985640
_cell_angle_gamma	89.998243
loop_
_atom_site_label
_atom_site_type_symbol
_atom_site_fract_x
_atom_site_fract_y
_atom_site_fract_z
Zn1	Zn	1.125173	-0.293024	-0.416133
Zn2	Zn	1.125140	-0.416101	-0.293094
Zn3	Zn	1.002112	-0.293047	-0.293086
Zn4	Zn	1.002123	-0.416048	-0.416124
O5	O	1.063637	-0.354555	-0.354609
O6	O	1.228153	-0.309363	-0.399819
O7	O	1.108801	-0.399809	-0.190109
O8	O	1.018446	-0.190060	-0.309408
O9	O	1.228129	-0.399787	-0.309423
O10	O	1.108858	-0.190043	-0.399810
O11	O	1.018414	-0.309402	-0.190102
O12	O	0.899130	-0.309351	-0.309400
O13	O	1.018465	-0.399697	-0.519110
O14	O	0.899138	-0.399719	-0.399796
O15	O	1.108869	-0.309312	-0.519116
O16	O	1.108812	-0.519078	-0.309414
O17	O	1.018433	-0.519040	-0.399804
C18	C	0.872431	-0.354533	-0.354596
C19	C	0.790632	-0.354541	-0.354608
C20	C	0.602450	-0.307554	-0.401752
C21	C	0.525591	-0.307560	-0.401754
C22	C	0.525577	-0.401577	-0.307479
C23	C	0.602434	-0.401567	-0.307474
C24	C	0.640869	-0.354556	-0.354614
C25	C	0.487152	-0.354573	-0.354622
C26	C	0.403819	-0.354580	-0.354625
C27	C	0.724208	-0.354548	-0.354611
C28	C	1.063655	-0.162602	-0.354609
C29	C	1.063662	-0.080803	-0.354609
C30	C	1.063640	-0.545761	-0.354625
C31	C	1.063708	-0.627560	-0.354657
C32	C	1.255590	-0.354578	-0.354623
C33	C	1.337389	-0.354588	-0.354628
C34	C	1.063672	-0.354496	-0.546562
C35	C	1.063687	-0.354471	-0.628361
C36	C	1.016608	0.107383	-0.307563
C37	C	1.016614	0.184242	-0.307572
C38	C	1.110765	0.184248	-0.401708
C39	C	1.110754	0.107391	-0.401702
C40	C	1.063677	0.068960	-0.354626
C41	C	1.063693	0.222676	-0.354640
C42	C	1.063700	0.306010	-0.354650
C43	C	1.063669	-0.014379	-0.354616
C44	C	1.016662	-0.307365	-0.816553
C45	C	1.016674	-0.307350	-0.893412
C46	C	1.110800	-0.401490	-0.893407
C47	C	1.110783	-0.401508	-0.816550
C48	C	1.063715	-0.354441	-0.778125
C49	C	1.063745	-0.354409	-0.931841
C50	C	1.063759	-0.354393	-1.015175
C51	C	1.063699	-0.354458	-0.694786
C52	C	1.063645	-0.354561	-0.163403
C53	C	1.063773	-0.354378	-0.081604
H54	H	0.633715	-0.439842	-0.269085
C55	C	0.964917	-0.255563	-0.935683
C56	C	0.996821	-0.197779	-0.988530
C57	C	0.945061	-0.145990	-1.030802
C58	C	0.861397	-0.151986	-1.020227
C59	C	0.829489	-0.209772	-0.967378
C60	C	0.881249	-0.261561	-0.925106
H61	H	1.058759	-0.193338	-0.996360
H62	H	0.968682	-0.103213	-1.069924
H63	H	0.823081	-0.113649	-1.051519
H64	H	0.767552	-0.214213	-0.959548
H65	H	0.857628	-0.304338	-0.885984
C66	C	0.964882	-0.255599	-0.774285
C67	C	0.907092	-0.287497	-0.721442
C68	C	0.855308	-0.235732	-0.679177
C69	C	0.861315	-0.152068	-0.689753
C70	C	0.919107	-0.120165	-0.742598
C71	C	0.970891	-0.171931	-0.784863
H72	H	0.902643	-0.349434	-0.713611
H73	H	0.812527	-0.259348	-0.640058
H74	H	0.822982	-0.113748	-0.658466
H75	H	0.923556	-0.058228	-0.750429
H76	H	1.013672	-0.148314	-0.823982
H77	H	1.149122	-0.439810	-0.924703
C78	C	0.964818	0.065109	-0.255787
C79	C	0.964803	-0.019431	-0.255775
C80	C	0.913010	-0.061703	-0.203999
C81	C	0.861231	-0.019435	-0.152235
C82	C	0.861244	0.065110	-0.152245
C83	C	0.913037	0.107381	-0.204021
H84	H	1.003135	-0.050725	-0.294095
H85	H	0.913001	-0.124289	-0.203992
H86	H	0.822891	-0.050727	-0.113907
H87	H	0.822912	0.096403	-0.113924
H88	H	0.913046	0.169967	-0.204028
C89	C	0.964838	0.226506	-0.255800
C90	C	0.970830	0.215919	-0.172138
C91	C	0.919051	0.258183	-0.120363
C92	C	0.861281	0.311032	-0.152251
C93	C	0.855287	0.321621	-0.235918
C94	C	0.907066	0.279358	-0.287692
H95	H	1.013597	0.176795	-0.148529
H96	H	0.923489	0.250344	-0.058428
H97	H	0.822951	0.342318	-0.113925
H98	H	0.812520	0.360746	-0.259527
H99	H	0.902629	0.287197	-0.349627
H100	H	1.149095	0.215546	-0.440035
C101	C	0.483298	-0.453292	-0.255631
C102	C	0.493886	-0.536959	-0.261509
C103	C	0.451609	-0.588677	-0.209661
C104	C	0.398746	-0.556729	-0.151935
C105	C	0.388155	-0.473057	-0.146056
C106	C	0.430431	-0.421339	-0.197904
H107	H	0.533021	-0.560613	-0.304242
H108	H	0.459449	-0.650617	-0.214013
H109	H	0.367450	-0.595014	-0.113554
H110	H	0.349020	-0.449403	-0.103322
H111	H	0.422592	-0.359400	-0.193551
H112	H	1.149084	0.076106	-0.440031
C113	C	1.162548	-0.453295	-0.774276
C114	C	1.246213	-0.447292	-0.784845
C115	C	1.297975	-0.499079	-0.742573
C116	C	1.266072	-0.556868	-0.689732
C117	C	1.182403	-0.562874	-0.679160
C118	C	1.130641	-0.511087	-0.721433
H119	H	1.269833	-0.404511	-0.823964
H120	H	1.359912	-0.494633	-0.750399
H121	H	1.304389	-0.595204	-0.658439
H122	H	1.158783	-0.605656	-0.640042
H123	H	1.068704	-0.515534	-0.713607
C124	C	0.644729	-0.255838	-0.453599
C125	C	0.602465	-0.204133	-0.505446
C126	C	0.644742	-0.152414	-0.557293
C127	C	0.729282	-0.152400	-0.557292
C128	C	0.771550	-0.204106	-0.505443
C129	C	0.729274	-0.255826	-0.453596
H130	H	0.539880	-0.204142	-0.505448
H131	H	0.613452	-0.114137	-0.595675
H132	H	0.760578	-0.114114	-0.595672
H133	H	0.834136	-0.204097	-0.505441
H134	H	0.760564	-0.294102	-0.415214
H135	H	0.494314	-0.269285	-0.440137
