data_functionalizedCrystal
_audit_creation_method	'MofGen! by Chris Wilmer'
_symmetry_space_group_name_H-M	'P1'
_symmetry_Int_Tables_number	1
_symmetry_cell_setting	triclinic
loop_
_symmetry_equiv_pos_as_xyz
  x,y,z
_cell_length_a	14.044191
_cell_length_b	13.101039
_cell_length_c	11.792240
_cell_angle_alpha	93.375970
_cell_angle_beta	91.307403
_cell_angle_gamma	93.662449
loop_
_atom_site_label
_atom_site_type_symbol
_atom_site_fract_x
_atom_site_fract_y
_atom_site_fract_z
O1	O	1.264300	0.085204	-0.268069
O2	O	0.988280	0.085216	-0.258181
O3	O	1.132986	0.085179	-0.098586
O4	O	1.119594	0.085241	-0.427665
O5	O	1.122604	-0.085249	-0.110057
O6	O	0.977898	-0.085211	-0.269653
O7	O	1.253917	-0.085223	-0.279541
Zn8	Zn	1.114259	-0.112276	-0.276418
Zn9	Zn	1.127938	0.112269	-0.261304
O10	O	1.109211	-0.085186	-0.439136
C11	C	0.947752	0.000003	-0.259591
C12	C	0.842460	0.000006	-0.246689
N13	N	1.104930	-0.265522	-0.286733
C14	C	1.092238	-0.474562	-0.300778
C15	C	1.149964	-0.525452	-0.236940
C16	C	1.142902	-0.641769	-0.244754
C17	C	1.099299	-0.358234	-0.292964
C18	C	0.592523	0.000009	-0.314606
C19	C	0.649681	-0.000007	-0.223120
C20	C	0.756953	0.000000	-0.236237
C21	C	0.485241	0.000002	-0.301491
C22	C	1.294445	-0.000008	-0.278130
C23	C	1.399738	-0.000004	-0.291032
C24	C	1.126953	-0.000041	-0.061952
C25	C	1.124434	-0.000058	0.064297
N26	N	1.137275	0.265515	-0.250981
C27	C	1.119801	-0.000074	0.295443
C28	C	1.122375	-0.000065	0.166817
C29	C	1.115242	-0.000001	0.524228
C30	C	1.117756	-0.000085	0.397972
H31	H	1.204689	-0.481664	-0.176419
C32	C	1.018318	-0.533705	-0.382545
C33	C	1.010644	-0.651701	-0.389542
C34	C	0.936728	-0.710858	-0.471312
C35	C	0.870486	-0.652020	-0.546086
C36	C	0.878158	-0.534018	-0.539092
C37	C	0.952074	-0.474861	-0.457321
H38	H	1.059682	-0.695262	-0.334188
H39	H	0.931050	-0.798211	-0.476489
H40	H	0.815769	-0.695812	-0.606617
H41	H	0.829120	-0.490457	-0.594446
H42	H	0.957753	-0.387508	-0.452144
H43	H	0.618056	0.000048	-0.134941
C44	C	0.635246	0.000053	-0.433718
C45	C	0.744090	0.000074	-0.446835
C46	C	0.786827	0.000126	-0.565944
C47	C	0.720720	0.000158	-0.671938
C48	C	0.611868	0.000137	-0.658825
C49	C	0.569132	0.000084	-0.539715
H50	H	0.793033	0.000050	-0.368369
H51	H	0.867407	0.000142	-0.575651
H52	H	0.752356	0.000197	-0.760110
H53	H	0.562926	0.000161	-0.737291
H54	H	0.488552	0.000069	-0.530009
