data_functionalizedCrystal
_audit_creation_method	'MofGen! by Chris Wilmer'
_symmetry_space_group_name_H-M	'P1'
_symmetry_Int_Tables_number	1
_symmetry_cell_setting	triclinic
loop_
_symmetry_equiv_pos_as_xyz
  x,y,z
_cell_length_a	17.077404
_cell_length_b	12.594516
_cell_length_c	17.077396
_cell_angle_alpha	89.975179
_cell_angle_beta	89.980499
_cell_angle_gamma	90.012041
loop_
_atom_site_label
_atom_site_type_symbol
_atom_site_fract_x
_atom_site_fract_y
_atom_site_fract_z
Zn1	Zn	1.200115	-0.423736	-0.443863
Zn2	Zn	1.200047	-0.601736	-0.312605
Zn3	Zn	1.068847	-0.423773	-0.312611
Zn4	Zn	1.068840	-0.601673	-0.443829
O5	O	1.134462	-0.512730	-0.378227
O6	O	1.309953	-0.447359	-0.426463
O7	O	1.182618	-0.578171	-0.202759
O8	O	1.086291	-0.274822	-0.330038
O9	O	1.309903	-0.578135	-0.330029
O10	O	1.182733	-0.274795	-0.426468
O11	O	1.086225	-0.447422	-0.202763
O12	O	0.958999	-0.447361	-0.330005
O13	O	1.086280	-0.578027	-0.553680
O14	O	0.958994	-0.578064	-0.426410
O15	O	1.182727	-0.447297	-0.553705
O16	O	1.182611	-0.750674	-0.329996
O17	O	1.086214	-0.750627	-0.426405
C18	C	0.930515	-0.512710	-0.378205
C19	C	0.843265	-0.512728	-0.378214
C20	C	0.802293	-0.580887	-0.428332
C21	C	0.720312	-0.580889	-0.428345
C22	C	0.679305	-0.512737	-0.378235
C23	C	0.720283	-0.444570	-0.328115
C24	C	0.802262	-0.444563	-0.328107
C25	C	0.549413	-0.444591	-0.328134
C26	C	0.467429	-0.444599	-0.328141
C27	C	0.467463	-0.580917	-0.428372
C28	C	0.549442	-0.580910	-0.428364
C29	C	0.590414	-0.512745	-0.378242
C30	C	1.134426	-0.789271	-0.378213
C31	C	1.134482	-0.907576	-0.378234
C32	C	1.186974	-0.976816	-0.325852
C33	C	1.206155	-1.047517	-0.397500
C34	C	1.115399	-1.047673	-0.306632
C35	C	1.153700	-0.976719	-0.449918
C36	C	1.062911	-0.976869	-0.359002
C37	C	1.082065	-1.047539	-0.430699
C38	C	1.339207	-0.512750	-0.378249
C39	C	1.426456	-0.512758	-0.378258
C40	C	1.134510	-0.512651	-0.582971
C41	C	1.134530	-0.512618	-0.670221
C42	C	1.134520	-0.235109	-0.378258
C43	C	1.134545	-0.116803	-0.378271
C44	C	1.184752	-0.444541	-0.711225
C45	C	1.184761	-0.444506	-0.793206
C46	C	1.134552	-0.512553	-0.834180
C47	C	1.084325	-0.580633	-0.793170
C48	C	1.084312	-0.580662	-0.711191
C49	C	1.084357	-0.580569	-0.964040
C50	C	1.084370	-0.580541	-1.046025
C51	C	1.184806	-0.444412	-1.046055
C52	C	1.184793	-0.444442	-0.964076
C53	C	1.134566	-0.512523	-0.923072
C54	C	1.134460	-0.512731	-0.174279
C55	C	1.134592	-0.512464	-0.087030
H56	H	0.686956	-0.636393	-0.469155
H57	H	1.043484	-0.635949	-1.079384
H58	H	1.231371	-0.945761	-0.281595
C59	C	1.239986	-0.369681	-0.666161
N60	N	1.281587	-0.313290	-0.632221
C61	C	0.594481	-0.369607	-0.272996
N62	N	0.628426	-0.313135	-0.231463
H63	H	1.266708	-1.078553	-0.413787
H64	H	0.582828	-0.636412	-0.469163
H65	H	1.043408	-0.636086	-0.677807
H66	H	1.169806	-0.945685	-0.510538
C67	C	0.847331	-0.369585	-0.272972
N68	N	0.881276	-0.313107	-0.231444
H69	H	1.043441	-0.636034	-0.826538
H70	H	0.434043	-0.389090	-0.287346
H71	H	1.099233	-1.078839	-0.246064
C72	C	0.847392	-0.655862	-0.483458
N73	N	0.881360	-0.712333	-0.524982
H74	H	1.037702	-1.078396	-0.475063
C75	C	0.981134	-0.934896	-0.336966
N76	N	0.919541	-0.903276	-0.320359
H77	H	1.225659	-0.389073	-0.826588
C78	C	1.240024	-0.369584	-0.919006
N79	N	1.281621	-0.313195	-0.885059
C80	C	0.422392	-0.655896	-0.483509
N81	N	0.388441	-0.712369	-0.525036
C82	C	1.240055	-0.369521	-1.091162
N83	N	1.281670	-0.313119	-1.125139
C84	C	1.029107	-0.655466	-0.918937
N85	N	0.987498	-0.711883	-0.884966
H86	H	0.686889	-0.389074	-0.287318
