data_functionalizedCrystal
_audit_creation_method	'MofGen! by Chris Wilmer'
_symmetry_space_group_name_H-M	'P1'
_symmetry_Int_Tables_number	1
_symmetry_cell_setting	triclinic
loop_
_symmetry_equiv_pos_as_xyz
  x,y,z
_cell_length_a	11.026607
_cell_length_b	12.837942
_cell_length_c	9.482900
_cell_angle_alpha	100.328050
_cell_angle_beta	78.636152
_cell_angle_gamma	101.707478
loop_
_atom_site_label
_atom_site_type_symbol
_atom_site_fract_x
_atom_site_fract_y
_atom_site_fract_z
O1	O	1.678880	0.430677	-0.120903
O2	O	1.319732	0.380157	-0.120904
O3	O	1.491341	0.253029	-0.120894
O4	O	1.507271	0.557805	-0.120912
O5	O	1.456499	0.278984	0.120896
O6	O	1.284890	0.406113	0.120887
O7	O	1.644038	0.456632	0.120888
Cu8	Cu	1.461282	0.433742	0.142965
Cu9	Cu	1.502487	0.403047	-0.142981
O10	O	1.472429	0.583760	0.120878
C11	C	1.256022	0.383815	-0.000009
C12	C	1.118096	0.356032	-0.000009
C13	C	1.468539	0.226382	0.000000
C14	C	1.452492	0.108310	-0.000002
C15	C	1.053162	0.432745	-0.000014
C16	C	0.910607	0.404032	-0.000015
C17	C	1.645414	-0.096652	-0.000032
C18	C	1.630343	-0.207590	-0.000035
C19	C	1.407280	-0.224509	-0.000020
C20	C	1.422352	-0.113570	-0.000018
C21	C	1.541422	-0.049645	-0.000021
C22	C	1.556492	0.061297	-0.000009
C23	C	1.333431	0.044375	-0.000005
C24	C	1.318360	-0.066563	-0.000007
C25	C	1.707748	0.452974	-0.000011
C26	C	1.845676	0.480756	-0.000020
C27	C	1.495231	0.610407	-0.000019
C28	C	1.511279	0.728478	-0.000026
N29	N	1.432310	0.455332	0.344083
N30	N	1.531469	0.381450	-0.344099
C31	C	1.493932	0.409408	0.416286
C32	C	1.469837	0.427381	0.583702
H33	H	1.103105	0.519680	-0.000011
H34	H	0.860673	0.317088	-0.000047
O35	O	1.385517	0.490028	0.657961
C36	C	1.289628	0.428531	0.745998
H37	H	1.325935	0.357145	0.768641
H38	H	1.259925	0.480578	0.853098
H39	H	1.205488	0.398142	0.687447
H40	H	0.895613	0.567697	-0.000015
H41	H	1.653444	0.113344	-0.000006
O42	O	1.202622	-0.128515	-0.000068
C43	C	1.114062	-0.063228	-0.000017
H44	H	1.164095	0.013423	-0.045789
H45	H	1.041815	-0.108728	-0.070211
H46	H	1.064664	-0.041586	0.115986
O47	O	1.058505	0.252305	-0.000263
C48	C	1.001765	0.218242	-0.125469
H49	H	1.051460	0.269894	-0.212996
H50	H	1.009426	0.130485	-0.167500
H51	H	0.898530	0.226800	-0.097156
O52	O	1.761169	-0.034712	-0.000099
C53	C	1.849720	-0.099987	-0.000064
H54	H	1.812878	-0.186461	-0.045837
H55	H	1.942191	-0.069549	-0.070266
H56	H	1.865698	-0.096732	0.115934
O57	O	1.731359	-0.253330	-0.000299
C58	C	1.747336	-0.330452	-0.125507
H59	H	1.701195	-0.311213	-0.213027
H60	H	1.851862	-0.328738	-0.167549
H61	H	1.701873	-0.413765	-0.097195
O62	O	1.291718	-0.286751	-0.000217
C63	C	1.294373	-0.364842	-0.125469
H64	H	1.394969	-0.378581	-0.167224
H65	H	1.232529	-0.443421	-0.097314
H66	H	1.257768	-0.335674	-0.213149
O67	O	1.232547	0.090203	-0.000064
C68	C	1.271371	0.201833	-0.000021
H69	H	1.375874	0.219345	-0.045801
H70	H	1.215983	0.231061	-0.070212
H71	H	1.253649	0.245358	0.115981
H72	H	1.564524	0.356779	0.354162
H73	H	1.602065	0.328818	0.593780
O74	O	1.347995	0.517975	0.418348
C75	C	1.252106	0.456478	0.506385
H76	H	1.288412	0.385093	0.529028
H77	H	1.222402	0.508525	0.613485
H78	H	1.167966	0.426090	0.447834
