data_functionalizedCrystal
_audit_creation_method	'MofGen! by Chris Wilmer'
_symmetry_space_group_name_H-M	'P1'
_symmetry_Int_Tables_number	1
_symmetry_cell_setting	triclinic
loop_
_symmetry_equiv_pos_as_xyz
  x,y,z
_cell_length_a	12.759401
_cell_length_b	12.645330
_cell_length_c	12.759393
_cell_angle_alpha	89.967766
_cell_angle_beta	89.980163
_cell_angle_gamma	90.014171
loop_
_atom_site_label
_atom_site_type_symbol
_atom_site_fract_x
_atom_site_fract_y
_atom_site_fract_z
Zn1	Zn	1.606270	-0.421933	-0.594016
Zn2	Zn	1.606171	-0.599237	-0.418334
Zn3	Zn	1.430572	-0.421993	-0.418351
Zn4	Zn	1.430567	-0.599160	-0.593971
O5	O	1.518395	-0.510581	-0.506168
O6	O	1.753278	-0.445460	-0.570723
O7	O	1.582838	-0.575783	-0.271315
O8	O	1.453922	-0.273638	-0.441679
O9	O	1.753205	-0.575725	-0.441650
O10	O	1.583007	-0.273594	-0.570739
O11	O	1.453826	-0.445562	-0.271327
O12	O	1.283550	-0.445487	-0.441636
O13	O	1.453914	-0.575593	-0.740998
O14	O	1.283547	-0.575651	-0.570663
O15	O	1.583002	-0.445385	-0.741031
O16	O	1.582833	-0.747574	-0.441607
O17	O	1.453817	-0.747517	-0.570647
C18	C	1.245428	-0.510568	-0.506147
C19	C	1.128651	-0.510588	-0.506163
C20	C	1.518342	-0.786011	-0.506143
C21	C	1.518416	-0.903841	-0.506168
C22	C	1.073814	-0.578467	-0.573242
C23	C	0.964090	-0.578471	-0.573263
C24	C	0.964049	-0.442714	-0.439117
C25	C	1.073771	-0.442705	-0.439102
C26	C	1.599449	-1.071396	-0.424824
C27	C	1.599713	-0.948836	-0.425023
C28	C	1.548443	-0.948212	-0.616912
C29	C	1.549086	-1.070810	-0.616481
C30	C	1.407323	-1.071174	-0.477858
C31	C	1.407856	-0.948569	-0.475374
C32	C	1.792428	-0.510595	-0.506189
C33	C	1.909205	-0.510600	-0.506199
C34	C	1.518468	-0.510474	-0.780201
C35	C	1.518500	-0.510428	-0.896978
C36	C	1.518476	-0.234076	-0.506216
C37	C	1.518511	-0.116245	-0.506236
C38	C	1.451347	-0.442610	-0.951846
C39	C	1.451372	-0.442577	-1.061570
C40	C	1.585710	-0.578184	-1.061549
C41	C	1.585679	-0.578221	-0.951827
C42	C	1.518382	-0.510611	-0.233200
C43	C	1.518555	-0.510358	-0.116424
H44	H	0.919447	-0.633744	-0.627887
O45	O	1.378956	-0.369419	-1.120753
H46	H	1.296485	-0.387585	-1.099679
H47	H	1.491287	-0.919062	-0.679196
H48	H	0.919352	-0.387448	-0.384517
H49	H	1.681360	-1.102123	-0.443384
H50	H	1.640406	-0.633378	-1.106220
O51	O	1.323656	-0.908011	-0.548151
H52	H	1.341681	-0.932825	-0.629613
H53	H	1.118420	-0.387423	-0.384478
H54	H	1.682066	-0.919424	-0.443793
O55	O	1.378887	-0.369494	-0.892691
H56	H	1.390153	-0.380902	-0.807176
O57	O	1.474381	-1.110107	-0.699559
H58	H	1.474271	-1.197881	-0.699865
O59	O	1.658123	-0.651359	-0.892635
H60	H	1.704857	-0.698478	-0.949206
H61	H	1.580926	-0.918841	-0.342907
O62	O	1.133012	-0.651667	-0.645580
H63	H	1.076442	-0.698859	-0.692236
O64	O	1.575006	-1.111422	-0.316014
H65	H	1.495105	-1.085640	-0.292993
O66	O	1.656741	-1.108586	-0.648308
H67	H	1.707854	-1.039290	-0.663858
O68	O	1.654941	-0.907719	-0.649457
H69	H	1.653422	-0.820026	-0.652937
O70	O	1.371151	-1.112237	-0.372744
H71	H	1.432026	-1.165235	-0.339553
O72	O	1.377846	-0.910167	-0.367426
H73	H	1.441399	-0.859430	-0.335829
H74	H	1.347018	-1.100177	-0.537154
