data_functionalizedCrystal
_audit_creation_method	'MofGen! by Chris Wilmer'
_symmetry_space_group_name_H-M	'P1'
_symmetry_Int_Tables_number	1
_symmetry_cell_setting	triclinic
loop_
_symmetry_equiv_pos_as_xyz
  x,y,z
_cell_length_a	15.297327
_cell_length_b	15.298073
_cell_length_c	12.759387
_cell_angle_alpha	99.712374
_cell_angle_beta	99.642643
_cell_angle_gamma	69.205280
loop_
_atom_site_label
_atom_site_type_symbol
_atom_site_fract_x
_atom_site_fract_y
_atom_site_fract_z
Zn1	Zn	-0.124447	-1.357830	-0.893330
Zn2	Zn	-0.280006	-1.330785	-0.743513
Zn3	Zn	-0.151374	-1.202281	-0.691671
Zn4	Zn	-0.306804	-1.175339	-0.893150
O5	O	-0.215658	-1.266559	-0.805416
O6	O	-0.122598	-1.484394	-0.895228
O7	O	-0.262997	-1.313696	-0.589617
O8	O	-0.017652	-1.245509	-0.696800
O9	O	-0.236887	-1.464525	-0.785158
O10	O	0.002131	-1.359790	-0.844958
O11	O	-0.168492	-1.219285	-0.551529
O12	O	-0.194476	-1.068555	-0.696626
O13	O	-0.282560	-1.199589	-1.040193
O14	O	-0.308670	-1.048760	-0.844652
O15	O	-0.148583	-1.333665	-1.040325
O16	O	-0.413711	-1.287571	-0.784984
O17	O	-0.433399	-1.173365	-0.894922
C18	C	-0.257404	-1.024910	-0.764995
C19	C	-0.275285	-0.921528	-0.747731
C20	C	-0.088046	-0.671430	-0.928786
C21	C	-0.071249	-0.768562	-0.945013
C22	C	-0.122256	-0.806809	-0.895693
C23	C	-0.190065	-0.747913	-0.830145
C24	C	-0.206870	-0.650771	-0.813923
C25	C	-0.241079	-0.786149	-0.780831
C26	C	-0.308888	-0.727254	-0.715282
C27	C	-0.325689	-0.630121	-0.699063
C28	C	-0.274682	-0.591875	-0.748382
C29	C	-0.224274	-0.883292	-0.797052
C30	C	-0.343097	-0.862632	-0.682190
C31	C	-0.359895	-0.765500	-0.665963
C32	C	-0.457297	-1.224635	-0.845586
C33	C	-0.560657	-1.206785	-0.862821
C34	C	-0.810847	-1.394519	-0.682662
C35	C	-0.713736	-1.411289	-0.666464
C36	C	-0.675461	-1.360165	-0.715552
C37	C	-0.734308	-1.292267	-0.780840
C38	C	-0.831430	-1.275489	-0.797033
C39	C	-0.696044	-1.241136	-0.829923
C40	C	-0.754890	-1.173237	-0.895211
C41	C	-0.852002	-1.156464	-0.911402
C42	C	-0.890277	-1.207588	-0.862314
C43	C	-0.598922	-1.257913	-0.813730
C44	C	-0.619504	-1.138884	-0.928101
C45	C	-0.716616	-1.122113	-0.944299
C46	C	0.026929	-1.308671	-0.765116
C47	C	0.130306	-1.326617	-0.747943
C48	C	-0.215557	-1.266638	-1.079446
C49	C	-0.215514	-1.266672	-1.196221
C50	C	-0.173742	-0.509152	-0.845985
C51	C	-0.155859	-0.612534	-0.863245
C52	C	-0.075928	-1.406355	-1.415800
C53	C	-0.006193	-1.476146	-1.361008
C54	C	-0.006228	-1.476115	-1.251287
C55	C	-0.076008	-1.406286	-1.196357
C56	C	-0.145744	-1.336495	-1.251149
C57	C	-0.145699	-1.336533	-1.360872
C58	C	-0.285249	-1.196881	-1.251013
C59	C	-0.285212	-1.196907	-1.360732
C60	C	-0.355029	-1.127053	-1.196082
C61	C	-0.424762	-1.057256	-1.250873
C62	C	-0.424723	-1.057290	-1.360601
C63	C	-0.354947	-1.127116	-1.415525
C64	C	-0.215682	-1.266544	-0.532451
C65	C	-0.215432	-1.266736	-0.415663
H66	H	-0.169063	-0.931236	-0.850421
C67	C	-0.781349	-1.047427	-1.016110
H68	H	-0.744651	-1.019383	-1.043035
H69	H	-0.826297	-1.000367	-0.975439
H70	H	-0.813023	-1.076463	-1.074175
C71	C	0.070474	-1.552881	-1.191009
H72	H	0.060451	-1.542860	-1.117798
H73	H	0.130622	-1.550130	-1.196332
H74	H	0.067656	-1.613017	-1.221701
H75	H	-0.355056	-1.127035	-1.106743
H76	H	-0.384636	-0.893771	-0.642035
H77	H	-0.842021	-1.436131	-0.642695
C78	C	0.070563	-1.552948	-1.421431
H79	H	0.060606	-1.542969	-1.494622
H80	H	0.067745	-1.613072	-1.416164
H81	H	0.130696	-1.550169	-1.390787
H82	H	-0.899915	-1.101166	-0.964550
C83	C	-0.501508	-0.980455	-1.190450
H84	H	-0.491541	-0.990432	-1.117257
H85	H	-0.561643	-0.983215	-1.221089
H86	H	-0.498674	-0.920331	-1.195709
H87	H	-0.588343	-1.097252	-0.968071
H88	H	-0.076038	-1.406273	-1.107019
C89	C	-0.501433	-0.980518	-1.420864
H90	H	-0.542988	-0.938928	-1.372430
H91	H	-0.535797	-1.009070	-1.476351
H92	H	-0.472836	-0.946177	-1.450972
H93	H	-0.415107	-0.717534	-0.612594
H94	H	-0.596388	-1.373823	-0.702359
H95	H	-0.075882	-1.406378	-1.505137
C96	C	-0.534199	-1.332590	-0.741916
H97	H	-0.470878	-1.335256	-0.739290
H98	H	-0.539253	-1.392339	-0.770432
H99	H	-0.552528	-1.316236	-0.671703
C100	C	-0.649011	-1.485976	-0.594662
H101	H	-0.685711	-1.514028	-0.567755
H102	H	-0.617329	-1.456955	-0.536599
H103	H	-0.604068	-1.533039	-0.635346
C104	C	-0.354904	-1.127160	-1.536216
H105	H	-0.303365	-1.178747	-1.561080
H106	H	-0.349183	-1.069943	-1.548338
H107	H	-0.412138	-1.132841	-1.573692
H108	H	-0.969352	-1.193939	-0.875502
H109	H	-0.108572	-0.885899	-0.908905
H110	H	-0.016041	-0.816508	-0.998386
C111	C	-0.031953	-0.629361	-0.983041
H112	H	0.010834	-0.678345	-1.024408
H113	H	0.002052	-0.598476	-0.929860
H114	H	-0.074146	-0.585315	-1.028354
C115	C	-0.400279	-0.565338	-0.626966
H116	H	-0.428245	-0.602026	-0.599908
H117	H	-0.447397	-0.520427	-0.667496
H118	H	-0.371203	-0.533606	-0.568999
C119	C	-0.293164	-0.485028	-0.730535
H120	H	-0.340853	-0.455427	-0.684434
H121	H	-0.313111	-0.460280	-0.797323
H122	H	-0.236927	-0.473458	-0.698816
