data_functionalizedCrystal
_audit_creation_method	'MofGen! by Chris Wilmer'
_symmetry_space_group_name_H-M	'P1'
_symmetry_Int_Tables_number	1
_symmetry_cell_setting	triclinic
loop_
_symmetry_equiv_pos_as_xyz
  x,y,z
_cell_length_a	29.839134
_cell_length_b	12.759400
_cell_length_c	12.759393
_cell_angle_alpha	90.031564
_cell_angle_beta	89.968585
_cell_angle_gamma	89.990454
loop_
_atom_site_label
_atom_site_type_symbol
_atom_site_fract_x
_atom_site_fract_y
_atom_site_fract_z
Zn1	Zn	0.686845	0.418348	-0.594343
Zn2	Zn	0.686800	0.594067	-0.418664
Zn3	Zn	0.611715	0.418387	-0.418643
Zn4	Zn	0.611711	0.593970	-0.594265
O5	O	0.649268	0.506193	-0.506479
O6	O	0.749706	0.441682	-0.571080
O7	O	0.676823	0.570820	-0.271640
O8	O	0.621702	0.271361	-0.441974
O9	O	0.749673	0.570782	-0.442009
O10	O	0.676900	0.271332	-0.571061
O11	O	0.621659	0.441748	-0.271625
O12	O	0.548848	0.441654	-0.441899
O13	O	0.621694	0.570616	-0.741297
O14	O	0.548844	0.570654	-0.570928
O15	O	0.676895	0.441588	-0.741354
O16	O	0.676818	0.741075	-0.441933
O17	O	0.621650	0.741004	-0.570947
C18	C	0.532545	0.506148	-0.506403
C19	C	0.482611	0.506155	-0.506396
C20	C	0.649299	0.506087	-0.780512
C21	C	0.649313	0.506042	-0.897289
C22	C	0.649241	0.779160	-0.506457
C23	C	0.649271	0.895937	-0.506483
C24	C	0.172975	0.573463	-0.573582
C25	C	-0.014698	0.573492	-0.573629
O26	O	-0.038956	0.630671	-0.630708
N27	N	-0.038174	0.506232	-0.506558
C28	C	-0.014730	0.438954	-0.439476
O29	O	-0.039004	0.381737	-0.382437
C30	C	0.172943	0.438920	-0.439435
C31	C	0.196417	0.506192	-0.506503
C32	C	0.196449	0.640729	-0.640645
C33	C	0.243364	0.640725	-0.640628
C34	C	0.266806	0.573455	-0.573549
C35	C	0.243332	0.506188	-0.506486
C36	C	0.196387	0.371637	-0.372359
C37	C	0.243308	0.371633	-0.372357
C38	C	0.266782	0.438906	-0.439424
C39	C	0.313689	0.438914	-0.439391
N40	N	0.337165	0.506175	-0.506461
C41	C	0.313724	0.573445	-0.573540
C42	C	-0.113260	0.438978	-0.439500
C43	C	-0.160178	0.438987	-0.439509
C44	C	-0.160143	0.573525	-0.573664
C45	C	-0.113225	0.573520	-0.573649
C46	C	-0.089784	0.506239	-0.506571
C47	C	0.412250	0.573432	-0.573500
C48	C	0.459169	0.573425	-0.573475
C49	C	0.459130	0.438884	-0.439325
C50	C	0.412215	0.438895	-0.439346
C51	C	0.388776	0.506172	-0.506442
O52	O	0.337976	0.381757	-0.382350
O53	O	0.338006	0.630636	-0.630587
C54	C	0.126059	0.573467	-0.573598
C55	C	0.102586	0.506200	-0.506535
C56	C	0.126027	0.438930	-0.439456
C57	C	0.055668	0.506210	-0.506544
C58	C	0.032226	0.573480	-0.573623
C59	C	0.055702	0.640741	-0.640694
C60	C	0.102618	0.640737	-0.640678
C61	C	0.102551	0.371669	-0.372386
C62	C	0.055635	0.371680	-0.372407
C63	C	0.032194	0.438950	-0.439486
C64	C	0.766446	0.506239	-0.506556
C65	C	0.816380	0.506258	-0.506588
C66	C	0.649307	0.232160	-0.506524
C67	C	0.649323	0.115383	-0.506543
C68	C	0.678028	0.950801	-0.439379
C69	C	0.678056	1.060525	-0.439412
C70	C	0.620564	1.060511	-0.573654
C71	C	0.620539	0.950789	-0.573626
C72	C	0.706760	0.895949	-0.372236
C73	C	0.735520	0.950814	-0.305127
C74	C	0.735547	1.060538	-0.305159
C75	C	0.706815	1.115397	-0.372301
C76	C	0.678060	0.438850	-0.952183
C77	C	0.678070	0.438812	-1.061907
C78	C	0.620586	0.573167	-1.061834
C79	C	0.620573	0.573198	-0.952112
C80	C	0.706799	0.371694	-0.897360
C81	C	0.735549	0.304498	-0.952254
C82	C	0.735560	0.304460	-1.061978
C83	C	0.706821	0.371618	-1.116808
C84	C	0.649262	0.506223	-0.233512
C85	C	0.649336	0.505972	-0.116735
H86	H	0.478279	0.628211	-0.628090
H87	H	0.121632	0.316888	-0.317761
H88	H	-0.179286	0.384218	-0.384885
F89	F	0.590003	0.644638	-1.120192
H90	H	0.758944	0.249813	-0.907603
H91	H	0.121726	0.695517	-0.695291
H92	H	0.706843	1.204742	-0.372330
F93	F	0.706828	0.371561	-1.233588
H94	H	0.597123	0.906118	-0.628269
F95	F	0.766100	0.892427	-0.233683
H96	H	0.597158	0.627896	-0.907417
H97	H	0.478225	0.384118	-0.384707
F98	F	0.387310	0.645036	-0.644912
H99	H	0.177368	0.695509	-0.695274
F100	F	0.268341	0.712322	-0.712016
F101	F	0.706792	0.371732	-0.780582
F102	F	-0.088246	0.645118	-0.645032
H103	H	-0.179237	0.628299	-0.628282
F104	F	0.766157	0.232946	-1.120397
F105	F	-0.088318	0.367362	-0.368103
H106	H	0.177282	0.316859	-0.317743
F107	F	0.589987	1.118900	-0.645104
H108	H	0.262391	0.316837	-0.317739
H109	H	0.036608	0.695518	-0.695309
F110	F	0.387231	0.367312	-0.367950
H111	H	0.706739	0.806606	-0.372200
F112	F	0.030658	0.300077	-0.301015
F113	F	0.766159	1.118925	-0.233746
