data_functionalizedCrystal
_audit_creation_method	'MofGen! by Chris Wilmer'
_symmetry_space_group_name_H-M	'P1'
_symmetry_Int_Tables_number	1
_symmetry_cell_setting	triclinic
loop_
_symmetry_equiv_pos_as_xyz
  x,y,z
_cell_length_a	11.026607
_cell_length_b	9.065218
_cell_length_c	7.540329
_cell_angle_alpha	90.003038
_cell_angle_beta	89.998289
_cell_angle_gamma	83.199049
loop_
_atom_site_label
_atom_site_type_symbol
_atom_site_fract_x
_atom_site_fract_y
_atom_site_fract_z
O1	O	0.178453	-2.004900	-0.147482
O2	O	0.193091	-1.579265	-0.147484
O3	O	0.008731	-1.756807	-0.147476
O4	O	0.362813	-1.827359	-0.147489
O5	O	0.008729	-1.756792	0.147489
O6	O	0.193088	-1.579251	0.147481
O7	O	0.178451	-2.004886	0.147483
Cu8	Cu	0.185769	-1.792067	0.174415
Cu9	Cu	0.185772	-1.792084	-0.174415
O10	O	0.362810	-1.827345	0.147476
C11	C	0.191683	-1.523921	-0.000002
C12	C	0.187476	-1.359029	-0.000002
C13	C	-0.036624	-1.743784	0.000004
C14	C	-0.171765	-1.704984	-0.000003
C15	C	0.179859	-2.060230	-0.000003
C16	C	0.184065	-2.225122	-0.000014
C17	C	-0.244393	-1.812117	-0.000005
C18	C	-0.384068	-1.772018	-0.000011
C19	C	0.408165	-1.840368	-0.000008
C20	C	0.543306	-1.879168	-0.000013
N21	N	0.185767	-1.792066	0.419763
N22	N	0.185765	-1.792094	-0.419764
H23	H	-0.203167	-1.933525	0.000007
Cl24	Cl	-0.393065	-2.066627	-0.000021
Cl25	Cl	-0.447700	-1.584560	-0.000030
H26	H	-0.212990	-1.583576	-0.000015
