data_functionalizedCrystal
_audit_creation_method	'MofGen! by Chris Wilmer'
_symmetry_space_group_name_H-M	'P1'
_symmetry_Int_Tables_number	1
_symmetry_cell_setting	triclinic
loop_
_symmetry_equiv_pos_as_xyz
  x,y,z
_cell_length_a	14.853567
_cell_length_b	14.853567
_cell_length_c	13.930277
_cell_angle_alpha	90.000757
_cell_angle_beta	89.995755
_cell_angle_gamma	96.365070
loop_
_atom_site_label
_atom_site_type_symbol
_atom_site_fract_x
_atom_site_fract_y
_atom_site_fract_z
O1	O	1.196368	-0.117704	-0.079756
O2	O	0.933909	-0.131725	-0.079772
O3	O	1.072149	0.006516	-0.079767
O4	O	1.058128	-0.255944	-0.079762
O5	O	1.072130	0.006519	0.079895
O6	O	0.933890	-0.131722	0.079890
O7	O	1.196349	-0.117701	0.079905
Zn8	Zn	1.065116	-0.124711	0.105247
Zn9	Zn	1.065142	-0.124715	-0.105114
O10	O	1.058109	-0.255941	0.079900
C11	C	0.900311	-0.131088	0.000057
C12	C	0.800227	-0.129184	0.000051
C13	C	0.387693	-0.039019	0.000070
C14	C	0.366412	-0.203251	0.000073
C15	C	0.460446	-0.205042	0.000070
C16	C	0.518108	-0.123819	0.000066
C17	C	0.481736	-0.040806	0.000065
C18	C	0.496825	-0.288053	0.000061
C19	C	0.590864	-0.289846	0.000057
C20	C	0.648528	-0.208623	0.000060
C21	C	0.612150	-0.125607	0.000060
C22	C	0.669812	-0.044384	0.000056
C23	C	0.633437	0.038633	0.000063
C24	C	0.539399	0.040417	0.000067
C25	C	0.742565	-0.210407	0.000055
C26	C	0.763855	-0.046172	0.000050
C27	C	1.071504	0.040106	0.000061
C28	C	1.069601	0.140189	0.000053
C29	C	1.229947	-0.118337	0.000075
C30	C	1.330031	-0.120241	0.000075
C31	C	1.058754	-0.289531	0.000070
C32	C	1.060657	-0.389615	0.000072
N33	N	1.065106	-0.124708	0.248814
C34	C	0.979435	0.552723	0.000066
C35	C	1.143668	0.574004	0.000076
C36	C	1.145458	0.479971	0.000070
C37	C	1.064235	0.422309	0.000064
C38	C	0.981223	0.458680	0.000063
C39	C	1.228469	0.443591	0.000080
C40	C	1.230262	0.349552	0.000076
C41	C	1.149039	0.291889	0.000063
C42	C	1.066023	0.328266	0.000061
C43	C	0.984800	0.270604	0.000055
C44	C	0.901783	0.306979	0.000047
C45	C	0.899999	0.401017	0.000050
C46	C	1.150823	0.197851	0.000059
C47	C	0.986588	0.176561	0.000052
N48	N	1.065160	-0.124711	-0.248680
C49	C	1.003926	-0.185904	0.701081
C50	C	1.126382	-0.063519	0.701055
C51	C	1.126371	-0.063516	0.600559
C52	C	1.065138	-0.124709	0.550319
C53	C	1.003916	-0.185904	0.600576
C54	C	1.187598	-0.002328	0.550295
C55	C	1.187591	-0.002323	0.449793
C56	C	1.126353	-0.063512	0.399552
C57	C	1.065127	-0.124710	0.449814
C58	C	1.003894	-0.185902	0.399575
C59	C	0.942664	-0.247096	0.449835
C60	C	0.942677	-0.247094	0.550334
C61	C	1.126339	-0.063515	0.299053
C62	C	1.003883	-0.185903	0.299070
H63	H	0.680397	0.104764	0.000053
H64	H	0.954071	-0.235724	0.742005
H65	H	0.954016	-0.235731	0.258171
H66	H	0.835652	0.260019	0.000048
C67	C	0.808691	0.441032	0.000055
H68	H	0.819262	0.505295	0.000070
H69	H	0.775244	0.421256	-0.055623
H70	H	0.775244	0.421244	0.055739
C71	C	1.233007	0.637424	0.000083
H72	H	1.282702	0.602293	0.000088
H73	H	1.235728	0.674556	-0.055591
H74	H	1.235717	0.674545	0.055772
C75	C	0.302988	-0.292588	0.000079
H76	H	0.241773	-0.279634	0.000088
H77	H	0.314027	-0.326628	-0.055595
H78	H	0.314024	-0.326615	0.055767
C79	C	0.875313	-0.314405	0.394565
H80	H	0.884079	-0.305636	0.327515
H81	H	0.885171	-0.374594	0.411033
H82	H	0.815133	-0.304496	0.411038
C83	C	1.254944	0.064984	0.605553
H84	H	1.291412	0.101424	0.561229
H85	H	1.222468	0.102572	0.644760
H86	H	1.292516	0.032483	0.644755
H87	H	1.237447	0.047505	0.408877
C88	C	0.782580	-0.301711	0.000044
H89	H	0.846844	-0.291144	0.000035
H90	H	0.762793	-0.335164	0.055718
H91	H	0.762799	-0.335151	-0.055644
C92	C	0.875340	-0.314406	0.605622
H93	H	0.884126	-0.305648	0.672670
H94	H	0.815158	-0.304511	0.589171
H95	H	0.885210	-0.374596	0.589145
H96	H	1.218414	0.168238	0.000072
H97	H	1.176240	-0.013702	0.741963
H98	H	0.920445	0.129618	0.000043
C99	C	0.499384	0.131725	0.000065
H100	H	0.435121	0.121155	0.000057
H101	H	0.519162	0.165178	0.055739
H102	H	0.519171	0.165167	-0.055623
C103	C	1.193682	0.003786	0.243766
H104	H	1.184910	-0.004980	0.176717
H105	H	1.183830	0.063975	0.260241
H106	H	1.253863	-0.006128	0.260222
C107	C	0.827276	0.043175	0.000040
H108	H	0.792142	0.092868	0.000037
H109	H	0.864408	0.045895	0.055711
H110	H	0.864397	0.045889	-0.055651
H111	H	0.449870	-0.354180	0.000054
C112	C	0.347685	0.052293	0.000074
H113	H	0.283422	0.041730	0.000073
H114	H	0.367473	0.085743	0.055748
H115	H	0.367469	0.085735	-0.055614
C116	C	0.888123	0.592731	0.000061
H117	H	0.898687	0.656995	0.000068
H118	H	0.854681	0.572944	-0.055617
H119	H	0.854674	0.572946	0.055745
H120	H	0.620472	-0.357443	0.000051
C121	C	1.317807	0.507014	0.000087
H122	H	1.367503	0.471884	0.000100
H123	H	1.320529	0.544139	-0.055592
H124	H	1.320513	0.544140	0.055770
H125	H	1.297860	0.319944	0.000082
