data_functionalizedCrystal
_audit_creation_method	'MofGen! by Chris Wilmer'
_symmetry_space_group_name_H-M	'P1'
_symmetry_Int_Tables_number	1
_symmetry_cell_setting	triclinic
loop_
_symmetry_equiv_pos_as_xyz
  x,y,z
_cell_length_a	16.109318
_cell_length_b	14.586319
_cell_length_c	16.109301
_cell_angle_alpha	90.007381
_cell_angle_beta	83.465022
_cell_angle_gamma	89.996962
loop_
_atom_site_label
_atom_site_type_symbol
_atom_site_fract_x
_atom_site_fract_y
_atom_site_fract_z
O1	O	1.103118	0.076167	0.106938
O2	O	0.861058	0.076186	0.120222
O3	O	0.988737	0.076167	-0.007451
O4	O	0.975438	0.076186	0.234610
O5	O	0.988736	-0.076314	-0.007459
O6	O	0.861057	-0.076295	0.120214
O7	O	1.103117	-0.076314	0.106930
Cu8	Cu	0.982087	-0.090227	0.113571
Cu9	Cu	0.982088	0.090099	0.113581
O10	O	0.975437	-0.076294	0.234602
C11	C	0.988198	-0.000074	-0.038430
C12	C	0.986583	-0.000075	-0.130725
C13	C	0.830083	-0.000052	0.119677
C14	C	0.737788	-0.000045	0.118057
C15	C	0.438715	0.083055	0.112826
C16	C	0.525436	0.083061	0.114343
C17	C	0.525454	-0.083182	0.114323
C18	C	0.438735	-0.083187	0.112800
C19	C	0.395367	-0.000065	0.112056
C20	C	0.568807	-0.000055	0.115096
C21	C	0.662835	-0.000049	0.116742
C22	C	0.301334	-0.000070	0.110409
C23	C	1.134092	-0.000074	0.107474
C24	C	1.226387	-0.000075	0.109095
N25	N	0.982089	0.216931	0.113581
N26	N	0.982092	-0.217059	0.113564
C27	C	1.038735	0.451929	0.057157
C28	C	1.038737	0.547910	0.057155
C29	C	0.925444	0.547937	0.169994
C30	C	0.925446	0.451957	0.169999
C31	C	0.982091	0.403956	0.113576
C32	C	0.982091	0.595916	0.113569
C33	C	0.982093	0.699984	0.113567
C34	C	0.982090	0.299882	0.113579
C35	C	1.058590	-0.000067	-0.352993
C36	C	1.057066	-0.000059	-0.439713
C37	C	0.905579	-0.000051	-0.419848
C38	C	0.907104	-0.000052	-0.333130
C39	C	0.983612	-0.000064	-0.299704
C40	C	0.980563	-0.000056	-0.473144
C41	C	0.978910	-0.000047	-0.567170
C42	C	0.985265	-0.000071	-0.205672
C43	C	0.975976	-0.000052	0.265581
C44	C	0.977592	-0.000044	0.357877
H45	H	0.560726	0.150746	0.114970
O46	O	0.396499	-0.163853	0.112008
C47	C	0.310657	-0.146031	0.110519
H48	H	0.302260	-0.074593	0.084019
H49	H	0.282995	-0.199111	0.069587
H50	H	0.277304	-0.149976	0.176744
O51	O	1.132855	0.000053	-0.320423
C52	C	1.138273	0.079035	-0.270862
H53	H	1.072737	0.105362	-0.249244
H54	H	1.171404	0.061275	-0.214088
H55	H	1.175058	0.134335	-0.309178
O56	O	1.093839	0.405442	0.002321
C57	C	1.143820	0.468371	-0.047490
H58	H	1.144683	0.536793	-0.013394
H59	H	1.210226	0.440634	-0.060027
H60	H	1.116967	0.478571	-0.109328
O61	O	0.567475	-0.163981	0.115162
C62	C	0.536867	-0.214537	0.186756
H63	H	0.470755	-0.190904	0.209643
H64	H	0.536028	-0.290578	0.170510
H65	H	0.579065	-0.203014	0.238006
H66	H	0.846043	-0.000047	-0.289740
H67	H	0.403408	0.150738	0.112219
O68	O	1.093589	0.594542	0.002201
C69	C	1.049086	0.649936	-0.049208
H70	H	0.984029	0.664394	-0.016133
H71	H	1.083805	0.717397	-0.062467
H72	H	1.043439	0.612813	-0.110593
O73	O	0.870530	0.594669	0.224829
C74	C	0.914923	0.650184	0.276246
H75	H	0.980038	0.664554	0.243277
H76	H	0.880198	0.717680	0.289314
H77	H	0.920430	0.613210	0.337724
O78	O	0.870337	0.405492	0.224838
C79	C	0.820349	0.468438	0.274646
H80	H	0.819481	0.536849	0.240548
H81	H	0.753945	0.440706	0.287182
H82	H	0.847198	0.478658	0.336485
O83	O	1.129977	-0.000105	-0.491359
C84	C	1.197827	-0.000091	-0.443257
H85	H	1.176708	-0.028961	-0.378534
H86	H	1.250361	-0.044363	-0.475265
H87	H	1.221279	0.073059	-0.437075
H88	H	0.843288	-0.000042	-0.447074
