data_functionalizedCrystal
_audit_creation_method	'MofGen! by Chris Wilmer'
_symmetry_space_group_name_H-M	'P1'
_symmetry_Int_Tables_number	1
_symmetry_cell_setting	triclinic
loop_
_symmetry_equiv_pos_as_xyz
  x,y,z
_cell_length_a	12.503572
_cell_length_b	14.044220
_cell_length_c	10.489689
_cell_angle_alpha	88.853350
_cell_angle_beta	86.438068
_cell_angle_gamma	93.835250
loop_
_atom_site_label
_atom_site_type_symbol
_atom_site_fract_x
_atom_site_fract_y
_atom_site_fract_z
O1	O	-0.089191	-1.265177	-0.300994
O2	O	0.410809	-0.765177	0.199006
O3	O	-0.089219	-0.989136	-0.289887
O4	O	0.410781	-0.489136	0.210113
O5	O	-0.089206	-1.133464	-0.110478
O6	O	0.410794	-0.633464	0.389522
O7	O	-0.089203	-1.120849	-0.480403
O8	O	0.410797	-0.620849	0.019597
O9	O	0.089435	-1.122609	-0.123995
O10	O	0.589435	-0.622609	0.376005
O11	O	0.089422	-0.978281	-0.303404
O12	O	0.589422	-0.478281	0.196596
O13	O	0.089450	-1.254323	-0.314511
O14	O	0.589450	-0.754323	0.185489
Cu15	Cu	0.105748	-1.115311	-0.310192
Cu16	Cu	0.605748	-0.615311	0.189808
Cu17	Cu	-0.105516	-1.128148	-0.294206
Cu18	Cu	0.394484	-0.628148	0.205794
O19	O	0.089438	-1.109995	-0.493920
O20	O	0.589438	-0.609995	0.006080
C21	C	0.000098	-0.948362	-0.291784
C22	C	0.500098	-0.448362	0.208216
C23	C	0.000087	-0.843040	-0.277283
C24	C	0.500087	-0.343040	0.222717
N25	N	0.254339	-1.106290	-0.321435
N26	N	0.754339	-0.606290	0.178565
C27	C	0.000111	-1.127095	-0.069608
C28	C	0.500111	-0.627095	0.430392
C29	C	0.000102	-1.124276	0.072311
C30	C	0.500102	-0.624276	0.572311
N31	N	-0.254108	-1.137176	-0.282954
N32	N	0.245892	-0.637176	0.217046
C33	C	0.473453	-1.093019	-0.337985
C34	C	0.973453	-0.593019	0.162015
C35	C	0.526785	-1.150444	-0.266407
C36	C	1.026785	-0.650444	0.233593
C37	C	0.648708	-1.143060	-0.275616
C38	C	1.148708	-0.643060	0.224384
C39	C	0.351520	-1.100402	-0.328778
C40	C	0.851520	-0.600402	0.171222
C41	C	0.000131	-1.295097	-0.312614
C42	C	0.500131	-0.795097	0.187386
C43	C	0.000135	-1.400420	-0.327114
C44	C	0.500135	-0.900420	0.172886
C45	C	0.000108	-0.650200	-0.250776
C46	C	0.500108	-0.150200	0.249224
C47	C	0.000114	-0.593254	-0.353615
C48	C	0.500114	-0.093254	0.146385
C49	C	0.000126	-0.485951	-0.338866
C50	C	0.500126	0.014049	0.161134
C51	C	0.000097	-0.757513	-0.265523
C52	C	0.500097	-0.257513	0.234477
C53	C	0.000123	-1.211074	0.245894
C54	C	0.500123	-0.711074	0.745894
C55	C	0.088196	-1.162365	0.151483
C56	C	0.588196	-0.662365	0.651483
C57	C	-0.087930	-1.173043	0.164836
C58	C	0.412070	-0.673043	0.664836
C59	C	0.088270	-1.070492	0.230747
C60	C	0.588270	-0.570492	0.730747
C61	C	-0.087935	-1.081187	0.244114
C62	C	0.412065	-0.581187	0.744114
C63	C	0.000160	-1.032411	0.149735
C64	C	0.500160	-0.532411	0.649735
C65	C	0.000119	-1.116379	0.465211
C66	C	0.500119	-0.616379	0.965211
C67	C	0.000123	-1.119243	0.323295
C68	C	0.500123	-0.619243	0.823295
H69	H	0.480877	-1.205154	-0.198213
H70	H	0.980877	-0.705154	0.301787
N71	N	0.531051	-1.024394	-0.423523
N72	N	1.031051	-0.524394	0.076477
N73	N	0.631448	-1.018421	-0.430975
N74	N	1.131448	-0.518421	0.069025
H75	H	0.672139	-0.969957	-0.491387
H76	H	1.172139	-0.469957	0.008613
N77	N	0.000114	-0.633196	-0.477955
N78	N	0.500114	-0.133196	0.022045
N79	N	0.000105	-0.721571	-0.489919
N80	N	0.500105	-0.221571	0.010081
H81	H	0.000104	-0.749786	-0.577730
H82	H	0.500104	-0.249786	-0.077730
H83	H	0.000201	-0.956856	0.107930
H84	H	0.500201	-0.456856	0.607930
N85	N	0.000216	-1.305757	0.298635
N86	N	0.500216	-0.805757	0.798635
N87	N	-0.074632	-1.366160	0.279034
N88	N	0.425368	-0.866160	0.779034
H89	H	-0.074564	-1.433028	0.316284
H90	H	0.425436	-0.933028	0.816284
N91	N	-0.181355	-1.038173	0.295077
N92	N	0.318645	-0.538173	0.795077
N93	N	-0.195854	-1.028464	0.412948
N94	N	0.304146	-0.528464	0.912948
H95	H	-0.261841	-0.998093	0.448947
H96	H	0.238159	-0.498093	0.948947
N97	N	0.000082	-0.610275	-0.126434
N98	N	0.500082	-0.110275	0.373566
N99	N	-0.075231	-0.632850	-0.045231
N100	N	0.424769	-0.132850	0.454769
H101	H	-0.075255	-0.604643	0.042587
H102	H	0.424745	-0.104643	0.542587
N103	N	0.181614	-1.205440	0.100608
N104	N	0.681614	-0.705440	0.600608
N105	N	0.197319	-1.289453	0.131969
N106	N	0.697319	-0.789453	0.631969
H107	H	0.263293	-1.319881	0.096045
H108	H	0.763293	-0.819881	0.596045
N109	N	0.181777	-1.016103	0.267271
N110	N	0.681777	-0.516103	0.767271
N111	N	0.196895	-1.005151	0.382893
N112	N	0.696895	-0.505151	0.882893
H113	H	0.262934	-0.966741	0.408693
H114	H	0.762934	-0.466741	0.908693
N115	N	-0.181343	-1.227460	0.128094
N116	N	0.318657	-0.727460	0.628094
N117	N	-0.196700	-1.237777	0.012420
N118	N	0.303300	-0.737777	0.512420
H119	H	-0.262669	-1.276213	-0.013530
H120	H	0.237331	-0.776213	0.486470
