data_functionalizedCrystal
_audit_creation_method	'MofGen! by Chris Wilmer'
_symmetry_space_group_name_H-M	'P1'
_symmetry_Int_Tables_number	1
_symmetry_cell_setting	triclinic
loop_
_symmetry_equiv_pos_as_xyz
  x,y,z
_cell_length_a	14.908742
_cell_length_b	19.120786
_cell_length_c	14.908308
_cell_angle_alpha	89.316475
_cell_angle_beta	83.239341
_cell_angle_gamma	89.311488
loop_
_atom_site_label
_atom_site_type_symbol
_atom_site_fract_x
_atom_site_fract_y
_atom_site_fract_z
Zn1	Zn	1.335634	-0.358153	0.413190
Zn2	Zn	1.338534	-0.468693	0.256101
Zn3	Zn	1.193670	-0.345430	0.271258
Zn4	Zn	1.178508	-0.468654	0.416167
O5	O	1.261586	-0.410233	0.339179
O6	O	1.462403	-0.378158	0.384764
O7	O	1.326876	-0.447034	0.131725
O8	O	1.217633	-0.249287	0.295183
O9	O	1.464533	-0.459371	0.269351
O10	O	1.321934	-0.258634	0.399460
O11	O	1.220445	-0.356473	0.142860
O12	O	1.065274	-0.356435	0.298069
O13	O	1.191793	-0.459304	0.542159
O14	O	1.054135	-0.446967	0.404533
O15	O	1.307233	-0.378120	0.539972
O16	O	1.312174	-0.566519	0.272237
O17	O	1.194604	-0.566490	0.389836
C18	C	1.026935	-0.400316	0.353269
C19	C	0.926548	-0.396092	0.359317
C20	C	1.252082	-0.591873	0.329733
C21	C	1.248096	-0.669584	0.325717
C22	C	0.783935	-0.347937	0.428010
C23	C	0.878257	-0.351900	0.422332
C24	C	0.880509	-0.436324	0.301978
C25	C	0.786186	-0.432361	0.307656
C26	C	0.737902	-0.388165	0.370673
C27	C	0.643578	-0.384198	0.376346
C28	C	0.645831	-0.468625	0.255997
C29	C	0.740154	-0.472589	0.250319
C30	C	1.300482	-0.710900	0.378171
C31	C	1.296734	-0.783918	0.374400
C32	C	1.240604	-0.815619	0.318168
C33	C	1.188212	-0.774298	0.265712
C34	C	1.191956	-0.701281	0.269489
C35	C	1.226580	-1.035841	0.304050
C36	C	1.222842	-1.108863	0.300275
C37	C	1.331363	-1.118478	0.408964
C38	C	1.335106	-1.045460	0.412732
C39	C	1.282711	-1.004145	0.360280
C40	C	1.236773	-0.890255	0.314310
C41	C	1.286537	-0.929511	0.364144
C42	C	1.497154	-0.420188	0.325035
C43	C	1.597539	-0.424431	0.319007
C44	C	1.247498	-0.420127	0.574753
C45	C	1.241495	-0.424343	0.675140
C46	C	1.271152	-0.227885	0.348680
C47	C	1.275228	-0.150179	0.352729
C48	C	1.275675	-0.400329	0.104521
C49	C	1.281863	-0.395923	0.004134
C50	C	1.350419	-0.347712	0.861505
C51	C	1.344781	-0.351671	0.955828
C52	C	1.224577	-0.436217	0.958111
C53	C	1.230215	-0.432257	0.863788
C54	C	1.293139	-0.388004	0.815488
C55	C	1.298781	-0.384049	0.721163
C56	C	1.178573	-0.468590	0.723449
C57	C	1.172935	-0.472550	0.817772
H58	H	0.604267	-0.348208	0.427655
N59	N	1.176246	-0.924450	0.253651
H60	H	1.194842	-0.909636	0.188944
H61	H	1.111537	-0.909636	0.272224
N62	N	1.387853	-1.163047	0.465545
H63	H	1.370561	-1.152445	0.531566
H64	H	1.453867	-1.152423	0.448287
N65	N	1.353187	-0.828481	0.431024
H66	H	1.389301	-0.797319	0.467230
H67	H	1.395666	-0.859004	0.390259
H68	H	0.779479	-0.508574	0.199014
N69	N	0.932595	-0.483988	0.234014
H70	H	0.912750	-0.533853	0.246324
H71	H	0.999316	-0.480334	0.239158
H72	H	0.608341	-0.501384	0.209311
N73	N	0.731851	-0.300263	0.495964
H74	H	0.775326	-0.275376	0.531423
H75	H	0.688741	-0.328876	0.538576
N76	N	1.366649	-0.336325	0.669064
H77	H	1.402077	-0.311400	0.712532
H78	H	1.333919	-0.300778	0.633820
H79	H	1.177130	-1.134671	0.254484
N80	N	1.135459	-0.656712	0.212915
H81	H	1.069429	-0.667321	0.230105
H82	H	1.152819	-0.667328	0.146910
N83	N	0.927908	-0.308515	0.484177
H84	H	0.883005	-0.279918	0.524958
H85	H	0.970919	-0.276219	0.446812
N86	N	1.170080	-0.991286	0.247470
H87	H	1.133962	-1.022450	0.211270
H88	H	1.210934	-0.960779	0.205063
H89	H	1.380811	-1.019651	0.458520
H90	H	1.346193	-0.685094	0.423957
H91	H	1.142506	-0.800115	0.219931
H92	H	1.332235	-0.903698	0.409931
H93	H	1.401659	-0.311683	0.822178
H94	H	1.391422	-0.318859	0.993291
H95	H	1.173347	-0.472245	0.997453
H96	H	1.121702	-0.508578	0.857111
H97	H	1.131933	-0.501401	0.685972
