data_functionalizedCrystal
_audit_creation_method	'MofGen! by Chris Wilmer'
_symmetry_space_group_name_H-M	'P1'
_symmetry_Int_Tables_number	1
_symmetry_cell_setting	triclinic
loop_
_symmetry_equiv_pos_as_xyz
  x,y,z
_cell_length_a	14.472310
_cell_length_b	10.723024
_cell_length_c	10.723023
_cell_angle_alpha	95.532291
_cell_angle_beta	90.000022
_cell_angle_gamma	90.012758
loop_
_atom_site_label
_atom_site_type_symbol
_atom_site_fract_x
_atom_site_fract_y
_atom_site_fract_z
O1	O	-0.076833	-1.657204	0.175019
O2	O	-0.076836	-1.294052	0.191772
O3	O	-0.076830	-1.484005	0.001819
O4	O	-0.076838	-1.467251	0.364972
O5	O	0.076852	-1.483956	0.001830
O6	O	0.076846	-1.294003	0.191783
O7	O	0.076849	-1.657155	0.175030
Cu8	Cu	0.090880	-1.475574	0.183407
Cu9	Cu	-0.090867	-1.475633	0.183395
O10	O	0.076844	-1.467202	0.364983
C11	C	0.000005	-1.247528	0.190558
C12	C	0.000004	-1.108973	0.186911
N13	N	0.218711	-1.475543	0.183415
N14	N	-0.218698	-1.475674	0.183377
C15	C	0.592802	-1.475631	0.183390
C16	C	0.553634	-1.373644	0.284683
C17	C	0.446545	-1.373884	0.285057
C18	C	0.407211	-1.475586	0.183403
C19	C	0.446049	-1.606037	0.212956
C20	C	0.553170	-1.605466	0.213678
C21	C	0.553334	-1.448326	0.052249
C22	C	0.446207	-1.445347	0.053097
C23	C	0.302323	-1.475569	0.183407
C24	C	0.697690	-1.475657	0.183387
C25	C	0.000010	-1.482762	-0.044675
C26	C	0.000007	-1.479114	-0.183229
C27	C	0.000007	-1.703679	0.176243
C28	C	0.000002	-1.842234	0.179891
C29	C	0.000001	-1.033991	0.293198
C30	C	-0.000000	-0.890787	0.289431
C31	C	0.079612	-1.473693	-0.388198
C32	C	0.079617	-1.477463	-0.244995
C33	C	0.000002	-1.468445	0.411477
C34	C	-0.000001	-1.472093	0.550031
H35	H	0.420289	-1.276953	0.267285
C36	C	0.589983	-1.397035	0.415383
N37	N	0.617362	-1.414658	0.513826
C38	C	0.409803	-1.639041	0.340753
N39	N	0.382508	-1.663889	0.437015
C40	C	-0.000003	-0.803744	0.412360
N41	N	-0.000003	-0.738180	0.504954
H42	H	-0.000018	-1.067152	0.093125
C43	C	0.588492	-1.242274	0.261070
N44	N	0.614760	-1.143324	0.243289
C45	C	-0.092081	-1.474015	-0.378195
N46	N	-0.161438	-1.475466	-0.324138
H47	H	-0.000002	-0.906659	0.088896
C48	C	0.171691	-1.471765	-0.459970
N49	N	0.241048	-1.470311	-0.514028
C50	C	0.000002	-1.090483	0.419904
N51	N	0.000002	-1.133032	0.515342
H52	H	0.420909	-1.391437	0.382351
C53	C	0.586911	-1.637718	0.342937
N54	N	0.612320	-1.662001	0.440302
C55	C	0.588173	-1.711175	0.117911
N56	N	0.614534	-1.790808	0.045795
C57	C	0.587558	-1.548777	-0.049604
N58	N	0.613342	-1.624439	-0.126311
H59	H	0.580402	-1.355206	0.024108
H60	H	0.147777	-1.478846	-0.191873
C61	C	0.411624	-1.711081	0.116006
N62	N	0.385692	-1.790198	0.042981
H63	H	0.419435	-1.514719	-0.025899
C64	C	0.411922	-1.315694	0.022833
N65	N	0.386096	-1.218038	0.000043
H66	H	-0.068157	-1.477744	-0.236344
