data_functionalizedCrystal
_audit_creation_method	'MofGen! by Chris Wilmer'
_symmetry_space_group_name_H-M	'P1'
_symmetry_Int_Tables_number	1
_symmetry_cell_setting	triclinic
loop_
_symmetry_equiv_pos_as_xyz
  x,y,z
_cell_length_a	11.026607
_cell_length_b	13.101039
_cell_length_c	11.026607
_cell_angle_alpha	85.898113
_cell_angle_beta	108.586017
_cell_angle_gamma	94.097295
loop_
_atom_site_label
_atom_site_type_symbol
_atom_site_fract_x
_atom_site_fract_y
_atom_site_fract_z
O1	O	1.732207	0.085212	0.528122
O2	O	1.365627	0.085214	0.467358
O3	O	1.518535	0.085209	0.314450
O4	O	1.579299	0.085217	0.681030
O5	O	1.507569	-0.085220	0.325444
O6	O	1.354661	-0.085216	0.478352
O7	O	1.721241	-0.085217	0.539116
Zn8	Zn	1.536210	-0.112276	0.510480
Zn9	Zn	1.550658	0.112272	0.495994
O10	O	1.568333	-0.085213	0.692024
C11	C	1.312485	-0.000001	0.461645
C12	C	1.170471	-0.000000	0.428228
N13	N	1.526359	-0.265524	0.520367
C14	C	1.116822	0.000002	0.520498
C15	C	0.970043	0.000003	0.485962
C16	C	1.512958	-0.474566	0.533830
C17	C	1.573915	-0.525444	0.472639
C18	C	1.566458	-0.641762	0.480130
C19	C	1.520413	-0.358238	0.526340
C20	C	1.774384	-0.000001	0.544829
C21	C	1.916398	0.000006	0.578245
C22	C	1.501842	-0.000004	0.272288
C23	C	1.468426	-0.000000	0.130273
N24	N	1.560517	0.265521	0.486099
C25	C	1.560695	0.000001	0.076624
C26	C	1.526160	0.000005	-0.070155
C27	C	1.585026	0.000003	0.734186
C28	C	1.618443	0.000006	0.876200
H29	H	1.179554	-0.000001	0.625061
Br30	Br	1.351869	0.000020	-0.174699
H31	H	1.723018	0.000082	-0.061077
H32	H	0.907315	0.000027	0.381391
H33	H	0.979125	0.000001	0.682816
H34	H	1.665258	-0.000006	0.139358
H35	H	1.631702	-0.481643	0.414627
Br36	Br	1.416650	-0.547563	0.630521
Br37	Br	1.294142	0.000015	0.025726
H38	H	1.107739	0.000024	0.323664
