data_functionalizedCrystal
_audit_creation_method	'MofGen! by Chris Wilmer'
_symmetry_space_group_name_H-M	'P1'
_symmetry_Int_Tables_number	1
_symmetry_cell_setting	triclinic
loop_
_symmetry_equiv_pos_as_xyz
  x,y,z
_cell_length_a	18.050589
_cell_length_b	17.639617
_cell_length_c	17.639306
_cell_angle_alpha	65.670249
_cell_angle_beta	101.190077
_cell_angle_gamma	101.213932
loop_
_atom_site_label
_atom_site_type_symbol
_atom_site_fract_x
_atom_site_fract_y
_atom_site_fract_z
Zn1	Zn	-0.175797	1.354220	-0.721151
Zn2	Zn	-0.279116	1.326268	-0.583326
Zn3	Zn	-0.175769	1.188543	-0.555443
Zn4	Zn	-0.320792	1.216330	-0.693195
O5	O	-0.237869	1.271340	-0.638279
O6	O	-0.172073	1.465858	-0.726237
O7	O	-0.247953	1.284671	-0.464298
O8	O	-0.071841	1.210589	-0.577455
O9	O	-0.247980	1.445321	-0.624978
O10	O	-0.071862	1.332312	-0.699200
O11	O	-0.172025	1.183485	-0.443813
O12	O	-0.212437	1.076883	-0.550348
O13	O	-0.319012	1.257949	-0.812233
O14	O	-0.318985	1.097299	-0.651553
O15	O	-0.212485	1.359256	-0.832772
O16	O	-0.388576	1.311615	-0.597870
O17	O	-0.419196	1.230845	-0.678590
C18	C	-0.270231	1.057183	-0.594892
C19	C	-0.284096	0.965570	-0.576350
C20	C	-0.132549	0.717773	-0.779342
C21	C	-0.145594	0.631685	-0.761903
C22	C	-0.224456	0.610291	-0.656310
C23	C	-0.211421	0.696380	-0.673743
C24	C	-0.165466	0.750114	-0.735260
C25	C	-0.244337	0.728721	-0.629661
C26	C	-0.231300	0.814802	-0.647090
C27	C	-0.185345	0.868541	-0.708602
C28	C	-0.152428	0.836195	-0.752689
C29	C	-0.290288	0.674985	-0.568141
C30	C	-0.323205	0.707326	-0.524058
C31	C	-0.310172	0.793409	-0.541492
C32	C	-0.264217	0.847148	-0.603003
C33	C	-0.343089	0.825755	-0.497405
C34	C	-0.330051	0.911836	-0.514834
C35	C	-0.251179	0.933228	-0.620432
C36	C	-0.430834	1.271238	-0.638245
C37	C	-0.513378	1.271275	-0.638273
C38	C	-0.729495	1.227402	-0.682161
C39	C	-0.770572	1.192116	-0.602891
C40	C	-0.664498	1.271358	-0.638301
C41	C	-0.770498	1.306687	-0.717587
C42	C	-0.810474	1.271438	-0.638333
C43	C	-0.704487	1.236025	-0.558984
C44	C	-0.704411	1.350640	-0.673737
C45	C	-0.745453	1.315372	-0.594421
C46	C	-0.580405	1.271310	-0.638282
C47	C	-0.894563	1.271485	-0.638343
C48	C	-0.044149	1.271469	-0.638335
C49	C	0.038402	1.271524	-0.638360
C50	C	-0.270400	1.314820	-0.853242
C51	C	-0.284264	1.333348	-0.944847
C52	C	-0.205381	1.486334	-0.681836
C53	C	-0.191536	1.577951	-0.700397
C54	C	-0.132227	1.130902	-1.192822
C55	C	-0.145266	1.148331	-1.278903
C56	C	-0.224322	1.253685	-1.300212
C57	C	-0.211287	1.236268	-1.214133
C58	C	-0.165239	1.174875	-1.160444
C59	C	-0.244299	1.280240	-1.181754
C60	C	-0.231267	1.262821	-1.095682
C61	C	-0.185223	1.201429	-1.041987
C62	C	-0.152207	1.157456	-1.074371
C63	C	-0.290350	1.341629	-1.235443
C64	C	-0.323362	1.385601	-1.203065
C65	C	-0.310327	1.368187	-1.116992
C66	C	-0.264283	1.306795	-1.063298
C67	C	-0.343343	1.412160	-1.084608
C68	C	-0.330311	1.394741	-0.998535
C69	C	-0.251251	1.289376	-0.977225
C70	C	-0.205403	1.228077	-0.424162
C71	C	-0.191306	1.209709	-0.332590
H72	H	-0.360618	0.663564	-0.473969
C73	C	-0.200593	1.221843	-0.918163
N74	N	-0.162441	1.170979	-0.873677
H75	H	-0.094722	1.080918	-1.149107
H76	H	-0.114702	1.107472	-1.030656
H77	H	-0.261817	1.303668	-1.343936
H78	H	-0.213762	0.976983	-0.670528
H79	H	-0.118377	1.112522	-1.305261
H80	H	-0.675618	1.417641	-0.703717
H81	H	-0.174620	1.187242	-0.971901
H82	H	-0.174728	0.938632	-0.722789
C83	C	-0.719280	1.177074	-0.732158
N84	N	-0.711582	1.139164	-0.769810
H85	H	-0.118781	0.605357	-0.797800
C86	C	-0.304681	1.360792	-1.330127
N87	N	-0.315471	1.375227	-1.401443
H88	H	-0.360857	1.435584	-1.246789
H89	H	-0.380841	1.462140	-1.128332
H90	H	-0.357181	1.430559	-0.972175
C91	C	-0.393632	0.766636	-0.429734
N92	N	-0.431703	0.722107	-0.378764
H93	H	-0.752860	1.352568	-0.557290
H94	H	-0.799221	1.336534	-0.784625
H95	H	-0.799374	1.125108	-0.572944
C96	C	-0.101880	0.895309	-0.820365
N97	N	-0.063808	0.939833	-0.871335
H98	H	-0.261869	0.566529	-0.606221
C99	C	-0.304630	0.580294	-0.548971
N100	N	-0.315433	0.508973	-0.534535
C101	C	-0.082001	0.776887	-0.847018
N102	N	-0.043929	0.821411	-0.897989
H103	H	-0.356856	0.938168	-0.478937
H104	H	-0.675862	1.206100	-0.491912
