data_functionalizedCrystal
_audit_creation_method	'MofGen! by Chris Wilmer'
_symmetry_space_group_name_H-M	'P1'
_symmetry_Int_Tables_number	1
_symmetry_cell_setting	triclinic
loop_
_symmetry_equiv_pos_as_xyz
  x,y,z
_cell_length_a	14.519731
_cell_length_b	13.596369
_cell_length_c	14.853567
_cell_angle_alpha	90.003405
_cell_angle_beta	96.338108
_cell_angle_gamma	90.006024
loop_
_atom_site_label
_atom_site_type_symbol
_atom_site_fract_x
_atom_site_fract_y
_atom_site_fract_z
O1	O	1.223810	0.081785	-0.118265
O2	O	1.557143	0.415118	0.215069
O3	O	1.890477	0.748452	0.548402
O4	O	0.955330	0.081785	-0.132162
O5	O	1.288663	0.415119	0.201172
O6	O	1.621997	0.748452	0.534505
O7	O	1.096742	0.081788	0.006013
O8	O	1.430075	0.415122	0.339347
O9	O	1.763408	0.748455	0.672680
O10	O	1.082399	0.081782	-0.256440
O11	O	1.415732	0.415116	0.076894
O12	O	1.749065	0.748449	0.410227
O13	O	1.096724	-0.081795	0.006006
O14	O	1.430057	0.251539	0.339339
O15	O	1.763391	0.584872	0.672672
O16	O	0.955313	-0.081797	-0.132169
O17	O	1.288646	0.251536	0.201164
O18	O	1.621979	0.584869	0.534497
O19	O	1.223793	-0.081798	-0.118272
O20	O	1.557126	0.251535	0.215061
O21	O	1.890459	0.584869	0.548394
Zn22	Zn	1.089550	-0.107770	-0.125222
Zn23	Zn	1.422883	0.225563	0.208111
Zn24	Zn	1.756217	0.558897	0.541445
Zn25	Zn	1.089573	0.107758	-0.125212
Zn26	Zn	1.422906	0.441091	0.208121
Zn27	Zn	1.756239	0.774424	0.541455
O28	O	1.082381	-0.081801	-0.256447
O29	O	1.415714	0.251533	0.076886
O30	O	1.749048	0.584866	0.410219
C31	C	0.920962	-0.000006	-0.131514
C32	C	1.254296	0.333328	0.201819
C33	C	1.587629	0.666661	0.535152
C34	C	0.818583	-0.000005	-0.129563
C35	C	1.151916	0.333328	0.203770
C36	C	1.485249	0.666661	0.537104
N37	N	1.089541	-0.254862	-0.125228
N38	N	1.422874	0.078472	0.208105
N39	N	1.756208	0.411805	0.541438
C40	C	0.735439	-0.000001	-0.127978
C41	C	1.068773	0.333332	0.205356
C42	C	1.402106	0.666665	0.538689
C43	C	0.631131	-0.000001	-0.125996
C44	C	0.964465	0.333333	0.207337
C45	C	1.297798	0.666666	0.540670
C46	C	0.547993	-0.000001	-0.124424
C47	C	0.881326	0.333332	0.208909
C48	C	1.214660	0.666666	0.542243
C49	C	0.443678	0.000001	-0.122443
C50	C	0.777012	0.333335	0.210890
C51	C	1.110345	0.666668	0.544223
C52	C	1.089546	-0.343860	-0.125230
C53	C	1.422879	-0.010526	0.208103
C54	C	1.756212	0.322807	0.541436
C55	C	1.089555	-0.455511	-0.125224
C56	C	1.422888	-0.122178	0.208109
C57	C	1.756221	0.211156	0.541442
C58	C	1.089567	-0.544502	-0.125214
C59	C	1.422900	-0.211168	0.208119
C60	C	1.756233	0.122165	0.541453
C61	C	1.089577	-0.656160	-0.125209
C62	C	1.422910	-0.322827	0.208125
C63	C	1.756244	0.010507	0.541458
C64	C	1.258160	-0.000005	-0.118920
C65	C	1.591494	0.333329	0.214414
C66	C	1.924827	0.666662	0.547747
C67	C	1.360540	0.000001	-0.120871
C68	C	1.693873	0.333335	0.212462
C69	C	2.027207	0.666668	0.545796
C70	C	1.096083	-0.000000	0.039598
C71	C	1.429416	0.333333	0.372932
C72	C	1.762750	0.666666	0.706265
C73	C	1.094135	0.000008	0.139683
C74	C	1.427469	0.333341	0.473016
C75	C	1.760802	0.666675	0.806350
N76	N	1.089589	0.254849	-0.125199
N77	N	1.422922	0.588183	0.208135
N78	N	1.756256	0.921516	0.541468
C79	C	1.083040	-0.000010	-0.290032
C80	C	1.416373	0.333323	0.043301
C81	C	1.749706	0.666657	0.376634
C82	C	1.084987	-0.000012	-0.390117
C83	C	1.418321	0.333321	-0.056784
C84	C	1.751654	0.666655	0.276550
C85	C	1.001901	-0.000010	0.552260
C86	C	1.335235	0.333323	0.885593
C87	C	1.668568	0.666656	1.218926
C88	C	1.169902	-0.000011	0.573463
C89	C	1.503235	0.333323	0.906796
C90	C	1.836568	0.666656	1.240129
C91	C	1.171733	-0.000005	0.479428
C92	C	1.505066	0.333328	0.812762
C93	C	1.838399	0.666662	1.146095
C94	C	1.088647	-0.000003	0.421805
C95	C	1.421980	0.333330	0.755138
C96	C	1.755314	0.666663	1.088471
C97	C	1.003730	-0.000008	0.458216
C98	C	1.337063	0.333326	0.791549
C99	C	1.670397	0.666659	1.124883
C100	C	1.256648	-0.000011	0.443010
C101	C	1.589981	0.333323	0.776343
C102	C	1.923315	0.666656	1.109676
C103	C	1.258483	-0.000006	0.348970
C104	C	1.591816	0.333327	0.682303
C105	C	1.925149	0.666661	1.015637
C106	C	1.175396	0.000003	0.291345
C107	C	1.508729	0.333336	0.624678
C108	C	1.842063	0.666669	0.958011
C109	C	1.090476	-0.000000	0.327761
C110	C	1.423809	0.333333	0.661094
C111	C	1.757142	0.666666	0.994428
C112	C	1.007390	0.000001	0.270138
C113	C	1.340723	0.333334	0.603471
C114	C	1.674057	0.666668	0.936804
C115	C	0.922469	0.000005	0.306552
C116	C	1.255802	0.333338	0.639886
C117	C	1.589135	0.666672	0.973219
C118	C	0.920643	0.000001	0.400591
C119	C	1.253977	0.333334	0.733924
C120	C	1.587310	0.666668	1.067257
C121	C	1.177221	0.000007	0.197306
C122	C	1.510554	0.333340	0.530640
C123	C	1.843888	0.666673	0.863973
C124	C	1.009219	0.000004	0.176094
C125	C	1.342552	0.333337	0.509427
C126	C	1.675885	0.666671	0.842761
H127	H	0.941559	0.000009	0.129182
H128	H	1.274892	0.333343	0.462516
H129	H	1.608226	0.666676	0.795849
H130	H	1.246363	-0.000003	0.167662
H131	H	1.579696	0.333330	0.500995
H132	H	1.913029	0.666664	0.834328
H133	H	0.851505	0.000003	0.430248
H134	H	1.184838	0.333336	0.763582
H135	H	1.518172	0.666670	1.096915
F136	F	0.834046	-0.000001	0.245215
F137	F	1.167379	0.333332	0.578548
F138	F	1.500713	0.666666	0.911882
F139	F	0.911527	0.000002	0.591014
F140	F	1.244860	0.333335	0.924348
F141	F	1.578193	0.666669	1.257681
F142	F	1.258322	-0.000026	0.634791
F143	F	1.591655	0.333307	0.968124
F144	F	1.924988	0.666640	1.301458
H145	H	1.324292	-0.000021	0.489933
H146	H	1.657625	0.333312	0.823266
H147	H	1.990958	0.666646	1.156600
F148	F	1.348862	0.000002	0.310223
F149	F	1.682195	0.333335	0.643556
F150	F	2.015528	0.666669	0.976890
