data_functionalizedCrystal
_audit_creation_method	'MofGen! by Chris Wilmer'
_symmetry_space_group_name_H-M	'P1'
_symmetry_Int_Tables_number	1
_symmetry_cell_setting	triclinic
loop_
_symmetry_equiv_pos_as_xyz
  x,y,z
_cell_length_a	19.805407
_cell_length_b	25.639233
_cell_length_c	25.639240
_cell_angle_alpha	89.986272
_cell_angle_beta	90.029375
_cell_angle_gamma	89.987426
loop_
_atom_site_label
_atom_site_type_symbol
_atom_site_fract_x
_atom_site_fract_y
_atom_site_fract_z
Zn1	Zn	1.034674	-0.295627	-0.208252
Zn2	Zn	1.034588	-0.208199	-0.295671
Zn3	Zn	0.921499	-0.208205	-0.208247
Zn4	Zn	0.921441	-0.295603	-0.295654
O5	O	0.978051	-0.251909	-0.251956
O6	O	1.129379	-0.284036	-0.219857
O7	O	1.019575	-0.135034	-0.284079
O8	O	0.936572	-0.219815	-0.135082
O9	O	1.129316	-0.219803	-0.284083
O10	O	1.019721	-0.284043	-0.135086
O11	O	0.936489	-0.135039	-0.219849
O12	O	0.826775	-0.219792	-0.219833
O13	O	0.936473	-0.368772	-0.284055
O14	O	0.826732	-0.284003	-0.284050
O15	O	1.019665	-0.368789	-0.219841
O16	O	1.019519	-0.219780	-0.368834
O17	O	0.936390	-0.283996	-0.368821
C18	C	0.802195	-0.251896	-0.251939
C19	C	0.726963	-0.251903	-0.251945
C20	C	0.691652	-0.285400	-0.218562
C21	C	0.620964	-0.285402	-0.218564
C22	C	0.585587	-0.251909	-0.251954
C23	C	0.620903	-0.218408	-0.285338
C24	C	0.691590	-0.218404	-0.285333
C25	C	0.335829	-0.218424	-0.285362
C26	C	0.265137	-0.218432	-0.285366
C27	C	0.265203	-0.285422	-0.218594
C28	C	0.335890	-0.285418	-0.218588
C29	C	0.371200	-0.251915	-0.251971
C30	C	0.447848	-0.251913	-0.251966
C31	C	0.508940	-0.251914	-0.251961
C32	C	0.978072	-0.388282	-0.251947
C33	C	0.978082	-0.446396	-0.251943
C34	C	1.021455	-0.806773	-0.218407
C35	C	1.021463	-0.861378	-0.218393
O36	O	1.058285	-0.889627	-0.189941
N37	N	0.978156	-0.888678	-0.251820
C38	C	0.934834	-0.861372	-0.285261
O39	O	0.897998	-0.889607	-0.313691
C40	C	0.934822	-0.806768	-0.285272
C41	C	0.978137	-0.779471	-0.251846
C42	C	1.064765	-0.779476	-0.184984
C43	C	1.064757	-0.724875	-0.184999
C44	C	1.021439	-0.697572	-0.218438
C45	C	0.978129	-0.724870	-0.251861
C46	C	0.891497	-0.779463	-0.318709
C47	C	0.891489	-0.724856	-0.318717
C48	C	0.934803	-0.697558	-0.285292
C49	C	0.934804	-0.642967	-0.285315
N50	N	0.978110	-0.615666	-0.251888
C51	C	1.021428	-0.642969	-0.218449
C52	C	0.934860	-0.976042	-0.285233
C53	C	0.934874	-1.030645	-0.285225
C54	C	1.021503	-1.030647	-0.218356
C55	C	1.021491	-0.976044	-0.218368
C56	C	0.978166	-0.948742	-0.251806
C57	C	1.021409	-0.528304	-0.218484
C58	C	1.021400	-0.473698	-0.218504
C59	C	0.934769	-0.473701	-0.285370
C60	C	0.934781	-0.528301	-0.285353
C61	C	0.978103	-0.555602	-0.251905
O62	O	0.897998	-0.614683	-0.313751
O63	O	1.058251	-0.614727	-0.190018
C64	C	1.154593	-0.251922	-0.251973
C65	C	1.229825	-0.251927	-0.251980
C66	C	0.977957	-0.251896	-0.387798
C67	C	0.977979	-0.251909	-0.445912
C68	C	0.978068	-0.116066	-0.251927
C69	C	0.978190	-0.057952	-0.251784
C70	C	1.021343	-0.285386	-0.697056
C71	C	1.021322	-0.285382	-0.642452
O72	O	1.058114	-0.313829	-0.614174
N73	N	0.978053	-0.251915	-0.615186
C74	C	0.934806	-0.218446	-0.642528
O75	O	0.898001	-0.189979	-0.614322
C76	C	0.934831	-0.218448	-0.697131
C77	C	0.978098	-0.251921	-0.724394
C78	C	1.064607	-0.318856	-0.724320
C79	C	1.064626	-0.318860	-0.778920
C80	C	1.021381	-0.285395	-0.806258
C81	C	0.978117	-0.251926	-0.778994
C82	C	0.891588	-0.184977	-0.724471
C83	C	0.891616	-0.184981	-0.779078
C84	C	0.934883	-0.218454	-0.806341
C85	C	0.934891	-0.218465	-0.860932
N86	N	0.978161	-0.251932	-0.888198
C87	C	1.021405	-0.285397	-0.860861
C88	C	0.934760	-0.218445	-0.527857
C89	C	0.934731	-0.218445	-0.473255
C90	C	1.021248	-0.285381	-0.473183
C91	C	1.021273	-0.285382	-0.527786
C92	C	0.978029	-0.251912	-0.555123
C93	C	1.021442	-0.285404	-0.975526
C94	C	1.021456	-0.285407	-1.030131
C95	C	0.934942	-0.218470	-1.030198
C96	C	0.934925	-0.218469	-0.975598
C97	C	0.978181	-0.251938	-0.948263
O98	O	0.898121	-0.190032	-0.889246
O99	O	1.058211	-0.313854	-0.889073
C100	C	0.978163	-0.251932	-0.115583
C101	C	0.978211	-0.251942	-0.057469
H102	H	0.720450	-0.312675	-0.191374
H103	H	0.364570	-0.191145	-0.312545
H104	H	1.056674	-0.451475	-0.191284
H105	H	0.899686	-0.191218	-0.953400
C106	C	0.684429	-0.152192	-0.351343
C107	C	0.730406	-0.181587	-0.322032
H108	H	0.708394	-0.129464	-0.374002
H109	H	0.656865	-0.132234	-0.328537
H110	H	0.656855	-0.174945	-0.371377
H111	H	0.757977	-0.158833	-0.301996
H112	H	0.757982	-0.201547	-0.344842
H113	H	1.056684	-0.550525	-0.191246
C114	C	0.156873	-0.315175	-0.188943
C115	C	0.226389	-0.322245	-0.181892
H116	H	0.132914	-0.337906	-0.166284
H117	H	0.145274	-0.322767	-0.224080
H118	H	0.145287	-0.280059	-0.181237
H119	H	0.237976	-0.357361	-0.189602
H120	H	0.237992	-0.314656	-0.146747
H121	H	0.856356	-0.157720	-0.702281
C122	C	0.272168	-0.152201	-0.351365
C123	C	0.226250	-0.181611	-0.322067
H124	H	0.248159	-0.129468	-0.374018
H125	H	0.299737	-0.174940	-0.371398
H126	H	0.299744	-0.132241	-0.328545
H127	H	0.198677	-0.201573	-0.344886
H128	H	0.198670	-0.158868	-0.302032
H129	H	1.099863	-0.346114	-0.801113
C130	C	0.806097	-0.118816	-0.773660
C131	C	0.844076	-0.148191	-0.809125
H132	H	0.776745	-0.096107	-0.792210
H133	H	0.835599	-0.098837	-0.752353
H134	H	0.780182	-0.141582	-0.752370
H135	H	0.869995	-0.125425	-0.830413
H136	H	0.814570	-0.168171	-0.830441
C137	C	0.925318	-0.589717	-0.355664
C138	C	0.887172	-0.558312	-0.322095
H139	H	0.895921	-0.608240	-0.378345
H140	H	0.951110	-0.613790	-0.335745
H141	H	0.954786	-0.568417	-0.375675
H142	H	0.857707	-0.579613	-0.302081
H143	H	0.861368	-0.534236	-0.342015
C144	C	0.512634	-0.315157	-0.188924
C145	C	0.582149	-0.322226	-0.181872
H146	H	0.488674	-0.337890	-0.166269
H147	H	0.501038	-0.322745	-0.224063
H148	H	0.501047	-0.280041	-0.181215
H149	H	0.593738	-0.357341	-0.189585
H150	H	0.593751	-0.314642	-0.146726
H151	H	1.100040	-0.801700	-0.157751
C152	C	1.150376	-0.730379	-0.118897
C153	C	1.112362	-0.694874	-0.148249
H154	H	1.179762	-0.711859	-0.096205
H155	H	1.176252	-0.751674	-0.141676
H156	H	1.120894	-0.751677	-0.098897
H157	H	1.141844	-0.673579	-0.168252
H158	H	1.086485	-0.673570	-0.125468
C159	C	1.054359	-0.373969	-1.046888
C160	C	1.069019	-0.322203	-1.060098
H161	H	1.083726	-0.396683	-1.065385
H162	H	1.008885	-0.381586	-1.055866
H163	H	1.060537	-0.378747	-1.010454
H164	H	1.062837	-0.317424	-1.096531
H165	H	1.114504	-0.314583	-1.051124
H166	H	0.592093	-0.191136	-0.312522
C167	C	1.107118	-0.981543	-0.152271
C168	C	1.069097	-0.946041	-0.181621
H169	H	1.136505	-0.963022	-0.129581
H170	H	1.132992	-1.002838	-0.175051
H171	H	1.077640	-1.002842	-0.132268
H172	H	1.098576	-0.924744	-0.201626
H173	H	1.043221	-0.924737	-0.158838
C174	C	1.030764	-0.355740	-0.914100
C175	C	1.068984	-0.322195	-0.945482
H176	H	1.060113	-0.378452	-0.895551
H177	H	1.001267	-0.375715	-0.935415
H178	H	1.005001	-0.335802	-0.890046
H179	H	1.094743	-0.342134	-0.969539
H180	H	1.098493	-0.302219	-0.924166
C181	C	1.059961	-1.114356	-0.188638
C182	C	1.069109	-1.060666	-0.181590
H183	H	1.089345	-1.132888	-0.165938
H184	H	1.069848	-1.123303	-0.223761
H185	H	1.014485	-1.123290	-0.180986
H186	H	1.114583	-1.051731	-0.189246
H187	H	1.059226	-1.051715	-0.146460
H188	H	0.899503	-0.451461	-0.312597
C189	C	0.849245	-1.025144	-0.351321
C190	C	0.887266	-1.060647	-0.321971
H191	H	0.819849	-1.043666	-0.374003
H192	H	0.878718	-1.003852	-0.371327
H193	H	0.823375	-1.003843	-0.328537
H194	H	0.913140	-1.081946	-0.344755
H195	H	0.857789	-1.081948	-0.301964
C196	C	0.925387	-0.914638	-0.355582
C197	C	0.887243	-0.946032	-0.321998
H198	H	0.895990	-0.896110	-0.378275
H199	H	0.954862	-0.935942	-0.375574
H200	H	0.951172	-0.890564	-0.335671
H201	H	0.861462	-0.970108	-0.341909
H202	H	0.857757	-0.924726	-0.302004
C203	C	0.805854	-0.773952	-0.384791
C204	C	0.843877	-0.809459	-0.355448
H205	H	0.776450	-0.792471	-0.407470
H206	H	0.835324	-0.752661	-0.404800
H207	H	0.779991	-0.752650	-0.362002
H208	H	0.869744	-0.830758	-0.378237
H209	H	0.814403	-0.830759	-0.335438
C210	C	1.150115	-0.385022	-0.729748
C211	C	1.112143	-0.355649	-0.694276
H212	H	1.179457	-0.407742	-0.711202
H213	H	1.176034	-0.362259	-0.751030
H214	H	1.120603	-0.404993	-0.751062
H215	H	1.141655	-0.335675	-0.672965
H216	H	1.086222	-0.378415	-0.672985
C217	C	0.800414	-0.663451	-0.325998
C218	C	0.843865	-0.694850	-0.355479
H219	H	0.771012	-0.644932	-0.348695
H220	H	0.826203	-0.639375	-0.306102
H221	H	0.774551	-0.684754	-0.303208
H222	H	0.869731	-0.673547	-0.378266
H223	H	0.818073	-0.718929	-0.375384
C224	C	1.106779	-0.351548	-0.522218
C225	C	1.068833	-0.322176	-0.557751
H226	H	1.136144	-0.374262	-0.540716
H227	H	1.077258	-0.371521	-0.500936
H228	H	1.132680	-0.328780	-0.500910
H229	H	1.042928	-0.344944	-0.579057
H230	H	1.098358	-0.302202	-0.579042
H231	H	0.364690	-0.312693	-0.191401
H232	H	1.056462	-0.312629	-0.450915
C233	C	0.849217	-0.152284	-0.478824
C234	C	0.887166	-0.181654	-0.443291
H235	H	0.819857	-0.129567	-0.460326
H236	H	0.823318	-0.175050	-0.500128
H237	H	0.878742	-0.132310	-0.500110
H238	H	0.857641	-0.201631	-0.422007
H239	H	0.913067	-0.158886	-0.421978
H240	H	0.899539	-0.191190	-0.550111
C241	C	0.896578	-0.188755	-1.113938
C242	C	0.887413	-0.181682	-1.060255
H243	H	0.867242	-0.166038	-1.132494
H244	H	0.886637	-0.223873	-1.122879
H245	H	0.942071	-0.181141	-1.122850
H246	H	0.841921	-0.189300	-1.051342
H247	H	0.897350	-0.146556	-1.051311
