data_functionalizedCrystal
_audit_creation_method	'MofGen! by Chris Wilmer'
_symmetry_space_group_name_H-M	'P1'
_symmetry_Int_Tables_number	1
_symmetry_cell_setting	triclinic
loop_
_symmetry_equiv_pos_as_xyz
  x,y,z
_cell_length_a	25.639243
_cell_length_b	25.639240
_cell_length_c	21.295411
_cell_angle_alpha	90.026709
_cell_angle_beta	90.027104
_cell_angle_gamma	90.035481
loop_
_atom_site_label
_atom_site_type_symbol
_atom_site_fract_x
_atom_site_fract_y
_atom_site_fract_z
Zn1	Zn	0.799304	-0.208172	0.355932
Zn2	Zn	1.132637	0.125161	0.689265
Zn3	Zn	1.465971	0.458494	1.022599
Zn4	Zn	0.799220	-0.295592	0.250648
Zn5	Zn	1.132553	0.037741	0.583981
Zn6	Zn	1.465886	0.371074	0.917315
Zn7	Zn	0.711863	-0.208177	0.250672
Zn8	Zn	1.045197	0.125156	0.584006
Zn9	Zn	1.378530	0.458490	0.917339
Zn10	Zn	0.711835	-0.295583	0.355875
Zn11	Zn	1.045168	0.037751	0.689208
Zn12	Zn	1.378501	0.371084	1.022542
O13	O	0.755555	-0.251881	0.303282
O14	O	1.088889	0.081452	0.636615
O15	O	1.422222	0.414786	0.969949
O16	O	0.872458	-0.219771	0.341979
O17	O	1.205791	0.113562	0.675313
O18	O	1.539125	0.446896	1.008646
O19	O	0.787608	-0.284002	0.162562
O20	O	1.120942	0.049331	0.495895
O21	O	1.454275	0.382664	0.829229
O22	O	0.723510	-0.135011	0.264669
O23	O	1.056843	0.198322	0.598003
O24	O	1.390177	0.531656	0.931336
O25	O	0.872396	-0.283998	0.264628
O26	O	1.205729	0.049335	0.597961
O27	O	1.539063	0.382669	0.931295
O28	O	0.787752	-0.135008	0.342003
O29	O	1.121086	0.198326	0.675336
O30	O	1.454419	0.531659	1.008670
O31	O	0.723428	-0.219779	0.162580
O32	O	1.056761	0.113555	0.495913
O33	O	1.390095	0.446888	0.829246
O34	O	0.638694	-0.219769	0.264614
O35	O	0.972028	0.113564	0.597947
O36	O	1.305361	0.446897	0.931281
O37	O	0.723461	-0.283982	0.443972
O38	O	1.056794	0.049352	0.777305
O39	O	1.390128	0.382685	1.110639
O40	O	0.638673	-0.283986	0.341906
O41	O	0.972007	0.049347	0.675239
O42	O	1.305340	0.382681	1.008573
O43	O	0.787724	-0.219762	0.444014
O44	O	1.121058	0.113572	0.777347
O45	O	1.454391	0.446905	1.110681
O46	O	0.787580	-0.368756	0.264573
O47	O	1.120914	-0.035423	0.597906
O48	O	1.454247	0.297910	0.931239
O49	O	0.723379	-0.368749	0.341883
O50	O	1.056712	-0.035416	0.675216
O51	O	1.390046	0.297917	1.008549
C52	C	0.619713	-0.251878	0.303257
C53	C	0.953046	0.081456	0.636590
C54	C	1.286380	0.414789	0.969924
C55	C	0.561599	-0.251889	0.303261
C56	C	0.894932	0.081445	0.636594
C57	C	1.228265	0.414778	0.969928
C58	C	0.201262	-0.218491	0.343626
C59	C	0.534596	0.114843	0.676959
C60	C	0.867929	0.448176	1.010293
C61	C	0.146658	-0.218490	0.343630
C62	C	0.479992	0.114843	0.676963
C63	C	0.813325	0.448177	1.010297
O64	O	0.118444	-0.190084	0.377918
O65	O	0.451777	0.143249	0.711252
O66	O	0.785111	0.476583	1.044585
N67	N	0.119316	-0.251880	0.303299
N68	N	0.452650	0.081454	0.636632
N69	N	0.785983	0.414787	0.969966
C70	C	0.146582	-0.285268	0.262957
C71	C	0.479915	0.048065	0.596291
C72	C	0.813248	0.381399	0.929624
O73	O	0.118311	-0.313668	0.228653
O74	O	0.451645	0.019666	0.561986
O75	O	0.784978	0.352999	0.895320
C76	C	0.201185	-0.285265	0.262951
C77	C	0.534518	0.048068	0.596284
C78	C	0.867852	0.381401	0.929617
C79	C	0.228524	-0.251877	0.303289
C80	C	0.561857	0.081456	0.636622
C81	C	0.895191	0.414789	0.969955
C82	C	0.228602	-0.185105	0.383960
C83	C	0.561935	0.148228	0.717293
C84	C	0.895268	0.481562	1.050627
C85	C	0.283202	-0.185106	0.383957
C86	C	0.616535	0.148227	0.717290
C87	C	0.949869	0.481560	1.050624
C88	C	0.310464	-0.218493	0.343620
C89	C	0.643797	0.114840	0.676953
C90	C	0.977130	0.448174	1.010286
C91	C	0.283125	-0.251879	0.303285
C92	C	0.616458	0.081455	0.636619
C93	C	0.949791	0.414788	0.969952
C94	C	0.228449	-0.318650	0.222606
C95	C	0.561783	0.014683	0.555940
C96	C	0.895116	0.348016	0.889273
C97	C	0.283056	-0.318645	0.222603
C98	C	0.616390	0.014689	0.555936
C99	C	0.949723	0.348022	0.889270
C100	C	0.310395	-0.285257	0.262941
C101	C	0.643729	0.048076	0.596274
C102	C	0.977062	0.381410	0.929607
C103	C	0.364987	-0.285267	0.262945
C104	C	0.698320	0.048067	0.596278
C105	C	1.031653	0.381400	0.929612
N106	N	0.392328	-0.251877	0.303276
N107	N	0.725662	0.081456	0.636609
N108	N	1.058995	0.414789	0.969942
C109	C	0.365067	-0.218491	0.343613
C110	C	0.698400	0.114843	0.676946
C111	C	1.031734	0.448176	1.010280
C112	C	0.031911	-0.285270	0.262974
C113	C	0.365244	0.048063	0.596307
C114	C	0.698578	0.381397	0.929640
C115	C	-0.022691	-0.285276	0.262983
C116	C	0.310642	0.048058	0.596316
C117	C	0.643975	0.381391	0.929650
C118	C	-0.022611	-0.218497	0.343655
C119	C	0.310722	0.114836	0.676988
C120	C	0.644056	0.448169	1.010321
C121	C	0.031992	-0.218495	0.343648
C122	C	0.365326	0.114839	0.676981
C123	C	0.698659	0.448172	1.010315
C124	C	0.059253	-0.251881	0.303304
C125	C	0.392586	0.081453	0.636638
C126	C	0.725920	0.414786	0.969971
C127	C	0.479732	-0.218496	0.343603
C128	C	0.813065	0.114837	0.676937
C129	C	1.146399	0.448171	1.010270
C130	C	0.534337	-0.218502	0.343598
C131	C	0.867671	0.114832	0.676932
C132	C	1.201004	0.448165	1.010265
C133	C	0.534252	-0.285278	0.262925
C134	C	0.867586	0.048055	0.596258
C135	C	1.200919	0.381389	0.929591
C136	C	0.479652	-0.285275	0.262932
C137	C	0.812985	0.048059	0.596265
C138	C	1.146318	0.381392	0.929598
C139	C	0.452393	-0.251879	0.303273
C140	C	0.785726	0.081454	0.636607
C141	C	1.119060	0.414787	0.969940
O142	O	0.393235	-0.313657	0.228672
O143	O	0.726569	0.019677	0.562005
O144	O	1.059902	0.353010	0.895339
O145	O	0.393344	-0.190091	0.377906
O146	O	0.726677	0.143243	0.711239
O147	O	1.060011	0.476576	1.044572
C148	C	0.755482	-0.387724	0.303233
C149	C	1.088815	-0.054390	0.636566
C150	C	1.422148	0.278943	0.969899
C151	C	0.755498	-0.445838	0.303233
C152	C	1.088831	-0.112504	0.636566
C153	C	1.422164	0.220829	0.969899
C154	C	0.789023	-0.806161	0.343622
C155	C	1.122356	-0.472827	0.676956
C156	C	1.455690	-0.139494	1.010289
C157	C	0.789038	-0.860765	0.343635
C158	C	1.122372	-0.527431	0.676968
C159	C	1.455705	-0.194098	1.010302
O160	O	0.817455	-0.888967	0.377925
O161	O	1.150788	-0.555634	0.711258
O162	O	1.484122	-0.222301	1.044592
N163	N	0.755628	-0.888120	0.303343
N164	N	1.088961	-0.554787	0.636676
N165	N	1.422295	-0.221453	0.970009
C166	C	0.722196	-0.860868	0.263039
C167	C	1.055530	-0.527535	0.596373
C168	C	1.388863	-0.194202	0.929706
O169	O	0.693779	-0.889150	0.228769
O170	O	1.027112	-0.555817	0.562103
O171	O	1.360446	-0.222483	0.895436
C172	C	0.722179	-0.806265	0.263030
C173	C	1.055512	-0.472932	0.596364
C174	C	1.388845	-0.139598	0.929697
C175	C	0.755595	-0.778912	0.303321
C176	C	1.088928	-0.445579	0.636654
C177	C	1.422262	-0.112246	0.969987
C178	C	0.822436	-0.778808	0.383910
C179	C	1.155770	-0.445475	0.717243
C180	C	1.489103	-0.112141	1.050577
C181	C	0.822421	-0.724207	0.383896
C182	C	1.155755	-0.390874	0.717229
C183	C	1.489088	-0.057541	1.050563
C184	C	0.788993	-0.696959	0.343595
C185	C	1.122327	-0.363626	0.676928
C186	C	1.455660	-0.030293	1.010261
C187	C	0.755580	-0.724312	0.303307
C188	C	1.088913	-0.390979	0.636640
C189	C	1.422247	-0.057645	0.969974
C190	C	0.688744	-0.779014	0.222731
C191	C	1.022078	-0.445681	0.556064
C192	C	1.355411	-0.112347	0.889397
C193	C	0.688729	-0.724407	0.222725
C194	C	1.022063	-0.391074	0.556059
C195	C	1.355396	-0.057740	0.889392
C196	C	0.722146	-0.697055	0.263016
C197	C	1.055479	-0.363721	0.596349
C198	C	1.388812	-0.030388	0.929683
C199	C	0.722137	-0.642463	0.262992
C200	C	1.055470	-0.309130	0.596325
C201	C	1.388804	0.024203	0.929658
N202	N	0.755547	-0.615108	0.303284
N203	N	1.088881	-0.281775	0.636617
N204	N	1.422214	0.051559	0.969951
C205	C	0.788976	-0.642356	0.343586
C206	C	1.122309	-0.309023	0.676919
C207	C	1.455642	0.024311	1.010252
C208	C	0.722235	-0.975539	0.263063
C209	C	1.055569	-0.642206	0.596396
C210	C	1.388902	-0.308872	0.929729
C211	C	0.722255	-1.030141	0.263068
C212	C	1.055588	-0.696808	0.596401
C213	C	1.388922	-0.363475	0.929735
C214	C	0.789097	-1.030034	0.343665
C215	C	1.122430	-0.696701	0.676998
C216	C	1.455763	-0.363367	1.010331
C217	C	0.789079	-0.975431	0.343655
C218	C	1.122412	-0.642097	0.676989
C219	C	1.455746	-0.308764	1.010322
C220	C	0.755646	-0.948184	0.303355
C221	C	1.088979	-0.614850	0.636688
C222	C	1.422312	-0.281517	0.970022
C223	C	0.788942	-0.527691	0.343553
C224	C	1.122276	-0.194358	0.676886
C225	C	1.455609	0.138976	1.010220
C226	C	0.788926	-0.473086	0.343534
C227	C	1.122259	-0.139752	0.676867
C228	C	1.455593	0.193581	1.010201
C229	C	0.722082	-0.473198	0.262940
C230	C	1.055416	-0.139864	0.596273
C231	C	1.388749	0.193469	0.929607
C232	C	0.722100	-0.527798	0.262957
C233	C	1.055434	-0.194465	0.596290
C234	C	1.388767	0.138868	0.929623
C235	C	0.755532	-0.555044	0.303268
C236	C	1.088865	-0.221710	0.636602
C237	C	1.422199	0.111623	0.969935
O238	O	0.693734	-0.614226	0.228721
O239	O	1.027067	-0.280893	0.562054
O240	O	1.360400	0.052441	0.895388
O241	O	0.817383	-0.614068	0.377856
O242	O	1.150716	-0.280734	0.711189
O243	O	1.484050	0.052599	1.044522
C244	C	0.891928	-0.251885	0.303307
C245	C	1.225262	0.081448	0.636641
C246	C	1.558595	0.414782	0.969974
C247	C	0.950042	-0.251887	0.303318
C248	C	1.283376	0.081447	0.636651
C249	C	1.616709	0.414780	0.969985
C250	C	0.755599	-0.251870	0.467472
C251	C	1.088932	0.081463	0.800806
C252	C	1.422265	0.414797	1.134139
C253	C	0.755617	-0.251865	0.537440
C254	C	1.088951	0.081468	0.870774
C255	C	1.422284	0.414801	1.204107
C256	C	0.755644	-0.115508	0.303345
C257	C	1.088977	0.217825	0.636679
C258	C	1.422311	0.551159	0.970012
C259	C	0.755682	-0.057394	0.303372
C260	C	1.089015	0.275939	0.636705
C261	C	1.422348	0.609273	0.970039
C262	C	0.755542	-0.251854	0.139730
C263	C	1.088876	0.081479	0.473064
C264	C	1.422209	0.414812	0.806397
C265	C	0.755625	-0.251712	0.069763
C266	C	1.088958	0.081622	0.403096
C267	C	1.422292	0.414955	0.736429
C268	C	0.789078	-0.218424	0.570330
C269	C	1.122411	0.114909	0.903663
C270	C	1.455745	0.448242	1.236996
C271	C	0.789077	-0.218402	0.636072
C272	C	1.122410	0.114932	0.969406
C273	C	1.455744	0.448265	1.302739
C274	C	0.755621	-0.251829	0.668923
C275	C	1.088955	0.081504	1.002256
C276	C	1.422288	0.414837	1.335590
C277	C	0.722154	-0.285273	0.636026
C278	C	1.055488	0.048061	0.969359
C279	C	1.388821	0.381394	1.302692
C280	C	0.722152	-0.285291	0.570284
C281	C	1.055486	0.048043	0.903618
C282	C	1.388819	0.381376	1.236951
N283	N	0.751586	-0.297568	0.772133
N284	N	1.084919	0.035766	1.105467
N285	N	1.418252	0.369099	1.438800
N286	N	0.751591	-0.297549	0.834585
N287	N	1.084924	0.035784	1.167918
N288	N	1.418257	0.369118	1.501251
C289	C	0.755625	-0.251776	0.866998
C290	C	1.088958	0.081557	1.200331
C291	C	1.422291	0.414890	1.533664
N292	N	0.759664	-0.206022	0.834600
N293	N	1.092997	0.127311	1.167933
N294	N	1.426330	0.460645	1.501267
N295	N	0.759661	-0.206041	0.772143
N296	N	1.092995	0.127292	1.105476
N297	N	1.426328	0.460626	1.438810
C298	C	0.755620	-0.251813	0.740208
C299	C	1.088953	0.081520	1.073542
C300	C	1.422286	0.414853	1.406875
C301	C	0.789086	-0.218308	0.971173
C302	C	1.122420	0.115025	1.304506
C303	C	1.455753	0.448359	1.637839
C304	C	0.789082	-0.218285	1.036917
C305	C	1.122415	0.115049	1.370250
C306	C	1.455749	0.448382	1.703583
C307	C	0.722162	-0.285160	1.036869
C308	C	1.055495	0.048173	1.370202
C309	C	1.388828	0.381507	1.703535
C310	C	0.722163	-0.285179	0.971126
C311	C	1.055497	0.048155	1.304459
C312	C	1.388830	0.381488	1.637793
C313	C	0.755628	-0.251754	0.938282
C314	C	1.088962	0.081580	1.271615
C315	C	1.422295	0.414913	1.604949
H316	H	-0.044946	-0.312469	0.230143
H317	H	0.288387	0.020864	0.563476
H318	H	0.621721	0.354197	0.896809
H319	H	0.694867	-0.451004	0.230125
H320	H	1.028201	-0.117671	0.563458
H321	H	1.361534	0.215663	0.896792
N322	N	0.562254	-0.184386	0.384802
N323	N	0.895587	0.148947	0.718136
N324	N	1.228921	0.482280	1.051469
N325	N	0.556180	-0.136137	0.380738
N326	N	0.889513	0.197197	0.714071
N327	N	1.222847	0.530530	1.047404
H328	H	0.575894	-0.112042	0.409836
H329	H	0.909227	0.221291	0.743170
H330	H	1.242561	0.554625	1.076503
H331	H	0.695050	-1.052407	0.230253
H332	H	1.028383	-0.719074	0.563586
H333	H	1.361716	-0.385740	0.896919
N334	N	0.059908	-0.184379	0.384847
N335	N	0.393241	0.148954	0.718180
N336	N	0.726575	0.482288	1.051513
N337	N	0.053828	-0.136130	0.380782
N338	N	0.387161	0.197203	0.714116
N339	N	0.720494	0.530536	1.047449
H340	H	0.073540	-0.112033	0.409879
H341	H	0.406874	0.221300	0.743212
H342	H	0.740207	0.554634	1.076546
N343	N	0.687994	-0.319348	0.937525
N344	N	1.021328	0.013985	1.270858
N345	N	1.354661	0.347319	1.604191
N346	N	0.706367	-0.352676	0.900845
N347	N	1.039701	-0.019342	1.234178
N348	N	1.373034	0.313991	1.567511
H349	H	0.682233	-0.376808	0.877113
H350	H	1.015567	-0.043474	1.210446
H351	H	1.348900	0.289859	1.543779
N352	N	0.451901	-0.184385	0.384820
N353	N	0.785234	0.148948	0.718153
N354	N	1.118568	0.482281	1.051486
N355	N	0.476326	-0.154586	0.420831
N356	N	0.809660	0.178748	0.754164
N357	N	1.142993	0.512081	1.087498
H358	H	0.456671	-0.130498	0.449945
H359	H	0.790005	0.202835	0.783279
H360	H	1.123338	0.536168	1.116612
H361	H	0.661533	-0.801275	0.189922
H362	H	0.994867	-0.467942	0.523255
H363	H	1.328200	-0.134609	0.856588
N364	N	0.562113	-0.319380	0.221731
N365	N	0.895446	0.013953	0.555064
N366	N	1.228780	0.347286	0.888397
N367	N	0.610866	-0.319371	0.221738
N368	N	0.944199	0.013962	0.555071
N369	N	1.277532	0.347295	0.888404
H370	H	0.630544	-0.343455	0.192642
H371	H	0.963878	-0.010121	0.525976
H372	H	1.297211	0.323212	0.859309
H373	H	0.694916	-0.312372	1.063615
H374	H	1.028249	0.020961	1.396948
H375	H	1.361583	0.354295	1.730281
H376	H	0.816327	-0.191206	0.543592
H377	H	1.149660	0.142127	0.876926
H378	H	1.482994	0.475460	1.210259
H379	H	0.816324	-0.191167	0.662856
H380	H	1.149657	0.142166	0.996189
H381	H	1.482990	0.475499	1.329523
N382	N	-0.050472	-0.184396	0.384857
N383	N	0.282861	0.148937	0.718190
N384	N	0.616195	0.482270	1.051524
N385	N	-0.099224	-0.184406	0.384851
N386	N	0.234109	0.148927	0.718184
N387	N	0.567442	0.482260	1.051518
H388	H	-0.118903	-0.160325	0.413949
H389	H	0.214430	0.173008	0.747282
H390	H	0.547764	0.506342	1.080615
H391	H	0.816329	-0.191050	1.063694
H392	H	1.149662	0.142283	1.397027
H393	H	1.482995	0.475617	1.730361
N394	N	0.311132	-0.150994	0.425145
N395	N	0.644465	0.182339	0.758479
N396	N	0.977799	0.515672	1.091812
N397	N	0.359884	-0.150988	0.425139
N398	N	0.693218	0.182346	0.758472
N399	N	1.026551	0.515679	1.091806
H400	H	0.379608	-0.126892	0.454228
H401	H	0.712941	0.206441	0.787561
H402	H	1.046275	0.539774	1.120894
N403	N	0.687985	-0.555758	0.221798
N404	N	1.021318	-0.222425	0.555131
N405	N	1.354651	0.110909	0.888464
N406	N	0.706414	-0.586237	0.181724
N407	N	1.039748	-0.252903	0.515057
N408	N	1.373081	0.080430	0.848391
H409	H	0.682320	-0.605984	0.152658
H410	H	1.015653	-0.272651	0.485991
H411	H	1.348986	0.060682	0.819324
N412	N	0.823269	-0.184161	0.937629
N413	N	1.156602	0.149172	1.270962
N414	N	1.489936	0.482505	1.604295
N415	N	0.853139	-0.154300	0.967006
N416	N	1.186472	0.179033	1.300339
N417	N	1.519806	0.512367	1.633672
H418	H	0.877281	-0.130183	0.943317
H419	H	1.210614	0.203151	1.276650
H420	H	1.543947	0.536484	1.609984
N421	N	0.200768	-0.150992	0.425168
N422	N	0.534102	0.182341	0.758501
N423	N	0.867435	0.515675	1.091835
N424	N	0.225195	-0.121188	0.461172
N425	N	0.558528	0.212146	0.794505
N426	N	0.891862	0.545479	1.127839
H427	H	0.205542	-0.097095	0.490280
H428	H	0.538875	0.236239	0.823614
H429	H	0.872208	0.569572	1.156947
H430	H	0.206199	-0.345838	0.189758
H431	H	0.539533	-0.012505	0.523091
H432	H	0.872866	0.320829	0.856425
N433	N	0.059747	-0.319380	0.221758
N434	N	0.393080	0.013953	0.555092
N435	N	0.726413	0.347286	0.888425
N436	N	0.035323	-0.349187	0.185754
N437	N	0.368656	-0.015854	0.519087
N438	N	0.701990	0.317480	0.852421
H439	H	0.054979	-0.373277	0.156644
H440	H	0.388312	-0.039944	0.489977
H441	H	0.721646	0.293390	0.823311
N442	N	0.310893	-0.352749	0.181383
N443	N	0.644226	-0.019415	0.514716
N444	N	0.977560	0.313918	0.848049
N445	N	0.286472	-0.382552	0.145372
N446	N	0.619806	-0.049219	0.478705
N447	N	0.953139	0.284115	0.812038
H448	H	0.306131	-0.406638	0.116259
H449	H	0.639464	-0.073305	0.449593
H450	H	0.972797	0.260029	0.782926
N451	N	0.687980	-0.319411	0.669588
N452	N	1.021313	0.013922	1.002921
N453	N	1.354646	0.347255	1.336255
N454	N	0.687986	-0.319391	0.728285
N455	N	1.021319	0.013942	1.061618
N456	N	1.354653	0.347275	1.394952
H457	H	0.663847	-0.343501	0.751989
H458	H	0.997181	-0.010168	1.085323
H459	H	1.330514	0.323166	1.418656
N460	N	0.451730	-0.319388	0.221732
N461	N	0.785064	0.013946	0.555065
N462	N	1.118397	0.347279	0.888398
N463	N	0.476080	-0.349197	0.185722
N464	N	0.809414	-0.015863	0.519055
N465	N	1.142747	0.317470	0.852388
H466	H	0.456365	-0.373287	0.156619
H467	H	0.789698	-0.039954	0.489953
H468	H	1.123031	0.293380	0.823286
N469	N	0.687966	-0.319453	0.536695
N470	N	1.021300	0.013880	0.870028
N471	N	1.354633	0.347214	1.203362
N472	N	0.658093	-0.349294	0.566029
N473	N	0.991426	-0.015961	0.899363
N474	N	1.324760	0.317373	1.232696
H475	H	0.633949	-0.373422	0.542306
H476	H	0.967282	-0.040089	0.875640
H477	H	1.300615	0.293244	1.208973
N478	N	0.823073	-0.445152	0.384683
N479	N	1.156406	-0.111818	0.718017
N480	N	1.489739	0.221515	1.051350
N481	N	0.871319	-0.451219	0.380558
N482	N	1.204653	-0.117885	0.713892
N483	N	1.537986	0.215448	1.047225
H484	H	0.895437	-0.431494	0.409619
H485	H	1.228771	-0.098161	0.742952
H486	H	1.562104	0.235173	1.076285
N487	N	0.823101	-0.555508	0.384726
N488	N	1.156434	-0.222175	0.718059
N489	N	1.489768	0.111159	1.051393
N490	N	0.871345	-0.549360	0.380599
N491	N	1.204678	-0.216026	0.713932
N492	N	1.538011	0.117307	1.047265
H493	H	0.895472	-0.569004	0.409674
H494	H	1.228806	-0.235671	0.743007
H495	H	1.562139	0.097662	1.076341
N496	N	0.856558	-0.696280	0.425057
N497	N	1.189892	-0.362947	0.758390
N498	N	1.523225	-0.029613	1.091724
N499	N	0.886399	-0.720624	0.461035
N500	N	1.219732	-0.387291	0.794369
N501	N	1.553065	-0.053957	1.127702
H502	H	0.910509	-0.700904	0.490109
H503	H	1.243842	-0.367570	0.823443
H504	H	1.577176	-0.034237	1.156776
N505	N	0.823205	-0.947491	0.384819
N506	N	1.156538	-0.614158	0.718152
N507	N	1.489871	-0.280825	1.051485
N508	N	0.804786	-0.917021	0.424909
N509	N	1.138119	-0.583688	0.758243
N510	N	1.471453	-0.250354	1.091576
H511	H	0.828888	-0.897290	0.453983
H512	H	1.162222	-0.563957	0.787316
H513	H	1.495555	-0.230623	1.120649
H514	H	0.816315	-1.052229	0.376481
H515	H	1.149648	-0.718896	0.709815
H516	H	1.482982	-0.385563	1.043148
N517	N	0.856595	-0.806626	0.425078
N518	N	1.189928	-0.473293	0.758412
N519	N	1.523261	-0.139960	1.091745
N520	N	0.904838	-0.800473	0.420951
N521	N	1.238171	-0.467139	0.754284
N522	N	1.571504	-0.133806	1.087617
H523	H	0.928968	-0.820115	0.450026
H524	H	1.262301	-0.486782	0.783359
H525	H	1.595634	-0.153449	1.116692
N526	N	0.688080	-0.947717	0.221887
N527	N	1.021413	-0.614384	0.555221
N528	N	1.354746	-0.281050	0.888554
N529	N	0.658253	-0.972153	0.185918
N530	N	0.991587	-0.638819	0.519252
N531	N	1.324920	-0.305486	0.852585
H532	H	0.634130	-0.952506	0.156839
H533	H	0.967463	-0.619173	0.490172
H534	H	1.300797	-0.285840	0.823506
H535	H	0.661502	-0.702225	0.189909
H536	H	0.994835	-0.368892	0.523242
H537	H	1.328169	-0.035558	0.856575
