data_functionalizedCrystal
_audit_creation_method	'MofGen! by Chris Wilmer'
_symmetry_space_group_name_H-M	'P1'
_symmetry_Int_Tables_number	1
_symmetry_cell_setting	triclinic
loop_
_symmetry_equiv_pos_as_xyz
  x,y,z
_cell_length_a	6.817900
_cell_length_b	15.301126
_cell_length_c	10.773894
_cell_angle_alpha	96.210204
_cell_angle_beta	96.645922
_cell_angle_gamma	104.177575
loop_
_atom_site_label
_atom_site_type_symbol
_atom_site_fract_x
_atom_site_fract_y
_atom_site_fract_z
V1	V	-3.952252	-0.121442	-0.389313
O2	O	-3.937687	0.009245	-0.381512
O3	O	-3.907641	-0.244078	-0.387026
O4	O	-3.869821	-0.118078	-0.558935
O5	O	-3.975769	-0.117627	-0.208413
V6	V	-4.439799	-0.105987	-0.367630
O7	O	-4.204684	-0.155344	-0.436876
O8	O	-4.637564	-0.072085	-0.320068
O9	O	-4.261203	0.016649	-0.369918
O10	O	-4.571760	-0.236675	-0.375432
O11	O	-4.533678	-0.109802	-0.548531
O12	O	-4.299023	-0.109351	-0.198009
C13	C	-3.754665	-0.274021	-0.380981
C14	C	-3.799251	-0.374269	-0.380241
C15	C	-4.001183	-0.425904	-0.386130
C16	C	-4.043065	-0.520098	-0.385442
C17	C	-3.883011	-0.562653	-0.378857
C18	C	-3.681062	-0.511010	-0.372972
C19	C	-3.639184	-0.416820	-0.373669
C20	C	-3.768361	-0.707333	-0.371517
C21	C	-3.810240	-0.801530	-0.370818
C22	C	-4.172242	-0.810612	-0.383291
C23	C	-4.130364	-0.716421	-0.383988
C24	C	-3.928417	-0.664785	-0.378100
C25	C	-3.706421	-0.113294	-0.600267
C26	C	-3.720333	-0.111355	-0.738936
C27	C	-3.898512	-0.114716	-0.806808
C28	C	-3.912895	-0.112712	-0.950130
C29	C	-4.077522	0.046587	-0.375959
C30	C	-4.012173	0.146834	-0.376707
C31	C	-4.125767	-0.114138	-0.156670
C32	C	-4.091093	-0.116073	-0.018000
H33	H	-4.260697	-0.681775	-0.389343
Br34	Br	-3.676355	-0.105432	-1.030107
H35	H	-4.233007	-0.120437	-0.970011
H36	H	-4.131522	-0.391262	-0.391480
Br37	Br	-4.317126	-0.590173	-0.393436
Br38	Br	-4.446314	-0.880689	-0.391288
Br39	Br	-3.483806	-0.104076	-0.818918
Br40	Br	-3.593026	-0.859287	-0.361911
Br41	Br	-3.494289	-0.637257	-0.363537
H42	H	-3.474753	-0.374779	-0.368879
Br43	Br	-3.463842	-0.568763	-0.364047
Br44	Br	-4.135034	-0.121986	-0.726824
