data_functionalizedCrystal
_audit_creation_method	'MofGen! by Chris Wilmer'
_symmetry_space_group_name_H-M	'P1'
_symmetry_Int_Tables_number	1
_symmetry_cell_setting	triclinic
loop_
_symmetry_equiv_pos_as_xyz
  x,y,z
_cell_length_a	23.532407
_cell_length_b	10.540539
_cell_length_c	9.616153
_cell_angle_alpha	89.995174
_cell_angle_beta	90.006923
_cell_angle_gamma	96.312915
loop_
_atom_site_label
_atom_site_type_symbol
_atom_site_fract_x
_atom_site_fract_y
_atom_site_fract_z
O1	O	0.080251	-1.683259	0.115596
O2	O	0.087813	-1.313597	0.115615
O3	O	0.001174	-1.509575	0.115579
O4	O	0.166890	-1.487281	0.115631
O5	O	0.001176	-1.509548	-0.115712
O6	O	0.087814	-1.313571	-0.115677
O7	O	0.080253	-1.683232	-0.115695
Zn8	Zn	0.084034	-1.498397	-0.152408
Zn9	Zn	0.084032	-1.498432	0.152328
O10	O	0.166892	-1.487254	-0.115660
C11	C	-0.020045	-1.508994	-0.000070
C12	C	-0.083273	-1.507287	-0.000080
C13	C	0.087246	-1.266300	-0.000029
C14	C	0.085550	-1.125407	-0.000023
C15	C	0.080819	-1.730530	-0.000049
C16	C	0.082516	-1.871422	-0.000045
C17	C	-0.481681	-1.612557	-0.000010
C18	C	-0.541092	-1.610971	0.000001
O19	O	-0.577192	-1.708557	0.000048
N20	N	-0.564488	-1.494462	0.000006
C21	C	-0.528469	-1.379532	0.000014
O22	O	-0.553824	-1.280287	0.000021
C23	C	-0.469060	-1.381119	0.000014
C24	C	-0.445667	-1.497635	-0.000005
C25	C	-0.458288	-1.729064	-0.000027
C26	C	-0.398882	-1.730649	-0.000040
C27	C	-0.362868	-1.615727	-0.000036
C28	C	-0.386261	-1.499220	-0.000019
C29	C	-0.433042	-1.266190	0.000032
C30	C	-0.373629	-1.267787	0.000032
C31	C	-0.350237	-1.384303	0.000013
C32	C	-0.290840	-1.385883	-0.000028
N33	N	-0.267444	-1.502392	-0.000032
C34	C	-0.303458	-1.617314	-0.000037
C35	C	-0.653234	-1.376208	0.000018
C36	C	-0.712642	-1.374620	0.000009
C37	C	-0.725261	-1.606059	-0.000002
C38	C	-0.665851	-1.607646	-0.000002
C39	C	-0.629838	-1.492717	0.000013
C40	C	-0.178700	-1.620634	-0.000066
C41	C	-0.119287	-1.622209	-0.000085
C42	C	-0.106674	-1.390770	-0.000067
C43	C	-0.166081	-1.389194	-0.000055
C44	C	-0.202093	-1.504137	-0.000050
O45	O	-0.254705	-1.288349	-0.000068
O46	O	-0.278095	-1.716543	-0.000025
C47	C	0.188111	-1.487835	-0.000008
C48	C	0.251339	-1.489542	0.000012
N49	N	0.084035	-1.498382	-0.360383
C50	C	0.020541	-0.944114	-0.000583
C51	C	0.022261	-1.090676	-0.000047
C52	C	0.116006	-1.062750	0.132060
C53	C	0.113846	-0.916277	0.132156
C54	C	0.115136	-0.915716	-0.130865
C55	C	0.115719	-1.062678	-0.132597
C56	C	0.130226	-1.393237	-0.580734
C57	C	0.130399	-1.393459	-0.419567
C58	C	0.097553	-1.630662	-0.418834
C59	C	0.097880	-1.630087	-0.580052
C60	C	0.024176	-1.472575	-0.580312
C61	C	0.024564	-1.469515	-0.419085
N62	N	0.084026	-1.498457	0.360302
H63	H	-0.100245	-1.717094	-0.000104
H64	H	-0.001874	-1.133224	0.094785
N65	N	0.154736	-1.661780	-0.365321
H66	H	0.171964	-1.590385	-0.303231
H67	H	0.181133	-1.671844	-0.446428
N68	N	-0.067825	-1.266823	-0.000100
H69	H	-0.026641	-1.285518	-0.000115
H70	H	-0.075440	-1.216008	0.085641
H71	H	0.160849	-0.866988	-0.131743
N72	N	0.176841	-1.092747	-0.143142
H73	H	0.195102	-1.051223	-0.229223
H74	H	0.177523	-1.188236	-0.148967
H75	H	0.122265	-1.295109	-0.380050
H76	H	0.122217	-1.294574	-0.619543
H77	H	-0.208014	-1.714231	-0.000056
H78	H	0.065586	-1.710789	-0.619054
H79	H	0.174378	-1.409455	-0.621220
H80	H	-0.185128	-1.294317	-0.000078
H81	H	0.091335	-0.888817	0.230875
H82	H	0.064822	-1.710791	-0.380495
N83	N	0.189246	-1.415171	-0.368594
H84	H	0.186643	-1.495406	-0.310456
H85	H	0.205389	-1.339941	-0.310402
H86	H	-0.379842	-1.825528	-0.000050
H87	H	0.094655	-0.884830	-0.230983
N88	N	-0.497127	-1.853025	-0.000033
H89	H	-0.473283	-1.927061	-0.000045
H90	H	-0.522052	-1.857400	-0.085780
N91	N	-0.009494	-1.148161	-0.125445
H92	H	-0.008438	-1.243694	-0.125330
H93	H	0.009226	-1.110646	-0.212939
H94	H	0.141545	-1.653008	-0.617628
H95	H	-0.344309	-1.174194	0.000047
N96	N	-0.012578	-0.907333	-0.126062
H97	H	0.012267	-0.843187	-0.183778
H98	H	-0.047750	-0.868455	-0.094459
N99	N	0.086249	-1.117876	-0.262038
H100	H	0.114430	-1.160032	-0.320672
H101	H	0.071082	-1.047276	-0.317121
H102	H	-0.004357	-0.914735	0.093599
H103	H	-0.646810	-1.702524	-0.000017
N104	N	0.177569	-1.090348	0.138616
H105	H	0.186329	-1.143860	0.055829
H106	H	0.184074	-1.138255	0.227143
N107	N	0.007139	-1.347625	-0.634225
H108	H	0.038049	-1.306529	-0.697702
H109	H	0.001857	-1.288891	-0.553387
H110	H	-0.754594	-1.699635	0.000000
N111	N	-0.614388	-1.252247	0.000012
H112	H	-0.621964	-1.201385	0.085750
H113	H	-0.621993	-1.201480	-0.085786
H114	H	0.159363	-0.866815	0.138165
N115	N	-0.737869	-1.248950	-0.000008
H116	H	-0.706035	-1.176395	-0.000013
H117	H	-0.762238	-1.243245	0.085735
H118	H	-0.452077	-1.171310	0.000056
H119	H	0.014318	-1.372213	-0.380883
N120	N	0.087984	-1.120088	0.262259
H121	H	0.055567	-1.186635	0.235985
H122	H	0.072586	-1.050743	0.318844
N123	N	-0.023167	-1.564507	-0.365753
H124	H	-0.006843	-1.627885	-0.302503
H125	H	-0.043139	-1.611126	-0.446873
N126	N	-0.021377	-1.574219	-0.630812
H127	H	-0.003365	-1.636739	-0.691859
H128	H	-0.050950	-1.533048	-0.685944
