data_functionalizedCrystal
_audit_creation_method	'MofGen! by Chris Wilmer'
_symmetry_space_group_name_H-M	'P1'
_symmetry_Int_Tables_number	1
_symmetry_cell_setting	triclinic
loop_
_symmetry_equiv_pos_as_xyz
  x,y,z
_cell_length_a	15.944551
_cell_length_b	15.944551
_cell_length_c	15.021413
_cell_angle_alpha	89.996935
_cell_angle_beta	89.997174
_cell_angle_gamma	96.501262
loop_
_atom_site_label
_atom_site_type_symbol
_atom_site_fract_x
_atom_site_fract_y
_atom_site_fract_z
O1	O	1.114529	-0.108321	-0.073941
O2	O	0.869979	-0.121677	-0.073964
O3	O	0.998932	0.007276	-0.073944
O4	O	0.985576	-0.237274	-0.073961
O5	O	0.998912	0.007257	0.074121
O6	O	0.869959	-0.121695	0.074101
O7	O	1.114508	-0.108339	0.074123
Zn8	Zn	0.992230	-0.115020	0.097620
Zn9	Zn	0.992257	-0.114996	-0.097461
O10	O	0.985555	-0.237292	0.074103
C11	C	0.838675	-0.121132	0.000066
C12	C	0.745429	-0.119470	0.000057
C13	C	0.530572	-0.035565	0.000081
C14	C	0.469562	-0.074518	-0.072926
C15	C	0.574703	-0.116462	0.000068
C16	C	0.469564	-0.074556	0.073054
C17	C	0.409790	-0.113551	0.000083
C18	C	0.514921	-0.155438	-0.072998
C19	C	0.514930	-0.155464	0.073047
C20	C	0.453937	-0.194476	0.000023
C21	C	0.669705	-0.118137	0.000059
C22	C	0.314789	-0.111883	0.000085
C23	C	0.998367	0.038561	0.000089
C24	C	0.996705	0.131807	0.000089
C25	C	1.145813	-0.108885	0.000092
C26	C	1.239059	-0.110547	0.000094
C27	C	0.986120	-0.268577	0.000069
C28	C	0.987782	-0.361823	0.000063
N29	N	0.992218	-0.115036	0.230758
C30	C	0.912801	0.346663	0.000069
C31	C	0.951753	0.407672	0.073077
C32	C	0.993698	0.302533	0.000082
C33	C	0.951792	0.407673	-0.072903
C34	C	0.990787	0.467445	0.000071
C35	C	1.032672	0.362313	0.073150
C36	C	1.032700	0.362308	-0.072895
C37	C	1.071711	0.423298	0.000131
C38	C	0.995372	0.207530	0.000089
C39	C	0.989119	0.562446	0.000070
N40	N	0.992276	-0.114973	-0.230598
C41	C	0.932581	-0.174636	0.470432
C42	C	1.008481	-0.190943	0.529772
C43	C	0.992239	-0.115015	0.412365
C44	C	0.916360	-0.098727	0.529766
C45	C	0.992253	-0.114997	0.587789
C46	C	1.068178	-0.131360	0.470398
C47	C	0.976006	-0.039111	0.470387
C48	C	1.051962	-0.055386	0.529701
C49	C	0.992230	-0.115028	0.311307
C50	C	0.992271	-0.114984	0.688844
H51	H	0.535052	-0.189659	0.134767
C52	C	0.829666	-0.080113	0.564995
C53	C	0.777552	-0.144788	0.624974
C54	C	0.690857	-0.126180	0.660199
C55	C	0.656277	-0.042897	0.635446
C56	C	0.708392	0.021784	0.575464
C57	C	0.795086	0.003176	0.540238
H58	H	0.803150	-0.206444	0.643301
H59	H	0.652279	-0.174061	0.704602
H60	H	0.592100	-0.029122	0.661522
H61	H	0.682794	0.083440	0.557137
H62	H	0.833665	0.051057	0.495836
H63	H	0.534918	-0.189621	-0.134787
C64	C	1.154894	-0.150072	0.435324
C65	C	1.189021	-0.233715	0.459544
C66	C	1.275733	-0.252431	0.424467
C67	C	1.328318	-0.187504	0.365170
C68	C	1.294193	-0.103854	0.340947
C69	C	1.207481	-0.085138	0.376024
H70	H	1.150093	-0.281784	0.503442
H71	H	1.300994	-0.314354	0.442398
H72	H	1.392508	-0.201358	0.339204
H73	H	1.333120	-0.055786	0.297049
H74	H	1.182219	-0.023215	0.358092
C75	C	1.120195	0.012742	0.564646
C76	C	1.213597	0.008528	0.540983
C77	C	1.281832	0.076651	0.575930
C78	C	1.256664	0.148990	0.634540
C79	C	1.163256	0.153208	0.658206
C80	C	1.095022	0.085084	0.623259
H81	H	1.232233	-0.045025	0.497594
H82	H	1.350978	0.073529	0.558411
H83	H	1.307175	0.199420	0.660410
H84	H	1.144621	0.206760	0.701595
H85	H	1.025875	0.088207	0.640778
H86	H	1.022224	-0.255126	0.555856
H87	H	0.962240	0.025051	0.444283
H88	H	1.066896	0.342185	-0.134615
H89	H	0.449470	-0.040332	0.134773
C90	C	1.162501	0.468099	0.000188
C91	C	1.222673	0.453671	0.077478
C92	C	1.313462	0.498472	0.077538
C93	C	1.344078	0.557700	0.000309
C94	C	1.283905	0.572131	-0.076986
C95	C	1.193117	0.527331	-0.077047
H96	H	1.200010	0.409824	0.134652
H97	H	1.358006	0.487788	0.134758
H98	H	1.411286	0.590864	0.000354
H99	H	1.306568	0.615978	-0.134161
H100	H	1.148573	0.538014	-0.134266
C101	C	0.822092	0.301659	0.000154
C102	C	0.761899	0.315893	0.077490
C103	C	0.671194	0.270888	0.077579
C104	C	0.640680	0.211649	0.000333
C105	C	0.700873	0.197413	-0.077009
C106	C	0.791579	0.242418	-0.077099
H107	H	0.784486	0.359748	0.134677
H108	H	0.626635	0.281427	0.134833
H109	H	0.573534	0.178333	0.000399
H110	H	0.678286	0.153558	-0.134197
H111	H	0.836138	0.231879	-0.134353
H112	H	0.449461	-0.040295	-0.134642
C113	C	0.905520	0.434834	0.156450
C114	C	0.868642	0.368061	0.224146
C115	C	0.822403	0.395219	0.307514
C116	C	0.813041	0.489149	0.323186
C117	C	0.849920	0.555928	0.255487
C118	C	0.896159	0.528770	0.172119
H119	H	0.875572	0.298523	0.212547
H120	H	0.795103	0.345784	0.357629
H121	H	0.778812	0.509253	0.384900
H122	H	0.842990	0.625466	0.267086
H123	H	0.923459	0.578204	0.122004
C124	C	1.078845	0.335305	0.156628
C125	C	1.114947	0.402107	0.224655
C126	C	1.161116	0.375098	0.308133
C127	C	1.171185	0.281285	0.323583
C128	C	1.135082	0.214476	0.255554
C129	C	1.088913	0.241486	0.172077
H130	H	1.107495	0.471558	0.213220
H131	H	1.187842	0.424554	0.358492
H132	H	1.205362	0.261291	0.385378
H133	H	1.142535	0.145025	0.266990
H134	H	1.062187	0.192030	0.121717
C135	C	0.905567	0.434822	-0.156285
C136	C	0.812563	0.400612	-0.172310
C137	C	0.766331	0.427756	-0.255687
C138	C	0.813104	0.489110	-0.323040
C139	C	0.906114	0.523324	-0.307017
C140	C	0.952345	0.496179	-0.223640
H141	H	0.777934	0.355191	-0.122450
H142	H	0.697479	0.402429	-0.267548
H143	H	0.778881	0.509204	-0.384761
H144	H	0.940743	0.568745	-0.356877
H145	H	1.021198	0.521507	-0.211779
H146	H	0.563905	0.031573	-0.000005
C147	C	0.864496	-0.242799	0.435264
C148	C	0.851490	-0.254818	0.334290
C149	C	0.783410	-0.322982	0.299120
C150	C	0.728336	-0.379126	0.364924
C151	C	0.741340	-0.367109	0.465904
C152	C	0.809420	-0.298945	0.501074
H153	H	0.892261	-0.213255	0.285572
H154	H	0.773784	-0.331877	0.224367
H155	H	0.677939	-0.429585	0.338889
H156	H	0.700569	-0.408672	0.514622
H157	H	0.819046	-0.290050	0.575827
H158	H	0.420779	-0.261683	-0.000023
