data_functionalizedCrystal
_audit_creation_method	'MofGen! by Chris Wilmer'
_symmetry_space_group_name_H-M	'P1'
_symmetry_Int_Tables_number	1
_symmetry_cell_setting	triclinic
loop_
_symmetry_equiv_pos_as_xyz
  x,y,z
_cell_length_a	15.625110
_cell_length_b	15.625429
_cell_length_c	16.053802
_cell_angle_alpha	74.515382
_cell_angle_beta	105.475393
_cell_angle_gamma	89.778684
loop_
_atom_site_label
_atom_site_type_symbol
_atom_site_fract_x
_atom_site_fract_y
_atom_site_fract_z
O1	O	1.182732	0.131312	0.248958
O2	O	0.924708	0.140905	0.167922
O3	O	1.058515	0.007092	0.248952
O4	O	1.048924	0.265125	0.167928
O5	O	1.051150	0.014427	0.383360
O6	O	0.917342	0.148240	0.302330
O7	O	1.175366	0.138647	0.383366
Zn8	Zn	1.045185	0.144608	0.364188
Zn9	Zn	1.054889	0.134944	0.187100
O10	O	1.041559	0.272459	0.302336
C11	C	0.887965	0.143409	0.225467
C12	C	0.789457	0.139933	0.196690
C13	C	0.654627	0.131036	0.082869
C14	C	0.747190	0.134303	0.109918
C15	C	0.739169	0.142303	0.256446
C16	C	0.646603	0.139041	0.229408
C17	C	0.604339	0.133407	0.142619
C18	C	0.596315	0.141412	0.289157
C19	C	0.503757	0.138146	0.262122
C20	C	0.461487	0.132509	0.175338
C21	C	0.511782	0.130141	0.115584
C22	C	0.638580	0.147040	0.375948
C23	C	0.588292	0.149410	0.435697
C24	C	0.495732	0.146151	0.408660
C25	C	0.453463	0.140514	0.321876
C26	C	0.445438	0.148519	0.468414
C27	C	0.352881	0.145253	0.441380
C28	C	0.360905	0.137248	0.294841
C29	C	1.053669	-0.022301	0.325811
C30	C	1.050192	-0.120813	0.354577
C31	C	1.058806	-0.464797	0.082879
C32	C	1.055534	-0.557362	0.109933
C33	C	1.047505	-0.549353	0.256456
C34	C	1.050781	-0.456786	0.229415
C35	C	1.056430	-0.414515	0.142626
C36	C	1.048405	-0.406504	0.289162
C37	C	1.051676	-0.313944	0.262122
C38	C	1.057323	-0.271666	0.175335
C39	C	1.059701	-0.321955	0.115586
C40	C	1.042749	-0.448775	0.375949
C41	C	1.040373	-0.398493	0.435695
C42	C	1.043650	-0.305933	0.408658
C43	C	1.049297	-0.263655	0.321871
C44	C	1.041272	-0.255644	0.468407
C45	C	1.044543	-0.163084	0.441367
C46	C	1.052568	-0.171095	0.294831
C47	C	1.212109	0.136142	0.325819
C48	C	1.310617	0.139618	0.354591
C49	C	1.046405	0.301853	0.225475
C50	C	1.049882	0.400365	0.196704
N51	N	1.038568	0.151202	0.485048
N52	N	1.061513	0.128343	0.066244
C53	C	1.095525	0.094286	0.563221
C54	C	1.090905	0.098907	0.647829
C55	C	1.029332	0.160451	0.654263
C56	C	0.972369	0.217370	0.576082
C57	C	0.976985	0.212743	0.491476
C58	C	1.009166	0.180635	0.903456
C59	C	1.004556	0.185259	0.988071
C60	C	1.123091	0.066795	1.059813
C61	C	1.127706	0.062178	0.975201
C62	C	1.070740	0.119094	0.897028
N63	N	1.024610	0.165178	0.740746
N64	N	1.075458	0.114361	0.810547
H65	H	0.713947	0.149700	0.397956
H66	H	0.477368	0.125564	0.044908
O67	O	1.187201	0.002004	0.969072
C68	C	1.141065	-0.056227	0.922473
H69	H	1.073152	-0.022530	0.878443
H70	H	1.181060	-0.073401	0.878386
H71	H	1.131677	-0.119835	0.972905
H72	H	1.145668	0.044175	0.557992
H73	H	0.311933	0.147200	0.490028
O74	O	1.035661	-0.296798	0.552646
C75	C	0.956911	-0.341370	0.546837
H76	H	0.934365	-0.355807	0.478661
H77	H	0.970136	-0.406723	0.602666
H78	H	0.902553	-0.297625	0.554487
O79	O	1.039525	-0.538676	0.402350
C80	C	1.034045	-0.565205	0.491767
H81	H	1.005650	-0.506414	0.508226
H82	H	0.988672	-0.622007	0.499828
H83	H	1.103379	-0.588646	0.539552
H84	H	1.169469	0.020456	1.123468
O85	O	1.041863	-0.590362	0.340716
C86	C	0.963633	-0.556588	0.352868
H87	H	0.913334	-0.527402	0.284515
H88	H	0.933951	-0.612722	0.395216
H89	H	0.980353	-0.502334	0.388698
H90	H	1.035770	-0.432922	0.506359
H91	H	1.063415	-0.430379	0.012209
O92	O	1.146268	0.043752	0.723833
C93	C	1.199161	0.094936	0.774880
H94	H	1.164346	0.164406	0.756396
H95	H	1.209300	0.061419	0.849565
H96	H	1.266606	0.100373	0.759961
H97	H	0.479864	0.153098	0.539081
O98	O	0.953758	0.235804	0.827498
C99	C	0.900882	0.184638	0.776416
H100	H	0.896756	0.116043	0.822281
H101	H	0.831065	0.219514	0.743732
H102	H	0.932064	0.176982	0.721929
O103	O	1.057696	-0.606113	0.051774
C104	C	0.984299	-0.577233	-0.025202
H105	H	0.960029	-0.505976	-0.032616
H106	H	1.005269	-0.579716	-0.087358
H107	H	0.928249	-0.622653	-0.017878
H108	H	1.042589	-0.122141	0.490012
H109	H	0.954413	0.235379	0.993300
H110	H	0.930604	0.259089	0.427825
O111	O	0.319925	0.131904	0.210468
C112	C	0.336259	0.206892	0.146675
H113	H	0.399426	0.235935	0.178523
H114	H	0.345040	0.186124	0.086372
H115	H	0.277521	0.259252	0.123545
O116	O	0.371589	0.129290	0.148940
C117	C	0.345070	0.123832	0.059520
H118	H	0.403863	0.095445	0.043055
H119	H	0.288269	0.078461	0.051458
H120	H	0.321635	0.193175	0.011741
H121	H	0.922230	0.267476	0.581325
H122	H	0.620213	0.126459	0.012194
H123	H	0.788131	0.132378	0.061254
H124	H	1.059976	-0.196297	0.153317
H125	H	0.622716	0.153995	0.506362
H126	H	0.773593	0.146887	0.327111
O127	O	1.058254	-0.130025	0.210594
C128	C	1.136994	-0.085433	0.216440
H129	H	1.187236	-0.117135	0.284243
H130	H	1.166335	-0.090877	0.160038
H131	H	1.121085	-0.012232	0.209764
O132	O	1.065049	-0.280893	0.031224
C133	C	0.990112	-0.297237	-0.032602
H134	H	0.933309	-0.314269	-0.000376
H135	H	0.968385	-0.235244	-0.092270
H136	H	1.008045	-0.355410	-0.056771
