data_functionalizedCrystal
_audit_creation_method	'MofGen! by Chris Wilmer'
_symmetry_space_group_name_H-M	'P1'
_symmetry_Int_Tables_number	1
_symmetry_cell_setting	triclinic
loop_
_symmetry_equiv_pos_as_xyz
  x,y,z
_cell_length_a	19.377372
_cell_length_b	14.809374
_cell_length_c	19.376995
_cell_angle_alpha	66.031493
_cell_angle_beta	86.407462
_cell_angle_gamma	66.029554
loop_
_atom_site_label
_atom_site_type_symbol
_atom_site_fract_x
_atom_site_fract_y
_atom_site_fract_z
Zr1	Zr	0.490423	1.299269	-0.289806
O2	O	0.396155	1.420713	-0.384079
O3	O	0.532156	1.119353	-0.248072
O4	O	0.538511	1.270027	-0.390428
O5	O	0.370185	1.313495	-0.144030
O6	O	0.636205	1.313474	-0.410037
O7	O	0.389799	1.270039	-0.241722
O8	O	0.624836	1.043946	-0.155387
O9	O	0.381555	1.583023	-0.398679
O10	O	0.607355	1.247435	-0.260413
O11	O	0.519810	1.247442	-0.172873
O12	O	0.527293	1.424841	-0.340479
O13	O	0.439749	1.424848	-0.252938
Zr14	Zr	0.614951	1.437869	-0.165272
Zr15	Zr	0.646233	1.368562	-0.321080
Zr16	Zr	0.459142	1.368576	-0.133998
Zr17	Zr	0.467138	1.558135	-0.313092
Zr18	Zr	0.638237	1.179003	-0.141986
O19	O	0.573219	1.617784	-0.207007
O20	O	0.617696	1.519239	-0.428546
O21	O	0.351677	1.519259	-0.162539
O22	O	0.709219	1.316425	-0.071000
O23	O	0.753697	1.217879	-0.292539
O24	O	0.487678	1.217899	-0.026532
O25	O	0.735189	1.423643	-0.311048
O26	O	0.566863	1.467110	-0.064651
O27	O	0.469169	1.423663	-0.045042
O28	O	0.715575	1.467099	-0.213356
O29	O	0.505403	1.638102	-0.423538
O30	O	0.599971	1.099036	-0.031541
O31	O	0.723819	1.154114	-0.056399
O32	O	0.748684	1.099024	-0.180246
O33	O	0.356691	1.638113	-0.274832
O34	O	0.480539	1.693192	-0.299691
O35	O	0.578081	1.312296	-0.114600
O36	O	0.665626	1.312290	-0.202140
O37	O	0.585564	1.489696	-0.282206
O38	O	0.498019	1.489703	-0.194665
C39	C	0.581813	1.044767	-0.198412
C40	C	0.591698	0.934871	-0.188526
C41	C	0.547582	0.925356	-0.232644
C42	C	0.557798	0.811774	-0.222428
C43	C	0.357793	1.281894	-0.188420
C44	C	0.291647	1.252477	-0.175144
C45	C	-0.134848	1.618737	-0.340445
C46	C	-0.196990	1.591072	-0.327958
C47	C	-0.113403	1.405873	-0.244376
C48	C	-0.051252	1.433525	-0.256853
C49	C	-0.061981	1.539958	-0.304889
C50	C	0.021615	1.354745	-0.221297
C51	C	0.083760	1.382394	-0.233777
C52	C	0.073039	1.488821	-0.281812
C53	C	0.000165	1.567606	-0.317369
C54	C	0.032343	1.248311	-0.173266
C55	C	0.105210	1.169531	-0.137710
C56	C	0.167356	1.197181	-0.150185
C57	C	0.156635	1.303608	-0.198220
C58	C	0.240231	1.118396	-0.114628
C59	C	0.302376	1.146044	-0.127108
C60	C	0.218781	1.331256	-0.210700
C61	C	0.747582	1.455244	-0.266658
C62	C	0.813727	1.484660	-0.279935
C63	C	0.591815	1.281876	-0.422432
C64	C	0.605095	1.252453	-0.488576
C65	C	0.523561	1.692371	-0.256667
C66	C	0.513676	1.802267	-0.266552
C67	C	0.665600	1.118385	-0.540015
C68	C	0.653117	1.146043	-0.477867
C69	C	0.569533	1.331247	-0.561444
C70	C	0.582006	1.303603	-0.623600
C71	C	0.630041	1.197171	-0.612879
C72	C	0.546447	1.382388	-0.696464
C73	C	0.558922	1.354748	-0.758615
C74	C	0.606957	1.248322	-0.747902
C75	C	0.642516	1.169530	-0.675030
C76	C	0.498417	1.488822	-0.707184
C77	C	0.462858	1.567607	-0.780048
C78	C	0.475329	1.539966	-0.842200
C79	C	0.523363	1.433539	-0.831487
C80	C	0.439770	1.618757	-0.915072
C81	C	0.452245	1.591116	-0.977223
C82	C	0.535838	1.405899	-0.893638
C83	C	0.513559	1.455262	-0.032647
C84	C	0.500279	1.484684	0.033498
C85	C	0.776708	1.131441	-0.237531
C86	C	0.852738	1.050963	-0.240922
C87	C	0.542685	1.131459	-0.003519
C88	C	0.539291	1.050987	0.072511
C89	C	0.737580	1.218134	-0.042638
C90	C	0.800331	1.167078	0.020115
C91	C	0.367794	1.519003	-0.412440
C92	C	0.305044	1.570060	-0.475194
C93	C	0.328667	1.605696	-0.217548
C94	C	0.252636	1.686175	-0.214157
C95	C	0.562689	1.605678	-0.451559
C96	C	0.566083	1.686151	-0.527589
C97	C	0.858028	0.979312	-0.272938
C98	C	0.929462	0.903699	-0.276139
C99	C	0.995606	0.899733	-0.247318
C100	C	0.990314	0.971393	-0.215301
C101	C	0.918880	1.047010	-0.212105
C102	C	0.568112	1.047052	0.138640
C103	C	0.564917	0.971455	0.210084
C104	C	0.532906	0.899789	0.215396
C105	C	0.504080	0.903728	0.149260
C106	C	0.507271	0.979329	0.077818
C107	C	0.875503	1.143101	0.003889
C108	C	0.934470	1.095143	0.062844
C109	C	0.918263	1.071155	0.138026
C110	C	0.843083	1.095139	0.154252
C111	C	0.784117	1.143103	0.095297
C112	C	0.229870	1.594049	-0.458968
C113	C	0.170900	1.642039	-0.517926
C114	C	0.187106	1.666032	-0.593109
C115	C	0.262287	1.642042	-0.609334
C116	C	0.321255	1.594060	-0.550377
C117	C	0.247347	1.757833	-0.182147
C118	C	0.175913	1.833467	-0.178966
C119	C	0.109770	1.837436	-0.207790
C120	C	0.115062	1.765773	-0.239804
C121	C	0.186494	1.690145	-0.242990
C122	C	0.598100	1.757799	-0.532877
C123	C	0.601304	1.833407	-0.604311
C124	C	0.572486	1.837371	-0.670456
C125	C	0.540468	1.765713	-0.665166
C126	C	0.537270	1.690102	-0.593733
H127	H	0.210038	1.417935	-0.249794
H128	H	0.995681	1.075619	0.049619
O129	O	0.611983	0.721217	-0.168417
C130	C	0.684218	0.721098	-0.182999
H131	H	0.682154	0.773838	-0.245760
H132	H	0.700897	0.755023	-0.146684
C133	C	0.745919	0.539121	-0.086120
C134	C	0.743385	0.603890	-0.163205
H135	H	0.782417	0.466822	-0.073907
H136	H	0.697253	0.539202	-0.076293
H137	H	0.759816	0.567405	-0.055866
H138	H	0.729479	0.575614	-0.193457
H139	H	0.792050	0.603802	-0.173036
O140	O	0.827260	1.071756	0.227266
C141	C	0.792720	0.998489	0.248318
H142	H	0.765442	1.004994	0.195068
H143	H	0.837597	0.912002	0.280512
C144	C	0.764716	1.018514	0.365161
C145	C	0.731208	1.026509	0.299758
H146	H	0.726775	1.035793	0.396895
H147	H	0.787989	1.067872	0.350980
H148	H	0.802113	0.946439	0.391980
H149	H	0.693819	1.098585	0.272936
H150	H	0.707927	0.977164	0.313936
O151	O	0.975493	1.024431	0.195370
C152	C	0.977792	0.923429	0.247772
H153	H	0.919681	0.922739	0.243039
H154	H	1.022491	0.855430	0.234691
C155	C	1.069797	0.906733	0.334892
C156	C	0.998421	0.905889	0.329083
H157	H	1.082525	0.895910	0.385048
H158	H	1.068250	0.974778	0.299587
H159	H	1.107037	0.850067	0.323987
H160	H	0.961181	0.962562	0.339978
H161	H	0.999962	0.837853	0.364392
O162	O	0.097829	1.665444	-0.502291
C163	C	0.049251	1.712921	-0.570441
H164	H	0.077665	1.750546	-0.620567
H165	H	0.037428	1.647843	-0.577935
C166	C	-0.061125	1.755656	-0.505485
C167	C	-0.026229	1.801876	-0.567049
H168	H	-0.107686	1.810525	-0.503392
H169	H	-0.028397	1.723666	-0.459570
H170	H	-0.070970	1.701425	-0.511737
H171	H	-0.016375	1.856096	-0.560791
H172	H	-0.058956	1.833877	-0.612963
O173	O	0.711050	1.166496	0.110930
C174	C	0.662472	1.213946	0.042784
H175	H	0.690882	1.251570	-0.007347
H176	H	0.650660	1.148851	0.035303
C177	C	0.552096	1.256680	0.107739
C178	C	0.586986	1.302897	0.046167
H179	H	0.505530	1.311545	0.109826
H180	H	0.584823	1.224708	0.153651
H181	H	0.542259	1.202434	0.101498
H182	H	0.596830	1.357131	0.052414
H183	H	0.554259	1.334880	0.000256
H184	H	0.617117	1.225821	-0.798512
H185	H	0.301196	1.754612	-0.158670
O186	O	0.213980	1.570876	-0.385987
C187	C	0.134981	1.602333	-0.384322
H188	H	0.103563	1.667578	-0.442548
H189	H	0.121728	1.528744	-0.369455
C190	C	0.147621	1.567832	-0.252421
C191	C	0.109032	1.647974	-0.323933
H192	H	0.131614	1.595981	-0.215168
H193	H	0.200844	1.546635	-0.253541
H194	H	0.136573	1.506515	-0.240043
H195	H	0.120089	1.709284	-0.336315
H196	H	0.055810	1.669183	-0.322814
H197	H	0.139084	1.705102	-0.641108
H198	H	0.171619	1.891808	-0.152894
H199	H	0.888713	1.162624	-0.057324
H200	H	0.400666	1.705416	-0.923791
O201	O	0.493406	1.015867	-0.286689
C202	C	0.421167	1.016013	-0.272082
H203	H	0.427901	0.929243	-0.236395
H204	H	0.392660	1.068321	-0.239786
C205	C	0.363400	1.169296	-0.391790
C206	C	0.371670	1.062722	-0.347964
H207	H	0.332865	1.198113	-0.438597
H208	H	0.412067	1.169201	-0.401630
H209	H	0.339646	1.212873	-0.364868
H210	H	0.395432	1.019145	-0.374881
H211	H	0.323005	1.062811	-0.338129
H212	H	0.627374	1.891747	-0.608604
H213	H	0.933756	0.845358	-0.302210
H214	H	0.575095	1.898944	-0.728617
H215	H	0.517006	1.768953	-0.719031
H216	H	0.190791	1.631799	-0.269052
O217	O	0.506103	1.620625	-0.588736
C218	C	0.481371	1.640332	-0.662439
H219	H	0.471093	1.726896	-0.703476
H220	H	0.526802	1.580328	-0.681818
C221	C	0.419495	1.519663	-0.610933
C222	C	0.406864	1.625986	-0.661335
H223	H	0.373537	1.510808	-0.610253
H224	H	0.436159	1.506381	-0.561278
H225	H	0.457356	1.469671	-0.627089
H226	H	0.369011	1.675974	-0.645173
H227	H	0.390192	1.639275	-0.710988
O228	O	0.712147	1.014962	-0.529620
C229	C	0.670733	0.970702	-0.552827
H230	H	0.607515	1.015689	-0.550639
H231	H	0.680521	0.979778	-0.613479
C232	C	0.775313	0.794070	-0.501886
C233	C	0.697669	0.849318	-0.499193
H234	H	0.791930	0.719193	-0.468806
H235	H	0.803216	0.823888	-0.486254
H236	H	0.783460	0.801645	-0.552432
H237	H	0.689524	0.841753	-0.448650
H238	H	0.669765	0.819495	-0.514816
H239	H	-0.018262	1.225801	-0.163112
H240	H	0.483804	0.982518	0.023977
O241	O	1.054512	0.967526	-0.187180
C242	C	1.052951	0.944336	-0.109110
H243	H	0.991558	0.968897	-0.095851
H244	H	1.087084	0.853513	-0.073973
C245	C	1.163472	0.978350	-0.105493
C246	C	1.088068	1.008525	-0.089208
H247	H	1.185136	1.017940	-0.093214
H248	H	1.164526	0.993970	-0.158089
H249	H	1.191906	0.902664	-0.076210
H250	H	1.059633	1.084206	-0.118497
H251	H	1.087010	0.992919	-0.036616
H252	H	0.275474	1.661584	-0.670555
H253	H	0.061198	1.769017	-0.263271
H254	H	0.530313	0.838235	0.273574
H255	H	0.051609	1.899022	-0.205191
H256	H	0.478017	0.845367	0.153598
H257	H	0.681623	1.082859	-0.666297
H258	H	-0.143590	1.705415	-0.379540
O259	O	0.625970	1.754041	-0.468603
C260	C	0.567176	1.774528	-0.422827
H261	H	0.509791	1.821596	-0.459782
H262	H	0.569872	1.694065	-0.377450
C263	C	0.647309	1.784209	-0.338812
C264	C	0.576828	1.842027	-0.384202
H265	H	0.653263	1.825842	-0.314983
H266	H	0.686921	1.770403	-0.369650
H267	H	0.649547	1.717159	-0.301004
H268	H	0.574594	1.909069	-0.422014
H269	H	0.537216	1.855847	-0.353369
H270	H	0.637032	0.858929	-0.143193
H271	H	0.382464	1.574525	-0.563598
H272	H	0.594178	1.105400	0.134328
H273	H	0.468343	0.878207	-0.311893
O274	O	0.793831	0.982958	-0.300874
C275	C	0.790150	0.881679	-0.261375
H276	H	0.849792	0.815660	-0.235444
H277	H	0.752322	0.885359	-0.214206
C278	C	0.683407	0.936340	-0.348824
C279	C	0.756662	0.855254	-0.316981
H280	H	0.662748	0.920041	-0.383123
H281	H	0.685885	1.004576	-0.375434
H282	H	0.651894	0.939399	-0.309510
H283	H	0.788177	0.852206	-0.356293
H284	H	0.754189	0.787017	-0.290379
H285	H	-0.256323	1.655230	-0.356917
O286	O	-0.010361	1.671069	-0.363964
C287	C	-0.061220	1.743394	-0.335191
H288	H	-0.097885	1.704578	-0.297203
H289	H	-0.027633	1.762032	-0.300609
C290	C	-0.067587	1.897328	-0.448452
C291	C	-0.112623	1.849657	-0.401798
H292	H	-0.099292	1.962878	-0.489537
H293	H	-0.033320	1.848602	-0.467836
H294	H	-0.039600	1.912850	-0.419625
H295	H	-0.140602	1.834123	-0.430623
H296	H	-0.146896	1.898383	-0.382421
O297	O	0.522871	1.434568	-0.571715
C298	C	0.519500	1.442080	-0.501239
H299	H	0.535027	1.357953	-0.453080
H300	H	0.561345	1.475387	-0.495095
C301	C	0.419249	1.622264	-0.556757
C302	C	0.438313	1.518938	-0.497607
H303	H	0.369170	1.669678	-0.554517
H304	H	0.421521	1.617205	-0.604239
H305	H	0.454125	1.650005	-0.551631
H306	H	0.403443	1.491194	-0.502740
H307	H	0.436033	1.523995	-0.450126
H308	H	1.053767	0.838155	-0.249924
H309	H	-0.104677	1.319215	-0.205267
O310	O	0.115566	1.066209	-0.090950
C311	C	0.071834	1.067433	-0.030109
H312	H	0.059666	1.144218	-0.021851
H313	H	0.015828	1.066214	-0.043443
C314	C	0.131101	0.872381	0.033062
C315	C	0.116162	0.966686	0.043209
H316	H	0.158441	0.810234	0.078288
H317	H	0.160562	0.871556	-0.007929
H318	H	0.084424	0.871381	0.021948
H319	H	0.162837	0.967691	0.054313
H320	H	0.086709	0.967509	0.084204
H321	H	0.914583	1.105342	-0.186029
H322	H	0.123644	1.511329	-0.291973
H323	H	0.248956	1.031736	-0.075523
H324	H	0.361706	1.081899	-0.098142
O325	O	0.417618	1.667766	-1.047950
C326	C	0.372561	1.767638	-1.044089
H327	H	0.357224	1.751882	-0.983783
H328	H	0.405751	1.820120	-1.059837
C329	C	0.318064	1.846470	-1.174130
C330	C	0.299222	1.827119	-1.100062
H331	H	0.272826	1.883165	-1.208659
H332	H	0.348422	1.779187	-1.176733
H333	H	0.345724	1.890202	-1.187242
H334	H	0.271571	1.783377	-1.086948
H335	H	0.268857	1.894397	-1.097458
H336	H	0.574945	1.319228	-0.884905
O337	O	0.416102	1.670990	-0.790536
C338	C	0.342585	1.697812	-0.820859
H339	H	0.346480	1.643827	-0.850678
H340	H	0.305555	1.684598	-0.772894
C341	C	0.302254	1.884191	-0.841868
C342	C	0.307039	1.817892	-0.878498
H343	H	0.280325	1.958262	-0.877420
H344	H	0.351783	1.866120	-0.821436
H345	H	0.271397	1.873167	-0.801899
H346	H	0.337903	1.828906	-0.918460
H347	H	0.257514	1.835967	-0.898938
H348	H	0.588393	0.968262	0.263926
H349	H	0.682075	1.081878	-0.418535
H350	H	0.488262	1.511323	-0.656575
