data_functionalizedCrystal
_audit_creation_method	'MofGen! by Chris Wilmer'
_symmetry_space_group_name_H-M	'P1'
_symmetry_Int_Tables_number	1
_symmetry_cell_setting	triclinic
loop_
_symmetry_equiv_pos_as_xyz
  x,y,z
_cell_length_a	16.109301
_cell_length_b	10.489746
_cell_length_c	14.586319
_cell_angle_alpha	89.995899
_cell_angle_beta	89.998857
_cell_angle_gamma	84.001442
loop_
_atom_site_label
_atom_site_type_symbol
_atom_site_fract_x
_atom_site_fract_y
_atom_site_fract_z
O1	O	1.104143	0.163948	-0.076191
O2	O	0.862207	0.184351	-0.076204
O3	O	0.988678	-0.011528	-0.076190
O4	O	0.977672	0.359827	-0.076204
O5	O	0.988669	-0.011531	0.076291
O6	O	0.862198	0.184348	0.076277
O7	O	1.104134	0.163945	0.076290
Cu8	Cu	0.983166	0.174146	0.090206
Cu9	Cu	0.983176	0.174150	-0.090120
O10	O	0.977663	0.359824	0.076277
C11	C	0.831223	0.183523	0.000035
C12	C	0.738912	0.181045	0.000030
C13	C	0.430582	0.289175	0.000042
C14	C	0.517317	0.291515	0.000037
C15	C	0.535754	0.059112	0.000034
C16	C	0.449021	0.056773	0.000032
C17	C	0.396437	0.171808	0.000041
C18	C	0.569905	0.176487	0.000037
C19	C	0.663946	0.179024	0.000031
C20	C	0.302389	0.169272	0.000046
C21	C	0.987842	-0.059049	0.000050
C22	C	0.985352	-0.200642	0.000049
C23	C	0.903408	-0.352311	0.000034
C24	C	0.944381	-0.275512	-0.075143
C25	C	0.944392	-0.275556	0.075191
C26	C	1.021930	-0.376128	-0.075210
C27	C	1.021929	-0.376178	0.075192
C28	C	1.062959	-0.299428	-0.000004
C29	C	1.135119	0.164773	0.000049
C30	C	1.227429	0.167251	0.000048
C31	C	0.978500	0.407345	0.000034
C32	C	0.980990	0.548938	0.000029
N33	N	0.983164	0.174143	0.217038
N34	N	0.983184	0.174143	-0.216952
C35	C	1.039184	0.087437	0.452051
C36	C	1.039187	0.087434	0.548032
C37	C	0.927158	0.260853	0.548029
C38	C	0.927152	0.260849	0.452050
C39	C	0.983170	0.174142	0.404063
C40	C	0.983178	0.174143	0.596024
C41	C	0.983180	0.174141	0.700091
C42	C	0.983167	0.174143	0.299989
H43	H	0.835948	-0.376052	-0.000045
Cl44	Cl	0.560237	0.439068	0.000034
H45	H	0.881550	0.331449	0.587110
H46	H	1.084798	0.016829	0.587101
H47	H	0.911634	-0.231560	-0.138705
H48	H	0.578579	-0.034546	0.000028
Cl49	Cl	1.109604	-0.021570	0.391728
H50	H	0.881534	0.331455	0.412976
H51	H	0.421221	-0.038807	0.000029
H52	H	1.054663	-0.419883	-0.138839
H53	H	0.387770	0.382844	0.000049
H54	H	1.130470	-0.275933	-0.000041
H55	H	1.054647	-0.420152	0.138756
H56	H	0.911623	-0.231637	0.138748
