data_functionalizedCrystal
_audit_creation_method	'MofGen! by Chris Wilmer'
_symmetry_space_group_name_H-M	'P1'
_symmetry_Int_Tables_number	1
_symmetry_cell_setting	triclinic
loop_
_symmetry_equiv_pos_as_xyz
  x,y,z
_cell_length_a	18.215407
_cell_length_b	18.101395
_cell_length_c	18.215399
_cell_angle_alpha	89.971163
_cell_angle_beta	89.983176
_cell_angle_gamma	90.031552
loop_
_atom_site_label
_atom_site_type_symbol
_atom_site_fract_x
_atom_site_fract_y
_atom_site_fract_z
Zn1	Zn	1.125018	-0.294811	-0.416124
Zn2	Zn	1.458352	0.038523	-0.082790
Zn3	Zn	1.791685	0.371856	0.250543
Zn4	Zn	1.124920	-0.418662	-0.293061
Zn5	Zn	1.458253	-0.085329	0.040273
Zn6	Zn	1.791586	0.248004	0.373606
Zn7	Zn	1.001957	-0.294840	-0.293071
Zn8	Zn	1.335291	0.038493	0.040262
Zn9	Zn	1.668624	0.371826	0.373596
Zn10	Zn	1.001903	-0.418616	-0.416086
Zn11	Zn	1.335237	-0.085283	-0.082752
Zn12	Zn	1.668570	0.248051	0.250581
O13	O	1.063450	-0.356732	-0.354585
O14	O	1.396783	-0.023399	-0.021252
O15	O	1.730116	0.309934	0.312081
O16	O	1.227989	-0.311247	-0.399811
O17	O	1.561323	0.022086	-0.066477
O18	O	1.894656	0.355420	0.266856
O19	O	1.108590	-0.402269	-0.190078
O20	O	1.441923	-0.068936	0.143256
O21	O	1.775257	0.264398	0.476589
O22	O	1.018345	-0.191203	-0.309415
O23	O	1.351679	0.142130	0.023919
O24	O	1.685012	0.475463	0.357252
O25	O	1.227917	-0.402240	-0.309397
O26	O	1.561250	-0.068907	0.023937
O27	O	1.894584	0.264426	0.357270
O28	O	1.108758	-0.191182	-0.399821
O29	O	1.442091	0.142152	-0.066487
O30	O	1.775424	0.475485	0.266846
O31	O	1.018250	-0.311297	-0.190085
O32	O	1.351583	0.022036	0.143248
O33	O	1.684917	0.355369	0.476581
O34	O	0.898966	-0.311252	-0.309378
O35	O	1.232299	0.022081	0.023956
O36	O	1.565633	0.355414	0.357289
O37	O	1.018254	-0.402161	-0.519075
O38	O	1.351587	-0.068828	-0.185742
O39	O	1.684920	0.264505	0.147592
O40	O	0.898926	-0.402190	-0.399756
O41	O	1.232260	-0.068856	-0.066422
O42	O	1.565593	0.264477	0.266911
O43	O	1.108706	-0.311202	-0.519103
O44	O	1.442039	0.022131	-0.185770
O45	O	1.775372	0.355465	0.147564
O46	O	1.108538	-0.522289	-0.309360
O47	O	1.441871	-0.188956	0.023974
O48	O	1.775204	0.144378	0.357307
O49	O	1.018158	-0.522255	-0.399746
O50	O	1.351491	-0.188922	-0.066412
O51	O	1.684825	0.144412	0.266921
C52	C	0.872243	-0.356720	-0.354564
C53	C	1.205577	-0.023386	-0.021231
C54	C	1.538910	0.309947	0.312103
C55	C	0.790445	-0.356732	-0.354573
C56	C	1.123778	-0.023399	-0.021239
C57	C	1.457111	0.309935	0.312094
C58	C	0.602249	-0.404158	-0.401573
C59	C	0.935583	-0.070824	-0.068240
C60	C	1.268916	0.262509	0.265093
C61	C	0.525391	-0.404160	-0.401583
C62	C	0.858724	-0.070827	-0.068249
C63	C	1.192057	0.262507	0.265084
C64	C	0.525402	-0.309320	-0.307613
C65	C	0.858736	0.024013	0.025720
C66	C	1.192069	0.357346	0.359054
C67	C	0.602260	-0.309315	-0.307608
C68	C	0.935593	0.024018	0.025725
C69	C	1.268926	0.357352	0.359059
C70	C	0.640681	-0.356738	-0.354587
C71	C	0.974014	-0.023404	-0.021254
C72	C	1.307348	0.309929	0.312079
C73	C	0.486965	-0.356746	-0.354601
C74	C	0.820298	-0.023412	-0.021268
C75	C	1.153632	0.309921	0.312065
C76	C	0.403631	-0.356748	-0.354611
C77	C	0.736965	-0.023414	-0.021278
C78	C	1.070298	0.309919	0.312056
C79	C	0.724020	-0.356735	-0.354579
C80	C	1.057353	-0.023401	-0.021245
C81	C	1.390687	0.309932	0.312088
C82	C	1.063351	-0.549143	-0.354564
C83	C	1.396685	-0.215810	-0.021230
C84	C	1.730018	0.117524	0.312103
C85	C	1.063376	-0.631457	-0.354579
C86	C	1.396710	-0.298124	-0.021246
C87	C	1.730043	0.035210	0.312088
C88	C	1.063538	-0.930548	-0.354619
C89	C	1.396871	-0.597215	-0.021285
C90	C	1.730205	-0.263881	0.312048
C91	C	1.006805	-0.899232	-0.411628
C92	C	1.340139	-0.565899	-0.078295
C93	C	1.673472	-0.232565	0.255039
C94	C	1.006536	-0.813614	-0.411450
C95	C	1.339869	-0.480281	-0.078116
C96	C	1.673202	-0.146947	0.255217
C97	C	1.063458	-0.782165	-0.354600
C98	C	1.396791	-0.448832	-0.021266
C99	C	1.730124	-0.115499	0.312067
C100	C	1.042464	-0.813319	-0.277038
C101	C	1.375797	-0.479986	0.056295
C102	C	1.709131	-0.146652	0.389628
C103	C	1.042098	-0.898964	-0.277380
C104	C	1.375432	-0.565631	0.055954
C105	C	1.708765	-0.232297	0.389287
C106	C	1.141388	-0.898890	-0.374487
C107	C	1.474722	-0.565557	-0.041154
C108	C	1.808055	-0.232224	0.292179
C109	C	1.140931	-0.813239	-0.376188
C110	C	1.474264	-0.479906	-0.042855
C111	C	1.807597	-0.146573	0.290478
C112	C	1.063414	-0.698306	-0.354584
C113	C	1.396747	-0.364973	-0.021251
C114	C	1.730080	-0.031639	0.312083
C115	C	1.063580	-1.014407	-0.354629
C116	C	1.396913	-0.681074	-0.021296
C117	C	1.730247	-0.347741	0.312038
C118	C	1.255403	-0.356746	-0.354607
C119	C	1.588736	-0.023412	-0.021273
C120	C	1.922069	0.309921	0.312060
C121	C	1.337201	-0.356751	-0.354616
C122	C	1.670535	-0.023418	-0.021283
C123	C	2.003868	0.309915	0.312051
C124	C	1.063484	-0.356673	-0.546538
C125	C	1.396818	-0.023340	-0.213205
C126	C	1.730151	0.309994	0.120128
C127	C	1.063499	-0.356648	-0.628337
C128	C	1.396833	-0.023315	-0.295004
C129	C	1.730166	0.310019	0.038330
C130	C	1.063569	-0.163570	-0.354623
C131	C	1.396902	0.169763	-0.021290
C132	C	1.730235	0.503096	0.312044
C133	C	1.063619	-0.081256	-0.354639
C134	C	1.396953	0.252077	-0.021306
C135	C	1.730286	0.585410	0.312028
C136	C	1.016499	-0.309247	-0.816536
C137	C	1.349832	0.024086	-0.483203
C138	C	1.683166	0.357420	-0.149869
C139	C	1.016512	-0.309232	-0.893395
C140	C	1.349845	0.024101	-0.560061
C141	C	1.683178	0.357435	-0.226728
C142	C	1.110588	-0.403961	-0.893376
C143	C	1.443921	-0.070627	-0.560043
C144	C	1.777254	0.262706	-0.226710
C145	C	1.110571	-0.403979	-0.816519
C146	C	1.443904	-0.070645	-0.483185
C147	C	1.777237	0.262688	-0.149852
C148	C	1.063527	-0.356618	-0.778101
C149	C	1.396861	-0.023284	-0.444767
C150	C	1.730194	0.310049	-0.111434
C151	C	1.063557	-0.356585	-0.931817
C152	C	1.396891	-0.023251	-0.598484
C153	C	1.730224	0.310082	-0.265150
C154	C	1.063571	-0.356569	-1.015151
C155	C	1.396905	-0.023235	-0.681817
C156	C	1.730238	0.310098	-0.348484
C157	C	1.063512	-0.356634	-0.694762
C158	C	1.396845	-0.023301	-0.361428
C159	C	1.730179	0.310032	-0.028095
C160	C	1.063457	-0.356738	-0.163379
C161	C	1.396791	-0.023404	0.169954
C162	C	1.730124	0.309929	0.503288
C163	C	1.063585	-0.356554	-0.081580
C164	C	1.396919	-0.023221	0.251753
C165	C	1.730252	0.310112	0.585086
H166	H	0.494110	-0.270712	-0.269363
H167	H	0.827443	0.062622	0.063970
H168	H	1.160777	0.395955	0.397303
H169	H	0.633530	-0.442771	-0.439829
H170	H	0.966863	-0.109437	-0.106495
H171	H	1.300196	0.223896	0.226838
H172	H	0.494103	-0.442773	-0.439845
H173	H	0.827436	-0.109440	-0.106511
H174	H	1.160769	0.223894	0.226822
H175	H	0.633552	-0.270695	-0.269346
H176	H	0.966885	0.062638	0.063987
H177	H	1.300218	0.395971	0.397320
H178	H	1.019670	-0.792548	-0.468960
H179	H	1.353003	-0.459215	-0.135627
H180	H	1.686337	-0.125882	0.197706
H181	H	0.948831	-0.793192	-0.398289
H182	H	1.282164	-0.459858	-0.064955
H183	H	1.615498	-0.126525	0.268378
H184	H	1.082486	-0.792950	-0.233404
H185	H	1.415819	-0.459616	0.099930
H186	H	1.749152	-0.126283	0.433263
N187	N	1.158625	-0.452368	-0.777268
N188	N	1.491958	-0.119035	-0.443934
N189	N	1.825292	0.214298	-0.110601
N190	N	1.226537	-0.447455	-0.785860
N191	N	1.559870	-0.114122	-0.452527
N192	N	1.893204	0.219211	-0.119193
H193	H	1.260474	-0.481631	-0.758141
H194	H	1.593807	-0.148297	-0.424807
H195	H	1.927141	0.185036	-0.091474
N196	N	1.023161	-0.924958	-0.484016
N197	N	1.356495	-0.591625	-0.150683
N198	N	1.689828	-0.258292	0.182650
N199	N	1.076817	-0.966679	-0.494438
N200	N	1.410150	-0.633346	-0.161104
N201	N	1.743483	-0.300013	0.172229
H202	H	1.088384	-0.984834	-0.545567
H203	H	1.421718	-0.651501	-0.212234
H204	H	1.755051	-0.318168	0.121099
N205	N	0.968441	-0.260887	-0.777281
N206	N	1.301774	0.072446	-0.443948
N207	N	1.635108	0.405780	-0.110614
N208	N	0.968429	-0.260909	-0.708659
N209	N	1.301762	0.072424	-0.375326
N210	N	1.635096	0.405757	-0.041992
H211	H	0.934485	-0.226756	-0.680935
H212	H	1.267818	0.106577	-0.347602
H213	H	1.601152	0.439911	-0.014269
H214	H	0.978216	-0.270659	-0.924685
H215	H	1.311549	0.062674	-0.591352
H216	H	1.644883	0.396008	-0.258019
H217	H	0.949451	-0.920819	-0.398633
H218	H	1.282785	-0.587486	-0.065299
H219	H	1.616118	-0.254153	0.268034
H220	H	0.985190	-0.919008	-0.260549
H221	H	1.318523	-0.585675	0.072785
H222	H	1.651857	-0.252341	0.406118
N223	N	1.091671	-0.924949	-0.222260
N224	N	1.425004	-0.591616	0.111073
N225	N	1.758338	-0.258282	0.444406
N226	N	1.126424	-0.879829	-0.183660
N227	N	1.459757	-0.546495	0.149673
N228	N	1.793091	-0.213162	0.483006
H229	H	1.161426	-0.898177	-0.144725
H230	H	1.494759	-0.564843	0.188608
H231	H	1.828093	-0.231510	0.521942
H232	H	1.148889	-0.442520	-0.924666
H233	H	1.482222	-0.109186	-0.591332
H234	H	1.815556	0.224147	-0.257999
H235	H	1.160529	-0.920437	-0.430081
H236	H	1.493863	-0.587103	-0.096748
H237	H	1.827196	-0.253770	0.236586
N238	N	0.971830	-0.786489	-0.255550
N239	N	1.305163	-0.453155	0.077783
N240	N	1.638497	-0.119822	0.411116
N241	N	0.936831	-0.744433	-0.297224
N242	N	1.270164	-0.411100	0.036109
N243	N	1.603497	-0.077766	0.369443
H244	H	0.886944	-0.725483	-0.282052
H245	H	1.220277	-0.392150	0.051281
H246	H	1.553611	-0.058817	0.384615
H247	H	1.185435	-0.791828	-0.337692
H248	H	1.518768	-0.458494	-0.004359
H249	H	1.852102	-0.125161	0.328975
N250	N	1.160785	-0.787689	-0.447796
N251	N	1.494119	-0.454356	-0.114463
N252	N	1.827452	-0.121023	0.218871
N253	N	1.118078	-0.746745	-0.482840
N254	N	1.451411	-0.413411	-0.149507
N255	N	1.784744	-0.080078	0.183826
H256	H	1.132097	-0.728697	-0.533415
H257	H	1.465430	-0.395363	-0.200081
H258	H	1.798764	-0.062030	0.133252
N259	N	1.194406	-0.924293	-0.322392
N260	N	1.527739	-0.590960	0.010942
N261	N	1.861073	-0.257626	0.344275
N262	N	1.175040	-0.965532	-0.270835
N263	N	1.508374	-0.632198	0.062499
N264	N	1.841707	-0.298865	0.395832
H265	H	1.212478	-0.983475	-0.234039
H266	H	1.545811	-0.650142	0.099295
H267	H	1.879144	-0.316808	0.432628
