data_functionalizedCrystal
_audit_creation_method	'MofGen! by Chris Wilmer'
_symmetry_space_group_name_H-M	'P1'
_symmetry_Int_Tables_number	1
_symmetry_cell_setting	triclinic
loop_
_symmetry_equiv_pos_as_xyz
  x,y,z
_cell_length_a	16.625547
_cell_length_b	16.625546
_cell_length_c	12.827885
_cell_angle_alpha	89.964876
_cell_angle_beta	89.974319
_cell_angle_gamma	90.022405
loop_
_atom_site_label
_atom_site_type_symbol
_atom_site_fract_x
_atom_site_fract_y
_atom_site_fract_z
Zn1	Zn	1.232687	-0.320964	-0.590983
Zn2	Zn	1.232589	-0.455818	-0.416227
Zn3	Zn	1.097847	-0.321003	-0.416238
Zn4	Zn	1.097820	-0.455758	-0.590908
O5	O	1.165236	-0.388386	-0.503589
O6	O	1.345507	-0.338861	-0.567828
O7	O	1.214685	-0.437976	-0.269993
O8	O	1.115787	-0.208165	-0.439454
O9	O	1.345434	-0.437938	-0.439436
O10	O	1.214853	-0.208137	-0.567839
O11	O	1.115691	-0.338928	-0.270000
O12	O	0.985011	-0.338870	-0.439381
O13	O	1.115740	-0.437836	-0.737154
O14	O	0.984991	-0.437874	-0.567711
O15	O	1.214827	-0.338803	-0.737209
O16	O	1.214658	-0.568643	-0.439363
O17	O	1.115644	-0.568598	-0.567701
C18	C	0.955745	-0.388370	-0.503540
C19	C	0.866124	-0.388383	-0.503544
C20	C	1.165159	-0.597877	-0.503545
C21	C	1.165200	-0.687498	-0.503562
C22	C	0.793341	-0.388384	-0.503556
C23	C	0.702033	-0.388389	-0.503583
C24	C	0.629256	-0.388396	-0.503609
C25	C	0.537942	-0.388402	-0.503634
C26	C	1.165341	-1.015673	-0.503671
C27	C	1.165299	-0.924365	-0.503643
C28	C	1.165270	-0.851588	-0.503616
C29	C	1.165230	-0.760274	-0.503589
C30	C	1.375545	-0.388402	-0.503639
C31	C	1.465166	-0.388409	-0.503661
C32	C	1.165291	-0.388308	-0.776160
C33	C	1.165315	-0.388275	-0.892313
C34	C	1.165334	-0.178077	-0.503656
C35	C	1.165376	-0.088456	-0.503684
C36	C	1.116345	-0.339254	-0.944101
C37	C	1.116369	-0.339218	-1.064152
C38	C	1.165227	-0.388405	-0.232079
C39	C	1.165359	-0.388211	-0.115927
H40	H	1.074400	-0.297314	-0.899563
H41	H	1.074447	-0.297246	-1.108689
H42	H	1.207289	-0.430179	-1.071396
H43	H	1.207256	-0.430219	-0.936851
