data_functionalizedCrystal
_audit_creation_method	'MofGen! by Chris Wilmer'
_symmetry_space_group_name_H-M	'P1'
_symmetry_Int_Tables_number	1
_symmetry_cell_setting	triclinic
loop_
_symmetry_equiv_pos_as_xyz
  x,y,z
_cell_length_a	13.897449
_cell_length_b	13.897441
_cell_length_c	12.645330
_cell_angle_alpha	89.971917
_cell_angle_beta	89.986336
_cell_angle_gamma	90.020733
loop_
_atom_site_label
_atom_site_type_symbol
_atom_site_fract_x
_atom_site_fract_y
_atom_site_fract_z
Zn1	Zn	-1.474738	-0.545398	-0.421969
Zn2	Zn	-0.974738	-0.045398	0.078031
Zn3	Zn	-1.474647	-0.384107	-0.599265
Zn4	Zn	-0.974647	0.115893	-0.099265
Zn5	Zn	-1.313427	-0.384116	-0.422020
Zn6	Zn	-0.813427	0.115884	0.077980
Zn7	Zn	-1.313424	-0.545359	-0.599195
Zn8	Zn	-0.813424	-0.045359	-0.099195
O9	O	-1.394059	-0.464745	-0.510612
O10	O	-0.894059	0.035255	-0.010612
O11	O	-1.609708	-0.524015	-0.445496
O12	O	-1.109708	-0.024015	0.054504
O13	O	-1.453224	-0.249126	-0.575803
O14	O	-0.953224	0.250874	-0.075803
O15	O	-1.334865	-0.405531	-0.273666
O16	O	-0.834865	0.094469	0.226334
O17	O	-1.609641	-0.405514	-0.575754
O18	O	-1.109641	0.094486	-0.075754
O19	O	-1.453379	-0.524024	-0.273629
O20	O	-0.953379	-0.024024	0.226371
O21	O	-1.334777	-0.249133	-0.445582
O22	O	-0.834777	0.250867	0.054418
O23	O	-1.178445	-0.405493	-0.445514
O24	O	-0.678445	0.094507	0.054486
O25	O	-1.334859	-0.680346	-0.575635
O26	O	-0.834859	-0.180346	-0.075635
O27	O	-1.178443	-0.523958	-0.575684
O28	O	-0.678443	-0.023958	-0.075684
O29	O	-1.453376	-0.680375	-0.445428
O30	O	-0.953376	-0.180375	0.054572
O31	O	-1.453221	-0.405477	-0.747603
O32	O	-0.953221	0.094523	-0.247603
O33	O	-1.334771	-0.523948	-0.747552
O34	O	-0.834771	-0.023948	-0.247552
C35	C	-1.143445	-0.464723	-0.510598
C36	C	-0.643445	0.035277	-0.010598
C37	C	-1.036231	-0.464737	-0.510618
C38	C	-0.536231	0.035263	-0.010618
C39	C	-1.394012	-0.464728	-0.786042
C40	C	-0.894012	0.035272	-0.286042
C41	C	-1.394080	-0.464753	-0.903872
C42	C	-0.894080	0.035247	-0.403872
C43	C	-1.394128	-0.716338	-0.510519
C44	C	-0.894128	-0.216338	-0.010519
C45	C	-1.394157	-0.823552	-0.510479
C46	C	-0.894157	-0.323552	-0.010479
C47	C	-1.645652	-0.464768	-0.510627
C48	C	-1.145652	0.035232	-0.010627
C49	C	-1.752866	-0.464777	-0.510634
C50	C	-1.252866	0.035223	-0.010634
C51	C	-0.839936	-0.464762	-0.510621
C52	C	-0.339936	0.035238	-0.010621
C53	C	-0.949168	-0.464745	-0.510616
C54	C	-0.449168	0.035255	-0.010616
C55	C	-1.394183	-1.019847	-0.510407
C56	C	-0.894183	-0.519847	-0.010407
C57	C	-1.394165	-0.910615	-0.510450
C58	C	-0.894165	-0.410615	-0.010450
C59	C	-1.394046	-0.214131	-0.510629
C60	C	-0.894046	0.285869	-0.010629
C61	C	-1.394204	-0.106917	-0.510370
C62	C	-0.894204	0.393083	-0.010370
C63	C	-1.468682	-0.390287	-0.948742
C64	C	-0.968682	0.109713	-0.448742
C65	C	-1.468511	-0.390021	-1.071302
C66	C	-0.968511	0.109979	-0.571302
C67	C	-1.292429	-0.437440	-1.071883
C68	C	-0.792429	0.062560	-0.571883
C69	C	-1.292812	-0.436872	-0.949285
C70	C	-0.792812	0.063128	-0.449285
C71	C	-1.420342	-0.566776	-0.948947
C72	C	-0.920342	-0.066776	-0.448947
C73	C	-1.422633	-0.566259	-1.071551
C74	C	-0.922633	-0.066259	-0.571551
C75	C	-1.394133	-0.464783	-0.234107
C76	C	-0.894133	0.035217	0.265893
C77	C	-1.394164	-0.464799	-0.116277
C78	C	-0.894164	0.035201	0.383723
H79	H	-1.543940	-0.407110	-1.101314
H80	H	-1.043940	0.092890	-0.601314
H81	H	-1.372306	-0.624707	-1.102160
H82	H	-0.872306	-0.124707	-0.602160
H83	H	-1.366012	-0.622257	-0.919922
H84	H	-0.866012	-0.122257	-0.419922
H85	H	-1.235322	-0.488766	-0.919606
H86	H	-0.735322	0.011234	-0.419606
H87	H	-1.451131	-0.314440	-1.100712
H88	H	-0.951131	0.185560	-0.600712
H89	H	-1.235353	-0.490023	-1.101017
H90	H	-0.735353	0.009977	-0.601017
N91	N	-1.264108	-0.344939	-1.110513
N92	N	-0.764108	0.155061	-0.610513
N93	N	-1.318673	-0.299005	-1.170726
N94	N	-0.818673	0.200995	-0.670726
H95	H	-1.298676	-0.233674	-1.198009
H96	H	-0.798676	0.266326	-0.698009
N97	N	-1.511786	-0.598049	-0.910042
N98	N	-1.011786	-0.098049	-0.410042
N99	N	-1.558717	-0.545516	-0.848614
N100	N	-1.058717	-0.045516	-0.348614
H101	H	-1.623301	-0.567595	-0.821132
H102	H	-1.123301	-0.067595	-0.321132
H103	H	-1.497501	-0.586893	-1.100558
H104	H	-0.997501	-0.086893	-0.600558
N105	N	-1.264922	-0.343333	-0.913515
N106	N	-0.764922	0.156667	-0.413515
N107	N	-1.184410	-0.310036	-0.938150
N108	N	-0.684410	0.189964	-0.438150
H109	H	-1.164710	-0.243971	-0.912895
H110	H	-0.664710	0.256029	-0.412895
N111	N	-1.563567	-0.411469	-0.911647
N112	N	-1.063567	0.088531	-0.411647
N113	N	-1.580946	-0.411588	-0.814657
N114	N	-1.080946	0.088412	-0.314657
H115	H	-1.647960	-0.426551	-0.788450
H116	H	-1.147960	0.073449	-0.288450
N117	N	-1.447106	-0.295997	-0.910194
N118	N	-0.947106	0.204003	-0.410194
N119	N	-1.377024	-0.283403	-0.849820
N120	N	-0.877024	0.216597	-0.349820
H121	H	-1.361781	-0.216812	-0.822595
H122	H	-0.861781	0.283188	-0.322595
