data_functionalizedCrystal
_audit_creation_method	'MofGen! by Chris Wilmer'
_symmetry_space_group_name_H-M	'P1'
_symmetry_Int_Tables_number	1
_symmetry_cell_setting	triclinic
loop_
_symmetry_equiv_pos_as_xyz
  x,y,z
_cell_length_a	14.044220
_cell_length_b	14.044190
_cell_length_c	13.101018
_cell_angle_alpha	86.339369
_cell_angle_beta	93.664297
_cell_angle_gamma	93.190328
loop_
_atom_site_label
_atom_site_type_symbol
_atom_site_fract_x
_atom_site_fract_y
_atom_site_fract_z
O1	O	1.281981	0.225353	0.085126
O2	O	1.531981	0.475353	0.335126
O3	O	1.781981	0.725353	0.585126
O4	O	2.031981	0.975353	0.835126
O5	O	1.005311	0.217046	0.085151
O6	O	1.255311	0.467046	0.335151
O7	O	1.505311	0.717046	0.585151
O8	O	1.755311	0.967046	0.835151
O9	O	1.139489	0.082864	0.085119
O10	O	1.389489	0.332864	0.335119
O11	O	1.639489	0.582864	0.585119
O12	O	1.889489	0.832864	0.835119
O13	O	1.147804	0.359534	0.085158
O14	O	1.397804	0.609534	0.335158
O15	O	1.647804	0.859534	0.585158
O16	O	1.897804	1.109534	0.835158
O17	O	1.129850	0.092500	-0.085309
O18	O	1.379850	0.342500	0.164691
O19	O	1.629850	0.592500	0.414691
O20	O	1.879850	0.842500	0.664691
O21	O	0.995673	0.226681	-0.085277
O22	O	1.245673	0.476681	0.164723
O23	O	1.495673	0.726681	0.414723
O24	O	1.745673	0.976681	0.664723
O25	O	1.272343	0.234988	-0.085302
O26	O	1.522343	0.484988	0.164698
O27	O	1.772343	0.734988	0.414698
O28	O	2.022343	0.984988	0.664698
Zn29	Zn	1.132478	0.232365	-0.112349
Zn30	Zn	1.382478	0.482365	0.137651
Zn31	Zn	1.632478	0.732365	0.387651
Zn32	Zn	1.882478	0.982365	0.637651
Zn33	Zn	1.145177	0.219669	0.112197
Zn34	Zn	1.395177	0.469669	0.362197
Zn35	Zn	1.645177	0.719669	0.612197
Zn36	Zn	1.895177	0.969669	0.862197
O37	O	1.138165	0.369170	-0.085270
O38	O	1.388165	0.619170	0.164730
O39	O	1.638165	0.869170	0.414730
O40	O	1.888165	1.119170	0.664730
C41	C	0.964870	0.218228	-0.000060
C42	C	1.214870	0.468228	0.249940
C43	C	1.464870	0.718228	0.499940
C44	C	1.714870	0.968228	0.749940
C45	C	0.858728	0.207382	-0.000051
C46	C	1.108728	0.457382	0.249949
C47	C	1.358728	0.707382	0.499949
C48	C	1.608728	0.957382	0.749949
C49	C	0.664388	0.187557	-0.000075
C50	C	0.914388	0.437557	0.249925
C51	C	1.164388	0.687557	0.499925
C52	C	1.414388	0.937557	0.749925
C53	C	0.613261	0.264472	-0.000068
C54	C	0.863261	0.514472	0.249932
C55	C	1.113261	0.764472	0.499932
C56	C	1.363261	1.014472	0.749932
C57	C	0.505123	0.253441	-0.000081
C58	C	0.755123	0.503441	0.249919
C59	C	1.005123	0.753441	0.499919
C60	C	1.255123	1.003441	0.749919
C61	C	0.772535	0.198587	-0.000062
C62	C	1.022535	0.448587	0.249938
C63	C	1.272535	0.698587	0.499938
C64	C	1.522535	0.948587	0.749938
C65	C	1.131033	0.052060	-0.000098
C66	C	1.381033	0.302060	0.249902
C67	C	1.631033	0.552060	0.499902
C68	C	1.881033	0.802060	0.749902
C69	C	1.120185	-0.054083	-0.000106
C70	C	1.370185	0.195917	0.249894
C71	C	1.620185	0.445917	0.499894
C72	C	1.870185	0.695917	0.749894
C73	C	1.177288	-0.299543	-0.000071
C74	C	1.427288	-0.049543	0.249929
C75	C	1.677288	0.200457	0.499929
C76	C	1.927288	0.450457	0.749929
C77	C	1.100371	-0.248418	-0.000071
C78	C	1.350371	0.001582	0.249929
C79	C	1.600371	0.251582	0.499929
C80	C	1.850371	0.501582	0.749929
C81	C	1.111398	-0.140280	-0.000091
C82	C	1.361398	0.109720	0.249909
C83	C	1.611398	0.359720	0.499909
C84	C	1.861398	0.609720	0.749909
C85	C	1.166262	-0.407691	-0.000052
C86	C	1.416262	-0.157691	0.249948
C87	C	1.666262	0.092309	0.499948
C88	C	1.916262	0.342309	0.749948
C89	C	1.312784	0.233806	-0.000089
C90	C	1.562784	0.483806	0.249911
C91	C	1.812784	0.733806	0.499911
C92	C	2.062784	0.983806	0.749911
C93	C	1.418927	0.244651	-0.000091
C94	C	1.668927	0.494651	0.249909
C95	C	1.918927	0.744651	0.499909
C96	C	2.168927	0.994651	0.749909
C97	C	1.146621	0.399974	-0.000051
C98	C	1.396621	0.649974	0.249949
C99	C	1.646621	0.899974	0.499949
C100	C	1.896621	1.149974	0.749949
C101	C	1.157470	0.506116	-0.000036
C102	C	1.407470	0.756116	0.249964
C103	C	1.657470	1.006116	0.499964
C104	C	1.907470	1.256116	0.749964
N105	N	1.123818	0.241029	-0.265596
N106	N	1.373818	0.491029	-0.015596
N107	N	1.623818	0.741029	0.234404
N108	N	1.873818	0.991029	0.484404
C109	C	1.165620	0.199206	-0.525515
C110	C	1.415620	0.449206	-0.275515
C111	C	1.665620	0.699206	-0.025515
C112	C	1.915620	0.949206	0.224485
C113	C	1.112044	0.252818	-0.474630
C114	C	1.362044	0.502818	-0.224630
C115	C	1.612044	0.752818	0.025370
C116	C	1.862044	1.002818	0.275370
C117	C	1.118597	0.246257	-0.358312
C118	C	1.368597	0.496257	-0.108312
C119	C	1.618597	0.746257	0.141688
C120	C	1.868597	0.996257	0.391688
C121	C	1.159069	0.205766	-0.641843
C122	C	1.409069	0.455766	-0.391843
C123	C	1.659069	0.705766	-0.141843
C124	C	1.909069	0.955766	0.108157
N125	N	1.153843	0.210998	0.265444
N126	N	1.403843	0.460998	0.515444
N127	N	1.653843	0.710998	0.765444
N128	N	1.903843	0.960998	1.015444
H129	H	0.650703	0.338605	-0.000052
H130	H	0.900703	0.588605	0.249948
H131	H	1.150703	0.838605	0.499948
H132	H	1.400703	1.088605	0.749948
C133	C	1.000221	-0.299001	-0.000061
C134	C	1.250221	-0.049001	0.249939
C135	C	1.500221	0.200999	0.499939
C136	C	1.750221	0.450999	0.749939
N137	N	0.924791	-0.337104	-0.000058
N138	N	1.174791	-0.087104	0.249942
N139	N	1.424791	0.162896	0.499942
N140	N	1.674791	0.412896	0.749942
H141	H	1.061255	0.303645	-0.518422
H142	H	1.311255	0.553645	-0.268422
H143	H	1.561255	0.803645	-0.018422
H144	H	1.811255	1.053645	0.231578
C145	C	1.234222	0.130538	-0.466356
C146	C	1.484222	0.380538	-0.216356
C147	C	1.734222	0.630538	0.033644
C148	C	1.984222	0.880538	0.283644
N149	N	1.285891	0.078817	-0.421786
N150	N	1.535891	0.328817	-0.171786
N151	N	1.785891	0.578817	0.078214
N152	N	2.035891	0.828817	0.328214
H153	H	1.251413	-0.262101	-0.000088
H154	H	1.501413	-0.012101	0.249912
H155	H	1.751413	0.237899	0.499912
H156	H	2.001413	0.487899	0.749912
C157	C	0.613808	0.087413	-0.000086
C158	C	0.863808	0.337413	0.249914
C159	C	1.113808	0.587413	0.499914
C160	C	1.363808	0.837413	0.749914
N161	N	0.575701	0.011985	-0.000090
N162	N	0.825701	0.261985	0.249910
N163	N	1.075701	0.511985	0.499910
N164	N	1.325701	0.761985	0.749910
