data_functionalizedCrystal
_audit_creation_method	'MofGen! by Chris Wilmer'
_symmetry_space_group_name_H-M	'P1'
_symmetry_Int_Tables_number	1
_symmetry_cell_setting	triclinic
loop_
_symmetry_equiv_pos_as_xyz
  x,y,z
_cell_length_a	11.792241
_cell_length_b	9.616153
_cell_length_c	11.792241
_cell_angle_alpha	90.002388
_cell_angle_beta	84.193416
_cell_angle_gamma	90.002674
loop_
_atom_site_label
_atom_site_type_symbol
_atom_site_fract_x
_atom_site_fract_y
_atom_site_fract_z
O1	O	1.506913	0.115511	0.155563
O2	O	2.006913	0.615511	0.655563
O3	O	1.176572	0.115544	0.171596
O4	O	1.676572	0.615544	0.671596
O5	O	1.349759	0.115517	-0.001591
O6	O	1.849759	0.615517	0.498409
O7	O	1.333726	0.115538	0.328750
O8	O	1.833726	0.615538	0.828750
O9	O	1.349735	-0.115775	-0.001587
O10	O	1.849735	0.384225	0.498413
O11	O	1.176548	-0.115748	0.171600
O12	O	1.676548	0.384252	0.671600
O13	O	1.506889	-0.115780	0.155567
O14	O	2.006889	0.384220	0.655567
Zn15	Zn	1.341715	-0.152487	0.163584
Zn16	Zn	1.841715	0.347513	0.663584
Zn17	Zn	1.341746	0.152250	0.163579
Zn18	Zn	1.841746	0.652250	0.663579
O19	O	1.333702	-0.115753	0.328754
O20	O	1.833702	0.384247	0.828754
C21	C	1.134269	-0.000098	0.170591
C22	C	1.634269	0.499902	0.670591
C23	C	1.008255	-0.000086	0.167576
C24	C	1.508255	0.499914	0.667576
C25	C	0.777543	-0.000126	0.162034
C26	C	1.277543	0.499874	0.662034
C27	C	0.905928	-0.000104	0.165113
C28	C	1.405928	0.499896	0.665113
N29	N	1.341702	-0.360461	0.163587
N30	N	1.841702	0.139539	0.663587
C31	C	1.248777	-0.580817	0.255921
C32	C	1.748777	-0.080817	0.755921
C33	C	1.248980	-0.419649	0.256265
C34	C	1.748980	0.080351	0.756265
C35	C	1.460293	-0.418920	0.190184
C36	C	1.960293	0.081080	0.690184
C37	C	1.459787	-0.580138	0.190837
C38	C	1.959787	-0.080138	0.690837
C39	C	1.317218	-0.580377	0.044350
C40	C	1.817218	-0.080377	0.544350
C41	C	1.314492	-0.419150	0.045131
C42	C	1.814492	0.080850	0.545131
C43	C	1.549192	-0.000136	0.156572
C44	C	2.049192	0.499864	0.656572
C45	C	1.675206	-0.000139	0.159587
C46	C	2.175206	0.499861	0.659587
C47	C	1.348740	-0.000128	-0.043880
C48	C	1.848740	0.499872	0.456120
C49	C	1.345726	-0.000127	-0.169894
C50	C	1.845726	0.499873	0.330106
N51	N	1.341768	0.360224	0.163568
N52	N	1.841768	0.860224	0.663568
C53	C	1.340183	-0.000103	-0.400606
C54	C	1.840183	0.499897	0.099394
C55	C	1.343262	-0.000116	-0.272221
C56	C	1.843262	0.499884	0.227779
C57	C	1.334721	-0.000105	0.371043
C58	C	1.834721	0.499895	0.871043
C59	C	1.337736	-0.000098	0.497057
C60	C	1.837736	0.499902	0.997057
H61	H	1.160853	-0.380127	0.240311
H62	H	1.660853	0.119873	0.740311
H63	H	1.160373	-0.619620	0.240216
H64	H	1.660373	-0.119620	0.740216
H65	H	1.264317	-0.621311	0.343877
H66	H	1.764317	-0.121311	0.843877
Cl67	Cl	1.494281	-0.356561	0.322934
Cl68	Cl	1.994281	0.143439	0.822934
H69	H	1.481309	-0.617723	0.277804
H70	H	1.981309	-0.117723	0.777804
Cl71	Cl	1.273246	-0.360069	0.392848
Cl72	Cl	1.773246	0.139931	0.892848
H73	H	1.531183	-0.619137	0.126263
H74	H	2.031183	-0.119137	0.626263
H75	H	1.531167	-0.380578	0.124740
H76	H	2.031167	0.119422	0.624740
Cl77	Cl	1.186530	-0.643212	0.005161
Cl78	Cl	1.686530	-0.143212	0.505161
Cl79	Cl	1.179799	-0.360163	0.013988
Cl80	Cl	1.679799	0.139837	0.513988
H81	H	1.377760	-0.378866	-0.026869
H82	H	1.877760	0.121134	0.473131
H83	H	1.385023	-0.618504	-0.024385
H84	H	1.885023	-0.118504	0.475615
