data_functionalizedCrystal
_audit_creation_method	'MofGen! by Chris Wilmer'
_symmetry_space_group_name_H-M	'P1'
_symmetry_Int_Tables_number	1
_symmetry_cell_setting	triclinic
loop_
_symmetry_equiv_pos_as_xyz
  x,y,z
_cell_length_a	14.044220
_cell_length_b	11.792241
_cell_length_c	10.268362
_cell_angle_alpha	89.994572
_cell_angle_beta	90.000433
_cell_angle_gamma	88.691147
loop_
_atom_site_label
_atom_site_type_symbol
_atom_site_fract_x
_atom_site_fract_y
_atom_site_fract_z
O1	O	1.259114	0.273771	-0.108163
O2	O	1.509114	0.523771	0.141837
O3	O	1.759114	0.773771	0.391837
O4	O	2.009114	1.023771	0.641837
O5	O	0.983094	0.263892	-0.108196
O6	O	1.233094	0.513892	0.141804
O7	O	1.483094	0.763892	0.391804
O8	O	1.733094	1.013892	0.641804
O9	O	1.127802	0.104289	-0.108169
O10	O	1.377802	0.354289	0.141831
O11	O	1.627802	0.604289	0.391831
O12	O	1.877802	0.854289	0.641831
O13	O	1.114405	0.433373	-0.108189
O14	O	1.364405	0.683373	0.141811
O15	O	1.614405	0.933373	0.391811
O16	O	1.864405	1.183373	0.641811
O17	O	1.127789	0.104281	0.108431
O18	O	1.377789	0.354281	0.358431
O19	O	1.627789	0.604281	0.608431
O20	O	1.877789	0.854281	0.858431
O21	O	0.983081	0.263883	0.108405
O22	O	1.233081	0.513883	0.358405
O23	O	1.483081	0.763883	0.608405
O24	O	1.733081	1.013883	0.858405
O25	O	1.259101	0.273762	0.108438
O26	O	1.509101	0.523762	0.358438
O27	O	1.759101	0.773762	0.608438
O28	O	2.009101	1.023762	0.858438
Cu29	Cu	1.121090	0.268822	0.128199
Cu30	Cu	1.371090	0.518822	0.378199
Cu31	Cu	1.621090	0.768822	0.628199
Cu32	Cu	1.871090	1.018822	0.878199
Cu33	Cu	1.121105	0.268832	-0.127957
Cu34	Cu	1.371105	0.518832	0.122043
Cu35	Cu	1.621105	0.768832	0.372043
Cu36	Cu	1.871105	1.018832	0.622043
O37	O	1.114393	0.433365	0.108411
O38	O	1.364393	0.683365	0.358411
O39	O	1.614393	0.933365	0.608411
O40	O	1.864393	1.183365	0.858411
C41	C	0.947751	0.259563	0.000100
C42	C	1.197751	0.509563	0.250100
C43	C	1.447751	0.759563	0.500100
C44	C	1.697751	1.009563	0.750100
C45	C	0.842459	0.246664	0.000088
C46	C	1.092459	0.496664	0.250088
C47	C	1.342459	0.746664	0.500088
C48	C	1.592459	0.996664	0.750088
C49	C	1.126954	0.061915	0.000130
C50	C	1.376954	0.311915	0.250130
C51	C	1.626954	0.561915	0.500130
C52	C	1.876954	0.811915	0.750130
C53	C	1.124435	-0.064335	0.000129
C54	C	1.374435	0.185665	0.250129
C55	C	1.624435	0.435665	0.500129
C56	C	1.874435	0.685665	0.750129
C57	C	1.119804	-0.295482	0.000107
C58	C	1.369804	-0.045482	0.250107
C59	C	1.619804	0.204518	0.500107
C60	C	1.869804	0.454518	0.750107
C61	C	1.122377	-0.166855	0.000119
C62	C	1.372377	0.083145	0.250119
C63	C	1.622377	0.333145	0.500119
C64	C	1.872377	0.583145	0.750119
C65	C	0.649676	0.223082	0.000115
C66	C	0.899676	0.473082	0.250115
C67	C	1.149676	0.723082	0.500115
C68	C	1.399676	0.973082	0.750115
C69	C	0.592513	0.314567	0.000115
C70	C	0.842513	0.564567	0.250115
C71	C	1.092513	0.814567	0.500115
C72	C	1.342513	1.064567	0.750115
C73	C	0.485242	0.301445	0.000130
C74	C	0.735242	0.551445	0.250130
C75	C	0.985242	0.801445	0.500130
C76	C	1.235242	1.051445	0.750130
C77	C	0.756957	0.236202	0.000100
C78	C	1.006957	0.486202	0.250100
C79	C	1.256957	0.736202	0.500100
C80	C	1.506957	0.986202	0.750100
C81	C	1.294444	0.278091	0.000139
C82	C	1.544444	0.528091	0.250139
C83	C	1.794444	0.778091	0.500139
C84	C	2.044444	1.028091	0.750139
C85	C	1.399736	0.290990	0.000143
C86	C	1.649736	0.540990	0.250143
C87	C	1.899736	0.790990	0.500143
C88	C	2.149736	1.040990	0.750143
C89	C	1.115241	0.475739	0.000109
C90	C	1.365241	0.725739	0.250109
C91	C	1.615241	0.975739	0.500109
C92	C	1.865241	1.225739	0.750109
C93	C	1.117759	0.601989	0.000102
C94	C	1.367759	0.851989	0.250102
C95	C	1.617759	1.101989	0.500102
C96	C	1.867759	1.351989	0.750102
N97	N	1.121086	0.268815	0.308365
N98	N	1.371086	0.518815	0.558365
N99	N	1.621086	0.768815	0.808365
N100	N	1.871086	1.018815	1.058365
N101	N	1.121116	0.268831	-0.308123
N102	N	1.371116	0.518831	-0.058123
N103	N	1.621116	0.768831	0.191877
N104	N	1.871116	1.018831	0.441877
C105	C	1.121100	0.268829	0.574035
C106	C	1.371100	0.518829	0.824035
C107	C	1.621100	0.768829	1.074035
C108	C	1.871100	1.018829	1.324035
C109	C	1.121089	0.268824	0.426197
C110	C	1.371089	0.518824	0.676197
C111	C	1.621089	0.768824	0.926197
C112	C	1.871089	1.018824	1.176197
H113	H	0.624137	0.402744	0.000104
H114	H	0.874137	0.652744	0.250104
H115	H	1.124137	0.902744	0.500104
H116	H	1.374137	1.152744	0.750104
C117	C	0.606961	0.103970	0.000114
C118	C	0.856961	0.353970	0.250114
C119	C	1.106961	0.603970	0.500114
C120	C	1.356961	0.853970	0.750114
H121	H	0.539420	0.110668	0.000109
H122	H	0.789420	0.360668	0.250109
H123	H	1.039420	0.610668	0.500109
H124	H	1.289420	0.860668	0.750109
H125	H	0.627549	0.063869	0.075641
H126	H	0.877549	0.313869	0.325641
H127	H	1.127549	0.563869	0.575641
H128	H	1.377549	0.813869	0.825641
H129	H	0.627542	0.063897	-0.075435
H130	H	0.877542	0.313897	0.174565
H131	H	1.127542	0.563897	0.424565
H132	H	1.377542	0.813897	0.674565
