data_functionalizedCrystal
_audit_creation_method	'MofGen! by Chris Wilmer'
_symmetry_space_group_name_H-M	'P1'
_symmetry_Int_Tables_number	1
_symmetry_cell_setting	triclinic
loop_
_symmetry_equiv_pos_as_xyz
  x,y,z
_cell_length_a	13.032831
_cell_length_b	14.908520
_cell_length_c	13.033288
_cell_angle_alpha	93.494687
_cell_angle_beta	105.167499
_cell_angle_gamma	86.522975
loop_
_atom_site_label
_atom_site_type_symbol
_atom_site_fract_x
_atom_site_fract_y
_atom_site_fract_z
Zn1	Zn	1.673121	-0.451732	0.833185
Zn2	Zn	2.173121	0.048268	1.333185
Zn3	Zn	1.640641	-0.617393	0.665380
Zn4	Zn	2.140641	-0.117393	1.165380
Zn5	Zn	1.472985	-0.451678	0.633072
Zn6	Zn	1.972985	0.048322	1.133072
Zn7	Zn	1.487624	-0.583795	0.818436
Zn8	Zn	1.987624	-0.083795	1.318436
O9	O	1.568592	-0.526149	0.737518
O10	O	2.068592	-0.026149	1.237518
O11	O	1.816608	-0.487791	0.830619
O12	O	2.316608	0.012209	1.330619
O13	O	1.598681	-0.609449	0.513292
O14	O	2.098681	-0.109449	1.013292
O15	O	1.507000	-0.327064	0.652269
O16	O	2.007000	0.172936	1.152269
O17	O	1.792745	-0.609501	0.707333
O18	O	2.292745	-0.109501	1.207333
O19	O	1.654039	-0.327104	0.799291
O20	O	2.154039	0.172896	1.299291
O21	O	1.475505	-0.487698	0.489555
O22	O	1.975505	0.012302	0.989555
O23	O	1.327131	-0.455119	0.637967
O24	O	1.827131	0.044881	1.137967
O25	O	1.531950	-0.552238	0.968195
O26	O	2.031950	-0.052238	1.468195
O27	O	1.337886	-0.552185	0.774153
O28	O	1.837886	-0.052185	1.274153
O29	O	1.668234	-0.455212	0.979031
O30	O	2.168234	0.044788	1.479031
O31	O	1.612876	-0.737557	0.693032
O32	O	2.112876	-0.237557	1.193032
O33	O	1.500455	-0.712873	0.805481
O34	O	2.000455	-0.212873	1.305481
C35	C	1.294187	-0.500001	0.700955
C36	C	1.794187	-0.000001	1.200955
C37	C	1.176797	-0.488834	0.685339
C38	C	1.676797	0.011166	1.185339
C39	C	1.129792	-0.531978	0.745668
C40	C	1.629792	-0.031978	1.245668
C41	C	1.008463	-0.520437	0.729530
C42	C	1.508463	-0.020437	1.229530
C43	C	1.554761	-0.757528	0.751189
C44	C	2.054761	-0.257528	1.251189
C45	C	1.548945	-0.856519	0.757085
C46	C	2.048945	-0.356519	1.257085
C47	C	1.655234	-1.068179	0.651199
C48	C	2.155234	-0.568179	1.151199
C49	C	1.649773	-1.161191	0.656736
C50	C	2.149773	-0.661191	1.156736
C51	C	1.532568	-1.135555	0.773702
C52	C	2.032568	-0.635555	1.273702
C53	C	1.538029	-1.042544	0.768165
C54	C	2.038029	-0.542544	1.268165
C55	C	1.599363	-1.008860	0.706910
C56	C	2.099363	-0.508860	1.206910
C57	C	1.604818	-0.915846	0.701367
C58	C	2.104818	-0.415846	1.201367
C59	C	1.487620	-0.890213	0.818339
C60	C	1.987620	-0.390213	1.318339
C61	C	1.482158	-0.983224	0.823876
C62	C	1.982158	-0.483224	1.323876
C63	C	1.844070	-0.552400	0.774225
C64	C	2.344070	-0.052400	1.274225
C65	C	1.961462	-0.563587	0.789868
C66	C	2.461462	-0.063587	1.289868
C67	C	1.605348	-0.499984	1.013008
C68	C	2.105348	0.000016	1.513008
C69	C	1.621011	-0.488833	1.130406
C70	C	2.121011	0.011167	1.630406
C71	C	1.582510	-0.293867	0.723821
C72	C	2.082510	0.206133	1.223821
C73	C	1.588440	-0.194882	0.717985
C74	C	2.088440	0.305118	1.217985
C75	C	1.576748	-0.520349	1.298720
C76	C	2.076748	-0.020349	1.798720
C77	C	1.560557	-0.531874	1.177384
C78	C	2.060557	-0.031874	1.677384
C79	C	1.531970	-0.552233	1.463100
C80	C	2.031970	-0.052233	1.963100
C81	C	1.516303	-0.563384	1.345702
C82	C	2.016303	-0.063384	1.845702
H83	H	1.011038	-0.609065	0.853476
H84	H	1.511038	-0.109065	1.353476
O85	O	1.117722	-0.434444	0.609575
O86	O	1.617722	0.065556	1.109575
C87	C	1.153005	-0.346047	0.631111
C88	C	1.653005	0.153953	1.131111
H89	H	1.194940	-0.336511	0.719253
H90	H	1.694940	0.163489	1.219253
H91	H	1.081834	-0.296042	0.609911
H92	H	1.581834	0.203958	1.109911
H93	H	1.210772	-0.334105	0.581586
H94	H	1.710772	0.165895	1.081586
H95	H	1.496820	-0.577256	1.127781
H96	H	1.996820	-0.077256	1.627781
H97	H	1.654756	-0.888422	0.651487
H98	H	2.154756	-0.388422	1.151487
H99	H	1.640488	-0.474978	1.348328
H100	H	2.140488	0.025022	1.848328
H101	H	1.482641	-1.162998	0.823581
H102	H	1.982641	-0.662998	1.323581
H103	H	1.179373	-0.577455	0.809269
H104	H	1.679373	-0.077455	1.309269
O105	O	0.949163	-0.466249	0.653658
O106	O	1.449163	0.033751	1.153658
C107	C	0.841225	-0.466784	0.654439
C108	C	1.341225	0.033216	1.154439
H109	H	0.826777	-0.530866	0.691004
H110	H	1.326777	-0.030866	1.191004
H111	H	0.789029	-0.464202	0.569422
H112	H	1.289029	0.035798	1.069422
H113	H	0.820588	-0.405719	0.703521
H114	H	1.320588	0.094281	1.203521
O115	O	1.714887	-1.035602	0.591678
O116	O	2.214887	-0.535602	1.091678
C117	C	1.763001	-1.107906	0.543661
C118	C	2.263001	-0.607906	1.043661
H119	H	1.768511	-1.170428	0.591356
H120	H	2.268511	-0.670428	1.091356
H121	H	1.846308	-1.089959	0.541938
H122	H	2.346308	-0.589959	1.041938
H123	H	1.713092	-1.121797	0.458863
H124	H	2.213092	-0.621797	0.958863
O125	O	1.696912	-0.434576	1.189587
O126	O	2.196912	0.065424	1.689587
C127	C	1.648680	-0.365322	1.242009
C128	C	2.148680	0.134678	1.742009
H129	H	1.561412	-0.355046	1.197297
H130	H	2.061412	0.144954	1.697297
H131	H	1.691156	-0.300296	1.244405
H132	H	2.191156	0.199704	1.744405
H133	H	1.654472	-0.384624	1.326711
H134	H	2.154472	0.115376	1.826711
H135	H	1.442122	-0.841903	0.863699
H136	H	1.942122	-0.341903	1.363699
H137	H	1.695271	-1.209486	0.611372
H138	H	2.195271	-0.709486	1.111372
H139	H	1.432225	-1.010663	0.873752
H140	H	1.932225	-0.510663	1.373752
O141	O	1.440395	-0.617588	1.286434
O142	O	1.940395	-0.117588	1.786434
C143	C	1.488633	-0.686866	1.234054
C144	C	1.988633	-0.186866	1.734054
H145	H	1.568380	-0.664631	1.226454
H146	H	2.068380	-0.164631	1.726454
H147	H	1.434620	-0.702021	1.151411
H148	H	1.934620	-0.202021	1.651411
H149	H	1.501906	-0.749965	1.281938
H150	H	2.001906	-0.249965	1.781938
