data_functionalizedCrystal
_audit_creation_method	'MofGen! by Chris Wilmer'
_symmetry_space_group_name_H-M	'P1'
_symmetry_Int_Tables_number	1
_symmetry_cell_setting	triclinic
loop_
_symmetry_equiv_pos_as_xyz
  x,y,z
_cell_length_a	10.967926
_cell_length_b	11.026607
_cell_length_c	9.730223
_cell_angle_alpha	89.997552
_cell_angle_beta	102.125956
_cell_angle_gamma	96.380754
loop_
_atom_site_label
_atom_site_type_symbol
_atom_site_fract_x
_atom_site_fract_y
_atom_site_fract_z
O1	O	1.693960	0.170507	0.286919
O2	O	2.193960	0.670507	0.786919
O3	O	1.334337	0.186832	0.201742
O4	O	1.834337	0.686832	0.701742
O5	O	1.484344	0.001768	0.237276
O6	O	1.984344	0.501768	0.737276
O7	O	1.543954	0.355570	0.251385
O8	O	2.043954	0.855570	0.751385
O9	O	1.484330	0.001763	0.465853
O10	O	1.984330	0.501763	0.965853
O11	O	1.334324	0.186826	0.430319
O12	O	1.834324	0.686826	0.930319
O13	O	1.693947	0.170502	0.515496
O14	O	2.193947	0.670502	1.015496
Zn15	Zn	1.514133	0.178663	0.509199
Zn16	Zn	2.014133	0.678663	1.009199
Zn17	Zn	1.514151	0.178670	0.208039
Zn18	Zn	2.014151	0.678670	0.708039
O19	O	1.543941	0.355565	0.479962
O20	O	2.043941	0.855565	0.979962
C21	C	1.287576	0.185642	0.304957
C22	C	1.787576	0.685642	0.804957
C23	C	1.148257	0.182089	0.271959
C24	C	1.648257	0.682089	0.771959
C25	C	1.473340	-0.043537	0.348959
C26	C	1.973340	0.456463	0.848959
C27	C	1.440557	-0.178523	0.341189
C28	C	1.940557	0.321477	0.841189
C29	C	1.086137	0.180502	0.375657
C30	C	1.586137	0.680502	0.875657
C31	C	0.942144	0.176831	0.341555
C32	C	1.442144	0.676831	0.841555
C33	C	1.531076	-0.251576	0.362626
C34	C	2.031076	0.248424	0.862626
C35	C	1.497195	-0.391092	0.354597
C36	C	1.997195	0.108908	0.854597
C37	C	1.740709	0.171691	0.412279
C38	C	2.240709	0.671691	0.912279
C39	C	1.880027	0.175244	0.445268
C40	C	2.380027	0.675244	0.945268
C41	C	1.554944	0.400870	0.368277
C42	C	2.054944	0.900870	0.868277
C43	C	1.587727	0.535856	0.376037
C44	C	2.087727	1.035856	0.876037
N45	N	1.514130	0.178658	0.714735
N46	N	2.014130	0.678658	1.214735
N47	N	1.514162	0.178666	0.002506
N48	N	2.014162	0.678666	0.502506
C49	C	1.580589	0.096747	0.802404
C50	C	2.080589	0.596747	1.302404
C51	C	1.580602	0.096747	0.946290
C52	C	2.080602	0.596747	1.446290
C53	C	1.447694	0.260581	0.914824
C54	C	1.947694	0.760581	1.414824
C55	C	1.447675	0.260573	0.770940
C56	C	1.947675	0.760573	1.270940
H57	H	1.139556	0.181856	0.489683
H58	H	1.639556	0.681856	0.989683
F59	F	1.665156	-0.198327	0.394376
F60	F	2.165156	0.301673	0.894376
H61	H	0.888729	0.175467	0.227521
H62	H	1.388729	0.675467	0.727521
F63	F	1.078440	0.180303	0.122914
F64	F	1.578440	0.680303	0.622914
H65	H	1.690313	-0.423406	0.400232
H66	H	2.190313	0.076594	0.900232
F67	F	1.363108	-0.444336	0.322826
F68	F	1.863108	0.055664	0.822826
H69	H	1.337979	-0.219268	0.316884
H70	H	1.837979	0.280732	0.816884
H71	H	1.634699	0.030044	0.756646
H72	H	2.134699	0.530044	1.256646
H73	H	1.634717	0.030046	1.017667
H74	H	2.134717	0.530046	1.517667
F75	F	1.376975	0.347760	0.974653
F76	F	1.876975	0.847760	1.474653
H77	H	1.393550	0.327276	0.699552
H78	H	1.893550	0.827276	1.199552
H79	H	0.933440	0.176600	0.559302
H80	H	1.433440	0.676600	1.059302
