data_functionalizedCrystal
_audit_creation_method	'MofGen! by Chris Wilmer'
_symmetry_space_group_name_H-M	'P1'
_symmetry_Int_Tables_number	1
_symmetry_cell_setting	triclinic
loop_
_symmetry_equiv_pos_as_xyz
  x,y,z
_cell_length_a	16.959455
_cell_length_b	16.625545
_cell_length_c	16.959447
_cell_angle_alpha	90.029927
_cell_angle_beta	90.020374
_cell_angle_gamma	90.022578
loop_
_atom_site_label
_atom_site_type_symbol
_atom_site_fract_x
_atom_site_fract_y
_atom_site_fract_z
Zn1	Zn	1.208354	-0.321050	0.447038
Zn2	Zn	1.708354	0.178950	0.947038
Zn3	Zn	1.208264	-0.455897	0.314861
Zn4	Zn	1.708264	0.044103	0.814861
Zn5	Zn	1.076182	-0.321075	0.314862
Zn6	Zn	1.576182	0.178925	0.814862
Zn7	Zn	1.076134	-0.455837	0.446985
Zn8	Zn	1.576134	0.044163	0.946985
O9	O	1.142233	-0.388465	0.380937
O10	O	1.642233	0.111535	0.880937
O11	O	1.318953	-0.338952	0.429527
O12	O	1.818953	0.161048	0.929527
O13	O	1.190725	-0.438049	0.204250
O14	O	1.690725	0.061951	0.704250
O15	O	1.093773	-0.208239	0.332418
O16	O	1.593773	0.291761	0.832418
O17	O	1.318886	-0.438024	0.332416
O18	O	1.818886	0.061976	0.832416
O19	O	1.190879	-0.208221	0.429528
O20	O	1.690879	0.291779	0.929528
O21	O	1.093685	-0.338995	0.204251
O22	O	1.593685	0.161005	0.704251
O23	O	0.965565	-0.338937	0.332367
O24	O	1.465565	0.161063	0.832367
O25	O	1.093691	-0.437921	0.557603
O26	O	1.593691	0.062079	1.057603
O27	O	0.965530	-0.437946	0.429437
O28	O	1.465530	0.062054	0.929437
O29	O	1.190832	-0.338894	0.557642
O30	O	1.690832	0.161106	1.057642
O31	O	1.190679	-0.568722	0.332365
O32	O	1.690679	-0.068722	0.832365
O33	O	1.093604	-0.568677	0.429436
O34	O	1.593604	-0.068677	0.929436
C35	C	0.936867	-0.388439	0.380897
C36	C	1.436867	0.111561	0.880897
C37	C	0.849011	-0.388447	0.380899
C38	C	1.349011	0.111553	0.880899
C39	C	1.142148	-0.597956	0.380912
C40	C	1.642148	-0.097956	0.880912
C41	C	1.142183	-0.687577	0.380928
C42	C	1.642183	-0.187577	0.880928
C43	C	0.477490	-0.440000	0.330346
C44	C	0.977490	0.060000	0.830346
C45	C	0.477580	-0.336996	0.431624
C46	C	0.977580	0.163004	0.931624
C47	C	0.560126	-0.336983	0.431605
C48	C	1.060126	0.163017	0.931605
C49	C	0.601358	-0.388480	0.380956
C50	C	1.101358	0.111520	0.880956
C51	C	0.560043	-0.439990	0.330326
C52	C	1.060043	0.060010	0.830326
C53	C	0.601446	-0.285479	0.482239
C54	C	1.101446	0.214521	0.982239
C55	C	0.683997	-0.285464	0.482223
C56	C	1.183997	0.214536	0.982223
C57	C	0.725230	-0.336958	0.431569
C58	C	1.225230	0.163042	0.931569
C59	C	0.683911	-0.388470	0.380937
C60	C	1.183911	0.111530	0.880937
C61	C	0.725143	-0.439967	0.330288
C62	C	1.225143	0.060033	0.830288
C63	C	0.683825	-0.491476	0.279651
C64	C	1.183825	0.008524	0.779651
C65	C	0.601276	-0.491484	0.279673
C66	C	1.101276	0.008516	0.779673
C67	C	0.807779	-0.336950	0.431547
C68	C	1.307779	0.163050	0.931547
C69	C	0.807696	-0.439957	0.330269
C70	C	1.307696	0.060043	0.830269
C71	C	1.142214	-0.760359	0.380943
C72	C	1.642214	-0.260359	0.880943
C73	C	1.142260	-0.851668	0.380961
C74	C	1.642260	-0.351668	0.880961
C75	C	1.142301	-0.924444	0.380971
C76	C	1.642301	-0.424444	0.880971
C77	C	1.142346	-1.015758	0.380987
C78	C	1.642346	-0.515758	0.880987
C79	C	1.348402	-0.388492	0.380977
C80	C	1.848402	0.111508	0.880977
C81	C	1.436258	-0.388503	0.380994
C82	C	1.936258	0.111497	0.880994
C83	C	1.142266	-0.388398	0.587105
C84	C	1.642266	0.111602	1.087105
C85	C	1.142280	-0.388370	0.674962
C86	C	1.642280	0.111630	1.174962
C87	C	1.142341	-0.178156	0.380979
C88	C	1.642341	0.321844	0.880979
C89	C	1.142387	-0.088535	0.380997
C90	C	1.642387	0.411465	0.880997
C91	C	1.142246	-0.388473	0.175570
C92	C	1.642246	0.111527	0.675570
C93	C	1.142385	-0.388274	0.087714
C94	C	1.642385	0.111726	0.587714
C95	C	1.091798	-0.439844	1.046420
C96	C	1.591798	0.060156	1.546420
C97	C	1.192952	-0.336726	1.046455
C98	C	1.692952	0.163274	1.546455
C99	C	1.192931	-0.336743	0.963909
C100	C	1.692931	0.163257	1.463909
C101	C	1.142343	-0.388312	0.922615
C102	C	1.642343	0.111688	1.422615
C103	C	1.091777	-0.439864	0.963866
C104	C	1.591777	0.060136	1.463866
C105	C	1.243502	-0.285197	0.922652
C106	C	1.743502	0.214803	1.422652
C107	C	1.243483	-0.285213	0.840101
C108	C	1.743483	0.214787	1.340101
C109	C	1.192891	-0.336779	0.798805
C110	C	1.692891	0.163221	1.298805
C111	C	1.142322	-0.388332	0.840061
C112	C	1.642322	0.111668	1.340061
C113	C	1.091735	-0.439902	0.798767
C114	C	1.591735	0.060098	1.298767
C115	C	1.041161	-0.491452	0.840021
C116	C	1.541161	0.008548	1.340021
C117	C	1.041185	-0.491430	0.922570
C118	C	1.541185	0.008570	1.422570
C119	C	1.192868	-0.336800	0.716256
C120	C	1.692868	0.163200	1.216256
C121	C	1.091714	-0.439922	0.716213
C122	C	1.591714	0.060078	1.216213
H123	H	0.717406	-0.533409	0.238417
H124	H	1.217406	-0.033409	0.738417
H125	H	1.050512	-0.481909	0.682597
H126	H	1.550512	0.018091	1.182597
H127	H	0.841261	-0.481890	0.289021
H128	H	1.341261	0.018110	0.789021
N129	N	1.040123	-0.492486	1.088549
N130	N	1.540123	0.007514	1.588549
N131	N	0.967189	-0.487114	1.079315
N132	N	1.467189	0.012886	1.579315
H133	H	0.930689	-0.524288	1.109072
H134	H	1.430689	-0.024288	1.609072
H135	H	1.284663	-0.243237	0.806518
H136	H	1.784663	0.256763	1.306518
H137	H	0.717631	-0.243523	0.523454
H138	H	1.217631	0.256477	1.023454
N139	N	0.435456	-0.284419	0.483371
N140	N	0.935456	0.215581	0.983371
N141	N	0.389420	-0.312876	0.533696
N142	N	0.889420	0.187124	1.033696
H143	H	0.359663	-0.275745	0.570245
H144	H	0.859663	0.224255	1.070245
N145	N	0.559319	-0.232892	0.533974
N146	N	1.059319	0.267108	1.033974
N147	N	0.485615	-0.232909	0.533980
N148	N	0.985615	0.267091	1.033980
H149	H	0.455858	-0.195768	0.570519
H150	H	0.955858	0.304232	1.070519
H151	H	0.999976	-0.533443	0.806389
H152	H	1.499976	-0.033443	1.306389
H153	H	0.567628	-0.533419	0.238447
H154	H	1.067628	-0.033419	0.738447
H155	H	1.234142	-0.294745	1.080082
H156	H	1.734142	0.205255	1.580082
N157	N	0.435278	-0.492602	0.278623
N158	N	0.935278	0.007398	0.778623
N159	N	0.361575	-0.492604	0.278639
N160	N	0.861575	0.007396	0.778639
H161	H	0.331761	-0.529753	0.242110
H162	H	0.831761	-0.029753	0.742110
N163	N	0.849971	-0.284341	0.483273
N164	N	1.349971	0.215659	0.983273
N165	N	0.813148	-0.238370	0.528495
N166	N	1.313148	0.261630	1.028495
H167	H	0.842945	-0.201210	0.565029
H168	H	1.342945	0.298790	1.065029
H169	H	1.000013	-0.533402	0.956167
H170	H	1.500013	-0.033402	1.456167
H171	H	1.234046	-0.294831	0.682670
H172	H	1.734046	0.205169	1.182670
N173	N	1.295176	-0.232538	0.964844
N174	N	1.795176	0.267462	1.464844
N175	N	1.295185	-0.232530	1.038548
N176	N	1.795185	0.267470	1.538548
H177	H	1.331682	-0.195338	1.068350
H178	H	1.831682	0.304662	1.568350
