data_functionalizedCrystal
_audit_creation_method	'MofGen! by Chris Wilmer'
_symmetry_space_group_name_H-M	'P1'
_symmetry_Int_Tables_number	1
_symmetry_cell_setting	triclinic
loop_
_symmetry_equiv_pos_as_xyz
  x,y,z
_cell_length_a	12.645331
_cell_length_b	19.121063
_cell_length_c	12.645324
_cell_angle_alpha	92.401246
_cell_angle_beta	89.981704
_cell_angle_gamma	92.469212
loop_
_atom_site_label
_atom_site_type_symbol
_atom_site_fract_x
_atom_site_fract_y
_atom_site_fract_z
Zn1	Zn	1.602662	-0.279551	-0.617253
Zn2	Zn	2.102662	0.220449	-0.117253
Zn3	Zn	1.594948	-0.397024	-0.447531
Zn4	Zn	2.094948	0.102976	0.052469
Zn5	Zn	1.425373	-0.279592	-0.440014
Zn6	Zn	1.925373	0.220408	0.059986
Zn7	Zn	1.417767	-0.396966	-0.624757
Zn8	Zn	1.917767	0.103034	-0.124757
O9	O	1.510188	-0.338283	-0.532389
O10	O	2.010188	0.161717	-0.032389
O11	O	1.749985	-0.295141	-0.594744
O12	O	2.249985	0.204859	-0.094744
O13	O	1.572408	-0.381487	-0.298189
O14	O	2.072408	0.118513	0.201811
O15	O	1.455302	-0.181303	-0.457239
O16	O	1.955302	0.318697	0.042761
O17	O	1.744318	-0.381447	-0.470050
O18	O	2.244318	0.118553	0.029950
O19	O	1.585555	-0.181273	-0.587455
O20	O	2.085555	0.318727	-0.087455
O21	O	1.447822	-0.295211	-0.292667
O22	O	1.947822	0.204789	0.207333
O23	O	1.276017	-0.295155	-0.464516
O24	O	1.776017	0.204845	0.035484
O25	O	1.442339	-0.381350	-0.772107
O26	O	1.942339	0.118650	-0.272107
O27	O	1.270430	-0.381390	-0.600246
O28	O	1.770430	0.118610	-0.100246
O29	O	1.578180	-0.295086	-0.766593
O30	O	2.078180	0.204914	-0.266593
O31	O	1.565034	-0.495300	-0.477327
O32	O	2.065034	0.004700	0.022673
O33	O	1.434860	-0.495258	-0.607534
O34	O	1.934860	0.004742	-0.107534
C35	C	1.234759	-0.338271	-0.532380
C36	C	1.734759	0.161729	-0.032380
C37	C	1.116928	-0.338283	-0.532402
C38	C	1.616928	0.161717	-0.032402
C39	C	1.068560	-0.392626	-0.617676
C40	C	1.568560	0.107374	-0.117676
C41	C	0.945986	-0.392849	-0.617448
C42	C	1.445986	0.107151	-0.117448
C43	C	0.947695	-0.358061	-0.421815
C44	C	1.447695	0.141939	0.078185
C45	C	1.070268	-0.358444	-0.422313
C46	C	1.570268	0.141556	0.077687
C47	C	1.076581	-0.264048	-0.556731
C48	C	1.576581	0.235952	-0.056731
C49	C	0.953949	-0.264457	-0.559220
C50	C	1.453949	0.235543	-0.059220
C51	C	1.498313	-0.520763	-0.544084
C52	C	1.998313	-0.020763	-0.044084
C53	C	1.493330	-0.598828	-0.549122
C54	C	1.993330	-0.098828	-0.049122
C55	C	1.558817	-0.635502	-0.483754
C56	C	2.058817	-0.135502	0.016246
C57	C	1.554137	-0.708853	-0.488499
C58	C	2.054137	-0.208853	0.011501
C59	C	1.483964	-0.745529	-0.558608
C60	C	1.983964	-0.245529	-0.058608
C61	C	1.418475	-0.708850	-0.623983
C62	C	1.918475	-0.208850	-0.123983
C63	C	1.423161	-0.635500	-0.619243
C64	C	1.923161	-0.135500	-0.119243
C65	C	1.466426	-0.966997	-0.576314
C66	C	1.966426	-0.466997	-0.076314
C67	C	1.461743	-1.040352	-0.581047
C68	C	1.961743	-0.540352	-0.081047
C69	C	1.597406	-1.040350	-0.445563
C70	C	2.097406	-0.540350	0.054437
C71	C	1.602082	-0.966999	-0.440825
C72	C	2.102082	-0.466999	0.059175
C73	C	1.536597	-0.930327	-0.506204
C74	C	2.036597	-0.430327	-0.006204
C75	C	1.479176	-0.820505	-0.563457
C76	C	1.979176	-0.320505	-0.063457
C77	C	1.541391	-0.855351	-0.501359
C78	C	2.041391	-0.355351	-0.001359
C79	C	1.786692	-0.338296	-0.532399
C80	C	2.286692	0.161704	-0.032399
C81	C	1.904522	-0.338301	-0.532403
C82	C	2.404522	0.161699	-0.032403
C83	C	1.510272	-0.338207	-0.808889
C84	C	2.010272	0.161793	-0.308889
C85	C	1.510308	-0.338174	-0.926718
C86	C	2.010308	0.161826	-0.426718
C87	C	1.522137	-0.155091	-0.520672
C88	C	2.022137	0.344909	-0.020672
C89	C	1.527229	-0.077026	-0.515679
C90	C	2.027229	0.422974	-0.015679
C91	C	1.596074	-0.284063	-1.090823
C92	C	2.096074	0.215937	-0.590823
C93	C	1.595823	-0.283867	-0.968251
C94	C	2.095823	0.216133	-0.468251
C95	C	1.399926	-0.318062	-0.969914
C96	C	1.899926	0.181938	-0.469914
C97	C	1.400452	-0.317651	-1.092486
C98	C	1.900452	0.182349	-0.592486
C99	C	1.534012	-0.412478	-1.098681
C100	C	2.034012	0.087522	-0.598681
C101	C	1.536480	-0.412104	-0.976052
C102	C	2.036480	0.087896	-0.476052
C103	C	1.510168	-0.338309	-0.256961
C104	C	2.010168	0.161691	0.243039
C105	C	1.510350	-0.338143	-0.139121
C106	C	2.010350	0.161857	0.360879
H107	H	1.108704	-0.245995	-0.635763
H108	H	1.608704	0.254005	-0.135763
N109	N	0.904689	-0.461857	-0.597631
N110	N	1.404689	0.038143	-0.097631
N111	N	0.847555	-0.471933	-0.518564
N112	N	1.347555	0.028067	-0.018564
H113	H	0.818391	-0.520673	-0.504560
H114	H	1.318391	-0.020673	-0.004560
H115	H	1.677823	-0.296463	-0.938982
H116	H	2.177823	0.203537	-0.438982
H117	H	1.369837	-0.605641	-0.672475
H118	H	1.869837	-0.105641	-0.172475
H119	H	1.334665	-0.355328	-1.124556
H120	H	1.834665	0.144672	-0.624556
H121	H	0.926080	-0.221832	-0.501306
H122	H	1.426080	0.278168	-0.001306
N123	N	1.399545	-0.929549	-0.643111
N124	N	1.899545	-0.429549	-0.143111
N125	N	1.406013	-0.937694	-0.741460
N126	N	1.906013	-0.437694	-0.241460
H127	H	1.358775	-0.911245	-0.788642
H128	H	1.858775	-0.411245	-0.288642
N129	N	0.914246	-0.309928	-0.340188
N130	N	1.414246	0.190072	0.159812
N131	N	0.858079	-0.260407	-0.362662
N132	N	1.358079	0.239593	0.137338
H133	H	0.834454	-0.226412	-0.305015
H134	H	1.334454	0.273588	0.194985
N135	N	1.116256	-0.213266	-0.478745
N136	N	1.616256	0.286734	0.021255
N137	N	1.174000	-0.231572	-0.405531
N138	N	1.674000	0.268428	0.094469
H139	H	1.202026	-0.195713	-0.350449
H140	H	1.702026	0.304287	0.149551
H141	H	1.361344	-0.738717	-0.681072
H142	H	1.861344	-0.238717	-0.181072
N143	N	1.613064	-0.817903	-0.429731
N144	N	2.113064	-0.317903	0.070269
N145	N	1.671527	-0.850651	-0.371359
N146	N	2.171527	-0.350651	0.128641
H147	H	1.722144	-0.824198	-0.320767
H148	H	2.222144	-0.324198	0.179233
N149	N	1.630495	-0.598053	-0.412123
N150	N	2.130495	-0.098053	0.087877
N151	N	1.688958	-0.630810	-0.353764
N152	N	2.188958	-0.130810	0.146236
H153	H	1.739585	-0.604364	-0.303173
H154	H	2.239585	-0.104364	0.196827
H155	H	1.650722	-1.070217	-0.392336
H156	H	2.150722	-0.570217	0.107664
H157	H	1.580535	-0.228802	-0.935406
H158	H	2.080535	0.271198	-0.435406
H159	H	1.422040	-0.850375	-0.620538
H160	H	1.922040	-0.350375	-0.120538
N161	N	0.909284	-0.377412	-0.720496
N162	N	1.409284	0.122588	-0.220496
N163	N	0.849820	-0.420728	-0.771055
N164	N	1.349820	0.079272	-0.271055
H165	H	0.823907	-0.409833	-0.843841
H166	H	1.323907	0.090167	-0.343841
H167	H	0.913496	-0.411727	-0.400251
H168	H	1.413496	0.088273	0.099749
H169	H	1.334524	-0.356242	-0.943202
H170	H	1.834524	0.143758	-0.443202
N171	N	1.101693	-0.426508	-0.395828
N172	N	1.601693	0.073492	0.104172
N173	N	1.033121	-0.473397	-0.377107
N174	N	1.533121	0.026603	0.122893
H175	H	1.055308	-0.521470	-0.358402
H176	H	1.555308	-0.021470	0.141598
H177	H	1.678359	-0.296500	-1.121107
H178	H	2.178359	0.203500	-0.621107
H179	H	1.607462	-0.738710	-0.435268
H180	H	2.107462	-0.238710	0.064732
H181	H	1.404613	-1.070211	-0.638157
H182	H	1.904613	-0.570211	-0.138157
H183	H	0.925865	-0.249552	-0.640584
H184	H	1.425865	0.250448	-0.140584
N185	N	1.374579	-0.249485	-1.123996
N186	N	1.874579	0.250515	-0.623996
N187	N	1.356261	-0.202545	-1.055483
N188	N	1.856261	0.297455	-0.555483
H189	H	1.337988	-0.154401	-1.077731
H190	H	1.837988	0.345599	-0.577731
N191	N	1.673764	-0.929549	-0.369199
N192	N	2.173764	-0.429549	0.130801
N193	N	1.732229	-0.962303	-0.310838
N194	N	2.232229	-0.462303	0.189162
H195	H	1.782854	-0.935854	-0.260248
H196	H	2.282854	-0.435854	0.239752
N197	N	1.110553	-0.310919	-0.340186
N198	N	1.610553	0.189081	0.159814
N199	N	1.048132	-0.277578	-0.282680
N200	N	1.548132	0.222422	0.217320
H201	H	1.076578	-0.244013	-0.224677
H202	H	1.576578	0.255987	0.275323
N203	N	1.373466	-0.250656	-0.927084
N204	N	1.873466	0.249344	-0.427084
N205	N	1.435717	-0.217313	-0.864752
N206	N	1.935717	0.282687	-0.364752
H207	H	1.417036	-0.169705	-0.834502
H208	H	1.917036	0.330295	-0.334502
H209	H	1.581008	-0.229302	-1.118134
H210	H	2.081008	0.270698	-0.618134
H211	H	1.612843	-0.430788	-1.130835
H212	H	2.112843	0.069212	-0.630835
N213	N	1.638366	-0.431105	-0.940795
N214	N	2.138366	0.068895	-0.440795
N215	N	1.655783	-0.436233	-0.844192
N216	N	2.155783	0.063767	-0.344192
H217	H	1.727747	-0.449641	-0.819290
H218	H	2.227747	0.050359	-0.319290
N219	N	1.463347	-0.465366	-0.941034
N220	N	1.963347	0.034634	-0.441034
N221	N	1.390417	-0.449635	-0.878874
N222	N	1.890417	0.050365	-0.378874
H223	H	1.338753	-0.487249	-0.854149
H224	H	1.838753	0.012751	-0.354149
H225	H	1.471521	-0.452774	-1.130264
H226	H	1.971521	0.047226	-0.630264
H227	H	1.098867	-0.380440	-0.700078
H228	H	1.598867	0.119560	-0.200078
H229	H	1.095802	-0.447322	-0.602119
H230	H	1.595802	0.052678	-0.102119
