data_functionalizedCrystal
_audit_creation_method	'MofGen! by Chris Wilmer'
_symmetry_space_group_name_H-M	'P1'
_symmetry_Int_Tables_number	1
_symmetry_cell_setting	triclinic
loop_
_symmetry_equiv_pos_as_xyz
  x,y,z
_cell_length_a	16.959454
_cell_length_b	18.215407
_cell_length_c	18.215398
_cell_angle_alpha	90.018192
_cell_angle_beta	89.978830
_cell_angle_gamma	89.988189
loop_
_atom_site_label
_atom_site_type_symbol
_atom_site_fract_x
_atom_site_fract_y
_atom_site_fract_z
Zn1	Zn	-0.314884	-1.125094	-0.416113
Zn2	Zn	-0.447063	-1.125013	-0.293055
Zn3	Zn	-0.314884	-1.002027	-0.293063
Zn4	Zn	-0.447005	-1.002003	-0.416083
O5	O	-0.380959	-1.063534	-0.354578
O6	O	-0.332442	-1.228067	-0.399798
O7	O	-0.429554	-1.108676	-0.190072
O8	O	-0.204273	-1.018396	-0.309401
O9	O	-0.429554	-1.228008	-0.309389
O10	O	-0.204273	-1.108813	-0.399805
O11	O	-0.332442	-1.018318	-0.190077
O12	O	-0.332385	-0.899040	-0.309372
O13	O	-0.429454	-1.018354	-0.519071
O14	O	-0.429454	-0.899022	-0.399755
O15	O	-0.332385	-1.108789	-0.519093
O16	O	-0.557666	-1.108652	-0.309360
O17	O	-0.557624	-1.018276	-0.399748
C18	C	-0.380914	-0.872328	-0.354562
C19	C	-0.380914	-0.790529	-0.354572
C20	C	-0.330462	-0.525497	-0.401723
C21	C	-0.330453	-0.602355	-0.401721
C22	C	-0.431429	-0.602313	-0.307437
C23	C	-0.431441	-0.525456	-0.307443
C24	C	-0.380953	-0.487050	-0.354584
C25	C	-0.380932	-0.640766	-0.354578
C26	C	-0.380923	-0.724099	-0.354576
C27	C	-0.380963	-0.403711	-0.354587
C28	C	-0.586325	-1.063473	-0.354566
C29	C	-0.674182	-1.063514	-0.354585
C30	C	-1.045665	-1.016544	-0.401638
C31	C	-1.045650	-1.110729	-0.307593
C32	C	-0.963104	-1.110704	-0.307587
C33	C	-0.921835	-1.063597	-0.354606
C34	C	-0.963111	-1.016515	-0.401631
C35	C	-0.921821	-1.157779	-0.260556
C36	C	-0.839270	-1.157755	-0.260547
C37	C	-0.797999	-1.110651	-0.307571
C38	C	-0.839281	-1.063568	-0.354599
C39	C	-0.798012	-1.016461	-0.401618
C40	C	-0.839292	-0.969381	-0.448650
C41	C	-0.921841	-0.969411	-0.448655
C42	C	-0.715451	-1.110621	-0.307566
C43	C	-0.715458	-1.016432	-0.401611
C44	C	-0.174791	-1.063616	-0.354607
C45	C	-0.086934	-1.063651	-0.354619
C46	C	-0.380913	-1.063578	-0.546531
C47	C	-0.380894	-1.063596	-0.628330
C48	C	-0.380991	-0.255487	-0.354593
C49	C	-0.380972	-0.337286	-0.354590
C50	C	-0.431363	-1.110679	-0.893390
C51	C	-0.431390	-1.110668	-0.816531
C52	C	-0.330273	-1.016569	-0.816520
C53	C	-0.330250	-1.016577	-0.893377
C54	C	-0.380794	-1.063636	-0.931810
C55	C	-0.380844	-1.063617	-0.778094
C56	C	-0.380873	-1.063605	-0.694760
C57	C	-0.380766	-1.063648	-1.015149
C58	C	-0.380947	-1.063533	-0.163372
C59	C	-0.380744	-1.063657	-0.081574
H60	H	-0.289339	-0.633656	-0.440107
H61	H	-0.681862	-0.978074	-0.439903
C62	C	-0.469768	-0.625919	-0.182762
C63	C	-0.486922	-0.644528	-0.255616
H64	H	-0.504031	-0.651976	-0.150770
H65	H	-0.416650	-0.638519	-0.172075
H66	H	-0.477001	-0.574641	-0.176031
H67	H	-0.479683	-0.695805	-0.262348
H68	H	-0.540052	-0.631933	-0.266307
C69	C	-0.469886	-1.235286	-0.917069
C70	C	-0.486926	-1.162401	-0.935634
H71	H	-0.504195	-1.267215	-0.943144
H72	H	-0.416784	-1.246072	-0.929677
H73	H	-0.477137	-1.242001	-0.865795
H74	H	-0.479669	-1.155684	-0.986907
H75	H	-0.540042	-1.151611	-0.923031
C76	C	-1.071045	-1.235366	-0.271843
C77	C	-1.091027	-1.162492	-0.255909
H78	H	-1.099064	-1.267318	-0.239930
H79	H	-1.084543	-1.246110	-0.321294
H80	H	-1.015976	-1.242095	-0.265098
H81	H	-1.146095	-1.155762	-0.262659
H82	H	-1.077534	-1.151745	-0.206446
H83	H	-1.079279	-0.978215	-0.439933
C84	C	-0.947308	-0.844782	-0.484396
C85	C	-0.967213	-0.917660	-0.500347
H86	H	-0.975318	-0.812834	-0.516312
H87	H	-0.960870	-0.834051	-0.434947
H88	H	-0.892238	-0.838034	-0.491125
H89	H	-1.022283	-0.924409	-0.493613
H90	H	-0.953657	-0.928395	-0.549809
C91	C	-0.565243	-0.501772	-0.271387
C92	C	-0.486946	-0.483191	-0.255623
H93	H	-0.599508	-0.475683	-0.239395
H94	H	-0.576873	-0.489193	-0.320811
H95	H	-0.572450	-0.553043	-0.264633
H96	H	-0.479738	-0.431920	-0.262382
H97	H	-0.475312	-0.495765	-0.206187
C98	C	-0.537747	-1.120850	-0.730101
C99	C	-0.486977	-1.162380	-0.774300
H100	H	-0.572069	-1.152777	-0.704035
H101	H	-0.507650	-1.092833	-0.696213
H102	H	-0.567964	-1.088782	-0.760085
H103	H	-0.456756	-1.194444	-0.744316
H104	H	-0.517077	-1.190409	-0.808192
C105	C	-0.723731	-1.203712	-0.214599
C106	C	-0.670076	-1.162363	-0.255871
H107	H	-0.695717	-1.235659	-0.182687
H108	H	-0.755960	-1.171672	-0.186428
H109	H	-0.755898	-1.231857	-0.246696
H110	H	-0.637913	-1.134214	-0.223775
H111	H	-0.637834	-1.194407	-0.284045
H112	H	-0.805682	-0.931023	-0.486930
C113	C	-0.947267	-1.282406	-0.224777
C114	C	-0.967225	-1.209520	-0.208871
H115	H	-0.975311	-1.314339	-0.192863
H116	H	-0.960751	-1.293160	-0.274230
H117	H	-0.892204	-1.289153	-0.218013
H118	H	-1.022288	-1.202773	-0.215641
H119	H	-0.953746	-1.198763	-0.159407
C120	C	-0.224160	-0.439078	-0.412121
C121	C	-0.274972	-0.483281	-0.453546
H122	H	-0.189900	-0.413022	-0.444118
H123	H	-0.254230	-0.405181	-0.384055
H124	H	-0.193878	-0.469059	-0.380104
H125	H	-0.305258	-0.453300	-0.485559
H126	H	-0.244899	-0.517182	-0.481624
H127	H	-0.805664	-1.196090	-0.222252
C128	C	-0.319234	-0.917590	-0.979781
C129	C	-0.274664	-0.964858	-0.935611
H130	H	-0.284921	-0.885657	-1.005850
H131	H	-0.349324	-0.945614	-1.013668
H132	H	-0.353676	-0.889433	-0.949778
H133	H	-0.240226	-0.993019	-0.965615
H134	H	-0.244560	-0.936830	-0.901720
C135	C	-0.285402	-0.974781	-0.698697
C136	C	-0.274709	-0.964851	-0.774271
H137	H	-0.251093	-0.942856	-0.672618
H138	H	-0.338506	-0.963988	-0.686097
H139	H	-0.273847	-1.024234	-0.686123
H140	H	-0.286270	-0.915400	-0.786847
H141	H	-0.221594	-0.975639	-0.786877
