data_functionalizedCrystal
_audit_creation_method	'MofGen! by Chris Wilmer'
_symmetry_space_group_name_H-M	'P1'
_symmetry_Int_Tables_number	1
_symmetry_cell_setting	triclinic
loop_
_symmetry_equiv_pos_as_xyz
  x,y,z
_cell_length_a	11.169417
_cell_length_b	18.215405
_cell_length_c	11.169409
_cell_angle_alpha	89.961333
_cell_angle_beta	89.980487
_cell_angle_gamma	90.025070
loop_
_atom_site_label
_atom_site_type_symbol
_atom_site_fract_x
_atom_site_fract_y
_atom_site_fract_z
Zn1	Zn	1.834850	-0.292900	-0.678480
Zn2	Zn	2.168183	0.040433	-0.345147
Zn3	Zn	2.501517	0.373766	-0.011813
Zn4	Zn	1.834692	-0.415991	-0.477775
Zn5	Zn	2.168025	-0.082658	-0.144441
Zn6	Zn	2.501359	0.250675	0.188892
Zn7	Zn	1.634136	-0.292946	-0.477815
Zn8	Zn	1.967469	0.040388	-0.144482
Zn9	Zn	2.300802	0.373721	0.188851
Zn10	Zn	1.634096	-0.415932	-0.678421
Zn11	Zn	1.967429	-0.082599	-0.345087
Zn12	Zn	2.300763	0.250734	-0.011754
O13	O	1.734443	-0.354442	-0.578123
O14	O	2.067777	-0.021109	-0.244789
O15	O	2.401110	0.312224	0.088544
O16	O	2.002779	-0.309234	-0.651864
O17	O	2.336112	0.024099	-0.318530
O18	O	2.669445	0.357433	0.014803
O19	O	1.808038	-0.399713	-0.309830
O20	O	2.141372	-0.066380	0.023503
O21	O	2.474705	0.266954	0.356836
O22	O	1.660844	-0.189955	-0.504476
O23	O	1.994177	0.143378	-0.171143
O24	O	2.327510	0.476711	0.162191
O25	O	2.002663	-0.399669	-0.504406
O26	O	2.335996	-0.066335	-0.171073
O27	O	2.669329	0.266998	0.162260
O28	O	1.808307	-0.189922	-0.651903
O29	O	2.141641	0.143411	-0.318570
O30	O	2.474974	0.476745	0.014763
O31	O	1.660691	-0.309312	-0.309860
O32	O	1.994024	0.024021	0.023473
O33	O	2.327357	0.357355	0.356806
O34	O	1.466181	-0.309255	-0.504418
O35	O	1.799514	0.024079	-0.171085
O36	O	2.132847	0.357412	0.162248
O37	O	1.660776	-0.399568	-0.846378
O38	O	1.994109	-0.066235	-0.513045
O39	O	2.327443	0.267099	-0.179712
O40	O	1.466152	-0.399612	-0.651802
O41	O	1.799485	-0.066279	-0.318469
O42	O	2.132818	0.267055	0.014865
O43	O	1.808269	-0.309177	-0.846422
O44	O	2.141602	0.024157	-0.513089
O45	O	2.474936	0.357490	-0.179755
O46	O	1.808000	-0.518968	-0.504349
O47	O	2.141333	-0.185634	-0.171016
O48	O	2.474667	0.147699	0.162318
O49	O	1.660623	-0.518924	-0.651763
O50	O	1.993956	-0.185591	-0.318429
O51	O	2.327290	0.147742	0.014904
C52	C	1.422619	-0.354432	-0.578109
C53	C	1.755952	-0.021099	-0.244776
C54	C	2.089285	0.312234	0.088558
C55	C	1.289219	-0.354446	-0.578132
C56	C	1.622552	-0.021113	-0.244798
C57	C	1.955885	0.312221	0.088535
C58	C	1.734322	-0.545649	-0.578071
C59	C	2.067656	-0.212315	-0.244738
C60	C	2.400989	0.121018	0.088596
C61	C	1.734381	-0.627448	-0.578089
C62	C	2.067714	-0.294114	-0.244756
C63	C	2.401047	0.039219	0.088577
C64	C	1.811345	-0.892503	-0.501493
C65	C	2.144678	-0.559170	-0.168160
C66	C	2.478011	-0.225837	0.165174
C67	C	1.811295	-0.815644	-0.501465
C68	C	2.144628	-0.482311	-0.168132
C69	C	2.477962	-0.148978	0.165201
C70	C	1.657691	-0.815640	-0.654834
C71	C	1.991024	-0.482307	-0.321500
C72	C	2.324357	-0.148974	0.011833
C73	C	1.657735	-0.892498	-0.654854
C74	C	1.991068	-0.559164	-0.321521
C75	C	2.324402	-0.225831	0.011812
C76	C	1.734569	-0.930927	-0.578186
C77	C	2.067902	-0.597594	-0.244852
C78	C	2.401235	-0.264260	0.088481
C79	C	1.734475	-0.777211	-0.578138
C80	C	2.067808	-0.443878	-0.244804
C81	C	2.401142	-0.110544	0.088529
C82	C	1.734421	-0.693877	-0.578108
C83	C	2.067754	-0.360544	-0.244775
C84	C	2.401088	-0.027211	0.088558
C85	C	1.734622	-1.014266	-0.578213
C86	C	2.067955	-0.680933	-0.244880
C87	C	2.401288	-0.347599	0.088454
C88	C	2.047486	-0.354453	-0.578137
C89	C	2.380819	-0.021120	-0.244804
C90	C	2.714152	0.312214	0.088529
C91	C	2.180886	-0.354457	-0.578143
C92	C	2.514219	-0.021124	-0.244810
C93	C	2.847552	0.312209	0.088523
C94	C	1.734536	-0.354361	-0.891165
C95	C	2.067869	-0.021027	-0.557832
C96	C	2.401202	0.312306	-0.224499
C97	C	1.734575	-0.354326	-1.024565
C98	C	2.067908	-0.020992	-0.691232
C99	C	2.401242	0.312341	-0.357899
C100	C	1.734598	-0.162489	-0.578201
C101	C	2.067931	0.170844	-0.244867
C102	C	2.401264	0.504177	0.088466
C103	C	1.734663	-0.080690	-0.578234
C104	C	2.067997	0.252643	-0.244901
C105	C	2.401330	0.585976	0.088433
C106	C	1.734421	-0.354471	-0.266298
C107	C	2.067754	-0.021137	0.067035
C108	C	2.401087	0.312196	0.400369
C109	C	1.734614	-0.354298	-0.132899
C110	C	2.067947	-0.020965	0.200435
C111	C	2.401281	0.312368	0.533768
H112	H	1.873907	-0.923790	-0.439064
H113	H	2.207240	-0.590457	-0.105730
H114	H	2.540574	-0.257124	0.227603
H115	H	1.595136	-0.784343	-0.717257
H116	H	1.928470	-0.451010	-0.383924
H117	H	2.261803	-0.117677	-0.050591
C118	C	1.895747	-0.773382	-0.417089
C119	C	2.229080	-0.440048	-0.083756
C120	C	2.562413	-0.106715	0.249577
N121	N	1.959356	-0.741550	-0.353529
N122	N	2.292689	-0.408217	-0.020196
N123	N	2.626022	-0.074883	0.313137
C124	C	1.573270	-0.934766	-0.739226
C125	C	1.906604	-0.601433	-0.405892
C126	C	2.239937	-0.268100	-0.072559
N127	N	1.509652	-0.966603	-0.802769
N128	N	1.842985	-0.633270	-0.469436
N129	N	2.176319	-0.299936	-0.136102
