data_functionalizedCrystal
_audit_creation_method	'MofGen! by Chris Wilmer'
_symmetry_space_group_name_H-M	'P1'
_symmetry_Int_Tables_number	1
_symmetry_cell_setting	triclinic
loop_
_symmetry_equiv_pos_as_xyz
  x,y,z
_cell_length_a	12.594517
_cell_length_b	14.908571
_cell_length_c	14.908308
_cell_angle_alpha	90.175053
_cell_angle_beta	86.724819
_cell_angle_gamma	93.296726
loop_
_atom_site_label
_atom_site_type_symbol
_atom_site_fract_x
_atom_site_fract_y
_atom_site_fract_z
Zn1	Zn	0.555467	1.345405	-0.587648
Zn2	Zn	0.723825	1.354019	-0.437308
Zn3	Zn	0.535023	1.203716	-0.428643
Zn4	Zn	0.722561	1.195046	-0.578960
O5	O	0.634219	1.274546	-0.508140
O6	O	0.586886	1.472375	-0.574967
O7	O	0.690754	1.341314	-0.310333
O8	O	0.388792	1.222535	-0.449745
O9	O	0.710578	1.478704	-0.464513
O10	O	0.403812	1.326633	-0.566565
O11	O	0.552041	1.230888	-0.303967
O12	O	0.550815	1.076738	-0.441321
O13	O	0.708422	1.207758	-0.705938
O14	O	0.688598	1.070368	-0.551757
O15	O	0.585660	1.318226	-0.712321
O16	O	0.872601	1.332907	-0.456089
O17	O	0.871672	1.216110	-0.560159
C18	C	0.617352	1.040928	-0.494657
C19	C	0.610163	0.940983	-0.488910
C20	C	0.740329	0.746601	-0.592954
C21	C	0.733578	0.652694	-0.587558
C22	C	0.589905	0.659261	-0.472725
C23	C	0.596656	0.753167	-0.478122
C24	C	0.671872	0.796834	-0.538237
C25	C	0.678627	0.890743	-0.543629
C26	C	0.534950	0.897307	-0.428802
C27	C	0.528199	0.803401	-0.423405
C28	C	0.356603	1.274591	-0.508158
C29	C	0.238299	1.274610	-0.508166
C30	C	0.177215	1.331221	-0.571707
C31	C	0.102779	1.357928	-0.490947
C32	C	0.101938	1.247931	-0.588932
C33	C	0.165422	1.301362	-0.427364
C34	C	0.164588	1.191323	-0.525403
C35	C	0.090178	1.218002	-0.444584
C36	C	0.910759	1.274526	-0.508143
C37	C	1.029072	1.274597	-0.508179
C38	C	0.649180	1.261064	-0.742667
C39	C	0.655556	1.255319	-0.842608
C40	C	0.651153	1.509078	-0.521676
C41	C	0.658369	1.609021	-0.527444
C42	C	0.539678	1.359551	-1.037057
C43	C	0.545665	1.354155	-1.130961
C44	C	0.673510	1.239129	-1.124322
C45	C	0.667523	1.244524	-1.030418
C46	C	0.600606	1.304738	-0.986789
C47	C	0.594626	1.310138	-0.892883
C48	C	0.722464	1.195107	-0.886245
C49	C	0.728451	1.189712	-0.980150
C50	C	0.619243	1.288028	-0.274528
C51	C	0.612580	1.293947	-0.174597
H52	H	0.789321	0.611798	-0.632116
H53	H	0.727990	1.190105	-1.159861
N54	N	0.200779	1.098052	-0.544739
H55	H	0.177840	1.077953	-0.605790
H56	H	0.280952	1.098705	-0.543953
H57	H	0.479209	0.938218	-0.384245
N58	N	0.064853	1.218037	-0.679399
H59	H	0.016399	1.161874	-0.671865
H60	H	0.024807	1.267233	-0.706255
N61	N	0.800600	1.124752	-1.027207
H62	H	0.795141	1.129644	-1.094323
H63	H	0.876585	1.139669	-1.011607
H64	H	0.215163	1.379144	-0.625376
H65	H	0.485198	1.408584	-1.001534
H66	H	0.540140	1.359168	-0.857362
N67	N	0.066626	1.451218	-0.471618
H68	H	0.098508	1.493945	-0.519641
H69	H	-0.013647	1.450335	-0.471162
N70	N	0.202334	1.331320	-0.336863
H71	H	0.282551	1.331155	-0.337421
H72	H	0.179260	1.394013	-0.323727
H73	H	0.528662	0.623690	-0.423788
H74	H	0.466958	0.767834	-0.374463
N75	N	0.479949	1.413282	-1.185171
H76	H	0.528691	1.452709	-1.226534
H77	H	0.430476	1.374449	-1.221969
N78	N	0.040156	1.154579	-0.373344
H79	H	0.063299	1.174838	-0.312402
H80	H	-0.039975	1.154552	-0.374162
N81	N	0.788190	1.135972	-0.832044
H82	H	0.837674	1.174739	-0.795190
H83	H	0.739381	1.096549	-0.790734
N84	N	0.759752	0.937846	-0.608459
H85	H	0.802093	0.891770	-0.642304
H86	H	0.721960	0.974423	-0.652366
H87	H	0.801578	0.782156	-0.641898
