data_functionalizedCrystal
_audit_creation_method	'MofGen! by Chris Wilmer'
_symmetry_space_group_name_H-M	'P1'
_symmetry_Int_Tables_number	1
_symmetry_cell_setting	triclinic
loop_
_symmetry_equiv_pos_as_xyz
  x,y,z
_cell_length_a	31.640172
_cell_length_b	31.640171
_cell_length_c	14.809374
_cell_angle_alpha	55.109509
_cell_angle_beta	81.042535
_cell_angle_gamma	59.987882
loop_
_atom_site_label
_atom_site_type_symbol
_atom_site_fract_x
_atom_site_fract_y
_atom_site_fract_z
Zr1	Zr	0.415826	0.462750	-0.120468
O2	O	0.358951	0.550962	-0.266513
O3	O	0.433274	0.374542	-0.075635
O4	O	0.447147	0.462746	-0.266431
O5	O	0.334120	0.462758	0.074715
O6	O	0.516704	0.462739	-0.266437
O7	O	0.345078	0.462757	-0.075717
O8	O	0.491887	0.304957	0.074862
O9	O	0.358937	0.620540	-0.266584
O10	O	0.492609	0.410816	-0.056594
O11	O	0.432523	0.410822	0.055677
O12	O	0.448857	0.514672	-0.168961
O13	O	0.388770	0.514678	-0.056691
Zr14	Zr	0.509286	0.462740	0.119445
Zr15	Zr	0.526761	0.462738	-0.120478
Zr16	Zr	0.398351	0.462751	0.119454
Zr17	Zr	0.415804	0.573719	-0.120581
Zr18	Zr	0.509307	0.351770	0.119558
O19	O	0.491838	0.550948	0.074612
O20	O	0.516686	0.550945	-0.266527
O21	O	0.334103	0.550964	0.074625
O22	O	0.566161	0.374528	0.265490
O23	O	0.591009	0.374526	-0.075649
O24	O	0.408426	0.374544	0.265504
O25	O	0.590991	0.462732	-0.075738
O26	O	0.477965	0.462743	0.265408
O27	O	0.408408	0.462750	0.265414
O28	O	0.580034	0.462733	0.074694
O29	O	0.447116	0.620531	-0.266592
O30	O	0.477996	0.304959	0.265569
O31	O	0.566174	0.304950	0.265561
O32	O	0.580065	0.304948	0.074855
O33	O	0.345047	0.620542	-0.075878
O34	O	0.433225	0.620532	-0.075885
O35	O	0.476255	0.410818	0.167938
O36	O	0.536342	0.410812	0.055668
O37	O	0.492589	0.514667	-0.056700
O38	O	0.432502	0.514674	0.055571
C39	C	0.462583	0.323939	-0.000370
C40	C	0.462593	0.276829	-0.000322
C41	C	0.431190	-0.059390	0.058103
C42	C	0.431211	0.117563	0.058201
O43	O	0.404554	0.140428	0.108090
N44	N	0.462578	0.139689	-0.000392
C45	C	0.493945	0.117570	-0.059008
O46	O	0.520630	0.140445	-0.108833
C47	C	0.493927	-0.059386	-0.059099
C48	C	0.462554	-0.081504	-0.000511
C49	C	0.399820	-0.081509	0.116686
C50	C	0.399813	-0.125743	0.116656
C51	C	0.431177	-0.147857	0.058042
C52	C	0.462547	-0.125738	-0.000542
C53	C	0.525297	-0.081506	-0.117707
C54	C	0.525290	-0.125749	-0.117723
C55	C	0.493917	-0.147868	-0.059135
C56	C	0.493904	-0.192085	-0.059186
N57	N	0.462537	-0.214211	-0.000593
C58	C	0.431173	-0.192097	0.058021
C59	C	0.493952	0.210476	-0.058957
C60	C	0.493956	0.254715	-0.058936
C61	C	0.431222	0.254704	0.058274
C62	C	0.431216	0.210467	0.058246
C63	C	0.462585	0.188350	-0.000364
C64	C	0.431161	-0.284990	0.057952
C65	C	0.431156	-0.329225	0.057913
C66	C	0.493891	-0.329213	-0.059292
C67	C	0.493895	-0.284979	-0.059258
C68	C	0.462528	-0.262870	-0.000628
O69	O	0.520551	-0.214982	-0.109038
O70	O	0.404501	-0.214989	0.107859
C71	C	0.431197	-0.015157	0.058133
C72	C	0.462567	0.006963	-0.000451
C73	C	0.493931	-0.015152	-0.059065
C74	C	0.462571	0.051202	-0.000430
C75	C	0.431208	0.073316	0.058184
C76	C	0.399840	0.051191	0.116777
C77	C	0.399834	0.006957	0.116747
C78	C	0.525299	0.006974	-0.117658
C79	C	0.525302	0.051208	-0.117624
C80	C	0.493939	0.073322	-0.059010
C81	C	0.323793	0.462759	-0.000499
C82	C	0.276699	0.462764	-0.000495
C83	C	-0.009270	0.462733	-0.083384
C84	C	-0.186255	0.462726	-0.083392
O85	O	-0.203996	0.462699	-0.153846
N86	N	-0.214422	0.462728	-0.000519
C87	C	-0.198339	0.462728	0.082367
O88	O	-0.226355	0.462723	0.152862
C89	C	-0.021352	0.462731	0.082379
C90	C	0.006810	0.462735	-0.000507
C91	C	0.018893	0.462737	-0.166262
C92	C	0.063135	0.462742	-0.166262
C93	C	0.079215	0.462744	-0.083385
C94	C	0.051053	0.462740	-0.000507
C95	C	-0.005268	0.462726	0.165268
C96	C	0.038983	0.462726	0.165265
C97	C	0.067146	0.462730	0.082380
C98	C	0.111375	0.462747	0.082369
N99	N	0.139542	0.462745	-0.000504
C100	C	0.123462	0.462743	-0.083381
C101	C	-0.291260	0.462727	0.082353
C102	C	-0.335507	0.462727	0.082350
C103	C	-0.323420	0.462725	-0.083408
C104	C	-0.279174	0.462729	-0.083408
C105	C	-0.263093	0.462725	-0.000520
C106	C	0.216374	0.462755	-0.083377
C107	C	0.260619	0.462762	-0.083373
C108	C	0.248529	0.462762	0.082388
C109	C	0.204287	0.462758	0.082381
C110	C	0.188212	0.462752	-0.000506
O111	O	0.129149	0.462767	0.152794
O112	O	0.151491	0.462735	-0.153852
C113	C	-0.053512	0.462728	-0.083383
C114	C	-0.081674	0.462725	-0.000505
C115	C	-0.065594	0.462726	0.082372
C116	C	-0.125921	0.462725	-0.000509
C117	C	-0.142001	0.462723	-0.083386
C118	C	-0.113834	0.462722	-0.166260
C119	C	-0.069592	0.462727	-0.166260
C120	C	-0.093761	0.462728	0.165245
C121	C	-0.138004	0.462724	0.165238
C122	C	-0.154084	0.462722	0.082361
C123	C	0.601318	0.462731	-0.000524
C124	C	0.648413	0.462726	-0.000528
C125	C	0.484415	0.462743	-0.300618
C126	C	0.491834	0.462742	-0.402471
C127	C	0.462528	0.601551	-0.000653
C128	C	0.462519	0.648661	-0.000701
C129	C	0.458725	0.462745	-0.447877
C130	C	0.466392	0.462744	-0.553148
C131	C	0.440697	0.462747	0.299595
C132	C	0.433278	0.462748	0.401448
C133	C	0.601346	0.323924	-0.000382
C134	C	0.648450	0.276810	-0.000338
C135	C	0.440724	0.323941	0.299736
C136	C	0.433315	0.276832	0.401637
C137	C	0.579487	0.323927	0.299724
C138	C	0.619172	0.276813	0.401621
C139	C	0.345625	0.601563	-0.300747
C140	C	0.305940	0.648677	-0.402644
C141	C	0.323766	0.601565	-0.000641
C142	C	0.276662	0.648680	-0.000685
C143	C	0.484388	0.601549	-0.300759
C144	C	0.491797	0.648658	-0.402660
C145	C	0.647743	0.254687	-0.058927
C146	C	0.692000	0.210424	-0.058908
C147	C	0.736962	0.188282	-0.000293
C148	C	0.737667	0.210410	0.058297
C149	C	0.693412	0.254675	0.058271
C150	C	0.452662	0.254707	0.508101
C151	C	0.445697	0.210450	0.603857
C152	C	0.419388	0.188315	0.593148
C153	C	0.400038	0.210444	0.486673
C154	C	0.407000	0.254704	0.390919
C155	C	0.669178	0.254685	0.390869
C156	C	0.706471	0.210423	0.486603
C157	C	0.693758	0.188287	0.593088
C158	C	0.643747	0.210419	0.603838
C159	C	0.606454	0.254684	0.508105
C160	C	0.255934	0.670810	-0.391892
C161	C	0.218641	0.715086	-0.487626
C162	C	0.231354	0.737224	-0.594111
C163	C	0.281365	0.715089	-0.604861
C164	C	0.318657	0.670817	-0.509128
C165	C	0.277369	0.670807	0.057894
C166	C	0.233114	0.715082	0.057849
C167	C	0.188152	0.737226	-0.000769
C168	C	0.187447	0.715096	-0.059355
C169	C	0.231701	0.670825	-0.059316
C170	C	0.518109	0.670778	-0.391915
C171	C	0.525080	0.715036	-0.487653
C172	C	0.505737	0.737175	-0.594135
C173	C	0.479424	0.715050	-0.604879
C174	C	0.472456	0.670790	-0.509142
H175	H	0.374268	-0.143750	0.164368
Br176	Br	0.101353	0.462743	-0.278748
Br177	Br	-0.071945	0.462730	0.277732
H178	H	0.550839	-0.011029	-0.165387
H179	H	0.519497	0.272728	-0.106658
H180	H	0.231119	0.652810	-0.107015
H181	H	0.679539	0.272701	0.304172
H182	H	0.391246	0.272713	0.304235
Br183	Br	0.357273	0.081215	0.196318
Br184	Br	0.515197	0.797244	-0.724054
Br185	Br	0.691031	0.180402	-0.138427
H186	H	0.424701	0.462752	-0.408822
Br187	Br	0.548539	0.462743	-0.467573
Br188	Br	0.436740	0.640780	-0.523745
H189	H	0.500415	0.462744	-0.592208
Br190	Br	0.338383	0.640767	0.137453
Br191	Br	-0.176222	0.462723	0.277730
H192	H	0.747190	0.192407	0.477831
H193	H	-0.028192	0.462722	0.232761
H194	H	0.413723	0.152276	0.671126
H195	H	0.177922	0.733101	-0.478852
H196	H	0.200983	0.773273	-0.672054
H197	H	0.463676	0.733083	-0.691589
Br198	Br	0.298611	0.745139	-0.749386
Br199	Br	0.744375	0.128213	0.723003
Br200	Br	0.234083	0.745104	0.137367
Br201	Br	0.388573	-0.359239	0.137425
H202	H	0.633402	0.192390	0.690551
Br203	Br	0.586730	0.284729	-0.138489
H204	H	-0.256246	0.462732	-0.150900
Br205	Br	0.567876	-0.051498	-0.197228
H206	H	0.774282	0.192375	0.106019
Br207	Br	0.538589	0.284707	0.522718
H208	H	0.772994	0.152238	-0.000280
Br209	Br	0.238666	0.640773	-0.247389
Br210	Br	0.386522	0.640781	-0.523741
H211	H	-0.278171	0.462725	0.149853
Br212	Br	0.388657	0.284726	0.137820
H213	H	0.152121	0.773274	-0.000792
Br214	Br	0.544366	0.640742	-0.247415
Br215	Br	0.194565	0.462747	-0.195868
Br216	Br	0.560789	0.745055	-0.473046
Br217	Br	0.126422	0.745153	-0.138900
Br218	Br	0.567881	0.081225	-0.197153
Br219	Br	0.488372	0.284734	0.522666
Br220	Br	0.388591	-0.254991	0.137522
Br221	Br	0.298836	0.462772	-0.195871
H222	H	0.693993	0.272682	0.105988
Br223	Br	0.536521	0.180474	-0.138525
Br224	Br	0.471962	0.180425	0.748343
Br225	Br	0.357251	-0.051508	0.196250
H226	H	0.405669	0.192461	0.105953
Br227	Br	0.567869	-0.155767	-0.197259
H228	H	0.519437	-0.266963	-0.106979
H229	H	0.374286	-0.011048	0.164455
Br230	Br	0.536452	-0.359231	-0.138841
Br231	Br	0.364334	0.180398	0.472158
Br232	Br	0.376564	0.462761	-0.533469
H233	H	-0.336520	0.462725	-0.150892
Br234	Br	-0.373729	0.462736	0.194825
Br235	Br	0.060805	0.462717	0.277768
Br236	Br	-0.002921	0.462734	-0.278751
H237	H	0.261627	0.462766	0.149863
Br238	Br	0.166062	0.462764	0.194859
H239	H	-0.046664	0.462730	-0.233753
H240	H	-0.126935	0.462723	-0.233745
