data_functionalizedCrystal
_audit_creation_method	'MofGen! by Chris Wilmer'
_symmetry_space_group_name_H-M	'P1'
_symmetry_Int_Tables_number	1
_symmetry_cell_setting	triclinic
loop_
_symmetry_equiv_pos_as_xyz
  x,y,z
_cell_length_a	14.519731
_cell_length_b	17.699092
_cell_length_c	16.776229
_cell_angle_alpha	89.995030
_cell_angle_beta	89.992771
_cell_angle_gamma	83.487610
loop_
_atom_site_label
_atom_site_type_symbol
_atom_site_fract_x
_atom_site_fract_y
_atom_site_fract_z
O1	O	1.223440	0.099292	-0.066287
O2	O	1.556774	0.432625	0.267047
O3	O	1.890107	0.765958	0.600380
O4	O	0.954917	0.110959	-0.066288
O5	O	1.288250	0.444292	0.267046
O6	O	1.621583	0.777625	0.600379
O7	O	1.096761	-0.005041	-0.066285
O8	O	1.430094	0.328292	0.267048
O9	O	1.763428	0.661625	0.600381
O10	O	1.081596	0.215292	-0.066289
O11	O	1.414929	0.548625	0.267044
O12	O	1.748263	0.881958	0.600378
O13	O	1.096742	-0.005049	0.066291
O14	O	1.430076	0.328285	0.399624
O15	O	1.763409	0.661618	0.732958
O16	O	0.954898	0.110951	0.066289
O17	O	1.288231	0.444285	0.399622
O18	O	1.621565	0.777618	0.732955
O19	O	1.223421	0.099285	0.066290
O20	O	1.556755	0.432618	0.399623
O21	O	1.890088	0.765951	0.732956
Zn22	Zn	1.089157	0.105117	0.087339
Zn23	Zn	1.422490	0.438450	0.420672
Zn24	Zn	1.755823	0.771784	0.754005
Zn25	Zn	1.089182	0.105126	-0.087337
Zn26	Zn	1.422515	0.438460	0.245997
Zn27	Zn	1.755848	0.771793	0.579330
O28	O	1.081577	0.215285	0.066287
O29	O	1.414911	0.548618	0.399621
O30	O	1.748244	0.881951	0.732954
C31	C	1.096207	-0.033243	0.000002
C32	C	1.429540	0.300090	0.333335
C33	C	1.762874	0.633423	0.666668
C34	C	1.094573	-0.117266	-0.000002
C35	C	1.427906	0.216067	0.333331
C36	C	1.761240	0.549401	0.666665
C37	C	0.920550	0.110408	0.000000
C38	C	1.253884	0.443742	0.333334
C39	C	1.587217	0.777075	0.666667
C40	C	0.818177	0.108770	0.000000
C41	C	1.151510	0.442104	0.333333
C42	C	1.484844	0.775437	0.666667
C43	C	1.093818	-0.156732	-0.072270
C44	C	1.427151	0.176602	0.261063
C45	C	1.760484	0.509935	0.594396
C46	C	1.092276	-0.235679	-0.072271
C47	C	1.425610	0.097654	0.261062
C48	C	1.758943	0.430987	0.594395
C49	C	1.091497	-0.275160	-0.000003
C50	C	1.424830	0.058173	0.333330
C51	C	1.758164	0.391506	0.666664
C52	C	1.092250	-0.235689	0.072271
C53	C	1.425583	0.097645	0.405604
C54	C	1.758916	0.430978	0.738937
C55	C	1.093784	-0.156742	0.072271
C56	C	1.427118	0.176591	0.405604
C57	C	1.760451	0.509925	0.738938
C58	C	1.086059	-0.554072	0.072272
C59	C	1.419393	-0.220738	0.405605
C60	C	1.752726	0.112595	0.738939
C61	C	1.084527	-0.633024	0.072266
C62	C	1.417861	-0.299691	0.405600
C63	C	1.751194	0.033642	0.738933
C64	C	1.084551	-0.633009	-0.072270
C65	C	1.417885	-0.299676	0.261063
C66	C	1.751218	0.033658	0.594396
C67	C	1.086086	-0.554062	-0.072270
C68	C	1.419419	-0.220729	0.261063
C69	C	1.752753	0.112604	0.594396
C70	C	1.086834	-0.514597	0.000003
C71	C	1.420167	-0.181264	0.333336
C72	C	1.753500	0.152070	0.666670
C73	C	1.088503	-0.428993	0.000003
C74	C	1.421836	-0.095660	0.333337
C75	C	1.755170	0.237673	0.666670
C76	C	1.089834	-0.360763	-0.000002
C77	C	1.423167	-0.027430	0.333331
C78	C	1.756501	0.305903	0.666664
C79	C	0.735038	0.107439	-0.000003
C80	C	1.068372	0.440773	0.333330
C81	C	1.401705	0.774106	0.666663
C82	C	0.630737	0.105776	-0.000003
C83	C	0.964070	0.439109	0.333330
C84	C	1.297403	0.772443	0.666663
C85	C	0.547603	0.104456	-0.000003
C86	C	0.880937	0.437789	0.333330
C87	C	1.214270	0.771123	0.666663
C88	C	0.443295	0.102793	-0.000005
C89	C	0.776628	0.436126	0.333328
C90	C	1.109961	0.769460	0.666662
C91	C	1.257788	0.099835	-0.000000
C92	C	1.591121	0.433168	0.333333
C93	C	1.924455	0.766502	0.666666
C94	C	1.360161	0.101473	-0.000005
C95	C	1.693495	0.434806	0.333328
C96	C	2.026828	0.768140	0.666662
C97	C	1.082131	0.243487	-0.000001
C98	C	1.415465	0.576820	0.333332
C99	C	1.748798	0.910153	0.666665
C100	C	1.083765	0.327509	-0.000003
C101	C	1.417099	0.660843	0.333330
C102	C	1.750432	0.994176	0.666664
N103	N	1.089147	0.105110	0.206550
N104	N	1.422480	0.438443	0.539883
N105	N	1.755813	0.771777	0.873217
N106	N	1.089199	0.105127	-0.206548
N107	N	1.422532	0.438461	0.126785
N108	N	1.755866	0.771794	0.460119
C109	C	1.151974	0.053766	0.248268
C110	C	1.485308	0.387100	0.581601
C111	C	1.818641	0.720433	0.914935
C112	C	1.151979	0.053766	0.331720
C113	C	1.485313	0.387099	0.665053
C114	C	1.818646	0.720432	0.998387
C115	C	1.089161	0.105113	0.373453
C116	C	1.422494	0.438446	0.706786
C117	C	1.755827	0.771780	1.040119
C118	C	1.026326	0.156459	0.331729
C119	C	1.359659	0.489792	0.665062
C120	C	1.692993	0.823126	0.998395
C121	C	1.026317	0.156455	0.248278
C122	C	1.359651	0.489789	0.581611
C123	C	1.692984	0.823122	0.914945
C124	C	1.026359	0.156474	0.668276
C125	C	1.359693	0.489807	1.001609
C126	C	1.693026	0.823141	1.334943
C127	C	1.026375	0.156475	0.751733
C128	C	1.359708	0.489808	1.085066
C129	C	1.693042	0.823142	1.418399
C130	C	1.152022	0.053784	0.751718
C131	C	1.485355	0.387118	1.085051
C132	C	1.818688	0.720451	1.418385
C133	C	1.152013	0.053781	0.668267
C134	C	1.485346	0.387114	1.001601
C135	C	1.818679	0.720447	1.334934
C136	C	1.089176	0.105124	0.626551
C137	C	1.422509	0.438457	0.959884
C138	C	1.755842	0.771790	1.293217
C139	C	1.089170	0.105123	0.536062
C140	C	1.422503	0.438456	0.869396
C141	C	1.755836	0.771789	1.202729
C142	C	1.089170	0.105118	0.463940
C143	C	1.422504	0.438451	0.797273
C144	C	1.755837	0.771785	1.130606
H145	H	1.091665	-0.267809	-0.131120
H146	H	1.424998	0.065524	0.202214
H147	H	1.758332	0.398858	0.535547
O148	O	1.086685	-0.515821	0.142530
O149	O	1.420018	-0.182488	0.475863
O150	O	1.753352	0.150845	0.809197
C151	C	1.006465	-0.526646	0.186500
C152	C	1.339798	-0.193313	0.519833
C153	C	1.673131	0.140020	0.853167
H154	H	0.978721	-0.581137	0.165942
H155	H	1.312055	-0.247804	0.499276
H156	H	1.645388	0.085530	0.832609
H157	H	1.024378	-0.531273	0.252609
H158	H	1.357712	-0.197939	0.585943
H159	H	1.691045	0.135394	0.919276
H160	H	0.951427	-0.476284	0.176505
H161	H	1.284760	-0.142950	0.509839
H162	H	1.618094	0.190383	0.843172
O163	O	0.965265	0.206233	0.372355
O164	O	1.298599	0.539566	0.705689
O165	O	1.631932	0.872900	1.039022
C166	C	0.908460	0.165592	0.420631
C167	C	1.241793	0.498925	0.753964
C168	C	1.575126	0.832259	1.087297
H169	H	0.945325	0.106437	0.433132
H170	H	1.278659	0.439770	0.766466
H171	H	1.611992	0.773103	1.099799
H172	H	0.893809	0.197157	0.479312
H173	H	1.227142	0.530491	0.812645
H174	H	1.560475	0.863824	1.145979
H175	H	0.840312	0.160319	0.388486
H176	H	1.173645	0.493652	0.721819
H177	H	1.506979	0.826985	1.055153
H178	H	1.203138	0.011957	0.365687
H179	H	1.536471	0.345291	0.699020
H180	H	1.869804	0.678624	1.032353
H181	H	1.203169	0.011972	0.634291
H182	H	1.536502	0.345305	0.967625
H183	H	1.869835	0.678638	1.300958
O184	O	1.083964	-0.671322	-0.142504
O185	O	1.417297	-0.337988	0.190829
O186	O	1.750631	-0.004655	0.524163
C187	C	1.164167	-0.660471	-0.186486
C188	C	1.497500	-0.327138	0.146847
C189	C	1.830834	0.006195	0.480181
H190	H	1.220399	-0.644701	-0.144204
H191	H	1.553732	-0.311367	0.189129
H192	H	1.887066	0.021966	0.522463
H193	H	1.189944	-0.715222	-0.219283
H194	H	1.523277	-0.381888	0.114050
H195	H	1.856610	-0.048555	0.447383
H196	H	1.147014	-0.612720	-0.231536
H197	H	1.480347	-0.279386	0.101798
H198	H	1.813681	0.053947	0.435131
O199	O	1.091535	-0.274160	0.142402
O200	O	1.424868	0.059174	0.475735
O201	O	1.758202	0.392507	0.809068
C202	C	1.090001	-0.352302	0.126907
C203	C	1.423334	-0.018968	0.460240
C204	C	1.756667	0.314365	0.793574
H205	H	1.118982	-0.366170	0.064796
H206	H	1.452315	-0.032836	0.398129
H207	H	1.785648	0.300497	0.731463
H208	H	1.134172	-0.387048	0.173060
H209	H	1.467505	-0.053714	0.506394
H210	H	1.800838	0.279619	0.839727
H211	H	1.015610	-0.366875	0.130336
H212	H	1.348944	-0.033542	0.463669
H213	H	1.682277	0.299792	0.797003
O214	O	1.094547	-0.118522	0.142544
O215	O	1.427880	0.214811	0.475877
O216	O	1.761213	0.548144	0.809210
C217	C	1.093501	-0.170293	0.206331
C218	C	1.426834	0.163040	0.539664
C219	C	1.760167	0.496374	0.872997
H220	H	1.121609	-0.229658	0.185150
H221	H	1.454943	0.103675	0.518483
H222	H	1.788276	0.437009	0.851816
H223	H	1.138676	-0.152221	0.256884
H224	H	1.472009	0.181113	0.590218
H225	H	1.805342	0.514446	0.923551
H226	H	1.019374	-0.170864	0.228538
H227	H	1.352707	0.162470	0.561871
H228	H	1.686040	0.495803	0.895204
O229	O	0.965415	0.206364	0.207663
O230	O	1.298748	0.539698	0.540996
O231	O	1.632082	0.873031	0.874329
C232	C	1.014688	0.253162	0.159388
C233	C	1.348021	0.586496	0.492721
C234	C	1.681354	0.919829	0.826055
H235	H	1.086915	0.223156	0.146877
H236	H	1.420249	0.556489	0.480210
H237	H	1.753582	0.889822	0.813544
H238	H	0.976163	0.265058	0.100711
H239	H	1.309496	0.598391	0.434044
H240	H	1.642829	0.931725	0.767378
H241	H	1.020827	0.309115	0.191539
H242	H	1.354161	0.642448	0.524872
H243	H	1.687494	0.975782	0.858205
O244	O	1.212968	0.003930	0.792366
O245	O	1.546301	0.337264	1.125700
O246	O	1.879635	0.670597	1.459033
C247	C	1.199524	0.014950	0.874971
C248	C	1.532857	0.348283	1.208305
C249	C	1.866190	0.681617	1.541638
H250	H	1.126144	0.043096	0.886382
H251	H	1.459477	0.376429	1.219715
H252	H	1.792811	0.709763	1.553048
H253	H	1.209921	-0.042349	0.906690
H254	H	1.543255	0.290985	1.240023
H255	H	1.876588	0.624318	1.573356
H256	H	1.251634	0.053012	0.898639
H257	H	1.584967	0.386346	1.231972
H258	H	1.918300	0.719679	1.565306
H259	H	1.083890	-0.665167	0.131119
H260	H	1.417224	-0.331834	0.464453
H261	H	1.750557	0.001499	0.797786
O262	O	0.965245	0.206250	0.627719
O263	O	1.298579	0.539583	0.961053
O264	O	1.631912	0.872917	1.294386
C265	C	0.908450	0.165616	0.579446
C266	C	1.241783	0.498949	0.912780
C267	C	1.575117	0.832283	1.246113
H268	H	0.907018	0.105925	0.604602
H269	H	1.240351	0.439259	0.937936
H270	H	1.573684	0.772592	1.271269
H271	H	0.835088	0.196366	0.578506
H272	H	1.168421	0.529699	0.911840
H273	H	1.501754	0.863033	1.245173
H274	H	0.937317	0.161699	0.516197
H275	H	1.270650	0.495032	0.849530
H276	H	1.603983	0.828366	1.182864
H277	H	1.094457	-0.124593	-0.131120
H278	H	1.427790	0.208741	0.202214
H279	H	1.761124	0.542074	0.535547
H280	H	1.203132	0.011957	0.214295
H281	H	1.536466	0.345290	0.547628
H282	H	1.869799	0.678623	0.880961
O283	O	1.086659	-0.515748	-0.142505
O284	O	1.419992	-0.182414	0.190828
O285	O	1.753326	0.150919	0.524161
C286	C	1.006451	-0.526624	-0.186450
C287	C	1.339785	-0.193290	0.146883
C288	C	1.673118	0.140043	0.480217
H289	H	0.950240	-0.542408	-0.144139
H290	H	1.283573	-0.209074	0.189194
H291	H	1.616906	0.124259	0.522527
H292	H	0.980644	-0.471881	-0.219252
H293	H	1.313978	-0.138547	0.114081
H294	H	1.647311	0.194786	0.447415
H295	H	1.023611	-0.574376	-0.231493
H296	H	1.356944	-0.241042	0.101840
H297	H	1.690278	0.092291	0.435173
H298	H	0.975217	0.198290	0.785710
H299	H	1.308550	0.531623	1.119043
H300	H	1.641883	0.864956	1.452377
