data_functionalizedCrystal
_audit_creation_method	'MofGen! by Chris Wilmer'
_symmetry_space_group_name_H-M	'P1'
_symmetry_Int_Tables_number	1
_symmetry_cell_setting	triclinic
loop_
_symmetry_equiv_pos_as_xyz
  x,y,z
_cell_length_a	6.817900
_cell_length_b	14.858565
_cell_length_c	17.110486
_cell_angle_alpha	96.084922
_cell_angle_beta	99.060439
_cell_angle_gamma	104.523916
loop_
_atom_site_label
_atom_site_type_symbol
_atom_site_fract_x
_atom_site_fract_y
_atom_site_fract_z
V1	V	-3.982063	-0.128393	-0.246940
V2	V	-3.482063	0.371607	0.253060
O3	O	-3.965114	0.006455	-0.242013
O4	O	-3.465114	0.506455	0.257987
O5	O	-3.938996	-0.254855	-0.245470
O6	O	-3.438996	0.245145	0.254530
O7	O	-3.911836	-0.126293	-0.354540
O8	O	-3.411836	0.373707	0.145460
O9	O	-3.992462	-0.122998	-0.132187
O10	O	-3.492462	0.377002	0.367813
V11	V	-4.467828	-0.112278	-0.233188
V12	V	-3.967828	0.387722	0.266812
O13	O	-4.238403	-0.163741	-0.277106
O14	O	-3.738403	0.336259	0.222894
O15	O	-4.661685	-0.076930	-0.203022
O16	O	-4.161685	0.423070	0.296978
O17	O	-4.287689	0.014184	-0.234659
O18	O	-3.787689	0.514184	0.265341
O19	O	-4.602175	-0.247126	-0.238116
O20	O	-4.102175	0.252874	0.261884
O21	O	-4.574827	-0.117673	-0.347941
O22	O	-4.074827	0.382327	0.152059
O23	O	-4.314848	-0.114378	-0.125589
O24	O	-3.814848	0.385622	0.374411
C25	C	-3.786001	-0.285688	-0.241631
C26	C	-3.286001	0.214312	0.258369
C27	C	-3.831930	-0.389072	-0.241145
C28	C	-3.331930	0.110928	0.258855
C29	C	-3.751355	-0.121693	-0.380759
C30	C	-3.251355	0.378307	0.119241
C31	C	-3.775256	-0.120812	-0.468724
C32	C	-3.275256	0.379188	0.031276
C33	C	-4.000033	-0.767645	-0.239380
C34	C	-3.500033	-0.267645	0.260620
C35	C	-3.953253	-0.662314	-0.239871
C36	C	-3.453253	-0.162314	0.260129
C37	C	-3.915982	-0.578362	-0.240262
C38	C	-3.415982	-0.078362	0.259738
C39	C	-3.869201	-0.473025	-0.240754
C40	C	-3.369201	0.026975	0.259246
C41	C	-3.967967	-0.125040	-0.514089
C42	C	-3.467967	0.374960	-0.014089
C43	C	-3.990412	-0.124213	-0.596741
C44	C	-3.490412	0.375787	-0.096741
C45	C	-3.820147	-0.119164	-0.634027
C46	C	-3.320147	0.380836	-0.134027
C47	C	-3.627419	-0.114933	-0.588655
C48	C	-3.127419	0.385067	-0.088655
C49	C	-3.604973	-0.115754	-0.506004
C50	C	-3.104973	0.384246	-0.006004
C51	C	-3.878837	-0.116447	-0.883377
C52	C	-3.378837	0.383553	-0.383377
C53	C	-3.901300	-0.115629	-0.966035
C54	C	-3.401300	0.384371	-0.466035
C55	C	-4.264291	-0.124907	-0.974114
C56	C	-3.764291	0.375093	-0.474114
C57	C	-4.241831	-0.125733	-0.891462
C58	C	-3.741831	0.374267	-0.391462
C59	C	-4.049104	-0.121497	-0.846097
C60	C	-3.549104	0.378503	-0.346097
C61	C	-3.843086	-0.118321	-0.718511
C62	C	-3.343086	0.381679	-0.218511
C63	C	-4.026163	-0.122334	-0.761614
C64	C	-3.526163	0.377666	-0.261614
C65	C	-4.104027	0.045012	-0.238496
C66	C	-3.604027	0.545012	0.261504
C67	C	-4.037335	0.148395	-0.238986
C68	C	-3.537335	0.648395	0.261014
C69	C	-4.138673	-0.118981	-0.099365
C70	C	-3.638673	0.381019	0.400635
C71	C	-4.094011	-0.119857	-0.011400
C72	C	-3.594011	0.380143	0.488600
H73	H	-4.106623	-0.129158	-0.483738
H74	H	-3.606623	0.370842	0.016262
H75	H	-3.488785	-0.110816	-0.619019
H76	H	-2.988785	0.389184	-0.119019
Br77	Br	-4.251964	-0.129962	-0.658307
Br78	Br	-3.751964	0.370038	-0.158307
H79	H	-3.448038	-0.112288	-0.469065
H80	H	-2.948038	0.387712	0.030935
Br81	Br	-3.617293	-0.110723	-0.821824
Br82	Br	-3.117293	0.389277	-0.321824
H83	H	-4.380483	-0.129844	-0.861110
H84	H	-3.880483	0.370156	-0.361110
H85	H	-4.421203	-0.128355	-1.011059
H86	H	-3.921203	0.371645	-0.511059
H87	H	-4.164789	-0.126442	-0.731252
H88	H	-3.664789	0.373558	-0.231252
Br89	Br	-3.670210	-0.108780	-1.016637
Br90	Br	-3.170210	0.391220	-0.516637
H91	H	-3.704462	-0.114214	-0.748879
H92	H	-3.204462	0.385786	-0.248879
