data_functionalizedCrystal
_audit_creation_method	'MofGen! by Chris Wilmer'
_symmetry_space_group_name_H-M	'P1'
_symmetry_Int_Tables_number	1
_symmetry_cell_setting	triclinic
loop_
_symmetry_equiv_pos_as_xyz
  x,y,z
_cell_length_a	7.681481
_cell_length_b	17.699083
_cell_length_c	17.699083
_cell_angle_alpha	83.283015
_cell_angle_beta	84.268690
_cell_angle_gamma	95.717770
loop_
_atom_site_label
_atom_site_type_symbol
_atom_site_fract_x
_atom_site_fract_y
_atom_site_fract_z
O1	O	0.146188	-0.996918	-0.102878
O2	O	0.646188	-0.496918	0.397122
O3	O	0.146246	-0.776537	-0.115334
O4	O	0.646246	-0.276537	0.384666
O5	O	0.146200	-0.892955	0.001084
O6	O	0.646200	-0.392955	0.501084
O7	O	0.146234	-0.880500	-0.219296
O8	O	0.646234	-0.380500	0.280704
O9	O	-0.146663	-0.907284	0.015446
O10	O	0.353337	-0.407284	0.515446
O11	O	-0.146617	-0.790866	-0.100972
O12	O	0.353383	-0.290866	0.399028
O13	O	-0.146675	-1.011247	-0.088517
O14	O	0.353325	-0.511247	0.411483
Zn15	Zn	-0.193144	-0.903332	-0.092464
Zn16	Zn	0.306856	-0.403332	0.407536
Zn17	Zn	0.192716	-0.884452	-0.111386
Zn18	Zn	0.692716	-0.384452	0.388614
O19	O	-0.146629	-0.894830	-0.204934
O20	O	0.353371	-0.394830	0.295066
C21	C	-0.000232	-0.899673	0.036462
C22	C	0.499768	-0.399673	0.536462
C23	C	-0.000232	-0.898334	0.120480
C24	C	0.499768	-0.398334	0.620480
C25	C	-0.000178	-0.755504	-0.107707
C26	C	0.499822	-0.255504	0.392293
C27	C	-0.000156	-0.671485	-0.106369
C28	C	0.499844	-0.171485	0.393631
N29	N	-0.456484	-0.916222	-0.079550
N30	N	0.043516	-0.416222	0.420450
N31	N	0.456055	-0.871568	-0.124294
N32	N	0.956055	-0.371568	0.375706
C33	C	-0.000247	-1.032280	-0.096144
C34	C	0.499753	-0.532280	0.403856
C35	C	-0.000257	-1.116298	-0.097482
C36	C	0.499743	-0.616298	0.402518
C37	C	-0.000146	-0.622864	-0.174703
C38	C	0.499854	-0.122864	0.325297
C39	C	-0.000169	-0.543921	-0.173440
C40	C	0.499831	-0.043921	0.326560
C41	C	-0.000190	-0.513602	-0.103842
C42	C	0.499810	-0.013602	0.396158
C43	C	-0.000205	-0.562229	-0.035503
C44	C	0.499795	-0.062229	0.464497
C45	C	-0.000195	-0.641171	-0.036767
C46	C	0.499805	-0.141171	0.463233
C47	C	-0.000249	-0.243869	-0.030406
C48	C	0.499751	0.256131	0.469594
C49	C	-0.000255	-0.164921	-0.029148
C50	C	0.499745	0.335079	0.470852
C51	C	-0.000224	-0.146619	-0.167079
C52	C	0.499776	0.353381	0.332921
C53	C	-0.000214	-0.225560	-0.168342
C54	C	0.499786	0.274440	0.331658
C55	C	-0.000238	-0.274182	-0.100003
C56	C	0.499762	0.225818	0.399997
C57	C	-0.000217	-0.359780	-0.101374
C58	C	0.499783	0.140220	0.398626
C59	C	-0.000199	-0.428004	-0.102472
C60	C	0.499801	0.071996	0.397528
C61	C	-0.000193	-0.888111	-0.240312
C62	C	0.499807	-0.388111	0.259688
C63	C	-0.000181	-0.889449	-0.324331
C64	C	0.499819	-0.389449	0.175669
C65	C	-0.000253	-0.966669	0.169102
C66	C	0.499747	-0.466669	0.669102
C67	C	-0.000237	-0.965406	0.248045
C68	C	0.499763	-0.465406	0.748045
C69	C	-0.000213	-0.895808	0.278364
C70	C	0.499787	-0.395808	0.778364
C71	C	-0.000187	-0.827468	0.229736
C72	C	0.499813	-0.327468	0.729736
C73	C	-0.000190	-0.828731	0.150794
C74	C	0.499810	-0.328731	0.650794
C75	C	-0.000171	-0.822372	0.548098
C76	C	0.499829	-0.322372	1.048098
C77	C	-0.000173	-0.821114	0.627046
C78	C	0.499827	-0.321114	1.127046
C79	C	-0.000218	-0.959046	0.645348
C80	C	0.499782	-0.459046	1.145348
C81	C	-0.000221	-0.960310	0.566407
C82	C	0.499779	-0.460310	1.066407
C83	C	-0.000186	-0.891970	0.517785
C84	C	0.499814	-0.391970	1.017785
C85	C	-0.000200	-0.893340	0.432186
C86	C	0.499800	-0.393340	0.932186
C87	C	-0.000212	-0.894438	0.363962
C88	C	0.499788	-0.394438	0.863962
H89	H	-0.531708	-0.961813	-0.033882
H90	H	-0.031708	-0.461813	0.466118
O91	O	-0.000202	-0.652191	-0.242374
O92	O	0.499798	-0.152191	0.257626
C93	C	-0.000157	-0.592342	-0.302417
C94	C	0.499843	-0.092342	0.197583
H95	H	-0.055613	-0.541471	-0.278578
H96	H	0.444387	-0.041471	0.221422
H97	H	-0.085172	-0.612914	-0.346849
H98	H	0.414828	-0.112914	0.153151
H99	H	0.140347	-0.574246	-0.330379
H100	H	0.640347	-0.074246	0.169621
H101	H	-0.000257	-1.021051	0.287630
H102	H	0.499743	-0.521051	0.787630
H103	H	-0.000159	-0.504336	-0.229084
H104	H	0.499841	-0.004336	0.270916
H105	H	-0.000189	-0.250242	-0.225016
H106	H	0.499811	0.249758	0.274984
H107	H	-0.000274	-0.140238	0.027531
H108	H	0.499726	0.359762	0.527531
O109	O	-0.000295	-0.099284	-0.233392
O110	O	0.499705	0.400716	0.266608
C111	C	-0.000271	-0.023103	-0.217361
C112	C	0.499729	0.476897	0.282639
H113	H	-0.055738	-0.022903	-0.155200
H114	H	0.444262	0.477097	0.344800
H115	H	-0.085288	0.008576	-0.256761
H116	H	0.414712	0.508576	0.243239
H117	H	0.140227	0.006618	-0.227158
H118	H	0.640227	0.506618	0.272842
H119	H	-0.000271	-0.283447	0.025241
H120	H	0.499729	0.216553	0.525241
H121	H	-0.000157	-0.770800	0.254428
H122	H	0.499843	-0.270800	0.754428
O123	O	-0.000150	-0.532650	0.032035
O124	O	0.499850	-0.032650	0.532035
C125	C	-0.000196	-0.452550	0.018501
C126	C	0.499804	0.047450	0.518501
H127	H	0.055261	-0.431185	-0.043316
H128	H	0.555261	0.068815	0.456684
H129	H	0.084818	-0.424229	0.058858
H130	H	0.584818	0.075771	0.558858
H131	H	-0.140700	-0.437464	0.029017
H132	H	0.359300	0.062536	0.529017
H133	H	-0.000173	-0.773086	0.111206
H134	H	0.499827	-0.273086	0.611206
H135	H	-0.000283	-1.023344	0.144423
H136	H	0.499717	-0.523344	0.644423
O137	O	-0.454033	-0.817279	-0.178819
O138	O	0.045967	-0.317279	0.321181
C139	C	-0.347412	-0.852614	-0.230596
C140	C	0.152588	-0.352614	0.269404
H141	H	-0.319969	-0.910527	-0.201633
H142	H	0.180031	-0.410527	0.298367
H143	H	-0.217697	-0.814712	-0.248961
H144	H	0.282303	-0.314712	0.251039
H145	H	-0.418350	-0.861176	-0.283061
H146	H	0.081650	-0.361176	0.216939
O147	O	-0.000117	-0.688292	0.029679
O148	O	0.499883	-0.188292	0.529679
C149	C	-0.000177	-0.644607	0.091381
C150	C	0.499823	-0.144607	0.591381
H151	H	0.055265	-0.582935	0.069345
H152	H	0.555265	-0.082935	0.569345
H153	H	0.084844	-0.669652	0.135081
H154	H	0.584844	-0.169652	0.635081
H155	H	-0.140683	-0.645911	0.119611
H156	H	0.359317	-0.145911	0.619611
O157	O	0.000100	-0.753538	0.656577
O158	O	0.500100	-0.253538	1.156577
C159	C	0.151800	-0.741262	0.694236
C160	C	0.651800	-0.241262	1.194236
H161	H	0.202333	-0.798483	0.711526
H162	H	0.702333	-0.298483	1.211526
H163	H	0.117703	-0.712856	0.747550
H164	H	0.617703	-0.212856	1.247550
H165	H	0.258030	-0.702521	0.654088
H166	H	0.758030	-0.202521	1.154088
H167	H	-0.000249	-1.016984	0.541726
H168	H	0.499751	-0.516984	1.041726
O169	O	0.000005	-1.025472	0.692492
O170	O	0.500005	-0.525472	1.192492
C171	C	0.151685	-1.060308	0.671336
C172	C	0.651685	-0.560308	1.171336
H173	H	0.202252	-1.039139	0.608935
H174	H	0.702252	-0.539139	1.108935
H175	H	0.117549	-1.125113	0.678680
H176	H	0.617549	-0.625113	1.178680
H177	H	0.257905	-1.044843	0.709283
H178	H	0.757905	-0.544843	1.209283
H179	H	-0.000143	-0.766725	0.508519
H180	H	0.499857	-0.266725	1.008519
