data_functionalizedCrystal
_audit_creation_method	'MofGen! by Chris Wilmer'
_symmetry_space_group_name_H-M	'P1'
_symmetry_Int_Tables_number	1
_symmetry_cell_setting	triclinic
loop_
_symmetry_equiv_pos_as_xyz
  x,y,z
_cell_length_a	14.044220
_cell_length_b	10.540539
_cell_length_c	13.101039
_cell_angle_alpha	93.398267
_cell_angle_beta	86.340132
_cell_angle_gamma	88.857185
loop_
_atom_site_label
_atom_site_type_symbol
_atom_site_fract_x
_atom_site_fract_y
_atom_site_fract_z
O1	O	1.264944	0.299850	-0.085096
O2	O	0.988901	0.288796	-0.085123
O3	O	1.133220	0.110253	-0.085108
O4	O	1.120625	0.478393	-0.085111
O5	O	1.122866	0.123087	0.085321
O6	O	0.978547	0.301630	0.085306
O7	O	1.254589	0.312683	0.085332
Zn8	Zn	1.114924	0.309194	0.112379
Zn9	Zn	1.128566	0.292285	-0.112169
O10	O	1.110270	0.491226	0.085317
C11	C	0.948377	0.290375	0.000088
C12	C	0.843054	0.275945	0.000078
C13	C	1.127098	0.069271	0.000105
C14	C	1.124273	-0.071963	0.000099
C15	C	0.650213	0.249565	0.000099
C16	C	0.593272	0.351908	0.000102
C17	C	0.485969	0.337230	0.000114
C18	C	0.757526	0.264241	0.000087
C19	C	1.016007	-0.266367	-0.000294
C20	C	1.018849	-0.119430	0.000090
C21	C	1.169094	-0.121162	0.097427
C22	C	1.165492	-0.268064	0.097509
C23	C	1.179411	-0.282960	-0.096300
C24	C	1.180460	-0.135977	-0.097587
C25	C	1.295114	0.311104	0.000119
C26	C	1.400437	0.325534	0.000123
C27	C	1.116392	0.532208	0.000103
C28	C	1.119218	0.673442	0.000102
N29	N	1.105620	0.320734	0.265626
N30	N	1.137878	0.280737	-0.265416
C31	C	1.092962	0.336445	0.474667
C32	C	1.150533	0.265029	0.525549
C33	C	1.143490	0.273771	0.641867
C34	C	1.100004	0.327705	0.358339
H35	H	0.625112	0.450550	0.000096
O36	O	0.608051	0.118905	0.000100
H37	H	0.529165	0.127737	0.000098
O38	O	0.971566	-0.075283	-0.092310
H39	H	0.946457	-0.158933	-0.137671
O40	O	1.222828	0.175340	0.467542
H41	H	1.295693	0.201303	0.488065
H42	H	0.974402	-0.076477	0.069968
H43	H	0.970315	-0.295542	0.069103
O44	O	1.116592	-0.062232	0.193363
H45	H	1.040410	-0.088488	0.194320
O46	O	0.966439	-0.316806	-0.092729
H47	H	1.014829	-0.385320	-0.139377
O48	O	1.020680	0.426145	0.532667
H49	H	1.026433	0.419031	0.616249
H50	H	1.123576	-0.294577	0.170256
O51	O	1.265559	-0.321025	0.103392
H52	H	1.316307	-0.241694	0.106174
O53	O	1.271352	-0.080816	0.102251
H54	H	1.291359	-0.025131	0.035172
O55	O	1.140187	-0.336671	-0.194037
H56	H	1.065194	-0.302782	-0.197506
O57	O	1.137161	-0.093901	-0.192971
H58	H	1.075881	-0.027666	-0.170909
H59	H	1.257679	-0.104427	-0.103457
O60	O	1.280328	-0.335388	-0.097175
H61	H	1.287628	-0.392227	-0.029323
