data_functionalizedCrystal
_audit_creation_method	'MofGen! by Chris Wilmer'
_symmetry_space_group_name_H-M	'P1'
_symmetry_Int_Tables_number	1
_symmetry_cell_setting	triclinic
loop_
_symmetry_equiv_pos_as_xyz
  x,y,z
_cell_length_a	17.699083
_cell_length_b	14.519709
_cell_length_c	16.176319
_cell_angle_alpha	89.992256
_cell_angle_beta	89.998611
_cell_angle_gamma	83.481580
loop_
_atom_site_label
_atom_site_type_symbol
_atom_site_fract_x
_atom_site_fract_y
_atom_site_fract_z
O1	O	1.004413	0.116624	-0.068632
O2	O	0.784078	0.131798	-0.068660
O3	O	0.900087	-0.010052	-0.068638
O4	O	0.888403	0.258474	-0.068654
O5	O	0.900071	-0.010061	0.068855
O6	O	0.784062	0.131789	0.068833
O7	O	1.004397	0.116615	0.068861
Cu8	Cu	0.894228	0.124201	0.081401
Cu9	Cu	0.894247	0.124212	-0.081200
O10	O	0.888387	0.258465	0.068839
C11	C	0.755871	0.131249	0.000083
C12	C	0.671848	0.129618	0.000073
C13	C	0.623466	0.212881	0.000068
C14	C	0.544518	0.211343	0.000079
C15	C	0.513954	0.126541	0.000089
C16	C	0.562343	0.043272	0.000096
C17	C	0.641289	0.044811	0.000091
C18	C	0.243962	0.037064	0.000117
C19	C	0.165010	0.035531	0.000119
C20	C	0.147191	0.203596	0.000105
C21	C	0.226137	0.205135	0.000100
C22	C	0.274519	0.121866	0.000112
C23	C	0.360123	0.123535	0.000102
C24	C	0.428352	0.124872	0.000093
C25	C	0.899534	-0.044414	0.000109
C26	C	0.897903	-0.146789	0.000109
C27	C	0.891896	-0.521659	0.000087
C28	C	0.893564	-0.417358	0.000093
C29	C	0.894899	-0.334227	0.000099
C30	C	0.896568	-0.229920	0.000104
C31	C	1.032603	0.117164	0.000116
C32	C	1.116626	0.118795	0.000121
C33	C	0.888940	0.292827	0.000090
C34	C	0.890572	0.395202	0.000085
N35	N	0.894220	0.124193	0.195767
N36	N	0.894260	0.124213	-0.195565
C37	C	0.945604	0.061408	0.239040
C38	C	0.945608	0.061407	0.325588
C39	C	0.894231	0.124196	0.368859
C40	C	0.842841	0.186985	0.325579
C41	C	0.842834	0.186981	0.239034
C42	C	0.842867	0.187002	0.674608
C43	C	0.842879	0.187003	0.761159
C44	C	0.945641	0.061428	0.761161
C45	C	0.945634	0.061424	0.674616
C46	C	0.894242	0.124209	0.631343
C47	C	0.894237	0.124208	0.537499
C48	C	0.894238	0.124202	0.462702
H49	H	0.648344	0.281937	0.000060
O50	O	0.135230	-0.046793	0.000244
C51	C	0.056470	-0.146083	0.071516
C52	C	0.090132	-0.052818	0.071470
H53	H	0.020014	-0.150993	0.129104
H54	H	0.019906	-0.151018	0.014015
H55	H	0.104622	-0.205319	0.071485
H56	H	0.042028	0.006471	0.071530
H57	H	0.126716	-0.047964	0.128966
O58	O	0.497628	0.292310	0.000037
C59	C	0.488284	0.459176	0.000068
C60	C	0.541474	0.367546	0.000094
H61	H	0.523712	0.520027	0.000133
H62	H	0.450887	0.462723	-0.057481
H63	H	0.450867	0.462606	0.057600
H64	H	0.578938	0.364054	-0.057398
H65	H	0.578819	0.364036	0.057682
O66	O	0.290845	-0.043905	0.000088
C67	C	0.300182	-0.210771	0.000155
C68	C	0.246996	-0.119138	0.000168
H69	H	0.264751	-0.271620	0.000237
H70	H	0.337576	-0.214319	-0.057398
H71	H	0.337602	-0.214205	0.057683
H72	H	0.209528	-0.115642	-0.057321
H73	H	0.209653	-0.115628	0.057759
H74	H	0.987445	0.010281	0.203814
H75	H	0.801023	0.238125	0.639382
O76	O	0.793005	0.247944	0.367739
C77	C	0.747443	0.303574	0.501063
C78	C	0.803933	0.234499	0.453423
H79	H	0.756248	0.292715	0.570347
H80	H	0.757399	0.377446	0.484092
H81	H	0.686816	0.291658	0.484008
H82	H	0.864582	0.246331	0.470452
H83	H	0.793910	0.160652	0.470398
H84	H	0.987485	0.010302	0.796403
H85	H	0.801038	0.238136	0.796389
H86	H	0.800990	0.238106	0.203801
H87	H	0.107789	0.271397	0.000100
O88	O	0.255700	0.287592	0.000128
C89	C	0.229691	0.454133	0.000072
C90	C	0.196112	0.360815	0.000055
H91	H	0.181531	0.513358	-0.000004
H92	H	0.266180	0.459112	0.057624
H93	H	0.266231	0.459009	-0.057457
H94	H	0.159538	0.355876	0.057545
H95	H	0.159667	0.355876	-0.057535
O96	O	0.532694	-0.039129	0.000250
C97	C	0.523813	-0.183281	0.071462
C98	C	0.557424	-0.089983	0.071405
H99	H	0.543807	-0.224431	0.128976
H100	H	0.459074	-0.170137	0.071514
H101	H	0.543719	-0.224374	0.013897
H102	H	0.537576	-0.048843	0.128960
H103	H	0.622160	-0.103192	0.071310
O104	O	0.995381	0.000257	0.632560
C105	C	1.011108	-0.125985	0.535124
C106	C	0.954725	-0.056659	0.582639
H107	H	0.978260	-0.172033	0.494766
H108	H	1.049045	-0.086481	0.494470
H109	H	1.047766	-0.170809	0.581016
H110	H	0.918017	-0.011817	0.536808
H111	H	0.916840	-0.096220	0.623307
H112	H	0.987449	0.010281	0.360821
O113	O	0.688260	-0.036095	-0.000055
C114	C	0.727620	-0.179293	-0.071251
C115	C	0.674395	-0.087691	-0.071203
H116	H	0.716417	-0.221043	-0.128759
H117	H	0.789309	-0.163681	-0.071308
H118	H	0.716499	-0.221001	-0.013681
H119	H	0.685447	-0.045939	-0.128763
H120	H	0.612724	-0.103368	-0.071103
