data_functionalizedCrystal
_audit_creation_method	'MofGen! by Chris Wilmer'
_symmetry_space_group_name_H-M	'P1'
_symmetry_Int_Tables_number	1
_symmetry_cell_setting	triclinic
loop_
_symmetry_equiv_pos_as_xyz
  x,y,z
_cell_length_a	18.215407
_cell_length_b	18.101395
_cell_length_c	18.215399
_cell_angle_alpha	90.026427
_cell_angle_beta	90.019833
_cell_angle_gamma	90.031552
loop_
_atom_site_label
_atom_site_type_symbol
_atom_site_fract_x
_atom_site_fract_y
_atom_site_fract_z
Zn1	Zn	1.125040	-0.294828	0.416124
Zn2	Zn	1.124935	-0.418675	0.293061
Zn3	Zn	1.001973	-0.294853	0.293071
Zn4	Zn	1.001925	-0.418634	0.416086
O5	O	1.063468	-0.356747	0.354585
O6	O	1.228010	-0.311264	0.399811
O7	O	1.108600	-0.402277	0.190078
O8	O	1.018362	-0.191216	0.309415
O9	O	1.227933	-0.402253	0.309397
O10	O	1.108779	-0.191199	0.399821
O11	O	1.018260	-0.311305	0.190085
O12	O	0.898982	-0.311265	0.309378
O13	O	1.018281	-0.402183	0.519075
O14	O	0.898947	-0.402207	0.399756
O15	O	1.108733	-0.311224	0.519103
O16	O	1.108554	-0.522302	0.309360
O17	O	1.018179	-0.522272	0.399746
C18	C	0.872262	-0.356735	0.354564
C19	C	0.790463	-0.356747	0.354572
C20	C	0.602270	-0.404175	0.401573
C21	C	0.525412	-0.404177	0.401583
C22	C	0.525418	-0.309333	0.307613
C23	C	0.602276	-0.309328	0.307608
C24	C	0.640700	-0.356753	0.354587
C25	C	0.486984	-0.356761	0.354601
C26	C	0.403650	-0.356763	0.354611
C27	C	0.724039	-0.356750	0.354579
C28	C	1.063370	-0.549158	0.354564
C29	C	1.063395	-0.631472	0.354579
C30	C	1.063557	-0.930563	0.354619
C31	C	1.006827	-0.899249	0.411628
C32	C	1.006557	-0.813632	0.411450
C33	C	1.063476	-0.782180	0.354600
C34	C	1.042479	-0.813331	0.277038
C35	C	1.042113	-0.898976	0.277380
C36	C	1.141408	-0.898906	0.374487
C37	C	1.140950	-0.813255	0.376188
C38	C	1.063432	-0.698321	0.354584
C39	C	1.063599	-1.014422	0.354629
C40	C	1.255421	-0.356761	0.354607
C41	C	1.337220	-0.356766	0.354616
C42	C	1.063513	-0.356696	0.546538
C43	C	1.063532	-0.356675	0.628337
C44	C	1.063587	-0.163585	0.354623
C45	C	1.063638	-0.081271	0.354639
C46	C	1.063466	-0.356745	0.163379
C47	C	1.063590	-0.356558	0.081580
C48	C	1.110648	-0.309268	0.816547
C49	C	1.110656	-0.309246	0.893406
C50	C	1.016469	-0.403967	0.893365
C51	C	1.016457	-0.403984	0.816508
C52	C	1.063551	-0.356636	0.778101
C53	C	1.063571	-0.356597	0.931817
C54	C	1.063580	-0.356574	1.015151
C55	C	1.063541	-0.356657	0.694762
H56	H	0.633553	-0.442789	0.439829
H57	H	1.148992	-0.270712	0.785278
F58	F	1.023824	-0.926109	0.487044
H59	H	1.082498	-0.792959	0.233404
H60	H	0.494126	-0.442792	0.439845
F61	F	0.643177	-0.258848	0.257600
F62	F	1.023727	-0.786098	0.486621
F63	F	0.966354	-0.454358	0.934247
F64	F	0.484518	-0.258864	0.257617
H65	H	1.149006	-0.270673	0.924705
F66	F	0.931862	-0.927478	0.394655
H67	H	0.978100	-0.442556	0.785204
F68	F	0.931131	-0.786934	0.394251
H69	H	0.985204	-0.919019	0.260549
F70	F	1.093771	-0.926056	0.219963
F71	F	1.161649	-0.786641	0.450797
F72	F	0.968881	-0.785384	0.254644
F73	F	1.166431	-0.927071	0.447152
H74	H	1.183674	-0.919155	0.332965
F75	F	1.199122	-0.785262	0.325876
