data_functionalizedCrystal
_audit_creation_method	'MofGen! by Chris Wilmer'
_symmetry_space_group_name_H-M	'P1'
_symmetry_Int_Tables_number	1
_symmetry_cell_setting	triclinic
loop_
_symmetry_equiv_pos_as_xyz
  x,y,z
_cell_length_a	27.732048
_cell_length_b	27.732048
_cell_length_c	26.809956
_cell_angle_alpha	90.024436
_cell_angle_beta	89.995970
_cell_angle_gamma	82.642655
loop_
_atom_site_label
_atom_site_type_symbol
_atom_site_fract_x
_atom_site_fract_y
_atom_site_fract_z
O1	O	0.640924	0.057528	0.041421
O2	O	0.890924	0.307528	0.291421
O3	O	1.140924	0.557528	0.541421
O4	O	1.390924	0.807528	0.791421
O5	O	0.500130	0.066273	0.041436
O6	O	0.750130	0.316273	0.291436
O7	O	1.000130	0.566273	0.541436
O8	O	1.250130	0.816273	0.791436
O9	O	0.574900	-0.008496	0.041419
O10	O	0.824900	0.241504	0.291419
O11	O	1.074900	0.491504	0.541419
O12	O	1.324900	0.741504	0.791419
O13	O	0.566154	0.132297	0.041439
O14	O	0.816154	0.382297	0.291439
O15	O	1.066154	0.632297	0.541439
O16	O	1.316154	0.882297	0.791439
O17	O	0.574900	-0.008520	-0.041541
O18	O	0.824900	0.241480	0.208459
O19	O	1.074900	0.491480	0.458459
O20	O	1.324900	0.741480	0.708459
O21	O	0.500131	0.066249	-0.041523
O22	O	0.750131	0.316249	0.208477
O23	O	1.000131	0.566249	0.458477
O24	O	1.250131	0.816249	0.708477
O25	O	0.640924	0.057504	-0.041539
O26	O	0.890924	0.307504	0.208461
O27	O	1.140924	0.557504	0.458461
O28	O	1.390924	0.807504	0.708461
Zn29	Zn	0.570528	0.061873	-0.054702
Zn30	Zn	0.820528	0.311873	0.195298
Zn31	Zn	1.070528	0.561873	0.445298
Zn32	Zn	1.320528	0.811873	0.695298
Zn33	Zn	0.570527	0.061904	0.054600
Zn34	Zn	0.820527	0.311904	0.304600
Zn35	Zn	1.070527	0.561904	0.554600
Zn36	Zn	1.320527	0.811904	0.804600
O37	O	0.566155	0.132273	-0.041521
O38	O	0.816155	0.382273	0.208479
O39	O	1.066155	0.632273	0.458479
O40	O	1.316155	0.882273	0.708479
C41	C	0.482124	0.066078	-0.000041
C42	C	0.732124	0.316078	0.249959
C43	C	0.982124	0.566078	0.499959
C44	C	1.232124	0.816078	0.749959
C45	C	0.428469	0.065525	-0.000036
C46	C	0.678469	0.315525	0.249964
C47	C	0.928469	0.565525	0.499964
C48	C	1.178469	0.815525	0.749964
C49	C	0.089654	0.106229	-0.000051
C50	C	0.339654	0.356229	0.249949
C51	C	0.589654	0.606229	0.499949
C52	C	0.839654	0.856229	0.749949
C53	C	-0.112006	0.104178	-0.000056
C54	C	0.137994	0.354178	0.249944
C55	C	0.387994	0.604178	0.499944
C56	C	0.637994	0.854178	0.749944
O57	O	-0.143262	0.141398	-0.000073
O58	O	0.106738	0.391398	0.249927
O59	O	0.356738	0.641398	0.499927
O60	O	0.606738	0.891398	0.749927
N61	N	-0.131130	0.059843	-0.000062
N62	N	0.118870	0.309843	0.249938
N63	N	0.368870	0.559843	0.499938
N64	N	0.618870	0.809843	0.749938
C65	C	-0.099835	0.016017	-0.000069
C66	C	0.150165	0.266017	0.249931
C67	C	0.400165	0.516017	0.499931
C68	C	0.650165	0.766017	0.749931
O69	O	-0.120728	-0.021740	-0.000079
O70	O	0.129272	0.228260	0.249921
O71	O	0.379272	0.478260	0.499921
O72	O	0.629272	0.728260	0.749921
C73	C	0.101824	0.018068	-0.000068
C74	C	0.351824	0.268068	0.249932
C75	C	0.601824	0.518068	0.499932
C76	C	0.851824	0.768068	0.749932
C77	C	0.120944	0.062407	-0.000057
C78	C	0.370944	0.312407	0.249943
C79	C	0.620944	0.562407	0.499943
C80	C	0.870944	0.812407	0.749943
C81	C	0.108775	0.150563	-0.000042
C82	C	0.358775	0.400563	0.249958
C83	C	0.608775	0.650563	0.499958
C84	C	0.858775	0.900563	0.749958
C85	C	0.159187	0.151075	-0.000038
C86	C	0.409187	0.401075	0.249962
C87	C	0.659187	0.651075	0.499962
C88	C	0.909187	0.901075	0.749962
C89	C	0.190477	0.107253	-0.000044
C90	C	0.440477	0.357253	0.249956
C91	C	0.690477	0.607253	0.499956
C92	C	0.940477	0.857253	0.749956
C93	C	0.171356	0.062919	-0.000054
C94	C	0.421356	0.312919	0.249946
C95	C	0.671356	0.562919	0.499946
C96	C	0.921356	0.812919	0.749946
C97	C	0.133117	-0.025757	-0.000079
C98	C	0.383117	0.224243	0.249921
C99	C	0.633117	0.474243	0.499921
C100	C	0.883117	0.724243	0.749921
C101	C	0.183535	-0.025240	-0.000080
C102	C	0.433535	0.224760	0.249920
C103	C	0.683535	0.474760	0.499920
C104	C	0.933535	0.724760	0.749920
C105	C	0.202655	0.019098	-0.000069
C106	C	0.452655	0.269098	0.249931
C107	C	0.702655	0.519098	0.499931
C108	C	0.952655	0.769098	0.749931
C109	C	0.253059	0.019609	-0.000056
C110	C	0.503059	0.269609	0.249944
C111	C	0.753059	0.519609	0.499944
C112	C	1.003059	0.769609	0.749944
N113	N	0.272183	0.063944	-0.000050
N114	N	0.522183	0.313944	0.249950
N115	N	0.772183	0.563944	0.499950
N116	N	1.022183	0.813944	0.749950
C117	C	0.240892	0.107766	-0.000044
C118	C	0.490892	0.357766	0.249956
C119	C	0.740892	0.607766	0.499956
C120	C	0.990892	0.857766	0.749956
C121	C	-0.205709	0.014943	-0.000069
C122	C	0.044291	0.264943	0.249931
C123	C	0.294291	0.514943	0.499931
C124	C	0.544291	0.764943	0.749931
C125	C	-0.256124	0.014430	-0.000068
C126	C	-0.006124	0.264430	0.249932
C127	C	0.243876	0.514430	0.499932
C128	C	0.493876	0.764430	0.749932
C129	C	-0.268291	0.102591	-0.000056
C130	C	-0.018291	0.352591	0.249944
C131	C	0.231709	0.602591	0.499944
C132	C	0.481709	0.852591	0.749944
C133	C	-0.217876	0.103103	-0.000053
C134	C	0.032124	0.353103	0.249947
C135	C	0.282124	0.603103	0.499947
C136	C	0.532124	0.853103	0.749947
C137	C	-0.186585	0.059278	-0.000063
C138	C	0.063415	0.309278	0.249937
C139	C	0.313415	0.559278	0.499937
C140	C	0.563415	0.809278	0.749937
C141	C	0.346761	0.108839	-0.000036
C142	C	0.596761	0.358839	0.249964
C143	C	0.846761	0.608839	0.499964
C144	C	1.096761	0.858839	0.749964
C145	C	0.397178	0.109347	-0.000030
C146	C	0.647178	0.359347	0.249970
C147	C	0.897178	0.609347	0.499970
C148	C	1.147178	0.859347	0.749970
C149	C	0.409341	0.021186	-0.000044
C150	C	0.659341	0.271186	0.249956
C151	C	0.909341	0.521186	0.499956
C152	C	1.159341	0.771186	0.749956
C153	C	0.358929	0.020678	-0.000048
C154	C	0.608929	0.270678	0.249952
C155	C	0.858929	0.520678	0.499952
C156	C	1.108929	0.770678	0.749952
C157	C	0.327639	0.064508	-0.000045
C158	C	0.577639	0.314508	0.249955
C159	C	0.827639	0.564508	0.499955
C160	C	1.077639	0.814508	0.749955
O161	O	0.284343	-0.017592	-0.000045
O162	O	0.534343	0.232408	0.249955
O163	O	0.784343	0.482408	0.499955
O164	O	1.034343	0.732408	0.749955
O165	O	0.261794	0.145518	-0.000045
O166	O	0.511794	0.395518	0.249955
O167	O	0.761794	0.645518	0.499955
O168	O	1.011794	0.895518	0.749955
C169	C	0.039242	0.105716	-0.000055
C170	C	0.289242	0.355716	0.249945
C171	C	0.539242	0.605716	0.499945
C172	C	0.789242	0.855716	0.749945
C173	C	0.020120	0.061382	-0.000065
C174	C	0.270120	0.311382	0.249935
C175	C	0.520120	0.561382	0.499935
C176	C	0.770120	0.811382	0.749935
C177	C	0.051411	0.017560	-0.000071
C178	C	0.301411	0.267560	0.249929
C179	C	0.551411	0.517560	0.499929
C180	C	0.801411	0.767560	0.749929
C181	C	-0.030294	0.060869	-0.000065
C182	C	0.219706	0.310869	0.249935
C183	C	0.469706	0.560869	0.499935
C184	C	0.719706	0.810869	0.749935
C185	C	-0.061585	0.104691	-0.000059
C186	C	0.188415	0.354691	0.249941
C187	C	0.438415	0.604691	0.499941
C188	C	0.688415	0.854691	0.749941
C189	C	-0.042461	0.149026	-0.000053
C190	C	0.207539	0.399026	0.249947
C191	C	0.457539	0.649026	0.499947
C192	C	0.707539	0.899026	0.749947
C193	C	0.007951	0.149539	-0.000049
C194	C	0.257951	0.399539	0.249951
C195	C	0.507951	0.649539	0.499951
C196	C	0.757951	0.899539	0.749951
C197	C	0.032287	-0.026775	-0.000077
C198	C	0.282287	0.223225	0.249923
C199	C	0.532287	0.473225	0.499923
C200	C	0.782287	0.723225	0.749923
C201	C	-0.018125	-0.027284	-0.000080
C202	C	0.231875	0.222716	0.249920
C203	C	0.481875	0.472716	0.499920
C204	C	0.731875	0.722716	0.749920
C205	C	-0.049416	0.016538	-0.000074
C206	C	0.200584	0.266538	0.249926
C207	C	0.450584	0.516538	0.499926
C208	C	0.700584	0.766538	0.749926
C209	C	0.574716	-0.026515	-0.000062
C210	C	0.824716	0.223485	0.249938
C211	C	1.074716	0.473485	0.499938
C212	C	1.324716	0.723485	0.749938
C213	C	0.574164	-0.080170	-0.000066
C214	C	0.824164	0.169830	0.249934
C215	C	1.074164	0.419830	0.499934
C216	C	1.324164	0.669830	0.749934
C217	C	0.614867	-0.418985	-0.000045
C218	C	0.864867	-0.168985	0.249955
C219	C	1.114867	0.081015	0.499955
C220	C	1.364867	0.331015	0.749955
C221	C	0.612816	-0.620645	-0.000038
C222	C	0.862816	-0.370645	0.249962
C223	C	1.112816	-0.120645	0.499962
C224	C	1.362816	0.129355	0.749962
O225	O	0.650037	-0.651900	-0.000021
O226	O	0.900037	-0.401900	0.249979
O227	O	1.150037	-0.151900	0.499979
O228	O	1.400037	0.098100	0.749979
N229	N	0.568481	-0.639768	-0.000034
N230	N	0.818481	-0.389768	0.249966
N231	N	1.068481	-0.139768	0.499966
N232	N	1.318481	0.110232	0.749966
C233	C	0.524656	-0.608474	-0.000028
C234	C	0.774656	-0.358474	0.249972
C235	C	1.024656	-0.108474	0.499972
C236	C	1.274656	0.141526	0.749972
O237	O	0.486899	-0.629367	-0.000019
O238	O	0.736899	-0.379367	0.249981
O239	O	0.986899	-0.129367	0.499981
O240	O	1.236899	0.120633	0.749981
C241	C	0.526707	-0.406815	-0.000031
C242	C	0.776707	-0.156815	0.249969
C243	C	1.026707	0.093185	0.499969
C244	C	1.276707	0.343185	0.749969
C245	C	0.571045	-0.387694	-0.000041
C246	C	0.821045	-0.137694	0.249959
C247	C	1.071045	0.112306	0.499959
C248	C	1.321045	0.362306	0.749959
C249	C	0.659202	-0.399864	-0.000054
C250	C	0.909202	-0.149864	0.249946
C251	C	1.159202	0.100136	0.499946
C252	C	1.409202	0.350136	0.749946
C253	C	0.659714	-0.349452	-0.000059
C254	C	0.909714	-0.099452	0.249941
C255	C	1.159714	0.150548	0.499941
C256	C	1.409714	0.400548	0.749941
C257	C	0.615892	-0.318161	-0.000054
C258	C	0.865892	-0.068161	0.249946
C259	C	1.115892	0.181839	0.499946
C260	C	1.365892	0.431839	0.749946
C261	C	0.571557	-0.337282	-0.000045
C262	C	0.821557	-0.087282	0.249955
C263	C	1.071557	0.162718	0.499955
C264	C	1.321557	0.412718	0.749955
C265	C	0.482882	-0.375521	-0.000022
C266	C	0.732882	-0.125521	0.249978
C267	C	0.982882	0.124479	0.499978
C268	C	1.232882	0.374479	0.749978
C269	C	0.483399	-0.325104	-0.000021
C270	C	0.733399	-0.075104	0.249979
C271	C	0.983399	0.174896	0.499979
C272	C	1.233399	0.424896	0.749979
C273	C	0.527737	-0.305983	-0.000031
C274	C	0.777737	-0.055983	0.249969
C275	C	1.027737	0.194017	0.499969
C276	C	1.277737	0.444017	0.749969
C277	C	0.528248	-0.255580	-0.000045
C278	C	0.778248	-0.005580	0.249955
C279	C	1.028248	0.244420	0.499955
C280	C	1.278248	0.494420	0.749955
N281	N	0.572583	-0.236456	-0.000050
N282	N	0.822583	0.013544	0.249950
N283	N	1.072583	0.263544	0.499950
N284	N	1.322583	0.513544	0.749950
C285	C	0.616405	-0.267747	-0.000054
C286	C	0.866405	-0.017747	0.249946
C287	C	1.116405	0.232253	0.499946
C288	C	1.366405	0.482253	0.749946
C289	C	0.523582	-0.714348	-0.000027
C290	C	0.773582	-0.464348	0.249973
C291	C	1.023582	-0.214348	0.499973
C292	C	1.273582	0.035652	0.749973
C293	C	0.523069	-0.764762	-0.000027
C294	C	0.773069	-0.514762	0.249973
C295	C	1.023069	-0.264762	0.499973
C296	C	1.273069	-0.014762	0.749973
C297	C	0.611230	-0.776930	-0.000036
C298	C	0.861230	-0.526930	0.249964
C299	C	1.111230	-0.276930	0.499964
C300	C	1.361230	-0.026930	0.749964
C301	C	0.611742	-0.726514	-0.000040
C302	C	0.861742	-0.476514	0.249960
C303	C	1.111742	-0.226514	0.499960
C304	C	1.361742	0.023486	0.749960
C305	C	0.567917	-0.695224	-0.000031
C306	C	0.817917	-0.445224	0.249969
C307	C	1.067917	-0.195224	0.499969
C308	C	1.317917	0.054776	0.749969
C309	C	0.617477	-0.161878	-0.000064
C310	C	0.867477	0.088122	0.249936
C311	C	1.117477	0.338122	0.499936
C312	C	1.367477	0.588122	0.749936
C313	C	0.617986	-0.111461	-0.000071
C314	C	0.867986	0.138539	0.249929
C315	C	1.117986	0.388539	0.499929
C316	C	1.367986	0.638539	0.749929
C317	C	0.529825	-0.099298	-0.000059
C318	C	0.779825	0.150702	0.249941
C319	C	1.029825	0.400702	0.499941
C320	C	1.279825	0.650702	0.749941
C321	C	0.529316	-0.149710	-0.000055
C322	C	0.779316	0.100290	0.249945
C323	C	1.029316	0.350290	0.499945
C324	C	1.279316	0.600290	0.749945
C325	C	0.573147	-0.180999	-0.000056
C326	C	0.823147	0.069001	0.249944
C327	C	1.073147	0.319001	0.499944
C328	C	1.323147	0.569001	0.749944
O329	O	0.491047	-0.224296	-0.000057
O330	O	0.741047	0.025704	0.249943
O331	O	0.991047	0.275704	0.499943
O332	O	1.241047	0.525704	0.749943
O333	O	0.654156	-0.246844	-0.000053
O334	O	0.904156	0.003156	0.249947
O335	O	1.154156	0.253156	0.499947
O336	O	1.404156	0.503156	0.749947
C337	C	0.614355	-0.469397	-0.000041
C338	C	0.864355	-0.219397	0.249959
C339	C	1.114355	0.030603	0.499959
C340	C	1.364355	0.280603	0.749959
C341	C	0.570021	-0.488518	-0.000032
C342	C	0.820021	-0.238518	0.249968
C343	C	1.070021	0.011482	0.499968
C344	C	1.320021	0.261482	0.749968
C345	C	0.526198	-0.457228	-0.000027
C346	C	0.776198	-0.207228	0.249973
C347	C	1.026198	0.042772	0.499973
C348	C	1.276198	0.292772	0.749973
C349	C	0.569508	-0.538933	-0.000032
C350	C	0.819508	-0.288933	0.249968
C351	C	1.069508	-0.038933	0.499968
C352	C	1.319508	0.211067	0.749968
C353	C	0.613330	-0.570223	-0.000036
C354	C	0.863330	-0.320223	0.249964
C355	C	1.113330	-0.070223	0.499964
C356	C	1.363330	0.179777	0.749964
C357	C	0.657665	-0.551100	-0.000041
C358	C	0.907665	-0.301100	0.249959
C359	C	1.157665	-0.051100	0.499959
C360	C	1.407665	0.198900	0.749959
C361	C	0.658177	-0.500688	-0.000045
C362	C	0.908177	-0.250688	0.249955
C363	C	1.158177	-0.000688	0.499955
C364	C	1.408177	0.249312	0.749955
C365	C	0.481863	-0.476351	-0.000023
C366	C	0.731863	-0.226351	0.249977
C367	C	0.981863	0.023649	0.499977
C368	C	1.231863	0.273649	0.749977
C369	C	0.481355	-0.526764	-0.000019
C370	C	0.731355	-0.276764	0.249981
C371	C	0.981355	-0.026764	0.499981
C372	C	1.231355	0.223236	0.749981
C373	C	0.525177	-0.558054	-0.000023
C374	C	0.775177	-0.308054	0.249977
C375	C	1.025177	-0.058054	0.499977
C376	C	1.275177	0.191946	0.749977
C377	C	0.658931	0.057699	-0.000060
C378	C	0.908931	0.307699	0.249940
C379	C	1.158931	0.557699	0.499940
C380	C	1.408931	0.807699	0.749940
C381	C	0.712586	0.058252	-0.000062
C382	C	0.962586	0.308252	0.249938
C383	C	1.212586	0.558252	0.499938
C384	C	1.462586	0.808252	0.749938
C385	C	0.566338	0.150292	-0.000039
C386	C	0.816338	0.400292	0.249961
C387	C	1.066338	0.650292	0.499961
C388	C	1.316338	0.900292	0.749961
C389	C	0.566891	0.203947	-0.000031
C390	C	0.816891	0.453947	0.249969
C391	C	1.066891	0.703947	0.499969
C392	C	1.316891	0.953947	0.749969
N393	N	0.570532	0.061851	-0.129298
N394	N	0.820532	0.311851	0.120702
N395	N	1.070532	0.561851	0.370702
N396	N	1.320532	0.811851	0.620702
N397	N	0.570527	0.061922	0.129196
N398	N	0.820527	0.311922	0.379196
N399	N	1.070527	0.561922	0.629196
N400	N	1.320527	0.811922	0.879196
C401	C	0.541500	0.032700	0.473821
C402	C	0.791500	0.282700	0.723821
C403	C	1.041500	0.532700	0.973821
C404	C	1.291500	0.782700	1.223821
C405	C	0.541501	0.032683	0.682699
C406	C	0.791501	0.282683	0.932699
C407	C	1.041501	0.532683	1.182699
C408	C	1.291501	0.782683	1.432699
O409	O	0.516826	0.007851	0.709702
O410	O	0.766826	0.257851	0.959702
O411	O	1.016826	0.507851	1.209702
O412	O	1.266826	0.757851	1.459702
N413	N	0.570533	0.061861	0.708823
N414	N	0.820533	0.311861	0.958823
N415	N	1.070533	0.561861	1.208823
N416	N	1.320533	0.811861	1.458823
C417	C	0.599569	0.091043	0.682725
C418	C	0.849569	0.341043	0.932725
C419	C	1.099569	0.591043	1.182725
C420	C	1.349569	0.841043	1.432725
O421	O	0.624266	0.115856	0.709738
O422	O	0.874266	0.365856	0.959738
O423	O	1.124266	0.615856	1.209738
O424	O	1.374266	0.865856	1.459738
C425	C	0.599570	0.091056	0.473848
C426	C	0.849570	0.341056	0.723848
C427	C	1.099570	0.591056	0.973848
C428	C	1.349570	0.841056	1.223848
C429	C	0.570533	0.061880	0.447727
C430	C	0.820533	0.311880	0.697727
C431	C	1.070533	0.561880	0.947727
C432	C	1.320533	0.811880	1.197727
C433	C	0.512465	0.003525	0.447699
C434	C	0.762465	0.253525	0.697699
C435	C	1.012465	0.503525	0.947699
C436	C	1.262465	0.753525	1.197699
C437	C	0.512463	0.003532	0.395483
C438	C	0.762463	0.253532	0.645483
C439	C	1.012463	0.503532	0.895483
C440	C	1.262463	0.753532	1.145483
C441	C	0.541496	0.032712	0.369388
C442	C	0.791496	0.282712	0.619388
C443	C	1.041496	0.532712	0.869388
C444	C	1.291496	0.782712	1.119388
C445	C	0.570531	0.061887	0.395510
C446	C	0.820531	0.311887	0.645510
C447	C	1.070531	0.561887	0.895510
C448	C	1.320531	0.811887	1.145510
C449	C	0.628608	0.120235	0.447751
C450	C	0.878608	0.370235	0.697751
C451	C	1.128608	0.620235	0.947751
C452	C	1.378608	0.870235	1.197751
C453	C	0.628607	0.120235	0.395529
C454	C	0.878607	0.370235	0.645529
C455	C	1.128607	0.620235	0.895529
C456	C	1.378607	0.870235	1.145529
C457	C	0.599570	0.091059	0.369407
C458	C	0.849570	0.341059	0.619407
C459	C	1.099570	0.591059	0.869407
C460	C	1.349570	0.841059	1.119407
C461	C	0.599561	0.091074	0.317199
C462	C	0.849561	0.341074	0.567199
C463	C	1.099561	0.591074	0.817199
C464	C	1.349561	0.841074	1.067199
N465	N	0.570530	0.061896	0.291075
N466	N	0.820530	0.311896	0.541075
N467	N	1.070530	0.561896	0.791075
N468	N	1.320530	0.811896	1.041075
C469	C	0.541497	0.032715	0.317170
C470	C	0.791497	0.282715	0.567170
C471	C	1.041497	0.532715	0.817170
C472	C	1.291497	0.782715	1.067170
C473	C	0.599565	0.091034	0.792388
C474	C	0.849565	0.341034	1.042388
C475	C	1.099565	0.591034	1.292388
C476	C	1.349565	0.841034	1.542388
C477	C	0.599564	0.091032	0.844607
C478	C	0.849564	0.341032	1.094607
C479	C	1.099564	0.591032	1.344607
C480	C	1.349564	0.841032	1.594607
C481	C	0.541497	0.032671	0.844577
C482	C	0.791497	0.282671	1.094577
C483	C	1.041497	0.532671	1.344577
C484	C	1.291497	0.782671	1.594577
C485	C	0.541496	0.032677	0.792357
C486	C	0.791496	0.282677	1.042357
C487	C	1.041496	0.532677	1.292357
C488	C	1.291496	0.782677	1.542357
C489	C	0.570533	0.061856	0.766264
C490	C	0.820533	0.311856	1.016264
C491	C	1.070533	0.561856	1.266264
C492	C	1.320533	0.811856	1.516264
C493	C	0.541495	0.032731	0.207512
C494	C	0.791495	0.282731	0.457512
C495	C	1.041495	0.532731	0.707512
C496	C	1.291495	0.782731	0.957512
C497	C	0.541494	0.032742	0.155291
C498	C	0.791494	0.282742	0.405291
C499	C	1.041494	0.532742	0.655291
C500	C	1.291494	0.782742	0.905291
C501	C	0.599563	0.091100	0.155325
C502	C	0.849563	0.341100	0.405325
C503	C	1.099563	0.591100	0.655325
C504	C	1.349563	0.841100	0.905325
C505	C	0.599562	0.091092	0.207541
C506	C	0.849562	0.341092	0.457541
C507	C	1.099562	0.591092	0.707541
C508	C	1.349562	0.841092	0.957541
C509	C	0.570527	0.061903	0.233633
C510	C	0.820527	0.311903	0.483633
C511	C	1.070527	0.561903	0.733633
C512	C	1.320527	0.811903	0.983633
O513	O	0.624227	0.115889	0.290164
O514	O	0.874227	0.365889	0.540164
O515	O	1.124227	0.615889	0.790164
O516	O	1.374227	0.865889	1.040164
O517	O	0.516812	0.007897	0.290147
O518	O	0.766812	0.257897	0.540147
O519	O	1.016812	0.507897	0.790147
O520	O	1.266812	0.757897	1.040147
C521	C	0.541502	0.032693	0.526037
C522	C	0.791502	0.282693	0.776037
C523	C	1.041502	0.532693	1.026037
C524	C	1.291502	0.782693	1.276037
C525	C	0.570537	0.061867	0.552159
C526	C	0.820537	0.311867	0.802159
C527	C	1.070537	0.561867	1.052159
C528	C	1.320537	0.811867	1.302159
C529	C	0.599569	0.091048	0.526065
C530	C	0.849569	0.341048	0.776065
C531	C	1.099569	0.591048	1.026065
C532	C	1.349569	0.841048	1.276065
C533	C	0.570536	0.061865	0.604378
C534	C	0.820536	0.311865	0.854378
C535	C	1.070536	0.561865	1.104378
C536	C	1.320536	0.811865	1.354378
C537	C	0.541503	0.032684	0.630473
C538	C	0.791503	0.282684	0.880473
C539	C	1.041503	0.532684	1.130473
C540	C	1.291503	0.782684	1.380473
C541	C	0.512471	0.003506	0.604348
C542	C	0.762471	0.253506	0.854348
C543	C	1.012471	0.503506	1.104348
C544	C	1.262471	0.753506	1.354348
C545	C	0.512469	0.003513	0.552132
C546	C	0.762469	0.253513	0.802132
C547	C	1.012469	0.503513	1.052132
C548	C	1.262469	0.753513	1.302132
C549	C	0.628601	0.120226	0.552189
C550	C	0.878601	0.370226	0.802189
C551	C	1.128601	0.620226	1.052189
C552	C	1.378601	0.870226	1.302189
C553	C	0.628600	0.120218	0.604405
C554	C	0.878600	0.370218	0.854405
C555	C	1.128600	0.620218	1.104405
C556	C	1.378600	0.870218	1.354405
C557	C	0.599567	0.091037	0.630500
C558	C	0.849567	0.341037	0.880500
C559	C	1.099567	0.591037	1.130500
C560	C	1.349567	0.841037	1.380500
H561	H	-0.067947	0.184708	-0.000046
H562	H	0.182053	0.434708	0.249954
H563	H	0.432053	0.684708	0.499954
H564	H	0.682053	0.934708	0.749954
F565	F	0.313468	0.155488	-0.000033
F566	F	0.563468	0.405488	0.249967
F567	F	0.813468	0.655488	0.499967
F568	F	1.063468	0.905488	0.749967
F569	F	0.442651	-0.025450	-0.000051
F570	F	0.692651	0.224550	0.249949
F571	F	0.942651	0.474550	0.499949
F572	F	1.192651	0.724550	0.749949
H573	H	0.652245	0.143981	0.625669
H574	H	0.902245	0.393981	0.875669
H575	H	1.152245	0.643981	1.125669
H576	H	1.402245	0.893981	1.375669
H577	H	0.653168	-0.187348	-0.000063
H578	H	0.903168	0.062652	0.249937
H579	H	1.153168	0.312652	0.499937
H580	H	1.403168	0.562652	0.749937
H581	H	0.647846	-0.710950	-0.000047
H582	H	0.897846	-0.460950	0.249953
H583	H	1.147846	-0.210950	0.499953
H584	H	1.397846	0.039050	0.749953
F585	F	0.417524	0.156540	-0.000017
F586	F	0.667524	0.406540	0.249983
F587	F	0.917524	0.656540	0.499983
F588	F	1.167524	0.906540	0.749983
F589	F	0.630461	0.122094	0.872402
F590	F	0.880461	0.372094	1.122402
F591	F	1.130461	0.622094	1.372402
F592	F	1.380461	0.872094	1.622402
F593	F	0.112779	-0.072948	-0.000083
F594	F	0.362779	0.177052	0.249917
F595	F	0.612779	0.427052	0.499917
F596	F	0.862779	0.677052	0.749917
F597	F	0.657869	-0.810240	-0.000040
F598	F	0.907869	-0.560240	0.249960
F599	F	1.157869	-0.310240	0.499960
F600	F	1.407869	-0.060240	0.749960
H601	H	0.695819	-0.333889	-0.000065
H602	H	0.945819	-0.083889	0.249935
H603	H	1.195819	0.166111	0.499935
H604	H	1.445819	0.416111	0.749935
H605	H	0.654093	-0.095896	-0.000080
H606	H	0.904093	0.154104	0.249920
H607	H	1.154093	0.404104	0.499920
H608	H	1.404093	0.654104	0.749920
F609	F	0.481559	-0.027523	0.367689
F610	F	0.731559	0.222477	0.617689
F611	F	0.981559	0.472477	0.867689
F612	F	1.231559	0.722477	1.117689
H613	H	-0.033688	-0.063392	-0.000085
H614	H	0.216312	0.186608	0.249915
H615	H	0.466312	0.436608	0.499915
H616	H	0.716312	0.686608	0.749915
F617	F	0.435691	-0.395860	-0.000009
F618	F	0.685691	-0.145860	0.249991
F619	F	0.935691	0.104140	0.499991
F620	F	1.185691	0.354140	0.749991
F621	F	0.481559	-0.027532	0.475463
F622	F	0.731559	0.222468	0.725463
F623	F	0.981559	0.472468	0.975463
F624	F	1.231559	0.722468	1.225463
H625	H	0.174750	0.187180	-0.000029
H626	H	0.424750	0.437180	0.249971
H627	H	0.674750	0.687180	0.499971
H628	H	0.924750	0.937180	0.749971
F629	F	0.075480	0.197209	-0.000035
F630	F	0.325480	0.447209	0.249965
F631	F	0.575480	0.697209	0.499965
F632	F	0.825480	0.947209	0.749965
H633	H	0.694889	-0.425336	-0.000056
H634	H	0.944889	-0.175336	0.249944
H635	H	1.194889	0.074664	0.499944
H636	H	1.444889	0.324664	0.749944
H637	H	0.447710	-0.299629	-0.000014
H638	H	0.697710	-0.049629	0.249986
H639	H	0.947710	0.200371	0.499986
H640	H	1.197710	0.450371	0.749986
H641	H	-0.202311	0.139207	-0.000047
H642	H	0.047689	0.389207	0.249953
H643	H	0.297689	0.639207	0.499953
H644	H	0.547689	0.889207	0.749953
H645	H	0.486964	-0.780325	-0.000028
H646	H	0.736964	-0.530325	0.249972
H647	H	0.986964	-0.280325	0.499972
H648	H	1.236964	-0.030325	0.749972
F649	F	0.434160	-0.547107	-0.000012
F650	F	0.684160	-0.297107	0.249988
F651	F	0.934160	-0.047107	0.499988
F652	F	1.184160	0.202893	0.749988
H653	H	0.517851	0.008963	0.228749
H654	H	0.767851	0.258963	0.478749
H655	H	1.017851	0.508963	0.728749
H656	H	1.267851	0.758963	0.978749
F657	F	0.216833	-0.071886	-0.000092
F658	F	0.466833	0.178114	0.249908
F659	F	0.716833	0.428114	0.499908
F660	F	0.966833	0.678114	0.749908
H661	H	0.023514	0.185643	-0.000042
H662	H	0.273514	0.435643	0.249958
H663	H	0.523514	0.685643	0.499958
H664	H	0.773514	0.935643	0.749958
H665	H	0.487892	-0.688875	-0.000020
H666	H	0.737892	-0.438875	0.249980
H667	H	0.987892	-0.188875	0.499980
H668	H	1.237892	0.061125	0.749980
H669	H	0.517851	0.008919	0.771093
H670	H	0.767851	0.258919	1.021093
H671	H	1.017851	0.508919	1.271093
H672	H	1.267851	0.758919	1.521093
H673	H	0.057760	-0.062462	-0.000083
H674	H	0.307760	0.187538	0.249917
H675	H	0.557760	0.437538	0.499917
H676	H	0.807760	0.687538	0.749917
F677	F	0.482127	-0.170060	-0.000054
F678	F	0.732127	0.079940	0.249946
F679	F	0.982127	0.329940	0.499946
F680	F	1.232127	0.579940	0.749946
F681	F	-0.172413	-0.031705	-0.000079
F682	F	0.077587	0.218295	0.249921
F683	F	0.327587	0.468295	0.499921
F684	F	0.577587	0.718295	0.749921
F685	F	0.659503	0.151286	0.524424
F686	F	0.909503	0.401286	0.774424
F687	F	1.159503	0.651286	1.024424
F688	F	1.409503	0.901286	1.274424
H689	H	0.446177	-0.450879	-0.000018
H690	H	0.696177	-0.200879	0.249982
H691	H	0.946177	0.049121	0.499982
H692	H	1.196177	0.299121	0.749982
H693	H	0.623212	0.114797	0.771148
H694	H	0.873212	0.364797	1.021148
H695	H	1.123212	0.614797	1.271148
H696	H	1.373212	0.864797	1.521148
H697	H	0.494146	-0.073812	-0.000057
H698	H	0.744146	0.176188	0.249943
H699	H	0.994146	0.426188	0.499943
H700	H	1.244146	0.676188	0.749943
H701	H	0.694282	-0.485125	-0.000053
H702	H	0.944282	-0.235125	0.249947
H703	H	1.194282	0.014875	0.499947
H704	H	1.444282	0.264875	0.749947
H705	H	0.693347	-0.576585	-0.000047
H706	H	0.943347	-0.326585	0.249953
H707	H	1.193347	-0.076585	0.499953
H708	H	1.443347	0.173415	0.749953
F709	F	0.510586	0.001688	0.127493
F710	F	0.760586	0.251688	0.377493
F711	F	1.010586	0.501688	0.627493
F712	F	1.260586	0.751688	0.877493
H713	H	0.343360	-0.015426	-0.000049
H714	H	0.593360	0.234574	0.249951
H715	H	0.843360	0.484574	0.499951
H716	H	1.093360	0.734574	0.749951
H717	H	0.517856	0.008913	0.865832
H718	H	0.767856	0.258913	1.115832
H719	H	1.017856	0.508913	1.365832
H720	H	1.267856	0.758913	1.615832
F721	F	0.659506	0.151298	0.475541
F722	F	0.909506	0.401298	0.725541
F723	F	1.159506	0.651298	0.975541
F724	F	1.409506	0.901298	1.225541
F725	F	0.659515	0.151291	0.367761
F726	F	0.909515	0.401291	0.617761
F727	F	1.159515	0.651291	0.867761
F728	F	1.409515	0.901291	1.117761
F729	F	0.630470	0.122140	0.235343
F730	F	0.880470	0.372140	0.485343
F731	F	1.130470	0.622140	0.735343
F732	F	1.380470	0.872140	0.985343
F733	F	0.630457	0.122157	0.127544
F734	F	0.880457	0.372157	0.377544
F735	F	1.130457	0.622157	0.627544
F736	F	1.380457	0.872157	0.877544
H737	H	0.488830	-0.020251	0.625603
H738	H	0.738830	0.229749	0.875603
H739	H	0.988830	0.479749	1.125603
H740	H	1.238830	0.729749	1.375603
F741	F	-0.301601	0.149230	-0.000050
F742	F	-0.051601	0.399230	0.249950
F743	F	0.198399	0.649230	0.499950
F744	F	0.448399	0.899230	0.749950
F745	F	-0.276468	-0.032761	-0.000068
F746	F	-0.026468	0.217239	0.249932
F747	F	0.223532	0.467239	0.499932
F748	F	0.473532	0.717239	0.749932
F749	F	0.481563	-0.027541	0.524338
F750	F	0.731563	0.222459	0.774338
F751	F	0.981563	0.472459	1.024338
F752	F	1.231563	0.722459	1.274338
