data_functionalizedCrystal
_audit_creation_method	'MofGen! by Chris Wilmer'
_symmetry_space_group_name_H-M	'P1'
_symmetry_Int_Tables_number	1
_symmetry_cell_setting	triclinic
loop_
_symmetry_equiv_pos_as_xyz
  x,y,z
_cell_length_a	17.699083
_cell_length_b	9.130313
_cell_length_c	17.699083
_cell_angle_alpha	89.997869
_cell_angle_beta	96.716985
_cell_angle_gamma	89.994200
loop_
_atom_site_label
_atom_site_type_symbol
_atom_site_fract_x
_atom_site_fract_y
_atom_site_fract_z
O1	O	1.004072	0.121597	-0.095708
O2	O	1.504072	0.621597	0.404292
O3	O	0.783693	0.121645	-0.108160
O4	O	1.283693	0.621645	0.391840
O5	O	0.900109	0.121607	0.008255
O6	O	1.400109	0.621607	0.508255
O7	O	0.887656	0.121635	-0.212123
O8	O	1.387656	0.621635	0.287877
O9	O	0.900107	-0.121992	0.008252
O10	O	1.400107	0.378008	0.508252
O11	O	0.783692	-0.121954	-0.108163
O12	O	1.283692	0.378046	0.391837
O13	O	1.004070	-0.122002	-0.095711
O14	O	1.504070	0.377998	0.404289
Cu15	Cu	0.893881	-0.144220	-0.101937
Cu16	Cu	1.393881	0.355780	0.398063
Cu17	Cu	0.893882	0.143864	-0.101934
Cu18	Cu	1.393882	0.643864	0.398066
O19	O	0.887655	-0.121963	-0.212126
O20	O	1.387655	0.378037	0.287874
C21	C	0.755495	-0.000148	-0.107716
C22	C	1.255495	0.499852	0.392284
C23	C	0.671477	-0.000130	-0.106377
C24	C	1.171477	0.499870	0.393623
N25	N	0.893885	-0.346843	-0.101940
N26	N	1.393885	0.153157	0.398060
C27	C	0.622856	-0.000122	-0.174710
C28	C	1.122856	0.499878	0.325290
C29	C	0.543913	-0.000141	-0.173448
C30	C	1.043913	0.499859	0.326552
C31	C	0.513592	-0.000158	-0.103852
C32	C	1.013592	0.499842	0.396148
C33	C	0.562219	-0.000171	-0.035513
C34	C	1.062219	0.499829	0.464487
C35	C	0.641161	-0.000162	-0.036776
C36	C	1.141161	0.499838	0.463224
C37	C	0.243856	-0.000207	-0.030418
C38	C	0.743856	0.499793	0.469582
C39	C	0.164908	-0.000212	-0.029160
C40	C	0.664908	0.499788	0.470840
C41	C	0.146608	-0.000186	-0.167090
C42	C	0.646608	0.499814	0.332910
C43	C	0.225550	-0.000178	-0.168353
C44	C	0.725550	0.499822	0.331647
C45	C	0.274170	-0.000198	-0.100015
C46	C	0.774170	0.499802	0.399985
C47	C	0.359769	-0.000180	-0.101384
C48	C	0.859769	0.499820	0.398616
C49	C	0.427995	-0.000165	-0.102481
C50	C	0.927995	0.499835	0.397519
C51	C	0.945447	-0.423512	-0.050408
C52	C	1.445447	0.076488	0.449592
C53	C	0.945445	-0.576849	-0.050399
C54	C	1.445445	-0.076849	0.449601
C55	C	0.842317	-0.576834	-0.153460
C56	C	1.342317	-0.076834	0.346540
C57	C	0.842316	-0.423500	-0.153464
C58	C	1.342316	0.076500	0.346536
C59	C	0.997016	-0.346855	0.001117
C60	C	1.497016	0.153145	0.501117
C61	C	1.048583	-0.423524	0.052652
C62	C	1.548583	0.076476	0.552652
C63	C	1.048581	-0.576861	0.052661
C64	C	1.548581	-0.076861	0.552661
C65	C	0.997012	-0.653528	0.001135
C66	C	1.497012	-0.153528	0.501135
C67	C	1.032268	-0.000205	-0.096156
C68	C	1.532268	0.499795	0.403844
C69	C	1.116286	-0.000214	-0.097494
C70	C	1.616286	0.499786	0.402506
C71	C	0.899662	-0.000193	0.036451
C72	C	1.399662	0.499807	0.536451
C73	C	0.898323	-0.000193	0.120469
C74	C	1.398323	0.499807	0.620469
N75	N	0.893884	0.346486	-0.101926
N76	N	1.393884	0.846486	0.398074
C77	C	0.888102	-0.000161	-0.240322
C78	C	1.388102	0.499839	0.259678
C79	C	0.889440	-0.000151	-0.324340
C80	C	1.389440	0.499849	0.175660
C81	C	0.966656	-0.000210	0.169090
C82	C	1.466656	0.499790	0.669090
C83	C	0.965394	-0.000197	0.248033
C84	C	1.465394	0.499803	0.748033
C85	C	0.895798	-0.000177	0.278354
C86	C	1.395798	0.499823	0.778354
C87	C	0.827459	-0.000156	0.229727
C88	C	1.327459	0.499844	0.729727
C89	C	0.828722	-0.000158	0.150785
C90	C	1.328722	0.499842	0.650785
C91	C	0.822364	-0.000143	0.548090
C92	C	1.322364	0.499857	1.048090
C93	C	0.821106	-0.000144	0.627038
C94	C	1.321106	0.499856	1.127038
C95	C	0.959036	-0.000181	0.645338
C96	C	1.459036	0.499819	1.145338
C97	C	0.960299	-0.000184	0.566396
C98	C	1.460299	0.499816	1.066396
C99	C	0.891961	-0.000155	0.517776
C100	C	1.391961	0.499845	1.017776
C101	C	0.893330	-0.000166	0.432177
C102	C	1.393330	0.499834	0.932177
C103	C	0.894427	-0.000176	0.363951
C104	C	1.394427	0.499824	0.863951
H105	H	0.647537	-0.000107	-0.231384
H106	H	1.147537	0.499893	0.268616
Cl107	Cl	0.304969	-0.000232	0.055494
Cl108	Cl	0.804969	0.499768	0.555494
Cl109	Cl	1.051303	-0.000223	0.309154
Cl110	Cl	1.551303	0.499777	0.809154
Cl111	Cl	1.113401	-0.327146	0.117430
Cl112	Cl	1.613401	0.172854	0.617430
Cl113	Cl	0.742813	-0.000131	0.089661
Cl114	Cl	1.242813	0.499869	0.589661
Cl115	Cl	0.777491	-0.327114	-0.218247
Cl116	Cl	1.277491	0.172886	0.281753
Cl117	Cl	0.733606	-0.000116	0.665153
Cl118	Cl	1.233606	0.499884	1.165153
Cl119	Cl	0.126793	-0.000234	0.058340
Cl120	Cl	0.626793	0.499766	0.558340
Cl121	Cl	0.482792	-0.000121	-0.259357
Cl122	Cl	0.982792	0.499879	0.240643
H123	H	0.766718	-0.000119	0.508512
H124	H	1.266718	0.499881	1.008512
Cl125	Cl	0.263663	-0.000148	-0.255849
Cl126	Cl	0.763663	0.499852	0.244151
H127	H	0.680748	-0.000168	0.018868
H128	H	1.180748	0.499832	0.518868
H129	H	0.537526	-0.000205	0.021154
H130	H	1.037526	0.499795	0.521154
H131	H	1.016971	-0.000207	0.541714
H132	H	1.516971	0.499793	1.041714
H133	H	0.107012	-0.000177	-0.222734
H134	H	0.607012	0.499823	0.277266
Cl135	Cl	1.113399	-0.673243	0.117451
Cl136	Cl	1.613399	-0.173243	0.617451
Cl137	Cl	0.777495	-0.673216	-0.218233
Cl138	Cl	1.277495	-0.173216	0.281767
Cl139	Cl	0.997024	-0.154089	0.001105
Cl140	Cl	1.497024	0.345911	0.501105
Cl141	Cl	0.997007	-0.846297	0.001156
Cl142	Cl	1.497007	-0.346297	0.501156
Cl143	Cl	1.044948	-0.000212	0.706465
Cl144	Cl	1.544948	0.499788	1.206465
Cl145	Cl	1.054154	-0.000250	0.130980
Cl146	Cl	1.554154	0.499750	0.630980
Cl147	Cl	0.739966	-0.000113	0.267844
Cl148	Cl	1.239966	0.499887	0.767844
