data_functionalizedCrystal
_audit_creation_method	'MofGen! by Chris Wilmer'
_symmetry_space_group_name_H-M	'P1'
_symmetry_Int_Tables_number	1
_symmetry_cell_setting	triclinic
loop_
_symmetry_equiv_pos_as_xyz
  x,y,z
_cell_length_a	15.995350
_cell_length_b	15.538191
_cell_length_c	14.185569
_cell_angle_alpha	82.124202
_cell_angle_beta	76.847063
_cell_angle_gamma	114.617766
loop_
_atom_site_label
_atom_site_type_symbol
_atom_site_fract_x
_atom_site_fract_y
_atom_site_fract_z
O1	O	-0.246460	-1.228538	-0.083440
O2	O	-0.149782	-0.954280	-0.083436
O3	O	-0.322287	-1.098906	-0.083437
O4	O	-0.073955	-1.083912	-0.083439
O5	O	-0.373243	-1.141630	0.083397
O6	O	-0.200737	-0.997004	0.083399
O7	O	-0.297416	-1.271262	0.083394
Cu8	Cu	-0.253729	-1.138034	0.098629
Cu9	Cu	-0.193468	-1.087508	-0.098671
O10	O	-0.124910	-1.126635	0.083395
C11	C	-0.378771	-1.119648	-0.000022
C12	C	-0.471155	-1.117788	-0.000028
C13	C	-0.165144	-0.940547	-0.000018
C14	C	-0.135015	-0.835973	-0.000016
C15	C	-0.282052	-1.284995	-0.000026
C16	C	-0.312180	-1.389566	-0.000034
C17	C	-0.806875	-1.111115	-0.000024
C18	C	-0.728023	-1.008019	-0.000397
C19	C	-0.632013	-1.009974	-0.000021
C20	C	-0.640320	-1.114425	-0.000026
C21	C	-0.725935	-1.189625	0.095241
C22	C	-0.821808	-1.187058	0.095321
C23	C	-0.764867	-1.140601	-0.094401
C24	C	-0.667530	-1.140254	-0.095660
C25	C	-0.546193	-1.116302	-0.000024
C26	C	-0.901005	-1.109243	-0.000019
C27	C	-0.068426	-1.105893	-0.000022
C28	C	0.023960	-1.107752	-0.000023
N29	N	-0.296116	-1.173578	0.237400
C30	C	-0.434345	-0.548179	-0.000030
C31	C	-0.406012	-0.449913	-0.000031
C32	C	-0.246646	-0.427470	-0.000032
C33	C	-0.274967	-0.525737	-0.000026
C34	C	-0.368817	-0.586085	-0.000026
C35	C	-0.209439	-0.563643	-0.000022
C36	C	-0.237757	-0.661900	-0.000021
C37	C	-0.331602	-0.722252	-0.000025
C38	C	-0.397135	-0.684342	-0.000026
C39	C	-0.115587	-0.503292	-0.000029
C40	C	-0.050060	-0.541197	-0.000025
C41	C	-0.078379	-0.639458	-0.000017
C42	C	-0.172225	-0.699811	-0.000021
C43	C	-0.012847	-0.677369	-0.000016
C44	C	-0.041165	-0.775626	-0.000016
C45	C	-0.200542	-0.798068	-0.000020
N46	N	-0.151090	-1.051971	-0.237442
C47	C	-0.026594	-0.947543	0.605052
C48	C	-0.058698	-0.974474	0.710074
C49	C	-0.211417	-1.102566	0.710033
C50	C	-0.179328	-1.075643	0.605010
C51	C	-0.086915	-0.998131	0.552528
C52	C	-0.239649	-1.126231	0.552485
C53	C	-0.207560	-1.099314	0.447471
C54	C	-0.115150	-1.021807	0.394981
C55	C	-0.054826	-0.971214	0.447514
C56	C	-0.332059	-1.203747	0.604969
C57	C	-0.392380	-1.254336	0.552445
C58	C	-0.360294	-1.227413	0.447428
C59	C	-0.267884	-1.149907	0.394939
C60	C	-0.420618	-1.278007	0.394896
C61	C	-0.388529	-1.251089	0.289882
C62	C	-0.235795	-1.122989	0.289925
H63	H	-0.570596	-0.952551	-0.068312
H64	H	-0.089023	-0.999895	0.309472
C65	C	0.007657	-0.918823	0.767853
H66	H	-0.024684	-0.945958	0.837913
H67	H	0.022896	-0.851549	0.750660
H68	H	0.065695	-0.924648	0.750642
C69	C	0.053167	-0.474814	-0.000018
H70	H	0.060646	-0.410867	-0.000012
H71	H	0.099043	-0.471409	-0.058192
H72	H	0.063487	-0.501208	0.058173
H73	H	-0.607467	-1.085062	-0.166136
H74	H	0.020421	-0.908089	0.404781
C75	C	0.090382	-0.610981	-0.000020
H76	H	0.097861	-0.547034	-0.000018
H77	H	0.136254	-0.607579	-0.058196
H78	H	0.100710	-0.637368	0.058169
H79	H	-0.459379	-0.419056	-0.000036
H80	H	-0.170231	-0.378322	-0.000036
C81	C	0.075058	-0.862279	0.547316
H82	H	0.106393	-0.836004	0.593636
H83	H	0.069347	-0.812576	0.506355
H84	H	0.112152	-0.885669	0.506346
H85	H	-0.473559	-0.733482	-0.000020
H86	H	-0.358180	-1.225663	0.690479
H87	H	-0.878358	-1.263785	0.099639
H88	H	-0.673559	-1.214950	-0.101416
C89	C	0.030908	-0.817331	-0.000009
H90	H	0.000603	-0.884490	-0.000019
H91	H	0.050522	-0.811519	0.058169
H92	H	0.086062	-0.781720	-0.058195
H93	H	-0.467622	-1.317449	0.595188
H94	H	-0.713177	-0.949356	-0.068715
C95	C	-0.765686	-0.976155	0.091387
H96	H	-0.829255	-1.025409	0.129934
H97	H	-0.767062	-0.916321	0.069486
H98	H	-0.723982	-0.967096	0.131378
C99	C	-0.134148	-1.037718	0.232183
H100	H	-0.123684	-1.028930	0.162118
H101	H	-0.086618	-1.052341	0.249387
H102	H	-0.129447	-0.979268	0.249410
C103	C	-0.537578	-0.614566	-0.000035
H104	H	-0.572550	-0.577919	-0.000043
H105	H	-0.569708	-0.668265	0.058139
H106	H	-0.534155	-0.638454	-0.058226
H107	H	-0.286660	-1.165679	0.752776
H108	H	-0.495857	-1.341124	0.437641
H109	H	-0.850603	-1.168250	0.166539
C110	C	-0.606092	-0.979346	0.092401
H111	H	-0.654272	-0.965667	0.129868
H112	H	-0.544967	-0.922356	0.071165
H113	H	-0.603066	-1.031136	0.133205
C114	C	-0.739818	-1.294515	0.100033
H115	H	-0.693410	-1.293374	0.043844
H116	H	-0.803249	-1.335134	0.099149
H117	H	-0.731340	-1.319741	0.160061
C118	C	-0.702374	-1.166480	0.191022
H119	H	-0.640438	-1.111048	0.173157
H120	H	-0.702081	-1.221338	0.229569
H121	H	-0.750066	-1.152749	0.229422
C122	C	-0.454881	-1.306730	0.232101
H123	H	-0.514517	-1.356741	0.278397
H124	H	-0.424136	-1.335436	0.191124
H125	H	-0.466938	-1.262340	0.191144
H126	H	-0.753118	-1.088433	-0.166608
H127	H	-0.819511	-1.216377	-0.095045
H128	H	-0.354653	-0.802256	-0.000038
C129	C	-0.303779	-0.864462	-0.000010
H130	H	-0.311257	-0.928410	-0.000002
H131	H	-0.314122	-0.838079	-0.058184
H132	H	-0.349648	-0.867872	0.058180
H133	H	-0.092533	-0.423285	-0.000032
