data_functionalizedCrystal
_audit_creation_method	'MofGen! by Chris Wilmer'
_symmetry_space_group_name_H-M	'P1'
_symmetry_Int_Tables_number	1
_symmetry_cell_setting	triclinic
loop_
_symmetry_equiv_pos_as_xyz
  x,y,z
_cell_length_a	17.640280
_cell_length_b	12.827893
_cell_length_c	12.827885
_cell_angle_alpha	90.019462
_cell_angle_beta	78.769218
_cell_angle_gamma	101.199338
loop_
_atom_site_label
_atom_site_type_symbol
_atom_site_fract_x
_atom_site_fract_y
_atom_site_fract_z
Zn1	Zn	-0.314632	-1.681788	-0.506827
Zn2	Zn	-0.446826	-1.717024	-0.296785
Zn3	Zn	-0.314670	-1.507039	-0.332090
Zn4	Zn	-0.446767	-1.542341	-0.471501
O5	O	-0.380724	-1.612048	-0.401801
O6	O	-0.332176	-1.832701	-0.478973
O7	O	-0.429336	-1.689141	-0.155221
O8	O	-0.204058	-1.500700	-0.384829
O9	O	-0.429298	-1.858588	-0.324656
O10	O	-0.204030	-1.629087	-0.513207
O11	O	-0.332242	-1.534866	-0.181160
O12	O	-0.332185	-1.365484	-0.350575
O13	O	-0.429198	-1.560867	-0.622434
O14	O	-0.429235	-1.391420	-0.452999
O15	O	-0.332119	-1.663318	-0.648388
O16	O	-0.557424	-1.723372	-0.290402
O17	O	-0.557381	-1.595033	-0.418765
C18	C	-0.380708	-1.340534	-0.401785
C19	C	-0.380721	-1.224384	-0.401798
C20	C	-0.586082	-1.666885	-0.346942
C21	C	-0.673935	-1.690440	-0.323508
C22	C	-0.380648	-1.612100	-0.674391
C23	C	-0.380615	-1.612122	-0.790553
C24	C	-0.962898	-1.433531	-0.580206
C25	C	-1.045449	-1.455667	-0.558153
C26	C	-1.045429	-1.589389	-0.424624
C27	C	-0.962876	-1.567268	-0.446669
C28	C	-0.921617	-1.489337	-0.524461
C29	C	-0.921595	-1.623074	-0.390924
C30	C	-0.839049	-1.600950	-0.412964
C31	C	-0.797784	-1.523021	-0.490750
C32	C	-0.839071	-1.467214	-0.546501
C33	C	-0.962855	-1.700999	-0.313128
C34	C	-0.921574	-1.756805	-0.257382
C35	C	-0.839027	-1.734687	-0.279427
C36	C	-0.797762	-1.656758	-0.357213
C37	C	-0.797740	-1.790494	-0.223676
C38	C	-0.715194	-1.768371	-0.245716
C39	C	-0.715216	-1.634634	-0.379253
C40	C	-0.174563	-1.557025	-0.456897
C41	C	-0.086710	-1.533578	-0.480375
C42	C	-0.380739	-1.884622	-0.401817
C43	C	-0.380746	-2.000777	-0.401824
C44	C	-0.428820	-1.185481	-0.452363
C45	C	-0.428834	-1.065435	-0.452377
C46	C	-0.332561	-1.535800	-0.855176
C47	C	-0.332526	-1.535821	-0.975235
C48	C	-0.380742	-1.612041	-0.130286
C49	C	-0.380552	-1.612162	-0.014184
H50	H	-0.730570	-1.505002	-0.508686
H51	H	-0.805476	-1.403762	-0.609854
H52	H	-1.030069	-1.719011	-0.295188
H53	H	-0.470015	-1.031930	-0.495664
H54	H	-0.955179	-1.820253	-0.194042
H55	H	-0.831345	-1.853938	-0.160332
N56	N	-0.435084	-1.698692	-0.834998
H57	H	-0.402923	-1.738505	-0.888885
H58	H	-0.467150	-1.749551	-0.775318
N59	N	-0.670699	-1.550589	-0.463162
H60	H	-0.685020	-1.570619	-0.534019
H61	H	-0.685127	-1.479824	-0.442931
H62	H	-0.929303	-1.370079	-0.643559
N63	N	-0.483357	-1.259074	-0.509694
H64	H	-0.475618	-1.334400	-0.501555
H65	H	-0.539806	-1.255123	-0.478241
H66	H	-1.079057	-1.410229	-0.603566
H67	H	-1.079033	-1.652837	-0.361283
N68	N	-0.670662	-1.828552	-0.185590
H69	H	-0.709325	-1.881279	-0.132967
H70	H	-0.636365	-1.867695	-0.237328
N71	N	-0.326191	-1.045129	-0.344471
H72	H	-0.358293	-1.098969	-0.287431
H73	H	-0.289635	-1.080608	-0.396890
N74	N	-0.326189	-1.150790	-0.344459
H75	H	-0.338387	-1.172957	-0.266491
H76	H	-0.269736	-1.154677	-0.375957
N77	N	-0.278098	-1.449215	-0.810738
H78	H	-0.285844	-1.461472	-0.731270
H79	H	-0.221631	-1.450397	-0.844852
N80	N	-0.278030	-1.449256	-1.048772
H81	H	-0.285734	-1.461538	-1.124113
H82	H	-0.290330	-1.377887	-1.026449
H83	H	-0.421692	-1.677511	-0.958666
