data_functionalizedCrystal
_audit_creation_method	'MofGen! by Chris Wilmer'
_symmetry_space_group_name_H-M	'P1'
_symmetry_Int_Tables_number	1
_symmetry_cell_setting	triclinic
loop_
_symmetry_equiv_pos_as_xyz
  x,y,z
_cell_length_a	15.995350
_cell_length_b	15.995350
_cell_length_c	14.472310
_cell_angle_alpha	90.009379
_cell_angle_beta	90.001162
_cell_angle_gamma	96.507625
loop_
_atom_site_label
_atom_site_type_symbol
_atom_site_fract_x
_atom_site_fract_y
_atom_site_fract_z
O1	O	0.107921	-1.110997	-0.076758
O2	O	0.121248	-0.867221	-0.076776
O3	O	-0.007303	-0.995773	-0.076766
O4	O	0.236472	-0.982445	-0.076769
O5	O	-0.007296	-0.995740	0.076916
O6	O	0.121256	-0.867188	0.076906
O7	O	0.107928	-1.110963	0.076924
Cu8	Cu	0.114593	-0.989073	0.090947
Cu9	Cu	0.114584	-0.989112	-0.090800
O10	O	0.236480	-0.982412	0.076913
C11	C	0.120701	-0.836010	0.000062
C12	C	0.119049	-0.743060	0.000055
C13	C	-0.038494	-0.995205	0.000073
C14	C	-0.131444	-0.993553	0.000068
C15	C	0.108476	-1.142175	0.000083
C16	C	0.110127	-1.235125	0.000084
C17	C	-0.469192	-0.987621	0.000071
C18	C	-0.421758	-0.896069	-0.000281
C19	C	-0.325068	-0.897721	0.000066
C20	C	-0.301631	-0.990564	0.000069
C21	C	-0.342705	-1.035701	0.087831
C22	C	-0.439340	-1.033401	0.087904
C23	C	-0.439707	-1.035330	-0.086861
C24	C	-0.342762	-1.035309	-0.088021
C25	C	-0.206934	-0.992231	0.000071
C26	C	-0.563890	-0.985956	0.000075
C27	C	0.267671	-0.982980	0.000072
C28	C	0.360621	-0.984631	0.000071
N29	N	0.114598	-0.989051	0.218778
C30	C	0.113117	-0.405312	0.000074
C31	C	0.021565	-0.452746	0.000418
C32	C	0.023217	-0.549436	0.000065
C33	C	0.116060	-0.572873	0.000065
C34	C	0.161212	-0.531804	-0.087692
C35	C	0.158912	-0.435169	-0.087759
C36	C	0.160812	-0.434792	0.087007
C37	C	0.160790	-0.531737	0.088160
C38	C	0.117727	-0.667570	0.000057
C39	C	0.111452	-0.310614	0.000076
N40	N	0.114572	-0.989140	-0.218631
C41	C	0.114581	-0.989111	0.592869
C42	C	0.183135	-0.920095	0.553698
C43	C	0.183385	-0.920254	0.446610
C44	C	0.114590	-0.989081	0.407278
C45	C	0.133671	-1.076445	0.446122
C46	C	0.134159	-1.076057	0.553243
C47	C	0.026741	-0.971542	0.553398
C48	C	0.027327	-0.969538	0.446270
C49	C	0.114593	-0.989069	0.302390
C50	C	0.114579	-0.989128	0.697757
H51	H	-0.440293	-0.859490	-0.063217
N52	N	-0.024307	-0.429541	0.079415
N53	N	0.009934	-0.377767	0.136381
H54	H	-0.022454	-0.361393	0.192192
N55	N	-0.446301	-0.850329	0.078223
N56	N	-0.480116	-0.784326	0.067126
H57	H	-0.497443	-0.752021	0.122574
N58	N	-0.037267	-1.034661	0.585193
N59	N	-0.097249	-1.014220	0.632258
H60	H	-0.142450	-1.058799	0.654719
N61	N	0.123256	-0.409037	0.170455
N62	N	0.093921	-0.462926	0.227880
H63	H	0.067388	-0.444739	0.286812
H64	H	0.247952	-0.931159	0.580608
H65	H	0.248569	-0.931473	0.420976
N66	N	0.073937	-1.142427	0.585793
N67	N	0.014008	-1.125864	0.635421
H68	H	-0.028509	-1.172746	0.658416
N69	N	-0.021616	-0.584420	-0.078980
N70	N	-0.084589	-0.637442	-0.068703
H71	H	-0.116256	-0.662150	-0.124532
N72	N	0.117599	-0.412225	-0.170057
N73	N	0.090661	-0.467557	-0.227043
H74	H	0.061482	-0.451358	-0.285168
N75	N	0.243234	-0.394721	-0.092754
N76	N	0.303593	-0.437890	-0.096186
H77	H	0.363145	-0.409328	-0.099717
N78	N	0.009139	-0.888920	0.414432
N79	N	-0.057832	-0.861419	0.437828
H80	H	-0.070675	-0.804481	0.415340
H81	H	-0.297200	-0.861973	0.063079
H82	H	0.171953	-0.854945	0.579481
H83	H	0.172016	-0.855314	0.420349
H84	H	0.085068	-1.129029	0.420643
N85	N	0.245723	-0.551017	0.094804
N86	N	0.274800	-0.595582	0.034447
H87	H	0.334787	-0.609198	0.039132
H88	H	-0.457639	-1.000459	0.153505
H89	H	-0.471588	-1.100617	0.091888
N90	N	0.245489	-0.394946	0.087742
N91	N	0.270700	-0.345042	0.024587
H92	H	0.330500	-0.316897	0.025099
H93	H	0.198219	-1.091540	0.578220
N94	N	-0.323501	-1.120247	-0.094697
N95	N	-0.284777	-1.143201	-0.163535
H96	H	-0.271177	-1.203193	-0.168248
H97	H	0.197002	-1.092297	0.419285
N98	N	0.003750	-0.893337	0.587316
N99	N	0.051831	-0.849597	0.641001
H100	H	0.035605	-0.794359	0.664953
N101	N	-0.039666	-1.028501	0.412676
N102	N	-0.024117	-1.086147	0.359215
H103	H	-0.071429	-1.127796	0.335488
H104	H	-0.296649	-0.862239	-0.062846
H105	H	-0.014865	-0.433166	-0.062168
N106	N	-0.308481	-0.993987	-0.169466
N107	N	-0.270797	-1.033850	-0.227508
H108	H	-0.246571	-1.004668	-0.285025
N109	N	-0.324984	-1.121268	0.091919
N110	N	-0.281781	-1.150004	0.030050
H111	H	-0.269265	-1.210436	0.032934
N112	N	-0.307094	-0.996333	0.169753
N113	N	-0.251477	-0.935044	0.163730
H114	H	-0.226327	-0.907234	0.221585
H115	H	0.229421	-0.545930	-0.090955
N116	N	-0.465488	-0.997815	-0.170312
N117	N	-0.541896	-0.994337	-0.185799
H118	H	-0.560106	-0.967836	-0.244733
N119	N	-0.479543	-1.120011	-0.087581
N120	N	-0.529443	-1.145214	-0.024417
H121	H	-0.557577	-1.205019	-0.024916
H122	H	0.129845	-0.560193	-0.153002
H123	H	-0.012275	-0.577852	0.062973
H124	H	0.127830	-0.559040	0.153082
