data_functionalizedCrystal
_audit_creation_method	'MofGen! by Chris Wilmer'
_symmetry_space_group_name_H-M	'P1'
_symmetry_Int_Tables_number	1
_symmetry_cell_setting	triclinic
loop_
_symmetry_equiv_pos_as_xyz
  x,y,z
_cell_length_a	25.639242
_cell_length_b	25.639239
_cell_length_c	18.101389
_cell_angle_alpha	89.979551
_cell_angle_beta	89.972814
_cell_angle_gamma	90.033587
loop_
_atom_site_label
_atom_site_type_symbol
_atom_site_fract_x
_atom_site_fract_y
_atom_site_fract_z
Zn1	Zn	0.799254	-0.208277	-0.418885
Zn2	Zn	0.799169	-0.295698	-0.295039
Zn3	Zn	0.711822	-0.208271	-0.295040
Zn4	Zn	0.711775	-0.295675	-0.418821
O5	O	0.755505	-0.251980	-0.356946
O6	O	0.872408	-0.219885	-0.402483
O7	O	0.787566	-0.284108	-0.191406
O8	O	0.723475	-0.135106	-0.311495
O9	O	0.872345	-0.284114	-0.311493
O10	O	0.787711	-0.135111	-0.402483
O11	O	0.723392	-0.219875	-0.191407
O12	O	0.638650	-0.219853	-0.311433
O13	O	0.723396	-0.284074	-0.522463
O14	O	0.638616	-0.284069	-0.402375
O15	O	0.787666	-0.219863	-0.522509
O16	O	0.787521	-0.368860	-0.311432
O17	O	0.723313	-0.368843	-0.402374
C18	C	0.619662	-0.251958	-0.356898
C19	C	0.561548	-0.251961	-0.356895
C20	C	0.310364	-0.218487	-0.309675
C21	C	0.364968	-0.218482	-0.309665
O22	O	0.393212	-0.189991	-0.269475
N23	N	0.392275	-0.251968	-0.356932
C24	C	0.364974	-0.285456	-0.404217
O25	O	0.393214	-0.313937	-0.444421
C26	C	0.310370	-0.285458	-0.404229
C27	C	0.283067	-0.251974	-0.356954
C28	C	0.283060	-0.185006	-0.262404
C29	C	0.228460	-0.185012	-0.262412
C30	C	0.201163	-0.218499	-0.309692
C31	C	0.228466	-0.251980	-0.356963
C32	C	0.283071	-0.318944	-0.451517
C33	C	0.228463	-0.318942	-0.451526
C34	C	0.201160	-0.285459	-0.404251
C35	C	0.146569	-0.285473	-0.404251
N36	N	0.119262	-0.251987	-0.356984
C37	C	0.146560	-0.218500	-0.309704
C38	C	0.479644	-0.285449	-0.404188
C39	C	0.534247	-0.285450	-0.404172
C40	C	0.534237	-0.218476	-0.309621
C41	C	0.479634	-0.218478	-0.309634
C42	C	0.452338	-0.251964	-0.356921
C43	C	0.031894	-0.218515	-0.309726
C44	C	-0.022711	-0.218525	-0.309736
C45	C	-0.022697	-0.285498	-0.404290
C46	C	0.031904	-0.285490	-0.404276
C47	C	0.059198	-0.251994	-0.356992
O48	O	0.118290	-0.313948	-0.444422
O49	O	0.118313	-0.190019	-0.269514
C50	C	0.755417	-0.387823	-0.356912
C51	C	0.755427	-0.445937	-0.356922
C52	C	0.789025	-0.806296	-0.309673
C53	C	0.789045	-0.860900	-0.309683
O54	O	0.817520	-0.889134	-0.269473
N55	N	0.755597	-0.888219	-0.356995
C56	C	0.722130	-0.860931	-0.404306
O57	O	0.693681	-0.889182	-0.444550
C58	C	0.722112	-0.806328	-0.404299
C59	C	0.755559	-0.779012	-0.356979
C60	C	0.822470	-0.778980	-0.262357
C61	C	0.822449	-0.724379	-0.262346
C62	C	0.788983	-0.697095	-0.309652
C63	C	0.755538	-0.724411	-0.356968
C64	C	0.688648	-0.779040	-0.451613
C65	C	0.688634	-0.724433	-0.451603
C66	C	0.722081	-0.697117	-0.404282
C67	C	0.722051	-0.642526	-0.404263
N68	N	0.755500	-0.615207	-0.356950
C69	C	0.788966	-0.642492	-0.309645
C70	C	0.722169	-0.975602	-0.404317
C71	C	0.722183	-1.030204	-0.404321
C72	C	0.789100	-1.030169	-0.309699
C73	C	0.789083	-0.975566	-0.309692
C74	C	0.755618	-0.948283	-0.357005
C75	C	0.788919	-0.527827	-0.309626
C76	C	0.788893	-0.473221	-0.309617
C77	C	0.721979	-0.473260	-0.404241
C78	C	0.722002	-0.527861	-0.404248
C79	C	0.755476	-0.555143	-0.356937
O80	O	0.693593	-0.614258	-0.444455
O81	O	0.817414	-0.614234	-0.269415
C82	C	0.891878	-0.252003	-0.356995
C83	C	0.949992	-0.252012	-0.357016
C84	C	0.755535	-0.251967	-0.550108
C85	C	0.755548	-0.251961	-0.632422
C86	C	0.755608	-0.115607	-0.356996
C87	C	0.755651	-0.057493	-0.357018
C88	C	0.755579	-0.251863	-0.931513
C89	C	0.715002	-0.292135	-0.900159
C90	C	0.715112	-0.292322	-0.814540
C91	C	0.755563	-0.251912	-0.783131
C92	C	0.810647	-0.266873	-0.814240
C93	C	0.810421	-0.267137	-0.899885
C94	C	0.741550	-0.196541	-0.899939
C95	C	0.740324	-0.196861	-0.814288
C96	C	0.755558	-0.251939	-0.699271
C97	C	0.755588	-0.251838	-1.015373
C98	C	0.755505	-0.251956	-0.164536
C99	C	0.755593	-0.251814	-0.082222
H100	H	0.054111	-0.191237	-0.271226
C101	C	0.685170	-0.443237	-0.456278
N102	N	0.657449	-0.420622	-0.495477
H103	H	0.305292	-0.346210	-0.490014
H104	H	0.556473	-0.191208	-0.271125
H105	H	0.661383	-0.702222	-0.490133
H106	H	0.206242	-0.346210	-0.490036
C107	C	0.688225	-0.178131	-0.929090
N108	N	0.648059	-0.164271	-0.951045
H109	H	0.699787	-0.185579	-0.793954
H110	H	0.694942	-1.052440	-0.442847
C111	C	0.852655	-0.229241	-0.927911
N112	N	0.884468	-0.200702	-0.949017
C113	C	0.826993	-0.320928	-0.785276
N114	N	0.839301	-0.361645	-0.763463
C115	C	0.061938	-0.322325	-0.456279
N116	N	0.084557	-0.350065	-0.495455
C117	C	-0.052734	-0.322330	-0.456296
N118	N	-0.075360	-0.350070	-0.495472
C119	C	-0.052742	-0.181686	-0.257732
N120	N	-0.075359	-0.153938	-0.218565
C121	C	0.777330	-0.154170	-0.785391
N122	N	0.805204	-0.122016	-0.763620
C123	C	0.852588	-0.228495	-0.786755
N124	N	0.884178	-0.199589	-0.766051
H125	H	0.457423	-0.312722	-0.442693
H126	H	0.822315	-0.307578	-0.919867
H127	H	0.661410	-0.801272	-0.490143
H128	H	0.771104	-0.166537	-0.920219
H129	H	0.816178	-0.550033	-0.271103
C130	C	0.825686	-0.443177	-0.257555
N131	N	0.853398	-0.420549	-0.218342
C132	C	0.727615	-0.347722	-0.786865
N133	N	0.737022	-0.389454	-0.766020
H134	H	0.206234	-0.157746	-0.223916
H135	H	0.305280	-0.157734	-0.223903
H136	H	0.694913	-0.953390	-0.442843
H137	H	0.457407	-0.191210	-0.271141
C138	C	0.859285	-0.808984	-0.210309
N139	N	0.887014	-0.831580	-0.171097
C140	C	0.659929	-0.279671	-0.786121
N141	N	0.618362	-0.270145	-0.764720
C142	C	0.859239	-0.694339	-0.210283
N143	N	0.886950	-0.671716	-0.171065
C144	C	0.564274	-0.322291	-0.456170
N145	N	0.586889	-0.350038	-0.495341
H146	H	0.816318	-0.953329	-0.271160
C147	C	0.685207	-0.557909	-0.456300
N148	N	0.657496	-0.580538	-0.495512
C149	C	0.825917	-1.060193	-0.257667
N150	N	0.853647	-1.082808	-0.218481
H151	H	0.674032	-0.282868	-0.920742
H152	H	0.724172	-0.332891	-0.921683
