data_functionalizedCrystal
_audit_creation_method	'MofGen! by Chris Wilmer'
_symmetry_space_group_name_H-M	'P1'
_symmetry_Int_Tables_number	1
_symmetry_cell_setting	triclinic
loop_
_symmetry_equiv_pos_as_xyz
  x,y,z
_cell_length_a	12.759401
_cell_length_b	12.645329
_cell_length_c	12.759393
_cell_angle_alpha	90.030351
_cell_angle_beta	90.020938
_cell_angle_gamma	90.019502
loop_
_atom_site_label
_atom_site_type_symbol
_atom_site_fract_x
_atom_site_fract_y
_atom_site_fract_z
Zn1	Zn	1.606242	-0.421945	0.594021
Zn2	Zn	1.606123	-0.599246	0.418342
Zn3	Zn	1.430541	-0.422001	0.418356
Zn4	Zn	1.430523	-0.599172	0.593979
O5	O	1.518358	-0.510591	0.506175
O6	O	1.753248	-0.445472	0.570728
O7	O	1.582790	-0.575788	0.271323
O8	O	1.453906	-0.273647	0.441682
O9	O	1.753160	-0.575734	0.441658
O10	O	1.582993	-0.273605	0.570743
O11	O	1.453790	-0.445568	0.271333
O12	O	1.283518	-0.445496	0.441641
O13	O	1.453875	-0.575607	0.741006
O14	O	1.283504	-0.575662	0.570671
O15	O	1.582975	-0.445400	0.741037
O16	O	1.582772	-0.747583	0.441617
O17	O	1.453759	-0.747529	0.570657
C18	C	1.245390	-0.510578	0.506154
C19	C	1.128614	-0.510598	0.506170
C20	C	1.073772	-0.578479	0.573249
C21	C	0.964048	-0.578483	0.573270
C22	C	0.964016	-0.442722	0.439123
C23	C	1.073739	-0.442714	0.439108
C24	C	0.814150	-0.616521	0.697131
C25	C	0.759305	-0.684418	0.764201
C26	C	0.794897	-0.787874	0.780149
C27	C	0.885332	-0.823454	0.729012
C28	C	0.940171	-0.755562	0.661933
C29	C	0.904581	-0.652092	0.646005
C30	C	1.223639	-0.404686	0.315246
C31	C	1.278480	-0.336799	0.248161
C32	C	1.242890	-0.233342	0.232203
C33	C	1.152452	-0.197766	0.283322
C34	C	1.097610	-0.265653	0.350406
C35	C	1.133208	-0.369109	0.366367
C36	C	1.518279	-0.786021	0.506153
C37	C	1.518342	-0.903851	0.506179
C38	C	1.437142	-0.948743	0.587311
C39	C	1.437478	-1.071302	0.587663
C40	C	1.629265	-1.071612	0.536014
C41	C	1.628698	-0.949014	0.536569
C42	C	1.489792	-0.949150	0.395080
C43	C	1.487446	-1.071758	0.395706
C44	C	1.792391	-0.510605	0.506196
C45	C	1.909167	-0.510611	0.506205
C46	C	1.518436	-0.510489	0.780208
C47	C	1.518470	-0.510446	0.896985
C48	C	1.518464	-0.234086	0.506219
C49	C	1.518510	-0.116255	0.506238
C50	C	1.518340	-0.510616	0.233207
C51	C	1.518510	-0.510360	0.116431
C52	C	1.585697	-0.442636	0.951865
C53	C	1.585715	-0.442590	1.061589
C54	C	1.451275	-0.578173	1.061544
C55	C	1.451252	-0.578213	0.951821
C56	C	1.623334	-0.317515	1.211567
C57	C	1.690578	-0.249715	1.266450
C58	C	1.793092	-0.233459	1.230859
C59	C	1.828382	-0.285019	1.140385
C60	C	1.761144	-0.352827	1.085507
C61	C	1.658616	-0.369063	1.121097
C62	C	1.413644	-0.703289	0.801842
C63	C	1.346410	-0.771104	0.746962
C64	C	1.243895	-0.787370	0.782551
C65	C	1.208608	-0.735829	0.873028
C66	C	1.275842	-0.668014	0.927908
C67	C	1.378356	-0.651746	0.892311
H68	H	1.287547	-0.178072	0.177568
N69	N	1.384560	-0.908353	0.359094
H70	H	1.367786	-0.938400	0.287671
H71	H	1.386748	-0.828626	0.354959
H72	H	1.352120	-0.365774	0.206537
H73	H	1.691466	-1.100722	0.478754
N74	N	0.775761	-0.504933	0.679930
H75	H	0.774662	-0.465917	0.749012
H76	H	0.702688	-0.506894	0.649538
N77	N	1.237788	-0.612421	1.025496
H78	H	1.162642	-0.633014	1.039719
H79	H	1.242377	-0.533392	1.015045
H80	H	1.125133	-0.749078	0.902008
H81	H	0.914297	-0.907702	0.741993
H82	H	1.023975	-0.236675	0.392038
N83	N	1.262019	-0.516282	0.332445
H84	H	1.213556	-0.553889	0.382700
H85	H	1.335128	-0.514341	0.362754
H86	H	1.396551	-0.633349	1.106205
H87	H	1.661835	-0.207734	1.340114
H88	H	1.911863	-0.271785	1.111420
N89	N	1.328708	-1.111305	0.563014
H90	H	1.280109	-1.049299	0.551823
H91	H	1.302354	-1.155549	0.623389
N92	N	1.114054	-0.086181	0.266106
H93	H	1.169995	-0.034467	0.288776
H94	H	1.048424	-0.074046	0.308666
N95	N	1.171379	-0.860525	0.723369
H96	H	1.209287	-0.890719	0.660656
H97	H	1.107843	-0.819749	0.699001
N98	N	1.661906	-1.112164	0.642417
H99	H	1.605119	-1.159442	0.671484
H100	H	1.673336	-1.050426	0.691356
N101	N	1.327957	-0.909842	0.562943
H102	H	1.330064	-0.862737	0.499077
H103	H	1.300117	-0.868515	0.624695
H104	H	1.691280	-0.919309	0.480032
H105	H	1.455835	-0.917858	0.669164
H106	H	1.539857	-0.330737	1.240549
H107	H	1.013801	-0.784531	0.620298
N108	N	1.462587	-1.110058	0.696728
H109	H	1.473489	-1.047500	0.744761
H110	H	1.528511	-1.154196	0.694722
H111	H	1.652865	-0.920333	0.617774
H112	H	1.405936	-1.100952	0.373246
H113	H	1.375154	-0.813081	0.673298
N114	N	1.560134	-1.112265	0.311409
H115	H	1.556547	-1.192014	0.308820
H116	H	1.634252	-1.089467	0.327651
H117	H	1.548927	-0.920106	0.334634
N118	N	1.524216	-0.685738	0.763448
H119	H	1.534869	-0.608266	0.747436
H120	H	1.536294	-0.728746	0.697838
N121	N	1.658190	-0.369547	0.892717
H122	H	1.700780	-0.326582	0.944137
H123	H	1.615436	-0.320501	0.847192
H124	H	0.750234	-0.843156	0.834761
N125	N	1.799193	-0.408441	0.987935
H126	H	1.874343	-0.387860	0.973715
H127	H	1.753998	-0.387210	0.926452
N128	N	1.865630	-0.160361	1.290074
H129	H	1.935936	-0.157899	1.253810
H130	H	1.874967	-0.187305	1.363989
H131	H	1.118448	-0.633752	0.627858
H132	H	0.919324	-0.387455	0.384522
N133	N	0.661766	-0.646050	0.819354
H134	H	0.647544	-0.570202	0.799085
H135	H	0.672271	-0.650763	0.897670
