data_functionalizedCrystal
_audit_creation_method	'MofGen! by Chris Wilmer'
_symmetry_space_group_name_H-M	'P1'
_symmetry_Int_Tables_number	1
_symmetry_cell_setting	triclinic
loop_
_symmetry_equiv_pos_as_xyz
  x,y,z
_cell_length_a	11.792241
_cell_length_b	14.519709
_cell_length_c	10.868271
_cell_angle_alpha	90.002362
_cell_angle_beta	90.000490
_cell_angle_gamma	96.063220
loop_
_atom_site_label
_atom_site_type_symbol
_atom_site_fract_x
_atom_site_fract_y
_atom_site_fract_z
O1	O	-1.506208	0.126399	0.102187
O2	O	-1.256208	0.376399	0.352187
O3	O	-1.006208	0.626399	0.602187
O4	O	-0.756208	0.876399	0.852187
O5	O	-1.175795	0.139427	0.102220
O6	O	-0.925795	0.389427	0.352220
O7	O	-0.675795	0.639427	0.602220
O8	O	-0.425795	0.889427	0.852220
O9	O	-1.349762	-0.001293	0.102192
O10	O	-1.099762	0.248707	0.352192
O11	O	-0.849762	0.498707	0.602192
O12	O	-0.599762	0.748707	0.852192
O13	O	-1.332241	0.267119	0.102216
O14	O	-1.082241	0.517119	0.352216
O15	O	-0.832241	0.767119	0.602216
O16	O	-0.582241	1.017119	0.852216
O17	O	-1.349746	-0.001289	-0.102453
O18	O	-1.099746	0.248711	0.147547
O19	O	-0.849746	0.498711	0.397547
O20	O	-0.599746	0.748711	0.647547
O21	O	-1.175779	0.139431	-0.102424
O22	O	-0.925779	0.389431	0.147576
O23	O	-0.675779	0.639431	0.397576
O24	O	-0.425779	0.889431	0.647576
O25	O	-1.506193	0.126404	-0.102457
O26	O	-1.256193	0.376404	0.147543
O27	O	-1.006193	0.626404	0.397543
O28	O	-0.756193	0.876404	0.647543
Zn29	Zn	-1.340983	0.132918	-0.134933
Zn30	Zn	-1.090983	0.382918	0.115067
Zn31	Zn	-0.840983	0.632918	0.365067
Zn32	Zn	-0.590983	0.882918	0.615067
Zn33	Zn	-1.341004	0.132912	0.134695
Zn34	Zn	-1.091004	0.382912	0.384695
Zn35	Zn	-0.841004	0.632912	0.634695
Zn36	Zn	-0.591004	0.882912	0.884695
O37	O	-1.332226	0.267124	-0.102429
O38	O	-1.082226	0.517124	0.147571
O39	O	-0.832226	0.767124	0.397571
O40	O	-0.582226	1.017124	0.647571
C41	C	-1.133501	0.138611	-0.000098
C42	C	-0.883501	0.388611	0.249902
C43	C	-0.633501	0.638611	0.499902
C44	C	-0.383501	0.888611	0.749902
C45	C	-1.007501	0.136161	-0.000086
C46	C	-0.757501	0.386161	0.249914
C47	C	-0.507501	0.636161	0.499914
C48	C	-0.257501	0.886161	0.749914
C49	C	-0.776813	0.131657	-0.000119
C50	C	-0.526813	0.381657	0.249881
C51	C	-0.276813	0.631657	0.499881
C52	C	-0.026813	0.881657	0.749881
C53	C	-0.905185	0.134160	-0.000101
C54	C	-0.655185	0.384160	0.249899
C55	C	-0.405185	0.634160	0.499899
C56	C	-0.155185	0.884160	0.749899
C57	C	-1.348938	-0.035654	-0.000131
C58	C	-1.098938	0.214346	0.249869
C59	C	-0.848938	0.464346	0.499869
C60	C	-0.598938	0.714346	0.749869
C61	C	-1.346491	-0.138044	-0.000131
C62	C	-1.096491	0.111956	0.249869
C63	C	-0.846491	0.361956	0.499869
C64	C	-0.596491	0.611956	0.749869
C65	C	-1.337483	-0.512973	-0.000098
C66	C	-1.087483	-0.262973	0.249902
C67	C	-0.837483	-0.012973	0.499902
C68	C	-0.587483	0.237027	0.749902
C69	C	-1.339984	-0.408656	-0.000108
C70	C	-1.089984	-0.158656	0.249892
C71	C	-0.839984	0.091344	0.499892
C72	C	-0.589984	0.341344	0.749892
C73	C	-1.341987	-0.325512	-0.000116
C74	C	-1.091987	-0.075512	0.249884
C75	C	-0.841987	0.174488	0.499884
C76	C	-0.591987	0.424488	0.749884
C77	C	-1.344489	-0.221188	-0.000123
C78	C	-1.094489	0.028812	0.249877
C79	C	-0.844489	0.278812	0.499877
C80	C	-0.594489	0.528812	0.749877
C81	C	-0.548487	0.127220	-0.000133
C82	C	-0.298487	0.377220	0.249867
C83	C	-0.048487	0.627220	0.499867
C84	C	0.201513	0.877220	0.749867
C85	C	-0.674487	0.129669	-0.000128
C86	C	-0.424487	0.379669	0.249872
C87	C	-0.174487	0.629669	0.499872
C88	C	0.075513	0.879669	0.749872
C89	C	-1.333050	0.301484	-0.000104
C90	C	-1.083050	0.551484	0.249896
C91	C	-0.833050	0.801484	0.499896
C92	C	-0.583050	1.051484	0.749896
C93	C	-1.335497	0.403875	-0.000095
C94	C	-1.085497	0.653875	0.249905
C95	C	-0.835497	0.903875	0.499905
C96	C	-0.585497	1.153875	0.749905
N97	N	-1.340978	0.132922	-0.318947
N98	N	-1.090978	0.382922	-0.068947
N99	N	-0.840978	0.632922	0.181053
N100	N	-0.590978	0.882922	0.431053
C101	C	-1.340986	0.132922	-0.430284
C102	C	-1.090986	0.382922	-0.180284
C103	C	-0.840986	0.632922	0.069716
C104	C	-0.590986	0.882922	0.319716
C105	C	-1.341001	0.132914	-0.569962
C106	C	-1.091001	0.382914	-0.319962
C107	C	-0.841001	0.632914	-0.069962
C108	C	-0.591001	0.882914	0.180038
N109	N	-1.341019	0.132902	0.318710
N110	N	-1.091019	0.382902	0.568710
N111	N	-0.841019	0.632902	0.818710
N112	N	-0.591019	0.882902	1.068710
