data_functionalizedCrystal
_audit_creation_method	'MofGen! by Chris Wilmer'
_symmetry_space_group_name_H-M	'P1'
_symmetry_Int_Tables_number	1
_symmetry_cell_setting	triclinic
loop_
_symmetry_equiv_pos_as_xyz
  x,y,z
_cell_length_a	27.440280
_cell_length_b	14.628931
_cell_length_c	14.628931
_cell_angle_alpha	60.000164
_cell_angle_beta	90.003821
_cell_angle_gamma	59.998398
loop_
_atom_site_label
_atom_site_type_symbol
_atom_site_fract_x
_atom_site_fract_y
_atom_site_fract_z
Zr1	Zr	0.469503	1.000473	-0.119848
O2	O	0.391684	1.191195	-0.265827
O3	O	0.493358	0.809763	-0.075098
O4	O	0.493358	1.000467	-0.265803
O5	O	0.391683	1.000491	0.075310
O6	O	0.573561	1.000450	-0.265784
O7	O	0.391684	1.000490	-0.075122
O8	O	0.573561	0.659314	0.075352
O9	O	0.391684	1.341626	-0.265826
O10	O	0.563387	0.888187	-0.055999
O11	O	0.503532	0.888200	0.056253
O12	O	0.503533	1.112731	-0.168278
O13	O	0.443678	1.112744	-0.056026
Zr14	Zr	0.597417	1.000445	0.120103
Zr15	Zr	0.597417	1.000445	-0.119818
Zr16	Zr	0.469502	1.000474	0.120073
Zr17	Zr	0.469503	1.240394	-0.119848
Zr18	Zr	0.597416	0.760524	0.120103
O19	O	0.573561	1.191156	0.075353
O20	O	0.573561	1.191155	-0.265784
O21	O	0.391684	1.191196	0.075310
O22	O	0.675235	0.809724	0.266082
O23	O	0.675236	0.809723	-0.075055
O24	O	0.493358	0.809764	0.266039
O25	O	0.675236	1.000428	-0.075055
O26	O	0.573561	1.000451	0.266058
O27	O	0.493358	1.000469	0.266039
O28	O	0.675236	1.000428	0.075377
O29	O	0.493359	1.341604	-0.265802
O30	O	0.573560	0.659314	0.266057
O31	O	0.675235	0.659292	0.266081
O32	O	0.675235	0.659291	0.075376
O33	O	0.391684	1.341627	-0.075121
O34	O	0.493359	1.341605	-0.075097
O35	O	0.563387	0.888188	0.168532
O36	O	0.623241	0.888174	0.056281
O37	O	0.563387	1.112718	-0.055998
O38	O	0.503532	1.112731	0.056253
C39	C	0.533459	0.700355	0.000127
C40	C	0.533459	0.598502	0.000127
C41	C	0.491470	0.526594	-0.078641
C42	C	0.491469	0.631866	-0.078642
C43	C	0.373458	1.000494	0.000090
C44	C	0.319156	1.000506	0.000077
C45	C	0.013701	0.883228	0.058767
C46	C	-0.037317	0.883221	0.058777
O47	O	-0.037134	0.783539	0.108655
N48	N	-0.094077	1.000429	0.000167
C49	C	-0.099818	1.117652	-0.058447
O50	O	-0.152782	1.217346	-0.108297
C51	C	-0.048800	1.117658	-0.058450
C52	C	0.007959	1.000442	0.000154
C53	C	0.070458	0.766022	0.117367
C54	C	0.121473	0.766030	0.117355
C55	C	0.115731	0.883244	0.058743
C56	C	0.058974	1.000450	0.000143
C57	C	-0.054542	1.234880	-0.117057
C58	C	-0.003518	1.234875	-0.117054
C59	C	0.053242	1.117660	-0.058449
C60	C	0.104247	1.117671	-0.058482
N61	N	0.161007	1.000463	0.000128
C62	C	0.166749	0.883249	0.058740
C63	C	-0.206957	1.117631	-0.058435
C64	C	-0.257974	1.117627	-0.058440
C65	C	-0.195470	0.883195	0.058786
C66	C	-0.144452	0.883201	0.058783
C67	C	-0.150197	1.000423	0.000174
C68	C	0.273881	0.883274	0.058710
C69	C	0.324898	0.883292	0.058689
C70	C	0.262389	1.117723	-0.058531
C71	C	0.211377	1.117706	-0.058515
C72	C	0.217127	1.000471	0.000114
O73	O	0.104109	1.217303	-0.108331
O74	O	0.219714	0.783572	0.108594
C75	C	0.693461	1.000424	0.000165
C76	C	0.747764	1.000412	0.000178
C77	C	0.533460	1.000458	-0.299977
C78	C	0.533460	1.000458	-0.401830
C79	C	0.533460	1.300564	0.000128
C80	C	0.533460	1.402417	0.000128
C81	C	0.503768	1.111847	-0.502937
C82	C	0.503768	1.111849	-0.608209
C83	C	0.533459	1.000460	0.300232
C84	C	0.533459	1.000460	0.402085
C85	C	0.693460	0.700319	0.000164
C86	C	0.747763	0.598455	0.000177
C87	C	0.533459	0.700355	0.300232
C88	C	0.533459	0.598503	0.402084
C89	C	0.693460	0.700320	0.300269
C90	C	0.747763	0.598456	0.402135
C91	C	0.373459	1.300598	-0.300014
C92	C	0.319156	1.402462	-0.401880
C93	C	0.373459	1.300599	0.000090
C94	C	0.319156	1.402464	0.000078
C95	C	0.533460	1.300563	-0.299977
C96	C	0.533460	1.402415	-0.401829
C97	C	0.742021	0.550625	-0.058436
C98	C	0.793039	0.454925	-0.058447
C99	C	0.849799	0.407051	0.000163
C100	C	0.855540	0.454891	0.058778
C101	C	0.804523	0.550595	0.058781
C102	C	0.804513	0.550612	0.391378
C103	C	0.855541	0.454913	0.487082
C104	C	0.849818	0.407053	0.593542
C105	C	0.793062	0.454906	0.604297
C106	C	0.742035	0.550610	0.508594
C107	C	0.262406	1.450318	-0.391123
C108	C	0.211378	1.546047	-0.486827
C109	C	0.217101	1.593912	-0.593287
C110	C	0.273857	1.546053	-0.604042
C111	C	0.324884	1.450332	-0.508339
C112	C	0.324898	1.450304	0.058681
C113	C	0.273880	1.546030	0.058665
C114	C	0.217120	1.593907	0.000052
C115	C	0.211379	1.546063	-0.058558
C116	C	0.262397	1.450346	-0.058548
C117	C	0.563151	0.553088	0.503192
C118	C	0.563151	0.447818	0.608463
H119	H	0.371114	0.787837	0.106415
H120	H	0.788411	0.415924	0.690989
C121	C	0.469432	1.240682	-0.514598
N122	N	0.443570	1.337725	-0.523383
H123	H	-0.098239	0.787753	0.106514
C124	C	0.597495	0.395056	0.725639
N125	N	0.623363	0.355314	0.813901
C126	C	0.917982	0.402205	0.123253
N127	N	0.965015	0.362512	0.171823
H128	H	0.478344	1.207213	-0.694945
H129	H	0.508041	0.441465	0.511436
H130	H	0.371110	1.411329	0.106418
H131	H	0.165170	1.584997	-0.478048
C132	C	0.148937	1.598725	-0.123010
N133	N	0.101904	1.638382	-0.171544
C134	C	0.256096	1.397692	-0.274025
N135	N	0.251338	1.358068	-0.185830
C136	C	0.161004	1.699194	0.000058
N137	N	0.118740	1.778492	0.000071
C138	C	0.183904	0.637082	0.181836
N139	N	0.230926	0.539951	0.230410
H140	H	0.891337	0.329121	0.000152
H141	H	-0.190802	0.787753	0.106508
C142	C	0.442902	0.775726	-0.169753
N143	N	0.406320	0.884087	-0.238380
H144	H	0.175547	1.671853	-0.671206
H145	H	0.695809	0.589603	-0.106177
H146	H	0.508037	0.559455	0.393458
C147	C	0.280143	1.598707	-0.721159
N148	N	0.284875	1.638360	-0.809374
H149	H	0.588568	0.592145	0.511818
H150	H	0.569407	0.374040	0.067568
H151	H	0.257713	1.411397	-0.106267
C152	C	-0.213286	1.246593	-0.122933
N153	N	-0.218055	1.343728	-0.171514
C154	C	0.442902	0.564938	-0.169747
N155	N	0.406320	0.593823	-0.238371
H156	H	0.278566	1.584968	0.106397
C157	C	0.582029	0.454644	0.091238
N158	N	0.618612	0.346283	0.159865
H159	H	0.278572	0.787811	0.106453
C160	C	0.810823	0.603248	0.274280
N161	N	0.815581	0.642894	0.186084
C162	C	0.076788	0.637066	0.181839
N163	N	0.081561	0.539927	0.230393
H164	H	-0.304186	1.213076	-0.106176
H165	H	-0.008202	1.330334	-0.164766
C166	C	0.148939	1.246648	-0.122987
N167	N	0.101914	1.343771	-0.171539
C168	C	-0.116969	1.363829	-0.181523
N169	N	-0.163990	1.460962	-0.230082
H170	H	0.257724	1.213156	-0.106256
C171	C	0.905955	0.301766	0.698808
N172	N	0.948240	0.222459	0.778091
C173	C	0.567836	0.871618	-0.480742
N174	N	0.593741	0.774573	-0.392481
H175	H	0.558881	0.905096	-0.393204
C176	C	0.917967	0.402281	0.475226
N177	N	0.964984	0.362637	0.466293
H178	H	0.788353	0.415986	-0.106177
H179	H	0.695829	0.589552	0.517368
H180	H	0.809206	0.589526	0.106517
H181	H	0.371091	1.411369	-0.517111
