data_functionalizedCrystal
_audit_creation_method	'MofGen! by Chris Wilmer'
_symmetry_space_group_name_H-M	'P1'
_symmetry_Int_Tables_number	1
_symmetry_cell_setting	triclinic
loop_
_symmetry_equiv_pos_as_xyz
  x,y,z
_cell_length_a	15.624803
_cell_length_b	15.538191
_cell_length_c	9.730217
_cell_angle_alpha	90.000608
_cell_angle_beta	71.912615
_cell_angle_gamma	66.736403
loop_
_atom_site_label
_atom_site_type_symbol
_atom_site_fract_x
_atom_site_fract_y
_atom_site_fract_z
O1	O	1.156092	0.122845	-0.690601
O2	O	0.888798	0.137510	-0.557353
O3	O	1.074476	-0.006888	-0.649921
O4	O	0.970414	0.267243	-0.598033
O5	O	1.074472	-0.006889	-0.421339
O6	O	0.888794	0.137509	-0.328771
O7	O	1.156088	0.122844	-0.462019
Zn8	Zn	1.022441	0.130176	-0.359103
Zn9	Zn	1.022446	0.130178	-0.660269
O10	O	0.970410	0.267242	-0.369451
C11	C	0.855423	0.136848	-0.426425
C12	C	0.755983	0.134867	-0.376855
C13	C	0.429059	0.128305	-0.836969
C14	C	0.335628	0.126425	-0.790391
C15	C	0.335601	0.126423	-0.541189
C16	C	0.429036	0.128298	-0.587747
C17	C	0.475757	0.129240	-0.735638
C18	C	0.475734	0.129233	-0.486416
C19	C	0.569158	0.131114	-0.532969
C20	C	0.615884	0.132058	-0.680854
C21	C	0.569181	0.131120	-0.782191
C22	C	0.429008	0.128298	-0.338524
C23	C	0.475706	0.129234	-0.237193
C24	C	0.569135	0.131107	-0.283747
C25	C	0.615861	0.132052	-0.431632
C26	C	0.615838	0.132045	-0.182410
C27	C	0.709262	0.133926	-0.228963
C28	C	0.709285	0.133932	-0.478185
C29	C	1.085362	-0.041971	-0.541063
C30	C	1.117793	-0.146504	-0.557243
C31	C	0.795603	-0.434692	-0.396600
C32	C	0.826099	-0.532920	-0.411799
C33	C	0.997633	-0.555152	-0.497311
C34	C	0.967151	-0.456923	-0.482125
C35	C	0.866135	-0.396701	-0.431768
C36	C	1.037683	-0.418932	-0.517293
C37	C	1.007204	-0.320712	-0.502101
C38	C	0.906192	-0.260484	-0.451742
C39	C	0.835655	-0.298481	-0.416576
C40	C	1.138699	-0.479157	-0.567641
C41	C	1.209232	-0.441165	-0.602809
C42	C	1.178752	-0.342944	-0.587627
C43	C	1.077740	-0.282715	-0.537267
C44	C	1.249289	-0.304947	-0.622793
C45	C	1.218809	-0.206727	-0.607601
C46	C	1.047260	-0.184495	-0.522075
C47	C	1.189464	0.123505	-0.592950
C48	C	1.288904	0.125486	-0.642530
C49	C	0.959525	0.302324	-0.478313
C50	C	0.927094	0.406858	-0.462141
N51	N	1.022444	0.130174	-0.153568
N52	N	1.022452	0.130172	-0.865809
C53	C	1.186900	0.002347	-0.235565
C54	C	1.269132	-0.061564	-0.204627
C55	C	1.269142	-0.061565	-0.060752
C56	C	1.186908	0.002351	0.052193
C57	C	1.104675	0.066262	0.021255
C58	C	1.104676	0.066257	-0.122629
C59	C	0.940219	0.194083	0.103252
C60	C	0.940211	0.194090	-0.040623
C61	C	0.857986	0.257998	0.216197
C62	C	0.775754	0.321915	0.185258
C63	C	0.775748	0.321914	0.041372
C64	C	0.857978	0.258001	-0.071562
H65	H	0.437652	0.128470	-0.116778
H66	H	0.297609	0.125666	-0.872918
H67	H	1.079881	-0.604198	-0.538307
Br68	Br	0.857981	0.257999	-0.266831
Br69	Br	1.314531	-0.155161	-0.655295
Br70	Br	0.664134	0.408648	-0.000597
H71	H	0.467103	0.129068	-0.957397
H72	H	1.163513	-0.559133	-0.580021
Br73	Br	0.772641	0.135201	-0.091442
H74	H	1.336086	-0.113605	-0.296598
Br75	Br	0.864822	-0.127183	-0.431103
H76	H	0.857994	0.257991	0.333347
Br77	Br	0.742672	0.134617	-0.744038
Br78	Br	0.302212	0.125756	-0.275340
Br79	Br	0.552412	0.130787	0.018297
Br80	Br	1.186910	0.002336	0.247459
H81	H	0.965003	-0.135458	-0.481079
Br82	Br	1.380740	-0.148309	-0.018757
Br83	Br	0.632604	0.132382	-0.982908
H84	H	0.753397	-0.249444	-0.375580
H85	H	0.297547	0.125659	-0.420774
H86	H	0.713345	-0.385654	-0.355604
H87	H	0.747329	0.134696	-0.598614
Br88	Br	0.730365	-0.584476	-0.364051
H89	H	0.708802	0.373947	0.277225
Br90	Br	1.386377	-0.386687	-0.691099
Br91	Br	1.346321	-0.522903	-0.671133
Br92	Br	1.186905	0.002357	-0.430835
