data_functionalizedCrystal
_audit_creation_method	'MofGen! by Chris Wilmer'
_symmetry_space_group_name_H-M	'P1'
_symmetry_Int_Tables_number	1
_symmetry_cell_setting	triclinic
loop_
_symmetry_equiv_pos_as_xyz
  x,y,z
_cell_length_a	10.489741
_cell_length_b	15.455313
_cell_length_c	16.992695
_cell_angle_alpha	92.847427
_cell_angle_beta	87.603698
_cell_angle_gamma	87.294147
loop_
_atom_site_label
_atom_site_type_symbol
_atom_site_fract_x
_atom_site_fract_y
_atom_site_fract_z
O1	O	1.708924	-0.072078	0.107291
O2	O	1.338633	-0.072091	0.117680
O3	O	1.522293	-0.072078	-0.001665
O4	O	1.525263	-0.072091	0.226636
O5	O	1.511788	0.072184	0.005131
O6	O	1.328127	0.072170	0.124476
O7	O	1.698418	0.072184	0.114087
Cu8	Cu	1.512313	0.085349	0.119902
Cu9	Cu	1.524737	-0.085257	0.111865
O10	O	1.514758	0.072170	0.233432
C11	C	1.285780	0.000038	0.120293
C12	C	1.143947	0.000033	0.117945
N13	N	1.503584	0.205344	0.125555
N14	N	1.533476	-0.205252	0.106206
C15	C	1.069200	0.000045	0.042010
C16	C	0.985373	-0.071083	0.074530
C17	C	0.975051	0.071147	0.081249
C18	C	1.061993	-0.071155	0.150494
C19	C	1.051675	0.071139	0.157206
C20	C	0.967882	-0.000007	0.189781
C21	C	1.751271	0.000053	0.111474
C22	C	1.893105	0.000052	0.113821
C23	C	1.513221	0.000053	-0.027501
C24	C	1.501826	0.000052	-0.114610
C25	C	1.581641	0.250744	0.074872
C26	C	1.575052	0.341551	0.079154
C27	C	1.490412	0.386957	0.134124
C28	C	1.412347	0.341551	0.184809
C29	C	1.418931	0.250745	0.180522
C30	C	1.461994	0.658536	0.152605
C31	C	1.455420	0.749348	0.156889
C32	C	1.618123	0.749343	0.051233
C33	C	1.624704	0.658535	0.046954
C34	C	1.546635	0.613137	0.097637
N35	N	1.483678	0.479777	0.138504
N36	N	1.553363	0.520319	0.093252
C37	C	1.611775	0.000057	-0.164229
C38	C	1.601061	0.000048	-0.246077
C39	C	1.480396	0.000041	-0.278303
C40	C	1.370439	0.000033	-0.228677
C41	C	1.381155	0.000036	-0.146832
C42	C	1.435984	0.000027	-0.522152
C43	C	1.425276	0.000028	-0.604004
C44	C	1.655899	0.000041	-0.621398
C45	C	1.666604	0.000049	-0.539550
C46	C	1.556647	0.000036	-0.489931
N47	N	1.469442	0.000035	-0.361964
N48	N	1.567604	0.000036	-0.406272
C49	C	1.523830	0.000038	0.259268
C50	C	1.535225	0.000033	0.346377
H51	H	1.113465	-0.000040	-0.020419
O52	O	0.915536	0.000062	0.264367
C53	C	0.891392	0.074382	0.392561
C54	C	0.950779	0.074407	0.308127
H55	H	0.919841	0.134492	0.427960
H56	H	0.927378	0.013741	0.421979
H57	H	0.782902	0.074918	0.390232
H58	H	1.059271	0.073901	0.310385
H59	H	0.914692	0.135042	0.278742
H60	H	1.710033	0.000068	-0.137997
H61	H	1.386492	0.786314	0.201655
O62	O	1.706744	0.614664	-0.006698
C63	C	1.769295	0.587561	-0.144104
C64	C	1.676299	0.637155	-0.083336
H65	H	1.744730	0.605740	-0.206079
H66	H	1.760833	0.514797	-0.138764
H67	H	1.871238	0.605475	-0.132448
H68	H	1.574316	0.619313	-0.094954
H69	H	1.684872	0.709907	-0.088691
O70	O	1.783861	-0.000098	-0.508296
C71	C	1.989731	-0.074789	-0.501682
C72	C	1.856973	-0.074748	-0.537117
H73	H	2.048888	-0.135128	-0.524982
H74	H	1.978591	-0.074841	-0.434660
H75	H	2.040026	-0.014385	-0.519214
H76	H	1.806605	-0.135143	-0.519645
H77	H	1.868200	-0.074652	-0.604133
O78	O	1.086784	0.142965	0.198774
C79	C	1.082337	0.299146	0.209302
C80	C	1.042516	0.217868	0.162152
H81	H	1.046540	0.359726	0.179722
H82	H	1.190909	0.298163	0.211152
H83	H	1.038965	0.299715	0.271981
H84	H	1.085799	0.217246	0.099451
H85	H	0.933936	0.218883	0.160367
H86	H	0.936898	0.131281	0.051938
O87	O	1.663892	0.206775	0.021405
C88	C	1.824623	0.216364	-0.082911
C89	C	1.731512	0.266263	-0.022405
H90	H	1.879338	0.264438	-0.118336
H91	H	1.768673	0.173889	-0.124495
H92	H	1.894858	0.173813	-0.050649
H93	H	1.661256	0.308860	-0.054600
H94	H	1.787545	0.308683	0.019176
H95	H	1.638610	0.378515	0.037883
O96	O	0.950193	-0.142887	0.032950
C97	C	0.834297	-0.273773	0.034872
C98	C	0.874055	-0.192504	0.082062
H99	H	0.772711	-0.313901	0.074555
H100	H	0.923267	-0.314308	0.012479
H101	H	0.777404	-0.253238	-0.017378
H102	H	0.930920	-0.212962	0.134346
H103	H	0.785035	-0.151989	0.104396
O104	O	1.107458	-0.142890	0.185488
C105	C	1.224503	-0.198905	0.292504
C106	C	1.173110	-0.117594	0.252948
H107	H	1.277570	-0.178482	0.347061
H108	H	1.292581	-0.238812	0.249268
H109	H	1.141313	-0.239622	0.310495
H110	H	1.256217	-0.076809	0.234956
H111	H	1.104995	-0.077751	0.296209
H112	H	1.681682	0.786314	0.009969
H113	H	1.690593	0.000054	-0.286474
H114	H	1.398429	0.621580	0.193874
O115	O	1.330238	0.385790	0.238184
C116	C	1.247939	0.525680	0.291586
C117	C	1.341003	0.475691	0.231111
H118	H	1.256591	0.598374	0.285877
H119	H	1.272260	0.507874	0.353702
H120	H	1.145991	0.507790	0.279912
H121	H	1.442982	0.493554	0.242713
H122	H	1.316571	0.493501	0.169015
O123	O	1.329088	-0.000090	-0.474048
C124	C	1.140724	-0.074853	-0.437635
C125	C	1.261731	-0.074821	-0.492178
H126	H	1.086245	-0.135276	-0.452262
H127	H	1.077278	-0.014521	-0.446613
H128	H	1.169120	-0.074810	-0.373604
H129	H	1.233452	-0.074895	-0.556230
H130	H	1.325146	-0.135148	-0.483132
O131	O	1.343245	0.206679	0.229869
C132	C	1.284312	0.178915	0.364527
C133	C	1.370131	0.228856	0.308734
H134	H	1.305999	0.196839	0.428302
H135	H	1.303559	0.106204	0.352089
H136	H	1.179768	0.196774	0.354491
H137	H	1.474704	0.211069	0.318739
H138	H	1.350774	0.301554	0.321185
O139	O	1.253209	-0.000130	-0.259950
C140	C	1.058235	-0.074853	-0.273602
C141	C	1.190980	-0.074789	-0.238156
H142	H	1.007875	-0.135199	-0.255981
H143	H	1.069391	-0.074907	-0.340629
H144	H	0.999129	-0.014456	-0.250391
H145	H	1.250158	-0.135176	-0.261306
H146	H	1.179730	-0.074689	-0.171131
H147	H	1.745420	0.000049	-0.661806
H148	H	1.327011	0.000036	-0.630238
H149	H	1.291622	0.000032	-0.106432
