data_functionalizedCrystal
_audit_creation_method	'MofGen! by Chris Wilmer'
_symmetry_space_group_name_H-M	'P1'
_symmetry_Int_Tables_number	1
_symmetry_cell_setting	triclinic
loop_
_symmetry_equiv_pos_as_xyz
  x,y,z
_cell_length_a	17.077404
_cell_length_b	16.959454
_cell_length_c	17.077396
_cell_angle_alpha	89.976220
_cell_angle_beta	90.019501
_cell_angle_gamma	89.976840
loop_
_atom_site_label
_atom_site_type_symbol
_atom_site_fract_x
_atom_site_fract_y
_atom_site_fract_z
Zn1	Zn	1.200054	0.314677	0.443868
Zn2	Zn	1.199961	0.446865	0.312613
Zn3	Zn	1.068786	0.314705	0.312616
Zn4	Zn	1.068754	0.446818	0.443837
O5	O	1.134389	0.380766	0.378234
O6	O	1.309889	0.332220	0.426469
O7	O	1.182535	0.429365	0.202767
O8	O	1.086252	0.204090	0.330042
O9	O	1.309821	0.429338	0.330036
O10	O	1.182694	0.204070	0.426472
O11	O	1.086161	0.332267	0.202769
O12	O	0.958935	0.332222	0.330011
O13	O	1.086197	0.429258	0.553688
O14	O	0.958911	0.429285	0.426418
O15	O	1.182663	0.332174	0.553711
O16	O	1.182504	0.557469	0.330006
O17	O	1.086107	0.557435	0.426415
C18	C	0.930441	0.380752	0.378212
C19	C	0.843191	0.380764	0.378221
C20	C	0.802209	0.431381	0.428340
C21	C	0.720229	0.431383	0.428353
C22	C	0.679232	0.380771	0.378242
C23	C	0.720220	0.330149	0.328121
C24	C	0.802199	0.330144	0.328113
C25	C	0.549350	0.330164	0.328140
C26	C	0.467365	0.330170	0.328147
C27	C	0.467380	0.431404	0.428379
C28	C	0.549359	0.431399	0.428371
C29	C	0.590341	0.380777	0.378249
C30	C	1.134313	0.586132	0.378224
C31	C	1.134352	0.673989	0.378246
C32	C	1.084235	1.045476	0.428440
C33	C	1.184696	1.045452	0.328130
C34	C	1.184673	0.962906	0.328121
C35	C	1.134429	0.921642	0.378272
C36	C	1.084208	0.962923	0.428431
C37	C	1.234887	0.921619	0.277957
C38	C	1.234865	0.839068	0.277946
C39	C	1.184624	0.797802	0.328101
C40	C	1.134402	0.839088	0.378263
C41	C	1.084158	0.797823	0.428414
C42	C	1.033940	0.839108	0.478580
C43	C	1.033968	0.921657	0.478586
C44	C	1.184596	0.715254	0.328095
C45	C	1.084132	0.715270	0.428405
C46	C	1.339133	0.380781	0.378256
C47	C	1.426383	0.380787	0.378265
C48	C	1.134436	0.380708	0.582978
C49	C	1.134457	0.380683	0.670228
C50	C	1.134474	1.174598	0.378265
C51	C	1.134479	1.086741	0.378289
C52	C	1.134387	0.380767	0.174286
C53	C	1.134519	0.380569	0.087036
C54	C	1.184688	0.330127	0.711231
C55	C	1.184698	0.330101	0.793212
C56	C	1.134479	0.380635	0.834187
C57	C	1.084242	0.431193	0.793178
C58	C	1.084229	0.431214	0.711199
C59	C	1.084274	0.431145	0.964048
C60	C	1.084287	0.431125	1.046033
C61	C	1.184742	0.330032	1.046061
C62	C	1.184729	0.330053	0.964082
C63	C	1.134493	0.380613	0.923078
H64	H	0.835565	0.288922	0.287305
H65	H	1.043350	0.472335	0.826547
Cl66	Cl	1.021076	0.494770	0.659651
Cl67	Cl	1.247714	0.663356	0.265026
Cl68	Cl	1.021110	1.097374	0.491506
Cl69	Cl	1.247897	0.266473	1.097608
H70	H	1.225585	0.288979	0.677875
Cl71	Cl	1.247884	0.266577	0.844756
H72	H	0.835583	0.472598	0.469143
Cl73	Cl	1.247867	0.266529	0.912571
Cl74	Cl	0.668712	0.495019	0.491362
H75	H	0.433987	0.288948	0.287352
H76	H	1.275756	0.805459	0.237099
H77	H	1.043393	0.472272	1.079393
Cl78	Cl	0.600868	0.266524	0.265128
H79	H	1.043354	0.472303	0.930666
Cl80	Cl	0.415860	0.495031	0.491401
H81	H	0.582737	0.472616	0.469172
H82	H	0.686833	0.288936	0.287323
Cl83	Cl	0.970840	0.973562	0.541645
H84	H	1.043220	0.681677	0.469247
H85	H	0.993027	0.805501	0.519410
H86	H	1.225598	1.079055	0.287294
H87	H	1.275787	0.955223	0.237121
