data_functionalizedCrystal
_audit_creation_method	'MofGen! by Chris Wilmer'
_symmetry_space_group_name_H-M	'P1'
_symmetry_Int_Tables_number	1
_symmetry_cell_setting	triclinic
loop_
_symmetry_equiv_pos_as_xyz
  x,y,z
_cell_length_a	25.639242
_cell_length_b	25.639242
_cell_length_c	11.169409
_cell_angle_alpha	90.031940
_cell_angle_beta	89.973156
_cell_angle_gamma	89.998286
loop_
_atom_site_label
_atom_site_type_symbol
_atom_site_fract_x
_atom_site_fract_y
_atom_site_fract_z
Zn1	Zn	0.208171	0.799394	0.678977
Zn2	Zn	0.295621	0.799352	0.478313
Zn3	Zn	0.208194	0.711955	0.478268
Zn4	Zn	0.295570	0.711965	0.678915
O5	O	0.251889	0.755666	0.578618
O6	O	0.219782	0.872553	0.652402
O7	O	0.284055	0.787737	0.310357
O8	O	0.135026	0.723567	0.504900
O9	O	0.284032	0.872523	0.504975
O10	O	0.135009	0.787808	0.652359
O11	O	0.219823	0.723527	0.310324
O12	O	0.219774	0.638791	0.504840
O13	O	0.283945	0.723584	0.846873
O14	O	0.283968	0.638798	0.652255
O15	O	0.219733	0.787818	0.846918
O16	O	0.368779	0.787746	0.504916
O17	O	0.368742	0.723543	0.652298
C18	C	0.251868	0.619824	0.578537
C19	C	0.251872	0.561710	0.578530
C20	C	0.285371	0.201359	0.655304
C21	C	0.285374	0.146755	0.655323
O22	O	0.313830	0.118529	0.720530
N23	N	0.251903	0.119427	0.578696
C24	C	0.218423	0.146707	0.502055
O25	O	0.189954	0.118448	0.436880
C26	C	0.218418	0.201310	0.502043
C27	C	0.251895	0.228635	0.578666
C28	C	0.318845	0.228684	0.731922
C29	C	0.318842	0.283285	0.731901
C30	C	0.285366	0.310560	0.655262
C31	C	0.251892	0.283235	0.578645
C32	C	0.184936	0.228588	0.425408
C33	C	0.184933	0.283196	0.425403
C34	C	0.218410	0.310520	0.502026
C35	C	0.218413	0.365112	0.501985
N36	N	0.251884	0.392439	0.578612
C37	C	0.285360	0.365164	0.655250
C38	C	0.218437	0.032036	0.502087
C39	C	0.218444	-0.022566	0.502092
C40	C	0.285395	-0.022514	0.655362
C41	C	0.285389	0.032089	0.655350
C42	C	0.251908	0.059364	0.578714
C43	C	0.285352	0.479829	0.655200
C44	C	0.285348	0.534434	0.655169
C45	C	0.218397	0.534377	0.501904
C46	C	0.218402	0.479777	0.501930
C47	C	0.251882	0.452504	0.578588
O48	O	0.189970	0.393372	0.436815
O49	O	0.313820	0.393429	0.720425
C50	C	0.115516	0.755691	0.578632
C51	C	0.057402	0.755702	0.578637
C52	C	-0.302958	0.722244	0.501894
C53	C	-0.357562	0.722244	0.501900
O54	O	-0.385796	0.693787	0.436642
N55	N	-0.384881	0.755692	0.578672
C56	C	-0.357592	0.789139	0.655452
O57	O	-0.385843	0.817589	0.720754
C58	C	-0.302989	0.789137	0.655451
C59	C	-0.275673	0.755690	0.578665
C60	C	-0.275642	0.688800	0.425115
C61	C	-0.221041	0.688801	0.425108
C62	C	-0.193757	0.722247	0.501880
C63	C	-0.221072	0.755691	0.578658
C64	C	-0.275701	0.822581	0.732237
C65	C	-0.221094	0.822576	0.732230
C66	C	-0.193778	0.789129	0.655444
C67	C	-0.139187	0.789139	0.655423
N68	N	-0.111869	0.755690	0.578651
C69	C	-0.139153	0.722245	0.501879
C70	C	-0.472263	0.789141	0.655449
C71	C	-0.526865	0.789147	0.655444
C72	C	-0.526831	0.722250	0.501893
C73	C	-0.472228	0.722248	0.501893
C74	C	-0.444944	0.755693	0.578677
C75	C	-0.024488	0.722250	0.501869
C76	C	0.030117	0.722256	0.501866
C77	C	0.030079	0.789151	0.655421
C78	C	-0.024522	0.789147	0.655421
C79	C	-0.051804	0.755693	0.578641
O80	O	-0.110919	0.817579	0.720651
O81	O	-0.110896	0.693794	0.436599
C82	C	0.387732	0.755655	0.578631
C83	C	0.445846	0.755699	0.578677
C84	C	0.251831	0.755706	0.891661
C85	C	0.251806	0.755724	1.025061
C86	C	0.251910	0.892039	0.578701
C87	C	0.251919	0.950153	0.578736
C88	C	0.251909	0.755656	0.266793
C89	C	0.251787	0.755741	0.133394
H90	H	0.191172	0.054240	0.439672
H91	H	0.157677	0.206350	0.363010
O92	O	-0.053908	0.686174	0.419042
H93	H	-0.043424	0.645142	0.439583
O94	O	0.321450	0.563908	0.737828
H95	H	0.362476	0.553421	0.717114
O96	O	0.148827	0.312614	0.342728
H97	H	0.125556	0.284437	0.289446
O98	O	0.182298	0.450299	0.419287
H99	H	0.159018	0.478442	0.365997
H100	H	-0.198882	0.849807	0.794768
H101	H	-0.046763	0.816388	0.717934
O102	O	0.059576	0.686181	0.419034
H103	H	0.102130	0.691803	0.431909
O104	O	0.059511	0.825218	0.738238
H105	H	0.102069	0.819590	0.725340
H106	H	0.346105	0.206482	0.794336
O107	O	0.182341	-0.052037	0.419444
H108	H	0.159061	-0.023891	0.366160
O109	O	-0.556268	0.686177	0.419086
H110	H	-0.528104	0.662920	0.365683
H111	H	0.312614	0.457629	0.717625
H112	H	-0.198806	0.661564	0.362584
H113	H	-0.297852	0.661562	0.362599
O114	O	-0.442834	0.825220	0.738260
H115	H	-0.453310	0.866252	0.717689
O116	O	-0.442766	0.686169	0.419086
H117	H	-0.470918	0.662913	0.365711
O118	O	0.182288	0.563800	0.419250
H119	H	0.187908	0.606359	0.432128
O120	O	-0.556325	0.825233	0.738235
H121	H	-0.528174	0.848489	0.791611
H122	H	0.346101	0.305528	0.794298
O123	O	0.321486	0.061563	0.738009
H124	H	0.362513	0.051080	0.717293
O125	O	0.321498	-0.051937	0.738040
H126	H	0.315870	-0.094496	0.725180
O127	O	-0.305156	0.858666	0.815033
H128	H	-0.277001	0.881919	0.868409
