data_functionalizedCrystal
_audit_creation_method	'MofGen! by Chris Wilmer'
_symmetry_space_group_name_H-M	'P1'
_symmetry_Int_Tables_number	1
_symmetry_cell_setting	triclinic
loop_
_symmetry_equiv_pos_as_xyz
  x,y,z
_cell_length_a	14.044220
_cell_length_b	12.837943
_cell_length_c	12.503552
_cell_angle_alpha	93.895901
_cell_angle_beta	93.839891
_cell_angle_gamma	85.991091
loop_
_atom_site_label
_atom_site_type_symbol
_atom_site_fract_x
_atom_site_fract_y
_atom_site_fract_z
O1	O	-1.285436	0.246497	-0.089191
O2	O	-1.008646	0.237401	-0.089219
O3	O	-1.140904	0.090478	-0.089207
O4	O	-1.153178	0.393419	-0.089204
O5	O	-1.130945	0.101537	0.089435
O6	O	-0.998688	0.248460	0.089423
O7	O	-1.275477	0.257556	0.089450
Cu8	Cu	-1.136173	0.254017	0.105748
Cu9	Cu	-1.147950	0.240939	-0.105517
O10	O	-1.143220	0.404478	0.089438
C11	C	-0.967993	0.238949	0.000098
C12	C	-0.861696	0.227074	0.000087
C13	C	-1.316130	0.256007	0.000131
C14	C	-1.422428	0.267882	0.000135
C15	C	-1.152346	0.437953	0.000118
C16	C	-1.164713	0.554173	0.000119
C17	C	-0.667072	0.205367	0.000108
C18	C	-0.617046	0.289584	0.000114
C19	C	-0.508751	0.277506	0.000125
C20	C	-0.775377	0.217444	0.000097
C21	C	-1.131778	0.057004	0.000111
C22	C	-1.119411	-0.059218	0.000102
N23	N	-1.127897	0.263216	0.254340
C24	C	-1.016036	0.781382	0.000085
C25	C	-1.027652	0.890582	0.000086
C26	C	-1.199560	0.881775	0.000115
C27	C	-1.187944	0.772575	0.000114
C28	C	-1.096179	0.722382	0.000100
C29	C	-1.084564	0.613181	0.000107
C30	C	-1.256472	0.604376	0.000128
C31	C	-1.268088	0.713576	0.000129
N32	N	-1.156233	0.231733	-0.254108
C33	C	-1.168403	0.218198	0.526777
C34	C	-1.115731	0.276748	0.473448
C35	C	-1.122502	0.269217	0.351525
C36	C	-1.161633	0.225728	0.648711
H37	H	-0.628572	0.124201	0.000113
H38	H	-1.274268	0.922665	0.000193
O39	O	-0.663126	0.386343	0.000034
C40	C	-0.814645	0.486760	0.000020
C41	C	-0.762576	0.377126	0.000104
H42	H	-0.895057	0.479346	0.000100
H43	H	-0.797913	0.526413	-0.074770
H44	H	-0.789497	0.535697	0.074753
H45	H	-0.787694	0.328105	-0.074578
H46	H	-0.779308	0.337555	0.074943
O47	O	-0.995493	0.564257	0.000137
C48	C	-0.901410	0.399930	0.000051
C49	C	-1.002337	0.455199	0.000047
H50	H	-0.906910	0.311747	-0.000045
H51	H	-0.857110	0.428125	0.074819
H52	H	-0.865491	0.419008	-0.074703
H53	H	-1.038338	0.436146	0.074750
H54	H	-1.046567	0.427000	-0.074771
H55	H	-0.962391	0.938615	0.000072
O56	O	-0.926836	0.732781	0.000027
C57	C	-0.757548	0.753041	0.000073
C58	C	-0.858514	0.808210	0.000114
H59	H	-0.702280	0.814002	0.000166
H60	H	-0.751920	0.697540	-0.074708
H61	H	-0.743695	0.706731	0.074815
H62	H	-0.872433	0.854577	-0.074577
H63	H	-0.864091	0.863650	0.074945
H64	H	-1.218580	0.162419	0.480871
O65	O	-1.055792	0.343327	0.528044
C66	C	-0.940355	0.471786	0.516489
C67	C	-1.008170	0.396411	0.454521
H68	H	-0.901848	0.514740	0.457074
H69	H	-0.885558	0.425501	0.569117
H70	H	-0.983511	0.530975	0.569167
H71	H	-0.965093	0.337206	0.401785
H72	H	-1.062967	0.442765	0.401962
O73	O	-1.357153	0.762506	0.000192
C74	C	-1.451240	0.926827	0.000144
C75	C	-1.350318	0.871552	0.000093
H76	H	-1.445750	1.014998	0.000041
H77	H	-1.487187	0.907894	0.074933
H78	H	-1.495510	0.898493	-0.074589
H79	H	-1.305971	0.899855	0.074776
H80	H	-1.314446	0.890484	-0.074745
H81	H	-1.321730	0.556327	0.000143
