data_functionalizedCrystal
_audit_creation_method	'MofGen! by Chris Wilmer'
_symmetry_space_group_name_H-M	'P1'
_symmetry_Int_Tables_number	1
_symmetry_cell_setting	triclinic
loop_
_symmetry_equiv_pos_as_xyz
  x,y,z
_cell_length_a	10.686220
_cell_length_b	12.594516
_cell_length_c	10.686551
_cell_angle_alpha	85.596700
_cell_angle_beta	90.308082
_cell_angle_gamma	94.397503
loop_
_atom_site_label
_atom_site_type_symbol
_atom_site_fract_x
_atom_site_fract_y
_atom_site_fract_z
Zn1	Zn	1.972283	-0.259491	-0.562399
Zn2	Zn	2.472283	0.240509	-0.062399
Zn3	Zn	1.956050	-0.452140	-0.352650
Zn4	Zn	2.456050	0.047860	0.147350
Zn5	Zn	1.746401	-0.286719	-0.368718
Zn6	Zn	2.246401	0.213281	0.131282
Zn7	Zn	1.762480	-0.449983	-0.578427
Zn8	Zn	2.262480	0.050017	-0.078427
O9	O	1.859303	-0.362083	-0.465548
O10	O	2.359303	0.137917	0.034452
O11	O	2.145671	-0.274554	-0.521143
O12	O	2.645671	0.225446	-0.021143
O13	O	1.914717	-0.442494	-0.179236
O14	O	2.414717	0.057506	0.320764
O15	O	1.776429	-0.134156	-0.394426
O16	O	2.276429	0.365844	0.105574
O17	O	2.133745	-0.416093	-0.367041
O18	O	2.633745	0.083907	0.132959
O19	O	1.942383	-0.114152	-0.536723
O20	O	2.442383	0.385848	-0.036723
O21	O	1.760688	-0.320960	-0.191041
O22	O	2.260688	0.179040	0.308959
O23	O	1.572992	-0.318868	-0.409968
O24	O	2.072992	0.181132	0.090032
O25	O	1.803834	-0.412416	-0.751846
O26	O	2.303834	0.087584	-0.251846
O27	O	1.584805	-0.438818	-0.564041
O28	O	2.084805	0.061182	-0.064041
O29	O	1.957975	-0.272463	-0.740070
O30	O	2.457975	0.227537	-0.240070
O31	O	1.930308	-0.600805	-0.382583
O32	O	2.430308	-0.100805	0.117417
O33	O	1.788093	-0.599220	-0.548461
O34	O	2.288093	-0.099220	-0.048461
C35	C	1.533382	-0.381564	-0.490488
C36	C	2.033382	0.118436	0.009512
C37	C	1.393954	-0.389922	-0.501188
C38	C	1.893954	0.110078	-0.001188
C39	C	1.859220	-0.638630	-0.465542
C40	C	2.359220	-0.138630	0.034458
C41	C	1.859303	-0.756928	-0.465573
C42	C	2.359303	-0.256928	0.034427
C43	C	1.781939	-0.825363	-0.555736
C44	C	2.281939	-0.325363	-0.055736
C45	C	1.742587	-0.906041	-0.443608
C46	C	2.242587	-0.406041	0.056392
C47	C	1.898771	-0.887040	-0.577711
C48	C	2.398771	-0.387040	-0.077711
C49	C	1.819885	-0.836056	-0.353389
C50	C	2.319885	-0.336056	0.146611
C51	C	1.976128	-0.817041	-0.487566
C52	C	2.476128	-0.317041	0.012434
C53	C	1.936813	-0.897690	-0.375356
C54	C	2.436813	-0.397690	0.124644
C55	C	2.186497	-0.342527	-0.440512
C56	C	2.686497	0.157473	0.059488
C57	C	2.325928	-0.334193	-0.429842
C58	C	2.825928	0.165807	0.070158
C59	C	1.884508	-0.339162	-0.792747
C60	C	2.384508	0.160838	-0.292747
C61	C	1.895249	-0.329394	-0.932180
C62	C	2.395249	0.170606	-0.432180
C63	C	1.859423	-0.084453	-0.465579
C64	C	2.359423	0.415547	0.034421
C65	C	1.859474	0.033857	-0.465592
C66	C	2.359474	0.533857	0.034408
C67	C	1.834268	-0.384834	-0.139617
C68	C	2.334268	0.115166	0.360383
C69	C	1.823770	-0.394288	-0.000166
C70	C	2.323770	0.105712	0.499834
H71	H	1.374354	-0.280088	-0.360574
H72	H	1.874354	0.219912	0.139426
C73	C	1.989034	-0.244239	-0.997643
C74	C	2.489034	0.255761	-0.497643
H75	H	2.032442	-0.204843	-0.936294
H76	H	2.532442	0.295157	-0.436294
H77	H	1.944966	-0.197190	-1.052441
H78	H	2.444966	0.302810	-0.552441
H79	H	2.047572	-0.278159	-1.044565
H80	H	2.547572	0.221841	-0.544565
H81	H	2.074827	-0.778222	-0.506205
H82	H	2.574827	-0.278222	-0.006205
C83	C	1.943828	-0.917681	-0.705814
C84	C	2.443828	-0.417681	-0.205814
H85	H	2.017465	-0.955069	-0.694542
H86	H	2.517465	-0.455069	-0.194542
H87	H	1.961856	-0.854816	-0.759607
H88	H	2.461856	-0.354816	-0.259607
H89	H	1.879964	-0.962062	-0.742319
H90	H	2.379964	-0.462062	-0.242319
H91	H	1.345521	-0.444038	-0.570452
H92	H	1.845521	0.055962	-0.070452
H93	H	1.716381	-0.793643	-0.631890
H94	H	2.216381	-0.293643	-0.131890
C95	C	1.609226	-0.958457	-0.418477
C96	C	2.109226	-0.458457	0.081523
H97	H	1.554298	-0.933670	-0.482604
H98	H	2.054298	-0.433670	0.017396
H99	H	1.580716	-0.940203	-0.339442
H100	H	2.080716	-0.440203	0.160558
H101	H	1.610389	-1.033840	-0.417910
H102	H	2.110389	-0.533840	0.082090
C103	C	1.774717	-0.805554	-0.225267
C104	C	2.274717	-0.305554	0.274733
H105	H	1.774886	-0.730062	-0.226058
H106	H	2.274886	-0.230062	0.273942
H107	H	1.829350	-0.830927	-0.161206
H108	H	2.329350	-0.330927	0.338794
H109	H	1.692025	-0.836842	-0.209512
H110	H	2.192025	-0.336842	0.290488
C111	C	2.025281	-0.940308	-0.272261
C112	C	2.525281	-0.440308	0.227739
H113	H	1.997106	-0.922975	-0.192698
H114	H	2.497106	-0.422975	0.307302
H115	H	2.107912	-0.908595	-0.287201
H116	H	2.607912	-0.408595	0.212799
H117	H	2.025380	-1.015661	-0.273266
H118	H	2.525380	-0.515661	0.226734
C119	C	1.729993	-0.479437	-0.934703
C120	C	2.229993	0.020563	-0.434703
H121	H	1.734826	-0.475047	-0.846434
H122	H	2.234826	0.024953	-0.346434
H123	H	1.749946	-0.548376	-0.954702
H124	H	2.249946	-0.048376	-0.454702
H125	H	1.647342	-0.467405	-0.962567
H126	H	2.147342	0.032595	-0.462567
