data_functionalizedCrystal
_audit_creation_method	'MofGen! by Chris Wilmer'
_symmetry_space_group_name_H-M	'P1'
_symmetry_Int_Tables_number	1
_symmetry_cell_setting	triclinic
loop_
_symmetry_equiv_pos_as_xyz
  x,y,z
_cell_length_a	17.699083
_cell_length_b	16.776229
_cell_length_c	17.699104
_cell_angle_alpha	89.992410
_cell_angle_beta	96.712734
_cell_angle_gamma	90.001114
loop_
_atom_site_label
_atom_site_type_symbol
_atom_site_fract_x
_atom_site_fract_y
_atom_site_fract_z
O1	O	1.004086	0.066178	-0.095712
O2	O	1.337419	0.399511	0.237621
O3	O	1.670752	0.732845	0.570955
O4	O	0.783708	0.066204	-0.108164
O5	O	1.117042	0.399538	0.225169
O6	O	1.450375	0.732871	0.558502
O7	O	0.900115	0.066183	0.008250
O8	O	1.233448	0.399517	0.341583
O9	O	1.566782	0.732850	0.674917
O10	O	0.887679	0.066199	-0.212126
O11	O	1.221012	0.399532	0.121207
O12	O	1.554346	0.732866	0.454540
O13	O	0.900099	-0.066393	0.008257
O14	O	1.233433	0.266940	0.341590
O15	O	1.566766	0.600274	0.674924
O16	O	0.783693	-0.066372	-0.108157
O17	O	1.117026	0.266961	0.225176
O18	O	1.450359	0.600295	0.558509
O19	O	1.004070	-0.066398	-0.095705
O20	O	1.337404	0.266935	0.237628
O21	O	1.670737	0.600268	0.570962
Zn22	Zn	0.893879	-0.087435	-0.101930
Zn23	Zn	1.227212	0.245899	0.231403
Zn24	Zn	1.560546	0.579232	0.564737
Zn25	Zn	0.893899	0.087241	-0.101939
Zn26	Zn	1.227233	0.420574	0.231394
Zn27	Zn	1.560566	0.753907	0.564727
O28	O	0.887664	-0.066377	-0.212119
O29	O	1.220997	0.266956	0.121214
O30	O	1.554330	0.600289	0.454547
C31	C	0.755503	-0.000081	-0.107715
C32	C	1.088837	0.333253	0.225619
C33	C	1.422170	0.666586	0.558952
C34	C	0.671485	-0.000071	-0.106376
C35	C	1.004819	0.333263	0.226957
C36	C	1.338152	0.666596	0.560291
N37	N	0.893871	-0.206646	-0.101923
N38	N	1.227204	0.126688	0.231410
N39	N	1.560537	0.460021	0.564744
C40	C	0.622869	-0.000066	-0.174709
C41	C	0.956203	0.333267	0.158625
C42	C	1.289536	0.666601	0.491958
C43	C	0.543926	-0.000076	-0.173446
C44	C	0.877259	0.333257	0.159887
C45	C	1.210593	0.666590	0.493220
C46	C	0.513600	-0.000086	-0.103851
C47	C	0.846933	0.333248	0.229483
C48	C	1.180267	0.666581	0.562816
C49	C	0.562222	-0.000093	-0.035513
C50	C	0.895555	0.333241	0.297821
C51	C	1.228889	0.666574	0.631154
C52	C	0.641164	-0.000088	-0.036776
C53	C	0.974497	0.333245	0.296558
C54	C	1.307831	0.666579	0.629891
C55	C	0.243859	-0.000113	-0.030418
C56	C	0.577192	0.333220	0.302916
C57	C	0.910525	0.666554	0.636249
C58	C	0.164911	-0.000115	-0.029160
C59	C	0.498244	0.333218	0.304174
C60	C	0.831577	0.666551	0.637507
C61	C	0.146621	-0.000101	-0.167088
C62	C	0.479954	0.333232	0.166245
C63	C	0.813287	0.666565	0.499578
C64	C	0.225563	-0.000097	-0.168351
C65	C	0.558896	0.333237	0.164982
C66	C	0.892229	0.666570	0.498315
C67	C	0.274178	-0.000108	-0.100014
C68	C	0.607511	0.333226	0.233320
C69	C	0.940844	0.666559	0.566653
C70	C	0.359777	-0.000098	-0.101383
C71	C	0.693110	0.333235	0.231950
C72	C	1.026444	0.666569	0.565283
C73	C	0.428002	-0.000090	-0.102480
C74	C	0.761336	0.333243	0.230853
C75	C	1.094669	0.666577	0.564186
C76	C	0.945431	-0.248372	-0.050396
C77	C	1.278765	0.084961	0.282937
C78	C	1.612098	0.418294	0.616271
C79	C	0.945435	-0.331824	-0.050395
C80	C	1.278769	0.001509	0.282938
C81	C	1.612102	0.334842	0.616271
C82	C	0.893882	-0.373549	-0.101926
C83	C	1.227215	-0.040215	0.231407
C84	C	1.560549	0.293118	0.564741
C85	C	0.842316	-0.331816	-0.153456
C86	C	1.175649	0.001517	0.179878
C87	C	1.508983	0.334850	0.513211
C88	C	0.842309	-0.248366	-0.153452
C89	C	1.175642	0.084968	0.179881
C90	C	1.508976	0.418301	0.513215
C91	C	0.842343	-0.668364	-0.153470
C92	C	1.175677	-0.335030	0.179863
C93	C	1.509010	-0.001697	0.513196
C94	C	0.842356	-0.751820	-0.153472
C95	C	1.175690	-0.418487	0.179862
C96	C	1.509023	-0.085154	0.513195
C97	C	0.945470	-0.751822	-0.050414
C98	C	1.278803	-0.418489	0.282920
C99	C	1.612137	-0.085156	0.616253
C100	C	0.945463	-0.668372	-0.050410
C101	C	1.278796	-0.335038	0.282923
C102	C	1.612129	-0.001705	0.616257
C103	C	0.893894	-0.626647	-0.101937
C104	C	1.227228	-0.293313	0.231397
C105	C	1.560561	0.040020	0.564730
C106	C	0.893890	-0.536158	-0.101936
C107	C	1.227223	-0.202825	0.231398
C108	C	1.560556	0.130508	0.564731
C109	C	0.893890	-0.464036	-0.101931
C110	C	1.227223	-0.130702	0.231402
C111	C	1.560557	0.202631	0.564736
C112	C	1.032275	-0.000112	-0.096155
C113	C	1.365608	0.333222	0.237179
C114	C	1.698942	0.666555	0.570512
C115	C	1.116293	-0.000116	-0.097493
C116	C	1.449626	0.333217	0.235840
C117	C	1.782960	0.666550	0.569173
C118	C	0.899659	-0.000105	0.036450
C119	C	1.232992	0.333228	0.369784
C120	C	1.566326	0.666562	0.703117
C121	C	0.898314	-0.000105	0.120467
C122	C	1.231647	0.333228	0.453801
C123	C	1.564981	0.666562	0.787134
N124	N	0.893914	0.206452	-0.101940
N125	N	1.227247	0.539785	0.231393
N126	N	1.560580	0.873119	0.564726
C127	C	0.888120	-0.000087	-0.240319
C128	C	1.221453	0.333246	0.093014
C129	C	1.554786	0.666579	0.426347
C130	C	0.889464	-0.000082	-0.324337
C131	C	1.222798	0.333252	0.008997
C132	C	1.556131	0.666585	0.342330
C133	C	0.959058	-0.000090	0.645338
C134	C	1.292391	0.333244	0.978672
C135	C	1.625725	0.666577	1.312005
C136	C	0.960317	-0.000097	0.566395
C137	C	1.293650	0.333236	0.899728
C138	C	1.626984	0.666570	1.233061
C139	C	0.891982	-0.000091	0.517777
C140	C	1.225315	0.333243	0.851110
C141	C	1.558648	0.666576	1.184444
C142	C	0.822383	-0.000085	0.548107
C143	C	1.155716	0.333248	0.881440
C144	C	1.489050	0.666582	1.214774
C145	C	0.821125	-0.000084	0.627049
C146	C	1.154458	0.333250	0.960383
C147	C	1.487791	0.666583	1.293716
C148	C	0.827456	-0.000092	0.229741
C149	C	1.160789	0.333241	0.563074
C150	C	1.494123	0.666574	0.896408
C151	C	0.828720	-0.000092	0.150794
C152	C	1.162053	0.333242	0.484127
C153	C	1.495386	0.666575	0.817460
C154	C	0.966648	-0.000106	0.169086
C155	C	1.299982	0.333228	0.502420
C156	C	1.633315	0.666561	0.835753
C157	C	0.965390	-0.000104	0.248029
C158	C	1.298723	0.333229	0.581362
C159	C	1.632057	0.666562	0.914695
C160	C	0.895792	-0.000103	0.278352
C161	C	1.229125	0.333230	0.611685
C162	C	1.562458	0.666564	0.945018
C163	C	0.894427	-0.000097	0.363951
C164	C	1.227761	0.333237	0.697285
C165	C	1.561094	0.666570	1.030618
C166	C	0.893345	-0.000091	0.432179
C167	C	1.226679	0.333242	0.765512
C168	C	1.560012	0.666575	1.098845
H169	H	0.647554	-0.000058	-0.231382
H170	H	0.980887	0.333275	0.101952
H171	H	1.314221	0.666609	0.435285
Br172	Br	1.015409	-0.388456	0.019538
Br173	Br	1.348742	-0.055123	0.352871
Br174	Br	1.682075	0.278211	0.686205
Br175	Br	0.477949	-0.000068	-0.266188
Br176	Br	0.811283	0.333266	0.067145
Br177	Br	1.144616	0.666599	0.400479
H178	H	1.023319	-0.000096	0.144388
H179	H	1.356652	0.333237	0.477722
H180	H	1.689985	0.666570	0.811055
H181	H	0.766743	-0.000085	0.508516
H182	H	1.100077	0.333249	0.841849
H183	H	1.433410	0.666582	1.175183
H184	H	0.800322	-0.214393	-0.195410
H185	H	1.133655	0.118940	0.137924
H186	H	1.466989	0.452274	0.471257
H187	H	0.537525	-0.000112	0.021153
H188	H	0.870858	0.333221	0.354487
H189	H	1.204191	0.666555	0.687820
H190	H	0.764455	-0.000084	0.651738
H191	H	1.097788	0.333250	0.985071
H192	H	1.431121	0.666583	1.318405
H193	H	0.987445	-0.634402	-0.008452
H194	H	1.320778	-0.301069	0.324882
H195	H	1.654111	0.032264	0.658215
Br196	Br	1.015457	-0.808453	0.019518
Br197	Br	1.348790	-0.475119	0.352852
Br198	Br	1.682123	-0.141786	0.686185
H199	H	0.250249	-0.000085	-0.225023
H200	H	0.583583	0.333248	0.108310
H201	H	0.916916	0.666581	0.441643
Br202	Br	0.707144	-0.000101	0.055965
Br203	Br	1.040478	0.333232	0.389298
Br204	Br	1.373811	0.666565	0.722632
Br205	Br	0.080639	-0.000087	-0.259834
Br206	Br	0.413972	0.333246	0.073499
Br207	Br	0.747305	0.666580	0.406832
Br208	Br	0.733001	-0.000085	0.270884
Br209	Br	1.066335	0.333249	0.604217
Br210	Br	1.399668	0.666582	0.937550
Br211	Br	1.058134	-0.000108	0.314006
Br212	Br	1.391467	0.333226	0.647339
Br213	Br	1.724801	0.666559	0.980673
Br214	Br	0.772387	-0.808446	-0.223412
Br215	Br	1.105720	-0.475113	0.109922
Br216	Br	1.439054	-0.141780	0.443255
H217	H	0.140223	-0.000124	0.027517
H218	H	0.473556	0.333209	0.360850
H219	H	0.806890	0.666543	0.694183
Br220	Br	0.309827	-0.000130	0.062327
Br221	Br	0.643160	0.333203	0.395660
Br222	Br	0.976493	0.666537	0.728993
H223	H	0.800356	-0.634398	-0.195426
H224	H	1.133689	-0.301064	0.137907
H225	H	1.467023	0.032269	0.471240
Br226	Br	1.015406	-0.191755	0.019537
Br227	Br	1.348740	0.141578	0.352871
Br228	Br	1.682073	0.474912	0.686204
Br229	Br	0.772343	-0.388439	-0.223387
Br230	Br	1.105677	-0.055106	0.109947
Br231	Br	1.439010	0.278228	0.443280
Br232	Br	1.054769	-0.000088	0.525242
Br233	Br	1.388103	0.333245	0.858576
Br234	Br	1.721436	0.666579	1.191909
H235	H	0.773070	-0.000088	0.111210
H236	H	1.106403	0.333245	0.444543
H237	H	1.439736	0.666579	0.777877
H238	H	1.014705	-0.000088	0.684918
H239	H	1.348038	0.333245	1.018251
H240	H	1.681371	0.666578	1.351585
