data_functionalizedCrystal
_audit_creation_method	'MofGen! by Chris Wilmer'
_symmetry_space_group_name_H-M	'P1'
_symmetry_Int_Tables_number	1
_symmetry_cell_setting	triclinic
loop_
_symmetry_equiv_pos_as_xyz
  x,y,z
_cell_length_a	10.654550
_cell_length_b	10.654550
_cell_length_c	9.730223
_cell_angle_alpha	89.996763
_cell_angle_beta	89.999957
_cell_angle_gamma	84.484917
loop_
_atom_site_label
_atom_site_type_symbol
_atom_site_fract_x
_atom_site_fract_y
_atom_site_fract_z
O1	O	1.667839	0.176399	-0.114183
O2	O	1.302361	0.193205	-0.114208
O3	O	1.493503	0.002062	-0.114190
O4	O	1.476697	0.367541	-0.114202
O5	O	1.493490	0.002057	0.114390
O6	O	1.302348	0.193199	0.114372
O7	O	1.667827	0.176393	0.114396
Zn8	Zn	1.485085	0.184796	0.150676
Zn9	Zn	1.485102	0.184802	-0.150488
O10	O	1.476684	0.367536	0.114378
C11	C	1.255556	0.191968	0.000078
C12	C	1.116113	0.188276	0.000069
C13	C	1.036627	0.300818	0.000069
C14	C	0.905607	0.297341	0.000093
C15	C	0.933570	0.068772	0.000111
C16	C	1.064588	0.072250	0.000097
C17	C	1.492263	-0.044738	0.000098
C18	C	1.488571	-0.184181	0.000093
C19	C	1.601112	-0.263667	0.000105
C20	C	1.597636	-0.394688	0.000095
C21	C	1.369066	-0.366725	0.000067
C22	C	1.372544	-0.235706	0.000067
C23	C	1.717139	-0.212142	0.000130
C24	C	1.829690	-0.291629	0.000144
C25	C	1.826213	-0.422650	0.000134
C26	C	1.710186	-0.474184	0.000111
C27	C	1.714631	0.177630	0.000107
C28	C	1.854074	0.181322	0.000107
C29	C	1.477924	0.414336	0.000087
C30	C	1.481616	0.553779	0.000083
N31	N	1.485083	0.184790	0.356212
N32	N	1.485114	0.184798	-0.356024
C33	C	1.569750	0.100188	0.428146
C34	C	1.569763	0.100189	0.572029
C35	C	1.400438	0.269404	0.572032
C36	C	1.400420	0.269396	0.428151
H37	H	1.719983	-0.105460	0.000143
H38	H	0.891602	-0.025693	0.000142
O39	O	1.318124	0.351706	0.358479
C40	C	1.150125	0.519493	0.373652
C41	C	1.243275	0.426376	0.452727
H42	H	1.089568	0.579870	0.449818
H43	H	1.204815	0.582821	0.306309
H44	H	1.086972	0.464650	0.306272
H45	H	1.306452	0.481116	0.520182
H46	H	1.188508	0.363048	0.519984
H47	H	1.078574	0.395294	0.000057
H48	H	1.917857	-0.487366	0.000131
O49	O	1.652132	0.017963	0.641692
C50	C	1.820029	-0.149923	0.626496
C51	C	1.726832	-0.056844	0.547434
H52	H	1.880431	-0.210447	0.550323
H53	H	1.883327	-0.095176	0.693807
H54	H	1.765253	-0.213116	0.693907
H55	H	1.781506	0.006371	0.479948
H56	H	1.663535	-0.111670	0.480210
O57	O	1.256335	-0.416723	-0.000189
C58	C	1.059891	-0.432854	-0.118582
C59	C	1.187529	-0.376174	-0.118485
H60	H	1.004214	-0.400072	-0.214199
H61	H	1.076665	-0.540156	-0.118666
H62	H	1.004264	-0.400225	-0.022883
H63	H	1.243222	-0.408706	-0.214167
H64	H	1.170666	-0.268879	-0.118330
O65	O	1.942469	-0.241724	0.000340
C66	C	2.138854	-0.225490	0.118815
C67	C	2.011185	-0.282108	0.118753
H68	H	2.194436	-0.258096	0.214556
H69	H	2.194617	-0.258173	0.023222
H70	H	2.121982	-0.118196	0.118754
H71	H	2.027942	-0.389404	0.118863
H72	H	1.955463	-0.249325	0.214338
H73	H	0.840894	0.388984	0.000097
H74	H	1.129309	-0.019401	0.000100
H75	H	1.280903	-0.170986	0.000059
H76	H	1.707364	-0.580871	0.000088
H77	H	1.638687	0.031295	0.369577
H78	H	1.331508	0.338290	0.630619
