data_functionalizedCrystal
_audit_creation_method	'MofGen! by Chris Wilmer'
_symmetry_space_group_name_H-M	'P1'
_symmetry_Int_Tables_number	1
_symmetry_cell_setting	triclinic
loop_
_symmetry_equiv_pos_as_xyz
  x,y,z
_cell_length_a	13.033293
_cell_length_b	17.637651
_cell_length_c	13.033109
_cell_angle_alpha	87.278937
_cell_angle_beta	74.800007
_cell_angle_gamma	106.685376
loop_
_atom_site_label
_atom_site_type_symbol
_atom_site_fract_x
_atom_site_fract_y
_atom_site_fract_z
Zn1	Zn	1.630155	-0.229073	-0.736962
Zn2	Zn	1.571565	-0.346404	-0.523369
Zn3	Zn	1.429955	-0.229088	-0.536760
Zn4	Zn	1.407468	-0.376118	-0.669235
O5	O	1.509785	-0.295171	-0.616581
O6	O	1.774843	-0.232196	-0.731368
O7	O	1.537671	-0.318412	-0.380315
O8	O	1.490443	-0.118450	-0.597265
O9	O	1.731797	-0.318398	-0.574443
O10	O	1.637529	-0.118440	-0.744353
O11	O	1.433630	-0.232221	-0.390153
O12	O	1.274512	-0.261034	-0.531593
O13	O	1.452117	-0.369042	-0.823049
O14	O	1.257991	-0.369056	-0.628922
O15	O	1.615724	-0.261009	-0.872808
O16	O	1.515866	-0.460981	-0.508771
O17	O	1.395304	-0.482812	-0.615938
C18	C	1.226720	-0.318271	-0.574361
C19	C	1.105620	-0.328175	-0.556318
C20	C	1.072915	-0.290022	-0.625992
C21	C	0.947752	-0.300257	-0.607345
C22	C	1.446819	-0.500583	-0.553579
C23	C	1.419985	-0.588454	-0.526676
C24	C	1.714382	-0.877180	-0.821395
C25	C	1.689131	-0.959750	-0.796092
C26	C	1.536049	-0.959850	-0.642815
C27	C	1.561291	-0.877278	-0.668102
C28	C	1.650458	-0.835950	-0.757394
C29	C	1.497367	-0.836048	-0.604102
C30	C	1.522603	-0.753484	-0.629390
C31	C	1.611764	-0.712150	-0.718680
C32	C	1.675694	-0.753386	-0.782683
C33	C	1.408196	-0.877378	-0.514815
C34	C	1.344271	-0.836148	-0.450814
C35	C	1.369512	-0.753581	-0.476098
C36	C	1.458673	-0.712248	-0.565388
C37	C	1.305582	-0.712346	-0.412095
C38	C	1.330818	-0.629782	-0.437384
C39	C	1.483909	-0.629684	-0.590676
C40	C	1.793956	-0.271981	-0.658967
C41	C	1.915053	-0.262099	-0.677029
C42	C	1.537948	-0.318338	-0.886532
C43	C	1.549949	-0.328211	-1.001568
C44	C	1.573030	-0.088956	-0.679857
C45	C	1.599981	-0.001080	-0.706822
C46	C	1.503822	-0.289966	-1.057723
C47	C	1.516224	-0.300169	-1.176620
C48	C	1.481813	-0.272032	-0.347708
C49	C	1.470091	-0.261919	-0.232772
H50	H	1.040959	-0.368414	-0.482862
F51	F	1.441148	-1.003844	-0.547794
H52	H	1.137577	-0.249778	-0.699444
F53	F	1.579842	-0.352847	-1.228821
H54	H	0.979711	-0.221850	-0.750486
H55	H	1.278763	-0.596212	-0.385268
H56	H	1.556525	-0.596032	-0.663380
F57	F	1.440215	-0.237286	-1.005520
F58	F	1.406440	-0.209263	-1.180563
H59	H	0.883094	-0.340499	-0.533883
F60	F	1.638379	-0.624322	-0.745811
H61	H	1.748310	-0.719734	-0.855387
F62	F	1.809295	-0.833190	-0.916420
H63	H	1.598620	-0.368507	-1.041515
H64	H	1.741179	-0.993319	-0.848228
F65	F	1.381454	-0.965230	-0.487800
H66	H	1.232976	-0.746008	-0.339400
F67	F	1.249370	-0.880141	-0.355793
