data_functionalizedCrystal
_audit_creation_method	'MofGen! by Chris Wilmer'
_symmetry_space_group_name_H-M	'P1'
_symmetry_Int_Tables_number	1
_symmetry_cell_setting	triclinic
loop_
_symmetry_equiv_pos_as_xyz
  x,y,z
_cell_length_a	18.050589
_cell_length_b	12.645331
_cell_length_c	12.645323
_cell_angle_alpha	90.014068
_cell_angle_beta	89.974557
_cell_angle_gamma	89.973626
loop_
_atom_site_label
_atom_site_type_symbol
_atom_site_fract_x
_atom_site_fract_y
_atom_site_fract_z
Zn1	Zn	-0.295690	-1.620654	-0.599199
Zn2	Zn	-0.419889	-1.620503	-0.421937
Zn3	Zn	-0.295714	-1.443368	-0.421970
Zn4	Zn	-0.419839	-1.443317	-0.599179
O5	O	-0.357783	-1.531960	-0.510571
O6	O	-0.312177	-1.768981	-0.575679
O7	O	-0.403448	-1.596964	-0.273594
O8	O	-0.191786	-1.466970	-0.445501
O9	O	-0.403425	-1.768870	-0.445446
O10	O	-0.191769	-1.597221	-0.575711
O11	O	-0.312217	-1.466824	-0.273618
O12	O	-0.312168	-1.295014	-0.445482
O13	O	-0.403340	-1.466883	-0.747529
O14	O	-0.403362	-1.294977	-0.575677
O15	O	-0.312128	-1.597171	-0.747543
O16	O	-0.523807	-1.596914	-0.445426
O17	O	-0.523770	-1.466737	-0.575645
C18	C	-0.357763	-1.256531	-0.510582
C19	C	-0.357772	-1.138701	-0.510611
C20	C	-0.415454	-0.971149	-0.592095
C21	C	-0.415270	-1.093709	-0.592432
C22	C	-0.279551	-1.094243	-0.541135
C23	C	-0.279902	-0.971645	-0.541713
C24	C	-0.377674	-0.971450	-0.398357
C25	C	-0.379387	-1.094055	-0.398959
C26	C	-0.550735	-1.531832	-0.510553
C27	C	-0.633281	-1.531875	-0.510581
C28	C	-0.832738	-1.461154	-0.581370
C29	C	-0.882180	-1.435307	-0.484639
C30	C	-0.784411	-1.531979	-0.510595
C31	C	-0.882051	-1.557878	-0.607337
C32	C	-0.930396	-1.532077	-0.510617
C33	C	-0.832766	-1.506081	-0.413813
C34	C	-0.832632	-1.628697	-0.536576
C35	C	-0.882052	-1.602887	-0.439779
C36	C	-0.700313	-1.531919	-0.510584
C37	C	-1.014493	-1.532137	-0.510617
C38	C	-0.164077	-1.532118	-0.510612
C39	C	-0.081532	-1.532185	-0.510629
C40	C	-0.357726	-1.532039	-0.787076
C41	C	-0.357701	-1.532072	-0.904907
C42	C	-0.357801	-0.808466	-0.510568
C43	C	-0.357800	-0.926296	-0.510586
C44	C	-0.414812	-1.449855	-1.072462
C45	C	-0.415095	-1.450070	-0.949902
C46	C	-0.378943	-1.643766	-0.949409
C47	C	-0.379301	-1.643315	-1.072008
C48	C	-0.279029	-1.503651	-1.072110
C49	C	-0.279500	-1.501159	-0.949504
C50	C	-0.357787	-1.531944	-0.235141
C51	C	-0.357602	-1.532116	-0.117312
H52	H	-0.402118	-1.123061	-0.675588
C53	C	-0.803204	-1.739099	-0.566292
H54	H	-0.774259	-1.766236	-0.509732
H55	H	-0.773479	-1.733990	-0.628087
H56	H	-0.843724	-1.785190	-0.579378
H57	H	-0.473344	-1.468859	-0.920584
C58	C	-0.219940	-1.133618	-0.463450
H59	H	-0.242280	-1.177630	-0.411589
H60	H	-0.197266	-1.074757	-0.429846
H61	H	-0.183503	-1.172781	-0.500991
C62	C	-0.911296	-1.587423	-0.717844
H63	H	-0.894402	-1.536996	-0.768031
H64	H	-0.963917	-1.587882	-0.716908
H65	H	-0.893594	-1.655612	-0.736777
H66	H	-0.903961	-1.353562	-0.462684
H67	H	-0.472697	-1.468461	-1.103277
C68	C	-0.911127	-1.683852	-0.358850
H69	H	-0.894161	-1.665316	-0.290198
H70	H	-0.893412	-1.752316	-0.376712
H71	H	-0.963754	-1.683854	-0.359699
H72	H	-0.811085	-1.401171	-0.641137
C73	C	-0.493629	-1.134319	-0.566602
H74	H	-0.525863	-1.075889	-0.555812
H75	H	-0.492006	-1.176187	-0.504283
H76	H	-0.511369	-1.175920	-0.623795
C77	C	-0.397855	-0.929696	-0.703810
H78	H	-0.432931	-0.957206	-0.752574
H79	H	-0.349495	-0.951688	-0.723734
H80	H	-0.400276	-0.854648	-0.704051
H81	H	-0.811206	-1.484121	-0.331986
H82	H	-0.401802	-1.367244	-0.919812
H83	H	-0.338592	-1.706699	-0.920265
C84	C	-0.397027	-1.337628	-1.112282
H85	H	-0.354555	-1.339932	-1.156624
H86	H	-0.387551	-1.292696	-1.053619
H87	H	-0.438001	-1.311026	-1.151196
C88	C	-0.456895	-1.675901	-1.110658
H89	H	-0.487903	-1.689284	-1.051433
H90	H	-0.453121	-1.738071	-1.152502
H91	H	-0.477539	-1.620434	-1.151869
C92	C	-0.455726	-1.676923	-0.907960
H93	H	-0.474941	-1.622856	-0.863547
H94	H	-0.451319	-1.740713	-0.868802
H95	H	-0.488297	-1.687632	-0.965970
C96	C	-0.325470	-1.728932	-1.112095
H97	H	-0.303483	-1.763840	-1.053450
H98	H	-0.287893	-1.696932	-1.153830
H99	H	-0.351834	-1.778862	-1.153720
H100	H	-0.433739	-0.940513	-0.370615
C101	C	-0.326771	-1.135407	-0.312507
H102	H	-0.341132	-1.107180	-0.245949
H103	H	-0.277507	-1.114148	-0.328174
H104	H	-0.329219	-1.210410	-0.310055
H105	H	-0.263481	-1.418962	-0.920417
H106	H	-0.259666	-1.423623	-1.103026
C107	C	-0.218871	-1.576191	-0.908139
H108	H	-0.240555	-1.627586	-0.862934
H109	H	-0.183045	-1.536717	-0.869841
H110	H	-0.195620	-1.610583	-0.966134
C111	C	-0.221444	-1.584575	-1.111307
H112	H	-0.245131	-1.635464	-1.155007
H113	H	-0.199518	-1.619037	-1.052364
H114	H	-0.184167	-1.549143	-1.150760
H115	H	-0.235405	-0.941976	-0.485067
C116	C	-0.494073	-0.931281	-0.566553
H117	H	-0.492443	-0.886918	-0.505956
H118	H	-0.525529	-0.989923	-0.552924
H119	H	-0.512746	-0.892379	-0.625022
C120	C	-0.257136	-0.933037	-0.652544
H121	H	-0.257146	-0.857920	-0.653873
H122	H	-0.291316	-0.958985	-0.703404
H123	H	-0.208891	-0.958380	-0.668725
C124	C	-0.256372	-1.135721	-0.650780
H125	H	-0.294251	-1.180121	-0.678101
H126	H	-0.211669	-1.174897	-0.644588
H127	H	-0.248914	-1.077719	-0.697309
C128	C	-0.457137	-1.133333	-0.367845
H129	H	-0.476351	-1.176762	-0.422662
H130	H	-0.488982	-1.074416	-0.357416
H131	H	-0.454038	-1.173088	-0.304263
H132	H	-0.335679	-0.942444	-0.337625
