data_functionalizedCrystal
_audit_creation_method	'MofGen! by Chris Wilmer'
_symmetry_space_group_name_H-M	'P1'
_symmetry_Int_Tables_number	1
_symmetry_cell_setting	triclinic
loop_
_symmetry_equiv_pos_as_xyz
  x,y,z
_cell_length_a	13.635800
_cell_length_b	11.168129
_cell_length_c	17.982968
_cell_angle_alpha	85.739208
_cell_angle_beta	102.451960
_cell_angle_gamma	71.491363
loop_
_atom_site_label
_atom_site_type_symbol
_atom_site_fract_x
_atom_site_fract_y
_atom_site_fract_z
V1	V	2.020431	-0.175888	0.237555
O2	O	2.000881	0.007235	0.233026
O3	O	2.008810	-0.347585	0.235937
O4	O	1.993526	-0.173716	0.341158
O5	O	2.016271	-0.167837	0.127077
V6	V	2.260966	-0.153921	0.224340
O7	O	2.153752	-0.224073	0.266543
O8	O	2.352744	-0.105735	0.195352
O9	O	2.160983	0.017776	0.225958
O10	O	2.339214	-0.337043	0.228869
O11	O	2.323824	-0.161971	0.334819
O12	O	2.176268	-0.156092	0.120737
V13	V	2.520431	-0.175888	0.237555
O14	O	2.500881	0.007235	0.233026
O15	O	2.508810	-0.347585	0.235937
O16	O	2.493526	-0.173716	0.341158
O17	O	2.516271	-0.167837	0.127077
V18	V	2.760966	-0.153921	0.224340
O19	O	2.653752	-0.224073	0.266543
O20	O	2.852744	-0.105735	0.195352
O21	O	2.660983	0.017776	0.225958
O22	O	2.839214	-0.337043	0.228869
O23	O	2.823824	-0.161971	0.334819
O24	O	2.676268	-0.156092	0.120737
C25	C	1.934459	-0.389424	0.232191
C26	C	1.965583	-0.529793	0.231559
C27	C	1.960685	-0.574907	0.164970
C28	C	1.992853	-0.719984	0.164315
C29	C	1.914961	-0.167636	0.366410
C30	C	1.933688	-0.166996	0.451106
C31	C	2.067006	0.059609	0.229702
C32	C	2.025501	0.199976	0.230340
C33	C	2.086504	-0.162177	0.095481
C34	C	2.057396	-0.162810	0.010784
C35	C	2.434459	-0.389424	0.232191
C36	C	2.465583	-0.529793	0.231559
C37	C	2.414961	-0.167636	0.366410
C38	C	2.433688	-0.166996	0.451106
C39	C	2.033909	-0.173024	0.494778
C40	C	2.051499	-0.172422	0.574359
C41	C	1.968868	-0.165802	0.610267
C42	C	1.868637	-0.159771	0.566589
C43	C	1.851047	-0.160363	0.487009
C44	C	1.939576	-0.157380	0.887526
C45	C	1.957175	-0.156792	0.967112
C46	C	2.140028	-0.169438	0.974876
C47	C	2.122437	-0.170031	0.895296
C48	C	2.022207	-0.163993	0.851624
C49	C	2.003135	-0.164643	0.765333
C50	C	1.987941	-0.165162	0.696557
C51	C	2.567006	0.059609	0.229702
C52	C	2.525501	0.199976	0.230340
C53	C	2.586504	-0.162177	0.095481
C54	C	2.557396	-0.162810	0.010784
C55	C	2.533913	-0.173011	0.494764
C56	C	2.551519	-0.172394	0.574344
C57	C	2.468900	-0.165771	0.610265
C58	C	2.368665	-0.159752	0.566601
C59	C	2.351059	-0.160360	0.487022
C60	C	2.457783	-0.169418	-0.025117
C61	C	2.430414	-0.169998	-0.104700
C62	C	2.502663	-0.163978	-0.148378
C63	C	2.602283	-0.157365	-0.112472
C64	C	2.629648	-0.156776	-0.032891
C65	C	2.566354	-0.598502	0.234890
C66	C	2.598524	-0.743580	0.234237
H67	H	1.932682	-0.506126	0.108446
H68	H	2.601199	-0.178408	0.465528
H69	H	2.439174	-0.740967	0.227487
N70	N	2.712845	-0.821843	0.237949
H71	H	2.742468	-0.889392	0.285299
H72	H	2.757105	-0.764187	0.240588
N73	N	2.242952	-0.153879	0.439944
H74	H	2.225312	-0.229690	0.459515
H75	H	2.244392	-0.155227	0.384091
H76	H	2.628811	-0.549922	0.238231
H77	H	2.661100	-0.152460	-0.148047
N78	N	1.987403	-0.771451	0.088794
H79	H	2.011175	-0.867795	0.099032
H80	H	2.035875	-0.744801	0.061023
N81	N	2.379851	-0.175920	0.021984
H82	H	2.312597	-0.180190	-0.012846
H83	H	2.361592	-0.097273	0.047773
N84	N	2.487888	-0.165074	0.696094
H85	H	2.563919	-0.169880	0.718294
H86	H	2.475434	-0.241112	0.721106
H87	H	2.403127	-0.578375	0.228227
H88	H	2.710766	-0.151402	-0.003666
H89	H	2.029639	-0.761168	0.287352
H90	H	2.349295	-0.175383	-0.133923
H91	H	2.101201	-0.178422	0.465549
N92	N	2.002697	-0.620899	0.306432
H93	H	1.953523	-0.672055	0.306669
H94	H	2.001560	-0.570781	0.350922
N95	N	2.279561	-0.152610	0.605350
H96	H	2.305936	-0.153145	0.662388
H97	H	2.255820	-0.228639	0.597158
H98	H	2.133106	-0.177323	0.609913
N99	N	2.211561	-0.177175	0.856567
H100	H	2.277721	-0.180899	0.896309
H101	H	2.188988	-0.099017	0.816318
H102	H	2.221641	-0.174349	1.010443
N103	N	1.868041	-0.149678	1.005831
H104	H	1.805750	-0.068344	0.982890
H105	H	1.894477	-0.150288	1.062869
N106	N	1.831475	-0.150863	0.840428
H107	H	1.781803	-0.146584	0.875254
H108	H	1.839438	-0.229507	0.814637
H109	H	1.769429	-0.155424	0.451449
N110	N	1.779508	-0.152620	0.605313
H111	H	1.805858	-0.153163	0.662354
H112	H	1.755758	-0.228639	0.597105
N113	N	2.473152	-0.164630	-0.234210
H114	H	2.474431	-0.083620	-0.262311
H115	H	2.399096	-0.169785	-0.250255
N116	N	2.659639	-0.178902	0.621422
H117	H	2.690272	-0.257605	0.662019
H118	H	2.651702	-0.100200	0.647153
