data_functionalizedCrystal
_audit_creation_method	'MofGen! by Chris Wilmer'
_symmetry_space_group_name_H-M	'P1'
_symmetry_Int_Tables_number	1
_symmetry_cell_setting	triclinic
loop_
_symmetry_equiv_pos_as_xyz
  x,y,z
_cell_length_a	10.654550
_cell_length_b	17.699083
_cell_length_c	16.776229
_cell_angle_alpha	90.007545
_cell_angle_beta	90.010645
_cell_angle_gamma	83.883958
loop_
_atom_site_label
_atom_site_type_symbol
_atom_site_fract_x
_atom_site_fract_y
_atom_site_fract_z
O1	O	-1.665985	-0.106304	-0.066355
O2	O	-1.300329	-0.116432	-0.066343
O3	O	-1.493488	-0.001245	-0.066343
O4	O	-1.472826	-0.221492	-0.066356
O5	O	-1.493462	-0.001237	0.066234
O6	O	-1.300304	-0.116425	0.066234
O7	O	-1.665959	-0.106297	0.066221
Zn8	Zn	-1.483127	-0.111360	0.087277
Zn9	Zn	-1.483161	-0.111369	-0.087399
O10	O	-1.472801	-0.221484	0.066221
C11	C	-1.253531	-0.115685	-0.000053
C12	C	-1.114127	-0.113460	-0.000048
C13	C	-1.492735	0.026961	-0.000054
C14	C	-1.490514	0.110993	-0.000054
C15	C	-1.712757	-0.107044	-0.000071
C16	C	-1.852161	-0.109269	-0.000081
C17	C	-1.033454	-0.181281	-0.000064
C18	C	-0.902470	-0.179185	-0.000077
C19	C	-0.932845	-0.041443	-0.000063
C20	C	-1.063826	-0.043539	-0.000043
C21	C	-1.083755	-0.251201	-0.000068
C22	C	-1.003081	-0.319027	-0.000085
C23	C	-0.872097	-0.316932	-0.000098
C24	C	-0.821787	-0.247011	-0.000095
C25	C	-1.473554	-0.249690	-0.000069
C26	C	-1.475775	-0.333722	-0.000075
N27	N	-1.483114	-0.111353	0.206488
C28	C	-1.603894	0.158893	-0.000057
C29	C	-1.601799	0.237850	-0.000063
C30	C	-1.486324	0.268905	-0.000062
C31	C	-1.372935	0.220998	-0.000062
C32	C	-1.375031	0.142043	-0.000060
C33	C	-1.364481	0.539415	-0.000068
C34	C	-1.362394	0.618376	-0.000067
C35	C	-1.591249	0.635222	-0.000071
C36	C	-1.593345	0.556266	-0.000070
C37	C	-1.479957	0.508367	-0.000073
C38	C	-1.482229	0.422753	-0.000067
C39	C	-1.484050	0.354517	-0.000062
N40	N	-1.483185	-0.111370	-0.206610
C41	C	-1.568670	-0.060369	0.248205
C42	C	-1.568677	-0.060368	0.331657
C43	C	-1.483133	-0.111356	0.373391
C44	C	-1.397567	-0.162342	0.331668
C45	C	-1.397555	-0.162338	0.248217
C46	C	-1.397612	-0.162357	0.668215
C47	C	-1.397633	-0.162358	0.751671
C48	C	-1.568735	-0.060387	0.751655
C49	C	-1.568723	-0.060384	0.668205
C50	C	-1.483153	-0.111367	0.626489
C51	C	-1.483145	-0.111366	0.536000
C52	C	-1.483146	-0.111361	0.463878
H53	H	-1.190407	-0.252915	-0.000061
H54	H	-1.327941	-0.203871	0.634256
H55	H	-1.327909	-0.203854	0.365652
C56	C	-1.718682	0.522507	0.000090
C57	C	-1.726575	0.477694	0.068307
C58	C	-1.842026	0.446593	0.068482
H59	H	-1.724384	0.491999	-0.046089
H60	H	-1.785948	0.562323	0.000128
H61	H	-1.659329	0.437885	0.068261
H62	H	-1.720896	0.508185	0.114497
H63	H	-1.909291	0.486408	0.068520
H64	H	-1.847717	0.416088	0.022300
H65	H	-1.847402	0.416189	0.114770
C66	C	-1.661453	-0.004837	0.623015
C67	C	-1.641180	0.069609	0.643410
C68	C	-1.726565	0.120830	0.601826
H69	H	-1.745293	-0.013402	0.636663
H70	H	-1.649267	-0.012018	0.567317
H71	H	-1.653377	0.076786	0.699096
H72	H	-1.557357	0.078198	0.629761
H73	H	-1.714379	0.113650	0.546128
H74	H	-1.810400	0.112258	0.615477
H75	H	-1.712814	0.171347	0.615653
H76	H	-1.638406	-0.018872	0.785629
H77	H	-1.697927	0.133615	-0.000053
C78	C	-1.304600	-0.217747	0.796840
C79	C	-1.229633	-0.262380	0.742447
C80	C	-1.143912	-0.313402	0.784027
H81	H	-1.349526	-0.249582	0.829383
H82	H	-1.252360	-0.190241	0.829393
H83	H	-1.281867	-0.289885	0.709908
H84	H	-1.184680	-0.230566	0.709903
H85	H	-1.091672	-0.285895	0.816580
H86	H	-1.188849	-0.345231	0.816568
H87	H	-1.093029	-0.343687	0.747128
C88	C	-1.247522	0.254671	-0.000227
C89	C	-1.179026	0.230392	-0.068444
C90	C	-1.063496	0.261403	-0.068627
H91	H	-1.200684	0.238297	0.045952
H92	H	-1.262460	0.308558	-0.000269
H93	H	-1.164084	0.176517	-0.068394
H94	H	-1.225825	0.246765	-0.114633
H95	H	-1.078433	0.315289	-0.068669
H96	H	-1.016669	0.245026	-0.022445
H97	H	-1.017011	0.244939	-0.114914
H98	H	-1.327885	-0.203853	0.214252
H99	H	-1.044053	-0.375955	-0.000080
C100	C	-1.661606	-0.004925	0.203042
C101	C	-1.736510	0.039738	0.257443
C102	C	-1.822125	0.090831	0.215871
H103	H	-1.713911	-0.032354	0.170470
H104	H	-1.616560	0.026878	0.170520
H105	H	-1.781554	0.007940	0.289951
H106	H	-1.684240	0.067183	0.290017
H107	H	-1.777078	0.122634	0.183349
H108	H	-1.874420	0.063396	0.183300
H109	H	-1.872949	0.121146	0.252775
H110	H	-1.282705	0.103043	-0.000058
H111	H	-1.268354	0.643658	-0.000064
H112	H	-0.806415	-0.372160	-0.000104
H113	H	-0.715130	-0.245311	-0.000094
H114	H	-0.891871	0.015483	-0.000074
C115	C	-1.661377	-0.004927	0.376987
C116	C	-1.594654	0.041800	0.424900
C117	C	-1.680012	0.092891	0.466659
H118	H	-1.713601	-0.032359	0.409593
H119	H	-1.712306	0.025477	0.340202
H120	H	-1.543747	0.011399	0.461682
H121	H	-1.542435	0.069249	0.392315
H122	H	-1.730940	0.123295	0.429873
H123	H	-1.732231	0.065452	0.499259
H124	H	-1.634753	0.124606	0.499166
H125	H	-1.129513	0.011686	-0.000033
C126	C	-1.724999	0.289762	-0.000186
C127	C	-1.794580	0.275611	-0.068381
C128	C	-1.908092	0.323410	-0.068517
H129	H	-1.707402	0.341259	-0.000231
H130	H	-1.772411	0.280277	0.046024
H131	H	-1.747178	0.285102	-0.114579
H132	H	-1.812210	0.224124	-0.068351
H133	H	-1.955504	0.313925	-0.022306
H134	H	-1.890483	0.374904	-0.068559
H135	H	-1.955322	0.313810	-0.114782
H136	H	-1.683575	0.674231	-0.000072
H137	H	-1.272153	0.500424	-0.000071
