data_functionalizedCrystal
_audit_creation_method	'MofGen! by Chris Wilmer'
_symmetry_space_group_name_H-M	'P1'
_symmetry_Int_Tables_number	1
_symmetry_cell_setting	triclinic
loop_
_symmetry_equiv_pos_as_xyz
  x,y,z
_cell_length_a	10.654550
_cell_length_b	13.339070
_cell_length_c	9.730223
_cell_angle_alpha	89.998050
_cell_angle_beta	89.999957
_cell_angle_gamma	100.057112
loop_
_atom_site_label
_atom_site_type_symbol
_atom_site_fract_x
_atom_site_fract_y
_atom_site_fract_z
O1	O	1.715933	0.142434	-0.114179
O2	O	1.355036	0.156005	-0.114204
O3	O	1.494065	0.001665	-0.114190
O4	O	1.576904	0.296774	-0.114193
O5	O	1.494051	0.001661	0.114390
O6	O	1.355022	0.156000	0.114376
O7	O	1.715919	0.142430	0.114401
Zn8	Zn	1.535468	0.149215	0.150680
Zn9	Zn	1.535487	0.149220	-0.150483
O10	O	1.576890	0.296769	0.114387
C11	C	1.307895	0.155006	0.000083
C12	C	1.167445	0.152025	0.000073
C13	C	1.480065	-0.036124	0.000097
C14	C	1.438355	-0.148719	0.000089
C15	C	1.118643	0.242897	0.000077
C16	C	0.986674	0.240090	0.000101
C17	C	0.952320	0.055530	0.000112
C18	C	1.084286	0.058338	0.000098
C19	C	1.762670	-0.511236	0.000111
C20	C	1.801862	-0.405448	0.000127
C21	C	1.710989	-0.341261	0.000117
C22	C	1.580916	-0.382871	0.000092
C23	C	1.541720	-0.488669	0.000087
C24	C	1.490039	-0.318694	0.000093
C25	C	1.359966	-0.360304	0.000068
C26	C	1.320776	-0.466092	0.000062
C27	C	1.411650	-0.530280	0.000072
C28	C	1.529235	-0.212896	0.000098
C29	C	1.308285	-0.190329	0.000074
C30	C	1.269093	-0.296117	0.000058
C31	C	1.763060	0.143429	0.000111
C32	C	1.903510	0.146410	0.000111
C33	C	1.590890	0.334559	0.000097
C34	C	1.632600	0.447153	0.000096
N35	N	1.535465	0.149210	0.356217
N36	N	1.535497	0.149217	-0.356020
C37	C	1.597066	0.080898	0.428149
C38	C	1.597079	0.080898	0.572032
C39	C	1.473888	0.217532	0.572038
C40	C	1.473869	0.217526	0.428158
H41	H	1.186348	0.319183	0.000067
N42	N	1.942140	-0.360560	0.000127
H43	H	1.963321	-0.317173	0.084863
H44	H	1.993677	-0.417323	0.000072
H45	H	1.647219	0.025269	0.369578
N46	N	0.934036	0.338102	0.000181
H47	H	1.006745	0.397874	0.000187
H48	H	0.879999	0.340993	-0.084524
N49	N	1.663541	0.007233	0.649617
H50	H	1.702564	-0.036037	0.582206
H51	H	1.732729	0.046496	0.709291
N52	N	0.862616	-0.045507	0.000140
H53	H	0.807090	-0.050788	-0.084588
H54	H	0.913643	-0.102594	0.000194
N55	N	1.407473	0.291217	0.649646
H56	H	1.447042	0.363300	0.624591
H57	H	1.314051	0.278780	0.624598
N58	N	1.407411	0.291201	0.350561
H59	H	1.368399	0.334483	0.417966
H60	H	1.471216	0.336393	0.290844
N61	N	1.136934	-0.039678	0.000111
H62	H	1.064231	-0.099454	0.000122
H63	H	1.190937	-0.042536	-0.084628
N64	N	1.753254	-0.227161	0.000125
H65	H	1.849442	-0.210540	0.000137
H66	H	1.719246	-0.197325	-0.084623
N67	N	1.669519	-0.168028	0.000121
H68	H	1.690721	-0.124632	-0.084608
H69	H	1.690601	-0.124695	0.084918
H70	H	1.836644	-0.563506	0.000131
N71	N	1.369370	-0.644382	0.000058
H72	H	1.403311	-0.674289	-0.084676
H73	H	1.403303	-0.674218	0.084850
N74	N	1.180487	-0.510976	0.000075
H75	H	1.128865	-0.454264	0.000074
H76	H	1.159409	-0.554380	-0.084658
H77	H	1.234288	-0.138067	0.000072
H78	H	1.163185	-0.330011	0.000039
