data_functionalizedCrystal
_audit_creation_method	'MofGen! by Chris Wilmer'
_symmetry_space_group_name_H-M	'P1'
_symmetry_Int_Tables_number	1
_symmetry_cell_setting	triclinic
loop_
_symmetry_equiv_pos_as_xyz
  x,y,z
_cell_length_a	8.559649
_cell_length_b	16.109301
_cell_length_c	15.186229
_cell_angle_alpha	90.000638
_cell_angle_beta	89.998040
_cell_angle_gamma	103.379927
loop_
_atom_site_label
_atom_site_type_symbol
_atom_site_fract_x
_atom_site_fract_y
_atom_site_fract_z
O1	O	0.205389	-1.090045	-0.073169
O2	O	0.230949	-0.846355	-0.073183
O3	O	-0.014444	-0.989670	-0.073174
O4	O	0.450782	-0.946731	-0.073178
O5	O	-0.014447	-0.989661	0.073283
O6	O	0.230946	-0.846347	0.073274
O7	O	0.205386	-1.090037	0.073288
Zn8	Zn	0.218165	-0.968191	0.096534
Zn9	Zn	0.218170	-0.968202	-0.096429
O10	O	0.450779	-0.946723	0.073279
C11	C	0.229912	-0.815442	0.000044
C12	C	0.226808	-0.723344	0.000039
C13	C	-0.073977	-0.992919	0.000053
C14	C	-0.251362	-1.002605	0.000049
C15	C	0.206423	-1.120950	0.000059
C16	C	0.209527	-1.213048	0.000059
C17	C	0.510312	-0.943473	0.000050
C18	C	0.687697	-0.933787	0.000049
N19	N	0.218161	-0.968189	0.228227
C20	C	0.365202	-0.492255	0.000048
C21	C	0.362273	-0.405721	0.000053
C22	C	0.071122	-0.444145	0.000052
C23	C	0.074053	-0.530677	0.000053
C24	C	0.221098	-0.554729	0.000046
C25	C	0.215238	-0.381663	0.000051
C26	C	0.212061	-0.287840	0.000057
C27	C	0.224275	-0.648558	0.000042
N28	N	0.218161	-0.968210	-0.228122
C29	C	0.109538	-1.031666	0.453954
C30	C	0.109534	-1.031669	0.546144
C31	C	0.326790	-0.904727	0.546145
C32	C	0.326785	-0.904722	0.453957
C33	C	0.218161	-0.968196	0.407864
C34	C	0.218162	-0.968204	0.592241
C35	C	0.218159	-0.968207	0.692198
C36	C	0.218161	-0.968192	0.307901
H37	H	-0.228771	-0.867458	0.000048
H38	H	0.479618	-0.354857	0.000056
H39	H	-0.048597	-0.424550	0.000063
H40	H	0.484935	-0.511835	0.000049
H41	H	-0.043302	-0.581547	0.000054
H42	H	0.021087	-1.083349	0.416427
H43	H	-0.334903	-1.068938	0.000060
H44	H	0.021081	-1.083351	0.583668
H45	H	0.415232	-0.853049	0.583683
N46	N	0.443935	-0.836255	0.404237
H47	H	0.512754	-0.796048	0.447424
H48	H	0.514592	-0.863565	0.365978
