data_functionalizedCrystal
_audit_creation_method	'MofGen! by Chris Wilmer'
_symmetry_space_group_name_H-M	'P1'
_symmetry_Int_Tables_number	1
_symmetry_cell_setting	triclinic
loop_
_symmetry_equiv_pos_as_xyz
  x,y,z
_cell_length_a	10.654545
_cell_length_b	9.730223
_cell_length_c	10.654549
_cell_angle_alpha	90.000956
_cell_angle_beta	95.516072
_cell_angle_gamma	90.002401
loop_
_atom_site_label
_atom_site_type_symbol
_atom_site_fract_x
_atom_site_fract_y
_atom_site_fract_z
O1	O	1.667842	0.114273	-0.176364
O2	O	1.302363	0.114278	-0.193176
O3	O	1.493506	0.114270	-0.002030
O4	O	1.476699	0.114282	-0.367509
O5	O	1.493493	-0.114310	-0.002041
O6	O	1.302351	-0.114301	-0.193186
O7	O	1.667830	-0.114307	-0.176374
Zn8	Zn	1.485088	-0.150596	-0.184782
Zn9	Zn	1.485104	0.150568	-0.184768
O10	O	1.476687	-0.114298	-0.367520
C11	C	1.255559	-0.000011	-0.191948
C12	C	1.116115	-0.000009	-0.188258
N13	N	1.485086	-0.356133	-0.184791
C14	C	1.050604	-0.124608	-0.186527
C15	C	0.919584	-0.124609	-0.183039
C16	C	0.919598	0.124602	-0.183019
C17	C	1.050617	0.124600	-0.186498
C18	C	1.561916	-0.428070	-0.261664
C19	C	1.561935	-0.571953	-0.261641
C20	C	1.408283	-0.571948	-0.107867
C21	C	1.408272	-0.428068	-0.107885
C22	C	1.650621	-0.428075	-0.350448
C23	C	1.650640	-0.571958	-0.350425
C24	C	1.714634	-0.000015	-0.177602
C25	C	1.854078	-0.000008	-0.181292
C26	C	1.492266	-0.000019	0.044762
C27	C	1.488574	-0.000014	0.184206
N28	N	1.485116	0.356104	-0.184749
C29	C	1.477927	-0.000007	-0.414312
C30	C	1.481619	-0.000002	-0.553756
C31	C	1.597638	-0.000006	0.394722
C32	C	1.601116	-0.000017	0.263702
C33	C	1.372546	-0.000014	0.235736
C34	C	1.369069	-0.000013	0.366754
H35	H	1.103929	-0.226073	-0.187960
C36	C	0.847526	-0.261679	-0.181150
N37	N	0.793252	-0.364926	-0.179731
C38	C	1.778409	-0.632224	-0.297041
N39	N	1.874634	-0.677619	-0.256809
H40	H	1.345723	-0.369501	-0.045274
H41	H	1.103958	0.226071	-0.187904
C42	C	1.721445	-0.000012	0.482157
N43	N	1.814702	-0.000024	0.548010
H44	H	1.695590	-0.000023	0.221759
H45	H	0.866253	0.226054	-0.181587
C46	C	1.323785	-0.651090	-0.023283
N47	N	1.260135	-0.710698	0.040425
H48	H	1.619708	-0.611028	-0.449459
C49	C	1.248748	-0.000007	0.148286
N50	N	1.155501	0.000005	0.082419
H51	H	1.749673	-0.389012	-0.319590
C52	C	1.597221	-0.367805	-0.478207
N53	N	1.557000	-0.322409	-0.574436
H54	H	1.274587	-0.000016	0.408703
