data_functionalizedCrystal
_audit_creation_method	'MofGen! by Chris Wilmer'
_symmetry_space_group_name_H-M	'P1'
_symmetry_Int_Tables_number	1
_symmetry_cell_setting	triclinic
loop_
_symmetry_equiv_pos_as_xyz
  x,y,z
_cell_length_a	13.033293
_cell_length_b	16.120256
_cell_length_c	13.032721
_cell_angle_alpha	99.655851
_cell_angle_beta	105.184121
_cell_angle_gamma	85.311795
loop_
_atom_site_label
_atom_site_type_symbol
_atom_site_fract_x
_atom_site_fract_y
_atom_site_fract_z
Zn1	Zn	1.522674	-0.652707	-0.264404
Zn2	Zn	2.022674	-0.152707	0.235596
Zn3	Zn	1.509001	-0.528989	-0.433029
Zn4	Zn	2.009001	-0.028989	0.066971
Zn5	Zn	1.356336	-0.497570	-0.275668
Zn6	Zn	1.856336	0.002430	0.224332
Zn7	Zn	1.322459	-0.652611	-0.464503
Zn8	Zn	1.822459	-0.152611	0.035497
O9	O	1.427617	-0.582969	-0.359401
O10	O	1.927617	-0.082969	0.140599
O11	O	1.668541	-0.649485	-0.268887
O12	O	2.168541	-0.149485	0.231113
O13	O	1.497205	-0.408160	-0.403698
O14	O	1.997205	0.091840	0.096302
O15	O	1.398300	-0.505040	-0.124576
O16	O	1.898300	-0.005040	0.375424
O17	O	1.658496	-0.558590	-0.392775
O18	O	2.158496	-0.058590	0.107225
O19	O	1.520508	-0.619019	-0.116300
O20	O	2.020508	-0.119019	0.383700
O21	O	1.385042	-0.385076	-0.288085
O22	O	1.885042	0.114924	0.211915
O23	O	1.204160	-0.504947	-0.318604
O24	O	1.704160	-0.004947	0.181396
O25	O	1.340563	-0.769286	-0.446417
O26	O	1.840563	-0.269286	0.053583
O27	O	1.179272	-0.618855	-0.457339
O28	O	1.679272	-0.118855	0.042661
O29	O	1.487659	-0.769356	-0.299405
O30	O	1.987659	-0.269356	0.200595
O31	O	1.464357	-0.558497	-0.586802
O32	O	1.964357	-0.058497	-0.086802
O33	O	1.327305	-0.649322	-0.609926
O34	O	1.827305	-0.149322	-0.109926
C35	C	1.153424	-0.558482	-0.392610
C36	C	1.653424	-0.058482	0.107390
C37	C	1.036118	-0.548028	-0.406844
C38	C	1.536118	-0.048028	0.093156
C39	C	0.988770	-0.588428	-0.351999
C40	C	1.488770	-0.088428	0.148001
C41	C	0.867528	-0.577624	-0.366709
C42	C	1.367528	-0.077624	0.133291
C43	C	1.411858	-0.800416	-0.375165
C44	C	1.911858	-0.300416	0.124835
C45	C	1.405142	-0.893079	-0.381883
C46	C	1.905142	-0.393079	0.118117
C47	C	1.462642	-1.104048	-0.324342
C48	C	1.962642	-0.604048	0.175658
C49	C	1.392851	-1.062723	-0.394108
C50	C	1.892851	-0.562723	0.105892
C51	C	1.399691	-0.968324	-0.387304
C52	C	1.899691	-0.468324	0.112696
C53	C	1.455803	-1.198455	-0.331144
C54	C	1.955803	-0.698455	0.168856
C55	C	1.702882	-0.607553	-0.326063
C56	C	2.202882	-0.107553	0.173937
C57	C	1.820183	-0.618029	-0.311857
C58	C	2.320183	-0.118029	0.188143
C59	C	1.390699	-0.607329	-0.637151
C60	C	1.890699	-0.107329	-0.137151
C61	C	1.374999	-0.617787	-0.755964
C62	C	1.874999	-0.117787	-0.255964
C63	C	1.443387	-0.366367	-0.343614
C64	C	1.943387	0.133633	0.156386
C65	C	1.450347	-0.273697	-0.336570
C66	C	1.950347	0.226303	0.163430
C67	C	1.435864	-0.577554	-0.797455
C68	C	1.935864	-0.077554	-0.297455
C69	C	1.419640	-0.588361	-0.920254
C70	C	1.919640	-0.088361	-0.420254
C71	C	1.464708	-0.558535	-0.080564
C72	C	1.964708	-0.058535	0.419436
C73	C	1.480513	-0.548123	0.038259
C74	C	1.980513	-0.048123	0.538259
H75	H	1.037993	-0.631010	-0.294150
H76	H	1.537993	-0.131010	0.205850
H77	H	1.327958	-1.098238	-0.458940
H78	H	1.827958	-0.598238	0.041060
H79	H	1.499989	-0.535111	-0.742067
H80	H	1.999989	-0.035111	-0.242067
F81	F	1.335828	-0.643851	-0.992644
F82	F	1.835828	-0.143851	-0.492644
H83	H	1.544642	-0.505677	-0.906355
H84	H	2.044642	-0.005677	-0.406355
H85	H	0.869402	-0.660614	-0.254001
H86	H	1.369402	-0.160614	0.245999
H87	H	0.818309	-0.535033	-0.424556
H88	H	1.318309	-0.035033	0.075444
F89	F	0.971786	-0.492359	-0.482448
F90	F	1.471786	0.007641	0.017552
F91	F	1.291192	-0.673273	-0.828357
F92	F	1.791192	-0.173273	-0.328357
H93	H	1.527525	-1.068534	-0.259510
H94	H	2.027525	-0.568534	0.240490
