data_functionalizedCrystal
_audit_creation_method	'MofGen! by Chris Wilmer'
_symmetry_space_group_name_H-M	'P1'
_symmetry_Int_Tables_number	1
_symmetry_cell_setting	triclinic
loop_
_symmetry_equiv_pos_as_xyz
  x,y,z
_cell_length_a	10.654549
_cell_length_b	23.532407
_cell_length_c	9.130313
_cell_angle_alpha	89.990840
_cell_angle_beta	89.997498
_cell_angle_gamma	83.666727
loop_
_atom_site_label
_atom_site_type_symbol
_atom_site_fract_x
_atom_site_fract_y
_atom_site_fract_z
O1	O	1.665306	0.079984	-0.121782
O2	O	1.299586	0.087604	-0.121794
O3	O	1.493474	0.000934	-0.121761
O4	O	1.471417	0.166654	-0.121815
O5	O	1.493461	0.000932	0.121838
O6	O	1.299572	0.087602	0.121805
O7	O	1.665292	0.079981	0.121816
Cu8	Cu	1.482431	0.083791	0.144053
Cu9	Cu	1.482447	0.083794	-0.144031
O10	O	1.471404	0.166651	0.121783
C11	C	1.252799	0.087044	0.000004
C12	C	1.113409	0.085370	0.000001
C13	C	0.901327	0.134823	-0.000010
C14	C	1.032298	0.136400	-0.000019
C15	C	1.063543	0.032759	0.000015
C16	C	0.932575	0.031183	0.000013
C17	C	1.492906	-0.020287	0.000042
C18	C	1.491217	-0.083515	0.000053
C19	C	1.595364	-0.481939	-0.000024
C20	C	1.593795	-0.541350	-0.000035
O21	O	1.690341	-0.577465	-0.000086
N22	N	1.478529	-0.564727	-0.000038
C23	C	1.364824	-0.528690	-0.000044
O24	O	1.266637	-0.554029	-0.000049
C25	C	1.366394	-0.469281	-0.000043
C26	C	1.481668	-0.445907	-0.000026
C27	C	1.710629	-0.458565	-0.000008
C28	C	1.712197	-0.399159	0.000006
C29	C	1.598501	-0.363127	0.000004
C30	C	1.483236	-0.386501	-0.000012
C31	C	1.252690	-0.433245	-0.000060
C32	C	1.254270	-0.373832	-0.000061
C33	C	1.369544	-0.350459	-0.000043
C34	C	1.371108	-0.291062	0.000000
N35	N	1.486374	-0.267685	0.000003
C36	C	1.600071	-0.303717	0.000005
C37	C	1.361535	-0.653454	-0.000048
C38	C	1.359964	-0.712862	-0.000038
C39	C	1.588936	-0.725518	-0.000032
C40	C	1.590506	-0.666108	-0.000031
C41	C	1.476802	-0.630077	-0.000045
C42	C	1.603355	-0.178959	0.000035
C43	C	1.604913	-0.119547	0.000055
C44	C	1.375942	-0.106896	0.000041
C45	C	1.374383	-0.166303	0.000029
C46	C	1.488100	-0.202334	0.000021
O47	O	1.274613	-0.254912	0.000045
O48	O	1.698242	-0.278370	-0.000010
C49	C	1.712079	0.080542	0.000015
C50	C	1.851469	0.082216	0.000009
C51	C	1.471972	0.187872	-0.000023
C52	C	1.473661	0.251100	-0.000044
N53	N	1.482430	0.083789	0.346676
N54	N	1.482459	0.083792	-0.346653
C55	C	1.568312	0.045428	0.423342
C56	C	1.568324	0.045428	0.576679
C57	C	1.396567	0.122155	0.576669
C58	C	1.396550	0.122152	0.423335
H59	H	1.072884	0.179237	-0.000035
H60	H	1.161676	-0.344497	-0.000074
H61	H	1.638238	0.014189	0.360930
H62	H	0.835294	0.176378	-0.000014
Cl63	Cl	0.869892	-0.034957	0.000017
Cl64	Cl	1.233017	-0.061588	0.000035
H65	H	1.280518	-0.185335	0.000055
Cl66	Cl	1.288615	0.170384	0.673048
H67	H	1.695955	-0.208289	0.000023
H68	H	1.326609	0.153391	0.360909
H69	H	1.129594	-0.008790	0.000022
Cl70	Cl	1.676291	-0.002801	0.673056
H71	H	1.266096	-0.731887	-0.000027
Cl72	Cl	1.749840	-0.090167	0.000074
H73	H	1.684372	-0.647082	-0.000018
H74	H	1.806065	-0.380134	0.000014
H75	H	1.681514	-0.754866	-0.000036
H76	H	1.803220	-0.487897	-0.000011
H77	H	1.268937	-0.624120	-0.000047
H78	H	1.158822	-0.452265	-0.000083
