data_functionalizedCrystal
_audit_creation_method	'MofGen! by Chris Wilmer'
_symmetry_space_group_name_H-M	'P1'
_symmetry_Int_Tables_number	1
_symmetry_cell_setting	triclinic
loop_
_symmetry_equiv_pos_as_xyz
  x,y,z
_cell_length_a	16.109301
_cell_length_b	10.654550
_cell_length_c	15.186229
_cell_angle_alpha	89.996404
_cell_angle_beta	89.999006
_cell_angle_gamma	83.973257
loop_
_atom_site_label
_atom_site_type_symbol
_atom_site_fract_x
_atom_site_fract_y
_atom_site_fract_z
O1	O	1.104090	0.161420	-0.073180
O2	O	0.862148	0.181508	-0.073192
O3	O	0.988682	-0.011350	-0.073180
O4	O	0.977556	0.354279	-0.073192
O5	O	0.988673	-0.011353	0.073277
O6	O	0.862139	0.181506	0.073265
O7	O	1.104082	0.161418	0.073277
Zn8	Zn	0.983109	0.171461	0.096524
Zn9	Zn	0.983120	0.171465	-0.096439
O10	O	0.977548	0.354276	0.073265
C11	C	0.987861	-0.058139	0.000048
C12	C	0.985417	-0.197549	0.000046
C13	C	0.831164	0.180693	0.000035
C14	C	0.738854	0.178254	0.000030
C15	C	0.430489	0.284717	0.000042
C16	C	0.517223	0.287021	0.000037
C17	C	0.535735	0.058200	0.000033
C18	C	0.449003	0.055898	0.000031
C19	C	0.396382	0.169160	0.000041
C20	C	0.569848	0.173766	0.000037
C21	C	0.663889	0.176264	0.000031
C22	C	0.302335	0.166663	0.000045
C23	C	1.059918	-0.278045	0.000050
C24	C	1.057616	-0.409034	0.000039
C25	C	0.906306	-0.379019	0.000025
C26	C	0.908608	-0.248032	0.000029
C27	C	1.145364	-0.606069	-0.051272
C28	C	1.219869	-0.686570	-0.051253
C29	C	1.287407	-0.657315	0.000075
C30	C	1.280443	-0.547562	0.051405
C31	C	1.205937	-0.467067	0.051394
C32	C	1.138402	-0.496320	0.000046
C33	C	0.820866	-0.050996	0.051348
C34	C	0.746359	0.029501	0.051343
C35	C	0.678814	0.000250	0.000021
C36	C	0.685769	-0.109506	-0.051297
C37	C	0.760277	-0.190003	-0.051292
C38	C	0.827822	-0.160743	0.000029
C39	C	1.135066	0.162233	0.000048
C40	C	1.227375	0.164673	0.000047
C41	C	0.978369	0.401065	0.000035
C42	C	0.980813	0.540475	0.000031
N43	N	0.983107	0.171458	0.228217
N44	N	0.983128	0.171458	-0.228132
C45	C	1.039156	0.086089	0.453945
C46	C	1.039159	0.086086	0.546135
C47	C	0.927074	0.256831	0.546133
C48	C	0.927068	0.256827	0.453945
C49	C	0.983114	0.171458	0.407854
C50	C	0.983122	0.171459	0.592231
C51	C	0.983125	0.171456	0.692187
C52	C	0.983110	0.171458	0.307891
H53	H	0.544988	0.381119	0.000038
C54	C	0.767933	-0.310735	-0.107746
C55	C	0.693638	-0.342920	-0.164204
C56	C	0.701295	-0.463650	-0.220656
C57	C	0.783248	-0.552193	-0.220650
C58	C	0.857549	-0.520010	-0.164191
C59	C	0.849892	-0.399281	-0.107739
H60	H	0.632966	-0.277373	-0.164209
H61	H	0.646292	-0.487473	-0.262451
H62	H	0.788916	-0.641564	-0.262440
H63	H	0.918220	-0.585557	-0.164185
H64	H	0.904895	-0.375457	-0.065943
C65	C	0.865418	0.350739	0.403236
C66	C	0.803800	0.444691	0.453930
C67	C	0.742152	0.538594	0.403220
C68	C	0.742120	0.538545	0.301817
C69	C	0.803740	0.444590	0.251118
C70	C	0.865389	0.350687	0.301828
H71	H	0.803821	0.444730	0.529000
H72	H	0.696536	0.608145	0.440751
H73	H	0.696484	0.608058	0.264278
H74	H	0.803720	0.444551	0.176048
H75	H	0.911004	0.281136	0.264296
C76	C	0.611475	-0.141692	-0.107762
C77	C	0.572501	-0.265664	-0.091847
C78	C	0.498204	-0.297847	-0.148311
C79	C	0.462881	-0.206059	-0.220689
C80	C	0.501855	-0.082078	-0.236607
C81	C	0.576152	-0.049895	-0.180143
H82	H	0.598649	-0.333619	-0.038265
H83	H	0.469353	-0.389626	-0.136527
H84	H	0.407881	-0.229883	-0.262487
H85	H	0.475707	-0.014124	-0.290189
H86	H	0.605003	0.041884	-0.191927
C87	C	0.411479	-0.071224	0.000029
C88	C	0.469357	-0.195808	0.000028
C89	C	0.431832	-0.322923	0.000020
C90	C	0.336429	-0.325453	0.000013
C91	C	0.278546	-0.200864	0.000014
C92	C	0.316071	-0.073750	0.000022
H93	H	0.539984	-0.193939	0.000033
H94	H	0.474681	-0.415152	0.000020
H95	H	0.308651	-0.419551	0.000007
H96	H	0.207918	-0.202734	0.000009
H97	H	0.273221	0.018479	0.000022
C98	C	1.100809	-0.007817	0.596837
C99	C	1.162461	-0.101706	0.546136
C100	C	1.224113	-0.195614	0.596838
C101	C	1.224112	-0.195634	0.698241
C102	C	1.162456	-0.101741	0.748948
C103	C	1.100805	-0.007833	0.698246
H104	H	1.162465	-0.101695	0.471066
H105	H	1.269754	-0.265120	0.559300
H106	H	1.269750	-0.265150	0.735773
H107	H	1.162453	-0.101752	0.824017
H108	H	1.055164	0.061673	0.735783
C109	C	1.354736	-0.515389	0.107875
C110	C	1.436691	-0.603927	0.107886
C111	C	1.510987	-0.571749	0.164354
C112	C	1.503327	-0.451033	0.220811
C113	C	1.421369	-0.362486	0.220803
C114	C	1.347074	-0.394664	0.164334
H115	H	1.442364	-0.693296	0.066091
H116	H	1.571658	-0.637298	0.164360
H117	H	1.558326	-0.427213	0.262612
H118	H	1.415696	-0.273117	0.262597
H119	H	1.286403	-0.329115	0.164328
H120	H	1.090377	-0.629891	-0.093080
H121	H	0.618142	0.065794	0.000033
H122	H	0.881444	0.326339	0.583670
H123	H	0.387646	0.376942	0.000049
H124	H	1.084791	0.016574	0.416420
H125	H	0.843771	-0.420139	0.000013
H126	H	0.578590	-0.034013	0.000027
H127	H	1.122460	-0.236946	0.000062
H128	H	1.348071	-0.722869	0.000088
H129	H	1.200265	-0.377710	0.093190
H130	H	1.225534	-0.775930	-0.093054
H131	H	0.875872	-0.027151	0.093123
H132	H	0.740696	0.118863	0.093140
