data_functionalizedCrystal
_audit_creation_method	'MofGen! by Chris Wilmer'
_symmetry_space_group_name_H-M	'P1'
_symmetry_Int_Tables_number	1
_symmetry_cell_setting	triclinic
loop_
_symmetry_equiv_pos_as_xyz
  x,y,z
_cell_length_a	29.839131
_cell_length_b	13.897449
_cell_length_c	13.897441
_cell_angle_alpha	90.022859
_cell_angle_beta	89.964857
_cell_angle_gamma	89.958747
loop_
_atom_site_label
_atom_site_type_symbol
_atom_site_fract_x
_atom_site_fract_y
_atom_site_fract_z
Zn1	Zn	-0.178841	-1.474544	-0.545405
Zn2	Zn	-0.253976	-1.474371	-0.384094
Zn3	Zn	-0.178860	-1.313233	-0.384118
Zn4	Zn	-0.253945	-1.313148	-0.545341
O5	O	-0.216405	-1.393824	-0.464739
O6	O	-0.188813	-1.609502	-0.524024
O7	O	-0.244033	-1.452959	-0.249115
O8	O	-0.115991	-1.334739	-0.405550
O9	O	-0.244014	-1.609375	-0.405509
O10	O	-0.115976	-1.453253	-0.524047
O11	O	-0.188846	-1.334571	-0.249133
O12	O	-0.188816	-1.178240	-0.405487
O13	O	-0.243961	-1.334594	-0.680331
O14	O	-0.243979	-1.178177	-0.523937
O15	O	-0.188782	-1.453171	-0.680378
O16	O	-0.316839	-1.452876	-0.405447
O17	O	-0.316816	-1.334426	-0.523914
C18	C	-0.216397	-1.143209	-0.464708
C19	C	-0.216404	-1.035995	-0.464718
C20	C	-0.216403	-0.839700	-0.464736
C21	C	-0.216402	-0.948933	-0.464723
C22	C	-0.333128	-1.393649	-0.464692
C23	C	-0.383063	-1.393663	-0.464703
C24	C	-0.692705	-1.455613	-0.403144
C25	C	-0.880378	-1.455732	-0.403181
O26	O	-0.904643	-1.508265	-0.350804
N27	N	-0.903847	-1.394024	-0.464812
C28	C	-0.880396	-1.332286	-0.526443
O29	O	-0.904664	-1.279809	-0.578872
C30	C	-0.692723	-1.332172	-0.526409
C31	C	-0.669257	-1.393878	-0.464767
C32	C	-0.669238	-1.517314	-0.341507
C33	C	-0.622323	-1.517280	-0.341495
C34	C	-0.598874	-1.455545	-0.403119
C35	C	-0.622341	-1.393844	-0.464755
C36	C	-0.669272	-1.270440	-0.588044
C37	C	-0.622351	-1.270419	-0.588032
C38	C	-0.598885	-1.332124	-0.526390
C39	C	-0.551977	-1.332074	-0.526366
N40	N	-0.528508	-1.393782	-0.464735
C41	C	-0.551956	-1.455518	-0.403111
C42	C	-0.978926	-1.332349	-0.526454
C43	C	-1.025844	-1.332375	-0.526462
C44	C	-1.025823	-1.455823	-0.403201
C45	C	-0.978905	-1.455790	-0.403190
C46	C	-0.955457	-1.394057	-0.464823
C47	C	-0.453431	-1.455441	-0.403089
C48	C	-0.406511	-1.455398	-0.403080
C49	C	-0.406536	-1.331955	-0.526343
C50	C	-0.453451	-1.331993	-0.526350
C51	C	-0.476898	-1.393744	-0.464720
O52	O	-0.527684	-1.279576	-0.578723
O53	O	-0.527680	-1.508002	-0.350706
C54	C	-0.739621	-1.455647	-0.403156
C55	C	-0.763088	-1.393946	-0.464792
C56	C	-0.739639	-1.332211	-0.526416
C57	C	-0.810005	-1.393973	-0.464800
C58	C	-0.833454	-1.455708	-0.403176
C59	C	-0.809985	-1.517416	-0.341545
C60	C	-0.763069	-1.517382	-0.341532
C61	C	-0.763108	-1.270503	-0.588047
C62	C	-0.810024	-1.270541	-0.588054
C63	C	-0.833472	-1.332276	-0.526430
C64	C	-0.099227	-1.394025	-0.464809
C65	C	-0.049293	-1.394111	-0.464838
C66	C	-0.216366	-1.393892	-0.716333
C67	C	-0.216349	-1.393921	-0.823547
C68	C	-0.216412	-0.645417	-0.464762
C69	C	-0.216407	-0.752631	-0.464748
C70	C	-0.216318	-1.393948	-1.019842
C71	C	-0.216337	-1.393930	-0.910609
C72	C	-0.216413	-1.393811	-0.214125
C73	C	-0.216303	-1.393969	-0.106912
H74	H	-0.387406	-1.505646	-0.352880
H75	H	-1.044947	-1.282120	-0.576648
H76	H	-0.959838	-1.282075	-0.576645
H77	H	-1.044923	-1.506090	-0.353025
H78	H	-0.829085	-1.567680	-0.291366
H79	H	-0.603219	-1.567528	-0.291304
H80	H	-0.472559	-1.281751	-0.576547
H81	H	-0.688371	-1.220189	-0.638235
H82	H	-0.688325	-1.567591	-0.291326
H83	H	-0.387437	-1.281688	-0.576514
H84	H	-0.744020	-1.220232	-0.638230
H85	H	-0.603262	-1.220149	-0.638225
H86	H	-0.743966	-1.567628	-0.291338
H87	H	-0.829126	-1.220285	-0.638249
H88	H	-0.472515	-1.505726	-0.352906
H89	H	-0.959801	-1.506036	-0.352996
