data_functionalizedCrystal
_audit_creation_method	'MofGen! by Chris Wilmer'
_symmetry_space_group_name_H-M	'P1'
_symmetry_Int_Tables_number	1
_symmetry_cell_setting	triclinic
loop_
_symmetry_equiv_pos_as_xyz
  x,y,z
_cell_length_a	17.699083
_cell_length_b	17.699083
_cell_length_c	7.540329
_cell_angle_alpha	89.995522
_cell_angle_beta	90.003072
_cell_angle_gamma	83.283015
loop_
_atom_site_label
_atom_site_type_symbol
_atom_site_fract_x
_atom_site_fract_y
_atom_site_fract_z
O1	O	1.004074	0.095710	-0.147237
O2	O	0.783696	0.108163	-0.147296
O3	O	0.900111	-0.008253	-0.147249
O4	O	0.887659	0.212126	-0.147284
O5	O	0.900104	-0.008254	0.147716
O6	O	0.783689	0.108161	0.147669
O7	O	1.004067	0.095709	0.147728
Cu8	Cu	0.893878	0.101935	0.174631
Cu9	Cu	0.893886	0.101936	-0.174199
O10	O	0.887652	0.212124	0.147681
C11	C	0.755495	0.107716	0.000179
C12	C	0.671477	0.106377	0.000157
C13	C	0.622856	0.174710	0.000147
C14	C	0.543913	0.173448	0.000170
C15	C	0.513592	0.103852	0.000191
C16	C	0.562219	0.035513	0.000207
C17	C	0.641161	0.036776	0.000196
C18	C	0.243856	0.030418	0.000251
C19	C	0.164908	0.029160	0.000256
C20	C	0.146608	0.167090	0.000226
C21	C	0.225550	0.168353	0.000215
C22	C	0.274170	0.100015	0.000240
C23	C	0.359769	0.101384	0.000218
C24	C	0.427995	0.102481	0.000200
C25	C	0.899662	-0.036451	0.000233
C26	C	0.898323	-0.120469	0.000234
C27	C	0.966656	-0.169090	0.000254
C28	C	0.965394	-0.248033	0.000238
C29	C	0.895798	-0.278354	0.000214
C30	C	0.827459	-0.229727	0.000188
C31	C	0.828722	-0.150785	0.000192
C32	C	0.822364	-0.548090	0.000173
C33	C	0.821106	-0.627038	0.000175
C34	C	0.959036	-0.645338	0.000219
C35	C	0.960299	-0.566396	0.000223
C36	C	0.891961	-0.517776	0.000187
C37	C	0.893330	-0.432177	0.000201
C38	C	0.894427	-0.363951	0.000213
C39	C	1.032268	0.096156	0.000249
C40	C	1.116286	0.097494	0.000259
C41	C	0.888102	0.240322	0.000195
C42	C	0.889440	0.324340	0.000183
N43	N	0.893877	0.101933	0.419980
N44	N	0.893892	0.101932	-0.419548
H45	H	0.107012	0.222734	0.000215
H46	H	0.647537	0.231384	0.000129
H47	H	1.021038	-0.287618	0.000259
C48	C	1.043212	-0.135740	0.000287
H49	H	1.034180	-0.081761	0.000303
H50	H	1.071346	-0.152434	-0.102565
H51	H	1.071336	-0.152443	0.103170
H52	H	0.250232	0.225025	0.000190
H53	H	0.766718	-0.508512	0.000144
H54	H	0.504328	0.229092	0.000160
C55	C	0.131557	-0.047400	0.000297
H56	H	0.171819	-0.087919	0.000328
H57	H	0.101138	-0.050763	-0.102559
H58	H	0.101146	-0.050750	0.103175
H59	H	0.283434	-0.025228	0.000273
H60	H	0.537526	-0.021154	0.000249
H61	H	1.016971	-0.541714	0.000251
C62	C	0.694644	-0.038390	0.000190
H63	H	0.665282	-0.080021	0.000184
H64	H	0.725827	-0.040768	0.103043
H65	H	0.725812	-0.040761	-0.102691
H66	H	1.014680	-0.684934	0.000239
C67	C	0.744546	-0.660389	0.000125
H68	H	0.704027	-0.620127	0.000084
H69	H	0.741179	-0.690808	0.102981
H70	H	0.741200	-0.690800	-0.102753
H71	H	0.773078	-0.111198	0.000175
C72	C	0.750904	-0.263077	0.000167
H73	H	0.759938	-0.317056	0.000188
H74	H	0.722774	-0.246377	-0.102699
H75	H	0.722775	-0.246381	0.103035
