data_functionalizedCrystal
_audit_creation_method	'MofGen! by Chris Wilmer'
_symmetry_space_group_name_H-M	'P1'
_symmetry_Int_Tables_number	1
_symmetry_cell_setting	triclinic
loop_
_symmetry_equiv_pos_as_xyz
  x,y,z
_cell_length_a	14.853567
_cell_length_b	19.288865
_cell_length_c	17.766277
_cell_angle_alpha	90.011603
_cell_angle_beta	89.993613
_cell_angle_gamma	96.614411
loop_
_atom_site_label
_atom_site_type_symbol
_atom_site_fract_x
_atom_site_fract_y
_atom_site_fract_z
O1	O	1.195855	-0.090685	-0.062551
O2	O	0.933334	-0.101488	-0.062565
O3	O	1.072180	0.005018	-0.062543
O4	O	1.057009	-0.197191	-0.062574
O5	O	1.072156	0.005024	0.062646
O6	O	0.933310	-0.101482	0.062623
O7	O	1.195831	-0.090680	0.062637
Cu8	Cu	1.064568	-0.096080	0.074061
Cu9	Cu	1.064597	-0.096087	-0.073989
O10	O	1.056985	-0.197186	0.062615
C11	C	0.899736	-0.100996	0.000027
C12	C	0.799661	-0.099529	0.000023
C13	C	1.071680	0.030899	0.000053
C14	C	1.070215	0.108008	0.000060
N15	N	1.064555	-0.096076	0.178191
C16	C	0.387522	-0.030061	0.000050
C17	C	0.365522	-0.156593	0.000030
C18	C	0.459547	-0.157972	0.000028
C19	C	0.517565	-0.095395	0.000035
C20	C	0.481557	-0.031439	0.000045
C21	C	0.495563	-0.221927	0.000010
C22	C	0.589594	-0.223309	0.000006
C23	C	0.647614	-0.160731	0.000019
C24	C	0.611600	-0.096772	0.000030
C25	C	0.669618	-0.034195	0.000038
C26	C	0.633606	0.029764	0.000054
C27	C	0.539577	0.031139	0.000058
C28	C	0.741643	-0.162106	0.000015
C29	C	0.763653	-0.035572	0.000033
C30	C	1.229429	-0.091172	0.000043
C31	C	1.329504	-0.092639	0.000043
C32	C	1.057485	-0.223067	0.000017
C33	C	1.058951	-0.300175	0.000005
C34	C	1.151683	0.152429	0.000068
C35	C	1.150307	0.224881	0.000056
C36	C	1.067457	0.252908	0.000051
C37	C	0.985977	0.208477	0.000039
C38	C	0.987356	0.136027	0.000043
C39	C	1.002318	0.361417	0.043899
C40	C	1.000943	0.433866	0.043899
C41	C	1.063200	0.476368	0.000034
C42	C	1.126848	0.446413	-0.043821
C43	C	1.128227	0.373963	-0.043817
C44	C	1.065952	0.331467	0.000046
C45	C	1.143181	0.599350	0.000028
C46	C	1.141801	0.671803	0.000011
C47	C	0.977470	0.655397	0.000002
C48	C	0.978852	0.582946	0.000011
C49	C	1.061710	0.554927	0.000028
N50	N	1.064618	-0.096086	-0.178119
C51	C	1.126055	-0.048938	0.217588
C52	C	1.126061	-0.048935	0.296390
C53	C	1.064574	-0.096081	0.335792
C54	C	1.003061	-0.143222	0.296386
C55	C	1.003052	-0.143220	0.217585
C56	C	1.052504	-0.159328	0.460620
C57	C	1.052520	-0.159332	0.539419
C58	C	1.064598	-0.096090	0.578838
C59	C	1.076679	-0.032841	0.539449
C60	C	1.076669	-0.032838	0.460649
C61	C	1.064577	-0.096089	0.421238
C62	C	1.126108	-0.048944	0.703681
C63	C	1.126107	-0.048940	0.782484
C64	C	1.003111	-0.143234	0.782478
C65	C	1.003108	-0.143232	0.703677
C66	C	1.064611	-0.096088	0.664283
H67	H	0.810886	0.015386	0.000042
Cl68	Cl	0.292585	-0.235257	0.000011
Cl69	Cl	1.037404	-0.238843	0.411072
Cl70	Cl	1.091870	0.046669	0.588996
Cl71	Cl	0.422624	-0.300590	-0.000012
Cl72	Cl	1.203423	0.010327	0.832015
H73	H	0.951619	0.326817	0.079622
Cl74	Cl	0.634858	-0.303714	-0.000012
Cl75	Cl	0.873314	0.690624	-0.000009
Cl76	Cl	1.091845	0.046670	0.411134
Cl77	Cl	1.203420	0.010326	0.654156
H78	H	0.770960	-0.214181	0.000003
H79	H	0.918520	0.231301	0.000033
Cl80	Cl	1.203384	0.010329	0.345926
Cl81	Cl	0.920933	0.471517	0.099033
Cl82	Cl	1.255848	0.117209	0.000068
Cl83	Cl	0.876428	0.527099	0.000004
Cl84	Cl	0.925807	-0.202499	0.832007
H85	H	0.510247	0.083212	0.000089
H86	H	1.208146	0.707971	0.000014
Cl87	Cl	0.925794	-0.202497	0.654144
H88	H	1.042689	-0.210832	0.571483
Cl89	Cl	0.884930	0.080179	0.000034
H90	H	0.358197	0.022013	0.000066
H91	H	0.680856	0.080715	0.000055
Cl92	Cl	1.203367	0.010331	0.168065
H93	H	0.952996	-0.181609	0.328471
Cl94	Cl	1.208232	0.336307	-0.098951
Cl95	Cl	1.252732	0.280735	0.000066
Cl96	Cl	1.205119	0.499836	-0.098970
Cl97	Cl	1.247344	0.564123	0.000053
H98	H	0.952969	-0.181605	0.185508
