data_functionalizedCrystal
_audit_creation_method	'MofGen! by Chris Wilmer'
_symmetry_space_group_name_H-M	'P1'
_symmetry_Int_Tables_number	1
_symmetry_cell_setting	triclinic
loop_
_symmetry_equiv_pos_as_xyz
  x,y,z
_cell_length_a	14.853567
_cell_length_b	14.853576
_cell_length_c	17.766277
_cell_angle_alpha	89.994703
_cell_angle_beta	89.993613
_cell_angle_gamma	83.636707
loop_
_atom_site_label
_atom_site_type_symbol
_atom_site_fract_x
_atom_site_fract_y
_atom_site_fract_z
O1	O	1.196375	0.117705	-0.062541
O2	O	0.933916	0.131726	-0.062553
O3	O	1.072152	-0.006513	-0.062544
O4	O	1.058138	0.255945	-0.062550
O5	O	1.072127	-0.006521	0.062645
O6	O	0.933891	0.131719	0.062635
O7	O	1.196350	0.117698	0.062648
Cu8	Cu	1.065119	0.124708	0.074072
Cu9	Cu	1.065147	0.124716	-0.073978
O10	O	1.058114	0.255938	0.062638
C11	C	0.900315	0.131088	0.000039
C12	C	0.800231	0.129184	0.000035
C13	C	1.071503	-0.040106	0.000050
C14	C	1.069596	-0.140189	0.000047
C15	C	1.068712	-0.187200	-0.068197
C16	C	1.068696	-0.187221	0.068289
C17	C	1.066909	-0.281255	0.068289
C18	C	1.066025	-0.328266	0.000045
C19	C	1.066928	-0.281243	-0.068199
C20	C	1.066015	-0.328286	0.136531
C21	C	1.064230	-0.422326	0.136534
C22	C	1.063339	-0.469338	0.068290
C23	C	1.064241	-0.422309	0.000043
C24	C	1.063357	-0.469320	-0.068201
C25	C	1.064252	-0.422292	-0.136448
C26	C	1.066037	-0.328255	-0.136443
C27	C	1.061554	-0.563376	0.068285
C28	C	1.061572	-0.563364	-0.068203
C29	C	0.387694	0.039018	0.000054
C30	C	0.366418	0.203251	0.000049
C31	C	0.460452	0.205041	0.000046
C32	C	0.518111	0.123818	0.000046
C33	C	0.481737	0.040806	0.000049
C34	C	0.496834	0.288052	0.000036
C35	C	0.590873	0.289845	0.000033
C36	C	0.648534	0.208622	0.000038
C37	C	0.612154	0.125606	0.000042
C38	C	0.669814	0.044384	0.000042
C39	C	0.633436	-0.038633	0.000051
C40	C	0.539398	-0.040417	0.000054
C41	C	0.742572	0.210406	0.000035
C42	C	0.763856	0.046171	0.000037
C43	C	1.229951	0.118337	0.000054
C44	C	1.330035	0.120241	0.000054
C45	C	1.058763	0.289530	0.000043
C46	C	1.060670	0.389613	0.000041
N47	N	1.065105	0.124702	0.178203
N48	N	1.065168	0.124716	-0.178108
C49	C	1.126336	0.063519	0.217594
C50	C	1.126341	0.063515	0.296396
C51	C	1.065124	0.124709	0.335803
C52	C	1.003881	0.185896	0.296403
C53	C	1.003872	0.185892	0.217602
C54	C	1.053417	0.206800	0.460639
C55	C	1.053433	0.206805	0.539438
C56	C	1.065148	0.124720	0.578850
C57	C	1.076867	0.042626	0.539453
C58	C	1.076857	0.042622	0.460653
C59	C	1.065127	0.124719	0.421249
C60	C	1.126388	0.063528	0.703687
C61	C	1.126387	0.063522	0.782490
C62	C	1.003932	0.185911	0.782495
C63	C	1.003928	0.185909	0.703694
C64	C	1.065161	0.124718	0.664294
H65	H	1.063538	-0.460582	-0.192012
C66	C	1.067113	-0.277046	-0.210456
C67	C	1.068915	-0.184638	-0.195845
C68	C	1.069944	-0.137438	-0.264006
H69	H	1.014325	-0.285522	-0.238580
H70	H	1.119392	-0.299231	-0.238476
H71	H	1.016642	-0.162460	-0.167837
H72	H	1.121700	-0.176135	-0.167732
H73	H	1.122222	-0.159622	-0.292025
H74	H	1.017154	-0.145920	-0.292125
H75	H	1.071175	-0.074735	-0.254102
H76	H	1.176246	0.013695	0.814563
C77	C	0.695892	-0.126913	0.000009
C78	C	0.643915	-0.199999	-0.000001
C79	C	0.701422	-0.281333	-0.000051
H80	H	0.733042	-0.129756	0.043648
H81	H	0.733002	-0.129671	-0.043670
H82	H	0.606821	-0.197243	0.043674
H83	H	0.606767	-0.197186	-0.043636
H84	H	0.738532	-0.284091	-0.043730
H85	H	0.738569	-0.284167	0.043589
H86	H	0.666164	-0.330932	-0.000065
H87	H	0.954072	0.235733	0.671619
C88	C	0.937459	0.252480	0.339086
C89	C	0.952164	0.341099	0.319889
C90	C	0.890978	0.402458	0.359185
H91	H	0.946168	0.243849	0.391671
H92	H	0.877263	0.242627	0.326168
H93	H	1.012345	0.350948	0.332812
H94	H	0.943447	0.349759	0.267311
H95	H	0.830782	0.392606	0.346266
H96	H	0.899693	0.393819	0.411767
H97	H	0.900941	0.462592	0.346159
C98	C	1.192755	-0.003027	0.660914
C99	C	1.178043	-0.091666	0.680041
C100	C	1.239154	-0.152985	0.640635
H101	H	1.252973	0.006760	0.673777
H102	H	1.183956	0.005709	0.608339
H103	H	1.186849	-0.100398	0.732603
H104	H	1.117837	-0.101481	0.667176
H105	H	1.230356	-0.144249	0.588061
H106	H	1.299369	-0.143190	0.653501
H107	H	1.229176	-0.213133	0.653602
C108	C	0.499726	-0.130451	0.000020
C109	C	0.405032	-0.114629	0.000000
C110	C	0.368452	-0.197545	-0.000044
H111	H	0.519402	-0.163973	0.043664
H112	H	0.519462	-0.163904	-0.043654
H113	H	0.385304	-0.081191	0.043669
H114	H	0.385331	-0.081122	-0.043641
H115	H	0.388188	-0.230998	-0.043718
H116	H	0.388134	-0.231060	0.043601
H117	H	0.304199	-0.186822	-0.000065
H118	H	0.954084	0.235733	0.814580
C119	C	0.781894	0.300619	0.000061
C120	C	0.711272	0.371367	0.000075
C121	C	0.747459	0.454488	0.000111
H122	H	0.818128	0.304857	-0.043584
H123	H	0.818105	0.304781	0.043734
H124	H	0.675076	0.367207	-0.043593
H125	H	0.675032	0.367159	0.043717
H126	H	0.783670	0.458650	0.043783
H127	H	0.783693	0.458716	-0.043535
H128	H	0.699548	0.502500	0.000127
C129	C	1.069466	-0.136102	0.142351
C130	C	0.992977	-0.072091	0.146332
C131	C	0.993645	-0.024983	0.214552
H132	H	1.122632	-0.106140	0.145260
H133	H	1.068621	-0.177533	0.183021
H134	H	0.993830	-0.030665	0.105673
H135	H	0.939798	-0.102028	0.143436
H136	H	0.992800	-0.066415	0.255223
H137	H	1.046814	0.004973	0.217456
H138	H	0.941744	0.018448	0.217266
H139	H	1.043896	0.273651	0.571508
C140	C	1.063263	-0.473545	0.210549
C141	C	1.061515	-0.565962	0.195944
C142	C	1.060620	-0.613173	0.264108
H143	H	1.011025	-0.451427	0.238628
H144	H	1.116094	-0.465009	0.238612
H145	H	1.008689	-0.574492	0.167894
H146	H	1.113749	-0.588106	0.167876
H147	H	1.113452	-0.604637	0.292171
H148	H	1.008382	-0.591047	0.292182
H149	H	1.059443	-0.675883	0.254208
C150	C	1.066782	-0.277159	0.210590
C151	C	0.990286	-0.213157	0.214567
C152	C	0.990950	-0.166039	0.282783
H153	H	1.119944	-0.247190	0.213495
H154	H	1.065944	-0.318586	0.251265
H155	H	0.991132	-0.171736	0.173904
H156	H	0.937112	-0.243103	0.211676
H157	H	0.990112	-0.207466	0.323457
H158	H	1.044115	-0.136075	0.285681
H159	H	0.939045	-0.122614	0.285493
H160	H	1.069438	-0.148905	-0.123762
C161	C	0.826562	-0.041947	-0.000081
C162	C	0.881186	-0.045707	-0.064483
C163	C	0.938968	-0.126861	-0.064613
H164	H	0.791540	-0.091714	-0.000114
H165	H	0.863742	-0.044672	0.043549
H166	H	0.844010	-0.042991	-0.108102
H167	H	0.916227	0.004041	-0.064464
H168	H	0.976149	-0.129586	-0.020983
H169	H	0.903939	-0.176622	-0.064644
H170	H	0.976043	-0.129420	-0.108305
C171	C	1.192848	-0.003023	0.174954
C172	C	1.246457	-0.056623	0.226325
C173	C	1.307727	-0.117941	0.187071
H174	H	1.230496	0.029368	0.144199
H175	H	1.160391	-0.040666	0.144243
H176	H	1.278911	-0.018985	0.257023
H177	H	1.208833	-0.089034	0.257082
H178	H	1.275270	-0.155583	0.156360
H179	H	1.345369	-0.085542	0.156317
H180	H	1.344102	-0.154320	0.221919
C181	C	0.303712	0.291360	-0.000069
C182	C	0.249094	0.295124	-0.064465
C183	C	0.191305	0.376275	-0.064593
H184	H	0.338730	0.341131	-0.000109
H185	H	0.266529	0.294076	0.043565
H186	H	0.286274	0.292417	-0.108088
H187	H	0.214057	0.245373	-0.064439
H188	H	0.154122	0.378991	-0.020959
H189	H	0.226331	0.426039	-0.064631
H190	H	0.154235	0.378836	-0.108281
H191	H	1.060828	-0.601662	0.123851
H192	H	1.043861	0.273649	0.428556
H193	H	1.060846	-0.601633	-0.123776
H194	H	0.358071	-0.028572	0.000064
H195	H	0.954009	0.235715	0.185529
H196	H	0.449881	0.354178	0.000028
H197	H	0.620483	0.357442	0.000026
H198	H	1.176204	0.013691	0.328474
C199	C	1.089661	-0.046597	0.582096
C200	C	1.099949	-0.118485	0.530729
C201	C	1.111759	-0.200685	0.569987
H202	H	1.038185	-0.051833	0.612851
H203	H	1.142184	-0.048361	0.612808
H204	H	1.047432	-0.116722	0.500030
H205	H	1.151425	-0.113279	0.499972
H206	H	1.164283	-0.202450	0.600699
H207	H	1.060282	-0.205913	0.600741
H208	H	1.118750	-0.249471	0.535141
H209	H	1.086396	-0.024221	0.428579
