data_functionalizedCrystal
_audit_creation_method	'MofGen! by Chris Wilmer'
_symmetry_space_group_name_H-M	'P1'
_symmetry_Int_Tables_number	1
_symmetry_cell_setting	triclinic
loop_
_symmetry_equiv_pos_as_xyz
  x,y,z
_cell_length_a	6.817900
_cell_length_b	10.773890
_cell_length_c	16.305550
_cell_angle_alpha	96.344786
_cell_angle_beta	103.455250
_cell_angle_gamma	96.645716
loop_
_atom_site_label
_atom_site_type_symbol
_atom_site_fract_x
_atom_site_fract_y
_atom_site_fract_z
V1	V	-3.991657	-0.173642	-0.261649
O2	O	-4.015287	0.007261	-0.258082
O3	O	-3.909321	-0.343261	-0.258499
O4	O	-3.943501	-0.171446	-0.376383
O5	O	-3.980871	-0.165743	-0.139382
V6	V	-4.479651	-0.151948	-0.247190
O7	O	-4.243109	-0.221230	-0.293365
O8	O	-4.678397	-0.104359	-0.215473
O9	O	-4.338781	0.017671	-0.250339
O10	O	-4.573418	-0.332850	-0.250757
O11	O	-4.607834	-0.159846	-0.369457
O12	O	-4.304601	-0.154143	-0.132455
C13	C	-3.746059	-0.384595	-0.254021
C14	C	-3.760028	-0.523264	-0.252210
C15	C	-3.789657	-0.165427	-0.404392
C16	C	-3.831343	-0.164754	-0.498180
C17	C	-3.938109	-0.591139	-0.255356
C18	C	-3.952551	-0.734460	-0.253485
C19	C	-3.982949	-0.162147	-0.838946
C20	C	-3.748443	-0.154407	-0.798079
C21	C	-3.705007	-0.155623	-0.700574
C22	C	-3.907734	-0.163440	-0.669888
C23	C	-4.050228	-0.286635	-0.719533
C24	C	-4.092230	-0.285939	-0.817088
C25	C	-4.060506	-0.047676	-0.794014
C26	C	-4.012771	-0.046701	-0.696179
C27	C	-3.865238	-0.164175	-0.574344
C28	C	-4.025453	-0.161421	-0.934491
C29	C	-4.165384	0.058999	-0.254816
C30	C	-4.130653	0.197667	-0.256631
C31	C	-4.121786	-0.160166	-0.104442
C32	C	-4.059340	-0.160833	-0.010654
H33	H	-3.810770	-0.782451	-0.249411
N34	N	-3.561025	-0.038246	-0.655050
H35	H	-3.432698	-0.062978	-0.619842
H36	H	-3.628996	0.012023	-0.616572
N37	N	-4.318479	-0.738786	-0.262042
H38	H	-4.281546	-0.645411	-0.262614
H39	H	-4.374964	-0.751954	-0.211121
N40	N	-4.021474	-0.400717	-0.856422
H41	H	-4.047992	-0.401414	-0.920059
H42	H	-4.098402	-0.479548	-0.844131
N43	N	-3.572220	-0.586820	-0.246806
H44	H	-3.609157	-0.680195	-0.246233
H45	H	-3.466105	-0.548998	-0.192840
H46	H	-4.231660	-0.052251	-0.820793
H47	H	-3.686970	-0.236649	-0.828936
N48	N	-4.125920	-0.527584	-0.260767
H49	H	-4.088983	-0.434209	-0.261339
H50	H	-4.182408	-0.540750	-0.209847
H51	H	-3.909875	0.044421	-0.662526
H52	H	-3.660032	-0.065411	-0.811151
N53	N	-3.594986	-0.265783	-0.678099
H54	H	-3.574567	-0.313749	-0.731567
H55	H	-3.678754	-0.323680	-0.650357
H56	H	-4.263914	-0.296743	-0.844994
N57	N	-4.250416	-0.300117	-0.694377
H58	H	-4.224223	-0.304471	-0.631267
H59	H	-4.339492	-0.379929	-0.727119
N60	N	-3.953952	-0.401462	-0.696353
H61	H	-3.818104	-0.373954	-0.653729
H62	H	-3.932932	-0.450642	-0.749276
N63	N	-3.964082	0.075974	-0.812704
H64	H	-3.869138	0.059035	-0.850493
H65	H	-3.884563	0.129271	-0.757520
N66	N	-4.208193	-0.044602	-0.667861
H67	H	-4.231526	-0.119640	-0.637461
H68	H	-4.325943	-0.048536	-0.719268
