data_functionalizedCrystal
_audit_creation_method	'MofGen! by Chris Wilmer'
_symmetry_space_group_name_H-M	'P1'
_symmetry_Int_Tables_number	1
_symmetry_cell_setting	triclinic
loop_
_symmetry_equiv_pos_as_xyz
  x,y,z
_cell_length_a	17.640112
_cell_length_b	25.639239
_cell_length_c	17.639041
_cell_angle_alpha	101.216308
_cell_angle_beta	87.857772
_cell_angle_gamma	101.263838
loop_
_atom_site_label
_atom_site_type_symbol
_atom_site_fract_x
_atom_site_fract_y
_atom_site_fract_z
Zn1	Zn	1.247751	-0.015062	0.195091
Zn2	Zn	1.747751	0.484938	0.695091
Zn3	Zn	1.221949	-0.122913	0.068102
Zn4	Zn	1.721949	0.377087	0.568102
Zn5	Zn	1.095080	-0.049054	0.093732
Zn6	Zn	1.595080	0.450946	0.593732
Zn7	Zn	1.120677	-0.116060	0.220693
Zn8	Zn	1.620677	0.383940	0.720693
O9	O	1.171364	-0.075772	0.144405
O10	O	1.671364	0.424228	0.644405
O11	O	1.350605	-0.018010	0.156806
O12	O	1.850605	0.481990	0.656806
O13	O	1.183609	-0.130209	-0.034777
O14	O	1.683609	0.369791	0.465223
O15	O	1.115417	0.028633	0.107189
O16	O	1.615417	0.528633	0.607189
O17	O	1.331648	-0.097248	0.063507
O18	O	1.831648	0.402752	0.563507
O19	O	1.227584	0.053607	0.181657
O20	O	1.727584	0.553607	0.681657
O21	O	1.090399	-0.075946	-0.015947
O22	O	1.590399	0.424054	0.484053
O23	O	0.992199	-0.069301	0.132014
O24	O	1.492199	0.430699	0.632014
O25	O	1.159044	-0.085568	0.323576
O26	O	1.659044	0.414432	0.823576
O27	O	1.011005	-0.118530	0.225292
O28	O	1.511005	0.381470	0.725292
O29	O	1.252405	-0.011365	0.304767
O30	O	1.752405	0.488635	0.804767
O31	O	1.208430	-0.195182	0.088332
O32	O	1.708430	0.304818	0.588332
O33	O	1.134025	-0.190147	0.200440
O34	O	1.634025	0.309853	0.700440
C35	C	0.974045	-0.096860	0.184213
C36	C	1.474045	0.403140	0.684213
C37	C	0.889635	-0.105892	0.201261
C38	C	1.389635	0.394108	0.701261
C39	C	0.563034	-0.007152	0.014899
C40	C	1.063034	0.492848	0.514899
C41	C	0.483720	-0.015647	0.030928
C42	C	0.983720	0.484353	0.530928
C43	C	0.503324	-0.067028	0.127891
C44	C	1.003324	0.432972	0.627891
C45	C	0.582641	-0.058535	0.111873
C46	C	1.082641	0.441465	0.611873
C47	C	0.612490	-0.028597	0.055375
C48	C	1.112490	0.471403	0.555375
C49	C	0.632097	-0.079980	0.152349
C50	C	1.132097	0.420020	0.652349
C51	C	0.711408	-0.071489	0.136328
C52	C	1.211408	0.428511	0.636328
C53	C	0.741262	-0.041554	0.079832
C54	C	1.241262	0.458446	0.579832
C55	C	0.691800	-0.020106	0.039355
C56	C	1.191800	0.479894	0.539355
C57	C	0.602246	-0.109921	0.208842
C58	C	1.102246	0.390079	0.708842
C59	C	0.651702	-0.131366	0.249318
C60	C	1.151702	0.368634	0.749318
C61	C	0.731015	-0.122872	0.233302
C62	C	1.231015	0.377128	0.733302
C63	C	0.760869	-0.092937	0.176805
C64	C	1.260869	0.407063	0.676805
C65	C	0.780476	-0.144320	0.273779
C66	C	1.280476	0.355680	0.773779
C67	C	0.859787	-0.135830	0.257758
C68	C	1.359787	0.364170	0.757758
C69	C	0.840180	-0.084447	0.160785
C70	C	1.340180	0.415553	0.660785
C71	C	1.171229	-0.211634	0.144396
C72	C	1.671229	0.288366	0.644396
C73	C	1.171246	-0.269745	0.144403
C74	C	1.671246	0.230255	0.644403
C75	C	1.210250	-0.632674	0.086087
C76	C	1.710250	-0.132674	0.586087
C77	C	1.210281	-0.687273	0.086092
C78	C	1.710281	-0.187273	0.586092
O79	O	1.243304	-0.717712	0.036498
O80	O	1.743304	-0.217712	0.536498
N81	N	1.171508	-0.711989	0.144428
N82	N	1.671508	-0.211989	0.644428
C83	C	1.132706	-0.682100	0.202769
C84	C	1.632706	-0.182100	0.702769
O85	O	1.099730	-0.708136	0.252389
O86	O	1.599730	-0.208136	0.752389
C87	C	1.132680	-0.627501	0.202767
C88	C	1.632680	-0.127501	0.702767
C89	C	1.171450	-0.602790	0.144422
C90	C	1.671450	-0.102790	0.644422
C91	C	1.249017	-0.607963	0.027748
C92	C	1.749017	-0.107963	0.527748
C93	C	1.248984	-0.553367	0.027743
C94	C	1.748984	-0.053367	0.527743
C95	C	1.210184	-0.523483	0.086078
C96	C	1.710184	-0.023483	0.586078
C97	C	1.171417	-0.548194	0.144417
C98	C	1.671417	-0.048194	0.644417
C99	C	1.093884	-0.597612	0.261110
C100	C	1.593884	-0.097612	0.761110
C101	C	1.093861	-0.543009	0.261103
C102	C	1.593861	-0.043009	0.761103
C103	C	1.132631	-0.518298	0.202758
C104	C	1.632631	-0.018298	0.702758
C105	C	1.132584	-0.463715	0.202747
C106	C	1.632584	0.036285	0.702747
N107	N	1.171358	-0.438999	0.144411
N108	N	1.671358	0.061001	0.644411
C109	C	1.210158	-0.468883	0.086076
C110	C	1.710158	0.031117	0.586076
C111	C	1.132766	-0.796763	0.202769
C112	C	1.632766	-0.296763	0.702769
C113	C	1.132787	-0.851362	0.202768
C114	C	1.632787	-0.351362	0.702768
C115	C	1.210364	-0.856532	0.086092
C116	C	1.710364	-0.356532	0.586092
C117	C	1.210337	-0.801932	0.086090
C118	C	1.710337	-0.301932	0.586090
C119	C	1.171540	-0.772047	0.144432
C120	C	1.671540	-0.272047	0.644432
C121	C	1.210085	-0.354229	0.086070
C122	C	1.710085	0.145771	0.586070
C123	C	1.210046	-0.299629	0.086069
C124	C	1.710046	0.200371	0.586069
C125	C	1.132474	-0.294464	0.202747
C126	C	1.632474	0.205536	0.702747
C127	C	1.132509	-0.349060	0.202746
C128	C	1.632509	0.150940	0.702746
C129	C	1.171321	-0.378941	0.144404
C130	C	1.671321	0.121059	0.644404
O131	O	1.099581	-0.433242	0.252317
O132	O	1.599581	0.066758	0.752317
O133	O	1.243137	-0.442839	0.036469
O134	O	1.743137	0.057161	0.536469
C135	C	1.369453	-0.054602	0.104442
C136	C	1.869453	0.445398	0.604442
C137	C	1.453867	-0.045580	0.087412
C138	C	1.953867	0.454420	0.587412
C139	C	1.211457	-0.043911	0.342499
C140	C	1.711457	0.456089	0.842499
C141	C	1.228543	-0.030333	0.426915
C142	C	1.728543	0.469667	0.926915
C143	C	1.171523	0.060625	0.144426
C144	C	1.671523	0.560625	0.644426
C145	C	1.171591	0.118750	0.144435
C146	C	1.671591	0.618750	0.644435
C147	C	1.301227	0.027434	0.536104
C148	C	1.801227	0.527434	1.036104
C149	C	1.285167	0.014671	0.456784
C150	C	1.785167	0.514671	0.956784
C151	C	1.187953	-0.062591	0.476362
C152	C	1.687953	0.437409	0.976362
C153	C	1.204002	-0.049833	0.555686
C154	C	1.704002	0.450167	1.055686
C155	C	1.260640	-0.004821	0.585551
C156	C	1.760640	0.495179	1.085551
C157	C	1.163415	-0.082088	0.605133
C158	C	1.663415	0.417912	1.105133
C159	C	1.179466	-0.069333	0.684449
C160	C	1.679466	0.430667	1.184449
C161	C	1.236104	-0.024323	0.714320
C162	C	1.736104	0.475677	1.214320
C163	C	1.276691	0.007935	0.664867
C164	C	1.776691	0.507935	1.164867
C165	C	1.106781	-0.127103	0.575266
C166	C	1.606781	0.372897	1.075266
C167	C	1.066195	-0.159358	0.624712
C168	C	1.566195	0.340642	1.124712
C169	C	1.082241	-0.146600	0.704031
C170	C	1.582241	0.353400	1.204031
C171	C	1.138879	-0.101590	0.733902
C172	C	1.638879	0.398410	1.233902
C173	C	1.041654	-0.178858	0.753484
C174	C	1.541654	0.321142	1.253484
C175	C	1.057704	-0.166103	0.832800
C176	C	1.557704	0.333897	1.332800
C177	C	1.154929	-0.088835	0.813218
C178	C	1.654929	0.411165	1.313218
C179	C	1.131423	-0.107519	0.947082
C180	C	1.631423	0.392481	1.447082
C181	C	1.114343	-0.121090	0.862665
C182	C	1.614343	0.378910	1.362665
H183	H	0.587341	0.017237	-0.031096
H184	H	1.087341	0.517237	0.468904
Cl185	Cl	1.083751	-0.380130	0.276082
Cl186	Cl	1.583751	0.119870	0.776082
Cl187	Cl	1.372400	0.084041	0.573661
Cl188	Cl	1.872400	0.584041	1.073661
H189	H	1.062269	-0.518679	0.308615
H190	H	1.562269	-0.018679	0.808615
Cl191	Cl	1.258876	-0.391785	0.012723
Cl192	Cl	1.758876	0.108215	0.512723
Cl193	Cl	1.297802	-0.645522	-0.045597
Cl194	Cl	1.797802	-0.145522	0.454403
H195	H	1.100880	-0.270124	0.250241
H196	H	1.600880	0.229876	0.750241
Cl197	Cl	1.045152	-0.628661	0.334469
Cl198	Cl	1.545152	-0.128661	0.834469
H199	H	0.900055	-0.153292	0.290719
H200	H	1.400055	0.346708	0.790719
Cl201	Cl	1.083979	-0.759200	0.276116
Cl202	Cl	1.583979	-0.259200	0.776116
Cl203	Cl	1.116753	-0.119176	0.438810
Cl204	Cl	1.616753	0.380824	0.938810
H205	H	1.201041	-0.052176	0.837537
H206	H	1.701041	0.447824	1.337537
H207	H	1.101209	-0.871479	0.250273
H208	H	1.601209	-0.371479	0.750273
H209	H	0.716107	0.004282	-0.006640
H210	H	1.216107	0.504282	0.493360
Cl211	Cl	1.256286	-0.008288	0.814033
Cl212	Cl	1.756286	0.491712	1.314033
H213	H	1.322803	0.044594	0.689186
H214	H	1.822803	0.544594	1.189186
Cl215	Cl	1.006680	-0.206651	0.894966
Cl216	Cl	1.506680	0.293349	1.394966
H217	H	1.318220	0.040941	0.416526
H218	H	1.818220	0.540941	0.916526
H219	H	1.093718	-0.137489	0.510680
H220	H	1.593718	0.362511	1.010680
H221	H	0.443456	0.001823	-0.002031
H222	H	0.943456	0.501823	0.497969
Cl223	Cl	0.465790	-0.104670	0.198905
Cl224	Cl	0.965790	0.395330	0.698905
Cl225	Cl	1.259140	-0.894111	0.012755
Cl226	Cl	1.759140	-0.394111	0.512755
H227	H	1.020082	-0.196008	0.600385
H228	H	1.520082	0.303992	1.100385
H229	H	0.756160	-0.168700	0.319774
H230	H	1.256160	0.331300	0.819774
H231	H	0.995544	-0.215510	0.729154
H232	H	1.495544	0.284490	1.229154
H233	H	0.805842	-0.034643	0.066787
H234	H	1.305842	0.465357	0.566787
Cl235	Cl	0.502538	-0.120602	0.228972
Cl236	Cl	1.002538	0.379398	0.728972
Cl237	Cl	0.614168	-0.169008	0.320332
Cl238	Cl	1.114168	0.330992	0.820332
Cl239	Cl	0.877711	-0.046805	0.089763
Cl240	Cl	1.377711	0.453195	0.589763
H241	H	1.280557	-0.533250	-0.019764
H242	H	1.780557	-0.033250	0.480236
Cl243	Cl	1.258790	-0.268567	0.012716
Cl244	Cl	1.758790	0.231433	0.512716
H245	H	1.241908	-0.781816	0.038581
H246	H	1.741908	-0.281816	0.538581
