data_functionalizedCrystal
_audit_creation_method	'MofGen! by Chris Wilmer'
_symmetry_space_group_name_H-M	'P1'
_symmetry_Int_Tables_number	1
_symmetry_cell_setting	triclinic
loop_
_symmetry_equiv_pos_as_xyz
  x,y,z
_cell_length_a	21.395362
_cell_length_b	12.827892
_cell_length_c	21.395355
_cell_angle_alpha	89.986671
_cell_angle_beta	89.956060
_cell_angle_gamma	90.031271
loop_
_atom_site_label
_atom_site_type_symbol
_atom_site_fract_x
_atom_site_fract_y
_atom_site_fract_z
Zn1	Zn	0.957926	-0.415711	-0.354608
Zn2	Zn	0.957857	-0.590438	-0.249840
Zn3	Zn	0.853141	-0.415760	-0.249809
Zn4	Zn	0.853138	-0.590459	-0.354545
O5	O	0.905516	-0.503092	-0.302201
O6	O	1.045595	-0.438860	-0.340750
O7	O	0.943938	-0.567278	-0.162158
O8	O	0.867071	-0.269517	-0.263725
O9	O	1.045544	-0.567231	-0.263777
O10	O	0.944056	-0.269482	-0.340720
O11	O	0.867004	-0.438943	-0.162136
O12	O	0.765463	-0.438963	-0.263664
O13	O	0.867067	-0.567267	-0.442231
O14	O	0.765461	-0.567314	-0.340612
O15	O	0.944054	-0.438881	-0.442278
O16	O	0.943935	-0.736677	-0.263716
O17	O	0.866999	-0.736692	-0.340642
C18	C	0.742728	-0.503147	-0.302128
C19	C	0.673087	-0.503196	-0.302112
C20	C	0.905476	-0.774602	-0.302189
C21	C	0.905517	-0.890755	-0.302205
C22	C	0.640389	-0.570117	-0.342119
C23	C	0.574953	-0.570091	-0.342147
C24	C	0.542218	-0.503156	-0.302156
C25	C	0.574924	-0.436222	-0.262146
C26	C	0.640358	-0.436242	-0.262124
C27	C	0.438492	-0.494737	-0.245751
C28	C	0.373059	-0.494724	-0.245772
C29	C	0.340398	-0.503088	-0.302226
C30	C	0.373177	-0.511486	-0.358660
C31	C	0.438611	-0.511506	-0.358637
C32	C	0.471266	-0.503126	-0.302176
C33	C	0.236747	-0.569984	-0.342266
C34	C	0.171311	-0.569951	-0.342295
C35	C	0.171283	-0.436087	-0.262289
C36	C	0.236718	-0.436115	-0.262266
C37	C	0.269446	-0.503069	-0.302254
C38	C	0.943595	-0.942439	-0.340339
C39	C	0.943637	-1.062489	-0.340356
C40	C	1.068939	-0.503037	-0.302274
C41	C	1.138580	-0.503014	-0.302305
C42	C	0.905568	-0.503071	-0.465624
C43	C	0.905590	-0.503062	-0.535265
C44	C	0.905572	-0.230522	-0.302226
C45	C	0.905596	-0.114369	-0.302237
C46	C	0.945675	-0.436208	-0.568004
C47	C	0.945674	-0.436163	-0.633439
C48	C	0.905595	-0.502991	-0.666134
C49	C	0.865501	-0.569849	-0.633388
C50	C	0.865499	-0.569885	-0.567953
C51	C	0.900634	-0.597087	-0.769803
C52	C	0.900641	-0.597053	-0.835236
C53	C	0.905598	-0.502880	-0.867955
C54	C	0.910563	-0.408738	-0.835232
C55	C	0.910560	-0.408774	-0.769798
C56	C	0.905592	-0.502959	-0.737086
C57	C	0.945685	-0.435972	-0.971646
C58	C	0.945680	-0.435925	-1.037082
C59	C	0.865510	-0.569621	-1.037029
C60	C	0.865512	-0.569658	-0.971594
C61	C	0.905603	-0.502835	-0.938906
C62	C	0.905500	-0.503038	-0.139413
C63	C	0.905599	-0.502752	-0.069772
H64	H	0.667032	-0.624635	-0.374681
F65	F	0.986159	-0.884112	-0.383003
H66	H	0.832854	-0.624324	-0.541298
F67	F	0.136511	-0.641176	-0.384882
F68	F	0.862943	-0.949082	-0.259550
F69	F	0.986253	-1.120581	-0.383028
F70	F	0.988341	-0.365084	-0.533218
F71	F	0.988330	-0.364988	-0.668289
H72	H	0.872997	-1.069929	-0.269585
F73	F	0.271519	-0.364890	-0.219683
H74	H	0.914601	-0.332121	-0.743159
F75	F	0.540147	-0.641320	-0.384730
H76	H	0.465297	-0.518341	-0.404588
H77	H	0.914601	-0.332054	-0.861871
H78	H	0.263396	-0.624497	-0.374830
H79	H	0.346375	-0.487893	-0.199820
F80	F	0.473247	-0.485838	-0.185661
H81	H	0.144630	-0.381582	-0.229731
F82	F	0.540084	-0.364980	-0.219588
F83	F	0.988350	-0.364850	-0.936854
H84	H	0.978321	-0.381479	-1.063737
H85	H	0.832870	-0.624022	-1.063649
H86	H	0.896602	-0.673709	-0.861873
F87	F	0.675159	-0.365012	-0.219541
F88	F	0.822849	-0.640818	-0.936750
F89	F	0.895371	-0.697327	-0.734987
F90	F	0.822844	-0.640968	-0.668184
H91	H	0.346585	-0.518294	-0.404630
