data_functionalizedCrystal
_audit_creation_method	'MofGen! by Chris Wilmer'
_symmetry_space_group_name_H-M	'P1'
_symmetry_Int_Tables_number	1
_symmetry_cell_setting	triclinic
loop_
_symmetry_equiv_pos_as_xyz
  x,y,z
_cell_length_a	12.827893
_cell_length_b	25.639239
_cell_length_c	12.827885
_cell_angle_alpha	89.964018
_cell_angle_beta	89.980728
_cell_angle_gamma	90.038847
loop_
_atom_site_label
_atom_site_type_symbol
_atom_site_fract_x
_atom_site_fract_y
_atom_site_fract_z
Zn1	Zn	1.597500	-0.208123	-0.590804
Zn2	Zn	1.597324	-0.295568	-0.416045
Zn3	Zn	1.422742	-0.208149	-0.416077
Zn4	Zn	1.422656	-0.295530	-0.590745
O5	O	1.510055	-0.251843	-0.503418
O6	O	1.743713	-0.219728	-0.567633
O7	O	1.574127	-0.283999	-0.269813
O8	O	1.446034	-0.134980	-0.439293
O9	O	1.743583	-0.283974	-0.439238
O10	O	1.574428	-0.134961	-0.567664
O11	O	1.445862	-0.219772	-0.269837
O12	O	1.276494	-0.219735	-0.439236
O13	O	1.445888	-0.283908	-0.736989
O14	O	1.276431	-0.283933	-0.567564
O15	O	1.574345	-0.219691	-0.737032
O16	O	1.574044	-0.368728	-0.439181
O17	O	1.445716	-0.368700	-0.567533
C18	C	1.238546	-0.251833	-0.503398
C19	C	1.122392	-0.251841	-0.503414
C20	C	1.070672	-0.220107	-0.567047
C21	C	0.950621	-0.220115	-0.567065
C22	C	1.509880	-0.387685	-0.503370
C23	C	1.509900	-0.445799	-0.503384
C24	C	1.577050	-0.806164	-0.436699
C25	C	1.577090	-0.860769	-0.436713
O26	O	1.634001	-0.889007	-0.379962
N27	N	1.510239	-0.888082	-0.503487
C28	C	1.443350	-0.860787	-0.570259
O29	O	1.386493	-0.889033	-0.627057
C30	C	1.443316	-0.806184	-0.570249
C31	C	1.510164	-0.778874	-0.503463
C32	C	1.643893	-0.778854	-0.369920
C33	C	1.643851	-0.724254	-0.369904
C34	C	1.576966	-0.696963	-0.436669
C35	C	1.510122	-0.724273	-0.503448
C36	C	1.376433	-0.778891	-0.637026
C37	C	1.376405	-0.724284	-0.637011
C38	C	1.443253	-0.696974	-0.570225
C39	C	1.443194	-0.642383	-0.570198
N40	N	1.510045	-0.615070	-0.503424
C41	C	1.576931	-0.642360	-0.436659
C42	C	1.443429	-0.975458	-0.570275
C43	C	1.443458	-1.030060	-0.570280
C44	C	1.577199	-1.030038	-0.436735
C45	C	1.577165	-0.975435	-0.436726
C46	C	1.510281	-0.948145	-0.503501
C47	C	1.576837	-0.527695	-0.436632
C48	C	1.576786	-0.473090	-0.436620
C49	C	1.443049	-0.473117	-0.570168
C50	C	1.443095	-0.527717	-0.570177
C51	C	1.509998	-0.555005	-0.503405
O52	O	1.386315	-0.614109	-0.626923
O53	O	1.633789	-0.614108	-0.379880
C54	C	1.782626	-0.251853	-0.503438
C55	C	1.898779	-0.251857	-0.503447
C56	C	1.510127	-0.251792	-0.775988
C57	C	1.510157	-0.251771	-0.892141
C58	C	1.510260	-0.115470	-0.503489
C59	C	1.510348	-0.057355	-0.503519
C60	C	1.573729	-0.219988	-0.943947
C61	C	1.573761	-0.219965	-1.063998
C62	C	1.510045	-0.251855	-0.231908
C63	C	1.510217	-0.251729	-0.115755
H64	H	1.077796	-0.279015	-0.448947
C65	C	1.646162	-0.183614	-1.123446
C66	C	1.586999	-0.150109	-1.186101
C67	C	1.653658	-0.116609	-1.240870
H68	H	1.691660	-0.203565	-1.166105
H69	H	1.686004	-0.163658	-1.075432
H70	H	1.547175	-0.170062	-1.234109
H71	H	1.541502	-0.130146	-1.143469
H72	H	1.693500	-0.096653	-1.192856
H73	H	1.699154	-0.136563	-1.283522
H74	H	1.613526	-0.093868	-1.283380
C75	C	1.716718	-0.808485	-0.297636
C76	C	1.783714	-0.839746	-0.356907
C77	C	1.850854	-0.867030	-0.290363
H78	H	1.676977	-0.829877	-0.252009
H79	H	1.756575	-0.784392	-0.257926
H80	H	1.743861	-0.863836	-0.396599
H81	H	1.823478	-0.818367	-0.402531
H82	H	1.890711	-0.842937	-0.250653
H83	H	1.811104	-0.888419	-0.244739
H84	H	1.896324	-0.888240	-0.330569
C85	C	1.649430	-0.443372	-0.364277
C86	C	1.716338	-0.411956	-0.423493
C87	C	1.783260	-0.384570	-0.356890
H88	H	1.689371	-0.467389	-0.324496
H89	H	1.609494	-0.422080	-0.318717
H90	H	1.756270	-0.433246	-0.469035
H91	H	1.676426	-0.387930	-0.463272
H92	H	1.743324	-0.363278	-0.311330
H93	H	1.823194	-0.408590	-0.317113
H94	H	1.828659	-0.363247	-0.397058
C95	C	1.371041	-1.059774	-0.642845
C96	C	1.430192	-1.091074	-0.709874
C97	C	1.363519	-1.118456	-0.776734
H98	H	1.331180	-1.035755	-0.682701
H99	H	1.325558	-1.081144	-0.602869
H100	H	1.475656	-1.069705	-0.749846
H101	H	1.470050	-1.115102	-0.670047
H102	H	1.318037	-1.139826	-0.736757
H103	H	1.323662	-1.094434	-0.816582
H104	H	1.403643	-1.139700	-0.822214
H105	H	1.631318	-0.549906	-0.382263
H106	H	1.388665	-0.549954	-0.624562
C107	C	1.370734	-0.945765	-0.642599
C108	C	1.303779	-0.914464	-0.583368
C109	C	1.236810	-0.887102	-0.649957
H110	H	1.330829	-0.969796	-0.682386
H111	H	1.410634	-0.924398	-0.688153
H112	H	1.263883	-0.935829	-0.537832
H113	H	1.343655	-0.890423	-0.543582
H114	H	1.276710	-0.865734	-0.695511
H115	H	1.196912	-0.911136	-0.689741
H116	H	1.191380	-0.865857	-0.609779
H117	H	1.698288	-0.702021	-0.315525
C118	C	0.891378	-0.183951	-0.639886
C119	C	0.917873	-0.195392	-0.743260
C120	C	0.863307	-0.162093	-0.810374
H121	H	0.909199	-0.148784	-0.624872
H122	H	0.818563	-0.188777	-0.630315
H123	H	0.990672	-0.190563	-0.752827
H124	H	0.900050	-0.230553	-0.758307
H125	H	0.790491	-0.166918	-0.800803
H126	H	0.881131	-0.126928	-0.795351
H127	H	0.881268	-0.169854	-0.880521
C128	C	0.958204	-0.288118	-0.430969
C129	C	1.020876	-0.321624	-0.490065
C130	C	1.075652	-0.355030	-0.423334
H131	H	0.910225	-0.308083	-0.391034
H132	H	1.000844	-0.268083	-0.385558
H133	H	0.978239	-0.341657	-0.535457
H134	H	1.068874	-0.301673	-0.529998
H135	H	1.118292	-0.334995	-0.377924
H136	H	1.027666	-0.374991	-0.383403
H137	H	1.118188	-0.377764	-0.463421
H138	H	1.631599	-0.953202	-0.382344
H139	H	1.628127	-0.192793	-0.899424
C140	C	1.130068	-0.183784	-0.639550
C141	C	1.103658	-0.132028	-0.616999
C142	C	1.158359	-0.098552	-0.683763
H143	H	1.112300	-0.191403	-0.709791
H144	H	1.202864	-0.188559	-0.629879
H145	H	1.030879	-0.127256	-0.626679
H146	H	1.121428	-0.124392	-0.546770
H147	H	1.231155	-0.103327	-0.674092
H148	H	1.140587	-0.106177	-0.754000
H149	H	1.140455	-0.063432	-0.668465
C150	C	1.650036	-1.059585	-0.364316
C151	C	1.753385	-1.046208	-0.387187
C152	C	1.820522	-1.073402	-0.320492
H153	H	1.640661	-1.096028	-0.373801
H154	H	1.634855	-1.050656	-0.294066
H155	H	1.768561	-1.055141	-0.457419
H156	H	1.762792	-1.009770	-0.377695
H157	H	1.805341	-1.064473	-0.250243
H158	H	1.811138	-1.109843	-0.329983
H159	H	1.890651	-1.064326	-0.335995
C160	C	1.303674	-0.694750	-0.709555
C161	C	1.245130	-0.730359	-0.768022
C162	C	1.178111	-0.703174	-0.834850
H163	H	1.343496	-0.673411	-0.755209
H164	H	1.258085	-0.673499	-0.669566
H165	H	1.290713	-0.751602	-0.808009
H166	H	1.205287	-0.751700	-0.722397
H167	H	1.132522	-0.681922	-0.794861
H168	H	1.217941	-0.681835	-0.880496
H169	H	1.138374	-0.727330	-0.874521
H170	H	1.321993	-0.801117	-0.691405
C171	C	1.370549	-0.443386	-0.642616
C172	C	1.384852	-0.389723	-0.628323
C173	C	1.318100	-0.362318	-0.695060
H174	H	1.300304	-0.452310	-0.627338
H175	H	1.385828	-0.452269	-0.712867
H176	H	1.369567	-0.380844	-0.558088
H177	H	1.455084	-0.380784	-0.643608
H178	H	1.333379	-0.371201	-0.765312
H179	H	1.247859	-0.371246	-0.679777
H180	H	1.327802	-0.325905	-0.685379
H181	H	1.455748	-0.278961	-0.936665
H182	H	1.455792	-0.278943	-1.071210
