data_functionalizedCrystal
_audit_creation_method	'MofGen! by Chris Wilmer'
_symmetry_space_group_name_H-M	'P1'
_symmetry_Int_Tables_number	1
_symmetry_cell_setting	triclinic
loop_
_symmetry_equiv_pos_as_xyz
  x,y,z
_cell_length_a	19.077312
_cell_length_b	29.839131
_cell_length_c	19.076919
_cell_angle_alpha	87.739939
_cell_angle_beta	85.331053
_cell_angle_gamma	87.741726
loop_
_atom_site_label
_atom_site_type_symbol
_atom_site_fract_x
_atom_site_fract_y
_atom_site_fract_z
Zn1	Zn	1.061590	-0.215151	0.355208
Zn2	Zn	1.066224	-0.287374	0.237306
Zn3	Zn	0.948449	-0.209366	0.242077
Zn4	Zn	0.943656	-0.287355	0.359889
O5	O	1.004980	-0.249811	0.298620
O6	O	1.160850	-0.227160	0.335612
O7	O	1.054546	-0.274612	0.139292
O8	O	0.963524	-0.147268	0.257122
O9	O	1.164254	-0.280222	0.248990
O10	O	1.046648	-0.151519	0.340238
O11	O	0.968018	-0.217300	0.142797
O12	O	0.849168	-0.217282	0.261661
O13	O	0.955354	-0.280190	0.457915
O14	O	0.845646	-0.274581	0.348217
O15	O	1.042000	-0.227142	0.454476
O16	O	1.049898	-0.350236	0.253529
O17	O	0.959848	-0.350222	0.343591
C18	C	0.821829	-0.245302	0.305965
C19	C	0.743476	-0.243384	0.309124
C20	C	0.302240	-0.229593	0.331787
C21	C	0.375861	-0.231403	0.328815
C22	C	0.414439	-0.259886	0.282157
C23	C	0.379391	-0.286563	0.238473
C24	C	0.305771	-0.284755	0.241449
C25	C	0.634808	-0.268253	0.268416
C26	C	0.708434	-0.270059	0.265441
C27	C	0.704899	-0.214899	0.355785
C28	C	0.631278	-0.213091	0.358754
C29	C	0.596236	-0.239770	0.315073
N30	N	0.489691	-0.261736	0.279116
N31	N	0.520985	-0.237922	0.318117
C32	C	1.004874	-0.366530	0.298565
C33	C	1.004893	-0.416465	0.298562
C34	C	1.048250	-0.728291	0.341963
C35	C	1.048325	-0.915967	0.342003
O36	O	1.085085	-0.942085	0.378864
N37	N	1.005096	-0.937258	0.298693
C38	C	0.961842	-0.911627	0.255375
O39	O	0.925070	-0.934043	0.218543
C40	C	0.961764	-0.723952	0.255339
C41	C	1.005001	-0.702664	0.298646
C42	C	1.091482	-0.707003	0.385267
C43	C	1.091466	-0.660086	0.385254
C44	C	1.048217	-0.634459	0.341937
C45	C	1.004985	-0.655747	0.298633
C46	C	0.918508	-0.698322	0.212025
C47	C	0.918491	-0.651400	0.212021
C48	C	0.961727	-0.630112	0.255328
C49	C	0.961720	-0.583204	0.255303
N50	N	1.004948	-0.561913	0.298613
C51	C	1.048197	-0.587540	0.341930
C52	C	0.961887	-1.010159	0.255395
C53	C	0.961908	-1.057078	0.255403
C54	C	1.048389	-1.061415	0.342032
C55	C	1.048372	-1.014495	0.342020
C56	C	1.005116	-0.988868	0.298704
C57	C	1.048160	-0.489013	0.341898
C58	C	1.048142	-0.442092	0.341879
C59	C	0.961658	-0.437759	0.255253
C60	C	0.961678	-0.484676	0.255269
C61	C	1.004931	-0.510302	0.298597
O62	O	0.924973	-0.557058	0.218467
O63	O	1.084952	-0.565116	0.378767
C64	C	1.048266	-0.775207	0.341977
C65	C	1.005034	-0.796496	0.298673
C66	C	0.961785	-0.770868	0.255355
C67	C	1.005054	-0.843415	0.298680
C68	C	1.048303	-0.869042	0.341997
C69	C	1.091531	-0.847751	0.385307
C70	C	1.091515	-0.800835	0.385294
C71	C	0.918556	-0.792159	0.212046
C72	C	0.918577	-0.839076	0.212062
C73	C	0.961826	-0.864703	0.255379
C74	C	1.188845	-0.254338	0.291247
C75	C	1.267197	-0.256268	0.288105
C76	C	0.997625	-0.254309	0.482489
C77	C	0.994492	-0.256226	0.560842
C78	C	1.005104	-0.132638	0.298690
C79	C	1.005157	-0.082705	0.298720
C80	C	1.012346	-0.245299	0.115465
C81	C	1.015616	-0.243259	0.037106
C82	C	1.038129	-0.229509	0.595864
C83	C	1.035176	-0.231308	0.669486
C84	C	0.988588	-0.259827	0.708085
C85	C	0.944946	-0.286546	0.673059
C86	C	0.947896	-0.284744	0.599438
C87	C	0.974924	-0.268176	0.928459
C88	C	0.971979	-0.269977	1.002085
C89	C	1.062208	-0.214738	0.998507
C90	C	1.065157	-0.212940	0.924885
C91	C	1.021512	-0.239657	0.889865
N92	N	0.985570	-0.261668	0.783339
N93	N	1.024527	-0.237814	0.814613
H94	H	0.606287	-0.289976	0.232845
H95	H	1.126722	-0.783505	0.420558
H96	H	1.126671	-0.642756	0.420521
Br97	Br	0.249892	-0.190933	0.395107
Br98	Br	0.881715	-0.325249	0.725443
H99	H	0.733438	-0.193179	0.391349
Br100	Br	0.902967	-0.402970	0.196467
H101	H	1.126700	-0.727864	0.420546
H102	H	0.739841	-0.293254	0.227445
Br103	Br	0.431744	-0.325222	0.175155
H104	H	1.083376	-0.509872	0.377185
Br105	Br	0.423417	-0.195205	0.388107
Br106	Br	0.258211	-0.320963	0.182172
H107	H	1.070711	-0.209553	0.697997
H108	H	1.083353	-0.424761	0.377145
Br109	Br	1.150229	-0.882541	0.444090
H110	H	0.912355	-0.306496	0.570925
Br111	Br	0.903011	-0.513568	0.196484
Br112	Br	1.128387	-0.174235	0.872505
H113	H	0.599873	-0.189900	0.396751
Br114	Br	1.107052	-0.985609	0.400796
Br115	Br	0.859850	-0.757386	0.153258
Br116	Br	1.107084	-1.096204	0.400819
H117	H	1.076067	-0.206287	0.564441
Br118	Br	0.908747	-0.308682	1.054470
Br119	Br	0.903240	-1.085963	0.196614
H120	H	0.926662	-0.989297	0.220120
Br121	Br	0.859781	-0.616623	0.153233
H122	H	0.883300	-0.715647	0.176759
H123	H	0.883370	-0.856404	0.176790
H124	H	1.097740	-0.192986	1.027028
H125	H	0.939396	-0.289937	0.899955
