data_functionalizedCrystal
_audit_creation_method	'MofGen! by Chris Wilmer'
_symmetry_space_group_name_H-M	'P1'
_symmetry_Int_Tables_number	1
_symmetry_cell_setting	triclinic
loop_
_symmetry_equiv_pos_as_xyz
  x,y,z
_cell_length_a	13.897448
_cell_length_b	12.759395
_cell_length_c	12.759387
_cell_angle_alpha	90.022274
_cell_angle_beta	89.967288
_cell_angle_gamma	89.981744
loop_
_atom_site_label
_atom_site_type_symbol
_atom_site_fract_x
_atom_site_fract_y
_atom_site_fract_z
Zn1	Zn	-0.383950	-1.606247	-0.594041
Zn2	Zn	-0.545277	-1.606128	-0.418355
Zn3	Zn	-0.383999	-1.430545	-0.418372
Zn4	Zn	-0.545206	-1.430528	-0.593989
O5	O	-0.464608	-1.518362	-0.506189
O6	O	-0.405359	-1.753252	-0.570750
O7	O	-0.523934	-1.582794	-0.271336
O8	O	-0.249011	-1.453909	-0.441704
O9	O	-0.523886	-1.753165	-0.441675
O10	O	-0.248974	-1.582996	-0.570767
O11	O	-0.405444	-1.453794	-0.271349
O12	O	-0.405375	-1.283522	-0.441653
O13	O	-0.523764	-1.453880	-0.741017
O14	O	-0.523812	-1.283509	-0.570678
O15	O	-0.405290	-1.582980	-0.741055
O16	O	-0.680249	-1.582778	-0.441625
O17	O	-0.680197	-1.453765	-0.570662
C18	C	-0.464592	-1.245395	-0.506163
C19	C	-0.464608	-1.128618	-0.506176
C20	C	-0.715222	-1.518285	-0.506159
C21	C	-0.822436	-1.518349	-0.506181
C22	C	-0.588137	-1.128644	-0.640313
C23	C	-0.649908	-1.073796	-0.707382
C24	C	-0.649918	-0.964074	-0.707392
C25	C	-0.588148	-0.909198	-0.640327
C26	C	-0.526377	-0.964046	-0.573257
C27	C	-0.526376	-1.073770	-0.573253
C28	C	-0.402845	-0.964020	-0.439128
C29	C	-0.402839	-1.073742	-0.439111
C30	C	-0.341075	-0.909144	-0.372063
C31	C	-0.279308	-0.963992	-0.304986
C32	C	-0.279301	-1.073720	-0.304979
C33	C	-0.341068	-1.128590	-0.372042
C34	C	-1.018731	-1.518459	-0.506247
C35	C	-0.909499	-1.518395	-0.506213
C36	C	-0.213015	-1.518468	-0.506243
C37	C	-0.105801	-1.518513	-0.506266
C38	C	-0.464513	-1.518441	-0.780223
C39	C	-0.464473	-1.518475	-0.897000
C40	C	-0.464621	-0.792395	-0.506209
C41	C	-0.464616	-0.909172	-0.506197
C42	C	-0.341114	-1.652916	-0.897059
C43	C	-0.279420	-1.720151	-0.951949
C44	C	-0.279385	-1.720176	-1.061671
C45	C	-0.341048	-1.652958	-1.116505
C46	C	-0.402742	-1.585723	-1.061614
C47	C	-0.402773	-1.585707	-0.951890
C48	C	-0.526095	-1.451278	-1.061555
C49	C	-0.526137	-1.451256	-0.951833
C50	C	-0.587759	-1.384059	-1.116389
C51	C	-0.649459	-1.316828	-1.061498
C52	C	-0.649492	-1.316806	-0.951770
C53	C	-0.587831	-1.384021	-0.896943
C54	C	-0.464633	-1.518344	-0.233222
C55	C	-0.464401	-1.518513	-0.116445
H56	H	-0.588142	-1.217985	-0.640304
H57	H	-0.699721	-1.262044	-0.907084
O58	O	-0.219619	-1.785417	-0.898521
C59	C	-0.232861	-1.770967	-0.789907
H60	H	-0.307297	-1.736508	-0.774896
H61	H	-0.175642	-1.715050	-0.758770
C62	C	-0.132642	-1.919589	-0.752038
C63	C	-0.224069	-1.877274	-0.733601
H64	H	-0.127215	-1.985163	-0.717304
H65	H	-0.123717	-1.929322	-0.825213
H66	H	-0.084970	-1.872982	-0.726091
H67	H	-0.271739	-1.923875	-0.759560
H68	H	-0.233002	-1.867551	-0.660428
O69	O	-0.587903	-1.384087	-1.222972
C70	C	-0.680339	-1.411050	-1.259605
H71	H	-0.735913	-1.393054	-1.196354
H72	H	-0.682394	-1.498228	-1.279085
C73	C	-0.635207	-1.369154	-1.436431
C74	C	-0.703464	-1.347042	-1.358749
H75	H	-0.649471	-1.329675	-1.497591
H76	H	-0.572930	-1.350992	-1.411753
H77	H	-0.636926	-1.441803	-1.452653
H78	H	-0.701735	-1.274397	-1.342520
H79	H	-0.765742	-1.365190	-1.383428
O80	O	-0.340931	-0.802561	-0.372164
C81	C	-0.248515	-0.765933	-0.399309
H82	H	-0.208685	-0.829191	-0.445192
H83	H	-0.206640	-0.746443	-0.325013
C84	C	-0.306853	-0.589107	-0.410987
C85	C	-0.257937	-0.666798	-0.467349
H86	H	-0.312664	-0.527954	-0.452953
H87	H	-0.369115	-0.613783	-0.392695
H88	H	-0.271951	-0.572878	-0.349077
H89	H	-0.292846	-0.683036	-0.529250
H90	H	-0.195681	-0.642123	-0.485653
O91	O	-0.219322	-1.785435	-1.114882
C92	C	-0.123187	-1.762502	-1.088118
H93	H	-0.121200	-1.722103	-1.008444
H94	H	-0.090676	-1.708513	-1.149870
C95	C	-0.067214	-1.914573	-1.180950
C96	C	-0.064774	-1.864962	-1.083089
H97	H	-0.031180	-1.977774	-1.177852
H98	H	-0.131982	-1.930022	-1.198985
H99	H	-0.040124	-1.869572	-1.232400
H100	H	-0.091875	-1.909958	-1.031644
H101	H	-0.000009	-1.849524	-1.065045
H102	H	-0.588154	-0.819857	-0.640349
O103	O	-0.709486	-1.251590	-1.114646
C104	C	-0.805638	-1.274516	-1.087846
H105	H	-0.807675	-1.314888	-1.008188
H106	H	-0.838108	-1.328526	-1.149606
C107	C	-0.861555	-1.122478	-1.180583
C108	C	-0.864057	-1.172056	-1.082742
H109	H	-0.897592	-1.059277	-1.177439
H110	H	-0.796776	-1.107033	-1.198643
H111	H	-0.888611	-1.167497	-1.232039
H112	H	-0.836989	-1.127042	-1.031290
H113	H	-0.928833	-1.187490	-1.064673
H114	H	-0.700198	-1.118488	-0.761987
H115	H	-0.700213	-0.919417	-0.762011
O116	O	-0.219267	-1.126834	-0.239724
C117	C	-0.164738	-1.054866	-0.180559
H118	H	-0.204247	-0.976639	-0.176855
H119	H	-0.091525	-1.043239	-0.219181
C120	C	-0.102179	-1.193711	-0.073312
C121	C	-0.150708	-1.097633	-0.068755
H122	H	-0.093519	-1.220092	-0.004348
H123	H	-0.138912	-1.242198	-0.113175
H124	H	-0.041173	-1.184008	-0.105502
H125	H	-0.211717	-1.107339	-0.036579
H126	H	-0.113984	-1.049149	-0.028885
H127	H	-0.341071	-1.217931	-0.372039
H128	H	-0.229015	-0.919303	-0.250393
H129	H	-0.341145	-1.652912	-0.807718
H130	H	-0.587856	-1.384014	-0.807602
H131	H	-0.341006	-1.652975	-1.205846
