data_functionalizedCrystal
_audit_creation_method	'MofGen! by Chris Wilmer'
_symmetry_space_group_name_H-M	'P1'
_symmetry_Int_Tables_number	1
_symmetry_cell_setting	triclinic
loop_
_symmetry_equiv_pos_as_xyz
  x,y,z
_cell_length_a	8.559649
_cell_length_b	27.731996
_cell_length_c	7.681481
_cell_angle_alpha	95.699002
_cell_angle_beta	85.087270
_cell_angle_gamma	76.200026
loop_
_atom_site_label
_atom_site_type_symbol
_atom_site_fract_x
_atom_site_fract_y
_atom_site_fract_z
O1	O	2.105307	-0.011272	0.146417
O2	O	1.639469	0.013715	0.146432
O3	O	1.886903	-0.069684	0.146386
O4	O	1.857872	0.072128	0.146463
O5	O	1.917359	-0.079970	-0.146477
O6	O	1.669924	0.003430	-0.146432
O7	O	2.135762	-0.021558	-0.146446
Zn8	Zn	1.907679	-0.010697	-0.192937
Zn9	Zn	1.867552	0.002855	0.192923
O10	O	1.888328	0.061842	-0.146400
C11	C	1.595119	0.010466	0.000002
C12	C	1.417595	0.016103	0.000005
C13	C	1.901535	-0.092814	-0.000052
C14	C	1.899741	-0.146408	-0.000070
C15	C	1.871833	-0.473121	0.159657
C16	C	1.865011	-0.674540	0.159688
O17	O	1.849941	-0.695809	0.295456
N18	N	1.880765	-0.705334	0.000049
C19	C	1.898215	-0.685770	-0.159608
O20	O	1.911442	-0.716583	-0.295389
C21	C	1.905026	-0.484351	-0.159637
C22	C	1.889287	-0.453560	0.000011
C23	C	1.856093	-0.442330	0.319292
C24	C	1.857808	-0.391979	0.319283
C25	C	1.875262	-0.372418	0.159638
C26	C	1.891001	-0.403209	0.000002
C27	C	1.922465	-0.464787	-0.319293
C28	C	1.924162	-0.414428	-0.319286
C29	C	1.908423	-0.383637	-0.159637
C30	C	1.910170	-0.333297	-0.159653
N31	N	1.894415	-0.302503	-0.000014
C32	C	1.876962	-0.322064	0.159631
C33	C	1.894642	-0.791518	-0.159581
C34	C	1.892942	-0.841873	-0.159574
C35	C	1.859734	-0.830639	0.159722
C36	C	1.861446	-0.780284	0.159713
C37	C	1.878887	-0.760724	0.000057
C38	C	1.880565	-0.216323	0.159599
C39	C	1.882287	-0.165969	0.159575
C40	C	1.915486	-0.177206	-0.159720
C41	C	1.913772	-0.227557	-0.159697
C42	C	1.896305	-0.247114	-0.000024
O43	O	1.925215	-0.311993	-0.295350
O44	O	1.863701	-0.291240	0.295392
C45	C	1.870118	-0.523472	0.159666
C46	C	1.885858	-0.554262	0.000030
C47	C	1.903312	-0.534702	-0.159615
C48	C	1.884158	-0.604617	0.000037
C49	C	1.866704	-0.624178	0.159682
C50	C	1.850950	-0.593383	0.319321
C51	C	1.852665	-0.543032	0.319311
C52	C	1.919066	-0.565496	-0.319253
C53	C	1.917352	-0.615847	-0.319231
C54	C	1.899898	-0.635408	-0.159586
C55	C	2.180112	-0.018308	-0.000012
C56	C	2.357634	-0.023945	-0.000004
C57	C	1.873695	0.084972	0.000041
C58	C	1.875488	0.138566	0.000071
N59	N	1.935076	-0.019947	-0.456277
N60	N	1.840168	0.012100	0.456262
H61	H	1.442119	-0.062546	-0.000025
H62	H	1.333118	0.054702	0.000044
H63	H	1.869474	-0.140900	0.289586
H64	H	1.866333	-0.232239	0.289621
F65	F	2.061731	-0.062701	-0.554594
F66	F	1.841045	-0.359214	0.489205
H67	H	1.845524	-0.846574	0.289711
F68	F	1.837514	-0.463139	0.489224
H69	H	1.905783	-0.866941	-0.289577
F70	F	1.942726	-0.393614	-0.489219
H71	H	1.848627	-0.755217	0.289713
F72	F	1.934116	-0.648613	-0.489164
H73	H	1.926603	-0.252630	-0.289696
H74	H	1.935284	-0.489849	-0.449296
F75	F	1.913199	-0.770707	-0.329521
F76	F	1.934065	-0.156380	-0.329617
F77	F	1.835911	-0.510268	0.489233
H78	H	1.836746	-0.609319	0.449310
H79	H	1.743287	0.044811	-0.468523
F80	F	1.937632	-0.544685	-0.489179
