data_functionalizedCrystal
_audit_creation_method	'MofGen! by Chris Wilmer'
_symmetry_space_group_name_H-M	'P1'
_symmetry_Int_Tables_number	1
_symmetry_cell_setting	triclinic
loop_
_symmetry_equiv_pos_as_xyz
  x,y,z
_cell_length_a	14.971482
_cell_length_b	11.026607
_cell_length_c	13.448316
_cell_angle_alpha	89.996104
_cell_angle_beta	89.993798
_cell_angle_gamma	96.099312
loop_
_atom_site_label
_atom_site_type_symbol
_atom_site_fract_x
_atom_site_fract_y
_atom_site_fract_z
O1	O	1.212291	0.158159	-0.082676
O2	O	1.545624	0.491492	0.250657
O3	O	1.878957	0.824825	0.583991
O4	O	0.954926	0.177106	-0.082680
O5	O	1.288259	0.510439	0.250653
O6	O	1.621593	0.843772	0.583986
O7	O	1.062278	-0.009051	-0.082675
O8	O	1.395612	0.324282	0.250658
O9	O	1.728945	0.657615	0.583992
O10	O	1.104939	0.344316	-0.082681
O11	O	1.438272	0.677649	0.250652
O12	O	1.771605	1.010983	0.583985
O13	O	1.062259	-0.009063	0.082709
O14	O	1.395592	0.324270	0.416042
O15	O	1.728926	0.657604	0.749376
O16	O	0.954907	0.177094	0.082703
O17	O	1.288240	0.510428	0.416037
O18	O	1.621574	0.843761	0.749370
O19	O	1.212272	0.158147	0.082708
O20	O	1.545605	0.491481	0.416041
O21	O	1.878938	0.824814	0.749375
Cu22	Cu	1.083588	0.167620	0.097807
Cu23	Cu	1.416921	0.500953	0.431140
Cu24	Cu	1.750254	0.834286	0.764473
Cu25	Cu	1.083610	0.167633	-0.097779
Cu26	Cu	1.416943	0.500967	0.235554
Cu27	Cu	1.750277	0.834300	0.568888
O28	O	1.104919	0.344304	0.082702
O29	O	1.438253	0.677638	0.416036
O30	O	1.771586	1.010971	0.749369
C31	C	0.921456	0.176254	0.000011
C32	C	1.254789	0.509587	0.333344
C33	C	1.588123	0.842920	0.666678
C34	C	0.821752	0.173717	0.000009
C35	C	1.155086	0.507050	0.333343
C36	C	1.488419	0.840383	0.666676
C37	C	0.774906	0.172516	0.090161
C38	C	1.108239	0.505849	0.423494
C39	C	1.441573	0.839182	0.756828
C40	C	0.681222	0.170113	0.090162
C41	C	1.014556	0.503446	0.423495
C42	C	1.347889	0.836779	0.756829
C43	C	0.634388	0.168919	0.000010
C44	C	0.967721	0.502253	0.333344
C45	C	1.301054	0.835586	0.666677
C46	C	0.681240	0.170117	-0.090148
C47	C	1.014574	0.503450	0.243185
C48	C	1.347907	0.836784	0.576518
C49	C	0.774922	0.172511	-0.090148
C50	C	1.108255	0.505845	0.243185
C51	C	1.441588	0.839178	0.576518
C52	C	0.485979	0.165129	-0.090142
C53	C	0.819313	0.498463	0.243191
C54	C	1.152646	0.831796	0.576525
C55	C	0.392292	0.162737	-0.090142
C56	C	0.725625	0.496071	0.243191
C57	C	1.058958	0.829404	0.576524
C58	C	0.392280	0.162731	0.090169
C59	C	0.725613	0.496064	0.423502
C60	C	1.058947	0.829398	0.756835
C61	C	0.485961	0.165125	0.090169
C62	C	0.819295	0.498458	0.423502
C63	C	1.152628	0.831792	0.756835
C64	C	0.532808	0.166325	0.000009
C65	C	0.866141	0.499658	0.333343
C66	C	1.199474	0.832991	0.666676
C67	C	1.054399	-0.054279	0.000016
C68	C	1.387732	0.279054	0.333349
C69	C	1.721065	0.612387	0.666682
C70	C	1.030938	-0.189027	0.000012
C71	C	1.364271	0.144306	0.333345
C72	C	1.697604	0.477640	0.666678
C73	C	1.095717	-0.262740	0.000011
C74	C	1.429051	0.070594	0.333345
C75	C	1.762384	0.403927	0.666678
C76	C	1.071471	-0.402009	0.000007
C77	C	1.404804	-0.068675	0.333341
C78	C	1.738138	0.264658	0.666674
C79	C	1.245742	0.158999	0.000014
C80	C	1.579075	0.492333	0.333348
C81	C	1.912408	0.825666	0.666681
C82	C	1.345445	0.161536	0.000010
C83	C	1.678779	0.494870	0.333343
C84	C	2.012112	0.828203	0.666676
C85	C	1.112799	0.389532	0.000010
C86	C	1.446132	0.722866	0.333343
C87	C	1.779466	1.056199	0.666676
C88	C	1.136260	0.524280	0.000007
C89	C	1.469593	0.857613	0.333340
C90	C	1.802927	1.190947	0.666674
N91	N	1.083578	0.167609	0.235371
N92	N	1.416911	0.500943	0.568704
N93	N	1.750245	0.834276	0.902037
N94	N	1.083625	0.167634	-0.235343
N95	N	1.416958	0.500967	0.097990
N96	N	1.750292	0.834301	0.431323
C97	C	1.131138	0.085213	0.287414
C98	C	1.464471	0.418546	0.620747
C99	C	1.797805	0.751880	0.954080
C100	C	1.131143	0.085212	0.391517
C101	C	1.464477	0.418545	0.724850
C102	C	1.797810	0.751879	1.058184
C103	C	1.083594	0.167614	0.443575
C104	C	1.416927	0.500948	0.776909
C105	C	1.750260	0.834281	1.110242
C106	C	1.036028	0.250015	0.391525
C107	C	1.369361	0.583348	0.724859
C108	C	1.702695	0.916681	1.058192
C109	C	1.036018	0.250009	0.287424
C110	C	1.369351	0.583342	0.620757
C111	C	1.702684	0.916675	0.954091
C112	C	1.036054	0.250023	0.608505
C113	C	1.369387	0.583356	0.941839
C114	C	1.702721	0.916689	1.275172
C115	C	1.036065	0.250030	0.712614
C116	C	1.369399	0.583364	1.045947
C117	C	1.702732	0.916697	1.379281
C118	C	1.131180	0.085226	0.712598
C119	C	1.464513	0.418559	1.045932
C120	C	1.797846	0.751893	1.379265
C121	C	1.131170	0.085220	0.608497
C122	C	1.464503	0.418553	0.941830
C123	C	1.797836	0.751887	1.275164
C124	C	1.083605	0.167622	0.556454
C125	C	1.416938	0.500956	0.889787
C126	C	1.750272	0.834289	1.223121
H127	H	0.524092	0.166104	0.163578
H128	H	0.857425	0.499438	0.496911
H129	H	1.190759	0.832771	0.830245
H130	H	0.997307	0.317104	0.433917
H131	H	1.330640	0.650437	0.767251
H132	H	1.663973	0.983771	1.100584
Cl133	Cl	0.976221	0.353594	0.222000
Cl134	Cl	1.309555	0.686927	0.555333
Cl135	Cl	1.642888	1.020260	0.888666
H136	H	0.643083	0.169114	0.163573
H137	H	0.976416	0.502448	0.496906
H138	H	1.309749	0.835781	0.830239
Cl139	Cl	0.333388	0.161223	0.203512
Cl140	Cl	0.666722	0.494557	0.536845
Cl141	Cl	1.000055	0.827890	0.870178
H142	H	1.169908	0.018131	0.754978
H143	H	1.503241	0.351465	1.088311
H144	H	1.836575	0.684798	1.421644
H145	H	0.354162	0.161767	-0.163552
H146	H	0.687495	0.495100	0.169782
H147	H	1.020828	0.828433	0.503115
Cl148	Cl	0.958122	-0.463744	-0.000005
Cl149	Cl	1.291456	-0.130410	0.333329
Cl150	Cl	1.624789	0.202923	0.666662
H151	H	0.957527	-0.229024	0.000004
H152	H	1.290861	0.104310	0.333337
H153	H	1.624194	0.437643	0.666671
H154	H	0.643100	0.169137	-0.163552
H155	H	0.976433	0.502470	0.169782
H156	H	1.309766	0.835803	0.503115
Cl157	Cl	1.209061	-0.200999	0.000007
Cl158	Cl	1.542395	0.132334	0.333341
Cl159	Cl	1.875728	0.465667	0.666674
Cl160	Cl	1.249609	-0.413989	0.000004
Cl161	Cl	1.582943	-0.080656	0.333338
Cl162	Cl	1.916276	0.252678	0.666671
H163	H	1.169863	0.018117	0.245034
H164	H	1.503196	0.351450	0.578368
H165	H	1.836530	0.684783	0.911701
H166	H	1.169869	0.018118	0.433890
H167	H	1.503203	0.351451	0.767223
H168	H	1.836536	0.684785	1.100556
H169	H	0.524119	0.166107	-0.163559
H170	H	0.857452	0.499440	0.169774
H171	H	1.190786	0.832773	0.503108
Cl172	Cl	1.190953	-0.018364	0.543050
Cl173	Cl	1.524286	0.314969	0.876383
Cl174	Cl	1.857620	0.648303	1.209716
Cl175	Cl	0.976283	0.353624	0.778051
Cl176	Cl	1.309616	0.686957	1.111384
Cl177	Cl	1.642950	1.020291	1.444718
Cl178	Cl	0.833814	0.174015	-0.203487
Cl179	Cl	1.167148	0.507349	0.129846
Cl180	Cl	1.500481	0.840682	0.463180
H181	H	0.813033	0.173497	0.163573
H182	H	1.146366	0.506831	0.496907
H183	H	1.479699	0.840164	0.830240
Cl184	Cl	0.976254	0.353614	0.543084
Cl185	Cl	1.309587	0.686948	0.876417
Cl186	Cl	1.642921	1.020281	1.209751
