data_functionalizedCrystal
_audit_creation_method	'MofGen! by Chris Wilmer'
_symmetry_space_group_name_H-M	'P1'
_symmetry_Int_Tables_number	1
_symmetry_cell_setting	triclinic
loop_
_symmetry_equiv_pos_as_xyz
  x,y,z
_cell_length_a	21.295418
_cell_length_b	21.295417
_cell_length_c	21.295411
_cell_angle_alpha	89.978356
_cell_angle_beta	89.956262
_cell_angle_gamma	90.046319
loop_
_atom_site_label
_atom_site_type_symbol
_atom_site_fract_x
_atom_site_fract_y
_atom_site_fract_z
Zn1	Zn	0.962356	-0.250415	-0.356234
Zn2	Zn	0.962258	-0.355667	-0.250959
Zn3	Zn	0.857079	-0.250445	-0.250943
Zn4	Zn	0.857048	-0.355680	-0.356155
O5	O	0.909685	-0.303052	-0.303573
O6	O	1.050432	-0.264360	-0.342308
O7	O	0.948278	-0.341716	-0.162867
O8	O	0.871098	-0.162351	-0.264937
O9	O	1.050361	-0.341688	-0.264963
O10	O	0.948444	-0.162330	-0.342293
O11	O	0.871003	-0.264410	-0.162856
O12	O	0.768985	-0.264422	-0.264861
O13	O	0.871046	-0.341709	-0.444255
O14	O	0.768963	-0.341738	-0.342160
O15	O	0.948415	-0.264372	-0.444313
O16	O	0.948248	-0.443758	-0.264887
O17	O	0.870951	-0.443767	-0.342175
C18	C	0.746134	-0.303085	-0.303500
C19	C	0.676166	-0.303114	-0.303484
C20	C	0.909603	-0.466603	-0.303538
C21	C	0.909625	-0.536571	-0.303544
C22	C	0.643304	-0.343426	-0.343674
C23	C	0.577561	-0.343410	-0.343702
C24	C	0.544683	-0.303090	-0.303530
C25	C	0.577553	-0.262770	-0.263337
C26	C	0.643294	-0.262783	-0.263315
N27	N	0.441407	-0.298163	-0.248472
N28	N	0.378956	-0.298155	-0.248495
C29	C	0.346608	-0.303050	-0.303596
N30	N	0.379072	-0.307965	-0.358675
N31	N	0.441529	-0.307976	-0.358650
C32	C	0.473398	-0.303072	-0.303550
C33	C	0.242461	-0.343346	-0.343820
C34	C	0.176717	-0.343326	-0.343849
C35	C	0.176710	-0.262690	-0.263479
C36	C	0.242453	-0.262707	-0.263455
C37	C	0.275324	-0.303038	-0.303625
C38	C	0.949910	-0.569412	-0.263342
C39	C	0.949939	-0.635155	-0.263356
C40	C	0.909673	-0.668054	-0.303566
C41	C	0.869386	-0.635205	-0.343776
C42	C	0.869362	-0.569464	-0.343765
N43	N	0.854606	-0.771336	-0.308340
N44	N	0.854630	-0.833787	-0.308347
C45	C	0.909743	-0.866129	-0.303602
N46	N	0.964832	-0.833659	-0.298838
N47	N	0.964807	-0.771202	-0.298828
C48	C	0.909695	-0.739339	-0.303582
C49	C	0.950063	-0.970255	-0.263413
C50	C	0.950094	-1.035999	-0.263431
C51	C	0.869535	-1.036048	-0.343848
C52	C	0.869510	-0.970305	-0.343833
C53	C	0.909773	-0.937413	-0.303612
C54	C	1.073876	-0.303019	-0.303646
C55	C	1.143844	-0.303005	-0.303677
C56	C	0.909738	-0.303038	-0.467763
C57	C	0.909760	-0.303033	-0.537731
C58	C	0.909785	-0.138861	-0.303622
C59	C	0.909828	-0.068893	-0.303642
C60	C	0.950044	-0.262761	-0.570629
C61	C	0.950043	-0.262734	-0.636371
C62	C	0.909765	-0.302989	-0.669214
C63	C	0.869473	-0.343263	-0.636308
C64	C	0.869470	-0.343285	-0.570567
N65	N	0.904908	-0.358058	-0.772428
N66	N	0.904914	-0.358036	-0.834879
C67	C	0.909769	-0.302926	-0.867289
N68	N	0.914629	-0.247837	-0.834888
N69	N	0.914627	-0.247860	-0.772430
C70	C	0.909763	-0.302970	-0.740499
C71	C	0.950054	-0.262621	-0.971472
C72	C	0.950049	-0.262593	-1.037216
C73	C	0.869482	-0.343128	-1.037151
C74	C	0.869484	-0.343151	-0.971409
C75	C	0.909773	-0.302898	-0.938573
C76	C	0.909670	-0.303019	-0.140021
C77	C	0.909769	-0.302848	-0.070054
H78	H	0.670063	-0.376266	-0.376384
O79	O	0.830272	-0.382321	-0.538580
C80	C	0.789647	-0.346506	-0.500509
H81	H	0.785788	-0.296920	-0.520317
H82	H	0.809113	-0.344352	-0.450700
C83	C	0.728930	-0.438176	-0.475118
C84	C	0.724185	-0.377275	-0.499451
H85	H	0.688550	-0.457157	-0.474463
H86	H	0.756301	-0.462306	-0.500766
H87	H	0.745153	-0.436373	-0.433613
H88	H	0.707969	-0.379080	-0.540957
H89	H	0.696810	-0.353146	-0.473810
H90	H	0.982852	-0.229795	-1.064000
O91	O	0.989204	-0.223458	-0.939668
C92	C	1.024768	-0.187912	-0.982806
H93	H	0.998985	-0.185721	-1.029649
H94	H	1.072563	-0.210950	-0.989834
C95	C	1.065545	-0.123613	-0.899622
C96	C	1.033876	-0.120918	-0.957154
H97	H	1.071167	-0.082289	-0.883799
H98	H	1.041587	-0.147562	-0.870559
H99	H	1.105371	-0.142814	-0.905487
H100	H	0.994048	-0.101725	-0.951288
H101	H	1.057827	-0.096964	-0.986216
O102	O	0.830431	-0.938302	-0.382860
C103	C	0.839032	-0.873224	-0.374217
H104	H	0.887619	-0.864199	-0.353661
H105	H	0.801703	-0.854630	-0.340644
C106	C	0.773543	-0.850527	-0.463143
C107	C	0.833221	-0.839442	-0.437901
H108	H	0.769956	-0.829688	-0.502425
H109	H	0.767746	-0.894371	-0.468966
H110	H	0.742443	-0.835032	-0.435160
H111	H	0.864319	-0.854944	-0.465880
H112	H	0.839023	-0.795599	-0.432085
O113	O	0.989196	-0.223598	-0.538831
C114	C	1.024763	-0.188058	-0.581970
H115	H	0.998982	-0.185870	-0.628815
H116	H	1.072557	-0.211099	-0.588994
C117	C	1.065540	-0.123753	-0.498791
C118	C	1.033873	-0.121062	-0.556325
H119	H	1.071163	-0.082428	-0.482971
H120	H	1.041580	-0.147699	-0.469727
H121	H	1.105366	-0.142957	-0.504652
H122	H	0.994046	-0.101866	-0.550461
H123	H	1.057827	-0.097112	-0.585388
O124	O	0.830338	-0.667132	-0.382925
C125	C	0.844050	-0.651008	-0.445679
H126	H	0.894331	-0.632876	-0.448916
H127	H	0.810280	-0.612878	-0.462087
C128	C	0.774970	-0.731665	-0.483713
C129	C	0.836727	-0.709399	-0.487690
H130	H	0.770450	-0.767682	-0.509629
H131	H	0.765729	-0.742527	-0.441435
H132	H	0.746835	-0.699885	-0.497385
H133	H	0.864860	-0.741176	-0.474011
H134	H	0.845972	-0.698544	-0.529967
O135	O	0.830378	-0.382457	-0.668139
C136	C	0.844106	-0.445199	-0.652091
H137	H	0.868301	-0.446513	-0.604375
H138	H	0.876459	-0.466384	-0.689112
C139	C	0.752998	-0.481728	-0.707612
C140	C	0.782710	-0.483342	-0.649004
H141	H	0.715126	-0.505258	-0.705711
H142	H	0.743750	-0.439458	-0.718426
H143	H	0.779965	-0.499381	-0.738457
H144	H	0.755746	-0.465682	-0.618162
H145	H	0.791951	-0.525611	-0.638185
H146	H	0.836680	-0.375898	-1.063891
H147	H	0.982850	-0.943473	-0.230664
H148	H	0.836752	-1.062833	-0.376591
O149	O	0.989054	-0.537391	-0.224365
C150	C	1.029692	-0.499310	-0.260250
H151	H	1.007465	-0.489462	-0.307926
H152	H	1.076347	-0.524588	-0.267227
C153	C	1.068385	-0.448962	-0.167064
C154	C	1.041082	-0.436863	-0.225619
H155	H	1.075413	-0.410442	-0.145701
H156	H	1.041008	-0.474619	-0.142887
H157	H	1.107261	-0.470029	-0.172887
H158	H	1.002203	-0.415803	-0.219795
H159	H	1.068452	-0.411200	-0.249794
O160	O	0.144696	-0.382427	-0.382872
C161	C	0.079622	-0.373778	-0.374272
H162	H	0.070669	-0.325164	-0.353753
H163	H	0.060888	-0.411060	-0.340684
C164	C	0.056932	-0.439347	-0.463167
C165	C	0.045936	-0.379637	-0.437970
H166	H	0.036152	-0.442964	-0.502458
H167	H	0.100773	-0.445177	-0.468960
H168	H	0.041320	-0.470409	-0.435171
H169	H	0.061554	-0.348577	-0.465962
H170	H	0.002096	-0.373802	-0.432183
H171	H	0.836683	-0.375948	-0.944623
H172	H	0.836557	-0.542724	-0.376503
H173	H	0.149942	-0.229857	-0.230773
H174	H	0.982902	-1.062737	-0.230695
H175	H	0.550800	-0.376236	-0.376431
O176	O	0.274424	-0.382584	-0.382754
C177	C	0.312380	-0.423190	-0.346828
H178	H	0.292508	-0.427002	-0.297250
H179	H	0.362222	-0.403735	-0.344677
C180	C	0.337762	-0.483990	-0.438356
C181	C	0.313352	-0.488678	-0.377465
H182	H	0.338365	-0.524386	-0.457255
H183	H	0.312192	-0.456633	-0.462561
H184	H	0.379295	-0.467776	-0.436555
H185	H	0.271818	-0.504884	-0.379267
H186	H	0.338915	-0.516040	-0.353261
O187	O	0.545689	-0.223635	-0.224224
C188	C	0.561662	-0.237313	-0.161454
H189	H	0.609370	-0.261519	-0.160091
H190	H	0.524608	-0.269639	-0.140202
C191	C	0.506126	-0.146161	-0.125110
C192	C	0.564723	-0.175885	-0.123435
H193	H	0.508012	-0.108270	-0.101657
H194	H	0.495362	-0.136946	-0.167399
H195	H	0.475254	-0.173106	-0.107401
H196	H	0.595593	-0.148944	-0.141151
H197	H	0.575493	-0.185094	-0.081148
O198	O	0.675289	-0.223713	-0.224239
C199	C	0.713220	-0.259503	-0.183490
H200	H	0.723042	-0.307243	-0.205600
H201	H	0.687823	-0.266344	-0.136837
C202	C	0.763627	-0.166232	-0.144978
C203	C	0.775696	-0.224866	-0.172136
H204	H	0.802164	-0.144866	-0.137971
H205	H	0.738070	-0.142119	-0.172428
H206	H	0.742462	-0.171942	-0.106103
H207	H	0.796853	-0.219155	-0.211013
H208	H	0.801257	-0.248977	-0.144691
H209	H	0.982746	-0.661899	-0.230619
O210	O	0.274281	-0.223532	-0.224351
C211	C	0.231167	-0.187928	-0.188910
H212	H	0.184276	-0.213699	-0.186699
H213	H	0.224249	-0.140152	-0.212054
C214	C	0.314353	-0.147108	-0.124638
C215	C	0.256762	-0.178763	-0.121917
H216	H	0.330141	-0.141452	-0.083315
H217	H	0.343400	-0.171093	-0.148516
H218	H	0.308579	-0.107298	-0.143927
H219	H	0.262537	-0.218575	-0.102636
H220	H	0.227716	-0.154785	-0.098034
O221	O	0.989090	-0.223550	-0.668366
C222	C	0.953285	-0.182895	-0.706385
H223	H	0.903709	-0.179012	-0.686537
H224	H	0.951102	-0.202348	-0.756205
C225	C	1.044980	-0.122224	-0.731807
C226	C	0.984091	-0.117450	-0.707426
H227	H	1.063983	-0.081855	-0.732452
H228	H	1.069104	-0.149614	-0.706195
H229	H	1.043152	-0.138436	-0.773321
H230	H	0.985920	-0.101245	-0.665910
H231	H	0.959968	-0.090055	-0.733031
