data_functionalizedCrystal
_audit_creation_method	'MofGen! by Chris Wilmer'
_symmetry_space_group_name_H-M	'P1'
_symmetry_Int_Tables_number	1
_symmetry_cell_setting	triclinic
loop_
_symmetry_equiv_pos_as_xyz
  x,y,z
_cell_length_a	14.908795
_cell_length_b	16.120444
_cell_length_c	14.908308
_cell_angle_alpha	95.986749
_cell_angle_beta	89.788666
_cell_angle_gamma	96.375662
loop_
_atom_site_label
_atom_site_type_symbol
_atom_site_fract_x
_atom_site_fract_y
_atom_site_fract_z
Zn1	Zn	1.328312	-0.293318	-0.602929
Zn2	Zn	1.329259	-0.425040	-0.459348
Zn3	Zn	1.186679	-0.292410	-0.443853
Zn4	Zn	1.169354	-0.441096	-0.601796
O5	O	1.253401	-0.362966	-0.526981
O6	O	1.454633	-0.304452	-0.590841
O7	O	1.317992	-0.400346	-0.331104
O8	O	1.212321	-0.175179	-0.458944
O9	O	1.455328	-0.401227	-0.485353
O10	O	1.316379	-0.175846	-0.575816
O11	O	1.213239	-0.302903	-0.319720
O12	O	1.058185	-0.318473	-0.457846
O13	O	1.182794	-0.428593	-0.728135
O14	O	1.045457	-0.427712	-0.573886
O15	O	1.299580	-0.320022	-0.728967
O16	O	1.301192	-0.544521	-0.484255
O17	O	1.183711	-0.556318	-0.588911
C18	C	1.019100	-0.374737	-0.514062
C19	C	0.918863	-0.379794	-0.508557
C20	C	0.777957	-0.437213	-0.445784
C21	C	0.872139	-0.432464	-0.450955
C22	C	0.871399	-0.331866	-0.560989
C23	C	0.777217	-0.336614	-0.555818
C24	C	0.730499	-0.389290	-0.498214
C25	C	0.636315	-0.394042	-0.493047
C26	C	0.635578	-0.293440	-0.603076
C27	C	0.729760	-0.288692	-0.608248
C28	C	1.240698	-0.580847	-0.538163
C29	C	1.235344	-0.674056	-0.542981
C30	C	1.281383	-0.880371	-0.502194
C31	C	1.225585	-0.844702	-0.551788
C32	C	1.231017	-0.749745	-0.546886
C33	C	1.275953	-0.975336	-0.507094
C34	C	1.488616	-0.351150	-0.539952
C35	C	1.588851	-0.346114	-0.545479
C36	C	1.239149	-0.376200	-0.762185
C37	C	1.233075	-0.381839	-0.862415
C38	C	1.266177	-0.144234	-0.515778
C39	C	1.271622	-0.051023	-0.511003
C40	C	1.343270	-0.279361	-1.051624
C41	C	1.337567	-0.284657	-1.145799
C42	C	1.215961	-0.397722	-1.144941
C43	C	1.221664	-0.392426	-1.050766
C44	C	1.285322	-0.333245	-1.004111
C45	C	1.291029	-0.327954	-0.909935
C46	C	1.169420	-0.441014	-0.909078
C47	C	1.163716	-0.446310	-1.003253
C48	C	1.267653	-0.349721	-0.292693
C49	C	1.273915	-0.343836	-0.192461
H50	H	0.909453	-0.288975	-0.607882
H51	H	1.173736	-0.885478	-0.597928
O52	O	1.147291	-0.461537	-1.195265
H53	H	1.153061	-0.456161	-1.268732
O54	O	0.727565	-0.494023	-0.383655
H55	H	0.679740	-0.541178	-0.423778
O56	O	1.350072	-0.826369	-0.441089
H57	H	1.343610	-0.759182	-0.446785
H58	H	1.342864	-0.279766	-0.871950
H59	H	0.767810	-0.245803	-0.655145
O60	O	0.923330	-0.484151	-0.394407
H61	H	0.875017	-0.521579	-0.353489
O62	O	0.584395	-0.241743	-0.659628
H63	H	0.511055	-0.253888	-0.646353
O64	O	1.411927	-0.215537	-1.001294
H65	H	1.451264	-0.178956	-1.050156
O66	O	1.400072	-0.226546	-1.197051
H67	H	1.445297	-0.184511	-1.148784
H68	H	1.111886	-0.494492	-1.041252
O69	O	1.106908	-0.499135	-0.857834
H70	H	1.121563	-0.485509	-0.784509
H71	H	0.598279	-0.436937	-0.446146
