data_functionalizedCrystal
_audit_creation_method	'MofGen! by Chris Wilmer'
_symmetry_space_group_name_H-M	'P1'
_symmetry_Int_Tables_number	1
_symmetry_cell_setting	triclinic
loop_
_symmetry_equiv_pos_as_xyz
  x,y,z
_cell_length_a	14.044191
_cell_length_b	14.044220
_cell_length_c	13.101018
_cell_angle_alpha	86.335600
_cell_angle_beta	93.666878
_cell_angle_gamma	93.190327
loop_
_atom_site_label
_atom_site_type_symbol
_atom_site_fract_x
_atom_site_fract_y
_atom_site_fract_z
O1	O	1.281983	0.225382	0.085170
O2	O	1.005311	0.217069	0.085182
O3	O	1.139494	0.082890	0.085166
O4	O	1.147800	0.359561	0.085186
O5	O	1.129855	0.092525	-0.085263
O6	O	0.995672	0.226704	-0.085247
O7	O	1.272344	0.235017	-0.085260
Zn8	Zn	1.132478	0.232390	-0.112313
Zn9	Zn	1.145177	0.219695	0.112235
O10	O	1.138162	0.369196	-0.085243
C11	C	0.964870	0.218250	-0.000031
C12	C	0.858727	0.207402	-0.000026
C13	C	0.613268	0.264503	-0.000032
C14	C	0.664393	0.187587	-0.000036
C15	C	0.772531	0.198615	-0.000031
C16	C	0.505121	0.253476	-0.000038
C17	C	1.131038	0.052086	-0.000049
C18	C	1.120194	-0.054057	-0.000050
C19	C	1.100368	-0.248396	-0.000034
C20	C	1.177283	-0.299524	-0.000034
C21	C	1.166252	-0.407661	-0.000026
C22	C	1.111398	-0.140250	-0.000043
C23	C	1.312785	0.233836	-0.000044
C24	C	1.418929	0.244683	-0.000042
C25	C	1.146617	0.400000	-0.000026
C26	C	1.157462	0.506143	-0.000019
N27	N	1.123818	0.241054	-0.265560
C28	C	1.165622	0.199233	-0.525475
C29	C	1.112043	0.252843	-0.474596
C30	C	1.118596	0.246282	-0.358278
C31	C	1.159070	0.205793	-0.641804
N32	N	1.153844	0.211025	0.265483
H33	H	0.626954	0.113451	0.000031
C34	C	1.234240	0.130585	-0.466315
H35	H	1.229704	0.135136	-0.394765
H36	H	1.217487	0.066961	-0.483832
H37	H	1.297872	0.147326	-0.483829
C38	C	1.277430	-0.248950	-0.000062
H39	H	1.271804	-0.181849	-0.000079
H40	H	1.314507	-0.270240	0.059363
H41	H	1.307754	-0.263544	-0.059509
C42	C	0.663841	0.364644	-0.000009
H43	H	0.617546	0.411457	-0.000010
H44	H	0.705943	0.368761	0.059428
H45	H	0.699232	0.375497	-0.059445
C46	C	1.000225	-0.298965	-0.000028
H47	H	0.953413	-0.252669	-0.000023
H48	H	0.989378	-0.334361	-0.059456
H49	H	0.996100	-0.341063	0.059416
H50	H	1.061253	0.303669	-0.518395
