data_functionalizedCrystal
_audit_creation_method	'MofGen! by Chris Wilmer'
_symmetry_space_group_name_H-M	'P1'
_symmetry_Int_Tables_number	1
_symmetry_cell_setting	triclinic
loop_
_symmetry_equiv_pos_as_xyz
  x,y,z
_cell_length_a	23.096457
_cell_length_b	23.096457
_cell_length_c	23.096457
_cell_angle_alpha	120.000591
_cell_angle_beta	90.002696
_cell_angle_gamma	60.000185
loop_
_atom_site_label
_atom_site_type_symbol
_atom_site_fract_x
_atom_site_fract_y
_atom_site_fract_z
Zr1	Zr	0.557780	0.633742	0.075977
O2	O	0.465334	0.754531	0.168420
O3	O	0.586118	0.512956	0.047642
O4	O	0.586120	0.633747	0.168429
O5	O	0.465333	0.633735	-0.047651
O6	O	0.681401	0.633749	0.168433
O7	O	0.465332	0.633739	0.047632
O8	O	0.681396	0.417674	-0.047634
O9	O	0.465337	0.849809	0.168416
O10	O	0.669313	0.562637	0.035555
O11	O	0.598206	0.562633	-0.035556
O12	O	0.598209	0.704849	0.106656
O13	O	0.527103	0.704845	0.035544
Zr14	Zr	0.709742	0.633737	-0.075984
Zr15	Zr	0.709741	0.633745	0.075982
Zr16	Zr	0.557781	0.633735	-0.075989
Zr17	Zr	0.557784	0.785700	0.075970
Zr18	Zr	0.709739	0.481780	-0.075977
O19	O	0.681405	0.754524	-0.047649
O20	O	0.681404	0.754535	0.168428
O21	O	0.465336	0.754520	-0.047657
O22	O	0.802188	0.512948	-0.168427
O23	O	0.802187	0.512959	0.047649
O24	O	0.586119	0.512945	-0.168435
O25	O	0.802190	0.633745	0.047644
O26	O	0.681403	0.633732	-0.168436
O27	O	0.586122	0.633731	-0.168440
O28	O	0.802191	0.633740	-0.047639
O29	O	0.586126	0.849811	0.168420
O30	O	0.681397	0.417668	-0.168427
O31	O	0.802186	0.417671	-0.168423
O32	O	0.802185	0.417677	-0.047630
O33	O	0.465337	0.849803	0.047623
O34	O	0.586126	0.849805	0.047627
O35	O	0.669313	0.562630	-0.106663
O36	O	0.740420	0.562635	-0.035551
O37	O	0.669316	0.704847	0.035549
O38	O	0.598210	0.704842	-0.035562
C39	C	0.633757	0.443664	0.000004
C40	C	0.633755	0.379154	0.000007
C41	C	0.670867	0.348856	0.037129
C42	C	0.670874	0.288234	0.037124
C43	C	0.633755	0.257924	0.000005
C44	C	0.596641	0.288226	-0.037125
C45	C	0.596641	0.348842	-0.037124
N46	N	0.573351	0.195527	0.005150
N47	N	0.573352	0.137947	0.005153
C48	C	0.633754	0.075292	-0.000001
N49	N	0.694154	0.072400	-0.005145
N50	N	0.694151	0.129989	-0.005144
C51	C	0.633751	0.192196	-0.000000
C52	C	0.670877	-0.020741	0.037116
C53	C	0.670886	-0.081368	0.037105
C54	C	0.596647	-0.081368	-0.037138
C55	C	0.596645	-0.020748	-0.037132
C56	C	0.633758	0.009564	-0.000001
C57	C	0.443681	0.633737	-0.000011
C58	C	0.379170	0.633736	-0.000013
C59	C	0.385979	0.559505	-0.037120
C60	C	0.325364	0.559503	-0.037123
C61	C	0.257939	0.633737	-0.000005
C62	C	0.251132	0.707978	0.037103
C63	C	0.311747	0.707977	0.037100
N64	N	0.135144	0.688996	0.060405
N65	N	0.077565	0.688991	0.060407
C66	C	0.075306	0.633745	0.000007
N67	N	0.132809	0.578490	-0.060394
N68	N	0.190394	0.578492	-0.060395
C69	C	0.192208	0.633747	0.000003
C70	C	0.016392	0.559507	-0.037106
C71	C	-0.044226	0.559509	-0.037111
C72	C	-0.118458	0.707986	0.037122
C73	C	-0.057840	0.707982	0.037120
C74	C	0.009583	0.633741	0.000008
C75	C	0.823842	0.633743	0.000003
C76	C	0.888353	0.633744	0.000006
C77	C	0.633760	0.633749	0.190083
C78	C	0.633760	0.633752	0.254597
C79	C	0.633766	0.823815	-0.000012
C80	C	0.633768	0.888325	-0.000014
C81	C	0.596662	0.707970	0.752214
C82	C	0.596655	0.707974	0.691600
C83	C	0.633771	0.633741	0.624173
C84	C	0.670881	0.559499	0.617363
C85	C	0.670881	0.559497	0.677977
N86	N	0.694175	0.578488	0.501378
N87	N	0.694173	0.578495	0.443800
C88	C	0.633773	0.633743	0.441545
N89	N	0.573374	0.688996	0.499050
N90	N	0.573376	0.688991	0.556634
C91	C	0.633775	0.633735	0.558444
C92	C	0.596654	0.707985	0.382636
C93	C	0.596645	0.707986	0.322020
C94	C	0.670877	0.559509	0.247783
C95	C	0.670879	0.559510	0.308399
C96	C	0.633769	0.633750	0.375823
C97	C	0.633764	0.633733	0.809911
C98	C	0.633770	0.633737	0.745401
C99	C	0.823837	0.443668	0.000011
C100	C	0.888347	0.379159	0.000017
C101	C	0.633758	0.443655	-0.190082
C102	C	0.633756	0.379142	-0.254593
C103	C	0.823838	0.443658	-0.190075
C104	C	0.888348	0.379146	-0.254584
C105	C	0.443685	0.823822	0.190068
C106	C	0.379174	0.888334	0.254577
C107	C	0.443686	0.823812	-0.000019
C108	C	0.379176	0.888321	-0.000024
C109	C	0.633765	0.823825	0.190075
C110	C	0.633766	0.888338	0.254586
C111	C	0.881524	0.348866	0.037142
C112	C	0.942132	0.288261	0.037161
C113	C	1.009562	0.257947	0.000050
C114	C	1.016383	0.288246	-0.037077
C115	C	0.955776	0.348853	-0.037091
C116	C	0.670873	0.348845	-0.322011
C117	C	0.670869	0.288236	-0.382632
C118	C	0.633752	0.257922	-0.375833
C119	C	0.596631	0.288225	-0.308408
C120	C	0.596631	0.348837	-0.247788
C121	C	0.955766	0.348853	-0.247758
C122	C	1.016386	0.288246	-0.308365
C123	C	1.009587	0.257928	-0.375797
C124	C	0.942162	0.288227	-0.382621
C125	C	0.881543	0.348838	-0.322015
C126	C	0.311757	0.918634	0.247751
C127	C	0.251137	0.979260	0.308358
C128	C	0.257936	1.009581	0.375790
C129	C	0.325361	0.979278	0.382614
C130	C	0.385979	0.918657	0.322008
C131	C	0.385999	0.918620	-0.037143
C132	C	0.325391	0.979241	-0.037145
C133	C	0.257960	1.009558	-0.000032
C134	C	0.251139	0.979256	0.037092
C135	C	0.311747	0.918640	0.037098
C136	C	0.670890	0.918633	0.247764
C137	C	0.670905	0.979242	0.308373
C138	C	0.633792	1.009559	0.375803
C139	C	0.596667	0.979258	0.382624
C140	C	0.596656	0.918646	0.322015
H141	H	0.566420	0.263544	-0.067348
H142	H	1.071293	0.263554	-0.067291
H143	H	0.208571	1.058942	0.425133
O144	O	0.192602	1.074927	-0.000060
H145	H	0.160589	1.130175	0.055203
H146	H	0.566412	0.263534	-0.302882
O147	O	0.808828	0.381503	-0.329380
H148	H	0.779440	0.369866	-0.303541
O149	O	0.332760	1.011906	-0.077196
H150	H	0.306913	1.000279	-0.118218
O151	O	0.710932	0.885938	0.175043
H152	H	0.673466	0.897575	0.145644
O153	O	0.178408	1.011957	0.077115
H154	H	0.172230	1.039584	0.134167
H155	H	0.566419	0.373511	-0.067353
O156	O	0.556632	0.788043	0.824933
H157	H	0.562869	0.775574	0.865939
H158	H	0.566421	0.003924	-0.067358
O159	O	0.332704	0.479434	-0.077142
H160	H	0.279227	0.491909	-0.070905
H161	H	0.566434	0.768425	0.697148
H162	H	0.701136	1.003906	0.302806
O163	O	0.458720	0.885934	-0.077175
H164	H	0.499727	0.838687	-0.070945
H165	H	0.566409	0.373497	-0.192896
H166	H	0.566422	0.893986	0.327580
O167	O	0.633795	1.074943	0.441173
H168	H	0.665839	1.090919	0.425094
H169	H	0.196230	0.768420	0.067324
H170	H	0.306182	0.893973	0.067323
H171	H	0.826625	0.373548	0.067371
O172	O	0.178419	1.011923	0.300990
H173	H	0.183881	0.980637	0.243918
H174	H	0.330889	1.003973	0.437524
O175	O	0.304407	0.788043	0.077131
H176	H	0.247341	0.839666	0.102945
O177	O	0.556630	1.011967	0.455354
H178	H	0.562871	1.059212	0.496346
H179	H	0.440874	0.499051	-0.067335
O180	O	1.074972	0.192544	-0.441163
H181	H	1.106983	0.215807	-0.441116
O182	O	0.633761	0.192545	-0.441222
H183	H	0.601714	0.176553	-0.425174
O184	O	1.089101	0.255601	-0.300990
H185	H	1.130116	0.208378	-0.354458
O186	O	0.556613	0.788058	0.329372
H187	H	0.562838	0.775590	0.275896
H188	H	0.701089	0.373533	0.067362
O189	O	0.963108	0.381556	-0.175032
H190	H	1.020177	0.350310	-0.180479
H191	H	0.701096	0.263560	0.067354
H192	H	0.071291	0.499055	-0.067340
H193	H	0.440872	0.893987	0.327574
O194	O	-0.065185	0.788050	0.077174
H195	H	-0.011709	0.775578	0.070939
O196	O	0.934832	0.255514	-0.455353
H197	H	0.988314	0.208270	-0.496343
O198	O	0.963143	0.381513	-0.077146
H199	H	0.937306	0.369871	-0.118175
O200	O	-0.036879	0.479439	-0.077131
H201	H	-0.007438	0.443827	-0.134178
O202	O	0.710913	0.011951	0.077152
H203	H	0.736732	-0.019315	0.102956
O204	O	0.304415	0.885942	0.175024
H205	H	0.247346	0.917212	0.180472
H206	H	0.701111	-0.106041	0.067332
H207	H	-0.173355	0.768429	0.067344
O208	O	0.556608	-0.114048	-0.077174
H209	H	0.562838	-0.161285	-0.070935
O210	O	0.710952	0.479431	0.544642
H211	H	0.704738	0.491902	0.503637
H212	H	0.701099	0.499046	0.672424
O213	O	0.556621	0.788052	0.455362
H214	H	0.530804	0.839674	0.449915
O215	O	0.710926	0.479439	0.175066
H216	H	0.704701	0.491910	0.134060
H217	H	0.701100	0.263570	-0.437527
O218	O	0.710937	0.479445	0.301057
H219	H	0.736759	0.427825	0.243989
O220	O	0.934768	0.255582	0.077200
H221	H	0.877696	0.286836	0.102989
O222	O	1.074930	0.192571	0.000062
H223	H	1.058851	0.176597	0.032108
H224	H	0.701098	0.373520	-0.327561
