data_functionalizedCrystal
_audit_creation_method	'MofGen! by Chris Wilmer'
_symmetry_space_group_name_H-M	'P1'
_symmetry_Int_Tables_number	1
_symmetry_cell_setting	triclinic
loop_
_symmetry_equiv_pos_as_xyz
  x,y,z
_cell_length_a	19.288840
_cell_length_b	16.974813
_cell_length_c	18.366186
_cell_angle_alpha	86.339196
_cell_angle_beta	89.983729
_cell_angle_gamma	83.260449
loop_
_atom_site_label
_atom_site_type_symbol
_atom_site_fract_x
_atom_site_fract_y
_atom_site_fract_z
O1	O	0.921541	0.098544	-0.066477
O2	O	0.719302	0.111871	-0.067237
O3	O	0.826059	-0.009917	-0.060070
O4	O	0.814784	0.220332	-0.073643
O5	O	0.826041	-0.009923	0.061029
O6	O	0.719284	0.111865	0.053863
O7	O	0.921523	0.098538	0.054623
Zn8	Zn	0.820401	0.105200	0.073470
Zn9	Zn	0.820424	0.105208	-0.086084
O10	O	0.814766	0.220326	0.047457
C11	C	0.693415	0.111442	-0.006658
C12	C	0.616309	0.110165	-0.006573
C13	C	0.580114	0.109555	-0.072551
C14	C	0.507665	0.108346	-0.072488
C15	C	0.471415	0.107731	-0.006444
C16	C	0.507618	0.108346	0.059542
C17	C	0.580065	0.109563	0.059477
C18	C	0.361993	0.059487	0.046961
C19	C	0.289548	0.058265	0.047023
C20	C	0.247965	0.103981	-0.006242
C21	C	0.278836	0.150909	-0.059581
C22	C	0.351283	0.152126	-0.059646
C23	C	0.392859	0.106412	-0.006367
C24	C	0.133212	0.102061	-0.072156
C25	C	0.060761	0.100857	-0.072091
C26	C	0.060717	0.100849	0.059941
C27	C	0.133165	0.102061	0.059874
C28	C	0.169409	0.102663	-0.006177
C29	C	0.825621	-0.039377	0.002215
C30	C	0.824334	-0.127149	0.007385
C31	C	0.823741	-0.168377	-0.056197
C32	C	0.822527	-0.250848	-0.051337
C33	C	0.821911	-0.292090	0.017105
C34	C	0.822503	-0.250856	0.080692
C35	C	0.823711	-0.168386	0.075832
C36	C	0.818291	-0.538738	0.038721
C37	C	0.817084	-0.621214	0.043577
C38	C	0.817107	-0.621200	-0.088453
C39	C	0.818320	-0.538730	-0.093308
C40	C	0.818908	-0.497502	-0.029721
N41	N	0.820673	-0.376388	0.022075
N42	N	0.820141	-0.413204	-0.034691
C43	C	0.947410	0.098966	-0.005957
C44	C	1.024516	0.100244	-0.006047
C45	C	0.815204	0.249785	-0.014830
C46	C	0.816491	0.337558	-0.020005
N47	N	0.820389	0.105195	0.182362
N48	N	0.820441	0.105208	-0.194975
C49	C	0.867677	0.051293	0.223634
C50	C	0.867681	0.051290	0.299862
C51	C	0.820405	0.105201	0.334814
C52	C	0.773108	0.159106	0.293533
C53	C	0.773101	0.159103	0.217306
C54	C	0.811236	0.177247	0.451328
C55	C	0.811249	0.177251	0.527553
C56	C	0.820424	0.105211	0.569921
C57	C	0.829603	0.033163	0.536055
C58	C	0.829595	0.033160	0.459829
C59	C	0.820408	0.105210	0.417468
C60	C	0.867719	0.051301	0.693849
C61	C	0.867719	0.051297	0.770078
C62	C	0.773149	0.159120	0.763747
C63	C	0.773147	0.159118	0.687519
C64	C	0.820435	0.105209	0.652575
H65	H	0.244980	0.188138	-0.102953
Cl66	Cl	0.841144	-0.057408	0.589310
Cl67	Cl	0.250743	-0.000710	0.114091
Cl68	Cl	0.821783	-0.302674	-0.131273
H69	H	0.818822	-0.505156	-0.149041
H70	H	0.609534	0.110061	0.113205
Cl71	Cl	0.390090	0.211121	-0.126694
H72	H	0.803752	0.235915	0.416838
H73	H	0.478189	0.107850	-0.126216
Cl74	Cl	0.816368	-0.673033	-0.168385
Cl75	Cl	0.625673	0.110315	-0.155585
Cl76	Cl	0.927164	-0.016473	0.649917
H77	H	0.816579	-0.654791	0.099315
Cl78	Cl	0.821720	-0.302702	0.166735
H79	H	0.824246	-0.134804	-0.111931
Cl80	Cl	0.927167	-0.016475	0.821966
H81	H	0.395845	0.022257	0.090340
H82	H	0.734614	0.203001	0.321995
Cl83	Cl	0.841124	-0.057410	0.417257
H84	H	0.734593	0.202997	0.183702
Cl85	Cl	0.819018	-0.486919	0.118660
H86	H	0.162723	0.102560	-0.125939
Cl87	Cl	0.824456	-0.116556	0.155767
H88	H	0.478099	0.107848	0.113315
Cl89	Cl	0.927120	-0.016480	0.179704
Cl90	Cl	0.927134	-0.016477	0.351755
H91	H	0.031292	0.100365	-0.125820
Cl92	Cl	0.713711	0.226889	0.807682
H93	H	0.734643	0.203013	0.653913
Cl94	Cl	0.799716	0.267824	0.570119
H95	H	0.031202	0.100354	0.113715
H96	H	0.162636	0.102553	0.113600
