data_functionalizedCrystal
_audit_creation_method	'MofGen! by Chris Wilmer'
_symmetry_space_group_name_H-M	'P1'
_symmetry_Int_Tables_number	1
_symmetry_cell_setting	triclinic
loop_
_symmetry_equiv_pos_as_xyz
  x,y,z
_cell_length_a	10.723024
_cell_length_b	17.038272
_cell_length_c	9.798715
_cell_angle_alpha	89.996584
_cell_angle_beta	89.996609
_cell_angle_gamma	87.789713
loop_
_atom_site_label
_atom_site_type_symbol
_atom_site_fract_x
_atom_site_fract_y
_atom_site_fract_z
O1	O	1.667337	0.109720	-0.113484
O2	O	1.305156	0.120222	-0.113489
O3	O	1.484094	0.001144	-0.113475
O4	O	1.488399	0.228799	-0.113497
O5	O	1.484079	0.001144	0.113507
O6	O	1.305141	0.120222	0.113494
O7	O	1.667322	0.109720	0.113498
Zn8	Zn	1.486230	0.114971	0.149534
Zn9	Zn	1.486248	0.114971	-0.149525
O10	O	1.488384	0.228798	0.113485
C11	C	1.258578	0.119458	0.000002
C12	C	1.119813	0.117171	0.000000
C13	C	0.921485	0.046141	0.000005
C14	C	1.064907	0.048503	0.000006
C15	C	1.480171	-0.028006	0.000015
C16	C	1.468489	-0.114864	0.000015
C17	C	1.575744	-0.164385	0.000018
C18	C	1.564760	-0.245996	0.000005
C19	C	1.446520	-0.278084	-0.000002
C20	C	1.339256	-0.228557	-0.000009
C21	C	1.350241	-0.146947	-0.000005
C22	C	1.407711	-0.524057	-0.000021
C23	C	1.396734	-0.605673	-0.000020
C24	C	1.622239	-0.623107	-0.000009
C25	C	1.633214	-0.541495	0.000002
C26	C	1.525950	-0.491974	-0.000012
C27	C	1.435289	-0.361504	-0.000011
C28	C	1.537182	-0.408556	-0.000013
C29	C	1.713900	0.110484	0.000005
C30	C	1.852666	0.112771	-0.000003
C31	C	1.492307	0.257948	-0.000009
C32	C	1.503989	0.344806	-0.000017
N33	N	1.486226	0.114970	0.353634
N34	N	1.486261	0.114966	-0.353624
C35	C	1.561337	0.064752	0.421416
C36	C	1.561356	0.064749	0.578579
H37	H	1.060664	0.174215	-0.000011
H38	H	1.625623	0.021757	0.363099
C39	C	0.915732	0.191148	-0.000299
C40	C	0.990152	0.196485	-0.117095
C41	C	1.048249	0.268682	-0.117428
H42	H	0.966391	0.194987	0.078761
H43	H	0.853992	0.232667	-0.000381
H44	H	1.051885	0.154978	-0.117001
H45	H	0.939523	0.192661	-0.196174
H46	H	0.986509	0.310201	-0.117509
H47	H	1.098902	0.272515	-0.038363
H48	H	1.098741	0.272316	-0.196678
C49	C	1.647314	0.007506	0.656217
C50	C	1.771446	0.020668	0.621557
C51	C	1.850666	-0.032046	0.693065
H52	H	1.628159	-0.044789	0.632931
H53	H	1.636016	0.015126	0.751532
H54	H	1.782737	0.013041	0.526263
H55	H	1.790639	0.072952	0.644846
H56	H	1.839369	-0.024426	0.788380
H57	H	1.831500	-0.084337	0.669773
H58	H	1.934898	-0.023118	0.669568
H59	H	1.421957	0.157965	0.588095
H60	H	1.633453	-0.382426	-0.000038
C61	C	1.400357	0.172331	0.431137
C62	C	1.331036	0.218648	0.338146
C63	C	1.251905	0.271492	0.409487
H64	H	1.448786	0.205108	0.486876
H65	H	1.345253	0.143977	0.486860
H66	H	1.386133	0.247001	0.282446
H67	H	1.282582	0.185893	0.282404
H68	H	1.196801	0.243137	0.465210
H69	H	1.300344	0.304263	0.465223
H70	H	1.204853	0.302919	0.346404
C71	C	1.704234	-0.129701	-0.000050
C72	C	1.795811	-0.190542	-0.000091
C73	C	1.914193	-0.158624	-0.000179
H74	H	1.713385	-0.098241	0.079082
H75	H	1.713274	-0.098247	-0.079236
H76	H	1.786776	-0.221982	0.079087
H77	H	1.786701	-0.222006	-0.079217
H78	H	1.923232	-0.127170	-0.079365
H79	H	1.923330	-0.127164	0.078954
H80	H	1.976342	-0.199899	-0.000219
H81	H	1.242982	-0.254689	-0.000022
H82	H	0.874224	-0.012652	0.000031
H83	H	1.124063	-0.008538	0.000004
C84	C	1.681102	-0.299859	0.000218
C85	C	1.681354	-0.347245	0.116969
C86	C	1.788503	-0.396881	0.117197
H87	H	1.753190	-0.269161	0.000298
H88	H	1.681512	-0.332096	-0.078901
H89	H	1.680956	-0.315012	0.196067
H90	H	1.609290	-0.377959	0.116914
H91	H	1.788913	-0.429118	0.038078
H92	H	1.860583	-0.366177	0.117273
H93	H	1.788683	-0.429044	0.196404
C94	C	1.738735	-0.676834	0.000270
C95	C	1.809410	-0.662262	0.117063
C96	C	1.916731	-0.711747	0.117369
H97	H	1.787007	-0.667080	-0.078792
H98	H	1.715315	-0.730045	0.000338
H99	H	1.832832	-0.609063	0.116982
H100	H	1.761176	-0.672021	0.196144
H101	H	1.893311	-0.764959	0.117437
H102	H	1.964992	-0.701990	0.038302
H103	H	1.964692	-0.701872	0.196617
H104	H	1.339017	-0.387640	-0.000013
H105	H	1.300443	-0.631796	-0.000003
C106	C	1.291107	-0.470430	0.000055
C107	C	1.185211	-0.516002	0.000095
C108	C	1.077769	-0.466625	0.000189
H109	H	1.290523	-0.438210	-0.079075
H110	H	1.290633	-0.438248	0.079243
H111	H	1.185685	-0.548171	-0.079085
H112	H	1.185754	-0.548221	0.079219
H113	H	1.077294	-0.434442	0.079377
H114	H	1.077198	-0.434407	-0.078942
H115	H	1.005906	-0.497538	0.000229
H116	H	1.729498	-0.515375	0.000007
H117	H	1.262902	-0.106627	-0.000008
