data_functionalizedCrystal
_audit_creation_method	'MofGen! by Chris Wilmer'
_symmetry_space_group_name_H-M	'P1'
_symmetry_Int_Tables_number	1
_symmetry_cell_setting	triclinic
loop_
_symmetry_equiv_pos_as_xyz
  x,y,z
_cell_length_a	17.699083
_cell_length_b	23.532407
_cell_length_c	16.176319
_cell_angle_alpha	89.988536
_cell_angle_beta	89.998611
_cell_angle_gamma	83.065847
loop_
_atom_site_label
_atom_site_type_symbol
_atom_site_fract_x
_atom_site_fract_y
_atom_site_fract_z
O1	O	1.003713	0.072020	-0.068639
O2	O	1.503713	0.572020	0.431361
O3	O	0.783287	0.081390	-0.068667
O4	O	1.283287	0.581390	0.431333
O5	O	0.900147	-0.006208	-0.068637
O6	O	1.400147	0.493792	0.431363
O7	O	0.886853	0.159618	-0.068669
O8	O	1.386853	0.659618	0.431331
O9	O	0.900131	-0.006213	0.068856
O10	O	1.400131	0.493787	0.568856
O11	O	0.783271	0.081384	0.068826
O12	O	1.283271	0.581384	0.568826
O13	O	1.003697	0.072014	0.068854
O14	O	1.503697	0.572014	0.568854
Cu15	Cu	0.893483	0.076699	0.081394
Cu16	Cu	1.393483	0.576699	0.581394
Cu17	Cu	0.893502	0.076705	-0.081207
Cu18	Cu	1.393502	0.576705	0.418793
O19	O	0.886837	0.159612	0.068824
O20	O	1.386837	0.659612	0.568824
C21	C	0.755084	0.081051	0.000076
C22	C	1.255084	0.581051	0.500076
C23	C	0.671071	0.080044	0.000066
C24	C	1.171071	0.580044	0.500066
C25	C	0.622189	0.131462	0.000056
C26	C	1.122189	0.631462	0.500056
C27	C	0.543251	0.130512	0.000067
C28	C	1.043251	0.630512	0.500067
C29	C	0.513196	0.078144	0.000082
C30	C	1.013196	0.578144	0.500082
C31	C	0.562084	0.026722	0.000094
C32	C	1.062084	0.526722	0.500094
C33	C	0.641021	0.027672	0.000089
C34	C	1.141021	0.527672	0.500089
C35	C	0.243740	0.022888	0.000115
C36	C	0.743740	0.522888	0.500115
C37	C	0.164797	0.021942	0.000117
C38	C	0.664797	0.521942	0.500117
C39	C	0.145970	0.125728	0.000093
C40	C	0.645970	0.625728	0.500093
C41	C	0.224907	0.126678	0.000088
C42	C	0.724907	0.626678	0.500088
C43	C	0.273788	0.075257	0.000105
C44	C	0.773788	0.575257	0.500105
C45	C	0.359382	0.076287	0.000094
C46	C	0.859382	0.576287	0.500094
C47	C	0.427603	0.077113	0.000086
C48	C	0.927603	0.577113	0.500086
C49	C	0.899801	-0.027427	0.000111
C50	C	1.399801	0.472573	0.500111
C51	C	0.898783	-0.090647	0.000118
C52	C	1.398783	0.409353	0.500118
C53	C	0.961554	-0.489570	0.000080
C54	C	1.461554	0.010430	0.500080
C55	C	0.960609	-0.548973	0.000074
C56	C	1.460609	-0.048973	0.500074
O57	O	1.018799	-0.585550	0.000051
O58	O	1.518799	-0.085550	0.500051
N59	N	0.891136	-0.571799	0.000066
N60	N	1.391136	-0.071799	0.500066
C61	C	0.822604	-0.535218	0.000055
C62	C	1.322604	-0.035218	0.500055
O63	O	0.763424	-0.560088	0.000047
O64	O	1.263424	-0.060088	0.500047
C65	C	0.823550	-0.475816	0.000056
C66	C	1.323550	0.024184	0.500056
C67	C	0.893028	-0.452994	0.000073
C68	C	1.393028	0.047006	0.500073
C69	C	1.031026	-0.466747	0.000096
C70	C	1.531026	0.033253	0.500096
C71	C	1.031972	-0.407348	0.000104
C72	C	1.531972	0.092652	0.500104
C73	C	0.963445	-0.370772	0.000096
C74	C	1.463445	0.129228	0.500096
C75	C	0.893973	-0.393595	0.000080
C76	C	1.393973	0.106405	0.500080
C77	C	0.755019	-0.439237	0.000040
C78	C	1.255019	0.060763	0.500040
C79	C	0.755971	-0.379832	0.000039
C80	C	1.255971	0.120168	0.500039
C81	C	0.825448	-0.357009	0.000056
C82	C	1.325448	0.142991	0.500056
C83	C	0.826391	-0.297620	0.000081
C84	C	1.326391	0.202380	0.500081
N85	N	0.895864	-0.274795	0.000089
N86	N	1.395864	0.225205	0.500089
C87	C	0.964391	-0.311371	0.000097
C88	C	1.464391	0.188629	0.500097
C89	C	0.820622	-0.659966	0.000053
C90	C	1.320622	-0.159966	0.500053
C91	C	0.819674	-0.719367	0.000058
C92	C	1.319674	-0.219367	0.500058
C93	C	0.957680	-0.733118	0.000075
C94	C	1.457680	-0.233118	0.500075
C95	C	0.958626	-0.673716	0.000076
C96	C	1.458626	-0.173716	0.500076
C97	C	0.890095	-0.637141	0.000061
C98	C	1.390095	-0.137141	0.500061
C99	C	0.966371	-0.186628	0.000114
C100	C	1.466371	0.313372	0.500114
C101	C	0.967310	-0.127223	0.000125
C102	C	1.467310	0.372777	0.500125
C103	C	0.829305	-0.113478	0.000104
C104	C	1.329305	0.386522	0.500104
C105	C	0.828365	-0.172877	0.000097
C106	C	1.328365	0.327123	0.500097
C107	C	0.896904	-0.209452	0.000099
C108	C	1.396904	0.290548	0.500099
O109	O	0.768232	-0.261008	0.000100
O110	O	1.268232	0.238992	0.500100
O111	O	1.023560	-0.286493	0.000094
O112	O	1.523560	0.213507	0.500094
C113	C	1.031901	0.072353	0.000109
C114	C	1.531901	0.572353	0.500109
C115	C	1.115914	0.073360	0.000114
C116	C	1.615914	0.573360	0.500114
C117	C	0.887184	0.180832	0.000073
C118	C	1.387184	0.680832	0.500073
C119	C	0.888202	0.244052	0.000062
C120	C	1.388202	0.744052	0.500062
N121	N	0.893475	0.076694	0.195759
N122	N	1.393475	0.576694	0.695759
N123	N	0.893516	0.076706	-0.195573
N124	N	1.393516	0.576706	0.304427
C125	C	0.945236	0.037921	0.239037
C126	C	1.445236	0.537921	0.739037
C127	C	0.945240	0.037921	0.325584
C128	C	1.445240	0.537921	0.825584
C129	C	0.893486	0.076696	0.368852
C130	C	1.393486	0.576696	0.868852
C131	C	0.841719	0.115470	0.325568
C132	C	1.341719	0.615470	0.825568
C133	C	0.841713	0.115467	0.239023
C134	C	1.341713	0.615467	0.739023
C135	C	0.841745	0.115481	0.674597
C136	C	1.341745	0.615481	1.174597
C137	C	0.841758	0.115481	0.761148
C138	C	1.341758	0.615481	1.261148
C139	C	0.945273	0.037934	0.761158
C140	C	1.445273	0.537934	1.261158
C141	C	0.945266	0.037932	0.674612
C142	C	1.445266	0.537932	1.174612
C143	C	0.893497	0.076704	0.631336
C144	C	1.393497	0.576704	1.131336
C145	C	0.893493	0.076703	0.537492
C146	C	1.393493	0.576703	1.037492
C147	C	0.893493	0.076700	0.462695
C148	C	1.393493	0.576700	0.962695
H149	H	0.249373	0.169322	0.000072
H150	H	0.749373	0.669322	0.500072
H151	H	0.646653	0.174106	0.000044
H152	H	1.146653	0.674106	0.500044
O153	O	0.132378	-0.034545	0.000139
O154	O	0.632378	0.465455	0.500139
H155	H	0.096859	-0.037452	0.056178
H156	H	0.596859	0.462548	0.556178
H157	H	0.764811	-0.630189	0.000048
H158	H	1.264811	-0.130189	0.500048
H159	H	0.763099	-0.737943	0.000059
H160	H	1.263099	-0.237943	0.500059
H161	H	0.283530	-0.018983	0.000129
H162	H	0.783530	0.481017	0.500129
H163	H	0.773512	-0.083687	0.000101
H164	H	1.273512	0.416313	0.500101
O165	O	0.682052	-0.340383	0.000026
O166	O	1.182052	0.159617	0.500026
H167	H	0.679174	-0.312998	0.056066
H168	H	1.179174	0.187002	0.556066
O169	O	0.680082	-0.463844	0.000019
O170	O	1.180082	0.036156	0.500019
H171	H	0.632598	-0.428422	0.000003
H172	H	1.132598	0.071578	0.500003
O173	O	0.785889	0.157288	0.192338
O174	O	1.285889	0.657288	0.692338
H175	H	0.749907	0.184256	0.236963
H176	H	1.249907	0.684256	0.736963
O177	O	0.753432	-0.197499	0.000082
O178	O	1.253432	0.302501	0.500082
H179	H	0.705940	-0.162083	0.000074
H180	H	1.205940	0.337917	0.500074
O181	O	0.529674	-0.029763	0.000113
O182	O	1.029674	0.470237	0.500113
H183	H	0.466571	-0.021787	0.000107
H184	H	0.966571	0.478213	0.500107
O185	O	0.093244	0.181191	0.000084
O186	O	0.593244	0.681191	0.500084
H187	H	0.127406	0.217764	0.000063
H188	H	0.627406	0.717764	0.500063
H189	H	1.086833	-0.496522	0.000099
H190	H	1.586833	0.003478	0.500099
O191	O	0.490525	0.185970	0.000057
O192	O	0.990525	0.685970	0.500057
H193	H	0.524686	0.222544	0.000036
H194	H	1.024686	0.722544	0.500036
O195	O	1.001109	-0.003885	0.807839
O196	O	1.501109	0.496115	1.307839
H197	H	1.037103	-0.030841	0.763211
H198	H	1.537103	0.469159	1.263211
H199	H	0.987387	0.006349	0.360820
H200	H	1.487387	0.506349	0.860820
H201	H	0.987383	0.006349	0.203814
H202	H	1.487383	0.506349	0.703814
H203	H	0.799576	0.147040	0.360802
H204	H	1.299576	0.647040	0.860802
H205	H	0.987411	0.006359	0.639386
H206	H	1.487411	0.506359	1.139386
O207	O	0.785946	0.157313	0.807821
O208	O	1.285946	0.657313	1.307821
H209	H	0.749947	0.184274	0.763190
H210	H	1.249947	0.684274	1.263190
O211	O	0.693749	-0.027785	0.000097
O212	O	1.193749	0.472215	0.500097
H213	H	0.659590	-0.064360	0.000100
H214	H	1.159590	0.435640	0.500100
O215	O	1.042249	-0.102607	0.000131
O216	O	1.542249	0.397393	0.500131
H217	H	1.089739	-0.138024	0.000122
H218	H	1.589739	0.361976	0.500122
O219	O	1.033566	-0.649107	0.000082
O220	O	1.533566	-0.149107	0.500082
H221	H	1.037303	-0.622383	0.056123
H222	H	1.537303	-0.122383	0.556123
O223	O	0.785916	0.157301	0.627926
O224	O	1.285916	0.657301	1.127926
H225	H	0.795232	0.201688	0.644516
H226	H	1.295232	0.701688	1.144516
H227	H	1.022182	-0.216401	0.000113
H228	H	1.522182	0.283599	0.500113
H229	H	1.088547	-0.388773	0.000114
H230	H	1.588547	0.111227	0.500114
H231	H	1.013478	-0.762909	0.000079
H232	H	1.513478	-0.262909	0.500079
