data_functionalizedCrystal
_audit_creation_method	'MofGen! by Chris Wilmer'
_symmetry_space_group_name_H-M	'P1'
_symmetry_Int_Tables_number	1
_symmetry_cell_setting	triclinic
loop_
_symmetry_equiv_pos_as_xyz
  x,y,z
_cell_length_a	15.944551
_cell_length_b	10.723023
_cell_length_c	14.421503
_cell_angle_alpha	89.994951
_cell_angle_beta	89.990248
_cell_angle_gamma	83.983143
loop_
_atom_site_label
_atom_site_type_symbol
_atom_site_fract_x
_atom_site_fract_y
_atom_site_fract_z
O1	O	0.117812	1.655701	-0.077111
O2	O	0.129089	1.292406	-0.077114
O3	O	0.001232	1.483974	-0.077104
O4	O	0.245668	1.464133	-0.077121
O5	O	0.001218	1.483957	0.077119
O6	O	0.129075	1.292389	0.077109
O7	O	0.117798	1.655684	0.077112
Cu8	Cu	0.123435	1.474035	0.091193
Cu9	Cu	0.123452	1.474055	-0.091194
O10	O	0.245655	1.464115	0.077102
C11	C	0.128262	1.245908	-0.000002
C12	C	0.125807	1.107385	-0.000003
C13	C	-0.030073	1.483142	0.000008
C14	C	-0.123333	1.480673	0.000008
C15	C	0.124719	1.045636	-0.079896
C16	C	0.122182	0.902465	-0.079898
C17	C	-0.338903	1.356027	-0.000006
C18	C	-0.399596	1.413900	0.076036
C19	C	-0.294085	1.476205	0.000001
C20	C	-0.399566	1.413945	-0.076016
C21	C	-0.459022	1.471881	-0.000010
C22	C	-0.353549	1.534111	0.076106
C23	C	-0.353513	1.534139	-0.076015
C24	C	-0.414188	1.592100	0.000046
C25	C	-0.199068	1.478693	0.000008
C26	C	-0.554038	1.469403	-0.000010
C27	C	0.276960	1.464948	-0.000012
C28	C	0.370220	1.467417	-0.000018
C29	C	0.118625	1.702182	-0.000001
C30	C	0.121080	1.840705	-0.000007
N31	N	0.123423	1.474029	0.219474
N32	N	0.123457	1.474071	-0.219476
C33	C	0.063824	1.561946	0.530907
C34	C	0.139639	1.587181	0.469066
C35	C	0.123447	1.474057	0.591363
C36	C	0.047623	1.448866	0.469110
C37	C	0.123431	1.474047	0.408641
C38	C	0.199301	1.499349	0.530882
C39	C	0.107235	1.360985	0.530932
C40	C	0.183105	1.386173	0.469119
C41	C	0.123456	1.474066	0.696624
C42	C	0.123432	1.474037	0.303383
H43	H	0.125671	1.098764	-0.148293
H44	H	0.121245	0.849363	-0.148297
Br45	Br	-0.319763	1.618756	0.183372
H46	H	0.122011	0.893800	0.068396
Br47	Br	-0.059242	1.413351	0.423888
H48	H	-0.333086	1.584934	-0.140305
H49	H	0.124864	1.054256	0.068394
H50	H	-0.306167	1.256274	0.000070
Br51	Br	-0.433605	1.329173	0.183187
Br52	Br	-0.468505	1.758505	0.000112
Br53	Br	-0.433530	1.329201	-0.183156
Br54	Br	-0.020110	1.685907	0.576129
H55	H	0.153351	1.682799	0.441891
Br56	Br	0.306191	1.535046	0.575911
H57	H	0.093499	1.265396	0.558127
Br58	Br	0.267220	1.262280	0.424178
