data_functionalizedCrystal
_audit_creation_method	'MofGen! by Chris Wilmer'
_symmetry_space_group_name_H-M	'P1'
_symmetry_Int_Tables_number	1
_symmetry_cell_setting	triclinic
loop_
_symmetry_equiv_pos_as_xyz
  x,y,z
_cell_length_a	27.435584
_cell_length_b	27.434948
_cell_length_c	27.431174
_cell_angle_alpha	60.005483
_cell_angle_beta	60.011353
_cell_angle_gamma	59.993028
loop_
_atom_site_label
_atom_site_type_symbol
_atom_site_fract_x
_atom_site_fract_y
_atom_site_fract_z
O1	O	0.067437	-0.712144	0.595551
O2	O	0.025356	-0.554453	0.479848
O3	O	0.125206	-0.654236	0.479781
O4	O	-0.032412	-0.612361	0.595618
O5	O	0.158328	-0.621117	0.512835
O6	O	0.058479	-0.521333	0.512902
O7	O	0.100560	-0.679025	0.628605
Zn8	Zn	0.084778	-0.594921	0.576001
Zn9	Zn	0.041138	-0.638557	0.532452
O10	O	0.000710	-0.579241	0.628672
N11	N	0.114563	-0.565144	0.605726
N12	N	0.011358	-0.668338	0.502727
C13	C	0.156385	-0.523520	0.904506
C14	C	0.413419	-0.523497	0.647322
C15	C	0.156253	-0.523488	0.647384
C16	C	0.156238	-0.266354	0.647407
C17	C	0.197637	-0.390463	0.688753
C18	C	0.197646	-0.482126	0.688741
C19	C	0.220575	-0.459215	0.711654
C20	C	0.320555	-0.441991	0.659023
C21	C	0.383051	-0.462825	0.638179
C22	C	0.383069	-0.563942	0.676737
C23	C	0.320575	-0.543107	0.697583
C24	C	0.212704	-0.359206	0.627313
C25	C	0.191849	-0.296705	0.606496
C26	C	0.140866	-0.296722	0.708562
C27	C	0.161721	-0.359223	0.729379
C28	C	0.136200	-0.467030	0.703858
C29	C	0.115361	-0.487857	0.683021
C30	C	0.217408	-0.538877	0.631968
C31	C	0.238249	-0.518050	0.652796
C32	C	0.136259	-0.467047	0.811668
C33	C	0.115461	-0.487892	0.874167
C34	C	0.217537	-0.538923	0.874131
C35	C	0.238333	-0.518080	0.811631
C36	C	0.197693	-0.482140	0.780401
C37	C	0.289320	-0.482131	0.688723
C38	C	0.132699	-0.546027	0.973247
C39	C	0.482158	-0.545613	0.624075
C40	C	0.132521	-0.546006	0.624886
C41	C	0.132917	-0.197607	0.625310
C42	C	-0.098217	-0.686189	0.484419
C43	C	-0.006438	-0.686322	0.392891
C44	C	-0.006621	-0.777944	0.484592
C45	C	-0.006606	-0.686315	0.484649
C46	C	-0.029470	-0.709193	0.461638
N47	N	0.538410	-0.565162	0.605628
O48	O	0.742647	-0.575135	0.458625
O49	O	0.742821	-0.691181	0.616169
O50	O	0.742757	-0.690917	0.516248
O51	O	0.742711	-0.575399	0.558546
O52	O	0.643472	-0.657878	0.549405
O53	O	0.643536	-0.658142	0.649326
O54	O	0.643362	-0.542096	0.491782
Zn55	Zn	0.627685	-0.594873	0.575818
Zn56	Zn	0.758498	-0.638404	0.532133
O57	O	0.643426	-0.542360	0.591702
N58	N	0.847774	-0.668115	0.502317
N59	N	0.114542	-0.141354	0.605766
O60	O	-0.032397	0.062987	0.595660
O61	O	0.125155	0.062987	0.479633
O62	O	0.025219	0.062974	0.479910
O63	O	0.067539	0.063001	0.595383
O64	O	0.058343	-0.036320	0.513009
O65	O	0.158279	-0.036306	0.512732
O66	O	0.000728	-0.036306	0.628759
Zn67	Zn	0.084763	-0.052071	0.576000
Zn68	Zn	0.041120	0.078752	0.532392
O69	O	0.100664	-0.036292	0.628482
N70	N	0.011333	0.168036	0.502628
N71	N	0.114782	-0.565197	1.029501
O72	O	0.104681	-0.712124	1.233827
O73	O	-0.011334	-0.554523	1.233839
O74	O	-0.011066	-0.654443	1.233797
O75	O	0.104414	-0.612204	1.233869
O76	O	0.022028	-0.621336	1.134509
O77	O	0.021760	-0.521417	1.134551
O78	O	0.137775	-0.679018	1.134539
Zn79	Zn	0.085022	-0.594961	1.118780
Zn80	Zn	0.041420	-0.638580	1.249597
O81	O	0.137508	-0.579098	1.134580
N82	N	0.011658	-0.668350	1.338876
C83	C	0.037974	-0.518023	0.480435
C84	C	0.161625	-0.641592	0.480351
C85	C	0.087941	-0.715455	0.628017
C86	C	-0.035710	-0.591885	0.628101
C87	C	0.693199	-0.690642	0.652596
C88	C	0.693122	-0.690315	0.528855
C89	C	0.692981	-0.542634	0.455356
C90	C	0.693062	-0.542961	0.579095
C91	C	0.161524	0.013463	0.480164
C92	C	0.037807	0.013324	0.480547
C93	C	-0.035683	0.013341	0.628188
C94	C	0.088076	0.013357	0.627845
C95	C	-0.010764	-0.518114	1.184196
C96	C	-0.010426	-0.641846	1.184125
C97	C	0.137205	-0.715426	1.184182
C98	C	0.136875	-0.591687	1.184231
H99	H	0.065433	-0.475593	0.899616
H100	H	0.028745	0.013321	0.444270
O101	O	0.693034	-0.733557	0.518068
C102	C	0.641614	-0.762059	0.491773
C103	C	0.641632	-0.713043	0.503988
H104	H	0.600066	-0.745488	0.480374
H105	H	0.641627	-0.803770	0.533167
H106	H	0.683166	-0.773194	0.452690
H107	H	0.600088	-0.701857	0.543050
H108	H	0.641650	-0.671363	0.462563
O109	O	0.098772	0.013389	0.671183
C110	C	0.059762	0.013359	0.771781
C111	C	0.047564	0.013337	0.722749
H112	H	0.018373	0.013304	0.813488
H113	H	0.071094	0.054925	0.755270
H114	H	0.098872	-0.028183	0.782894
H115	H	0.008447	0.054850	0.711614
H116	H	0.036267	-0.028257	0.739286
H117	H	0.693053	-0.506675	0.588146
H118	H	0.693242	-0.727072	0.697844
O119	O	0.027300	-0.464035	0.437006
C120	C	0.021771	-0.410589	0.337560
C121	C	0.033887	-0.471768	0.386686
H122	H	0.027079	-0.416818	0.296870
H123	H	0.054862	-0.389068	0.324452
H124	H	-0.025647	-0.380579	0.355012
H125	H	0.081288	-0.501823	0.369276
H126	H	0.000758	-0.493241	0.399788
O127	O	-0.054145	-0.464067	1.184119
C128	C	-0.082987	-0.357860	1.132677
C129	C	-0.033802	-0.419029	1.132697
H130	H	-0.066562	-0.321433	1.091100
H131	H	-0.094259	-0.349072	1.174210
H132	H	-0.124575	-0.357800	1.132687
H133	H	0.007817	-0.419134	1.132666
H134	H	-0.022582	-0.427793	1.091167
O135	O	-0.089707	0.013379	0.671569
C136	C	-0.188048	0.013358	0.699335
C137	C	-0.126897	0.013323	0.650151
H138	H	-0.218130	0.013299	0.682041
H139	H	-0.209519	0.054931	0.712335
H140	H	-0.181751	-0.028177	0.740062
H141	H	-0.133143	0.054830	0.609392
H142	H	-0.105447	-0.028278	0.637202
O143	O	0.215673	-0.652328	0.437025
C144	C	0.313967	-0.723086	0.409422
C145	C	0.252791	-0.711004	0.458545
H146	H	0.343990	-0.770529	0.426798
H147	H	0.335488	-0.690017	0.396374
H148	H	0.307695	-0.717666	0.368706
H149	H	0.259011	-0.716432	0.499294
H150	H	0.231290	-0.744070	0.471543
O151	O	0.098747	-0.769536	0.671297
C152	C	0.169591	-0.867812	0.698781
C153	C	0.157428	-0.806597	0.649711
H154	H	0.217037	-0.897789	0.681351
H155	H	0.136547	-0.889363	0.711831
H156	H	0.164201	-0.861585	0.739509
H157	H	0.162826	-0.812772	0.608951
H158	H	0.190470	-0.785067	0.636711
O159	O	-0.053616	-0.652692	1.184022
C160	C	-0.080902	-0.723592	1.183941
C161	C	-0.031933	-0.711385	1.184043
H162	H	-0.063394	-0.771049	1.183971
H163	H	-0.093915	-0.690562	1.142360
H164	H	-0.121672	-0.718213	1.225464
H165	H	0.008869	-0.716772	1.142548
H166	H	-0.018971	-0.744413	1.225652
O167	O	0.692940	-0.499239	0.401340
C168	C	0.692812	-0.471465	0.303021
C169	C	0.692874	-0.520666	0.364161
H170	H	0.692746	-0.488766	0.272949
H171	H	0.734349	-0.458418	0.281522
H172	H	0.651248	-0.430764	0.309347
H173	H	0.734410	-0.561399	0.357888
H174	H	0.651310	-0.533663	0.385640
O175	O	0.180642	-0.769420	1.184098
C176	C	0.243790	-0.841306	1.132619
C177	C	0.194587	-0.780155	1.132649
H178	H	0.255088	-0.850000	1.091021
H179	H	0.227385	-0.877787	1.174131
H180	H	0.285357	-0.841383	1.132667
H181	H	0.153002	-0.780019	1.132580
H182	H	0.211041	-0.743701	1.091141
O183	O	-0.089690	-0.581178	0.671518
C184	C	-0.161588	-0.520764	0.734469
C185	C	-0.100440	-0.532833	0.685307
H186	H	-0.170305	-0.481669	0.745624
H187	H	-0.161736	-0.562207	0.776133
H188	H	-0.198015	-0.509457	0.718013
H189	H	-0.063979	-0.544126	0.701707
H190	H	-0.100343	-0.491381	0.643653
O191	O	0.215444	0.013713	0.436671
C192	C	0.321729	-0.037258	0.407473
C193	C	0.260704	-0.037606	0.456781
H194	H	0.358337	-0.078751	0.423709
H195	H	0.330282	0.004362	0.396331
H196	H	0.321736	-0.037144	0.365853
H197	H	0.260652	-0.037741	0.498431
H198	H	0.252175	-0.079222	0.467871
O199	O	0.096697	-0.432163	0.781424
C200	C	-0.006744	-0.383714	0.788056
C201	C	0.037990	-0.423234	0.822381
H202	H	-0.054218	-0.376473	0.821155
H203	H	0.000397	-0.406602	0.758811
H204	H	0.000477	-0.338773	0.758783
H205	H	0.030796	-0.468182	0.851686
H206	H	0.030838	-0.400299	0.851588
O207	O	0.257097	-0.573840	0.904371
C208	C	0.360540	-0.622209	0.897731
C209	C	0.315802	-0.582673	0.863411
H210	H	0.408012	-0.629353	0.864630
H211	H	0.353409	-0.667195	0.926971
H212	H	0.353313	-0.599311	0.927009
H213	H	0.323002	-0.605519	0.834101
H214	H	0.322944	-0.537690	0.834209
H215	H	0.173154	-0.582650	1.184245
H216	H	0.288361	-0.530376	0.786177
H217	H	0.103135	-0.437780	0.733124
H218	H	0.408481	-0.430137	0.613993
H219	H	0.204115	-0.271255	0.556464
O220	O	0.055669	-0.473271	0.697805
C221	C	-0.037905	-0.478031	0.777064
C222	C	0.029689	-0.494597	0.760404
H223	H	-0.058932	-0.495254	0.827676
H224	H	-0.045855	-0.499107	0.756044
H225	H	-0.058976	-0.427423	0.759802
H226	H	0.050805	-0.545196	0.777663
H227	H	0.037597	-0.473477	0.781416
O228	O	0.256884	-0.573682	0.596967
C229	C	0.337741	-0.581650	0.504983
C230	C	0.293051	-0.542170	0.544561
H231	H	0.367002	-0.556193	0.462610
H232	H	0.312337	-0.593938	0.492627
H233	H	0.366996	-0.624070	0.530438
H234	H	0.263785	-0.499725	0.519143
H235	H	0.318491	-0.529930	0.556920
O236	O	0.290324	-0.582178	0.726398
C237	C	0.296941	-0.684676	0.762470
C238	C	0.331273	-0.640492	0.729815
H239	H	0.330033	-0.731834	0.765254
H240	H	0.267680	-0.672172	0.736925
H241	H	0.267685	-0.682733	0.809448
H242	H	0.360561	-0.642412	0.682836
H243	H	0.360496	-0.653010	0.755405
H244	H	0.408519	-0.613593	0.683941
O245	O	0.290289	-0.382744	0.650390
C246	C	0.296870	-0.284645	0.609908
C247	C	0.331222	-0.351729	0.619658
H248	H	0.329950	-0.259548	0.585049
H249	H	0.267645	-0.277646	0.654959
H250	H	0.267577	-0.267071	0.582460
H251	H	0.360547	-0.369348	0.647085
H252	H	0.360409	-0.358688	0.574586
H253	H	0.288283	-0.530335	0.640482
H254	H	0.111630	-0.271286	0.741644
O255	O	0.247562	-0.389461	0.587771
C256	C	0.295946	-0.382847	0.484336
C257	C	0.256455	-0.348510	0.529054
H258	H	0.303159	-0.349753	0.436854
H259	H	0.273056	-0.412091	0.491500
H260	H	0.340898	-0.412124	0.491555
H261	H	0.211496	-0.319201	0.521863
H262	H	0.279392	-0.319303	0.521880
H263	H	0.149444	-0.384673	0.779411
