data_functionalizedCrystal
_audit_creation_method	'MofGen! by Chris Wilmer'
_symmetry_space_group_name_H-M	'P1'
_symmetry_Int_Tables_number	1
_symmetry_cell_setting	triclinic
loop_
_symmetry_equiv_pos_as_xyz
  x,y,z
_cell_length_a	14.044191
_cell_length_b	14.044220
_cell_length_c	12.996460
_cell_angle_alpha	89.993022
_cell_angle_beta	89.997003
_cell_angle_gamma	93.190327
loop_
_atom_site_label
_atom_site_type_symbol
_atom_site_fract_x
_atom_site_fract_y
_atom_site_fract_z
O1	O	1.277174	0.230202	-0.085522
O2	O	1.000501	0.221889	-0.085535
O3	O	1.134685	0.087710	-0.085518
O4	O	1.142991	0.364381	-0.085538
O5	O	1.134669	0.087700	0.085616
O6	O	1.000486	0.221880	0.085599
O7	O	1.277158	0.230192	0.085612
Cu8	Cu	1.138820	0.226035	0.101232
Cu9	Cu	1.138839	0.226046	-0.101154
O10	O	1.142975	0.364372	0.085596
C11	C	0.964872	0.218248	0.000031
C12	C	0.858728	0.207401	0.000026
C13	C	0.613270	0.264501	0.000032
C14	C	0.664395	0.187585	0.000036
C15	C	0.772532	0.198613	0.000031
C16	C	0.505123	0.253474	0.000038
C17	C	1.131041	0.052083	0.000049
C18	C	1.120197	-0.054060	0.000050
C19	C	1.100370	-0.248398	0.000034
C20	C	1.177285	-0.299526	0.000034
C21	C	1.166253	-0.407663	0.000026
C22	C	1.111400	-0.140252	0.000043
C23	C	1.312788	0.233834	0.000044
C24	C	1.418931	0.244681	0.000042
C25	C	1.146618	0.399998	0.000026
C26	C	1.157463	0.506142	0.000019
N27	N	1.138814	0.226027	0.243579
N28	N	1.138852	0.226047	-0.243501
C29	C	1.138838	0.226047	0.663393
C30	C	1.138829	0.226045	0.546588
C31	C	1.138826	0.226038	0.453490
C32	C	1.138816	0.226034	0.336677
H33	H	0.650711	0.338628	0.000024
C34	C	1.269068	-0.150094	0.000067
C35	C	1.277366	-0.248990	0.000055
H36	H	1.330852	-0.118894	0.000089
H37	H	1.235386	-0.132144	-0.059611
H38	H	1.235351	-0.132174	0.059745
H39	H	1.311076	-0.266911	-0.059627
H40	H	1.311062	-0.266947	0.059740
C41	C	0.514960	0.095806	0.000022
C42	C	0.613856	0.087506	0.000027
H43	H	0.483759	0.034024	0.000005
H44	H	0.497019	0.129488	0.059701
H45	H	0.497034	0.129525	-0.059656
H46	H	0.631783	0.053793	0.059710
H47	H	0.631804	0.053810	-0.059657
H48	H	1.026242	-0.285837	0.000028
