data_functionalizedCrystal
_audit_creation_method	'MofGen! by Chris Wilmer'
_symmetry_space_group_name_H-M	'P1'
_symmetry_Int_Tables_number	1
_symmetry_cell_setting	triclinic
loop_
_symmetry_equiv_pos_as_xyz
  x,y,z
_cell_length_a	10.540539
_cell_length_b	14.044220
_cell_length_c	12.503572
_cell_angle_alpha	93.843168
_cell_angle_beta	86.448196
_cell_angle_gamma	88.857185
loop_
_atom_site_label
_atom_site_type_symbol
_atom_site_fract_x
_atom_site_fract_y
_atom_site_fract_z
O1	O	1.706103	0.128248	-0.089273
O2	O	1.337964	0.140843	-0.089286
O3	O	1.516507	-0.003476	-0.089269
O4	O	1.527560	0.272567	-0.089290
O5	O	1.503082	0.007396	0.089372
O6	O	1.324539	0.151715	0.089355
O7	O	1.692677	0.139120	0.089368
Cu8	Cu	1.507382	0.146410	0.105673
Cu9	Cu	1.523259	0.133553	-0.105591
O10	O	1.514135	0.283439	0.089351
C11	C	1.504957	-0.033387	0.000052
C12	C	1.490527	-0.138711	0.000052
C13	C	1.283853	0.145334	0.000033
C14	C	1.142620	0.142508	0.000028
C15	C	1.464147	-0.331552	0.000036
C16	C	1.566490	-0.388492	0.000036
C17	C	1.551812	-0.495795	0.000027
C18	C	1.478823	-0.224238	0.000045
C19	C	0.948213	0.034244	0.000453
C20	C	1.095152	0.037084	0.000039
C21	C	1.093743	0.187034	-0.101985
C22	C	0.946840	0.183432	-0.102059
C23	C	0.931301	0.197940	0.101089
C24	C	1.078281	0.198992	0.102426
C25	C	1.746789	0.134629	0.000047
C26	C	1.888023	0.137454	0.000045
C27	C	1.525685	0.313350	0.000028
C28	C	1.540116	0.418673	0.000020
N29	N	1.496224	0.155452	0.254264
N30	N	1.534427	0.124503	-0.254182
C31	C	1.479811	0.168762	0.473377
C32	C	1.550836	0.111196	0.526711
C33	C	1.541703	0.118602	0.648634
C34	C	1.488942	0.161358	0.351444
H35	H	1.365513	-0.363389	0.000030
O36	O	1.697150	-0.346317	0.000052
H37	H	1.754951	-0.374709	-0.072761
H38	H	0.906885	0.258969	-0.106695
H39	H	1.128234	0.001614	0.073166
H40	H	1.138338	-0.007575	-0.073209
H41	H	1.412152	0.223605	0.519278
O42	O	0.897491	-0.015031	0.097361
H43	H	0.792710	-0.020446	0.095717
O44	O	0.909883	-0.026570	-0.095893
H45	H	0.848153	0.016395	-0.144071
O46	O	1.640466	0.038545	0.465910
H47	H	1.739308	0.052501	0.487418
O48	O	0.912024	0.127598	-0.203044
H49	H	1.000064	0.103418	-0.251365
O50	O	1.134101	0.289278	-0.107040
H51	H	1.189561	0.309489	-0.036732
H52	H	0.890495	0.168527	0.178413
O53	O	1.152968	0.134229	-0.202551
H54	H	1.217218	0.076266	-0.180135
O55	O	1.120056	0.155991	0.202402
H56	H	1.186370	0.094648	0.179271
H57	H	1.109815	0.276228	0.108579
O58	O	0.878862	0.298858	0.102015
H59	H	0.822245	0.305952	0.030901
