data_functionalizedCrystal
_audit_creation_method	'MofGen! by Chris Wilmer'
_symmetry_space_group_name_H-M	'P1'
_symmetry_Int_Tables_number	1
_symmetry_cell_setting	triclinic
loop_
_symmetry_equiv_pos_as_xyz
  x,y,z
_cell_length_a	16.625546
_cell_length_b	18.215407
_cell_length_c	18.215399
_cell_angle_alpha	89.980167
_cell_angle_beta	89.970824
_cell_angle_gamma	90.022916
loop_
_atom_site_label
_atom_site_type_symbol
_atom_site_fract_x
_atom_site_fract_y
_atom_site_fract_z
Zn1	Zn	-0.321000	1.125084	-0.416110
Zn2	Zn	0.179000	1.625084	0.083890
Zn3	Zn	-0.455841	1.124998	-0.293041
Zn4	Zn	0.044159	1.624998	0.206959
Zn5	Zn	-0.321027	1.002017	-0.293057
Zn6	Zn	0.178973	1.502017	0.206943
Zn7	Zn	-0.455796	1.001988	-0.416066
Zn8	Zn	0.044204	1.501988	0.083934
O9	O	-0.388416	1.063522	-0.354568
O10	O	0.111584	1.563522	0.145432
O11	O	-0.338895	1.228057	-0.399796
O12	O	0.161105	1.728057	0.100204
O13	O	-0.437987	1.108660	-0.190059
O14	O	0.062013	1.608660	0.309941
O15	O	-0.208191	1.018390	-0.309405
O16	O	0.291809	1.518390	0.190595
O17	O	-0.437961	1.227994	-0.309378
O18	O	0.062039	1.727994	0.190622
O19	O	-0.208171	1.108807	-0.399812
O20	O	0.291829	1.608807	0.100188
O21	O	-0.338940	1.018307	-0.190070
O22	O	0.161060	1.518307	0.309930
O23	O	-0.338896	0.899029	-0.309363
O24	O	0.161104	1.399029	0.190637
O25	O	-0.437885	1.018341	-0.519056
O26	O	0.062115	1.518341	-0.019056
O27	O	-0.437910	0.899008	-0.399737
O28	O	0.062090	1.399008	0.100263
O29	O	-0.338851	1.108779	-0.519088
O30	O	0.161149	1.608779	-0.019088
O31	O	-0.568667	1.108632	-0.309335
O32	O	-0.068667	1.608632	0.190665
O33	O	-0.568634	1.018257	-0.399721
O34	O	-0.068634	1.518257	0.100279
C35	C	-0.388402	0.872315	-0.354547
C36	C	0.111598	1.372315	0.145453
C37	C	-0.388415	0.790517	-0.354556
C38	C	0.111585	1.290517	0.145444
C39	C	-0.440053	0.602331	-0.401554
C40	C	0.059947	1.102331	0.098446
C41	C	-0.440056	0.525472	-0.401563
C42	C	0.059944	1.025472	0.098437
C43	C	-0.336793	0.525465	-0.307598
C44	C	0.163207	1.025465	0.192402
C45	C	-0.336787	0.602322	-0.307593
C46	C	0.163213	1.102322	0.192407
C47	C	-0.388422	0.640753	-0.354570
C48	C	0.111578	1.140753	0.145430
C49	C	-0.388430	0.487037	-0.354584
C50	C	0.111570	0.987037	0.145416
C51	C	-0.388433	0.403703	-0.354594
C52	C	0.111567	0.903703	0.145406
C53	C	-0.388418	0.724092	-0.354562
C54	C	0.111582	1.224092	0.145438
C55	C	-0.597907	1.063452	-0.354537
C56	C	-0.097907	1.563452	0.145463
C57	C	-0.687528	1.063490	-0.354549
C58	C	-0.187528	1.563490	0.145451
C59	C	-1.015703	1.063618	-0.354625
C60	C	-0.515703	1.563618	0.145375
C61	C	-0.924395	1.063580	-0.354606
C62	C	-0.424395	1.563580	0.145394
C63	C	-0.851618	1.063553	-0.354587
C64	C	-0.351618	1.563553	0.145413
C65	C	-0.760304	1.063516	-0.354568
C66	C	-0.260304	1.563516	0.145432
C67	C	-0.178107	1.063612	-0.354615
C68	C	0.321893	1.563612	0.145385
C69	C	-0.088486	1.063650	-0.354635
C70	C	0.411514	1.563650	0.145365
C71	C	-0.388360	1.063567	-0.546521
C72	C	0.111640	1.563567	-0.046521
C73	C	-0.388336	1.063586	-0.628320
C74	C	0.111664	1.563586	-0.128320
C75	C	-0.388430	1.255475	-0.354590
C76	C	0.111570	1.755475	0.145410
C77	C	-0.388436	1.337274	-0.354599
C78	C	0.111564	1.837274	0.145401
C79	C	-0.336721	1.110694	-0.816532
C80	C	0.163279	1.610694	-0.316532
C81	C	-0.336698	1.110703	-0.893391
C82	C	0.163302	1.610703	-0.393391
C83	C	-0.439827	1.016530	-0.893346
C84	C	0.060173	1.516530	-0.393346
C85	C	-0.439846	1.016518	-0.816489
C86	C	0.060154	1.516518	-0.316489
C87	C	-0.388294	1.063604	-0.778084
C88	C	0.111706	1.563604	-0.278084
C89	C	-0.388252	1.063625	-0.931800
C90	C	0.111748	1.563625	-0.431800
C91	C	-0.388227	1.063634	-1.015134
C92	C	0.111773	1.563634	-0.515134
C93	C	-0.388318	1.063594	-0.694745
C94	C	0.111682	1.563594	-0.194745
C95	C	-0.388413	1.063519	-0.163362
C96	C	0.111587	1.563519	0.336638
C97	C	-0.388209	1.063643	-0.081563
C98	C	0.111791	1.563643	0.418437
H99	H	-0.294737	0.633606	-0.269333
H100	H	0.205263	1.133606	0.230667
H101	H	-0.481842	0.978166	-0.785183
H102	H	0.018158	1.478166	-0.285183
C103	C	-0.280831	1.161777	-0.774702
C104	C	0.219169	1.661777	-0.274702
C105	C	-0.291897	1.151703	-0.699163
C106	C	0.208103	1.651703	-0.199163
C107	C	-0.240428	1.198753	-0.660609
C108	C	0.259572	1.698753	-0.160609
H109	H	-0.226621	1.151072	-0.787223
H110	H	0.273379	1.651072	-0.287223
H111	H	-0.292633	1.211239	-0.787261
H112	H	0.207367	1.711239	-0.287261
H113	H	-0.280090	1.102253	-0.686609
H114	H	0.219910	1.602253	-0.186609
H115	H	-0.346096	1.162414	-0.686620
H116	H	0.153904	1.662414	-0.186620
H117	H	-0.252229	1.248215	-0.673168
H118	H	0.247771	1.748215	-0.173168
H119	H	-0.186221	1.188044	-0.673136
H120	H	0.313779	1.688044	-0.173136
H121	H	-0.247934	1.191929	-0.609352
H122	H	0.252066	1.691929	-0.109352
H123	H	-0.294701	1.149047	-0.924692
H124	H	0.205299	1.649047	-0.424692
H125	H	-0.294755	0.494165	-0.269350
H126	H	0.205245	0.994165	0.230650
H127	H	-0.482096	0.633619	-0.439808
H128	H	0.017904	1.133619	0.060192
C129	C	-0.496204	0.483889	-0.452601
C130	C	0.003796	0.983889	0.047399
C131	C	-0.541432	0.533999	-0.493725
C132	C	-0.041432	1.033999	0.006275
C133	C	-0.593173	0.495720	-0.540745
C134	C	-0.093173	0.995720	-0.040745
H135	H	-0.465497	0.453929	-0.484786
H136	H	0.034503	0.953929	0.015214
H137	H	-0.531341	0.453899	-0.424411
H138	H	-0.031341	0.953899	0.075589
H139	H	-0.506299	0.563976	-0.521913
H140	H	-0.006299	1.063976	-0.021913
H141	H	-0.572155	0.563961	-0.461560
H142	H	-0.072155	1.063961	0.038440
H143	H	-0.628310	0.465730	-0.512555
H144	H	-0.128310	0.965730	-0.012555
H145	H	-0.562460	0.465761	-0.572924
H146	H	-0.062460	0.965761	-0.072924
H147	H	-0.623872	0.529714	-0.568648
H148	H	-0.123872	1.029714	-0.068648
C149	C	-0.495769	0.965494	-0.935177
C150	C	0.004231	1.465494	-0.435177
C151	C	-0.484731	0.975596	-1.010716
C152	C	0.015269	1.475596	-0.510716
C153	C	-0.536261	0.928602	-1.049272
C154	C	-0.036261	1.428602	-0.549272
H155	H	-0.484021	0.916020	-0.922665
H156	H	0.015979	1.416020	-0.422665
H157	H	-0.549965	0.976248	-0.922611
H158	H	-0.049965	1.476248	-0.422611
H159	H	-0.430548	0.964837	-1.023277
H160	H	0.069452	1.464837	-0.523277
H161	H	-0.496485	1.025061	-1.023250
H162	H	0.003515	1.525061	-0.523250
H163	H	-0.590457	0.939357	-1.036705
H164	H	-0.090457	1.439357	-0.536705
H165	H	-0.524509	0.879131	-1.036753
H166	H	-0.024509	1.379131	-0.536753
H167	H	-0.528784	0.935455	-1.100528
H168	H	-0.028784	1.435455	-0.600528
