data_functionalizedCrystal
_audit_creation_method	'MofGen! by Chris Wilmer'
_symmetry_space_group_name_H-M	'P1'
_symmetry_Int_Tables_number	1
_symmetry_cell_setting	triclinic
loop_
_symmetry_equiv_pos_as_xyz
  x,y,z
_cell_length_a	17.699083
_cell_length_b	15.995350
_cell_length_c	16.176319
_cell_angle_alpha	89.995430
_cell_angle_beta	89.998611
_cell_angle_gamma	83.387695
loop_
_atom_site_label
_atom_site_type_symbol
_atom_site_fract_x
_atom_site_fract_y
_atom_site_fract_z
O1	O	1.004255	0.105885	-0.068627
O2	O	0.783899	0.119661	-0.068653
O3	O	0.900101	-0.009127	-0.068638
O4	O	0.888054	0.234673	-0.068641
O5	O	0.900085	-0.009135	0.068855
O6	O	0.783883	0.119653	0.068840
O7	O	1.004239	0.105877	0.068867
Cu8	Cu	0.894060	0.112764	0.081408
Cu9	Cu	0.894079	0.112774	-0.081194
O10	O	0.888038	0.234665	0.068852
C11	C	0.755694	0.119163	0.000090
C12	C	0.671673	0.117683	0.000080
C13	C	0.623178	0.193278	0.000079
C14	C	0.544232	0.191882	0.000090
C15	C	0.513783	0.114889	0.000095
C16	C	0.562285	0.039287	0.000098
C17	C	0.641229	0.040685	0.000094
C18	C	0.243912	0.033651	0.000119
C19	C	0.164962	0.032259	0.000121
C20	C	0.146916	0.184848	0.000115
C21	C	0.225860	0.186245	0.000110
C22	C	0.274354	0.110644	0.000118
C23	C	0.359956	0.112159	0.000108
C24	C	0.428183	0.113373	0.000099
C25	C	0.899595	-0.040324	0.000107
C26	C	0.898101	-0.133272	0.000102
C27	C	0.892739	-0.471008	0.000104
C28	C	0.809983	-0.423406	-0.000214
C29	C	0.811476	-0.326719	0.000096
C30	C	0.895399	-0.303453	0.000102
C31	C	0.936208	-0.344618	0.078621
C32	C	0.934129	-0.441250	0.078687
C33	C	0.935857	-0.441602	-0.077669
C34	C	0.935838	-0.344657	-0.078706
C35	C	0.896907	-0.208759	0.000104
C36	C	0.891234	-0.565703	0.000108
C37	C	1.032445	0.106375	0.000122
C38	C	1.116465	0.107856	0.000126
C39	C	0.888544	0.265863	0.000105
C40	C	0.890037	0.358810	0.000104
N41	N	0.894052	0.112757	0.195773
N42	N	0.894092	0.112775	-0.195559
C43	C	0.945521	0.055753	0.239043
C44	C	0.945525	0.055752	0.325591
C45	C	0.894063	0.112760	0.368865
C46	C	0.842588	0.169767	0.325589
C47	C	0.842581	0.169763	0.239043
C48	C	0.842614	0.169782	0.674617
C49	C	0.842626	0.169783	0.761168
C50	C	0.945558	0.055772	0.761164
C51	C	0.945551	0.055768	0.674619
C52	C	0.894074	0.112771	0.631350
C53	C	0.894069	0.112770	0.537505
C54	C	0.894070	0.112765	0.462708
H55	H	0.647962	0.255975	0.000074
C56	C	0.528793	-0.045403	0.000103
H57	H	0.474831	-0.035410	0.000097
H58	H	0.545439	-0.076528	0.048049
H59	H	0.545440	-0.076517	-0.047851
C60	C	0.694574	-0.042470	0.000086
H61	H	0.665134	-0.088525	0.000081
H62	H	0.725749	-0.045103	0.048030
H63	H	0.725741	-0.045091	-0.047870
H64	H	0.504750	0.253440	0.000088
C65	C	1.018280	-0.484681	-0.078384
H66	H	1.026407	-0.520419	-0.031544
H67	H	1.052474	-0.443089	-0.076659
H68	H	1.026801	-0.517132	-0.127385
H69	H	0.908807	-0.462083	-0.137181
C70	C	1.016203	-0.484986	0.083522
H71	H	1.050667	-0.443672	0.085444
H72	H	1.026650	-0.519522	0.036180
H73	H	1.021928	-0.518733	0.131942
C74	C	0.297249	-0.049505	0.000115
H75	H	0.348628	-0.037651	0.000119
H76	H	0.288016	-0.081076	-0.047832
H77	H	0.288020	-0.081085	0.048068
C78	C	0.259353	0.270935	0.000102
H79	H	0.313315	0.260939	0.000091
H80	H	0.242710	0.302054	0.048048
H81	H	0.242706	0.302054	-0.047852
H82	H	0.904358	-0.459494	0.137376
H83	H	0.906001	-0.317344	-0.136792
H84	H	0.800668	0.216180	0.203813
C85	C	1.002139	-0.006952	0.373189
H86	H	0.994768	0.001206	0.430930
H87	H	1.052648	0.002071	0.359001
H88	H	0.993917	-0.062825	0.359009
C89	C	0.131470	-0.052437	0.000135
H90	H	0.171657	-0.097263	0.000148
H91	H	0.101048	-0.056155	-0.047809
H92	H	0.101050	-0.056146	0.048091
H93	H	0.800682	0.216181	0.360828
C94	C	1.019497	-0.325703	0.082582
H95	H	1.030146	-0.292449	0.036276
H96	H	1.052315	-0.377057	0.081858
H97	H	1.027408	-0.295915	0.132054
C98	C	1.018516	-0.324080	-0.085105
H99	H	1.029505	-0.289943	-0.039592
H100	H	1.024932	-0.294745	-0.135217
H101	H	1.052123	-0.374865	-0.084435
H102	H	0.107421	0.246406	0.000113
H103	H	0.779397	-0.298228	-0.056190
H104	H	0.907851	-0.316183	0.137047
H105	H	0.777046	-0.442936	0.055772
H106	H	0.779168	-0.298792	0.056470
C107	C	0.765299	-0.448352	-0.076272
H108	H	0.796708	-0.488026	-0.108514
H109	H	0.750082	-0.399744	-0.108607
H110	H	0.721541	-0.472700	-0.058614
H111	H	0.987471	0.009354	0.796403
H112	H	0.800700	0.216198	0.639394
H113	H	0.987459	0.009350	0.639387
H114	H	0.987431	0.009334	0.203815
H115	H	0.800716	0.216208	0.796401
