data_functionalizedCrystal
_audit_creation_method	'MofGen! by Chris Wilmer'
_symmetry_space_group_name_H-M	'P1'
_symmetry_Int_Tables_number	1
_symmetry_cell_setting	triclinic
loop_
_symmetry_equiv_pos_as_xyz
  x,y,z
_cell_length_a	6.817900
_cell_length_b	19.551823
_cell_length_c	10.773894
_cell_angle_alpha	96.640095
_cell_angle_beta	96.645922
_cell_angle_gamma	101.663376
loop_
_atom_site_label
_atom_site_type_symbol
_atom_site_fract_x
_atom_site_fract_y
_atom_site_fract_z
V1	V	-3.940090	-0.094103	-0.389512
O2	O	-3.938613	0.007164	-0.381497
O3	O	-3.883197	-0.189132	-0.387425
O4	O	-3.857996	-0.091497	-0.559128
O5	O	-3.963989	-0.091148	-0.208605
V6	V	-4.429184	-0.082128	-0.367804
O7	O	-4.189127	-0.120373	-0.437130
O8	O	-4.630344	-0.055858	-0.320186
O9	O	-4.262870	0.012901	-0.369891
O10	O	-4.548057	-0.183395	-0.375819
O11	O	-4.522681	-0.085084	-0.548710
O12	O	-4.288072	-0.084734	-0.198188
C13	C	-3.727222	-0.212335	-0.381429
C14	C	-3.761768	-0.290015	-0.380854
C15	C	-3.958524	-0.330021	-0.386821
C16	C	-3.990985	-0.403011	-0.386293
C17	C	-3.826676	-0.435989	-0.379772
C18	C	-3.629893	-0.395974	-0.373811
C19	C	-3.597439	-0.322987	-0.374352
C20	C	-3.729160	-0.542999	-0.300672
C21	C	-3.761620	-0.615984	-0.300124
C22	C	-3.926768	-0.661106	-0.378109
C23	C	-4.059484	-0.633232	-0.456628
C24	C	-4.027030	-0.560245	-0.457169
C25	C	-3.861847	-0.515131	-0.379186
C26	C	-4.158736	-0.780256	-0.383506
C27	C	-4.191192	-0.853248	-0.382986
C28	C	-3.830092	-0.846208	-0.370491
C29	C	-3.797643	-0.773219	-0.371024
C30	C	-3.961972	-0.740247	-0.377526
C31	C	-3.695074	-0.087790	-0.600452
C32	C	-3.709181	-0.086287	-0.739118
C33	C	-3.887023	-0.088891	-0.806996
C34	C	-3.901606	-0.087338	-0.950315
C35	C	-4.082187	0.036100	-0.375883
C36	C	-4.026878	0.113779	-0.376467
C37	C	-4.114336	-0.088444	-0.156857
C38	C	-4.079469	-0.089943	-0.018190
H39	H	-4.151213	-0.435590	-0.391152
H40	H	-3.760131	-0.083954	-0.998298
C41	C	-3.615637	-0.646639	-0.213762
H42	H	-3.512611	-0.609316	-0.167412
H43	H	-3.688229	-0.671679	-0.156845
H44	H	-3.555972	-0.677827	-0.263758
C45	C	-4.139283	-0.293758	-0.394003
H46	H	-4.261118	-0.328043	-0.397496
H47	H	-4.123575	-0.259527	-0.321363
H48	H	-4.144690	-0.271339	-0.467608
C49	C	-4.270596	-0.094512	-0.953381
H50	H	-4.235730	-0.094963	-0.865559
H51	H	-4.327399	-0.054842	-0.965650
H52	H	-4.366563	-0.136564	-0.988943
C53	C	-3.518072	-0.081724	-0.803936
H54	H	-3.552948	-0.081284	-0.891761
H55	H	-3.422087	-0.039681	-0.768380
H56	H	-3.461294	-0.121404	-0.791671
H57	H	-4.135090	-0.537554	-0.521103
H58	H	-4.292542	-0.753409	-0.388798
C59	C	-4.241126	-0.682858	-0.542437
H60	H	-4.241433	-0.730319	-0.530889
H61	H	-4.363158	-0.671375	-0.521250
H62	H	-4.230814	-0.677503	-0.628121
C63	C	-4.078133	-0.093457	-0.742178
H64	H	-4.043262	-0.093907	-0.654356
H65	H	-4.134931	-0.053786	-0.754447
H66	H	-4.174106	-0.135508	-0.777736
H67	H	-4.351419	-0.885821	-0.387853
H68	H	-3.637423	-0.740645	-0.366157
C69	C	-3.649344	-0.882473	-0.363323
H70	H	-3.527510	-0.848190	-0.359852
H71	H	-3.643923	-0.904901	-0.289738
H72	H	-3.665076	-0.916697	-0.435985
C73	C	-3.547509	-0.493370	-0.214867
H74	H	-3.473144	-0.520421	-0.168011
H75	H	-3.462500	-0.467606	-0.265252
H76	H	-3.594840	-0.461473	-0.158381
H77	H	-3.496114	-0.422830	-0.368505
H78	H	-3.437214	-0.290414	-0.369493
