data_functionalizedCrystal
_audit_creation_method	'MofGen! by Chris Wilmer'
_symmetry_space_group_name_H-M	'P1'
_symmetry_Int_Tables_number	1
_symmetry_cell_setting	triclinic
loop_
_symmetry_equiv_pos_as_xyz
  x,y,z
_cell_length_a	17.019282
_cell_length_b	17.038272
_cell_length_c	9.730223
_cell_angle_alpha	90.004701
_cell_angle_beta	86.122067
_cell_angle_gamma	87.241387
loop_
_atom_site_label
_atom_site_type_symbol
_atom_site_fract_x
_atom_site_fract_y
_atom_site_fract_z
O1	O	1.053361	0.099546	-0.010421
O2	O	1.553361	0.599546	0.489579
O3	O	0.824549	0.112259	0.016672
O4	O	1.324549	0.612259	0.516672
O5	O	0.937595	-0.007912	0.003275
O6	O	1.437595	0.492088	0.503275
O7	O	0.940315	0.219716	0.002975
O8	O	1.440315	0.719716	0.502975
O9	O	0.937587	-0.007915	-0.225304
O10	O	1.437587	0.492085	0.274696
O11	O	0.824541	0.112255	-0.211907
O12	O	1.324541	0.612255	0.288093
O13	O	1.053353	0.099543	-0.239000
O14	O	1.553353	0.599543	0.261000
Zn15	Zn	0.938946	0.105898	-0.261746
Zn16	Zn	1.438946	0.605898	0.238254
Zn17	Zn	0.938956	0.105903	0.039417
Zn18	Zn	1.438956	0.605903	0.539417
O19	O	0.940307	0.219713	-0.225604
O20	O	1.440307	0.719713	0.274396
C21	C	0.795123	0.111777	-0.094134
C22	C	1.295123	0.611777	0.405866
C23	C	0.707456	0.110337	-0.083754
C24	C	1.207456	0.610337	0.416246
C25	C	0.935117	-0.037040	-0.110721
C26	C	1.435117	0.462960	0.389279
C27	C	0.927737	-0.123826	-0.109847
C28	C	1.427737	0.376174	0.390153
C29	C	0.666270	0.109657	-0.203479
C30	C	1.166270	0.609657	0.296521
C31	C	0.583899	0.108292	-0.193729
C32	C	1.083899	0.608292	0.306271
C33	C	0.542714	0.107612	-0.064254
C34	C	1.042714	0.607612	0.435746
C35	C	0.583906	0.108290	0.055480
C36	C	1.083906	0.608290	0.555480
C37	C	0.666276	0.109650	0.045729
C38	C	1.166276	0.609650	0.545729
C39	C	0.294008	0.103502	-0.028579
C40	C	0.794008	0.603502	0.471421
C41	C	0.211632	0.102144	-0.018838
C42	C	0.711632	0.602144	0.481162
C43	C	0.211630	0.102144	-0.268048
C44	C	0.711630	0.602144	0.231952
C45	C	0.294002	0.103509	-0.277788
C46	C	0.794002	0.603509	0.222212
C47	C	0.335187	0.104183	-0.158054
C48	C	0.835187	0.604183	0.341946
C49	C	0.458517	0.106219	-0.054285
C50	C	0.958517	0.606219	0.445715
C51	C	0.419383	0.105570	-0.168024
C52	C	0.919383	0.605570	0.331976
C53	C	0.995497	-0.174002	-0.117871
C54	C	1.495497	0.325998	0.382129
C55	C	0.988558	-0.255546	-0.117037
C56	C	1.488558	0.244454	0.382963
C57	C	0.913858	-0.286913	-0.108187
C58	C	1.413858	0.213087	0.391813
C59	C	0.846093	-0.236730	-0.100158
C60	C	1.346093	0.263270	0.399842
C61	C	0.853033	-0.155188	-0.100983
C62	C	1.353033	0.344812	0.399017
C63	C	0.889340	-0.532648	-0.105265
C64	C	1.389340	-0.032648	0.394735
C65	C	0.882405	-0.614197	-0.104445
C66	C	1.382405	-0.114197	0.395555
C67	C	1.024871	-0.633007	-0.121322
C68	C	1.524871	-0.133007	0.378678
C69	C	1.031804	-0.551462	-0.122154
C70	C	1.531804	-0.051462	0.377846
C71	C	0.964039	-0.501287	-0.114117
C72	C	1.464039	-0.001287	0.385883
C73	C	0.906763	-0.370264	-0.107338
C74	C	1.406763	0.129736	0.392662
C75	C	0.971135	-0.417938	-0.114957
C76	C	1.471135	0.082062	0.385043
C77	C	1.082779	0.100024	-0.128191
C78	C	1.582779	0.600024	0.371809
C79	C	1.170446	0.101464	-0.138563
C80	C	1.670446	0.601464	0.361437
C81	C	0.942785	0.248841	-0.111604
C82	C	1.442785	0.748841	0.388396
C83	C	0.950165	0.335627	-0.112470
C84	C	1.450165	0.835627	0.387530
N85	N	0.938944	0.105895	-0.467282
N86	N	1.438944	0.605895	0.032718
C87	C	0.989021	0.052706	-0.545142
C88	C	1.489021	0.552706	-0.045142
C89	C	0.989029	0.052706	-0.689026
C90	C	1.489029	0.552706	-0.189026
C91	C	0.888882	0.159092	-0.677176
C92	C	1.388882	0.659092	-0.177176
C93	C	0.888870	0.159087	-0.533295
C94	C	1.388870	0.659087	-0.033295
N95	N	0.938964	0.105900	0.244953
N96	N	1.438964	0.605900	0.744953
H97	H	0.550370	0.107725	-0.291223
H98	H	1.050370	0.607725	0.208777
Cl99	Cl	0.718037	0.110516	-0.366257
Cl100	Cl	1.218037	0.610516	0.133743
Cl101	Cl	0.345771	0.104369	-0.440564
Cl102	Cl	0.845771	0.604369	0.059436
H103	H	0.848088	0.202400	-0.469896
H104	H	1.348088	0.702400	0.030104
H105	H	1.056326	-0.148470	-0.125086
H106	H	1.556326	0.351530	0.374914
H107	H	0.550367	0.107731	0.160902
H108	H	1.050367	0.607731	0.660902
H109	H	0.699809	0.110205	0.143223
H110	H	1.199809	0.610205	0.643223
H111	H	0.178101	0.101593	0.086602
H112	H	0.678101	0.601593	0.586602
Cl113	Cl	1.051968	-0.014167	-0.462160
Cl114	Cl	1.551968	0.485833	0.037840
Cl115	Cl	0.471160	0.106422	-0.330787
Cl116	Cl	0.971160	0.606422	0.169213
H117	H	0.327531	0.104048	0.068917
H118	H	0.827531	0.604048	0.568917
Cl119	Cl	1.051983	-0.014165	-0.786903
Cl120	Cl	1.551983	0.485835	-0.286903
Cl121	Cl	0.159851	0.101294	-0.418561
Cl122	Cl	0.659851	0.601294	0.081439
H123	H	0.785270	-0.262275	-0.092943
H124	H	1.285270	0.237725	0.407057
Cl125	Cl	0.825937	0.225962	-0.760171
Cl126	Cl	1.325937	0.725962	-0.260171
Cl127	Cl	1.065040	-0.378503	-0.126074
Cl128	Cl	1.565040	0.121497	0.373926
Cl129	Cl	0.406737	0.105330	0.108479
Cl130	Cl	0.906737	0.605330	0.608479
H131	H	1.043736	-0.296396	-0.123574
H132	H	1.543736	0.203604	0.376426
H133	H	1.092633	-0.525930	-0.129361
H134	H	1.592633	-0.025930	0.370639
H135	H	0.834160	-0.491805	-0.098721
H136	H	1.334160	0.008195	0.401279
H137	H	0.845942	-0.395812	-0.100135
H138	H	1.345942	0.104188	0.399865
Cl139	Cl	1.110056	-0.696088	-0.131420
Cl140	Cl	1.610056	-0.196088	0.368580
Cl141	Cl	0.788489	-0.653628	-0.093327
Cl142	Cl	1.288489	-0.153628	0.406673
Cl143	Cl	0.767845	-0.092109	-0.090889
Cl144	Cl	1.267845	0.407891	0.409111
