data_functionalizedCrystal
_audit_creation_method	'MofGen! by Chris Wilmer'
_symmetry_space_group_name_H-M	'P1'
_symmetry_Int_Tables_number	1
_symmetry_cell_setting	triclinic
loop_
_symmetry_equiv_pos_as_xyz
  x,y,z
_cell_length_a	25.639243
_cell_length_b	21.295416
_cell_length_c	21.295411
_cell_angle_alpha	89.980829
_cell_angle_beta	90.027104
_cell_angle_gamma	89.966945
loop_
_atom_site_label
_atom_site_type_symbol
_atom_site_fract_x
_atom_site_fract_y
_atom_site_fract_z
Zn1	Zn	0.799313	0.250635	0.355965
Zn2	Zn	1.132646	0.583968	0.689298
Zn3	Zn	1.465980	0.917302	1.022632
Zn4	Zn	0.799232	0.355887	0.250695
Zn5	Zn	1.132565	0.689220	0.584028
Zn6	Zn	1.465899	1.022554	0.917362
Zn7	Zn	0.711872	0.250641	0.250705
Zn8	Zn	1.045206	0.583974	0.584039
Zn9	Zn	1.378539	0.917307	0.917372
Zn10	Zn	0.711847	0.355875	0.355922
Zn11	Zn	1.045180	0.689209	0.689255
Zn12	Zn	1.378514	1.022542	1.022589
O13	O	0.755566	0.303260	0.303322
O14	O	1.088899	0.636593	0.636655
O15	O	1.422233	0.969926	0.969988
O16	O	0.872467	0.264600	0.342014
O17	O	1.205801	0.597933	0.675348
O18	O	1.539134	0.931266	1.008681
O19	O	0.787620	0.341933	0.162607
O20	O	1.120954	0.675266	0.495940
O21	O	1.454287	1.008600	0.829274
O22	O	0.723516	0.162551	0.264691
O23	O	1.056849	0.495884	0.598024
O24	O	1.390182	0.829217	0.931357
O25	O	0.872408	0.341928	0.264673
O26	O	1.205741	0.675261	0.598006
O27	O	1.539075	1.008594	0.931340
O28	O	0.787758	0.162546	0.342024
O29	O	1.121091	0.495880	0.675358
O30	O	1.454425	0.829213	1.008691
O31	O	0.723437	0.264609	0.162615
O32	O	1.056771	0.597942	0.495948
O33	O	1.390104	0.931276	0.829281
O34	O	0.638704	0.264598	0.264649
O35	O	0.972037	0.597931	0.597982
O36	O	1.305370	0.931264	0.931316
O37	O	0.723473	0.341908	0.444017
O38	O	1.056806	0.675241	0.777350
O39	O	1.390140	1.008575	1.110684
O40	O	0.638685	0.341913	0.341951
O41	O	0.972019	0.675247	0.675284
O42	O	1.305352	1.008580	1.008618
O43	O	0.787734	0.264588	0.444049
O44	O	1.121067	0.597922	0.777382
O45	O	1.454400	0.931255	1.110715
O46	O	0.787596	0.443975	0.264631
O47	O	1.120929	0.777308	0.597964
O48	O	1.454263	1.110642	0.931298
O49	O	0.723395	0.443966	0.341941
O50	O	1.056728	0.777300	0.675274
O51	O	1.390061	1.110633	1.008608
C52	C	0.619724	0.303255	0.303297
C53	C	0.953057	0.636589	0.636630
C54	C	1.286390	0.969922	0.969963
C55	C	0.561609	0.303269	0.303301
C56	C	0.894943	0.636602	0.636634
C57	C	1.228276	0.969935	0.969968
C58	C	0.755498	0.466811	0.303294
C59	C	1.088831	0.800145	0.636627
C60	C	1.422165	1.133478	0.969961
C61	C	0.755517	0.536779	0.303303
C62	C	1.088850	0.870113	0.636636
C63	C	1.422183	1.203446	0.969970
C64	C	0.788976	0.569629	0.263091
C65	C	1.122309	0.902963	0.596424
C66	C	1.455643	1.236296	0.929757
C67	C	0.789001	0.635372	0.263108
C68	C	1.122334	0.968705	0.596441
C69	C	1.455667	1.302039	0.929774
C70	C	0.755557	0.668262	0.303331
C71	C	1.088890	1.001595	0.636664
C72	C	1.422223	1.334928	0.969997
C73	C	0.722095	0.635404	0.343551
C74	C	1.055428	0.968737	0.676884
C75	C	1.388762	1.302070	1.010218
C76	C	0.722075	0.569662	0.343537
C77	C	1.055408	0.902996	0.676871
C78	C	1.388742	1.236329	1.010204
N79	N	0.709819	0.771531	0.308125
N80	N	1.043153	1.104864	0.641459
N81	N	1.376486	1.438198	0.974792
N82	N	0.709840	0.833982	0.308135
N83	N	1.043173	1.167316	0.641468
N84	N	1.376507	1.500649	0.974801
C85	C	0.755616	0.866336	0.303375
C86	C	1.088949	1.199670	0.636708
C87	C	1.422282	1.533003	0.970042
N88	N	0.801371	0.833880	0.298594
N89	N	1.134705	1.167213	0.631927
N90	N	1.468038	1.500546	0.965260
N91	N	0.801350	0.771423	0.298581
N92	N	1.134684	1.104756	0.631914
N93	N	1.468017	1.438089	0.965248
C94	C	0.755575	0.739547	0.303350
C95	C	1.088908	1.072880	0.636683
C96	C	1.422242	1.406214	0.970017
C97	C	0.789105	0.970472	0.263179
C98	C	1.122438	1.303806	0.596512
C99	C	1.455771	1.637139	0.929846
C100	C	0.789130	1.036216	0.263200
C101	C	1.122464	1.369549	0.596534
C102	C	1.455797	1.702883	0.929867
C103	C	0.722220	1.036246	0.343640
C104	C	1.055553	1.369580	0.676974
C105	C	1.388886	1.702913	1.010307
C106	C	0.722199	0.970504	0.343622
C107	C	1.055532	1.303837	0.676956
C108	C	1.388866	1.637171	1.010289
C109	C	0.755641	0.937621	0.303388
C110	C	1.088974	1.270954	0.636721
C111	C	1.422307	1.604287	0.970055
C112	C	0.201272	0.263058	0.343661
C113	C	0.534605	0.596391	0.676994
C114	C	0.867938	0.929725	1.010327
C115	C	0.146667	0.263058	0.343665
C116	C	0.480001	0.596391	0.676998
C117	C	0.813334	0.929724	1.010331
O118	O	0.118452	0.228857	0.377949
O119	O	0.451786	0.562191	0.711282
O120	O	0.785119	0.895524	1.044615
N121	N	0.119327	0.303258	0.303339
N122	N	0.452660	0.636591	0.636672
N123	N	0.785994	0.969924	0.970006
C124	C	0.146594	0.343457	0.263003
C125	C	0.479927	0.676790	0.596336
C126	C	0.813260	1.010123	0.929669
O127	O	0.118325	0.377649	0.228703
O128	O	0.451658	0.710983	0.562036
O129	O	0.784991	1.044316	0.895369
C130	C	0.201197	0.343453	0.262996
C131	C	0.534530	0.676787	0.596329
C132	C	0.867864	1.010120	0.929663
C133	C	0.228535	0.303255	0.303329
C134	C	0.561868	0.636588	0.636662
C135	C	0.895201	0.969922	0.969995
C136	C	0.228609	0.222863	0.383989
C137	C	0.561943	0.556196	0.717323
C138	C	0.895276	0.889529	1.050656
C139	C	0.283210	0.222864	0.383986
C140	C	0.616543	0.556197	0.717320
C141	C	0.949877	0.889531	1.050653
C142	C	0.310473	0.263061	0.343654
C143	C	0.643806	0.596394	0.676987
C144	C	0.977140	0.929728	1.010321
C145	C	0.283135	0.303257	0.303325
C146	C	0.616469	0.636590	0.636659
C147	C	0.949802	0.969923	0.969992
C148	C	0.228463	0.383649	0.222657
C149	C	0.561796	0.716982	0.555990
C150	C	0.895129	1.050315	0.889323
C151	C	0.283070	0.383642	0.222653
C152	C	0.616403	0.716975	0.555987
C153	C	0.949736	1.050308	0.889320
C154	C	0.310407	0.343443	0.262986
C155	C	0.643741	0.676777	0.596319
C156	C	0.977074	1.010110	0.929653
C157	C	0.364999	0.343455	0.262990
C158	C	0.698332	0.676789	0.596323
C159	C	1.031665	1.010122	0.929657
N160	N	0.392339	0.303255	0.303316
N161	N	0.725672	0.636588	0.636649
N162	N	1.059006	0.969922	0.969982
C163	C	0.365076	0.263058	0.343648
C164	C	0.698409	0.596391	0.676981
C165	C	1.031743	0.929725	1.010314
C166	C	0.031923	0.343459	0.263019
C167	C	0.365256	0.676793	0.596352
C168	C	0.698590	1.010126	0.929685
C169	C	-0.022679	0.343466	0.263028
C170	C	0.310654	0.676799	0.596361
C171	C	0.643987	1.010133	0.929695
C172	C	-0.022602	0.263066	0.343689
C173	C	0.310732	0.596399	0.677023
C174	C	0.644065	0.929733	1.010356
C175	C	0.032002	0.263063	0.343683
C176	C	0.365335	0.596396	0.677016
C177	C	0.698668	0.929730	1.010349
C178	C	0.059264	0.303259	0.303344
C179	C	0.392597	0.636592	0.636678
C180	C	0.725930	0.969926	0.970011
C181	C	0.479741	0.263065	0.343638
C182	C	0.813075	0.596398	0.676971
C183	C	1.146408	0.929731	1.010305
C184	C	0.534347	0.263072	0.343633
C185	C	0.867680	0.596405	0.676966
C186	C	1.201013	0.929738	1.010300
C187	C	0.534264	0.343469	0.262970
C188	C	0.867598	0.676802	0.596303
C189	C	1.200931	1.010136	0.929636
C190	C	0.479664	0.343465	0.262977
C191	C	0.812997	0.676798	0.596310
C192	C	1.146330	1.010131	0.929643
C193	C	0.452404	0.303257	0.303313
C194	C	0.785737	0.636591	0.636646
C195	C	1.119070	0.969924	0.969980
O196	O	0.393249	0.377636	0.228722
O197	O	0.726582	0.710969	0.562055
O198	O	1.059915	1.044303	0.895388
O199	O	0.393352	0.228865	0.377936
O200	O	0.726685	0.562198	0.711269
O201	O	1.060019	0.895532	1.044603
C202	C	0.891939	0.303264	0.303347
C203	C	1.225272	0.636598	0.636681
C204	C	1.558606	0.969931	0.970014
C205	C	0.950053	0.303266	0.303358
C206	C	1.283386	0.636600	0.636691
C207	C	1.616720	0.969933	0.970025
C208	C	0.755609	0.303246	0.467512
C209	C	1.088943	0.636580	0.800845
C210	C	1.422276	0.969913	1.134179
C211	C	0.755628	0.303241	0.537480
C212	C	1.088961	0.636574	0.870814
C213	C	1.422295	0.969907	1.204147
C214	C	0.755649	1.139069	0.303374
C215	C	1.088983	1.472403	0.636708
C216	C	1.422316	1.805736	0.970041
C217	C	0.755687	1.069101	0.303424
C218	C	1.089020	1.402434	0.636758
C219	C	1.422353	1.735768	0.970091
C220	C	0.755553	0.303227	0.139770
C221	C	1.088886	0.636561	0.473104
C222	C	1.422220	0.969894	0.806437
C223	C	0.755636	0.303056	0.069802
C224	C	1.088969	0.636389	0.403136
C225	C	1.422302	0.969722	0.736469
C226	C	0.789087	0.262978	0.570364
C227	C	1.122420	0.596312	0.903698
C228	C	1.455754	0.929645	1.237031
C229	C	0.789086	0.262951	0.636107
C230	C	1.122420	0.596285	0.969440
C231	C	1.455753	0.929618	1.302774
C232	C	0.755632	0.303197	0.668963
C233	C	1.088965	0.636531	1.002296
C234	C	1.422299	0.969864	1.335629
C235	C	0.722166	0.343462	0.636071
C236	C	1.055500	0.676796	0.969404
C237	C	1.388833	1.010129	1.302737
C238	C	0.722164	0.343484	0.570329
C239	C	1.055498	0.676817	0.903663
C240	C	1.388831	1.010151	1.236996
N241	N	0.751598	0.358265	0.772180
N242	N	1.084932	0.691599	1.105514
N243	N	1.418265	1.024932	1.438847
N244	N	0.751603	0.358243	0.834632
N245	N	1.084937	0.691576	1.167965
N246	N	1.418270	1.024910	1.501299
C247	C	0.755635	0.303133	0.867038
C248	C	1.088969	0.636467	1.200371
C249	C	1.422302	0.969800	1.533704
N250	N	0.759672	0.248046	0.834633
N251	N	1.093006	0.581379	1.167966
N252	N	1.426339	0.914713	1.501299
N253	N	0.759670	0.248069	0.772175
N254	N	1.093003	0.581402	1.105509
N255	N	1.426337	0.914736	1.438842
C256	C	0.755630	0.303178	0.740248
C257	C	1.088964	0.636511	1.073582
C258	C	1.422297	0.969845	1.406915
C259	C	0.789096	0.262838	0.971207
C260	C	1.122429	0.596172	1.304541
C261	C	1.455762	0.929505	1.637874
C262	C	0.789091	0.262810	1.036951
C263	C	1.122424	0.596143	1.370284
C264	C	1.455758	0.929477	1.703618
C265	C	0.722174	0.343327	1.036914
C266	C	1.055507	0.676660	1.370247
C267	C	1.388841	1.009993	1.703580
C268	C	0.722175	0.343349	0.971171
C269	C	1.055509	0.676683	1.304505
C270	C	1.388842	1.010016	1.637838
C271	C	0.755639	0.303106	0.938322
C272	C	1.088972	0.636439	1.271655
C273	C	1.422306	0.969773	1.604989
H274	H	0.816208	0.542858	0.230331
H275	H	1.149541	0.876191	0.563665
H276	H	1.482874	1.209525	0.896998
C277	C	0.564415	0.218846	0.388001
C278	C	0.897748	0.552179	0.721334
C279	C	1.231081	0.885512	1.054668
N280	N	0.587060	0.185533	0.421416
N281	N	0.920394	0.518867	0.754749
N282	N	1.253727	0.852200	1.088083
H283	H	0.054116	0.376197	0.230172
H284	H	0.387450	0.709531	0.563505
H285	H	0.720783	1.042864	0.896839
H286	H	0.694828	0.542915	0.376284
H287	H	1.028161	0.876249	0.709617
H288	H	1.361494	1.209582	1.042951
C289	C	-0.052744	0.387690	0.218662
C290	C	0.280589	0.721024	0.551996
C291	C	0.613922	1.054357	0.885329
N292	N	-0.075388	0.420998	0.185241
N293	N	0.257946	0.754331	0.518574
N294	N	0.591279	1.087665	0.851907
H295	H	0.816249	0.662124	0.230362
H296	H	1.149583	0.995457	0.563695
H297	H	1.482916	1.328790	0.897028
C298	C	0.825899	0.934298	0.218930
C299	C	1.159232	1.267632	0.552264
C300	C	1.492565	1.600965	0.885597
N301	N	0.853614	0.907054	0.185604
N302	N	1.186948	1.240388	0.518937
N303	N	1.520281	1.573721	0.852271
C304	C	0.825940	1.072351	0.218960
C305	C	1.159273	1.405684	0.552294
C306	C	1.492607	1.739018	0.885627
N307	N	0.853665	1.099568	0.185637
N308	N	1.186998	1.432902	0.518970
N309	N	1.520331	1.766235	0.852303
C310	C	0.685374	0.387599	1.073051
C311	C	1.018707	0.720932	1.406385
C312	C	1.352040	1.054265	1.739718
N313	N	0.657655	0.420945	1.100274
N314	N	0.990988	0.754278	1.433607
N315	N	1.324321	1.087612	1.766940
H316	H	0.694991	1.063025	0.376393
H317	H	1.028324	1.396358	0.709727
H318	H	1.361658	1.729691	1.043060
H319	H	0.694951	0.943755	0.376364
H320	H	1.028284	1.277089	0.709698
H321	H	1.361617	1.610422	1.043031
C322	C	0.825899	0.218662	0.672287
C323	C	1.159232	0.551995	1.005620
C324	C	1.492565	0.885328	1.338953
N325	N	0.853627	0.185305	0.699536
N326	N	1.186961	0.518638	1.032869
N327	N	1.520294	0.851971	1.366202
H328	H	0.694926	0.376229	0.662826
H329	H	1.028259	0.709562	0.996160
H330	H	1.361593	1.042896	1.329493
C331	C	0.685356	0.387779	0.534156
C332	C	1.018690	0.721112	0.867489
C333	C	1.352023	1.054445	1.200823
N334	N	0.657633	0.421143	0.506909
N335	N	0.990966	0.754477	0.840242
N336	N	1.324299	1.087810	1.173576
H337	H	0.054256	0.230329	0.376524
H338	H	0.387590	0.563662	0.709857
H339	H	0.720923	0.896995	1.043190
C340	C	-0.052601	0.218844	0.388052
C341	C	0.280732	0.552178	0.721385
C342	C	0.614065	0.885511	1.054719
N343	N	-0.075199	0.185538	0.421463
N344	N	0.258135	0.518872	0.754797
N345	N	0.591468	0.852205	1.088130
C346	C	0.449763	0.218838	0.388014
C347	C	0.783096	0.552172	0.721347
C348	C	1.116430	0.885505	1.054680
N349	N	0.427184	0.185530	0.421441
N350	N	0.760517	0.518864	0.754774
N351	N	1.093850	0.852197	1.088107
C352	C	0.313274	0.178634	0.428347
C353	C	0.646607	0.511967	0.761680
C354	C	0.979941	0.845300	1.095014
N355	N	0.335915	0.145314	0.461759
N356	N	0.669249	0.478647	0.795092
N357	N	1.002582	0.811980	1.128425
H358	H	0.816341	0.230066	0.944460
H359	H	1.149674	0.563400	1.277793
H360	H	1.483007	0.896733	1.611127
H361	H	0.816337	0.230020	1.063724
H362	H	1.149670	0.563353	1.397058
H363	H	1.483003	0.896687	1.730391
C364	C	0.198404	0.427862	0.178279
C365	C	0.531737	0.761196	0.511612
C366	C	0.865070	1.094529	0.844945
N367	N	0.175764	0.461163	0.144847
N368	N	0.509097	0.794497	0.478180
N369	N	0.842431	1.127830	0.811513
C370	C	0.313055	0.427864	0.178278
C371	C	0.646388	0.761197	0.511612
C372	C	0.979721	1.094530	0.844945
N373	N	0.335638	0.461173	0.144857
N374	N	0.668971	0.794507	0.478190
N375	N	1.002305	1.127840	0.811524
C376	C	0.685369	0.387644	0.934997
C377	C	1.018703	0.720978	1.268331
C378	C	1.352036	1.054311	1.601664
N379	N	0.657644	0.421008	0.907751
N380	N	0.990977	0.754341	1.241085
N381	N	1.324311	1.087674	1.574418
H382	H	0.694865	0.662187	0.376302
H383	H	1.028199	0.995520	0.709635
H384	H	1.361532	1.328853	1.042968
C385	C	0.449592	0.387690	0.218615
C386	C	0.782925	0.721023	0.551948
C387	C	1.116258	1.054357	0.885281
N388	N	0.426945	0.420998	0.185196
N389	N	0.760278	0.754331	0.518530
N390	N	1.093611	1.087664	0.851863
H391	H	0.206418	0.190126	0.416833
H392	H	0.539751	0.523459	0.750166
H393	H	0.873084	0.856793	1.083499
H394	H	0.556472	0.376198	0.230134
H395	H	0.889805	0.709531	0.563467
H396	H	1.223138	1.042864	0.896800
H397	H	0.816335	0.230208	0.543623
H398	H	1.149669	0.563542	0.876956
H399	H	1.483002	0.896875	1.210289
