data_functionalizedCrystal
_audit_creation_method	'MofGen! by Chris Wilmer'
_symmetry_space_group_name_H-M	'P1'
_symmetry_Int_Tables_number	1
_symmetry_cell_setting	triclinic
loop_
_symmetry_equiv_pos_as_xyz
  x,y,z
_cell_length_a	12.759401
_cell_length_b	12.759400
_cell_length_c	12.759393
_cell_angle_alpha	89.969510
_cell_angle_beta	89.979062
_cell_angle_gamma	90.016209
loop_
_atom_site_label
_atom_site_type_symbol
_atom_site_fract_x
_atom_site_fract_y
_atom_site_fract_z
Zn1	Zn	1.606266	-0.418173	-0.594020
Zn2	Zn	1.606158	-0.593888	-0.418340
Zn3	Zn	1.430565	-0.418229	-0.418355
Zn4	Zn	1.430557	-0.593815	-0.593978
O5	O	1.518387	-0.506026	-0.506173
O6	O	1.753273	-0.441489	-0.570727
O7	O	1.582823	-0.570641	-0.271321
O8	O	1.453921	-0.271200	-0.441682
O9	O	1.753193	-0.570587	-0.441656
O10	O	1.583008	-0.271159	-0.570742
O11	O	1.453816	-0.441584	-0.271332
O12	O	1.283543	-0.441513	-0.441640
O13	O	1.453908	-0.570461	-0.741004
O14	O	1.283537	-0.570516	-0.570669
O15	O	1.583000	-0.441418	-0.741036
O16	O	1.582815	-0.740900	-0.441615
O17	O	1.453802	-0.740846	-0.570655
C18	C	1.245419	-0.506013	-0.506152
C19	C	1.128643	-0.506033	-0.506168
C20	C	1.073805	-0.573307	-0.573248
C21	C	0.964081	-0.573311	-0.573269
C22	C	0.964042	-0.438764	-0.439122
C23	C	1.073764	-0.438756	-0.439107
C24	C	1.518324	-0.778994	-0.506151
C25	C	1.518394	-0.895770	-0.506177
C26	C	1.585645	-0.950625	-0.439060
C27	C	1.585710	-1.060349	-0.439093
C28	C	1.451262	-1.060353	-0.573362
C29	C	1.451204	-0.950631	-0.573334
C30	C	1.652835	-0.895764	-0.371904
C31	C	1.720091	-0.950619	-0.304781
C32	C	1.720156	-1.060343	-0.304813
C33	C	1.652964	-1.115212	-0.371969
C34	C	1.792420	-0.506040	-0.506195
C35	C	1.909197	-0.506046	-0.506204
C36	C	1.518465	-0.505925	-0.780207
C37	C	1.518499	-0.505882	-0.896984
C38	C	1.518478	-0.231993	-0.506218
C39	C	1.518517	-0.115216	-0.506238
C40	C	1.585722	-0.438679	-0.951864
C41	C	1.585740	-0.438633	-1.061588
C42	C	1.451308	-0.573004	-1.061542
C43	C	1.451285	-0.573044	-0.951820
C44	C	1.518369	-0.506051	-0.233206
C45	C	1.518539	-0.505798	-0.116430
H46	H	1.652787	-0.806421	-0.371867
H47	H	1.396587	-0.627687	-1.106203
H48	H	1.774803	-0.905940	-0.250111
H49	H	1.640479	-0.383908	-1.106266
N50	N	0.904855	-0.366219	-0.366775
H51	H	0.923924	-0.382455	-0.291684
H52	H	0.923996	-0.291198	-0.383304
N53	N	1.378755	-0.645510	-0.892618
H54	H	1.336179	-0.688050	-0.944004
H55	H	1.421477	-0.694154	-0.847080
H56	H	1.774926	-1.105004	-0.250166
N57	N	1.132916	-0.366199	-0.366744
H58	H	1.210751	-0.376401	-0.376915
H59	H	1.113762	-0.291185	-0.383228
N60	N	1.653041	-1.233558	-0.372017
H61	H	1.705845	-1.259986	-0.319311
H62	H	1.580960	-1.259985	-0.352682
H63	H	1.640449	-0.383989	-0.907219
N64	N	1.378792	-1.119527	-0.645786
H65	H	1.389032	-1.197360	-0.635617
H66	H	1.303757	-1.100421	-0.629362
N67	N	1.378675	-0.891456	-0.645727
H68	H	1.336114	-0.942858	-0.688269
H69	H	1.330053	-0.846002	-0.602908
H70	H	1.118484	-0.628086	-0.627857
H71	H	0.919437	-0.628090	-0.627893
