data_functionalizedCrystal
_audit_creation_method	'MofGen! by Chris Wilmer'
_symmetry_space_group_name_H-M	'P1'
_symmetry_Int_Tables_number	1
_symmetry_cell_setting	triclinic
loop_
_symmetry_equiv_pos_as_xyz
  x,y,z
_cell_length_a	15.297475
_cell_length_b	21.295417
_cell_length_c	15.297908
_cell_angle_alpha	99.649327
_cell_angle_beta	72.640407
_cell_angle_gamma	80.332118
loop_
_atom_site_label
_atom_site_type_symbol
_atom_site_fract_x
_atom_site_fract_y
_atom_site_fract_z
Zn1	Zn	1.512556	-0.526672	-0.771316
Zn2	Zn	1.485527	-0.609896	-0.615781
Zn3	Zn	1.330153	-0.482616	-0.588971
Zn4	Zn	1.356977	-0.609840	-0.744381
O5	O	1.421303	-0.557256	-0.680112
O6	O	1.639105	-0.556173	-0.773177
O7	O	1.442379	-0.574597	-0.482093
O8	O	1.354435	-0.400388	-0.613212
O9	O	1.619247	-0.617317	-0.658906
O10	O	1.488446	-0.432755	-0.747180
O11	O	1.328227	-0.481086	-0.462396
O12	O	1.203577	-0.481032	-0.587094
O13	O	1.400152	-0.617222	-0.878085
O14	O	1.223284	-0.574502	-0.701273
O15	O	1.514456	-0.556119	-0.897874
O16	O	1.468389	-0.697961	-0.632788
O17	O	1.373943	-0.697920	-0.727269
C18	C	1.179688	-0.522981	-0.638352
C19	C	1.076328	-0.508336	-0.620508
C20	C	0.826053	-0.661930	-0.807643
C21	C	0.923164	-0.675693	-0.824405
C22	C	0.961460	-0.633855	-0.773433
C23	C	0.902634	-0.578251	-0.705695
C24	C	0.805512	-0.564488	-0.688926
C25	C	0.940920	-0.536414	-0.654716
C26	C	0.882094	-0.480810	-0.586978
C27	C	0.784982	-0.467050	-0.570212
C28	C	0.746686	-0.508888	-0.621185
C29	C	1.038042	-0.550176	-0.671484
C30	C	1.017501	-0.452735	-0.552767
C31	C	0.920390	-0.438971	-0.536005
C32	C	1.421173	-0.720783	-0.680040
C33	C	1.421207	-0.790757	-0.680055
C34	C	1.470448	-0.823640	-0.630928
C35	C	1.470495	-0.889392	-0.630956
C36	C	1.421283	-0.922254	-0.680099
C37	C	1.372040	-0.889364	-0.729236
C38	C	1.372002	-0.823615	-0.729214
N39	N	1.341158	-1.014988	-0.673127
N40	N	1.341196	-1.077446	-0.673143
C41	C	1.421397	-1.120351	-0.680170
N42	N	1.501557	-1.098437	-0.687162
N43	N	1.501517	-1.035972	-0.687141
C44	C	1.421319	-0.993547	-0.680129
C45	C	1.470693	-1.224530	-0.631072
C46	C	1.470743	-1.290284	-0.631107
C47	C	1.372279	-1.290253	-0.729381
C48	C	1.372238	-1.224502	-0.729352
C49	C	1.421443	-1.191644	-0.680192
C50	C	1.663862	-0.591666	-0.722036
C51	C	1.767226	-0.606329	-0.739902
C52	C	1.463311	-0.591578	-0.922665
C53	C	1.481212	-0.606204	-1.026026
C54	C	1.421464	-0.393097	-0.680210
C55	C	1.421532	-0.323142	-0.680251
C56	C	1.293949	-0.452691	-1.276373
C57	C	1.277132	-0.438943	-1.179260
C58	C	1.328150	-0.480757	-1.140947
C59	C	1.395989	-0.536321	-1.199756
C60	C	1.412814	-0.550068	-1.296879
C61	C	1.447015	-0.578134	-1.161453
C62	C	1.514854	-0.633699	-1.220263
C63	C	1.531675	-0.647443	-1.317376
C64	C	1.480656	-0.605629	-1.355689
C65	C	1.430190	-0.564388	-1.064330
C66	C	1.549055	-0.661765	-1.084836
C67	C	1.565872	-0.675513	-1.181949
C68	C	1.379513	-0.523029	-0.438513
C69	C	1.361792	-0.508251	-0.335183
H70	H	0.971053	-0.720968	-0.879556
H71	H	1.331903	-0.796841	-0.769220
C72	C	0.784300	-0.707253	-0.862911
C73	C	0.686662	-0.683290	-0.833739
C74	C	0.648169	-0.725024	-0.884643
H75	H	0.797708	-0.749860	-0.851967
H76	H	0.811004	-0.709200	-0.928181
H77	H	0.659967	-0.681350	-0.768485
H78	H	0.673227	-0.640688	-0.844686
H79	H	0.674873	-0.726971	-0.949913
H80	H	0.661584	-0.767629	-0.873694
H81	H	0.581919	-0.708768	-0.864863
H82	H	1.510763	-1.197777	-0.591047
C83	C	1.101881	-0.610477	-0.745177
C84	C	1.094239	-0.606539	-0.833151
C85	C	1.153043	-0.662075	-0.901067
H86	H	1.083621	-0.648602	-0.728828
H87	H	1.165226	-0.612689	-0.747932
H88	H	1.030908	-0.604334	-0.830394
H89	H	1.112507	-0.568426	-0.849529
H90	H	1.216388	-0.664287	-0.903821
H91	H	1.134777	-0.700195	-0.884709
H92	H	1.147872	-0.659407	-0.960766
H93	H	1.314453	-0.469560	-1.061872
H94	H	0.737086	-0.421778	-0.515046
H95	H	1.621109	-0.720754	-1.229845
H96	H	1.252422	-0.418649	-1.307578
C97	C	1.318449	-0.924930	-0.782512
C98	C	1.222930	-0.893066	-0.746303
C99	C	1.173538	-0.925806	-0.795371
H100	H	1.325405	-0.968797	-0.775525
H101	H	1.342775	-0.924875	-0.847350
H102	H	1.198611	-0.893129	-0.681480
H103	H	1.215945	-0.849202	-0.753289
H104	H	1.197864	-0.925751	-0.860209
H105	H	1.180501	-0.969672	-0.788381
H106	H	1.108725	-0.904188	-0.770816
H107	H	1.040534	-0.645065	-0.787085
H108	H	0.667611	-0.497683	-0.607543
C109	C	1.203410	-0.378605	-1.115564
C110	C	1.162313	-0.344937	-1.169896
C111	C	1.094384	-0.289353	-1.111249
H112	H	1.232348	-0.350799	-1.083825
H113	H	1.156256	-0.391549	-1.070669
H114	H	1.209459	-0.331992	-1.214774
H115	H	1.133356	-0.372725	-1.201634
H116	H	1.047230	-0.302297	-1.066354
H117	H	1.123331	-0.261552	-1.079513
H118	H	1.066486	-0.266506	-1.148103
H119	H	1.510847	-1.317058	-0.591106
C120	C	0.856354	-0.378656	-0.462462
C121	C	0.763107	-0.375572	-0.458676
C122	C	0.704090	-0.320024	-0.390931
H123	H	0.874549	-0.340525	-0.478859
H124	H	0.861366	-0.381206	-0.402670
H125	H	0.758098	-0.373016	-0.518455
H126	H	0.744883	-0.413689	-0.442267
H127	H	0.709102	-0.322574	-0.331138
H128	H	0.722293	-0.281898	-0.407334
H129	H	0.640815	-0.317927	-0.388346
C130	C	1.604417	-0.707281	-1.043359
C131	C	1.588216	-0.770026	-1.063464
C132	C	1.639207	-0.811969	-1.025276
H133	H	1.584736	-0.691230	-0.977093
H134	H	1.669685	-0.709230	-1.070100
H135	H	1.522962	-0.768075	-1.036720
H136	H	1.607901	-0.786096	-1.129723
H137	H	1.704475	-0.813918	-1.052016
H138	H	1.619522	-0.795912	-0.959011
H139	H	1.628229	-0.854548	-1.038919
C140	C	1.523978	-0.788092	-0.577552
C141	C	1.567134	-0.830974	-0.534557
C142	C	1.616468	-0.798253	-0.485393
H143	H	1.481495	-0.751699	-0.530789
H144	H	1.570668	-0.773210	-0.620139
H145	H	1.520450	-0.845847	-0.491973
H146	H	1.609632	-0.867368	-0.581298
H147	H	1.663158	-0.783370	-0.527981
H148	H	1.573978	-0.761861	-0.438635
H149	H	1.645762	-0.827345	-0.456223
C150	C	1.523909	-0.925219	-0.577679
C151	C	1.513413	-0.989832	-0.588225
C152	C	1.562600	-1.022852	-0.539157
H153	H	1.499546	-0.903773	-0.512816
H154	H	1.588768	-0.925243	-0.602117
H155	H	1.448567	-0.989805	-0.563783
H156	H	1.537781	-1.011296	-0.653077
H157	H	1.627459	-1.022877	-0.563595
H158	H	1.538232	-1.001402	-0.474297
H159	H	1.555493	-1.066698	-0.546313
C160	C	1.059178	-0.407417	-0.497387
C161	C	1.104582	-0.442449	-0.447328
C162	C	1.143002	-0.400731	-0.396314
H163	H	1.010326	-0.372321	-0.454569
H164	H	1.103309	-0.390457	-0.539565
H165	H	1.060455	-0.459399	-0.405154
H166	H	1.153447	-0.477543	-0.490123
H167	H	1.187134	-0.383771	-0.438492
H168	H	1.094145	-0.365637	-0.353501
H169	H	1.173821	-0.424496	-0.362349
C170	C	1.318870	-1.326029	-0.782646
C171	C	1.329426	-1.390644	-0.772138
C172	C	1.280233	-1.423622	-0.821189
H173	H	1.343195	-1.326062	-0.847505
H174	H	1.254003	-1.304538	-0.758174
H175	H	1.394280	-1.412130	-0.796614
H176	H	1.305096	-1.390630	-0.707290
H177	H	1.215366	-1.402132	-0.796716
H178	H	1.304563	-1.423651	-0.886045
H179	H	1.287381	-1.467465	-0.814058
H180	H	1.332137	-1.197726	-0.769351
C181	C	1.356387	-0.504131	-1.000507
C182	C	1.268454	-0.508136	-1.008208
C183	C	1.200436	-0.452641	-0.949419
H184	H	1.372666	-0.465981	-1.018742
H185	H	1.353607	-0.501925	-0.937160
H186	H	1.271236	-0.510334	-1.071542
H187	H	1.252146	-0.546273	-0.989966
H188	H	1.197655	-0.450435	-0.886072
H189	H	1.216724	-0.414496	-0.967659
H190	H	1.140764	-0.455353	-0.954630
H191	H	1.494340	-0.616822	-1.434765
H192	H	1.586921	-0.692684	-1.365258
