data_functionalizedCrystal
_audit_creation_method	'MofGen! by Chris Wilmer'
_symmetry_space_group_name_H-M	'P1'
_symmetry_Int_Tables_number	1
_symmetry_cell_setting	triclinic
loop_
_symmetry_equiv_pos_as_xyz
  x,y,z
_cell_length_a	15.298206
_cell_length_b	14.908579
_cell_length_c	15.298159
_cell_angle_alpha	102.326677
_cell_angle_beta	69.206341
_cell_angle_gamma	96.930429
loop_
_atom_site_label
_atom_site_type_symbol
_atom_site_fract_x
_atom_site_fract_y
_atom_site_fract_z
Zn1	Zn	1.286034	0.637618	0.323891
Zn2	Zn	1.303916	0.766179	0.177360
Zn3	Zn	1.160587	0.593142	0.192239
Zn4	Zn	1.121509	0.766218	0.359791
O5	O	1.218012	0.690789	0.263320
O6	O	1.417244	0.673269	0.283202
O7	O	1.308741	0.724595	0.047890
O8	O	1.186099	0.472805	0.200906
O9	O	1.430381	0.767723	0.175547
O10	O	1.278265	0.505482	0.297629
O11	O	1.203438	0.597465	0.058821
O12	O	1.026566	0.597503	0.235716
O13	O	1.119496	0.767789	0.486473
O14	O	0.997855	0.724662	0.358816
O15	O	1.240372	0.673307	0.460097
O16	O	1.270848	0.892421	0.210358
O17	O	1.136835	0.892450	0.344388
C18	C	0.978804	0.656261	0.302777
C19	C	0.876465	0.641515	0.319680
C20	C	0.821528	0.585514	0.383776
C21	C	0.725375	0.571650	0.399660
C22	C	0.684148	0.613793	0.351454
C23	C	0.739084	0.669801	0.287362
C24	C	0.835248	0.683660	0.271471
C25	C	0.697868	0.711939	0.239149
C26	C	0.752803	0.767947	0.175057
C27	C	0.848957	0.781803	0.159170
C28	C	0.890184	0.739661	0.207375
C29	C	0.601704	0.698080	0.255040
C30	C	0.615423	0.796226	0.142735
C31	C	0.711576	0.810089	0.126851
C32	C	1.201563	0.925173	0.279670
C33	C	1.194604	1.025461	0.286683
C34	C	1.173580	0.725514	0.508320
C35	C	1.154646	0.740312	0.612725
C36	C	1.458153	0.725453	0.223710
C37	C	1.560487	0.740224	0.206831
C38	C	1.321180	1.213851	0.160370
C39	C	1.314645	1.308080	0.166955
C40	C	1.175005	1.308150	0.306441
C41	C	1.181540	1.213921	0.299856
C42	C	1.254629	1.166775	0.226817
C43	C	1.261159	1.072543	0.220229
C44	C	1.121523	1.072616	0.359718
C45	C	1.114989	1.166845	0.366303
C46	C	1.234538	1.455497	0.246936
C47	C	1.241560	1.355232	0.239987
C48	C	1.353017	0.585265	0.852093
C49	C	1.370812	0.571364	0.753999
C50	C	1.316772	0.613599	0.718676
C51	C	1.244934	0.669739	0.781456
C52	C	1.227142	0.683646	0.879559
C53	C	1.190897	0.711981	0.746141
C54	C	1.119059	0.768120	0.808922
C55	C	1.101270	0.782025	0.907015
C56	C	1.155310	0.739790	0.942338
C57	C	1.208689	0.698073	0.648038
C58	C	1.082815	0.796455	0.675504
C59	C	1.065020	0.810356	0.773598
C60	C	1.262259	0.656216	1.019276
C61	C	1.281185	0.641408	0.914873
H62	H	0.893686	0.827400	0.106973
H63	H	1.042782	0.827746	0.958128
O64	O	1.096185	1.359022	0.385208
H65	H	1.099799	1.353629	0.455085
O66	O	1.036149	1.217692	0.445068
H67	H	1.042778	1.291123	0.438479
O68	O	1.448291	0.510821	0.686293
H69	H	1.418423	0.452642	0.645189
H70	H	1.038812	0.830848	0.646745
H71	H	0.581857	0.830543	0.103483
H72	H	1.331265	0.602278	0.638802
H73	H	1.267180	0.652363	0.596932
H74	H	0.605857	0.602499	0.364387
O75	O	0.987537	0.870902	0.841314
H76	H	1.017409	0.929086	0.882408
H77	H	0.756318	0.855691	0.074667
O78	O	0.666128	0.511250	0.468787
H79	H	0.633148	0.453022	0.430855
O80	O	1.411281	0.539720	0.890213
H81	H	1.485868	0.562956	0.860563
H82	H	0.855106	0.551202	0.423013
O83	O	1.136111	0.754784	1.048145
H84	H	1.185758	0.715982	1.062155
H85	H	0.556985	0.652476	0.307223
H86	H	1.368840	1.346406	0.112848
O87	O	1.049726	1.021851	0.431395
H88	H	1.085186	0.991587	0.469441
O89	O	0.993901	0.754597	0.190222
H90	H	1.013335	0.715876	0.234504
H91	H	1.380686	1.175462	0.100893
O92	O	1.339990	1.021687	0.141461
H93	H	1.385176	1.070260	0.096370
