data_functionalizedCrystal
_audit_creation_method	'MofGen! by Chris Wilmer'
_symmetry_space_group_name_H-M	'P1'
_symmetry_Int_Tables_number	1
_symmetry_cell_setting	triclinic
loop_
_symmetry_equiv_pos_as_xyz
  x,y,z
_cell_length_a	6.817900
_cell_length_b	17.982959
_cell_length_c	17.078481
_cell_angle_alpha	96.484289
_cell_angle_beta	99.306161
_cell_angle_gamma	102.451857
loop_
_atom_site_label
_atom_site_type_symbol
_atom_site_fract_x
_atom_site_fract_y
_atom_site_fract_z
V1	V	-3.974480	-0.105234	-0.247692
V2	V	-3.474480	0.394766	0.252308
O3	O	-3.968302	0.005240	-0.242636
O4	O	-3.468302	0.505240	0.257364
O5	O	-3.921245	-0.208838	-0.246326
O6	O	-3.421245	0.291162	0.253674
O7	O	-3.905609	-0.103535	-0.355570
O8	O	-3.405609	0.396465	0.144430
O9	O	-3.984046	-0.100792	-0.132636
O10	O	-3.484046	0.399208	0.367364
V11	V	-4.461387	-0.092030	-0.233891
V12	V	-3.961387	0.407970	0.266109
O13	O	-4.228316	-0.134200	-0.277967
O14	O	-3.728316	0.365800	0.222033
O15	O	-4.657750	-0.063065	-0.203616
O16	O	-4.157750	0.436935	0.296384
O17	O	-4.291416	0.011574	-0.235257
O18	O	-3.791416	0.511574	0.264743
O19	O	-4.584963	-0.202504	-0.238947
O20	O	-4.084963	0.297496	0.261053
O21	O	-4.569219	-0.096473	-0.348947
O22	O	-4.069219	0.403527	0.151053
O23	O	-4.307052	-0.093729	-0.126013
O24	O	-3.807052	0.406271	0.373987
C25	C	-3.765732	-0.234097	-0.242503
C26	C	-3.265732	0.265903	0.257497
C27	C	-3.803356	-0.318794	-0.242105
C28	C	-3.303356	0.181206	0.257895
C29	C	-4.002196	-0.362462	-0.245888
C30	C	-3.502196	0.137538	0.254112
C31	C	-4.037538	-0.442045	-0.245519
C32	C	-3.537538	0.057955	0.254481
C33	C	-3.874035	-0.477956	-0.241361
C34	C	-3.374035	0.022044	0.258639
C35	C	-3.675180	-0.434282	-0.237581
C36	C	-3.175180	0.065718	0.262419
C37	C	-3.639843	-0.354702	-0.237956
C38	C	-3.139843	0.145298	0.262044
C39	C	-3.817687	-0.755219	-0.236070
C40	C	-3.317687	-0.255219	0.263930
C41	C	-3.853040	-0.834804	-0.235693
C42	C	-3.353040	-0.334804	0.264307
C43	C	-4.215382	-0.842561	-0.243633
C44	C	-3.715382	-0.342561	0.256367
C45	C	-4.180045	-0.762981	-0.244007
C46	C	-3.680045	-0.262981	0.255993
C47	C	-3.981196	-0.719315	-0.240231
C48	C	-3.481196	-0.219315	0.259769
C49	C	-3.942877	-0.633023	-0.240633
C50	C	-3.442877	-0.133023	0.259367
C51	C	-3.912350	-0.564246	-0.240954
C52	C	-3.412350	-0.064246	0.259046
C53	C	-3.745786	-0.099772	-0.381854
C54	C	-3.245786	0.400228	0.118146
C55	C	-3.770728	-0.099068	-0.470046
C56	C	-3.270728	0.400932	0.029954
C57	C	-3.963600	-0.102541	-0.515533
C58	C	-3.463600	0.397459	-0.015533
C59	C	-3.987024	-0.101879	-0.598399
C60	C	-3.487024	0.398121	-0.098399
C61	C	-3.817575	-0.097751	-0.635778
C62	C	-3.317575	0.402249	-0.135778
C63	C	-3.624686	-0.094275	-0.590285
C64	C	-3.124686	0.405725	-0.090285
C65	C	-3.601263	-0.094931	-0.507419
C66	C	-3.101263	0.405069	-0.007419
C67	C	-3.868202	-0.095376	-0.883173
C68	C	-3.368202	0.404624	-0.383173
C69	C	-3.891643	-0.094722	-0.966045
C70	C	-3.391643	0.405278	-0.466045
C71	C	-4.253979	-0.102325	-0.974154
C72	C	-3.753979	0.397675	-0.474154
C73	C	-4.230540	-0.102985	-0.891287
C74	C	-3.730540	0.397015	-0.391287
C75	C	-4.037652	-0.099506	-0.845801
C76	C	-3.537652	0.400494	-0.345801
N77	N	-3.841515	-0.097077	-0.720480
N78	N	-3.341515	0.402923	-0.220480
N79	N	-4.013713	-0.100174	-0.761099
N80	N	-3.513713	0.399826	-0.261099
C81	C	-4.110271	0.036829	-0.239078
C82	C	-3.610271	0.536829	0.260922
C83	C	-4.051884	0.121525	-0.239481
C84	C	-3.551884	0.621525	0.260519
C85	C	-4.130218	-0.097495	-0.099725
C86	C	-3.630218	0.402505	0.400275
C87	C	-4.084515	-0.098195	-0.011532
C88	C	-3.584515	0.401805	0.488468
H89	H	-3.542058	-0.463528	-0.234201
H90	H	-3.042058	0.036472	0.265799
H91	H	-4.101591	-0.105908	-0.485106
H92	H	-3.601591	0.394092	0.014894
Cl93	Cl	-3.678603	-0.089531	-1.013034
Cl94	Cl	-3.178603	0.410469	-0.513034
Cl95	Cl	-3.625727	-0.091022	-0.826005
Cl96	Cl	-3.125727	0.408978	-0.326005
H97	H	-3.486718	-0.090909	-0.620724
H98	H	-2.986718	0.409091	-0.120724
Cl99	Cl	-3.358781	-0.090558	-0.450234
Cl100	Cl	-2.858781	0.409442	0.049766
H101	H	-4.377299	-0.878124	-0.246709
H102	H	-3.877299	-0.378124	0.253291
H103	H	-4.199450	-0.477597	-0.248600
H104	H	-3.699450	0.022403	0.251400
Cl105	Cl	-4.207758	-0.317324	-0.251112
Cl106	Cl	-3.707758	0.182676	0.248888
Cl107	Cl	-4.385598	-0.717839	-0.249224
Cl108	Cl	-3.885598	-0.217839	0.250776
Cl109	Cl	-3.567707	-0.700333	-0.231316
Cl110	Cl	-3.067707	-0.200333	0.268684
H111	H	-4.368527	-0.106346	-0.860859
H112	H	-3.868527	0.393654	-0.360859
Cl113	Cl	-3.647476	-0.879949	-0.230467
Cl114	Cl	-3.147476	-0.379949	0.269533
H115	H	-4.144076	-0.104703	-0.635430
H116	H	-3.644076	0.395297	-0.135430
Cl117	Cl	-3.389865	-0.299805	-0.233205
Cl118	Cl	-2.889865	0.200195	0.266795
H119	H	-4.411021	-0.105156	-1.011198
H120	H	-3.911021	0.394844	-0.511198
