data_functionalizedCrystal
_audit_creation_method	'MofGen! by Chris Wilmer'
_symmetry_space_group_name_H-M	'P1'
_symmetry_Int_Tables_number	1
_symmetry_cell_setting	triclinic
loop_
_symmetry_equiv_pos_as_xyz
  x,y,z
_cell_length_a	19.188930
_cell_length_b	12.811457
_cell_length_c	11.295663
_cell_angle_alpha	80.469527
_cell_angle_beta	94.092167
_cell_angle_gamma	83.596719
loop_
_atom_site_label
_atom_site_type_symbol
_atom_site_fract_x
_atom_site_fract_y
_atom_site_fract_z
O1	O	0.091590	1.395929	-0.051710
O2	O	0.103389	1.087920	-0.018444
O3	O	-0.004169	1.250815	-0.036060
O4	O	0.199148	1.233034	-0.034094
O5	O	-0.013601	1.265092	-0.235649
O6	O	0.093957	1.102197	-0.218033
O7	O	0.082158	1.410206	-0.251299
Cu8	Cu	0.087196	1.257505	-0.252890
Cu9	Cu	0.098350	1.240621	-0.016853
O10	O	0.189716	1.247311	-0.233683
C11	C	0.098301	1.055652	-0.113983
C12	C	0.097185	0.938236	-0.101302
C13	C	0.084791	0.733165	-0.295091
C14	C	0.083741	0.622843	-0.283183
C15	C	0.094032	0.607266	-0.065579
C16	C	0.095081	0.717589	-0.077487
C17	C	0.090461	0.780535	-0.192247
C18	C	0.091516	0.890859	-0.204154
C19	C	0.101801	0.875282	0.013449
C20	C	0.100752	0.764959	0.025357
C21	C	-0.034896	1.257378	-0.135796
C22	C	-0.112401	1.255650	-0.135620
C23	C	-0.157345	1.351231	-0.145949
C24	C	-0.230168	1.349606	-0.145754
C25	C	-0.258044	1.252397	-0.135254
C26	C	-0.213089	1.156803	-0.124917
C27	C	-0.140268	1.158430	-0.125100
N28	N	-0.369243	1.182951	-0.195153
N29	N	-0.438421	1.181412	-0.194983
C30	C	-0.477450	1.247489	-0.134700
N31	N	-0.444690	1.315181	-0.074611
N32	N	-0.375506	1.316723	-0.074787
C33	C	-0.337006	1.250622	-0.135054
C34	C	-0.601357	1.341315	-0.144817
C35	C	-0.674181	1.339685	-0.144615
C36	C	-0.657101	1.146880	-0.123790
C37	C	-0.584279	1.148511	-0.123980
C38	C	-0.556412	1.245732	-0.134500
C39	C	0.220443	1.240748	-0.133944
C40	C	0.297948	1.242475	-0.134113
C41	C	0.087246	1.442473	-0.155758
C42	C	0.088363	1.559889	-0.168430
N43	N	0.079351	1.269388	-0.418907
C44	C	0.022840	1.355039	-0.615156
C45	C	0.028775	1.346036	-0.489522
C46	C	0.123997	1.201741	-0.473934
C47	C	0.118063	1.210745	-0.599568
C48	C	0.067482	1.287395	-0.670174
C49	C	0.061544	1.296393	-0.795810
C50	C	0.156770	1.152104	-0.780220
C51	C	0.162704	1.143101	-0.654587
N52	N	0.106191	1.228746	0.149163
H53	H	-0.134661	1.430395	-0.154511
C54	C	0.079734	0.801338	-0.419786
C55	C	0.074529	0.736243	-0.507307
C56	C	0.069860	0.799006	-0.622191
H57	H	0.120618	0.836465	-0.428225
H58	H	0.039201	0.852938	-0.429916
H59	H	0.115058	0.684663	-0.497182
H60	H	0.033646	0.701116	-0.498908
H61	H	0.029327	0.850606	-0.632321
H62	H	0.110745	0.834130	-0.630617
H63	H	0.066322	0.754850	-0.681588
C64	C	0.178873	1.118372	-0.397405
C65	C	0.166310	1.016679	-0.416781
C66	C	0.216855	0.939855	-0.346319
H67	H	0.176068	1.122551	-0.314668
H68	H	0.224491	1.131055	-0.419221
H69	H	0.120704	1.004001	-0.394958
H70	H	0.169121	1.012466	-0.499504
H71	H	0.262472	0.952537	-0.368134
H72	H	0.214045	0.944043	-0.263586
H73	H	0.208342	0.870848	-0.359464
H74	H	0.203888	1.080696	-0.597085
C75	C	0.205167	1.078481	-0.839872
C76	C	0.195463	0.972413	-0.798130
C77	C	0.240024	0.904562	-0.853065
H78	H	0.252746	1.088132	-0.820520
H79	H	0.194386	1.094745	-0.924811
H80	H	0.206249	0.956155	-0.713210
H81	H	0.147893	0.962729	-0.817481
H82	H	0.229244	0.920826	-0.938004
H83	H	0.287601	0.914223	-0.833709
H84	H	0.233442	0.832589	-0.824759
C85	C	0.105913	0.696528	0.149919
C86	C	0.165678	0.620576	0.164437
C87	C	0.170463	0.557529	0.279175
H88	H	0.065062	0.661317	0.158322
H89	H	0.109482	0.740497	0.209506
H90	H	0.162103	0.576613	0.104867
H91	H	0.206539	0.655757	0.156058
H92	H	0.174032	0.601498	0.338761
H93	H	0.129609	0.522325	0.287567
H94	H	0.211017	0.505995	0.289044
C95	C	-0.278863	1.453504	-0.157047
C96	C	-0.238873	1.538993	-0.166325
C97	C	-0.283705	1.634719	-0.176746
H98	H	-0.304348	1.452055	-0.087845
H99	H	-0.310912	1.461905	-0.227045
H100	H	-0.206836	1.530594	-0.096334
H101	H	-0.213389	1.540477	-0.235525
H102	H	-0.315754	1.643121	-0.246744
H103	H	-0.309188	1.633259	-0.107542
H104	H	-0.256579	1.692736	-0.183053
C105	C	-0.243490	1.051372	-0.113591
C106	C	-0.316886	1.070406	-0.115676
C107	C	-0.344914	0.973307	-0.105255
H108	H	-0.224830	1.006973	-0.039750
H109	H	-0.231383	1.016999	-0.178969
H110	H	-0.328987	1.104763	-0.050304
H111	H	-0.335565	1.114789	-0.189510
H112	H	-0.332807	0.938934	-0.170633
H113	H	-0.326249	0.928915	-0.031414
H114	H	-0.394716	0.986209	-0.106679
H115	H	-0.103674	1.080594	-0.116689
H116	H	0.079127	0.584278	-0.366929
C117	C	0.099186	0.538827	0.058978
C118	C	0.158947	0.462869	0.073496
C119	C	0.163723	0.399810	0.188226
H120	H	0.058332	0.503621	0.067366
H121	H	0.102753	0.582787	0.118574
H122	H	0.155374	0.418914	0.013917
H123	H	0.199811	0.498045	0.065132
H124	H	0.167290	0.443771	0.247822
H125	H	0.122866	0.364612	0.196604
H126	H	0.204274	0.348272	0.198096
H127	H	-0.578667	1.420477	-0.153377
H128	H	-0.547685	1.070679	-0.115576
H129	H	0.106423	0.913860	0.097193
C130	C	-0.722868	1.443584	-0.155902
C131	C	-0.682874	1.529070	-0.165187
C132	C	-0.727702	1.624799	-0.175604
H133	H	-0.748349	1.442138	-0.086697
H134	H	-0.754920	1.451988	-0.225896
H135	H	-0.650834	1.520668	-0.095200
H136	H	-0.657394	1.530551	-0.234391
H137	H	-0.759754	1.633203	-0.245598
H138	H	-0.753181	1.623342	-0.106396
H139	H	-0.700573	1.682813	-0.181916
C140	C	-0.687496	1.041447	-0.112455
C141	C	-0.760891	1.060479	-0.114528
C142	C	-0.788918	0.963378	-0.104098
H143	H	-0.668832	0.997050	-0.038615
H144	H	-0.675392	1.007073	-0.177833
H145	H	-0.772989	1.094837	-0.049155
H146	H	-0.779574	1.104860	-0.188362
H147	H	-0.776815	0.929004	-0.169476
H148	H	-0.770249	0.918989	-0.030258
H149	H	-0.838720	0.976279	-0.105515
C150	C	0.006607	1.379710	-0.872267
C151	C	-0.031206	1.437040	-0.797189
C152	C	-0.081814	1.513811	-0.867576
H153	H	-0.024772	1.345434	-0.917213
H154	H	0.029309	1.427190	-0.925988
H155	H	-0.053907	1.389567	-0.743490
H156	H	0.000154	1.471339	-0.752243
H157	H	-0.059112	1.561290	-0.921296
H158	H	-0.113188	1.479526	-0.912518
H159	H	-0.107472	1.552725	-0.816646
H160	H	0.087758	0.942107	-0.297597
C161	C	-0.019784	1.419539	-0.430008
C162	C	-0.065360	1.488572	-0.518735
C163	C	-0.110109	1.556292	-0.463956
H164	H	0.007485	1.460038	-0.385730
H165	H	-0.046506	1.378145	-0.376949
H166	H	-0.038641	1.529962	-0.571773
H167	H	-0.092644	1.448103	-0.563019
H168	H	-0.136830	1.514898	-0.410898
H169	H	-0.082834	1.596783	-0.419679
H170	H	-0.141042	1.603132	-0.524148
H171	H	-0.018350	1.417444	-0.672644
