data_functionalizedCrystal
_audit_creation_method	'MofGen! by Chris Wilmer'
_symmetry_space_group_name_H-M	'P1'
_symmetry_Int_Tables_number	1
_symmetry_cell_setting	triclinic
loop_
_symmetry_equiv_pos_as_xyz
  x,y,z
_cell_length_a	19.188930
_cell_length_b	17.038272
_cell_length_c	16.098546
_cell_angle_alpha	92.931930
_cell_angle_beta	87.269935
_cell_angle_gamma	87.128168
loop_
_atom_site_label
_atom_site_type_symbol
_atom_site_fract_x
_atom_site_fract_y
_atom_site_fract_z
O1	O	-0.935124	-0.094061	0.069527
O2	O	-0.732627	-0.107201	0.069471
O3	O	-0.832672	0.013180	0.069492
O4	O	-0.835079	-0.214442	0.069506
O5	O	-0.826852	0.006151	-0.069022
O6	O	-0.726807	-0.114231	-0.069043
O7	O	-0.929304	-0.101090	-0.068987
Zn8	Zn	-0.827131	-0.108777	-0.091007
Zn9	Zn	-0.834800	-0.099515	0.091491
O10	O	-0.829259	-0.221472	-0.069008
C11	C	-0.703679	-0.110291	0.000206
C12	C	-0.626094	-0.109015	0.000184
C13	C	-0.958252	-0.098001	0.000280
C14	C	-1.035837	-0.099276	0.000307
C15	C	-0.827573	0.038787	0.000235
C16	C	-0.821041	0.125559	0.000233
C17	C	-0.585559	-0.179649	0.000202
C18	C	-0.512661	-0.178449	0.000211
C19	C	-0.480302	-0.106609	0.000219
C20	C	-0.520846	-0.035966	0.000197
C21	C	-0.593742	-0.037169	0.000180
N22	N	-0.370893	-0.049303	0.047392
N23	N	-0.301644	-0.048166	0.047410
C24	C	-0.260670	-0.102981	0.000270
N25	N	-0.291561	-0.158990	-0.046879
N26	N	-0.360816	-0.160129	-0.046893
C27	C	-0.401259	-0.105297	0.000238
C28	C	-0.141091	-0.172319	0.000296
C29	C	-0.068191	-0.171116	0.000300
C30	C	-0.076378	-0.028631	0.000295
C31	C	-0.149276	-0.029836	0.000282
C32	C	-0.181628	-0.101682	0.000287
C33	C	-0.834359	-0.247078	0.000251
C34	C	-0.840890	-0.333850	0.000258
N35	N	-0.821903	-0.115097	-0.215557
C36	C	-0.881008	0.175862	0.000249
C37	C	-0.874867	0.257393	0.000255
C38	C	-0.808758	0.288621	0.000239
C39	C	-0.748787	0.238312	0.000226
C40	C	-0.754929	0.156782	0.000226
C41	C	-0.787061	0.534311	0.000245
C42	C	-0.780923	0.615847	0.000242
C43	C	-0.907004	0.634923	0.000273
C44	C	-0.913140	0.553391	0.000268
C45	C	-0.853169	0.503089	0.000259
C46	C	-0.802480	0.371959	0.000243
C47	C	-0.859448	0.419753	0.000261
C48	C	-0.797558	-0.144270	-0.740382
C49	C	-0.801232	-0.139864	-0.653192
C50	C	-0.847384	-0.084378	-0.609581
C51	C	-0.889861	-0.033290	-0.653164
C52	C	-0.886183	-0.037693	-0.740352
C53	C	-0.860702	-0.068413	-0.346329
C54	C	-0.864378	-0.064015	-0.259134
C55	C	-0.775748	-0.170588	-0.259168
C56	C	-0.772077	-0.174990	-0.346358
C57	C	-0.814551	-0.123899	-0.389933
C58	C	-0.851142	-0.079874	-0.520459
C59	C	-0.810789	-0.128400	-0.479054
N60	N	-0.840033	-0.093188	0.216041
H61	H	-0.611896	-0.238152	0.000207
O62	O	-0.752686	-0.198067	-0.782834
C63	C	-0.705003	-0.158863	-0.833244
H64	H	-0.728629	-0.098278	-0.846290
H65	H	-0.654515	-0.151992	-0.799642
C66	C	-0.660183	-0.281571	-0.900049
C67	C	-0.689204	-0.207162	-0.916080
H68	H	-0.650435	-0.311365	-0.951145
H69	H	-0.692306	-0.307985	-0.866086
H70	H	-0.618114	-0.275834	-0.872046
H71	H	-0.731277	-0.212899	-0.944073
H72	H	-0.657087	-0.180751	-0.950050
O73	O	-0.738254	0.402267	0.000370
C74	C	-0.704407	0.380162	0.072084
H75	H	-0.745084	0.365864	0.122235
H76	H	-0.667977	0.326074	0.055851
C77	C	-0.611740	0.465960	0.043008
C78	C	-0.661700	0.448404	0.104607
H79	H	-0.585394	0.508052	0.063068
H80	H	-0.634542	0.480850	-0.005309
H81	H	-0.581388	0.420880	0.029486
H82	H	-0.692056	0.493479	0.118121
H83	H	-0.638903	0.433523	0.152927
O84	O	-0.727144	-0.228812	-0.388677
C85	C	-0.658190	-0.215232	-0.367357
H86	H	-0.655144	-0.151434	-0.343381
H87	H	-0.642394	-0.256057	-0.316756
C88	C	-0.612059	-0.309785	-0.474262
C89	C	-0.608318	-0.231426	-0.444819
H90	H	-0.581295	-0.319778	-0.522042
H91	H	-0.658515	-0.318937	-0.488624
H92	H	-0.598898	-0.343798	-0.432086
H93	H	-0.621488	-0.197416	-0.486991
H94	H	-0.561862	-0.222269	-0.430466
O95	O	-0.172409	-0.242177	0.000255
C96	C	-0.120996	-0.304266	0.000284
H97	H	-0.069122	-0.283854	-0.025931
H98	H	-0.114798	-0.322672	0.066738
C99	C	-0.206992	-0.399867	-0.021841
C100	C	-0.143282	-0.374799	-0.054046
H101	H	-0.220740	-0.443377	-0.055351
H102	H	-0.241631	-0.358037	-0.021858
H103	H	-0.201819	-0.415200	0.033537
H104	H	-0.148458	-0.359457	-0.109418
H105	H	-0.108644	-0.416627	-0.054040
H106	H	-0.766645	-0.181459	-0.617712
H107	H	-0.923699	0.298347	0.000266
O108	O	-0.489442	0.033832	0.000061
C109	C	-0.506715	0.073246	-0.071673
H110	H	-0.522232	0.028688	-0.121818
H111	H	-0.552268	0.117791	-0.055468
C112	C	-0.424028	0.171045	-0.042593
C113	C	-0.443081	0.116317	-0.104185
H114	H	-0.384778	0.197616	-0.062647
H115	H	-0.412393	0.144493	0.005737
H116	H	-0.461994	0.208158	-0.029095
H117	H	-0.405119	0.079199	-0.117675
H118	H	-0.454709	0.142864	-0.152519
O119	O	-0.909227	-0.010041	-0.216898
C120	C	-0.945940	0.034097	-0.274054
H121	H	-0.914648	0.031768	-0.336206
H122	H	-0.998910	0.008391	-0.283333
C123	C	-0.995192	0.123043	-0.163661
C124	C	-0.956755	0.120188	-0.239996
H125	H	-1.001867	0.176147	-0.142652
H126	H	-0.970460	0.093305	-0.125153
H127	H	-1.039330	0.101616	-0.171404
H128	H	-0.912615	0.141604	-0.232251
H129	H	-0.981480	0.149931	-0.278502
O130	O	-0.895906	-0.025909	-0.478087
C131	C	-0.879135	0.050402	-0.499323
H132	H	-0.822226	0.049479	-0.523327
H133	H	-0.914367	0.070937	-0.549878
C134	C	-0.959995	0.108403	-0.392317
C135	C	-0.890097	0.107270	-0.421794
H136	H	-0.966760	0.143483	-0.344495
H137	H	-0.971296	0.056991	-0.378012
H138	H	-0.989347	0.125513	-0.434454
H139	H	-0.860747	0.090151	-0.379661
H140	H	-0.878791	0.158681	-0.436090
H141	H	-0.727086	0.641268	0.000216
H142	H	-0.035188	-0.228638	0.000309
H143	H	-0.050034	0.029865	0.000353
H144	H	-0.966973	0.527972	0.000281
H145	H	-0.741167	-0.212183	-0.223681
H146	H	-0.920770	0.003904	-0.775832
O147	O	-0.188758	0.038705	0.000242
C148	C	-0.260037	0.022241	0.000249
H149	H	-0.265365	-0.040477	-0.025978
H150	H	-0.283732	0.028645	0.066697
C151	C	-0.292149	0.157361	-0.021864
C152	C	-0.298694	0.080331	-0.054083
H153	H	-0.315996	0.193195	-0.055375
H154	H	-0.244128	0.168454	-0.021866
H155	H	-0.311894	0.162686	0.033509
H156	H	-0.278942	0.075004	-0.109451
H157	H	-0.346713	0.069238	-0.054093
H158	H	-0.626746	0.020352	0.000166
O159	O	-0.728854	0.485368	0.000120
C160	C	-0.725609	0.434011	-0.071627
H161	H	-0.780257	0.428866	-0.095529
H162	H	-0.690022	0.458176	-0.121870
C163	C	-0.629199	0.358536	-0.020483
C164	C	-0.696319	0.352212	-0.049836
H165	H	-0.611128	0.308079	-0.007044
H166	H	-0.631383	0.393137	0.027853
H167	H	-0.599551	0.378676	-0.062357
H168	H	-0.725967	0.332081	-0.007959
H169	H	-0.694139	0.317605	-0.098165
H170	H	-0.934841	0.150443	0.000257
O171	O	-0.901995	-0.018905	-0.388747
C172	C	-0.945423	-0.063204	-0.439173
H173	H	-0.920693	-0.125108	-0.452248
H174	H	-0.998746	-0.066683	-0.405572
C175	C	-0.984610	0.052756	-0.505924
C176	C	-0.954234	-0.023273	-0.521989
H177	H	-0.990049	0.077389	-0.557007
H178	H	-0.955354	0.082603	-0.471949
H179	H	-1.029043	0.049847	-0.477921
H180	H	-0.909799	-0.020362	-0.549982
H181	H	-0.983483	-0.053118	-0.555970
O182	O	-0.684525	0.268544	0.000102
C183	C	-0.644665	0.239195	-0.071654
H184	H	-0.666045	0.181500	-0.095566
H185	H	-0.647833	0.283857	-0.121886
C186	C	-0.541705	0.295602	-0.020511
C187	C	-0.567961	0.224736	-0.049876
H188	H	-0.494390	0.286686	-0.007079
H189	H	-0.568560	0.315378	0.027832
H190	H	-0.544352	0.332813	-0.062376
H191	H	-0.565322	0.187530	-0.008008
H192	H	-0.541104	0.204954	-0.098211
O193	O	-0.934798	0.020572	-0.610911
C194	C	-1.003745	0.006945	-0.632225
H195	H	-1.002753	-0.026396	-0.695532
H196	H	-1.029715	-0.029428	-0.583165
C197	C	-1.046536	0.127179	-0.558508
C198	C	-1.045318	0.086235	-0.636266
H199	H	-1.072181	0.176088	-0.560997
H200	H	-1.000085	0.136359	-0.544145
H201	H	-1.068176	0.096860	-0.517633
H202	H	-1.023670	0.116550	-0.677137
H203	H	-1.091766	0.077062	-0.650636
O204	O	-0.923631	0.389335	0.000387
C205	C	-0.933977	0.346398	0.072137
H206	H	-0.881169	0.327122	0.096044
H207	H	-0.964838	0.385070	0.122375
C208	C	-1.039785	0.296970	0.020989
C209	C	-0.974925	0.273290	0.050349
H210	H	-1.065046	0.251875	0.007551
H211	H	-1.032817	0.325900	-0.027349
H212	H	-1.065494	0.329198	0.062859
H213	H	-0.949215	0.241071	0.008475
H214	H	-0.981890	0.244353	0.098679
H215	H	-0.773209	-0.173574	-0.514564
O216	O	-0.473381	-0.247136	0.000272
C217	C	-0.517567	-0.310807	0.000250
H218	H	-0.571844	-0.289449	0.026452
H219	H	-0.521239	-0.336223	-0.066199
C220	C	-0.420890	-0.401107	0.022413
C221	C	-0.487552	-0.374876	0.054602
H222	H	-0.402375	-0.440630	0.055937
H223	H	-0.391121	-0.358212	0.022425
H224	H	-0.423959	-0.422282	-0.032961
H225	H	-0.484481	-0.353693	0.109971
H226	H	-0.517321	-0.417770	0.054601
H227	H	-0.706097	0.115826	0.000213
H228	H	-0.955830	0.675887	0.000282
