data_functionalizedCrystal
_audit_creation_method	'MofGen! by Chris Wilmer'
_symmetry_space_group_name_H-M	'P1'
_symmetry_Int_Tables_number	1
_symmetry_cell_setting	triclinic
loop_
_symmetry_equiv_pos_as_xyz
  x,y,z
_cell_length_a	12.811445
_cell_length_b	10.654551
_cell_length_c	11.295483
_cell_angle_alpha	94.137679
_cell_angle_beta	80.460739
_cell_angle_gamma	84.264746
loop_
_atom_site_label
_atom_site_type_symbol
_atom_site_fract_x
_atom_site_fract_y
_atom_site_fract_z
O1	O	1.411703	0.147813	-0.251457
O2	O	1.103901	0.169024	-0.218221
O3	O	1.264879	-0.024422	-0.235604
O4	O	1.250726	0.341259	-0.234075
O5	O	1.250739	-0.007457	-0.036026
O6	O	1.089762	0.185989	-0.018644
O7	O	1.397564	0.164778	-0.051880
Cu8	Cu	1.242372	0.176932	-0.017039
Cu9	Cu	1.259093	0.156870	-0.253062
O10	O	1.236587	0.358224	-0.034497
C11	C	1.057418	0.176836	-0.114177
C12	C	0.939981	0.174825	-0.101497
C13	C	0.734714	0.152572	-0.295270
C14	C	0.624371	0.150682	-0.283361
C15	C	0.608949	0.169164	-0.065770
C16	C	0.719292	0.171054	-0.077679
C17	C	0.782171	0.162756	-0.192433
C18	C	0.892517	0.164637	-0.204341
C19	C	0.877092	0.183128	0.013249
C20	C	0.766749	0.181238	0.025158
C21	C	1.256770	-0.062723	-0.135706
C22	C	1.253661	-0.202122	-0.135378
C23	C	1.259909	-0.276861	-0.244008
C24	C	1.256977	-0.407838	-0.243686
C25	C	1.241553	-0.389328	-0.026095
C26	C	1.244477	-0.258351	-0.026417
C27	C	1.269092	-0.220631	-0.352969
C28	C	1.275342	-0.295371	-0.461608
C29	C	1.272411	-0.426349	-0.461286
C30	C	1.263229	-0.482587	-0.352325
C31	C	1.444047	0.156965	-0.155927
C32	C	1.561485	0.158976	-0.168615
C33	C	1.244696	0.396525	-0.134398
C34	C	1.247805	0.535923	-0.134734
N35	N	1.230619	0.191043	0.148967
N36	N	1.270855	0.142749	-0.419069
C37	C	1.355460	0.041106	0.384776
C38	C	1.346585	0.051778	0.510398
C39	C	1.203991	0.223052	0.525835
C40	C	1.212866	0.212380	0.400213
C41	C	1.288603	0.121405	0.329688
C42	C	1.297482	0.110740	0.204063
C43	C	1.154884	0.282007	0.219503
C44	C	1.146009	0.292679	0.345125
H45	H	0.557733	0.175932	0.027657
H46	H	0.785912	0.145809	-0.388708
H47	H	1.234079	-0.435128	0.062616
C48	C	1.237708	-0.177417	0.091646
C49	C	1.229065	-0.254694	0.187136
C50	C	1.222823	-0.180181	0.295915
H51	H	1.176954	-0.116114	0.102834
H52	H	1.300109	-0.135768	0.089479
H53	H	1.166671	-0.296323	0.189304
H54	H	1.289812	-0.315996	0.175987
H55	H	1.285224	-0.138532	0.293747
H56	H	1.162069	-0.118882	0.307091
H57	H	1.216968	-0.232604	0.360716
H58	H	1.359154	0.036667	0.146641
C59	C	0.928776	0.193979	0.124807
C60	C	1.002794	0.087593	0.123102
C61	C	1.050436	0.097545	0.225839
H62	H	0.875640	0.198593	0.194937
H63	H	0.964041	0.268278	0.125511
H64	H	0.967530	0.013315	0.122410
H65	H	1.055950	0.082959	0.052996
H66	H	1.085700	0.171844	0.226543
H67	H	0.997292	0.102162	0.295961
H68	H	1.100668	0.025372	0.224690
C69	C	1.279257	-0.507288	-0.579361
C70	C	1.287949	-0.430009	-0.674849
C71	C	1.294277	-0.504526	-0.783643
H72	H	1.216892	-0.548964	-0.577288
H73	H	1.340036	-0.568574	-0.590472
H74	H	1.227176	-0.368746	-0.663742
H75	H	1.350312	-0.388333	-0.676962
H76	H	1.355056	-0.565812	-0.794753
H77	H	1.231910	-0.546198	-0.781557
H78	H	1.300185	-0.452105	-0.848445
H79	H	1.417135	-0.032961	0.327352
C80	C	1.419305	-0.035480	0.569979
C81	C	1.487544	-0.117413	0.481321
C82	C	1.554558	-0.197808	0.536161
H83	H	1.377532	-0.083583	0.623133
H84	H	1.460267	0.013672	0.614153
H85	H	1.446587	-0.166560	0.437168
H86	H	1.529341	-0.069345	0.428163
H87	H	1.595519	-0.148656	0.580335
H88	H	1.512776	-0.245902	0.589314
H89	H	1.600872	-0.253401	0.476015
H90	H	1.142320	0.297113	0.583274
C91	C	1.063889	0.391412	0.421905
C92	C	1.070441	0.383594	0.543710
C93	C	0.994819	0.474543	0.614470
H94	H	0.994595	0.376365	0.409117
H95	H	1.077456	0.473468	0.400078
H96	H	1.056866	0.301558	0.565529
H97	H	1.139718	0.398655	0.556534
H98	H	1.008387	0.556598	0.592643
H99	H	0.925530	0.459488	0.601672
H100	H	0.999261	0.469258	0.697120
H101	H	1.260828	-0.589237	-0.352070
C102	C	1.082228	0.369355	0.159914
C103	C	1.014024	0.451328	0.248569
C104	C	0.947095	0.531823	0.193720
H105	H	1.041231	0.320317	0.115711
H106	H	1.124097	0.417414	0.106784
H107	H	0.972159	0.403275	0.301678
H108	H	1.054992	0.500395	0.292778
H109	H	0.988963	0.579881	0.140589
H110	H	0.906104	0.482773	0.149518
H111	H	0.900817	0.587458	0.253862
C112	C	0.960866	0.155378	-0.328900
C113	C	1.035754	0.047887	-0.343323
C114	C	1.098722	0.039312	-0.458059
H115	H	0.996806	0.228854	-0.337375
H116	H	0.916835	0.148976	-0.388477
H117	H	1.079780	0.054298	-0.283763
H118	H	0.999844	-0.025609	-0.334871
H119	H	1.054691	0.032911	-0.517636
H120	H	1.134654	0.112794	-0.466524
H121	H	1.149534	-0.033626	-0.467864
C122	C	0.573051	0.139553	-0.395161
C123	C	0.651743	0.132662	-0.498200
C124	C	0.604509	0.122395	-0.601216
H125	H	0.522809	0.211614	-0.394390
H126	H	0.537886	0.065180	-0.395925
H127	H	0.686891	0.207027	-0.497436
H128	H	0.701990	0.060603	-0.499011
H129	H	0.569344	0.048022	-0.601980
H130	H	0.554268	0.194458	-0.600432
H131	H	0.657895	0.117706	-0.671140
H132	H	0.715538	0.187998	0.118587
H133	H	1.271483	-0.113984	-0.353244
H134	H	1.282807	-0.249571	-0.550319
