data_functionalizedCrystal
_audit_creation_method	'MofGen! by Chris Wilmer'
_symmetry_space_group_name_H-M	'P1'
_symmetry_Int_Tables_number	1
_symmetry_cell_setting	triclinic
loop_
_symmetry_equiv_pos_as_xyz
  x,y,z
_cell_length_a	8.559649
_cell_length_b	7.681481
_cell_length_c	8.634740
_cell_angle_alpha	83.367078
_cell_angle_beta	85.174486
_cell_angle_gamma	94.912990
loop_
_atom_site_label
_atom_site_type_symbol
_atom_site_fract_x
_atom_site_fract_y
_atom_site_fract_z
O1	O	2.099590	-0.146412	-0.035283
O2	O	1.646426	-0.146417	0.042928
O3	O	1.851557	-0.146411	-0.218113
O4	O	1.894459	-0.146417	0.225759
O5	O	1.876795	0.146447	-0.250308
O6	O	1.671665	0.146442	0.010734
O7	O	2.124828	0.146446	-0.067477
Zn8	Zn	1.902254	0.192942	-0.033483
Zn9	Zn	1.869001	-0.192912	0.008934
O10	O	1.919697	0.146441	0.193564
C11	C	1.600428	0.000012	0.032758
C12	C	1.425764	0.000010	0.050401
C13	C	1.854457	0.000015	-0.290509
C14	C	1.825478	0.000005	-0.458260
C15	C	2.170826	0.000014	-0.057307
C16	C	2.345489	0.000004	-0.074948
N17	N	1.924959	0.456277	-0.062435
N18	N	1.846306	-0.456247	0.037872
C19	C	1.916797	0.000011	0.265961
C20	C	1.945775	0.000009	0.433713
H21	H	2.360866	-0.000005	0.171217
H22	H	2.410394	0.000001	-0.195771
F23	F	2.029928	0.554573	-0.196256
H24	H	1.766017	0.468555	0.140257
H25	H	1.700317	-0.000003	-0.494107
H26	H	2.070938	-0.000055	-0.530426
