data_functionalizedCrystal
_audit_creation_method	'MofGen! by Chris Wilmer'
_symmetry_space_group_name_H-M	'P1'
_symmetry_Int_Tables_number	1
_symmetry_cell_setting	triclinic
loop_
_symmetry_equiv_pos_as_xyz
  x,y,z
_cell_length_a	13.897448
_cell_length_b	13.897449
_cell_length_c	12.759393
_cell_angle_alpha	90.023249
_cell_angle_beta	89.967173
_cell_angle_gamma	89.982475
loop_
_atom_site_label
_atom_site_type_symbol
_atom_site_fract_x
_atom_site_fract_y
_atom_site_fract_z
Zn1	Zn	-0.383967	-1.474706	-0.594085
Zn2	Zn	0.116033	-0.974706	-0.094085
Zn3	Zn	-0.545295	-1.474599	-0.418400
Zn4	Zn	-0.045295	-0.974599	0.081600
Zn5	Zn	-0.384015	-1.313394	-0.418412
Zn6	Zn	0.115985	-0.813394	0.081588
Zn7	Zn	-0.545221	-1.313377	-0.594028
Zn8	Zn	-0.045221	-0.813377	-0.094028
O9	O	-0.464625	-1.394019	-0.506231
O10	O	0.035375	-0.894019	-0.006231
O11	O	-0.405378	-1.609674	-0.570799
O12	O	0.094622	-1.109674	-0.070799
O13	O	-0.523952	-1.453177	-0.271380
O14	O	-0.023952	-0.953177	0.228620
O15	O	-0.249027	-1.334845	-0.441744
O16	O	0.250973	-0.834845	0.058256
O17	O	-0.523905	-1.609595	-0.441723
O18	O	-0.023905	-1.109595	0.058277
O19	O	-0.248992	-1.453360	-0.570810
O20	O	0.251008	-0.953360	-0.070810
O21	O	-0.405460	-1.334741	-0.271389
O22	O	0.094540	-0.834741	0.228611
O23	O	-0.405389	-1.178410	-0.441689
O24	O	0.094611	-0.678410	0.058311
O25	O	-0.523780	-1.334815	-0.741057
O26	O	-0.023780	-0.834815	-0.241057
O27	O	-0.523826	-1.178398	-0.570714
O28	O	-0.023826	-0.678398	-0.070714
O29	O	-0.405307	-1.453343	-0.741099
O30	O	0.094693	-0.953343	-0.241099
O31	O	-0.680267	-1.453161	-0.441668
O32	O	-0.180267	-0.953161	0.058332
O33	O	-0.680213	-1.334712	-0.570702
O34	O	-0.180213	-0.834712	-0.070702
C35	C	-0.464606	-1.143405	-0.506197
C36	C	0.035394	-0.643405	-0.006197
C37	C	-0.464621	-1.036191	-0.506207
C38	C	0.035379	-0.536191	-0.006207
C39	C	-0.464619	-0.839896	-0.506227
C40	C	0.035381	-0.339896	-0.006227
C41	C	-0.464617	-0.949128	-0.506213
C42	C	0.035383	-0.449128	-0.006213
C43	C	-0.715239	-1.393949	-0.506201
C44	C	-0.215239	-0.893949	-0.006201
C45	C	-0.822453	-1.394007	-0.506223
C46	C	-0.322453	-0.894007	-0.006223
C47	C	-1.018748	-1.394108	-0.506289
C48	C	-0.518748	-0.894108	-0.006289
C49	C	-0.909516	-1.394049	-0.506255
C50	C	-0.409516	-0.894049	-0.006255
C51	C	-0.213032	-1.394116	-0.506285
C52	C	0.286968	-0.894116	-0.006285
C53	C	-0.105818	-1.394158	-0.506307
C54	C	0.394182	-0.894158	-0.006307
C55	C	-0.464530	-1.394089	-0.780265
C56	C	0.035470	-0.894089	-0.280265
C57	C	-0.464489	-1.394119	-0.897041
C58	C	0.035511	-0.894119	-0.397041
C59	C	-0.464638	-0.645612	-0.506256
C60	C	0.035362	-0.145612	-0.006256
C61	C	-0.464628	-0.752826	-0.506240
C62	C	0.035372	-0.252826	-0.006240
C63	C	-0.402754	-1.455861	-1.061658
C64	C	0.097246	-0.955861	-0.561658
C65	C	-0.402792	-1.455843	-0.951934
C66	C	0.097208	-0.955843	-0.451934
C67	C	-0.526161	-1.332417	-0.951879
C68	C	-0.026161	-0.832417	-0.451879
C69	C	-0.526127	-1.332441	-1.061601
C70	C	-0.026127	-0.832441	-0.561601
C71	C	-0.464650	-1.394005	-0.233264
C72	C	0.035350	-0.894005	0.266736
C73	C	-0.464419	-1.394162	-0.116488
C74	C	0.035581	-0.894162	0.383512
H75	H	-0.352506	-1.506118	-1.106343
H76	H	0.147494	-1.006118	-0.606343
C77	C	-0.539491	-1.202724	-1.184988
C78	C	-0.039491	-0.702724	-0.684988
C79	C	-0.593917	-1.264624	-1.121886
C80	C	-0.093917	-0.764624	-0.621886
H81	H	-0.581345	-1.160868	-1.222211
H82	H	-0.081345	-0.660868	-0.722211
H83	H	-0.497491	-1.165825	-1.142192
H84	H	0.002509	-0.665825	-0.642192
H85	H	-0.502739	-1.239501	-1.233368
H86	H	-0.002739	-0.739501	-0.733368
H87	H	-0.630664	-1.227847	-1.073500
H88	H	-0.130664	-0.727847	-0.573500
H89	H	-0.635935	-1.301526	-1.164685
H90	H	-0.135935	-0.801526	-0.664685
H91	H	-0.352579	-1.506086	-0.907296
H92	H	0.147421	-1.006086	-0.407296
H93	H	-0.576400	-1.282165	-0.907177
H94	H	-0.076400	-0.782165	-0.407177
