data_functionalizedCrystal
_audit_creation_method	'MofGen! by Chris Wilmer'
_symmetry_space_group_name_H-M	'P1'
_symmetry_Int_Tables_number	1
_symmetry_cell_setting	triclinic
loop_
_symmetry_equiv_pos_as_xyz
  x,y,z
_cell_length_a	12.759400
_cell_length_b	19.077367
_cell_length_c	19.077174
_cell_angle_alpha	90.114431
_cell_angle_beta	92.275311
_cell_angle_gamma	87.686825
loop_
_atom_site_label
_atom_site_type_symbol
_atom_site_fract_x
_atom_site_fract_y
_atom_site_fract_z
Zn1	Zn	-0.374182	-1.090224	-0.354296
Zn2	Zn	0.125818	-0.590224	0.145704
Zn3	Zn	-0.543118	-1.085444	-0.236799
Zn4	Zn	-0.043118	-0.585444	0.263201
Zn5	Zn	-0.374776	-0.968004	-0.241510
Zn6	Zn	0.125224	-0.468004	0.258490
Zn7	Zn	-0.557144	-0.972704	-0.358972
Zn8	Zn	-0.057144	-0.472704	0.141028
O9	O	-0.462305	-1.029094	-0.297894
O10	O	0.037695	-0.529094	0.202106
O11	O	-0.390474	-1.187921	-0.334781
O12	O	0.109526	-0.687921	0.165219
O13	O	-0.515166	-1.065898	-0.139092
O14	O	-0.015166	-0.565898	0.360908
O15	O	-0.227675	-0.984250	-0.256486
O16	O	0.272325	-0.484250	0.243514
O17	O	-0.514590	-1.184409	-0.248457
O18	O	-0.014590	-0.684409	0.251543
O19	O	-0.227239	-1.074044	-0.339350
O20	O	0.272761	-0.574044	0.160650
O21	O	-0.391485	-0.979615	-0.142554
O22	O	0.108515	-0.479615	0.357446
O23	O	-0.405085	-0.870296	-0.261020
O24	O	0.094915	-0.370296	0.238980
O25	O	-0.538495	-0.992261	-0.456683
O26	O	-0.038495	-0.492261	0.043317
O27	O	-0.539071	-0.873749	-0.347319
O28	O	-0.039071	-0.373749	0.152681
O29	O	-0.404074	-1.078602	-0.453248
O30	O	0.095926	-0.578602	0.046752
O31	O	-0.692001	-1.070455	-0.252990
O32	O	-0.192001	-0.570455	0.247010
O33	O	-0.702306	-0.987626	-0.342750
O34	O	-0.202306	-0.487626	0.157250
C35	C	-0.473665	-0.846527	-0.305188
C36	C	0.026335	-0.346527	0.194812
C37	C	-0.478552	-0.768424	-0.308325
C38	C	0.021448	-0.268424	0.191675
C39	C	-0.410991	-0.729916	-0.264942
C40	C	0.089009	-0.229916	0.235058
C41	C	-0.415591	-0.656530	-0.267889
C42	C	0.084409	-0.156530	0.232111
C43	C	-0.487748	-0.621654	-0.314224
C44	C	0.012252	-0.121654	0.185776
C45	C	-0.555315	-0.660168	-0.357609
C46	C	-0.055315	-0.160168	0.142391
C47	C	-0.550720	-0.733552	-0.354658
C48	C	-0.050720	-0.233552	0.145342
C49	C	-0.508988	-0.402374	-0.327858
C50	C	-0.008988	0.097626	0.172142
C51	C	-0.513577	-0.328985	-0.330808
C52	C	-0.013577	0.171015	0.169192
C53	C	-0.373854	-0.325352	-0.241086
C54	C	0.126146	0.174648	0.258914
C55	C	-0.369260	-0.398738	-0.238142
C56	C	0.130740	0.101262	0.261858
C57	C	-0.436831	-0.437245	-0.281525
C58	C	0.063169	0.062755	0.218475
N59	N	-0.492449	-0.546643	-0.317240
N60	N	0.007551	-0.046643	0.182760
N61	N	-0.432134	-0.512255	-0.278505
N62	N	0.067866	-0.012255	0.221495
C63	C	-0.735274	-1.029052	-0.297881
C64	C	-0.235274	-0.529052	0.202119
C65	C	-0.852049	-1.029099	-0.297896
C66	C	-0.352049	-0.529099	0.202104
C67	C	-0.901510	-1.072280	-0.251206
C68	C	-0.401510	-0.572280	0.248794
C69	C	-1.011233	-1.072324	-0.251226
C70	C	-0.511233	-0.572324	0.248774
C71	C	-1.022024	-0.986000	-0.344629
C72	C	-0.522024	-0.486000	0.155371
C73	C	-0.912303	-0.985960	-0.344612
C74	C	-0.412303	-0.485960	0.155388
C75	C	-0.841256	-1.115419	-0.204491
C76	C	-0.341256	-0.615419	0.295509
C77	C	-0.890717	-1.158603	-0.157796
C78	C	-0.390717	-0.658603	0.342204
C79	C	-1.000439	-1.158647	-0.157816
C80	C	-0.500439	-0.658647	0.342184
C81	C	-1.060701	-1.115507	-0.204531
C82	C	-0.560701	-0.615507	0.295469
C83	C	-0.188270	-1.029156	-0.297922
C84	C	0.311730	-0.529156	0.202078
C85	C	-0.071492	-1.029183	-0.297934
C86	C	0.428508	-0.529183	0.202066
C87	C	-0.472783	-1.036489	-0.481174
C88	C	0.027217	-0.536489	0.018826
C89	C	-0.477248	-1.039640	-0.559278
C90	C	0.022752	-0.539640	-0.059278
C91	C	-0.450895	-0.212374	-0.290565
C92	C	0.049105	0.287626	0.209435
C93	C	-0.446017	-0.290476	-0.287424
C94	C	0.053983	0.209524	0.212576
C95	C	-0.414953	-0.996200	-0.597772
C96	C	0.085047	-0.496200	-0.097772
C97	C	-0.419158	-0.999158	-0.671158
C98	C	0.080842	-0.499158	-0.171158
C99	C	-0.485652	-1.045560	-0.706049
C100	C	0.014348	-0.545560	-0.206049
C101	C	-0.547954	-1.089002	-0.667549
C102	C	-0.047954	-0.589002	-0.167549
C103	C	-0.543755	-1.086040	-0.594164
C104	C	-0.043755	-0.586040	-0.094164
C105	C	-0.505122	-1.059233	-0.925333
C106	C	-0.005122	-0.559233	-0.425333
C107	C	-0.509315	-1.062194	-0.998723
C108	C	-0.009315	-0.562194	-0.498723
C109	C	-0.380519	-0.972348	-1.002327
C110	C	0.119481	-0.472348	-0.502327
C111	C	-0.376321	-0.969393	-0.928940
C112	C	0.123679	-0.469393	-0.428940
C113	C	-0.438627	-1.012832	-0.890447
C114	C	0.061373	-0.512832	-0.390447
N115	N	-0.489949	-1.048587	-0.781061
N116	N	0.010051	-0.548587	-0.281061
N117	N	-0.434335	-1.009802	-0.815436
N118	N	0.065665	-0.509802	-0.315436
C119	C	-0.451789	-1.021768	-0.115325
C120	C	0.048211	-0.521768	0.384675
C121	C	-0.447020	-1.018753	-0.037217
C122	C	0.052980	-0.518753	0.462783
H123	H	-0.360582	-0.625180	-0.232558
H124	H	0.139418	-0.125180	0.267442
N125	N	-1.179044	-1.115558	-0.204545
N126	N	-0.679044	-0.615558	0.295455
H127	H	-1.207804	-1.066852	-0.193519
H128	H	-0.707804	-0.566852	0.306481
H129	H	-1.207301	-1.130422	-0.252257
H130	H	-0.707301	-0.630422	0.247743
N131	N	-0.858937	-0.939389	-0.394966
N132	N	-0.358937	-0.439389	0.105034
H133	H	-0.880178	-0.952294	-0.444750
H134	H	-0.380178	-0.452294	0.055250
H135	H	-0.880612	-0.888771	-0.385963
H136	H	-0.380612	-0.388771	0.114037
H137	H	-0.594474	-1.121419	-0.562822
H138	H	-0.094474	-0.621419	-0.062822
N139	N	-0.351936	-0.952323	-0.712675
N140	N	0.148064	-0.452323	-0.212675
H141	H	-0.364681	-0.961241	-0.764458
H142	H	0.135319	-0.461241	-0.264458
H143	H	-0.370650	-0.901612	-0.701857
H144	H	0.129350	-0.401612	-0.201857
H145	H	-0.352226	-0.758306	-0.227216
H146	H	0.147774	-0.258306	0.272784
N147	N	-0.304579	-0.919350	-0.891323
N148	N	0.195421	-0.419350	-0.391323
H149	H	-0.324737	-0.869653	-0.906097
H150	H	0.175263	-0.369653	-0.406097
H151	H	-0.311383	-0.924122	-0.839001
H152	H	0.188617	-0.424122	-0.339001
N153	N	-1.053796	-1.205221	-0.107460
N154	N	-0.553796	-0.705221	0.392540
H155	H	-1.032129	-1.255854	-0.116401
H156	H	-0.532129	-0.755854	0.383599
H157	H	-1.032539	-1.192252	-0.057699
H158	H	-0.532539	-0.692252	0.442301
N159	N	-0.313343	-0.925484	-1.043844
N160	N	0.186657	-0.425484	-0.543844
H161	H	-0.326098	-0.934394	-1.095628
H162	H	0.173902	-0.434394	-0.595628
H163	H	-0.332105	-0.874782	-1.033011
H164	H	0.167895	-0.374782	-0.533011
H165	H	-0.360800	-0.958418	-0.569370
H166	H	0.139200	-0.458418	-0.069370
N167	N	-0.619673	-1.139056	-0.705172
N168	N	-0.119673	-0.639056	-0.205172
H169	H	-0.694688	-1.127608	-0.692827
H170	H	-0.194688	-0.627608	-0.192827
H171	H	-0.612795	-1.134324	-0.757491
H172	H	-0.112795	-0.634324	-0.257491
H173	H	-1.071097	-0.950877	-0.382661
H174	H	-0.571097	-0.450877	0.117339
N175	N	-0.291412	-0.436353	-0.188182
N176	N	0.208588	0.063647	0.311818
H177	H	-0.249303	-0.400822	-0.161149
H178	H	0.250697	0.099178	0.338851
H179	H	-0.330312	-0.465485	-0.154385
H180	H	0.169688	0.034515	0.345615
N181	N	-0.581032	-1.112247	-1.036357
N182	N	-0.081032	-0.612247	-0.536357
H183	H	-0.619867	-1.139317	-1.000837
H184	H	-0.119867	-0.639317	-0.500837
H185	H	-0.633168	-1.084862	-1.067946
H186	H	-0.133168	-0.584862	-0.567946
N187	N	-0.633150	-0.622556	-0.407581
N188	N	-0.133150	-0.122556	0.092419
H189	H	-0.625810	-0.570224	-0.402870
H190	H	-0.125810	-0.070224	0.097130
H191	H	-0.618984	-0.637423	-0.457268
H192	H	-0.118984	-0.137423	0.042732
H193	H	-0.555868	-1.094597	-0.894000
H194	H	-0.055868	-0.594597	-0.394000
N195	N	-0.300991	-0.283821	-0.194287
N196	N	0.199009	0.216179	0.305713
H197	H	-0.313532	-0.294559	-0.143552
H198	H	0.186468	0.205441	0.356448
H199	H	-0.225808	-0.297061	-0.204827
H200	H	0.274192	0.202939	0.295173
H201	H	-0.572335	-0.300591	-0.368544
H202	H	-0.072335	0.199409	0.131456
H203	H	-0.564010	-0.433718	-0.363184
H204	H	-0.064010	0.066282	0.136816
N205	N	-0.825728	-1.205138	-0.107420
N206	N	-0.325728	-0.705138	0.392580
H207	H	-0.748715	-1.198559	-0.114491
H208	H	-0.248715	-0.698559	0.385509
H209	H	-0.842764	-1.192225	-0.057665
H210	H	-0.342764	-0.692225	0.442335
H211	H	-0.751914	-1.115386	-0.204467
H212	H	-0.251914	-0.615386	0.295533
N213	N	-0.623592	-0.775089	-0.401446
N214	N	-0.123592	-0.275089	0.098554
H215	H	-0.670001	-0.741862	-0.431248
H216	H	-0.170001	-0.241862	0.068752
H217	H	-0.580861	-0.806864	-0.432789
H218	H	-0.080861	-0.306864	0.067211
