data_functionalizedCrystal
_audit_creation_method	'MofGen! by Chris Wilmer'
_symmetry_space_group_name_H-M	'P1'
_symmetry_Int_Tables_number	1
_symmetry_cell_setting	triclinic
loop_
_symmetry_equiv_pos_as_xyz
  x,y,z
_cell_length_a	14.395555
_cell_length_b	20.875641
_cell_length_c	14.395555
_cell_angle_alpha	122.403752
_cell_angle_beta	89.996384
_cell_angle_gamma	62.439513
loop_
_atom_site_label
_atom_site_type_symbol
_atom_site_fract_x
_atom_site_fract_y
_atom_site_fract_z
Zr1	Zr	0.932238	0.702064	0.159146
O2	O	0.791026	0.835872	0.314579
O3	O	0.970594	0.568250	0.106568
O4	O	0.977714	0.702048	0.307459
O5	O	0.783901	0.702089	-0.039171
O6	O	1.130588	0.702043	0.307451
O7	O	0.783906	0.702074	0.113688
O8	O	1.117852	0.462703	-0.051907
O9	O	0.796637	0.941430	0.320186
O10	O	1.107000	0.623289	0.090094
O11	O	0.992908	0.623304	-0.023977
O12	O	1.001291	0.780834	0.212547
O13	O	0.887199	0.780849	0.098476
Zr14	Zr	1.176045	0.702081	-0.084659
Zr15	Zr	1.176054	0.702057	0.159133
Zr16	Zr	0.932229	0.702089	-0.084646
Zr17	Zr	0.941187	0.870417	0.168090
Zr18	Zr	1.167096	0.533729	-0.093603
O19	O	1.137689	0.835896	-0.032081
O20	O	1.137701	0.835861	0.314560
O21	O	0.791014	0.835907	-0.032062
O22	O	1.317257	0.568274	-0.240092
O23	O	1.317269	0.568239	0.106549
O24	O	0.970582	0.568285	-0.240073
O25	O	1.324382	0.702057	0.113658
O26	O	1.130569	0.702098	-0.232972
O27	O	0.977695	0.702103	-0.232964
O28	O	1.324377	0.702072	-0.039201
O29	O	0.990438	0.941424	0.320176
O30	O	1.117845	0.462722	-0.245689
O31	O	1.311646	0.462716	-0.245699
O32	O	1.311653	0.462696	-0.051917
O33	O	0.796630	0.941449	0.126404
O34	O	0.990431	0.941443	0.126394
O35	O	1.106992	0.623312	-0.138060
O36	O	1.221084	0.623297	-0.023989
O37	O	1.115375	0.780842	0.098464
O38	O	1.001283	0.780857	-0.015607
C39	C	1.042948	0.491489	0.026056
C40	C	1.039149	0.420019	0.022259
C41	C	0.749165	0.702082	0.037260
C42	C	0.645658	0.702086	0.037266
C43	C	1.096916	0.386435	0.080019
C44	C	1.093349	0.319276	0.076441
C45	C	1.032008	0.285708	0.015108
C46	C	0.974239	0.319296	-0.042659
C47	C	0.977813	0.386448	-0.039086
C48	C	1.014939	0.084867	-0.001967
C49	C	1.011367	0.017711	-0.005532
C50	C	1.130479	0.017695	0.113566
C51	C	1.134042	0.084853	0.117138
C52	C	1.076278	0.118431	0.059366
N53	N	1.028358	0.217063	0.011452
N54	N	1.079935	0.187070	0.063016
C55	C	0.527432	0.787986	0.104023
C56	C	0.494316	0.745036	0.146813
C57	C	0.494352	0.745032	-0.005517
C58	C	0.613905	0.659135	0.080119
C59	C	0.613939	0.659143	-0.072270
C60	C	0.580892	0.616131	-0.029509
C61	C	1.359118	0.702063	0.037227
C62	C	1.462625	0.702060	0.037221
C63	C	1.054152	0.702042	0.342190
C64	C	1.054156	0.702031	0.445686
C65	C	1.065335	0.912656	0.048431
C66	C	1.069134	0.984126	0.052228
C67	C	1.111804	0.616140	0.501425
C68	C	1.159177	0.659061	0.472831
C69	C	1.006833	0.659088	0.472887
C70	C	1.101603	0.744980	0.601527
C71	C	0.949199	0.744994	0.601579
C72	C	0.996549	0.787978	0.573062
C73	C	1.054141	0.702089	0.732286
C74	C	1.054167	0.702057	0.628757
C75	C	1.347925	0.491480	0.026040
C76	C	1.447632	0.420007	0.022237
C77	C	1.042937	0.491520	-0.278890
C78	C	1.039134	0.420061	-0.386183
C79	C	1.347914	0.491511	-0.278907
C80	C	1.447617	0.420048	-0.386205
C81	C	0.760369	0.912635	0.353394
C82	C	0.660666	0.984098	0.460692
C83	C	0.760358	0.912666	0.048447
C84	C	0.660651	0.984139	0.052250
C85	C	1.065346	0.912625	0.353377
C86	C	1.069149	0.984085	0.460670
C87	C	1.434905	0.386438	0.080012
C88	C	1.528582	0.319290	0.076462
C89	C	1.634984	0.285708	0.015130
C90	C	1.647709	0.319284	-0.042646
C91	C	1.554034	0.386435	-0.039089
C92	C	1.096899	0.386507	-0.496129
C93	C	1.093322	0.319372	-0.596951
C94	C	1.031986	0.285788	-0.587824
C95	C	0.974214	0.319349	-0.477866
C96	C	0.977786	0.386487	-0.377047
C97	C	1.554004	0.386480	-0.377050
C98	C	1.647696	0.319343	-0.477859
C99	C	1.634999	0.285770	-0.587822
C100	C	1.528601	0.319344	-0.596974
C101	C	1.434911	0.386485	-0.496166
C102	C	0.554279	1.017673	0.451538
C103	C	0.460588	1.084832	0.552347
C104	C	0.473286	1.118409	0.662310
C105	C	0.579684	1.084830	0.671463
C106	C	0.673373	1.017678	0.570654
C107	C	0.673378	1.017715	-0.005514
C108	C	0.579703	1.084881	-0.001937
C109	C	0.473300	1.118465	0.059399
C110	C	0.460575	1.084887	0.117170
C111	C	0.554250	1.017727	0.113599
C112	C	1.130495	1.017648	0.451506
C113	C	1.134090	1.084782	0.552309
C114	C	1.076331	1.118358	0.662276
C115	C	1.014983	1.084789	0.671437
C116	C	1.011395	1.017651	0.570635
H117	H	1.146861	0.413765	0.129969
Cl118	Cl	0.538230	0.975519	0.186216
Cl119	Cl	0.942326	0.127067	-0.074600
Cl120	Cl	0.942365	1.127017	0.809691
Cl121	Cl	0.921315	0.900199	0.618559
Cl122	Cl	1.570053	0.428621	-0.111738
H123	H	0.924276	0.291995	-0.470453
H124	H	1.518199	0.291961	0.123511
Cl125	Cl	0.595628	1.127047	0.809711
Cl126	Cl	0.934254	0.975474	0.582177
Cl127	Cl	1.163564	0.800997	0.686851
Cl128	Cl	1.569997	0.428679	-0.238824
H129	H	1.079261	1.173027	0.744346
Cl130	Cl	1.165949	0.277076	0.149084
Cl131	Cl	1.174018	0.428710	-0.507634
H132	H	0.860450	0.781277	0.657015
H133	H	1.183991	0.112183	0.167080
H134	H	0.665522	0.622876	-0.164863
Cl135	Cl	1.203096	-0.024524	0.186184
Cl136	Cl	1.781481	0.277053	-0.119750
H137	H	0.442776	0.781360	-0.041681
Cl138	Cl	1.752738	0.201287	0.010667
Cl139	Cl	0.807112	0.975470	0.582183
Cl140	Cl	1.752792	0.201361	-0.714542
Cl141	Cl	0.934243	-0.024486	-0.082638
H142	H	0.924300	0.291955	-0.092603
Cl143	Cl	0.595726	1.127076	-0.074576
Cl144	Cl	1.165961	0.277193	-0.735169
H145	H	0.602683	0.543434	-0.085972
Cl146	Cl	0.807131	0.975513	-0.082624
Cl147	Cl	0.905192	0.428667	-0.111705
Cl148	Cl	1.512656	0.277126	-0.735223
Cl149	Cl	1.301171	0.428670	-0.507696
H150	H	0.930750	0.413798	-0.287528
Cl151	Cl	1.296225	0.602996	0.387235
Cl152	Cl	1.187156	0.504009	0.456255
Cl153	Cl	1.781440	0.277145	-0.466326
Cl154	Cl	1.027511	0.201384	-0.714582
H155	H	0.396989	1.173088	0.744386
Cl156	Cl	0.538287	0.975476	0.313311
Cl157	Cl	1.203118	0.975451	0.313274
H158	H	0.966804	0.622762	0.417472
Cl159	Cl	0.326844	1.127027	0.540815
H160	H	0.505852	0.860623	0.160557
H161	H	0.397033	1.173152	0.062297
Cl162	Cl	0.326803	1.127113	0.194267
Cl163	Cl	0.414669	0.801077	0.289800
H164	H	1.184045	1.112107	0.544827
H165	H	1.348275	0.413780	0.129969
H166	H	0.665337	0.622850	0.116390
