data_functionalizedCrystal
_audit_creation_method	'MofGen! by Chris Wilmer'
_symmetry_space_group_name_H-M	'P1'
_symmetry_Int_Tables_number	1
_symmetry_cell_setting	triclinic
loop_
_symmetry_equiv_pos_as_xyz
  x,y,z
_cell_length_a	16.992695
_cell_length_b	9.065218
_cell_length_c	16.053802
_cell_angle_alpha	92.619430
_cell_angle_beta	92.741074
_cell_angle_gamma	92.157946
loop_
_atom_site_label
_atom_site_type_symbol
_atom_site_fract_x
_atom_site_fract_y
_atom_site_fract_z
O1	O	0.111807	-1.976917	-0.069433
O2	O	0.611807	-1.476917	0.430567
O3	O	0.121245	-1.548507	-0.069434
O4	O	0.621245	-1.048507	0.430566
O5	O	0.002371	-1.760994	-0.069427
O6	O	0.502371	-1.260994	0.430573
O7	O	0.230680	-1.764430	-0.069440
O8	O	0.730680	-1.264430	0.430560
O9	O	0.008887	-1.749295	0.069432
O10	O	0.508887	-1.249295	0.569432
O11	O	0.127761	-1.536808	0.069425
O12	O	0.627761	-1.036808	0.569425
O13	O	0.118322	-1.965218	0.069426
O14	O	0.618322	-1.465218	0.569426
Zn15	Zn	0.124076	-1.749156	0.091472
Zn16	Zn	0.624076	-1.249156	0.591472
Zn17	Zn	0.115491	-1.764570	-0.091480
Zn18	Zn	0.615491	-1.264570	0.408520
O19	O	0.237196	-1.752731	0.069419
O20	O	0.737196	-1.252731	0.569419
C21	C	0.123596	-1.487587	-0.000005
C22	C	0.623596	-0.987587	0.499995
C23	C	0.120883	-1.323493	-0.000005
C24	C	0.620883	-0.823493	0.499995
C25	C	-0.023615	-1.750726	0.000003
C26	C	0.476385	-1.250726	0.500003
C27	C	-0.110753	-1.737542	0.000002
C28	C	0.389247	-1.237542	0.500002
N29	N	0.129935	-1.738647	0.216332
N30	N	0.629935	-1.238647	0.716332
C31	C	-0.160090	-1.864748	0.000004
C32	C	0.339910	-1.364748	0.500004
C33	C	-0.241965	-1.852352	-0.000004
C34	C	0.258035	-1.352352	0.499996
C35	C	-0.274501	-1.712749	-0.000008
C36	C	0.225499	-1.212749	0.499992
C37	C	-0.225158	-1.585534	-0.000011
C38	C	0.274842	-1.085534	0.499989
C39	C	-0.143284	-1.597931	-0.000009
C40	C	0.356716	-1.097931	0.499991
C41	C	-0.518464	-1.661366	-0.000019
C42	C	-0.018464	-1.161366	0.499981
C43	C	-0.600343	-1.648978	-0.000019
C44	C	-0.100343	-1.148978	0.499981
C45	C	-0.617145	-1.915798	-0.000013
C46	C	-0.117145	-1.415798	0.499987
C47	C	-0.535269	-1.928183	-0.000006
C48	C	-0.035269	-1.428183	0.499994
C49	C	-0.485933	-1.800968	-0.000014
C50	C	0.014067	-1.300968	0.499986
N51	N	-0.358190	-1.700075	-0.000013
N52	N	0.141810	-1.200075	0.499987
N53	N	-0.402246	-1.813644	-0.000015
N54	N	0.097754	-1.313644	0.499985
C55	C	0.263182	-1.762999	-0.000012
C56	C	0.763182	-1.262999	0.499988
C57	C	0.350320	-1.776184	-0.000018
C58	C	0.850320	-1.276184	0.499982
C59	C	0.115972	-2.026138	-0.000005
C60	C	0.615972	-1.526138	0.499995
C61	C	0.118684	-2.190233	-0.000010
C62	C	0.618684	-1.690233	0.499990
N63	N	0.109627	-1.775089	-0.216340
N64	N	0.609627	-1.275089	0.283660
C65	C	0.079372	-1.829097	0.260029
C66	C	0.579372	-1.329097	0.760029
C67	C	0.083478	-1.821761	0.347436
C68	C	0.583478	-1.321761	0.847436
C69	C	0.138150	-1.723980	0.391143
C70	C	0.638150	-1.223980	0.891143
C71	C	0.188715	-1.633519	0.347440
C72	C	0.688715	-1.133519	0.847440
C73	C	0.184605	-1.640849	0.260035
C74	C	0.684605	-1.140849	0.760035
C75	C	0.156081	-1.691959	0.652552
C76	C	0.656081	-1.191959	1.152552
C77	C	0.160189	-1.684639	0.739963
C78	C	0.660189	-1.184639	1.239963
C79	C	0.054950	-1.872879	0.739952
C80	C	0.554950	-1.372879	1.239952
C81	C	0.050848	-1.880207	0.652546
C82	C	0.550848	-1.380207	1.152546
C83	C	0.101410	-1.789741	0.608850
C84	C	0.601410	-1.289741	1.108850
N85	N	0.142350	-1.716482	0.480487
N86	N	0.642350	-1.216482	0.980487
N87	N	0.097206	-1.797232	0.519508
N88	N	0.597206	-1.297232	1.019508
H89	H	-0.133605	-1.978427	0.000011
H90	H	0.366395	-1.478427	0.500011
H91	H	-0.103114	-1.494346	-0.000011
H92	H	0.396886	-0.994346	0.499989
H93	H	-0.251655	-1.471866	-0.000019
H94	H	0.248345	-0.971866	0.499981
H95	H	-0.478304	-1.557778	-0.000026
H96	H	0.021696	-1.057778	0.499974
H97	H	0.042306	-1.895412	0.383013
H98	H	0.542306	-1.395412	0.883013
H99	H	0.034855	-1.908727	0.224448
H100	H	0.534855	-1.408727	0.724448
H101	H	0.233228	-1.553896	0.383032
H102	H	0.733228	-1.053896	0.883032
H103	H	0.006330	-1.959827	0.616960
H104	H	0.506330	-1.459827	1.116960
H105	H	0.225777	-1.567193	0.224458
H106	H	0.725777	-1.067193	0.724458
H107	H	0.013785	-1.946531	0.775537
H108	H	0.513785	-1.446531	1.275537
H109	H	0.197252	-1.618300	0.616982
H110	H	0.697252	-1.118300	1.116982
H111	H	0.204713	-1.605010	0.775546
H112	H	0.704713	-1.105010	1.275546
H113	H	-0.508785	-2.041862	-0.000004
H114	H	-0.008785	-1.541862	0.499996
H115	H	-0.282132	-1.955937	-0.000002
H116	H	0.217868	-1.455937	0.499998
H117	H	-0.657323	-2.019368	-0.000008
H118	H	-0.157323	-1.519368	0.499992
H119	H	-0.626830	-1.535289	-0.000008
H120	H	-0.126830	-1.035289	0.499992
