data_functionalizedCrystal
_audit_creation_method	'MofGen! by Chris Wilmer'
_symmetry_space_group_name_H-M	'P1'
_symmetry_Int_Tables_number	1
_symmetry_cell_setting	triclinic
loop_
_symmetry_equiv_pos_as_xyz
  x,y,z
_cell_length_a	19.288864
_cell_length_b	10.654551
_cell_length_c	18.366186
_cell_angle_alpha	89.996635
_cell_angle_beta	89.977106
_cell_angle_gamma	83.810805
loop_
_atom_site_label
_atom_site_type_symbol
_atom_site_fract_x
_atom_site_fract_y
_atom_site_fract_z
O1	O	0.922379	0.156656	-0.060779
O2	O	1.422379	0.656656	0.439221
O3	O	0.720257	0.177789	-0.060729
O4	O	1.220257	0.677789	0.439271
O5	O	0.825965	-0.015616	-0.060755
O6	O	1.325965	0.484384	0.439245
O7	O	0.816671	0.350061	-0.060752
O8	O	1.316671	0.850061	0.439248
O9	O	0.825946	-0.015625	0.060344
O10	O	1.325946	0.484375	0.560344
O11	O	0.720238	0.177780	0.060371
O12	O	1.220238	0.677780	0.560371
O13	O	0.922361	0.156647	0.060320
O14	O	1.422361	0.656647	0.560320
Zn15	Zn	0.821297	0.167212	0.079573
Zn16	Zn	1.321297	0.667212	0.579573
Zn17	Zn	0.821321	0.167224	-0.079981
Zn18	Zn	1.321321	0.667224	0.420019
O19	O	0.816653	0.350052	0.060347
O20	O	1.316653	0.850052	0.560347
C21	C	0.694367	0.177104	-0.000173
C22	C	1.194367	0.677104	0.499827
C23	C	0.617250	0.175063	-0.000153
C24	C	1.117250	0.675063	0.499847
C25	C	0.573297	0.288544	-0.000164
C26	C	1.073297	0.788544	0.499836
C27	C	0.500837	0.286627	-0.000172
C28	C	1.000837	0.786627	0.499828
C29	C	0.472334	0.171221	-0.000184
C30	C	0.972334	0.671221	0.499816
C31	C	0.516296	0.057725	-0.000170
C32	C	1.016296	0.557725	0.499830
C33	C	0.588754	0.059646	-0.000154
C34	C	1.088754	0.559646	0.499846
C35	C	0.363484	0.080503	-0.042636
C36	C	0.863484	0.580503	0.457364
C37	C	0.291027	0.078587	-0.042656
C38	C	0.791027	0.578587	0.457344
C39	C	0.248849	0.165292	-0.000228
C40	C	0.748849	0.665292	0.499772
C41	C	0.279136	0.253934	0.042210
C42	C	0.779136	0.753934	0.542210
C43	C	0.351594	0.255855	0.042225
C44	C	0.851594	0.755855	0.542225
C45	C	0.393766	0.169126	-0.000200
C46	C	0.893766	0.669126	0.499800
C47	C	0.126327	0.276702	-0.000247
C48	C	0.626327	0.776702	0.499753
C49	C	0.053866	0.274779	-0.000250
C50	C	0.553866	0.774779	0.499750
C51	C	0.069327	0.045875	-0.000255
C52	C	0.569327	0.545875	0.499745
C53	C	0.141786	0.047800	-0.000244
C54	C	0.641786	0.547800	0.499756
C55	C	0.170281	0.163217	-0.000243
C56	C	0.670281	0.663217	0.499757
C57	C	0.825273	-0.062404	-0.000207
C58	C	1.325273	0.437596	0.499793
C59	C	0.823231	-0.201803	-0.000211
C60	C	1.323231	0.298197	0.499789
C61	C	0.822283	-0.267290	-0.066221
C62	C	1.322283	0.232710	0.433779
C63	C	0.820358	-0.398269	-0.066217
C64	C	1.320358	0.101731	0.433783
C65	C	0.820333	-0.398264	0.065812
C66	C	1.320333	0.101736	0.565812
C67	C	0.822252	-0.267287	0.065807
C68	C	1.322252	0.232713	0.565807
C69	C	0.822301	-0.267294	-0.142447
C70	C	1.322301	0.232706	0.357553
C71	C	0.820376	-0.398273	-0.142444
C72	C	1.320376	0.101727	0.357556
C73	C	0.948251	0.157332	-0.000237
C74	C	1.448251	0.657332	0.499763
C75	C	1.025368	0.159373	-0.000261
C76	C	1.525368	0.659373	0.499739
C77	C	0.817344	0.396840	-0.000203
C78	C	1.317344	0.896840	0.499797
C79	C	0.819386	0.536240	-0.000203
C80	C	1.319386	1.036240	0.499797
N81	N	0.821285	0.167203	0.188464
N82	N	1.321285	0.667203	0.688464
N83	N	0.821337	0.167224	-0.188872
N84	N	1.321337	0.667224	0.311128
C85	C	0.868109	0.081605	0.226552
C86	C	1.368109	0.581605	0.726552
C87	C	0.868113	0.081599	0.302780
C88	C	1.368113	0.581599	0.802780
C89	C	0.821301	0.167213	0.340917
C90	C	1.321301	0.667213	0.840917
C91	C	0.774469	0.252817	0.302819
C92	C	1.274469	0.752817	0.802819
C93	C	0.774461	0.252812	0.226592
C94	C	1.274461	0.752812	0.726592
C95	C	0.812752	0.281634	0.461679
C96	C	1.312752	0.781634	0.961679
C97	C	0.812765	0.281641	0.537904
C98	C	1.312765	0.781641	1.037904
C99	C	0.821321	0.167229	0.576024
C100	C	1.321321	0.667229	1.076024
C101	C	0.829879	0.052804	0.537910
C102	C	1.329879	0.552804	1.037910
C103	C	0.829871	0.052799	0.461683
C104	C	1.329871	0.552799	0.961683
C105	C	0.821304	0.167228	0.423571
C106	C	1.321304	0.667228	0.923571
C107	C	0.868151	0.081618	0.696768
C108	C	1.368151	0.581618	1.196768
C109	C	0.868151	0.081610	0.772997
C110	C	1.368151	0.581610	1.272997
C111	C	0.774510	0.252839	0.773034
C112	C	1.274510	0.752839	1.273034
C113	C	0.774507	0.252836	0.696806
C114	C	1.274507	0.752836	1.196806
C115	C	0.821331	0.167226	0.658678
C116	C	1.321331	0.667226	1.158678
H117	H	0.149529	0.370681	-0.000235
H118	H	0.649529	0.870681	0.499765
H119	H	0.736392	0.322543	0.804084
H120	H	1.236392	0.822543	1.304084
H121	H	0.769723	-0.426754	-0.166090
H122	H	1.269723	0.073246	0.333910
H123	H	0.868379	-0.445590	-0.171723
H124	H	1.368379	0.054410	0.328277
H125	H	0.836846	-0.040361	0.568945
H126	H	1.336846	0.459639	1.068945
H127	H	0.805773	0.374809	0.430648
H128	H	1.305773	0.874809	0.930648
H129	H	0.823020	-0.213972	0.119559
H130	H	1.323020	0.286028	0.619559
H131	H	0.736331	0.322517	0.195580
H132	H	1.236331	0.822517	0.695580
H133	H	0.624542	-0.032767	-0.000146
H134	H	1.124542	0.467233	0.499854
H135	H	0.774307	-0.219983	-0.171706
H136	H	1.274307	0.280017	0.328294
H137	H	0.736382	0.322543	0.665792
H138	H	1.236382	0.822543	1.165792
H139	H	0.906278	0.011900	0.804009
H140	H	1.406278	0.511900	1.304009
H141	H	0.596493	0.382526	-0.000165
H142	H	1.096493	0.882526	0.499835
H143	H	0.736353	0.322523	0.333873
H144	H	1.236353	0.822523	0.833873
H145	H	0.465044	0.379040	-0.000179
H146	H	0.965044	0.879040	0.499821
H147	H	0.046120	-0.048091	-0.000310
H148	H	0.546120	0.451909	0.499690
H149	H	0.872962	-0.238810	-0.166111
H150	H	1.372962	0.261190	0.333889
H151	H	0.906234	0.011894	0.195510
H152	H	1.406234	0.511894	0.695510
H153	H	0.018080	0.367193	-0.000254
H154	H	0.518080	0.867193	0.499746
H155	H	0.177574	-0.044609	-0.000240
H156	H	0.677574	0.455391	0.499760
H157	H	0.266373	0.006414	-0.077214
H158	H	0.766373	0.506414	0.422786
H159	H	0.906243	0.011892	0.333798
H160	H	1.406243	0.511892	0.833798
H161	H	0.244796	0.324537	0.076759
H162	H	0.744796	0.824537	0.576759
H163	H	0.376251	0.328027	0.076782
H164	H	0.876251	0.828027	0.576782
H165	H	0.836838	-0.040369	0.430654
H166	H	1.336838	0.459631	0.930654
H167	H	0.906276	0.011905	0.665722
H168	H	1.406276	0.511905	1.165722
H169	H	0.805801	0.374812	0.568931
H170	H	1.305801	0.874812	1.068931
H171	H	0.397820	0.009895	-0.077190
H172	H	0.897820	0.509895	0.422810
H173	H	0.493084	-0.036239	-0.000190
H174	H	0.993084	0.463761	0.499810
H175	H	0.819535	-0.451597	0.119562
H176	H	1.319535	0.048403	0.619562
