data_functionalizedCrystal
_audit_creation_method	'MofGen! by Chris Wilmer'
_symmetry_space_group_name_H-M	'P1'
_symmetry_Int_Tables_number	1
_symmetry_cell_setting	triclinic
loop_
_symmetry_equiv_pos_as_xyz
  x,y,z
_cell_length_a	10.654550
_cell_length_b	19.188930
_cell_length_c	9.730223
_cell_angle_alpha	89.993564
_cell_angle_beta	89.996251
_cell_angle_gamma	83.814841
loop_
_atom_site_label
_atom_site_type_symbol
_atom_site_fract_x
_atom_site_fract_y
_atom_site_fract_z
O1	O	1.665759	0.098059	-0.114420
O2	O	1.300083	0.107401	-0.114400
O3	O	1.493474	0.001144	-0.114384
O4	O	1.472368	0.204317	-0.114436
O5	O	1.493471	0.001146	0.114196
O6	O	1.300081	0.107404	0.114180
O7	O	1.665757	0.098061	0.114160
Zn8	Zn	1.482918	0.102733	0.150462
Zn9	Zn	1.482921	0.102730	-0.150702
O10	O	1.472366	0.204319	0.114144
C11	C	1.253298	0.106717	-0.000107
C12	C	1.113898	0.104664	-0.000098
C13	C	1.033089	0.167227	-0.000134
C14	C	0.902109	0.165295	-0.000157
C15	C	0.932761	0.038231	-0.000114
C16	C	1.063738	0.040164	-0.000081
C17	C	1.015391	0.240587	-0.000165
C18	C	0.884411	0.238654	-0.000188
C19	C	1.492789	-0.024871	-0.000090
C20	C	1.490737	-0.102389	-0.000078
C21	C	1.604213	-0.146570	-0.000078
C22	C	1.602285	-0.219407	-0.000099
C23	C	1.486876	-0.248058	-0.000094
C24	C	1.373386	-0.203867	-0.000102
C25	C	1.375316	-0.131032	-0.000094
N26	N	1.398658	-0.356639	0.077701
N27	N	1.396832	-0.425830	0.077696
C28	C	1.481052	-0.467505	-0.000121
N29	N	1.567186	-0.437377	-0.077917
N30	N	1.569016	-0.368180	-0.077906
C31	C	1.484770	-0.327034	-0.000104
C32	C	1.592445	-0.590665	-0.000147
C33	C	1.590513	-0.663502	-0.000177
C34	C	1.361610	-0.647960	-0.000166
C35	C	1.363545	-0.575125	-0.000149
C36	C	1.478966	-0.546481	-0.000133
C37	C	1.712541	0.098746	-0.000136
C38	C	1.851941	0.100798	-0.000154
C39	C	1.473051	0.230334	-0.000153
C40	C	1.475102	0.307852	-0.000174
N41	N	1.482925	0.102735	0.355998
N42	N	1.482924	0.102722	-0.356238
C43	C	1.568581	0.055700	0.427932
C44	C	1.568577	0.055692	0.571815
C45	C	1.397260	0.149759	0.571818
C46	C	1.397258	0.149764	0.427938
C47	C	1.667493	0.001393	0.427930
C48	C	1.667490	0.001385	0.571813
H49	H	0.838270	0.260826	0.098490
C50	C	1.727115	-0.268019	-0.000085
C51	C	1.854070	-0.236513	-0.000065
C52	C	1.978899	-0.285122	-0.000046
C53	C	1.976772	-0.365237	-0.000047
C54	C	1.849811	-0.396747	-0.000068
C55	C	1.724983	-0.348138	-0.000087
H56	H	1.855649	-0.177203	-0.000064
H57	H	2.072883	-0.261796	-0.000031
H58	H	2.069177	-0.401221	-0.000033
H59	H	1.848232	-0.456057	-0.000069
H60	H	1.630998	-0.371464	-0.000102
H61	H	1.647186	-0.052270	0.388892
H62	H	1.050553	0.263945	-0.098858
H63	H	0.891904	-0.014283	-0.000121
C64	C	1.303029	0.201497	0.348805
C65	C	1.208864	0.253262	0.427933
C66	C	1.114631	0.304997	0.348798
C67	C	1.114563	0.304966	0.190535
C68	C	1.208732	0.253198	0.111399
C69	C	1.302965	0.201464	0.190534
H70	H	1.208911	0.253287	0.545097
H71	H	1.044921	0.343318	0.407381
H72	H	1.044806	0.343262	0.131955
H73	H	1.208685	0.253174	-0.005765
H74	H	1.372675	0.163143	0.131951
H75	H	1.327511	0.188048	0.630407
C76	C	1.719400	-0.559149	-0.000143
C77	C	1.813554	-0.575587	0.118544
C78	C	1.940508	-0.544073	0.118549
C79	C	1.973309	-0.496120	-0.000132
C80	C	1.879154	-0.479680	-0.118828
C81	C	1.752199	-0.511194	-0.118833
H82	H	1.789274	-0.611087	0.206407
H83	H	2.010208	-0.556243	0.206416
H84	H	2.067289	-0.472791	-0.000129
H85	H	1.903433	-0.444180	-0.206691
H86	H	1.682499	-0.499024	-0.206700
H87	H	0.842095	0.266294	-0.095863
H88	H	1.698197	-0.123254	-0.000069
H89	H	1.044114	0.269279	0.095493
H90	H	1.279418	-0.227199	-0.000101
H91	H	1.282908	-0.095058	-0.000094
H92	H	1.758317	0.018397	0.383294
C93	C	1.627732	-0.067126	0.632104
C94	C	1.704916	-0.137629	0.598879
C95	C	1.665158	-0.206139	0.659164
C96	C	1.548215	-0.204147	0.752675
C97	C	1.471023	-0.133642	0.785905
C98	C	1.510781	-0.065131	0.725620
H99	H	1.791491	-0.139106	0.529652
H100	H	1.722301	-0.258332	0.634564
H101	H	1.518784	-0.254862	0.797301
H102	H	1.384448	-0.132164	0.855131
H103	H	1.453638	-0.012939	0.750219
H104	H	1.682922	-0.699475	-0.000185
C105	C	1.797510	0.017557	0.624584
C106	C	1.877126	-0.035991	0.715579
C107	C	2.007134	-0.019814	0.768356
C108	C	2.057528	0.049912	0.730137
C109	C	1.977911	0.103465	0.639136
C110	C	1.847903	0.087287	0.586360
H111	H	1.839822	-0.087611	0.743875
H112	H	2.066071	-0.059457	0.835720
H113	H	2.153768	0.061888	0.769205
H114	H	2.015215	0.155084	0.610840
H115	H	1.788966	0.126931	0.518995
H116	H	1.267641	-0.671287	-0.000168
H117	H	1.129530	-0.010781	-0.000032
H118	H	1.271141	-0.539151	-0.000142
