data_functionalizedCrystal
_audit_creation_method	'MofGen! by Chris Wilmer'
_symmetry_space_group_name_H-M	'P1'
_symmetry_Int_Tables_number	1
_symmetry_cell_setting	triclinic
loop_
_symmetry_equiv_pos_as_xyz
  x,y,z
_cell_length_a	16.959453
_cell_length_b	17.639155
_cell_length_c	16.959447
_cell_angle_alpha	78.792078
_cell_angle_beta	89.968936
_cell_angle_gamma	101.173506
loop_
_atom_site_label
_atom_site_type_symbol
_atom_site_fract_x
_atom_site_fract_y
_atom_site_fract_z
Zn1	Zn	-0.558739	-1.208246	-0.202211
Zn2	Zn	-0.058739	-0.708246	0.297789
Zn3	Zn	-0.690916	-1.208169	-0.070047
Zn4	Zn	-0.190916	-0.708169	0.429953
Zn5	Zn	-0.532074	-1.076090	-0.096813
Zn6	Zn	-0.032074	-0.576090	0.403187
Zn7	Zn	-0.664176	-1.076055	-0.228941
Zn8	Zn	-0.164176	-0.576055	0.271059
O9	O	-0.611476	-1.142140	-0.149503
O10	O	-0.111476	-0.642140	0.350497
O11	O	-0.598622	-1.318834	-0.162291
O12	O	-0.098622	-0.818834	0.337709
O13	O	-0.669876	-1.190631	0.037010
O14	O	-0.169876	-0.690631	0.537010
O15	O	-0.425010	-1.093668	-0.110810
O16	O	0.074990	-0.593668	0.389190
O17	O	-0.695732	-1.318778	-0.065190
O18	O	-0.195732	-0.818778	0.434810
O19	O	-0.444600	-1.190763	-0.188245
O20	O	0.055400	-0.690763	0.311755
O21	O	-0.553176	-1.093593	0.017345
O22	O	-0.053176	-0.593593	0.517345
O23	O	-0.527248	-0.965487	-0.136728
O24	O	-0.027248	-0.465487	0.363272
O25	O	-0.650158	-1.093608	-0.336002
O26	O	-0.150158	-0.593608	0.163998
O27	O	-0.624302	-0.965461	-0.233802
O28	O	-0.124302	-0.465461	0.266198
O29	O	-0.572694	-1.190729	-0.316364
O30	O	-0.072694	-0.690729	0.183636
O31	O	-0.797970	-1.190597	-0.091109
O32	O	-0.297970	-0.690597	0.408891
O33	O	-0.778324	-1.093533	-0.207848
O34	O	-0.278324	-0.593533	0.292152
C35	C	-0.569980	-0.936797	-0.191071
C36	C	-0.069980	-0.436797	0.308929
C37	C	-0.552247	-0.848951	-0.208872
C38	C	-0.052247	-0.348951	0.291128
C39	C	-0.746344	-0.559915	-0.014242
C40	C	-0.246344	-0.059915	0.485758
C41	C	-0.729670	-0.477370	-0.030977
C42	C	-0.229670	0.022630	0.469023
C43	C	-0.628713	-0.477428	-0.132238
C44	C	-0.128713	0.022572	0.367762
C45	C	-0.645375	-0.559975	-0.115509
C46	C	-0.145375	-0.059975	0.384491
C47	C	-0.704192	-0.601212	-0.056511
C48	C	-0.204192	-0.101212	0.443489
C49	C	-0.603223	-0.601272	-0.157779
C50	C	-0.103223	-0.101272	0.342221
C51	C	-0.619888	-0.683812	-0.141054
C52	C	-0.119888	-0.183812	0.358946
C53	C	-0.678703	-0.725054	-0.082061
C54	C	-0.178703	-0.225054	0.417939
C55	C	-0.720856	-0.683752	-0.039787
C56	C	-0.220856	-0.183752	0.460213
C57	C	-0.544411	-0.560033	-0.216780
C58	C	-0.044411	-0.060033	0.283220
C59	C	-0.502259	-0.601330	-0.259049
C60	C	-0.002259	-0.101330	0.240951
C61	C	-0.518919	-0.683871	-0.242321
C62	C	-0.018919	-0.183871	0.257679
C63	C	-0.577735	-0.725114	-0.183328
C64	C	-0.077735	-0.225114	0.316672
C65	C	-0.476766	-0.725174	-0.284595
C66	C	0.023234	-0.225174	0.215405
C67	C	-0.493431	-0.807714	-0.267870
C68	C	0.006569	-0.307714	0.232130
C69	C	-0.594399	-0.807654	-0.166603
C70	C	-0.094399	-0.307654	0.333397
C71	C	-0.816829	-1.142074	-0.149487
C72	C	-0.316829	-0.642074	0.350513
C73	C	-0.904694	-1.142118	-0.149492
C74	C	-0.404694	-0.642118	0.350508
C75	C	-1.286330	-1.192762	-0.189906
C76	C	-0.786330	-0.692762	0.310094
C77	C	-1.266064	-1.091739	-0.109172
C78	C	-0.766064	-0.591739	0.390828
C79	C	-1.183512	-1.091709	-0.109160
C80	C	-0.683512	-0.591709	0.390840
C81	C	-1.152365	-1.142206	-0.149522
C82	C	-0.652365	-0.642206	0.350478
C83	C	-1.203770	-1.192733	-0.189897
C84	C	-0.703770	-0.692733	0.310103
C85	C	-1.132100	-1.041179	-0.068793
C86	C	-0.632100	-0.541179	0.431207
C87	C	-1.049542	-1.041147	-0.068780
C88	C	-0.549542	-0.541147	0.431220
C89	C	-1.018395	-1.091648	-0.109138
C90	C	-0.518395	-0.591648	0.390862
C91	C	-1.069806	-1.142177	-0.149514
C92	C	-0.569806	-0.642177	0.350486
C93	C	-1.038659	-1.192674	-0.189876
C94	C	-0.538659	-0.692674	0.310124
C95	C	-1.090069	-1.243207	-0.230247
C96	C	-0.590069	-0.743207	0.269753
C97	C	-1.172623	-1.243234	-0.230255
C98	C	-0.672623	-0.743234	0.269745
C99	C	-0.935841	-1.091621	-0.109130
C100	C	-0.435841	-0.591621	0.390870
C101	C	-0.956099	-1.192644	-0.189867
C102	C	-0.456099	-0.692644	0.310133
C103	C	-0.405325	-1.142228	-0.149531
C104	C	0.094675	-0.642228	0.350469
C105	C	-0.317476	-1.142265	-0.149544
C106	C	0.182524	-0.642265	0.350456
C107	C	-0.611417	-1.142173	-0.355664
C108	C	-0.111417	-0.642173	0.144336
C109	C	-0.611392	-1.142187	-0.443518
C110	C	-0.111392	-0.642187	0.056482
C111	C	-0.653130	-0.348285	-0.107767
C112	C	-0.153130	0.151715	0.392233
C113	C	-0.670868	-0.436131	-0.089964
C114	C	-0.170868	0.063869	0.410036
C115	C	-0.651660	-1.091715	-0.825202
C116	C	-0.151660	-0.591715	-0.325202
C117	C	-0.570996	-1.192848	-0.804748
C118	C	-0.070996	-0.692848	-0.304748
C119	C	-0.571008	-1.192827	-0.722206
C120	C	-0.071008	-0.692827	-0.222206
C121	C	-0.611348	-1.142250	-0.691159
C122	C	-0.111348	-0.642250	-0.191159
C123	C	-0.651676	-1.091694	-0.742653
C124	C	-0.151676	-0.591694	-0.242653
C125	C	-0.530689	-1.243387	-0.670705
C126	C	-0.030689	-0.743387	-0.170705
C127	C	-0.530700	-1.243369	-0.588158
C128	C	-0.030700	-0.743369	-0.088158
C129	C	-0.571036	-1.192787	-0.557110
C130	C	-0.071036	-0.692787	-0.057110
C131	C	-0.611364	-1.142229	-0.608609
C132	C	-0.111364	-0.642229	-0.108609
C133	C	-0.651704	-1.091652	-0.577562
C134	C	-0.151704	-0.591652	-0.077562
C135	C	-0.692028	-1.041089	-0.629061
C136	C	-0.192028	-0.541089	-0.129061
C137	C	-0.692011	-1.041113	-0.711605
C138	C	-0.192011	-0.541113	-0.211605
C139	C	-0.571052	-1.192764	-0.474566
C140	C	-0.071052	-0.692764	0.025434
C141	C	-0.651720	-1.091631	-0.495012
C142	C	-0.151720	-0.591631	0.004988
C143	C	-0.611487	-1.142153	0.055866
C144	C	-0.111487	-0.642153	0.555866
C145	C	-0.611320	-1.142292	0.143750
C146	C	-0.111320	-0.642292	0.643750
H147	H	-0.692264	-0.792264	-0.068438
H148	H	-0.192264	-0.292264	0.431562
O149	O	-0.565273	-0.432942	-0.195863
O150	O	-0.065273	0.067058	0.304137
H151	H	-0.582104	-0.448796	-0.254666
H152	H	-0.082104	0.051204	0.245334
O153	O	-0.784293	-0.728240	0.023848
O154	O	-0.284293	-0.228240	0.523848
H155	H	-0.810809	-0.685659	0.050433
H156	H	-0.310809	-0.185659	0.550433
H157	H	-0.642289	-0.841231	-0.118556
H158	H	-0.142289	-0.341231	0.381444
O159	O	-1.165704	-0.986732	-0.025251
O160	O	-0.665704	-0.486732	0.474749
H161	H	-1.195208	-0.946521	-0.068737
H162	H	-0.695208	-0.446521	0.431263
O163	O	-0.487208	-1.297897	-0.532614
O164	O	0.012792	-0.797897	-0.032614
H165	H	-0.459152	-1.333067	-0.568073
H166	H	0.040848	-0.833067	-0.068073
H167	H	-0.724877	-0.999913	-0.603771
H168	H	-0.224877	-0.499913	-0.103771
O169	O	-0.735500	-0.986580	-0.767147
O170	O	-0.235500	-0.486580	-0.267147
H171	H	-0.728717	-0.995098	-0.829759
H172	H	-0.228717	-0.495098	-0.329759
H173	H	-0.538224	-1.233933	-0.432639
H174	H	-0.038224	-0.733933	0.067361
O175	O	-0.880396	-1.037122	-0.065592
O176	O	-0.380396	-0.537122	0.434408
H177	H	-0.817757	-1.045582	-0.072368
H178	H	-0.317757	-0.545582	0.427632
H179	H	-0.794233	-0.593493	0.033805
H180	H	-0.294233	-0.093493	0.533805
H181	H	-0.764001	-0.443749	0.003447
H182	H	-0.264001	0.056251	0.503447
O183	O	-1.228072	-1.297719	-0.273809
O184	O	-0.728072	-0.797719	0.226191
H185	H	-1.273820	-1.337960	-0.230331
H186	H	-0.773820	-0.837960	0.269669
O187	O	-0.526431	-0.471007	-0.234814
O188	O	-0.026431	0.028993	0.265186
H189	H	-0.538096	-0.449257	-0.298807
H190	H	-0.038096	0.050743	0.201193
O191	O	-0.438820	-0.556844	-0.322675
O192	O	0.061180	-0.056844	0.177325
H193	H	-0.455650	-0.572698	-0.381477
H194	H	0.044350	-0.072698	0.118523
O195	O	-0.695148	-1.037177	-0.880739
O196	O	-0.195148	-0.537177	-0.380739
H197	H	-0.688363	-1.045685	-0.943355
H198	H	-0.188363	-0.545685	-0.443355
H199	H	-0.538158	-1.234029	-0.830031
H200	H	-0.038158	-0.734029	-0.330031
H201	H	-1.328192	-1.233907	-0.222772
H202	H	-0.828192	-0.733907	0.277228
H203	H	-1.064699	-1.284319	-0.263114
H204	H	-0.564699	-0.784319	0.236886
H205	H	-0.428884	-0.691586	-0.332636
H206	H	0.071116	-0.191586	0.167364
H207	H	-0.459105	-0.841338	-0.302288
H208	H	0.040895	-0.341338	0.197712
O209	O	-0.487146	-1.297907	-0.704193
O210	O	0.012854	-0.797907	-0.204193
H211	H	-0.493889	-1.289408	-0.770247
H212	H	0.006111	-0.789408	-0.270247
O213	O	-1.299654	-1.037286	-0.065627
O214	O	-0.799654	-0.537286	0.434373
H215	H	-1.365697	-1.045802	-0.072409
H216	H	-0.865697	-0.545802	0.427591
O217	O	-0.994097	-0.986660	-0.025225
O218	O	-0.494097	-0.486660	0.474775
H219	H	-1.029627	-0.951558	0.002847
H220	H	-0.529627	-0.451558	0.502847
O221	O	-0.922507	-1.247119	-0.233390
O222	O	-0.422507	-0.747119	0.266610
H223	H	-0.972126	-1.282259	-0.261461
H224	H	-0.472126	-0.782259	0.238539
O225	O	-0.695208	-1.037062	-0.461529
O226	O	-0.195208	-0.537062	0.038471
H227	H	-0.723239	-1.001907	-0.511209
H228	H	-0.223239	-0.501907	-0.011209
