data_functionalizedCrystal
_audit_creation_method	'MofGen! by Chris Wilmer'
_symmetry_space_group_name_H-M	'P1'
_symmetry_Int_Tables_number	1
_symmetry_cell_setting	triclinic
loop_
_symmetry_equiv_pos_as_xyz
  x,y,z
_cell_length_a	15.944551
_cell_length_b	15.995350
_cell_length_c	14.472310
_cell_angle_alpha	89.998838
_cell_angle_beta	89.982781
_cell_angle_gamma	96.504444
loop_
_atom_site_label
_atom_site_type_symbol
_atom_site_fract_x
_atom_site_fract_y
_atom_site_fract_z
O1	O	1.114529	-0.107983	-0.076926
O2	O	1.614529	0.392017	0.423074
O3	O	0.869979	-0.121297	-0.076908
O4	O	1.369979	0.378703	0.423092
O5	O	0.998939	0.007247	-0.076916
O6	O	1.498939	0.507247	0.423084
O7	O	0.985569	-0.236527	-0.076917
O8	O	1.485569	0.263473	0.423083
O9	O	0.998906	0.007240	0.076766
O10	O	1.498906	0.507240	0.576766
O11	O	0.869946	-0.121304	0.076774
O12	O	1.369946	0.378696	0.576774
O13	O	1.114496	-0.107990	0.076756
O14	O	1.614496	0.392010	0.576756
Cu15	Cu	0.992218	-0.114648	0.090798
Cu16	Cu	1.492218	0.385352	0.590798
Cu17	Cu	0.992257	-0.114639	-0.090949
Cu18	Cu	1.492257	0.385361	0.409051
O19	O	0.985536	-0.236535	0.076765
O20	O	1.485536	0.263465	0.576765
C21	C	0.838668	-0.120748	-0.000064
C22	C	1.338668	0.379252	0.499936
C23	C	0.745422	-0.119091	-0.000057
C24	C	1.245422	0.380909	0.499943
C25	C	0.998370	0.038438	-0.000077
C26	C	1.498370	0.538438	0.499923
C27	C	0.996713	0.131389	-0.000082
C28	C	1.496713	0.631389	0.499918
C29	C	1.145806	-0.108539	-0.000089
C30	C	1.645806	0.391461	0.499911
C31	C	1.239052	-0.110196	-0.000102
C32	C	1.739052	0.389804	0.499898
C33	C	1.453904	-0.193835	-0.000081
C34	C	1.953904	0.306165	0.499919
C35	C	1.514943	-0.154992	-0.075854
C36	C	2.014943	0.345008	0.424146
C37	C	1.409778	-0.113194	-0.000089
C38	C	1.909778	0.386806	0.499911
C39	C	1.514888	-0.154981	0.075665
C40	C	2.014888	0.345019	0.575665
C41	C	1.574691	-0.116096	-0.000072
C42	C	2.074691	0.383904	0.499928
C43	C	1.469589	-0.074329	-0.075924
C44	C	1.969589	0.425671	0.424076
C45	C	1.469527	-0.074329	0.075663
C46	C	1.969527	0.425671	0.575663
C47	C	1.530548	-0.035428	-0.000128
C48	C	2.030548	0.464572	0.499872
C49	C	1.314776	-0.111525	-0.000099
C50	C	1.814776	0.388475	0.499901
C51	C	1.669692	-0.117759	-0.000068
C52	C	2.169692	0.382241	0.499932
C53	C	0.986105	-0.267726	-0.000077
C54	C	1.486105	0.232274	0.499923
C55	C	0.987762	-0.360676	-0.000077
C56	C	1.487762	0.139324	0.499923
N57	N	0.992196	-0.114654	0.218628
N58	N	1.492196	0.385346	0.718628
C59	C	0.990761	0.469137	-0.000079
C60	C	1.490761	0.969137	0.499921
C61	C	0.898918	0.421708	-0.000417
C62	C	1.398918	0.921708	0.499583
C63	C	0.900576	0.325017	-0.000070
C64	C	1.400576	0.825017	0.499930
C65	C	0.993713	0.301576	-0.000081
C66	C	1.493713	0.801576	0.499919
C67	C	1.038995	0.342647	0.087674
C68	C	1.538995	0.842647	0.587674
C69	C	1.036687	0.439283	0.087748
C70	C	1.536687	0.939283	0.587748
C71	C	1.038622	0.439649	-0.087018
C72	C	1.538622	0.939649	0.412982
C73	C	1.038601	0.342704	-0.088178
C74	C	1.538601	0.842704	0.411822
C75	C	0.995386	0.206878	-0.000079
C76	C	1.495386	0.706878	0.499921
C77	C	0.989091	0.563835	-0.000074
C78	C	1.489091	1.063835	0.499926
N79	N	0.992285	-0.114627	-0.218780
N80	N	1.492285	0.385373	0.281220
C81	C	0.992256	-0.114636	0.592720
C82	C	1.492256	0.385364	1.092720
C83	C	0.923020	-0.183187	0.553559
C84	C	1.423020	0.316813	1.053559
C85	C	0.923180	-0.183437	0.446470
C86	C	1.423180	0.316563	0.946470
C87	C	0.992226	-0.114645	0.407129
C88	C	1.492226	0.385355	0.907129
C89	C	1.079868	-0.133731	0.445959
C90	C	1.579868	0.366269	0.945959
C91	C	1.079479	-0.134219	0.553081
C92	C	1.579479	0.365781	1.053081
C93	C	0.974631	-0.026795	0.553251
C94	C	1.474631	0.473205	1.053251
C95	C	0.972621	-0.027381	0.446124
C96	C	1.472621	0.472619	0.946124
C97	C	0.992214	-0.114648	0.302240
C98	C	1.492214	0.385352	0.802240
C99	C	0.992273	-0.114634	0.697608
C100	C	1.492273	0.385366	1.197608
H101	H	1.535069	-0.189098	-0.139912
H102	H	2.035069	0.310902	0.360088
H103	H	0.862359	0.441301	0.062169
H104	H	1.362359	0.941301	0.562169
H105	H	0.908150	-0.012896	0.420746
H106	H	1.408150	0.487104	0.920746
H107	H	1.106522	0.327338	-0.093484
H108	H	1.606522	0.827338	0.406516
H109	H	1.563705	0.031569	-0.000166
H110	H	2.063705	0.531569	0.499834
H111	H	0.858034	-0.172064	0.420219
H112	H	1.358034	0.327936	0.920219
H113	H	1.449616	-0.040249	-0.140058
H114	H	1.949616	0.459751	0.359942
H115	H	1.019773	0.026022	0.419347
H116	H	1.519773	0.526022	0.919347
H117	H	0.934120	-0.248005	0.580467
H118	H	1.434120	0.251995	1.080467
H119	H	1.007517	0.314264	0.152986
H120	H	1.507517	0.814264	0.652986
H121	H	1.132619	-0.085131	0.420472
H122	H	1.632619	0.414869	0.920472
H123	H	0.934435	-0.248621	0.420835
H124	H	1.434435	0.251379	0.920835
O125	O	0.853090	0.288104	0.083417
O126	O	1.353090	0.788104	0.583417
H127	H	0.786774	0.302833	0.080374
H128	H	1.286774	0.802833	0.580374
O129	O	1.126000	0.481997	0.093045
O130	O	1.626000	0.981997	0.593045
H131	H	1.125023	0.551271	0.093139
H132	H	1.625023	1.051271	0.593139
H133	H	0.857663	-0.172001	0.579351
H134	H	1.357663	0.327999	1.079351
O135	O	1.128318	0.481717	-0.087825
O136	O	1.628318	0.981717	0.412175
H137	H	1.138800	0.523430	-0.026642
H138	H	1.638800	1.023430	0.473358
H139	H	1.095010	-0.198280	0.578055
H140	H	1.595010	0.301720	1.078055
O141	O	1.149775	-0.070608	0.587404
O142	O	1.649775	0.429392	1.087404
H143	H	1.183901	-0.039640	0.527488
H144	H	1.683901	0.460360	1.027488
H145	H	1.095771	-0.197063	0.419120
H146	H	1.595771	0.302937	0.919120
O147	O	1.442830	-0.029190	0.160516
O148	O	1.942830	0.470810	0.660516
H149	H	1.460758	-0.062798	0.223328
H150	H	1.960758	0.437202	0.723328
H151	H	1.534957	-0.189106	0.139724
H152	H	2.034957	0.310894	0.639724
O153	O	0.992905	0.463533	0.174641
O154	O	1.492905	0.963533	0.674641
H155	H	0.973573	0.406264	0.216211
H156	H	1.473573	0.906264	0.716211
H157	H	0.864980	0.296600	-0.062976
H158	H	1.364980	0.796600	0.437024
O159	O	0.850293	0.446272	-0.083759
O160	O	1.350293	0.946272	0.416241
H161	H	0.891061	0.492551	-0.125832
H162	H	1.391061	0.992551	0.374168
O163	O	0.891796	-0.002496	0.589070
O164	O	1.391796	0.497504	1.089070
H165	H	0.862262	-0.052763	0.635408
H166	H	1.362262	0.447237	1.135408
H167	H	1.107420	0.328517	0.090930
H168	H	1.607420	0.828517	0.590930
H169	H	1.420595	-0.260771	-0.000157
H170	H	1.920595	0.239229	0.499843
H171	H	1.008609	0.460194	-0.153531
H172	H	1.508609	0.960194	0.346469
O173	O	1.041499	0.040786	0.586799
O174	O	1.541499	0.540786	1.086799
H175	H	1.087071	0.012007	0.631367
H176	H	1.587071	0.512007	1.131367
H177	H	1.005495	0.315460	-0.153096
H178	H	1.505495	0.815460	0.346904
