data_functionalizedCrystal
_audit_creation_method	'MofGen! by Chris Wilmer'
_symmetry_space_group_name_H-M	'P1'
_symmetry_Int_Tables_number	1
_symmetry_cell_setting	triclinic
loop_
_symmetry_equiv_pos_as_xyz
  x,y,z
_cell_length_a	25.639242
_cell_length_b	25.639239
_cell_length_c	12.827885
_cell_angle_alpha	89.964018
_cell_angle_beta	89.969977
_cell_angle_gamma	90.034213
loop_
_atom_site_label
_atom_site_type_symbol
_atom_site_fract_x
_atom_site_fract_y
_atom_site_fract_z
Zn1	Zn	0.799266	-0.208188	-0.591103
Zn2	Zn	0.799177	-0.295633	-0.416345
Zn3	Zn	0.711830	-0.208206	-0.416344
Zn4	Zn	0.711787	-0.295587	-0.591012
O5	O	0.755515	-0.251904	-0.503701
O6	O	0.872419	-0.219799	-0.567960
O7	O	0.787571	-0.284063	-0.270108
O8	O	0.723484	-0.135039	-0.439564
O9	O	0.872354	-0.284044	-0.439565
O10	O	0.787722	-0.135025	-0.567959
O11	O	0.723398	-0.219831	-0.270108
O12	O	0.638659	-0.219786	-0.439476
O13	O	0.723410	-0.283967	-0.737260
O14	O	0.638628	-0.283985	-0.567803
O15	O	0.787681	-0.219755	-0.737327
O16	O	0.787530	-0.368792	-0.439477
O17	O	0.723325	-0.368758	-0.567804
C18	C	0.619672	-0.251883	-0.503630
C19	C	0.561558	-0.251887	-0.503625
C20	C	0.201188	-0.285388	-0.570458
C21	C	0.146583	-0.285391	-0.570474
O22	O	0.118340	-0.313849	-0.627238
N23	N	0.119276	-0.251918	-0.503769
C24	C	0.146575	-0.218436	-0.437051
O25	O	0.118334	-0.189965	-0.380315
C26	C	0.201179	-0.218431	-0.437040
C27	C	0.228484	-0.251909	-0.503742
C28	C	0.228493	-0.318863	-0.637155
C29	C	0.283093	-0.318860	-0.637137
C30	C	0.310389	-0.285382	-0.570422
C31	C	0.283084	-0.251907	-0.503724
C32	C	0.228477	-0.184947	-0.370328
C33	C	0.283084	-0.184944	-0.370324
C34	C	0.310389	-0.218422	-0.437026
C35	C	0.364980	-0.218426	-0.436990
N36	N	0.392288	-0.251899	-0.503696
C37	C	0.364992	-0.285377	-0.570411
C38	C	0.031905	-0.218449	-0.437079
C39	C	-0.022697	-0.218457	-0.437083
C40	C	-0.022686	-0.285411	-0.570509
C41	C	0.031918	-0.285406	-0.570498
C42	C	0.059212	-0.251922	-0.503784
C43	C	0.479657	-0.285369	-0.570367
C44	C	0.534263	-0.285365	-0.570340
C45	C	0.534246	-0.218409	-0.436919
C46	C	0.479645	-0.218415	-0.436942
C47	C	0.452352	-0.251897	-0.503675
O48	O	0.393258	-0.189981	-0.380258
O49	O	0.393240	-0.313838	-0.627147
C50	C	0.755427	-0.387746	-0.503653
C51	C	0.755437	-0.445860	-0.503668
C52	C	0.789034	-0.806228	-0.436995
C53	C	0.789054	-0.860832	-0.437009
O54	O	0.817528	-0.889073	-0.380269
N55	N	0.755607	-0.888143	-0.503770
C56	C	0.722141	-0.860846	-0.570530
O57	O	0.693694	-0.889089	-0.627317
C58	C	0.722124	-0.806242	-0.570520
C59	C	0.755569	-0.778935	-0.503747
C60	C	0.822477	-0.778921	-0.370228
C61	C	0.822456	-0.724320	-0.370213
C62	C	0.788992	-0.697027	-0.436965
C63	C	0.755548	-0.724334	-0.503732
C64	C	0.688661	-0.778946	-0.637284
C65	C	0.688647	-0.724339	-0.637269
C66	C	0.722092	-0.697032	-0.570496
C67	C	0.722063	-0.642441	-0.570468
N68	N	0.755510	-0.615131	-0.503707
C69	C	0.788974	-0.642424	-0.436955
C70	C	0.722180	-0.975516	-0.570546
C71	C	0.722195	-1.030119	-0.570551
C72	C	0.789108	-1.030102	-0.437031
C73	C	0.789091	-0.975498	-0.437022
C74	C	0.755628	-0.948206	-0.503784
C75	C	0.788927	-0.527759	-0.436928
C76	C	0.788902	-0.473153	-0.436916
C77	C	0.721990	-0.473175	-0.570439
C78	C	0.722013	-0.527776	-0.570447
C79	C	0.755486	-0.555066	-0.503689
O80	O	0.693605	-0.614165	-0.627183
O81	O	0.817422	-0.614174	-0.380187
C82	C	0.891888	-0.251925	-0.503773
C83	C	0.950002	-0.251934	-0.503803
C84	C	0.755551	-0.251853	-0.776271
C85	C	0.755566	-0.251832	-0.892425
C86	C	0.755617	-0.115531	-0.503772
C87	C	0.755661	-0.057416	-0.503802
C88	C	0.787372	-0.220052	-0.944243
C89	C	0.787388	-0.220029	-1.064293
C90	C	0.755510	-0.251916	-0.232191
C91	C	0.755596	-0.251790	-0.116039
H92	H	0.556492	-0.312629	-0.624658
H93	H	0.814621	-0.192822	-1.108855
O94	O	0.656156	-0.805383	-0.702251
C95	C	0.589773	-0.799613	-0.834655
C96	C	0.626568	-0.769610	-0.761144
H97	H	0.565833	-0.770704	-0.882273
H98	H	0.613746	-0.825118	-0.889427
H99	H	0.562473	-0.825236	-0.786623
H100	H	0.653875	-0.743959	-0.809091
H101	H	0.602562	-0.744139	-0.706368
O102	O	-0.049237	-0.186020	-0.372152
C103	C	-0.110931	-0.178915	-0.231109
C104	C	-0.080905	-0.215711	-0.304570
H105	H	-0.136550	-0.202905	-0.176465
H106	H	-0.082055	-0.155004	-0.183350
H107	H	-0.136445	-0.151587	-0.279187
H108	H	-0.055391	-0.243070	-0.256573
H109	H	-0.109809	-0.239584	-0.352332
H110	H	0.054125	-0.191184	-0.382745
H111	H	0.694742	-0.450945	-0.624784
H112	H	0.728366	-0.279002	-1.071483
O113	O	0.560847	-0.185906	-0.372215
C114	C	0.644969	-0.156251	-0.313044
C115	C	0.614906	-0.193082	-0.386383
H116	H	0.688681	-0.162048	-0.324458
H117	H	0.634302	-0.114092	-0.331560
H118	H	0.634173	-0.165371	-0.228757
H119	H	0.625686	-0.184009	-0.470695
H120	H	0.625576	-0.235230	-0.367777
H121	H	0.728344	-0.279020	-0.936938
O122	O	0.202030	-0.152448	-0.305374
C123	C	0.185304	-0.126980	-0.127694
C124	C	0.215288	-0.163812	-0.201150
H125	H	0.196003	-0.136162	-0.043412
H126	H	0.196090	-0.084826	-0.146117
H127	H	0.141586	-0.132708	-0.139178
H128	H	0.259012	-0.158131	-0.189708
H129	H	0.204458	-0.205953	-0.182709
O130	O	0.453231	-0.317941	-0.635224
C131	C	0.459020	-0.384327	-0.767605
C132	C	0.489012	-0.347474	-0.694195
H133	H	0.487936	-0.408206	-0.815317
H134	H	0.433439	-0.411677	-0.719594
H135	H	0.433474	-0.360350	-0.822303
H136	H	0.514586	-0.371409	-0.639482
H137	H	0.514560	-0.320122	-0.742271
O138	O	0.689640	-0.948950	-0.635248
C139	C	0.618997	-0.887395	-0.649145
C140	C	0.655822	-0.917436	-0.575753
H141	H	0.591638	-0.861917	-0.601072
H142	H	0.642944	-0.861754	-0.703825
H143	H	0.595121	-0.916308	-0.696879
H144	H	0.679706	-0.888560	-0.527951
H145	H	0.631845	-0.943085	-0.521141
H146	H	0.305305	-0.157674	-0.316002
H147	H	0.816185	-0.549972	-0.382569
O148	O	0.309638	-0.351431	-0.701793
C149	C	0.371275	-0.422004	-0.715625
C150	C	0.341241	-0.385161	-0.642273
H151	H	0.396841	-0.449276	-0.667534
H152	H	0.342404	-0.445966	-0.763293
H153	H	0.396842	-0.398015	-0.770369
H154	H	0.315672	-0.409109	-0.587467
H155	H	0.370140	-0.361197	-0.594679
O156	O	0.453199	-0.185849	-0.372109
C157	C	0.458957	-0.119461	-0.239725
C158	C	0.488967	-0.156311	-0.313104
H159	H	0.487862	-0.095578	-0.191985
H160	H	0.433442	-0.092115	-0.287762
H161	H	0.433344	-0.143441	-0.185051
H162	H	0.514608	-0.132374	-0.367793
H163	H	0.514449	-0.183659	-0.265003
O164	O	0.819790	-0.187537	-0.891193
C165	C	0.845240	-0.098628	-0.857692
C166	C	0.808485	-0.135392	-0.917815
H167	H	0.836121	-0.056462	-0.879210
H168	H	0.839438	-0.104382	-0.770320
H169	H	0.887402	-0.107831	-0.879093
H170	H	0.766310	-0.126212	-0.896502
H171	H	0.814333	-0.129631	-1.005173
H172	H	0.816137	-0.450921	-0.382537
H173	H	0.206274	-0.346125	-0.691489
O174	O	0.855000	-0.697878	-0.305327
C175	C	0.921356	-0.703645	-0.172868
C176	C	0.884530	-0.733650	-0.246313
H177	H	0.945233	-0.732553	-0.125121
H178	H	0.948709	-0.678055	-0.220852
H179	H	0.897358	-0.678107	-0.118203
H180	H	0.908487	-0.759216	-0.300993
H181	H	0.857176	-0.759207	-0.198264
H182	H	0.054146	-0.312666	-0.624815
H183	H	-0.044920	-0.312669	-0.624836
O184	O	0.689595	-0.554364	-0.635352
C185	C	0.682551	-0.615938	-0.776492
C186	C	0.719319	-0.585873	-0.703028
H187	H	0.706569	-0.641412	-0.831241
H188	H	0.655246	-0.641586	-0.728523
H189	H	0.658616	-0.587041	-0.824148
H190	H	0.743289	-0.614733	-0.655357
H191	H	0.746591	-0.560218	-0.751058
O192	O	0.855072	-0.805434	-0.305560
C193	C	0.925725	-0.866982	-0.291738
C194	C	0.888833	-0.836996	-0.365085
H195	H	0.953023	-0.892515	-0.339833
H196	H	0.949658	-0.838081	-0.244088
H197	H	0.901777	-0.892579	-0.236978
H198	H	0.912741	-0.811399	-0.419908
H199	H	0.864898	-0.865926	-0.412662
H200	H	0.816326	-0.953268	-0.382650
H201	H	0.661397	-0.702121	-0.691639
O202	O	0.821637	-1.056539	-0.372094
C203	C	0.888031	-1.050775	-0.239712
C204	C	0.851214	-1.020768	-0.313176
H205	H	0.911962	-1.021867	-0.192073
H206	H	0.864077	-1.076369	-0.184956
H207	H	0.915339	-1.076308	-0.287782
H208	H	0.823899	-0.995206	-0.265190
H209	H	0.875202	-0.995207	-0.367935
O210	O	0.689685	-1.056561	-0.635504
C211	C	0.623292	-1.050800	-0.767891
C212	C	0.660090	-1.020792	-0.694394
H213	H	0.599347	-1.021893	-0.815507
H214	H	0.647263	-1.076304	-0.822667
H215	H	0.595997	-1.076423	-0.719849
H216	H	0.687392	-0.995141	-0.742352
H217	H	0.636086	-0.995320	-0.639615
