data_functionalizedCrystal
_audit_creation_method	'MofGen! by Chris Wilmer'
_symmetry_space_group_name_H-M	'P1'
_symmetry_Int_Tables_number	1
_symmetry_cell_setting	triclinic
loop_
_symmetry_equiv_pos_as_xyz
  x,y,z
_cell_length_a	16.994747
_cell_length_b	12.759401
_cell_length_c	12.759393
_cell_angle_alpha	90.019684
_cell_angle_beta	89.988451
_cell_angle_gamma	89.989828
loop_
_atom_site_label
_atom_site_type_symbol
_atom_site_fract_x
_atom_site_fract_y
_atom_site_fract_z
Zn1	Zn	0.314000	1.606282	0.594161
Zn2	Zn	0.445927	1.606188	0.418542
Zn3	Zn	0.314039	1.430584	0.418497
Zn4	Zn	0.445864	1.430584	0.594180
O5	O	0.379958	1.518409	0.506345
O6	O	0.331511	1.753291	0.570876
O7	O	0.428475	1.582854	0.271515
O8	O	0.203653	1.453930	0.441772
O9	O	0.428437	1.753221	0.441849
O10	O	0.203624	1.583015	0.570831
O11	O	0.331577	1.453839	0.271481
O12	O	0.331516	1.283563	0.441790
O13	O	0.428329	1.453930	0.741199
O14	O	0.428367	1.283563	0.570864
O15	O	0.331449	1.583015	0.741184
O16	O	0.556300	1.582854	0.441868
O17	O	0.556254	1.453838	0.570909
C18	C	0.379939	1.245442	0.506325
C19	C	0.379950	1.128665	0.506341
C20	C	0.329454	1.073773	0.439256
C21	C	0.329472	0.964048	0.439270
C22	C	0.430487	0.964120	0.573463
C23	C	0.430472	1.073842	0.573443
C24	C	0.271131	1.073731	0.361784
C25	C	0.271150	0.964006	0.361797
C26	C	0.584897	1.518349	0.506392
C27	C	0.674220	1.518356	0.506389
C28	C	0.174217	1.518476	0.506291
C29	C	0.084895	1.518508	0.506269
Zn30	Zn	0.945126	1.430614	0.418467
Zn31	Zn	0.945065	1.606329	0.594115
Zn32	Zn	0.813256	1.430620	0.594162
Zn33	Zn	0.813182	1.606207	0.418508
O34	O	0.879157	1.518442	0.506313
O35	O	1.055499	1.453972	0.441730
O36	O	0.927586	1.583074	0.741142
O37	O	0.830805	1.283598	0.570859
O38	O	1.055454	1.583069	0.570777
O39	O	0.927689	1.283594	0.441776
O40	O	0.830747	1.453981	0.741177
O41	O	0.702865	1.453863	0.570899
O42	O	0.830679	1.582861	0.271481
O43	O	0.702811	1.582866	0.441846
O44	O	0.927617	1.453853	0.271451
O45	O	0.927514	1.753334	0.570817
O46	O	0.830621	1.753244	0.441800
C47	C	0.379878	1.518483	0.780378
C48	C	0.379844	1.518514	0.897155
C49	C	0.379976	1.792443	0.506366
C50	C	0.379985	1.909219	0.506374
C51	C	0.379980	1.518397	0.233378
C52	C	0.379792	1.518569	0.116601
C53	C	0.329394	1.585738	0.952011
C54	C	0.329365	1.585763	1.061736
C55	C	0.430244	1.451338	1.061737
C56	C	0.430268	1.451308	0.952015
C57	C	0.271155	1.663351	0.952011
C58	C	0.271126	1.663376	1.061735
C59	C	0.879055	1.791410	0.506310
C60	C	0.879034	1.908186	0.506340
C61	C	0.879147	1.518343	0.232280
C62	C	0.879142	1.518300	0.115503
C63	C	0.879262	1.244409	0.506318
C64	C	0.879307	1.127632	0.506321
C65	C	0.879213	1.518467	0.779280
C66	C	0.879368	1.518216	0.896056
C67	C	0.929513	1.963060	0.573465
C68	C	0.929501	2.072784	0.573473
C69	C	0.828526	2.072751	0.439228
C70	C	0.828542	1.963029	0.439215
C71	C	0.987808	1.963080	0.650974
C72	C	0.987796	2.072804	0.650982
C73	C	0.929607	1.451115	0.060623
C74	C	0.929591	1.451068	-0.049101
C75	C	0.828642	1.585400	-0.049056
C76	C	0.828655	1.585441	0.060666
C77	C	0.987892	1.373563	0.060597
C78	C	0.987875	1.373516	-0.049127
H79	H	0.287414	1.103464	0.280378
Cl80	Cl	0.962693	1.247942	0.106593
Cl81	Cl	0.304825	0.911397	0.242402
Cl82	Cl	0.176844	1.629733	0.906017
H83	H	1.048943	1.395383	-0.078937
H84	H	0.787417	2.117417	0.384577
H85	H	0.210081	0.934238	0.383705
H86	H	0.787537	1.640063	-0.093718
Cl87	Cl	0.493968	1.142847	0.657767
H88	H	0.971477	2.102602	0.732377
Cl89	Cl	0.181574	1.126305	0.406946
H90	H	0.471296	1.396619	1.106418
H91	H	1.048890	1.933301	0.629096
H92	H	1.045914	1.402751	0.094601
H93	H	0.966024	1.296193	-0.083144
H94	H	0.471620	0.919469	0.628094
H95	H	1.045807	2.106829	0.621761
Cl96	Cl	0.304963	1.782654	0.899472
H97	H	0.471346	1.396564	0.907355
H98	H	0.213083	1.634257	1.095756
Cl99	Cl	0.296377	1.789006	1.107733
H100	H	0.787446	1.918355	0.384543
H101	H	0.965979	1.929065	0.728294
Cl102	Cl	0.765223	1.669922	0.129654
