data_functionalizedCrystal
_audit_creation_method	'MofGen! by Chris Wilmer'
_symmetry_space_group_name_H-M	'P1'
_symmetry_Int_Tables_number	1
_symmetry_cell_setting	triclinic
loop_
_symmetry_equiv_pos_as_xyz
  x,y,z
_cell_length_a	21.295417
_cell_length_b	18.101398
_cell_length_c	18.101389
_cell_angle_alpha	90.024327
_cell_angle_beta	89.977434
_cell_angle_gamma	89.974227
loop_
_atom_site_label
_atom_site_type_symbol
_atom_site_fract_x
_atom_site_fract_y
_atom_site_fract_z
Zn1	Zn	-0.250755	-1.132124	-0.418817
Zn2	Zn	-0.356008	-1.132021	-0.294967
Zn3	Zn	-0.250748	-1.008283	-0.294979
Zn4	Zn	-0.355981	-1.008235	-0.418755
O5	O	-0.303373	-1.070166	-0.356880
O6	O	-0.264731	-1.235743	-0.402409
O7	O	-0.342054	-1.115584	-0.191335
O8	O	-0.162660	-1.024774	-0.311437
O9	O	-0.342060	-1.235668	-0.311417
O10	O	-0.162664	-1.115759	-0.402421
O11	O	-0.264720	-1.024674	-0.191344
O12	O	-0.264694	-0.904644	-0.311377
O13	O	-0.342014	-1.024692	-0.522397
O14	O	-0.342008	-0.904609	-0.402315
O15	O	-0.264705	-1.115713	-0.522442
O16	O	-0.444094	-1.115538	-0.311357
O17	O	-0.444074	-1.024592	-0.402304
C18	C	-0.466925	-1.070069	-0.356839
C19	C	-0.536893	-1.070095	-0.356846
C20	C	-0.303348	-0.877755	-0.356841
C21	C	-0.303352	-0.795441	-0.356842
C22	C	-0.303357	-1.070209	-0.550042
C23	C	-0.303350	-1.070227	-0.632356
C24	C	-0.569749	-1.117492	-0.309538
C25	C	-0.635491	-1.117527	-0.309555
C26	C	-0.668375	-1.070151	-0.356871
C27	C	-0.635511	-1.022751	-0.404188
C28	C	-0.569770	-1.022722	-0.404175
N29	N	-0.771637	-1.005367	-0.362504
N30	N	-0.834089	-1.005396	-0.362512
C31	C	-0.866450	-1.070234	-0.356914
N32	N	-0.834001	-1.135044	-0.351293
N33	N	-0.771543	-1.135014	-0.351282
C34	C	-0.739661	-1.070177	-0.356891
C35	C	-0.970592	-1.117673	-0.309622
C36	C	-1.036335	-1.117709	-0.309644
C37	C	-1.036354	-1.022926	-0.404273
C38	C	-0.970612	-1.022897	-0.404255
C39	C	-0.937734	-1.070269	-0.356925
C40	C	-0.139183	-1.070283	-0.356937
C41	C	-0.069215	-1.070334	-0.356961
C42	C	-0.303399	-1.263328	-0.356919
C43	C	-0.303410	-1.345642	-0.356935
C44	C	-0.303391	-0.496350	-0.356904
C45	C	-0.254504	-0.527673	-0.299967
C46	C	-0.254635	-0.613291	-0.299724
C47	C	-0.303371	-0.644733	-0.356873
C48	C	-0.369679	-0.613615	-0.335543
C49	C	-0.369407	-0.527970	-0.335147
C50	C	-0.286547	-0.527965	-0.435305
C51	C	-0.285070	-0.613615	-0.434877
C52	C	-0.303364	-0.728592	-0.356857
C53	C	-0.303403	-0.412491	-0.356919
C54	C	-0.303232	-1.070270	-0.931447
C55	C	-0.351719	-1.012805	-0.900093
C56	C	-0.351944	-1.012960	-0.814475
C57	C	-0.303291	-1.070248	-0.783064
C58	C	-0.321303	-1.148274	-0.814168
C59	C	-0.321621	-1.147953	-0.899813
C60	C	-0.236626	-1.050388	-0.899877
C61	C	-0.237011	-1.048652	-0.814226
C62	C	-0.303323	-1.070240	-0.699205
C63	C	-0.303202	-1.070283	-1.015306
C64	C	-0.303344	-1.070166	-0.164469
C65	C	-0.303173	-1.070291	-0.082155
H66	H	-0.542982	-1.156067	-0.271002
H67	H	-0.322155	-0.507709	-0.477728
H68	H	-0.265769	-0.633745	-0.241630
H69	H	-0.943858	-0.984298	-0.442774
H70	H	-0.370312	-1.164808	-0.919793
F71	F	-0.189408	-1.105095	-0.926382
H72	H	-0.401314	-1.026087	-0.793988
H73	H	-0.662248	-1.156126	-0.271032
H74	H	-0.369476	-1.165420	-0.792722
H75	H	-0.198968	-1.087452	-0.792845
F76	F	-0.670509	-0.972333	-0.454548
H77	H	-0.265512	-0.506124	-0.242211
F78	F	-0.277438	-1.205782	-0.926929
H79	H	-0.205465	-0.634331	-0.313095
F80	F	-0.418630	-0.500883	-0.386983
F81	F	-0.935599	-1.168090	-0.259250
F82	F	-0.337134	-0.936948	-0.926994
F83	F	-0.190036	-0.500786	-0.317250
F84	F	-0.418564	-0.640225	-0.388054
F85	F	-0.388079	-0.501811	-0.260232
F86	F	-0.388677	-0.641603	-0.261437
H87	H	-1.063127	-0.984355	-0.442802
F88	F	-0.276595	-1.205742	-0.787581
H89	H	-0.239037	-0.506392	-0.454697
F90	F	-0.215178	-0.977312	-0.928090
F91	F	-0.221296	-0.640215	-0.455907
F92	F	-0.219258	-0.973596	-0.787661
F93	F	-0.328222	-0.641590	-0.493300
H94	H	-0.400788	-1.025801	-0.921614
F95	F	-0.534801	-0.972274	-0.454529
F96	F	-0.337207	-0.937335	-0.786983
F97	F	-1.071303	-1.168163	-0.259294
