data_functionalizedCrystal
_audit_creation_method	'MofGen! by Chris Wilmer'
_symmetry_space_group_name_H-M	'P1'
_symmetry_Int_Tables_number	1
_symmetry_cell_setting	triclinic
loop_
_symmetry_equiv_pos_as_xyz
  x,y,z
_cell_length_a	16.704494
_cell_length_b	14.628931
_cell_length_c	16.704479
_cell_angle_alpha	56.632058
_cell_angle_beta	89.698972
_cell_angle_gamma	56.632286
loop_
_atom_site_label
_atom_site_type_symbol
_atom_site_fract_x
_atom_site_fract_y
_atom_site_fract_z
Zr1	Zr	0.811564	0.913288	-0.067002
O2	O	0.668692	1.137493	-0.209874
O3	O	0.855361	0.712313	-0.023205
O4	O	0.845751	0.924904	-0.200265
O5	O	0.685882	0.907638	0.106855
O6	O	0.985419	0.907641	-0.192685
O7	O	0.678302	0.924902	-0.032814
O8	O	1.002610	0.527354	0.124044
O9	O	0.668692	1.287925	-0.209874
O10	O	0.978273	0.773489	0.001132
O11	O	0.879698	0.773489	0.099708
O12	O	0.868384	1.023787	-0.108758
O13	O	0.769808	1.023786	-0.010182
Zr14	Zr	1.046408	0.858221	0.167843
Zr15	Zr	1.034318	0.885755	-0.054913
Zr16	Zr	0.823654	0.885753	0.155753
Zr17	Zr	0.811564	1.153208	-0.067002
Zr18	Zr	1.046408	0.618300	0.167842
O19	O	1.002611	1.059196	0.124045
O20	O	0.985420	1.098346	-0.192685
O21	O	0.685883	1.098343	0.106855
O22	O	1.189280	0.634015	0.310715
O23	O	1.172089	0.673165	-0.006015
O24	O	0.872552	0.673163	0.293525
O25	O	1.172090	0.863870	-0.006015
O26	O	1.012220	0.846605	0.301106
O27	O	0.872552	0.863868	0.293525
O28	O	1.179670	0.846606	0.133654
O29	O	0.845752	1.266040	-0.200264
O30	O	1.012220	0.505468	0.301105
O31	O	1.189280	0.483584	0.310714
O32	O	1.179670	0.505470	0.133653
O33	O	0.678302	1.266039	-0.032813
O34	O	0.855362	1.244154	-0.023203
O35	O	0.989588	0.747721	0.209598
O36	O	1.088163	0.747722	0.111022
O37	O	0.978274	0.998020	0.001132
O38	O	0.879698	0.998019	0.099709
C39	C	0.928985	0.585650	0.050420
C40	C	0.928985	0.483797	0.050419
C41	C	0.650354	0.920193	0.035298
C42	C	0.555789	0.931881	0.030166
C43	C	0.851894	0.429957	-0.026672
C44	C	0.851893	0.535229	-0.026673
C45	C	0.492826	0.692508	0.135272
C46	C	0.403976	0.703484	0.130453
C47	C	0.289240	0.964805	0.015714
C48	C	0.378090	0.953830	0.020534
C49	C	0.479881	0.817677	0.080313
C50	C	0.568731	0.806704	0.085126
C51	C	0.453995	1.068023	-0.029605
C52	C	0.365146	1.078998	-0.034425
C53	C	1.207618	0.851316	0.065542
C54	C	1.302183	0.839628	0.070675
C55	C	0.913863	0.920195	-0.228213
C56	C	0.908730	0.931884	-0.322778
C57	C	0.928987	1.185859	0.050421
C58	C	0.928987	1.287712	0.050421
C59	C	0.844141	1.079000	-0.513421
C60	C	0.848958	1.068027	-0.424573
C61	C	0.963687	0.806706	-0.309835
C62	C	0.958869	0.817680	-0.398683
C63	C	0.899096	0.953831	-0.500476
C64	C	0.894285	0.964802	-0.589325
C65	C	1.009007	0.703484	-0.474586
C66	C	1.013824	0.692511	-0.385738
C67	C	0.944109	0.851313	0.329053
C68	C	0.949242	0.839624	0.423619
C69	C	1.207617	0.551211	0.065542
C70	C	1.302182	0.437670	0.070674
C71	C	0.944108	0.551209	0.329053
C72	C	0.949241	0.437667	0.423618
C73	C	1.222740	0.516770	0.344175
C74	C	1.322438	0.391540	0.443872
C75	C	0.635232	1.254739	-0.243334
C76	C	0.535534	1.379968	-0.343032
C77	C	0.650355	1.220297	0.035299
C78	C	0.555790	1.333838	0.030167
C79	C	0.913863	1.220300	-0.228212
C80	C	0.908731	1.333842	-0.322778
C81	C	1.289229	0.397802	0.015713
C82	C	1.378073	0.291135	0.020514
C83	C	1.479869	0.224331	0.080282
C84	C	1.492821	0.264209	0.135244
C85	C	1.403977	0.370882	0.130437
C86	C	1.009013	0.370895	0.525398
C87	C	1.013832	0.264224	0.614260
C88	C	0.958884	0.224319	0.601341
C89	C	0.899105	0.291102	0.499551
C90	C	0.894280	0.397779	0.410690
C91	C	1.420721	0.332730	0.439236
C92	C	1.514406	0.215077	0.532905
C93	C	1.509804	0.156229	0.631208
C94	C	1.411510	0.215050	0.635842
C95	C	1.317828	0.332708	0.542175
C96	C	0.437250	1.438790	-0.338396
C97	C	0.343566	1.556473	-0.432064
C98	C	0.348168	1.615326	-0.530368
C99	C	0.446462	1.556499	-0.535001
C100	C	0.540144	1.438824	-0.441334
C101	C	0.568743	1.373718	0.085118
C102	C	0.479897	1.480414	0.080293
C103	C	0.378100	1.547222	0.020521
C104	C	0.365149	1.507339	-0.034437
C105	C	0.453993	1.400651	-0.029617
C106	C	0.963691	1.373711	-0.309824
C107	C	0.958890	1.480379	-0.398669
C108	C	0.899121	1.547183	-0.500466
C109	C	0.844159	1.507305	-0.513417
C110	C	0.848967	1.400631	-0.424573
H111	H	0.785890	0.473802	-0.092669
N112	N	0.779678	1.225834	-0.623215
H113	H	0.827455	1.229732	-0.659790
H114	H	0.745603	1.303385	-0.617852
H115	H	0.651623	1.319330	0.133797
H116	H	1.053755	0.601562	-0.464051
N117	N	1.620413	0.151647	0.527893
H118	H	1.609104	0.206777	0.451403
H119	H	1.661527	0.046463	0.564521
N120	N	1.068280	0.413919	0.539359
H121	H	1.016508	0.520412	0.502205
H122	H	1.121174	0.394656	0.507915
H123	H	1.424488	0.380627	0.359202
N124	N	0.829827	0.469765	0.300917
H125	H	0.835104	0.543399	0.246575
H126	H	0.753292	0.519816	0.288557
N127	N	0.839852	0.248045	0.485621
H128	H	0.786972	0.267201	0.517095
H129	H	0.891711	0.141558	0.522773
N130	N	0.764465	0.696770	-0.114112
H131	H	0.776858	0.749075	-0.101721
H132	H	0.694023	0.724616	-0.114565
H133	H	1.237805	0.380577	0.545964
H134	H	1.586094	0.060424	0.707470
H135	H	1.206348	0.452194	-0.032969
H136	H	0.804207	1.368183	-0.435135
H137	H	0.845617	1.075664	-0.672206
N138	N	1.018167	1.523377	-0.384674
H139	H	0.966402	1.629868	-0.421822
H140	H	1.071069	1.504106	-0.416107
H141	H	0.994984	0.243866	0.116425
H142	H	1.062514	0.209860	0.697134
H143	H	0.651612	0.695840	0.133808
H144	H	1.062487	0.581661	-0.302849
H145	H	1.407779	0.167119	0.715893
N146	N	1.364090	0.248139	-0.038771
H147	H	1.286120	0.306641	-0.077352
H148	H	1.401299	0.141631	0.013052
N149	N	1.028163	0.659867	-0.200042
H150	H	1.022877	0.671916	-0.145725
H151	H	1.104698	0.598282	-0.187691
H152	H	0.575708	0.581647	0.183953
N153	N	1.575689	0.109281	0.085461
H154	H	1.552027	0.094167	0.041572
H155	H	1.622419	0.015536	0.161495
N156	N	1.602618	0.192152	0.199705
H157	H	1.656926	0.118525	0.194407
H158	H	1.614987	0.142079	0.276245
H159	H	1.414539	0.403327	0.175199
N160	N	1.016417	0.322255	0.137851
H161	H	1.016913	0.294285	0.208332
H162	H	1.086849	0.294399	0.138250
N163	N	0.237561	1.619879	-0.427048
H164	H	0.178904	1.703359	-0.501297
H165	H	0.231471	1.655647	-0.388185
N166	N	0.247120	1.742245	-0.631391
H167	H	0.184163	1.770567	-0.613527
H168	H	0.244843	1.714147	-0.674117
H169	H	1.012361	1.319333	-0.226944
H170	H	0.450196	1.604432	-0.615051
H171	H	0.490463	1.512867	0.125051
N172	N	0.646148	1.375382	-0.446342
H173	H	0.634837	1.430526	-0.522833
H174	H	0.687250	1.270206	-0.409731
N175	N	0.417935	0.568482	0.189732
H176	H	0.495902	0.480570	0.228331
H177	H	0.380733	0.573805	0.137905
H178	H	0.804206	1.169953	-0.435122
N179	N	0.432272	1.375322	-0.232376
H180	H	0.355787	1.430460	-0.243669
H181	H	0.468904	1.382853	-0.191264
N182	N	0.964095	0.109251	0.697185
H183	H	0.935456	0.141103	0.738269
H184	H	1.040129	0.015498	0.743865
H185	H	0.305767	1.634091	0.016606
N186	N	0.255353	1.579377	-0.098882
H187	H	0.201045	1.652998	-0.093579
H188	H	0.248684	1.503760	-0.070738
H189	H	0.443432	1.368186	-0.074363
H190	H	0.795496	1.561713	-0.596312
N191	N	0.179451	1.111642	-0.048737
H192	H	0.125133	1.099593	-0.043441
H193	H	0.167074	1.173260	-0.125279
N194	N	0.255358	1.225840	-0.098890
H195	H	0.201035	1.213803	-0.093602
H196	H	0.242996	1.287443	-0.175427
H197	H	0.443460	1.169945	-0.074360
N198	N	0.893951	1.662224	-0.596286
H199	H	0.937843	1.677334	-0.572623
H200	H	0.817920	1.755973	-0.643023
