data_functionalizedCrystal
_audit_creation_method	'MofGen! by Chris Wilmer'
_symmetry_space_group_name_H-M	'P1'
_symmetry_Int_Tables_number	1
_symmetry_cell_setting	triclinic
loop_
_symmetry_equiv_pos_as_xyz
  x,y,z
_cell_length_a	16.109302
_cell_length_b	17.699092
_cell_length_c	15.186229
_cell_angle_alpha	89.997943
_cell_angle_beta	89.994701
_cell_angle_gamma	83.374074
loop_
_atom_site_label
_atom_site_type_symbol
_atom_site_fract_x
_atom_site_fract_y
_atom_site_fract_z
O1	O	1.102966	0.097287	-0.073265
O2	O	0.860883	0.109393	-0.073257
O3	O	0.988761	-0.006839	-0.073259
O4	O	0.975089	0.213519	-0.073263
O5	O	0.988752	-0.006841	0.073198
O6	O	0.860875	0.109391	0.073200
O7	O	1.102957	0.097285	0.073193
Zn8	Zn	0.981915	0.103338	0.096449
Zn9	Zn	0.981926	0.103340	-0.096514
O10	O	0.975080	0.213517	0.073194
C11	C	0.829905	0.108902	-0.000028
C12	C	0.737612	0.107431	-0.000025
C13	C	0.525273	0.104030	0.079800
C14	C	0.438555	0.102640	0.079797
C15	C	0.438575	0.102646	-0.079879
C16	C	0.525292	0.104030	-0.079875
C17	C	0.568638	0.104726	-0.000033
C18	C	0.395203	0.101952	-0.000040
C19	C	0.301180	0.100445	-0.000044
C20	C	0.662667	0.106232	-0.000029
C21	C	0.988265	-0.035037	-0.000032
C22	C	0.986792	-0.119057	-0.000036
C23	C	0.986107	-0.158525	-0.079871
C24	C	0.984717	-0.237470	-0.079872
C25	C	0.984019	-0.276946	-0.000037
C26	C	0.984702	-0.237473	0.079804
C27	C	0.986086	-0.158529	0.079804
C28	C	0.979121	-0.555846	0.079805
C29	C	0.977740	-0.634796	0.079799
C30	C	0.977753	-0.634787	-0.079870
C31	C	0.979136	-0.555843	-0.079870
C32	C	0.979815	-0.516376	-0.000030
C33	C	0.981320	-0.430775	-0.000030
C34	C	0.982520	-0.362547	-0.000036
C35	C	1.133936	0.097776	-0.000039
C36	C	1.226228	0.099247	-0.000047
C37	C	0.975576	0.241716	-0.000035
C38	C	0.977049	0.325736	-0.000037
N39	N	0.981913	0.103336	0.228142
N40	N	0.981934	0.103336	-0.228207
C41	C	1.038556	0.051886	0.453864
C42	C	1.038559	0.051884	0.546054
C43	C	0.925285	0.154789	0.546065
C44	C	0.925279	0.154786	0.453877
C45	C	0.981919	0.103336	0.407779
C46	C	0.981928	0.103336	0.592156
C47	C	0.981930	0.103335	0.692112
C48	C	0.981916	0.103336	0.307816
H49	H	0.403271	0.102080	-0.144883
H50	H	0.986632	-0.126394	0.144814
O51	O	0.976936	-0.673210	0.157302
C52	C	0.904145	-0.710269	0.162073
H53	H	0.879960	-0.719231	0.092751
H54	H	0.919349	-0.767714	0.195865
H55	H	0.854268	-0.673829	0.201461
H56	H	0.879154	0.196683	0.416351
O57	O	0.870353	0.204742	0.590982
C58	C	0.882490	0.193702	0.682233
H59	H	0.948644	0.165430	0.694814
H60	H	0.873130	0.251019	0.717264
H61	H	0.835511	0.155731	0.708408
O62	O	0.567364	0.104563	0.157378
C63	C	0.555698	0.038719	0.205948
H64	H	0.538539	-0.007445	0.159229
H65	H	0.615927	0.017636	0.242163
H66	H	0.503197	0.052722	0.255727
O67	O	0.396415	0.101828	0.157325
C68	C	0.355792	0.035523	0.162092
H69	H	0.388604	-0.009843	0.116784
H70	H	0.358011	0.013514	0.232702
H71	H	0.287912	0.049281	0.140646
H72	H	0.560601	0.104595	-0.144888
H73	H	0.986679	-0.126389	-0.144882
O74	O	0.984126	-0.275700	-0.157502
C75	C	0.985042	-0.223929	-0.227966
H76	H	1.012308	-0.170785	-0.204543
H77	H	1.025033	-0.251545	-0.283779
H78	H	0.918528	-0.207594	-0.252554
H79	H	0.977196	-0.666930	-0.144880
O80	O	0.979775	-0.517608	-0.157501
C81	C	0.978891	-0.569375	-0.227967
H82	H	0.951594	-0.622512	-0.204563
H83	H	0.938944	-0.541749	-0.283801
H84	H	1.045419	-0.585724	-0.252520
H85	H	0.984129	-0.269621	0.144807
O86	O	0.979842	-0.517639	0.157438
C87	C	0.978923	-0.569413	0.227898
H88	H	1.004233	-0.628826	0.204477
H89	H	1.019689	-0.551431	0.283722
H90	H	0.912107	-0.569847	0.252470
H91	H	1.084675	0.009991	0.416333
H92	H	1.084677	0.009988	0.583574
