data_functionalizedCrystal
_audit_creation_method	'MofGen! by Chris Wilmer'
_symmetry_space_group_name_H-M	'P1'
_symmetry_Int_Tables_number	1
_symmetry_cell_setting	triclinic
loop_
_symmetry_equiv_pos_as_xyz
  x,y,z
_cell_length_a	19.805407
_cell_length_b	17.638166
_cell_length_c	19.805399
_cell_angle_alpha	78.819502
_cell_angle_beta	90.020409
_cell_angle_gamma	101.246790
loop_
_atom_site_label
_atom_site_type_symbol
_atom_site_fract_x
_atom_site_fract_y
_atom_site_fract_z
Zn1	Zn	0.980230	-0.314681	0.437185
Zn2	Zn	1.230230	-0.064681	0.687185
Zn3	Zn	1.480230	0.185319	0.937185
Zn4	Zn	1.730230	0.435319	1.187185
Zn5	Zn	0.957249	-0.446873	0.346870
Zn6	Zn	1.207249	-0.196873	0.596870
Zn7	Zn	1.457249	0.053127	0.846870
Zn8	Zn	1.707249	0.303127	1.096870
Zn9	Zn	0.867041	-0.314707	0.324012
Zn10	Zn	1.117041	-0.064707	0.574012
Zn11	Zn	1.367041	0.185293	0.824012
Zn12	Zn	1.617041	0.435293	1.074012
Zn13	Zn	0.844118	-0.446835	0.460009
Zn14	Zn	1.094118	-0.196835	0.710009
Zn15	Zn	1.344118	0.053165	0.960009
Zn16	Zn	1.594118	0.303165	1.210009
O17	O	0.912159	-0.380774	0.392019
O18	O	1.162159	-0.130774	0.642019
O19	O	1.412159	0.119226	0.892019
O20	O	1.662159	0.369226	1.142019
O21	O	1.071898	-0.332221	0.425219
O22	O	1.321898	-0.082221	0.675219
O23	O	1.571898	0.167779	0.925219
O24	O	1.821898	0.417779	1.175219
O25	O	0.945257	-0.429367	0.249126
O26	O	1.195257	-0.179367	0.499126
O27	O	1.445257	0.070633	0.749126
O28	O	1.695257	0.320633	0.999126
O29	O	0.901266	-0.204085	0.319907
O30	O	1.151266	0.045915	0.569907
O31	O	1.401266	0.295915	0.819907
O32	O	1.651266	0.545915	1.069907
O33	O	1.055013	-0.429342	0.358865
O34	O	1.305013	-0.179342	0.608865
O35	O	1.555013	0.070658	0.858865
O36	O	1.805013	0.320658	1.108865
O37	O	0.984426	-0.204066	0.403054
O38	O	1.234426	0.045934	0.653054
O39	O	1.484426	0.295934	0.903054
O40	O	1.734426	0.545934	1.153054
O41	O	0.878982	-0.332266	0.232333
O42	O	1.128982	-0.082266	0.482333
O43	O	1.378982	0.167734	0.732333
O44	O	1.628982	0.417734	0.982333
O45	O	0.769284	-0.332230	0.342039
O46	O	1.019284	-0.082230	0.592039
O47	O	1.269284	0.167770	0.842039
O48	O	1.519284	0.417770	1.092039
O49	O	0.862199	-0.429278	0.551693
O50	O	1.112199	-0.179278	0.801693
O51	O	1.362199	0.070722	1.051693
O52	O	1.612199	0.320722	1.301693
O53	O	0.752443	-0.429303	0.441954
O54	O	1.002443	-0.179303	0.691954
O55	O	1.252443	0.070697	0.941954
O56	O	1.502443	0.320697	1.191954
O57	O	0.962200	-0.332185	0.534925
O58	O	1.212200	-0.082185	0.784925
O59	O	1.462200	0.167815	1.034925
O60	O	1.712200	0.417815	1.284925
O61	O	0.923031	-0.557486	0.380996
O62	O	1.173031	-0.307486	0.630996
O63	O	1.423031	-0.057486	0.880996
O64	O	1.673031	0.192514	1.130996
O65	O	0.839914	-0.557459	0.464119
O66	O	1.089914	-0.307459	0.714119
O67	O	1.339914	-0.057459	0.964119
O68	O	1.589914	0.192541	1.214119
C69	C	0.736305	-0.380766	0.391993
C70	C	0.986305	-0.130766	0.641993
C71	C	1.236305	0.119234	0.891993
C72	C	1.486305	0.369234	1.141993
C73	C	0.661070	-0.380781	0.392002
C74	C	0.911070	-0.130781	0.642002
C75	C	1.161070	0.119219	0.892002
C76	C	1.411070	0.369219	1.142002
C77	C	0.876510	-0.586155	0.427529
C78	C	1.126510	-0.336155	0.677529
C79	C	1.376510	-0.086155	0.927529
C80	C	1.626510	0.163845	1.177529
C81	C	0.861321	-0.674018	0.442743
C82	C	1.111321	-0.424018	0.692743
C83	C	1.361321	-0.174018	0.942743
C84	C	1.611321	0.075982	1.192743
C85	C	0.208059	-0.330298	0.426678
C86	C	0.458059	-0.080298	0.676678
C87	C	0.708059	0.169702	0.926678
C88	C	0.958059	0.419702	1.176678
C89	C	0.278748	-0.330299	0.426674
C90	C	0.528748	-0.080299	0.676674
C91	C	0.778748	0.169701	0.926674
C92	C	1.028748	0.419701	1.176674
C93	C	0.305308	-0.380786	0.392043
C94	C	0.555308	-0.130786	0.642043
C95	C	0.805308	0.119214	0.892043
C96	C	1.055308	0.369214	1.142043
C97	C	0.261174	-0.431280	0.357421
C98	C	0.511174	-0.181280	0.607421
C99	C	0.761174	0.068720	0.857421
C100	C	1.011174	0.318720	1.107421
C101	C	0.190487	-0.431282	0.357430
C102	C	0.440487	-0.181282	0.607430
C103	C	0.690487	0.068718	0.857430
C104	C	0.940487	0.318718	1.107430
C105	C	0.546249	-0.431274	0.357384
C106	C	0.796249	-0.181274	0.607384
C107	C	1.046249	0.068726	0.857384
C108	C	1.296249	0.318726	1.107384
C109	C	0.616942	-0.431267	0.357376
C110	C	0.866942	-0.181267	0.607376
C111	C	1.116942	0.068733	0.857376
C112	C	1.366942	0.318733	1.107376
C113	C	0.634509	-0.330291	0.426628
C114	C	0.884509	-0.080291	0.676628
C115	C	1.134509	0.169709	0.926628
C116	C	1.384509	0.419709	1.176628
C117	C	0.563822	-0.330293	0.426637
C118	C	0.813822	-0.080293	0.676637
C119	C	1.063822	0.169707	0.926637
C120	C	1.313822	0.419707	1.176637
C121	C	0.519694	-0.380790	0.392018
C122	C	0.769694	-0.130790	0.642018
C123	C	1.019694	0.119210	0.892018
C124	C	1.269694	0.369210	1.142018
C125	C	0.443046	-0.380789	0.392024
C126	C	0.693046	-0.130789	0.642024
C127	C	0.943046	0.119211	0.892024
C128	C	1.193046	0.369211	1.142024
C129	C	0.381955	-0.380784	0.392032
C130	C	0.631955	-0.130784	0.642032
C131	C	0.881955	0.119216	0.892032
C132	C	1.131955	0.369216	1.142032
C133	C	0.796601	-0.797871	0.507429
C134	C	1.046601	-0.547871	0.757429
C135	C	1.296601	-0.297871	1.007429
C136	C	1.546601	-0.047871	1.257429
C137	C	0.810879	-0.715310	0.493128
C138	C	1.060879	-0.465310	0.743128
C139	C	1.310879	-0.215310	0.993128
C140	C	1.560879	0.034690	1.243128
C141	C	0.897502	-0.715276	0.406636
C142	C	1.147502	-0.465276	0.656636
C143	C	1.397502	-0.215276	0.906636
C144	C	1.647502	0.034724	1.156636
C145	C	0.883229	-0.797838	0.420928
C146	C	1.133229	-0.547838	0.670928
C147	C	1.383229	-0.297838	0.920928
C148	C	1.633229	-0.047838	1.170928
C149	C	0.832779	-0.839129	0.471325
C150	C	1.082779	-0.589129	0.721325
C151	C	1.332779	-0.339129	0.971325
C152	C	1.582779	-0.089129	1.221325
C153	C	0.919406	-0.839096	0.384824
C154	C	1.169406	-0.589096	0.634824
C155	C	1.419406	-0.339096	0.884824
C156	C	1.669406	-0.089096	1.134824
C157	C	0.905137	-0.921651	0.399116
C158	C	1.155137	-0.671651	0.649116
C159	C	1.405137	-0.421651	0.899116
C160	C	1.655137	-0.171651	1.149116
C161	C	0.854690	-0.962948	0.449513
C162	C	1.104690	-0.712948	0.699513
C163	C	1.354690	-0.462948	0.949513
C164	C	1.604690	-0.212948	1.199513
C165	C	0.818509	-0.921684	0.485618
C166	C	1.068509	-0.671684	0.735618
C167	C	1.318509	-0.421684	0.985618
C168	C	1.568509	-0.171684	1.235618
C169	C	0.969860	-0.797804	0.334430
C170	C	1.219860	-0.547804	0.584430
C171	C	1.469860	-0.297804	0.834430
C172	C	1.719860	-0.047804	1.084430
C173	C	1.006037	-0.839062	0.298326
C174	C	1.256037	-0.589062	0.548326
C175	C	1.506037	-0.339062	0.798326
C176	C	1.756037	-0.089062	1.048326
C177	C	0.991765	-0.921619	0.312615
C178	C	1.241765	-0.671619	0.562615
C179	C	1.491765	-0.421619	0.812615
C180	C	1.741765	-0.171619	1.062615
C181	C	0.941318	-0.962915	0.363011
C182	C	1.191318	-0.712915	0.613011
C183	C	1.441318	-0.462915	0.863011
C184	C	1.691318	-0.212915	1.113011
C185	C	1.027946	-0.962883	0.276510
C186	C	1.277946	-0.712883	0.526510
C187	C	1.527946	-0.462883	0.776510
C188	C	1.777946	-0.212883	1.026510
C189	C	1.013676	-1.045438	0.290802
C190	C	1.263676	-0.795438	0.540802
C191	C	1.513676	-0.545438	0.790802
C192	C	1.763676	-0.295438	1.040802
C193	C	0.927049	-1.045470	0.377304
C194	C	1.177049	-0.795470	0.627304
C195	C	1.427049	-0.545470	0.877304
C196	C	1.677049	-0.295470	1.127304
C197	C	1.088701	-0.380783	0.392046
C198	C	1.338701	-0.130783	0.642046
C199	C	1.588701	0.119217	0.892046
C200	C	1.838701	0.369217	1.142046
C201	C	1.163932	-0.380787	0.392057
C202	C	1.413932	-0.130787	0.642057
C203	C	1.663932	0.119213	0.892057
C204	C	1.913932	0.369213	1.142057
C205	C	0.912206	-0.380724	0.568553
C206	C	1.162206	-0.130724	0.818553
C207	C	1.412206	0.119276	1.068553
C208	C	1.662206	0.369276	1.318553
C209	C	0.912226	-0.380703	0.643782
C210	C	1.162226	-0.130703	0.893782
C211	C	1.412226	0.119297	1.143782
C212	C	1.662226	0.369297	1.393782
C213	C	0.947967	-0.174591	0.356385
C214	C	1.197967	0.075409	0.606385
C215	C	1.447967	0.325409	0.856385
C216	C	1.697967	0.575409	1.106385
C217	C	0.963226	-0.086729	0.341200
C218	C	1.213226	0.163271	0.591200
C219	C	1.463226	0.413271	0.841200
C220	C	1.713226	0.663271	1.091200
C221	C	0.912162	-0.380767	0.216162
C222	C	1.162162	-0.130767	0.466162
C223	C	1.412162	0.119233	0.716162
C224	C	1.662162	0.369233	0.966162
C225	C	0.912312	-0.380565	0.140895
C226	C	1.162312	-0.130565	0.390895
C227	C	1.412312	0.119435	0.640895
C228	C	1.662312	0.369435	0.890895
C229	C	0.964298	-0.330144	0.670395
C230	C	1.214298	-0.080144	0.920395
C231	C	1.464298	0.169856	1.170395
C232	C	1.714298	0.419856	1.420395
C233	C	0.964309	-0.330121	0.741080
C234	C	1.214309	-0.080121	0.991080
C235	C	1.464309	0.169879	1.241080
C236	C	1.714309	0.419879	1.491080
C237	C	0.912250	-0.380662	0.785150
C238	C	1.162250	-0.130662	1.035150
C239	C	1.412250	0.119338	1.285150
C240	C	1.662250	0.369338	1.535150
C241	C	0.860173	-0.431223	0.758532
C242	C	1.110173	-0.181223	1.008532
C243	C	1.360173	0.068777	1.258532
C244	C	1.610173	0.318777	1.508532
C245	C	0.860160	-0.431241	0.687848
C246	C	1.110160	-0.181241	0.937848
C247	C	1.360160	0.068759	1.187848
C248	C	1.610160	0.318759	1.437848
C249	C	0.860224	-0.431149	1.043593
C250	C	1.110224	-0.181149	1.293593
C251	C	1.360224	0.068851	1.543593
C252	C	1.610224	0.318851	1.793593
C253	C	0.860242	-0.431129	1.114282
C254	C	1.110242	-0.181129	1.364282
C255	C	1.360242	0.068871	1.614282
C256	C	1.610242	0.318871	1.864282
C257	C	0.964373	-0.330029	1.096824
C258	C	1.214373	-0.080029	1.346824
C259	C	1.464373	0.169971	1.596824
C260	C	1.714373	0.419971	1.846824
C261	C	0.964360	-0.330048	1.026140
C262	C	1.214360	-0.080048	1.276140
C263	C	1.464360	0.169952	1.526140
C264	C	1.714360	0.419952	1.776140
C265	C	0.912281	-0.380605	0.999528
C266	C	1.162281	-0.130605	1.249528
C267	C	1.412281	0.119395	1.499528
C268	C	1.662281	0.369395	1.749528
C269	C	0.912269	-0.380629	0.922884
C270	C	1.162269	-0.130629	1.172884
C271	C	1.412269	0.119371	1.422884
C272	C	1.662269	0.369371	1.672884
C273	C	0.912264	-0.380643	0.861794
C274	C	1.162264	-0.130643	1.111794
C275	C	1.412264	0.119357	1.361794
C276	C	1.662264	0.369357	1.611794
H277	H	0.186441	-0.289181	0.454874
H278	H	0.436441	-0.039181	0.704874
H279	H	0.686441	0.210819	0.954874
H280	H	0.936441	0.460819	1.204874
H281	H	0.981478	-0.730583	0.322796
H282	H	1.231478	-0.480583	0.572796
H283	H	1.481478	-0.230583	0.822796
H284	H	1.731478	0.019417	1.072796
Cl285	Cl	0.863611	-1.097385	0.440649
Cl286	Cl	1.113611	-0.847385	0.690649
Cl287	Cl	1.363611	-0.597385	0.940649
Cl288	Cl	1.613611	-0.347385	1.190649
H289	H	0.755523	-0.831492	0.548471
H290	H	1.005523	-0.581492	0.798471
H291	H	1.255523	-0.331492	1.048471
H292	H	1.505523	-0.081492	1.298471
H293	H	0.817826	-0.472328	1.021936
H294	H	1.067826	-0.222328	1.271936
H295	H	1.317826	0.027672	1.521936
H296	H	1.567826	0.277672	1.771936
Cl297	Cl	0.836479	-1.066732	0.467211
Cl298	Cl	1.086479	-0.816732	0.717211
Cl299	Cl	1.336479	-0.566732	0.967211
Cl300	Cl	1.586479	-0.316732	1.217211
Cl301	Cl	0.755072	-0.973599	0.548963
Cl302	Cl	1.005072	-0.723599	0.798963
Cl303	Cl	1.255072	-0.473599	1.048963
Cl304	Cl	1.505072	-0.223599	1.298963
H305	H	0.781415	-0.681722	0.522534
H306	H	1.031415	-0.431722	0.772534
H307	H	1.281415	-0.181722	1.022534
H308	H	1.531415	0.068278	1.272534
Cl309	Cl	0.960925	-0.663360	0.343284
Cl310	Cl	1.210925	-0.413360	0.593284
Cl311	Cl	1.460925	-0.163360	0.843284
Cl312	Cl	1.710925	0.086640	1.093284
H313	H	1.006776	-0.288860	1.118500
H314	H	1.256776	-0.038860	1.368500
H315	H	1.506776	0.211140	1.618500
H316	H	1.756776	0.461140	1.868500
Cl317	Cl	1.069460	-0.787147	0.234973
Cl318	Cl	1.319460	-0.537147	0.484973
Cl319	Cl	1.569460	-0.287147	0.734973
Cl320	Cl	1.819460	-0.037147	0.984973
Cl321	Cl	1.091374	-0.910965	0.213163
Cl322	Cl	1.341374	-0.660965	0.463163
Cl323	Cl	1.591374	-0.410965	0.713163
Cl324	Cl	1.841374	-0.160965	0.963163
H325	H	0.282805	-0.472391	0.329227
H326	H	0.532805	-0.222391	0.579227
H327	H	0.782805	0.027609	0.829227
H328	H	1.032805	0.277609	1.079227
Cl329	Cl	0.794791	-0.494670	1.169685
Cl330	Cl	1.044791	-0.244670	1.419685
Cl331	Cl	1.294791	0.005330	1.669685
Cl332	Cl	1.544791	0.255330	1.919685
Cl333	Cl	1.059158	-1.097309	0.245415
Cl334	Cl	1.309158	-0.847309	0.495415
Cl335	Cl	1.559158	-0.597309	0.745415
Cl336	Cl	1.809158	-0.347309	0.995415
H337	H	0.817784	-0.472371	0.794420
H338	H	1.067784	-0.222371	1.044420
H339	H	1.317784	0.027629	1.294420
H340	H	1.567784	0.277629	1.544420
Cl341	Cl	1.029798	-0.266593	0.774539
Cl342	Cl	1.279798	-0.016593	1.024539
Cl343	Cl	1.529798	0.233407	1.274539
Cl344	Cl	1.779798	0.483407	1.524539
Cl345	Cl	0.794694	-0.494801	0.654391
Cl346	Cl	1.044694	-0.244801	0.904391
Cl347	Cl	1.294694	0.005199	1.154391
Cl348	Cl	1.544694	0.255199	1.404391
H349	H	0.314673	-0.289189	0.454869
H350	H	0.564673	-0.039189	0.704869
H351	H	0.814673	0.210811	0.954869
H352	H	1.064673	0.460811	1.204869
H353	H	1.006692	-0.288991	0.634517
H354	H	1.256692	-0.038991	0.884517
H355	H	1.506692	0.211009	1.134517
H356	H	1.756692	0.461009	1.384517
H357	H	1.006753	-0.288895	0.990261
H358	H	1.256753	-0.038895	1.240261
H359	H	1.506753	0.211105	1.490261
H360	H	1.756753	0.461105	1.740261
H361	H	0.542202	-0.289179	0.454834
H362	H	0.792202	-0.039179	0.704834
H363	H	1.042202	0.210821	0.954834
H364	H	1.292202	0.460821	1.204834
H365	H	0.638564	-0.472383	0.329174
H366	H	0.888564	-0.222383	0.579174
H367	H	1.138564	0.027617	0.829174
H368	H	1.388564	0.277617	1.079174
Cl369	Cl	0.689988	-0.266812	0.470154
Cl370	Cl	0.939988	-0.016812	0.720154
Cl371	Cl	1.189988	0.233188	0.970154
Cl372	Cl	1.439988	0.483188	1.220154
Cl373	Cl	0.135011	-0.494763	0.313910
Cl374	Cl	0.385011	-0.244763	0.563910
Cl375	Cl	0.635011	0.005237	0.813910
Cl376	Cl	0.885011	0.255237	1.063910
Cl377	Cl	0.490787	-0.494733	0.313838
Cl378	Cl	0.740787	-0.244733	0.563838
Cl379	Cl	0.990787	0.005267	0.813838
Cl380	Cl	1.240787	0.255267	1.063838
