data_functionalizedCrystal
_audit_creation_method	'MofGen! by Chris Wilmer'
_symmetry_space_group_name_H-M	'P1'
_symmetry_Int_Tables_number	1
_symmetry_cell_setting	triclinic
loop_
_symmetry_equiv_pos_as_xyz
  x,y,z
_cell_length_a	16.974897
_cell_length_b	10.654550
_cell_length_c	16.053802
_cell_angle_alpha	92.591674
_cell_angle_beta	83.774775
_cell_angle_gamma	83.941964
loop_
_atom_site_label
_atom_site_type_symbol
_atom_site_fract_x
_atom_site_fract_y
_atom_site_fract_z
O1	O	1.056716	0.149419	-0.140752
O2	O	0.825882	0.170974	-0.125173
O3	O	0.946606	-0.022652	-0.133317
O4	O	0.935991	0.343044	-0.132607
O5	O	0.939961	-0.012038	0.005990
O6	O	0.819236	0.181587	0.014134
O7	O	1.050070	0.160033	-0.001445
Zn8	Zn	0.933598	0.172495	0.028463
Zn9	Zn	0.942354	0.158511	-0.155080
O10	O	0.929346	0.353658	0.006700
C11	C	0.793002	0.175655	-0.053524
C12	C	0.704930	0.173774	-0.047580
C13	C	0.667169	0.167109	-0.120718
C14	C	0.584414	0.165363	-0.115121
C15	C	0.539423	0.170274	-0.036385
C16	C	0.577190	0.176944	0.036758
C17	C	0.659942	0.178699	0.031160
C18	C	0.291541	0.165656	-0.011499
C19	C	0.208784	0.163897	-0.005907
C20	C	0.216013	0.152319	-0.157786
C21	C	0.298768	0.154066	-0.163378
C22	C	0.336527	0.160742	-0.090234
N23	N	0.454835	0.168486	-0.030662
N24	N	0.421113	0.162539	-0.095959
C25	C	0.942504	-0.064127	-0.063612
C26	C	0.940172	-0.203523	-0.063458
C27	C	1.011253	-0.284470	-0.068253
C28	C	1.009057	-0.415446	-0.068110
C29	C	0.864694	-0.384514	-0.058374
C30	C	0.866891	-0.253541	-0.058523
C31	C	1.084534	-0.234452	-0.073187
C32	C	1.155620	-0.315401	-0.077982
C33	C	1.153425	-0.446377	-0.077839
C34	C	1.080143	-0.496404	-0.072903
C35	C	1.082950	0.155352	-0.073095
C36	C	1.171022	0.157231	-0.079044
C37	C	0.933448	0.395133	-0.063007
C38	C	0.935780	0.534528	-0.063167
N39	N	0.927629	0.182038	0.153726
N40	N	0.948329	0.148958	-0.280344
C41	C	0.979016	0.099680	0.193953
C42	C	0.974848	0.106367	0.281641
C43	C	0.919295	0.195420	0.329100
C44	C	0.867903	0.277783	0.288867
C45	C	0.872068	0.271088	0.201181
C46	C	0.901102	0.224626	0.591737
C47	C	0.896942	0.231317	0.679429
C48	C	1.003887	0.059899	0.672197
C49	C	1.008050	0.053217	0.584509
C50	C	0.956655	0.135575	0.544284
N51	N	0.915035	0.202261	0.418731
N52	N	0.960912	0.128728	0.454655
H53	H	1.086329	-0.127806	-0.073301
C54	C	1.230531	-0.534406	-0.082916
C55	C	1.230057	-0.605073	-0.011458
C56	C	1.301072	-0.686188	-0.016108
H57	H	1.274550	-0.486011	-0.085838
H58	H	1.234999	-0.589909	-0.131618
H59	H	1.225598	-0.549577	0.037231
H60	H	1.186055	-0.653494	-0.008521
H61	H	1.305540	-0.741691	-0.064810
H62	H	1.345085	-0.637783	-0.019032
H63	H	1.300757	-0.734154	0.032371
C64	C	0.785213	-0.439066	-0.052970
C65	C	0.798502	-0.571091	-0.053843
C66	C	0.725302	-0.621384	-0.048851
H67	H	0.758169	-0.415088	-0.099555
H68	H	0.753589	-0.407616	-0.002393
H69	H	0.830113	-0.602529	-0.104414
H70	H	0.825534	-0.595105	-0.007261
H71	H	0.693678	-0.589934	0.001726
H72	H	0.698264	-0.597397	-0.095437
H73	H	0.734308	-0.710967	-0.049435
H74	H	0.851702	0.303840	0.718067
H75	H	0.553673	0.159936	-0.174677
C76	C	0.332647	0.172685	0.067844
C77	C	0.388281	0.066014	0.068498
C78	C	0.426172	0.072449	0.141575
H79	H	0.294088	0.175292	0.115597
H80	H	0.359185	0.246798	0.069210
H81	H	0.361745	-0.008080	0.067140
H82	H	0.426856	0.063386	0.020762
H83	H	0.452710	0.146563	0.142941
H84	H	0.387608	0.075060	0.189322
H85	H	0.463930	0.000082	0.142025
H86	H	1.215284	-0.274662	-0.082022
C87	C	0.700802	0.185869	0.110665
C88	C	0.643694	0.189758	0.180817
C89	C	0.681304	0.196352	0.254072
H90	H	0.727290	0.260008	0.112136
H91	H	0.738559	0.113542	0.111304
H92	H	0.605951	0.262077	0.180178
H93	H	0.617202	0.115626	0.179373
H94	H	0.719061	0.124025	0.254712
H95	H	0.707791	0.270492	0.255535
H96	H	0.642563	0.198980	0.301679
H97	H	1.078361	-0.603056	-0.072796
C98	C	0.789630	-0.165850	-0.053270
C99	C	0.724982	-0.237681	-0.048889
C100	C	0.653796	-0.156943	-0.044044
H101	H	0.789696	-0.117788	-0.101686
H102	H	0.785122	-0.110427	-0.004525
H103	H	0.729488	-0.293081	-0.097629
H104	H	0.724890	-0.285740	-0.000474
H105	H	0.649288	-0.101521	0.004701
H106	H	0.653870	-0.108885	-0.092461
H107	H	0.609923	-0.205668	-0.041063
H108	H	1.024256	0.027168	0.155317
H109	H	1.016691	0.039303	0.314393
H110	H	0.703795	0.163106	-0.184833
H111	H	1.053285	-0.019297	0.545869
H112	H	1.045730	-0.007155	0.704956
C113	C	0.845265	0.314201	0.548225
C114	C	0.795742	0.393645	0.608558
C115	C	0.744301	0.476193	0.568501
H116	H	0.813546	0.266760	0.516280
H117	H	0.875687	0.363770	0.512080
H118	H	0.765323	0.344082	0.644688
H119	H	0.827439	0.441114	0.640506
H120	H	0.774723	0.525762	0.532356
H121	H	0.712588	0.428741	0.536558
H122	H	0.710699	0.530113	0.609430
C123	C	0.807459	0.374318	0.340359
C124	C	0.730416	0.352754	0.324336
C125	C	0.674714	0.441649	0.371762
H126	H	0.817102	0.457043	0.325410
H127	H	0.812286	0.366504	0.398354
H128	H	0.725591	0.360579	0.266354
H129	H	0.720748	0.270047	0.339289
H130	H	0.679541	0.433835	0.429758
H131	H	0.684364	0.524367	0.356810
H132	H	0.622434	0.427022	0.360904
C133	C	0.347470	0.148781	-0.248941
C134	C	0.296685	0.142597	-0.311796
C135	C	0.341520	0.137732	-0.390628
H136	H	0.385548	0.076007	-0.254774
H137	H	0.374246	0.222471	-0.253952
H138	H	0.269921	0.068914	-0.306788
H139	H	0.258607	0.215363	-0.305992
H140	H	0.368297	0.211422	-0.395639
H141	H	0.379596	0.064958	-0.396451
H142	H	0.307068	0.133547	-0.433284
C143	C	0.174951	0.145347	-0.237164
C144	C	0.119346	0.252050	-0.237835
C145	C	0.081512	0.245686	-0.310953
H146	H	0.148393	0.071276	-0.238597
H147	H	0.213568	0.142742	-0.284881
H148	H	0.080735	0.254643	-0.190132
H149	H	0.145884	0.326137	-0.236416
H150	H	0.120129	0.243080	-0.358669
H151	H	0.054958	0.171611	-0.312379
H152	H	0.043785	0.318087	-0.311421
H153	H	0.172151	0.167932	0.058213
H154	H	0.540551	0.180950	0.100867
C155	C	0.816367	0.360716	0.157540
C156	C	0.828906	0.485671	0.177921
C157	C	0.777613	0.568267	0.137727
H158	H	0.762640	0.348652	0.175469
H159	H	0.826807	0.344058	0.098513
H160	H	0.818461	0.502323	0.236936
H161	H	0.882623	0.497775	0.159990
H162	H	0.788053	0.551609	0.078700
H163	H	0.723890	0.556192	0.155660
H164	H	0.786119	0.653058	0.151544
