data_functionalizedCrystal
_audit_creation_method	'MofGen! by Chris Wilmer'
_symmetry_space_group_name_H-M	'P1'
_symmetry_Int_Tables_number	1
_symmetry_cell_setting	triclinic
loop_
_symmetry_equiv_pos_as_xyz
  x,y,z
_cell_length_a	29.839131
_cell_length_b	14.908571
_cell_length_c	14.908308
_cell_angle_alpha	90.175053
_cell_angle_beta	86.738717
_cell_angle_gamma	93.262683
loop_
_atom_site_label
_atom_site_type_symbol
_atom_site_fract_x
_atom_site_fract_y
_atom_site_fract_z
Zn1	Zn	-0.234441	-1.345126	0.587534
Zn2	Zn	-0.305498	-1.353655	0.437159
Zn3	Zn	-0.225812	-1.203447	0.428533
Zn4	Zn	-0.304964	-1.194683	0.578811
O5	O	-0.267679	-1.274228	0.508009
O6	O	-0.247701	-1.472080	0.574847
O7	O	-0.291540	-1.340967	0.310191
O8	O	-0.164094	-1.222340	0.449665
O9	O	-0.299907	-1.478346	0.464367
O10	O	-0.170433	-1.326430	0.566482
O11	O	-0.232995	-1.230610	0.303854
O12	O	-0.232477	-1.076461	0.441208
O13	O	-0.298997	-1.207402	0.705792
O14	O	-0.290630	-1.070022	0.551616
O15	O	-0.247184	-1.317932	0.712201
O16	O	-0.368290	-1.332468	0.455909
O17	O	-0.367898	-1.215672	0.559980
C18	C	-0.384395	-1.274068	0.507955
C19	C	-0.434330	-1.274080	0.507967
C20	C	-0.260560	-1.040617	0.494530
C21	C	-0.257526	-0.940676	0.488784
C22	C	-0.273993	-1.260738	0.742533
C23	C	-0.276684	-1.254989	0.842474
C24	C	-0.744176	-1.335143	0.453910
C25	C	-0.931853	-1.335252	0.453951
O26	O	-0.956286	-1.387043	0.407948
N27	N	-0.955128	-1.274410	0.508088
C28	C	-0.931481	-1.213541	0.562223
O29	O	-0.955585	-1.161800	0.608278
C30	C	-0.743805	-1.213437	0.562186
C31	C	-0.720532	-1.274276	0.508038
C32	C	-0.720903	-1.395978	0.399768
C33	C	-0.673987	-1.395947	0.399754
C34	C	-0.650343	-1.335081	0.453883
C35	C	-0.673615	-1.274245	0.508025
C36	C	-0.720159	-1.152572	0.616325
C37	C	-0.673237	-1.152553	0.616312
C38	C	-0.649964	-1.213393	0.562165
C39	C	-0.603055	-1.213348	0.562140
N40	N	-0.579780	-1.274189	0.508003
C41	C	-0.603424	-1.335056	0.453875
C42	C	-1.030014	-1.213598	0.562237
C43	C	-1.076933	-1.213623	0.562245
C44	C	-1.077302	-1.335336	0.453975
C45	C	-1.030382	-1.335306	0.453962
C46	C	-1.006739	-1.274440	0.508100
C47	C	-0.504895	-1.334986	0.453850
C48	C	-0.457974	-1.334947	0.453839
C49	C	-0.457609	-1.213238	0.562112
C50	C	-0.504526	-1.213273	0.562121
C51	C	-0.528168	-1.274154	0.507987
O52	O	-0.578594	-1.161590	0.608127
O53	O	-0.579313	-1.386803	0.407842
C54	C	-0.791093	-1.335174	0.453923
C55	C	-0.814366	-1.274339	0.508065
C56	C	-0.790722	-1.213472	0.562194
C57	C	-0.861284	-1.274363	0.508074
C58	C	-0.884928	-1.335230	0.453945
C59	C	-0.861654	-1.396072	0.399808
C60	C	-0.814737	-1.396041	0.399794
C61	C	-0.813996	-1.152630	0.616331
C62	C	-0.860913	-1.152666	0.616339
C63	C	-0.884557	-1.213532	0.562211
C64	C	-0.150508	-1.274411	0.508085
C65	C	-0.100577	-1.274490	0.508117
C66	C	-0.274826	-1.508750	0.521542
C67	C	-0.277872	-1.608690	0.527309
C68	C	-0.312463	-0.746229	0.592802
C69	C	-0.309614	-0.652326	0.587407
C70	C	-0.248976	-0.658964	0.472604
C71	C	-0.251825	-0.752867	0.477999
C72	C	-0.283570	-0.796497	0.538099
C73	C	-0.286422	-0.890402	0.543489
C74	C	-0.225781	-0.897038	0.428692
C75	C	-0.222932	-0.803135	0.423297
C76	C	-0.261358	-1.287717	0.274401
C77	C	-0.258546	-1.293639	0.174471
C78	C	-0.227777	-1.359279	1.036946
C79	C	-0.230304	-1.353881	1.130849
C80	C	-0.284262	-1.238790	1.124184
C81	C	-0.281735	-1.244189	1.030281
C82	C	-0.253492	-1.304436	0.986666
C83	C	-0.250968	-1.309839	0.892761
C84	C	-0.304924	-1.194744	0.886097
C85	C	-0.307450	-1.189345	0.980000
H86	H	-0.439027	-1.384490	0.409742
H87	H	-0.740149	-1.445548	0.355689
O88	O	-1.006995	-1.154428	0.614697
C89	C	-0.976756	-1.099311	0.560104
H90	H	-0.968851	-1.134995	0.493825
H91	H	-0.992582	-1.033273	0.546321
C92	C	-0.942735	-1.036279	0.690023
C93	C	-0.933023	-1.080110	0.608622
H94	H	-0.915758	-1.024431	0.719952
H95	H	-0.963108	-1.073409	0.726805
H96	H	-0.955923	-0.981252	0.678526
H97	H	-0.919840	-1.135141	0.620120
H98	H	-0.912646	-1.042989	0.571843
H99	H	-0.312271	-0.925924	0.592424
O100	O	-0.650256	-1.093549	0.669005
C101	C	-0.626191	-1.141335	0.730048
H102	H	-0.642598	-1.211834	0.739745
H103	H	-0.589982	-1.146027	0.702422
C104	C	-0.606502	-1.005374	0.809039
C105	C	-0.626656	-1.091959	0.820954
H106	H	-0.606787	-0.974916	0.865113
H107	H	-0.622714	-0.973178	0.767911
H108	H	-0.576330	-1.009296	0.786014
H109	H	-0.656829	-1.088035	0.843967
H110	H	-0.610449	-1.124153	0.862088
O111	O	-0.311680	-1.180334	1.166703
C112	C	-0.308380	-1.187307	1.260364
H113	H	-0.296132	-1.255987	1.277200
H114	H	-0.283541	-1.132488	1.283935
C115	C	-0.369915	-1.091848	1.287412
C116	C	-0.354876	-1.176205	1.308091
H117	H	-0.398595	-1.084995	1.316854
H118	H	-0.372137	-1.087146	1.224311
H119	H	-0.349212	-1.046174	1.307055
H120	H	-0.375576	-1.221876	1.288438
H121	H	-0.352658	-1.180914	1.371190
O122	O	-0.343346	-0.788663	0.651050
C123	C	-0.372581	-0.845903	0.602871
H124	H	-0.372534	-0.821658	0.530418
H125	H	-0.360765	-0.917261	0.603915
C126	C	-0.420596	-0.874569	0.735696
C127	C	-0.420541	-0.844785	0.646709
H128	H	-0.450180	-0.873883	0.762738
H129	H	-0.400899	-0.836007	0.768156
H130	H	-0.410748	-0.934031	0.736553
H131	H	-0.430384	-0.785321	0.645853
H132	H	-0.440241	-0.883337	0.614249
O133	O	-1.007848	-1.394494	0.401344
C134	C	-1.038783	-1.448198	0.353553
H135	H	-1.073305	-1.449175	0.390572
H136	H	-1.040961	-1.419256	0.283344
C137	C	-0.980597	-1.543439	0.300718
C138	C	-1.022997	-1.544645	0.346189
H139	H	-0.970859	-1.602931	0.296171
H140	H	-0.959755	-1.507256	0.332912
H141	H	-0.982418	-1.519316	0.242215
H142	H	-1.021174	-1.568757	0.404695
H143	H	-1.043838	-1.580835	0.314005
O144	O	-1.100348	-1.394480	0.401534
C145	C	-1.146749	-1.381459	0.413171
H146	H	-1.154112	-1.347889	0.480802
H147	H	-1.157229	-1.336776	0.357002
C148	C	-1.164291	-1.514174	0.327337
C149	C	-1.173335	-1.472950	0.410406
H150	H	-1.180691	-1.570609	0.325628
H151	H	-1.133030	-1.522946	0.319493
H152	H	-1.173024	-1.476930	0.280538
H153	H	-1.164596	-1.510189	0.457202
H154	H	-1.204596	-1.464187	0.418258
O155	O	-0.200280	-1.417705	0.994607
C156	C	-0.155526	-1.396825	1.016460
H157	H	-0.151762	-1.323515	1.038135
H158	H	-0.146719	-1.441919	1.073751
C159	C	-0.128245	-1.502171	0.907040
C160	C	-0.123621	-1.412128	0.933654
H161	H	-0.108564	-1.511615	0.855964
H162	H	-0.158396	-1.516242	0.892319
H163	H	-0.120907	-1.539739	0.954790
H164	H	-0.130964	-1.374563	0.885909
H165	H	-0.093470	-1.398052	0.948365
H166	H	-0.333141	-0.611401	0.631953
H167	H	-0.330444	-1.140292	1.015524
H168	H	-0.227972	-1.358896	0.857251
O169	O	-0.192156	-0.760713	0.364823
C170	C	-0.214474	-0.709675	0.303553
H171	H	-0.250557	-0.738259	0.299495
H172	H	-0.214631	-0.636916	0.327265
C173	C	-0.145579	-0.678492	0.215060
C174	C	-0.189896	-0.713604	0.210070
H175	H	-0.130418	-0.680912	0.157396
H176	H	-0.130542	-0.712874	0.256340
H177	H	-0.145716	-0.617862	0.234823
H178	H	-0.189759	-0.774236	0.190318
H179	H	-0.204932	-0.679232	0.168784
O180	O	-0.197776	-0.945969	0.375510
C181	C	-0.223392	-1.003568	0.320445
H182	H	-0.258737	-1.015791	0.352845
H183	H	-0.225386	-0.971184	0.251717
C184	C	-0.157521	-1.078709	0.269576
C185	C	-0.200932	-1.093727	0.309373
H186	H	-0.143667	-1.134323	0.262742
H187	H	-0.140263	-1.039902	0.306671
H188	H	-0.159189	-1.051720	0.212307
H189	H	-0.199264	-1.120705	0.366645
H190	H	-0.218190	-1.132542	0.272287
H191	H	-0.794749	-1.103066	0.660410
O192	O	-0.329929	-1.141592	0.837165
C193	C	-0.359050	-1.195862	0.785805
H194	H	-0.344903	-1.264834	0.775672
H195	H	-0.393614	-1.203614	0.822551
C196	C	-0.380658	-1.066793	0.706197
C197	C	-0.363280	-1.151503	0.693745
H198	H	-0.383269	-1.039429	0.649412
H199	H	-0.361040	-1.030229	0.740802
H200	H	-0.409460	-1.073264	0.736822
H201	H	-0.334477	-1.145030	0.663131
H202	H	-0.382894	-1.188065	0.659133
O203	O	-1.099523	-1.154605	0.614972
C204	C	-1.091028	-1.169011	0.705725
H205	H	-1.080406	-1.240569	0.714461
H206	H	-1.062974	-1.119427	0.726397
C207	C	-1.147040	-1.067177	0.754406
C208	C	-1.133998	-1.155068	0.765137
H209	H	-1.173545	-1.058572	0.791055
H210	H	-1.152762	-1.057468	0.693264
H211	H	-1.123659	-1.025867	0.771632
H212	H	-1.157377	-1.196376	0.747900
H213	H	-1.128281	-1.164783	0.826278
O214	O	-0.527786	-1.394155	0.401179
C215	C	-0.497177	-1.447850	0.353411
H216	H	-0.462547	-1.411176	0.348146
H217	H	-0.495109	-1.514213	0.390327
C218	C	-0.555845	-1.511444	0.264943
C219	C	-0.513313	-1.466397	0.258469
H220	H	-0.565799	-1.522889	0.206380
H221	H	-0.576467	-1.475272	0.297127
H222	H	-0.554116	-1.566741	0.295710
H223	H	-0.515044	-1.411096	0.227713
H224	H	-0.492691	-1.502561	0.226278
H225	H	-0.223127	-0.623424	0.423680
H226	H	-0.879858	-1.103115	0.660431
H227	H	-0.655041	-1.445491	0.355666
H228	H	-0.739099	-1.103026	0.660413
H229	H	-0.209362	-1.398538	1.171784
H230	H	-0.523476	-1.163735	0.606215
O231	O	-0.792204	-1.455231	0.347176
C232	C	-0.823141	-1.508938	0.299394
H233	H	-0.857662	-1.509912	0.336418
H234	H	-0.825323	-1.479999	0.229183
C235	C	-0.764958	-1.604182	0.246555
C236	C	-0.807356	-1.605385	0.292032
H237	H	-0.755221	-1.663675	0.242010
H238	H	-0.744115	-1.567998	0.278743
H239	H	-0.766782	-1.580063	0.188051
H240	H	-0.805531	-1.629494	0.350539
H241	H	-0.828199	-1.641576	0.259853
H242	H	-0.438351	-1.163678	0.606181
H243	H	-0.880912	-1.445629	0.355732
