data_functionalizedCrystal
_audit_creation_method	'MofGen! by Chris Wilmer'
_symmetry_space_group_name_H-M	'P1'
_symmetry_Int_Tables_number	1
_symmetry_cell_setting	triclinic
loop_
_symmetry_equiv_pos_as_xyz
  x,y,z
_cell_length_a	15.297475
_cell_length_b	13.897448
_cell_length_c	15.298259
_cell_angle_alpha	80.288631
_cell_angle_beta	88.370891
_cell_angle_gamma	80.320483
loop_
_atom_site_label
_atom_site_type_symbol
_atom_site_fract_x
_atom_site_fract_y
_atom_site_fract_z
Zn1	Zn	1.253541	-0.481795	-0.726676
Zn2	Zn	1.278796	-0.674907	-0.580180
Zn3	Zn	1.132394	-0.491177	-0.554900
Zn4	Zn	1.107036	-0.620594	-0.701320
O5	O	1.192942	-0.567118	-0.640769
O6	O	1.379473	-0.526216	-0.728435
O7	O	1.280558	-0.677192	-0.454240
O8	O	1.148508	-0.354953	-0.577719
O9	O	1.398028	-0.668094	-0.620805
O10	O	1.237513	-0.348060	-0.703922
O11	O	1.172997	-0.542206	-0.435668
O12	O	1.006448	-0.489540	-0.553132
O13	O	1.105288	-0.575525	-0.827270
O14	O	0.987817	-0.584622	-0.660706
O15	O	1.212924	-0.473550	-0.845899
O16	O	1.255969	-0.802682	-0.596218
O17	O	1.129777	-0.762778	-0.685218
C18	C	0.965348	-0.532206	-0.601424
C19	C	0.867979	-0.517290	-0.584613
C20	C	1.192882	-0.817728	-0.640733
C21	C	1.192932	-0.924946	-0.640760
C22	C	0.554870	-0.673737	-0.760923
C23	C	0.646353	-0.687760	-0.776715
C24	C	0.701764	-0.645143	-0.728692
C25	C	0.665683	-0.588502	-0.664872
C26	C	0.574191	-0.574484	-0.649073
C27	C	0.721086	-0.545890	-0.616842
C28	C	0.685004	-0.489249	-0.553022
C29	C	0.593521	-0.475234	-0.537227
C30	C	0.538110	-0.517850	-0.585250
C31	C	0.812577	-0.559908	-0.632641
C32	C	0.831898	-0.460655	-0.520791
C33	C	0.740415	-0.446633	-0.504998
C34	C	1.193014	-1.121244	-0.640831
C35	C	1.192965	-1.012009	-0.640794
C36	C	1.421424	-0.602167	-0.680268
C37	C	1.518789	-0.617103	-0.697100
C38	C	1.153460	-0.517433	-0.869259
C39	C	1.136636	-0.496260	-0.966627
C40	C	1.193022	-0.315529	-0.640829
C41	C	1.193056	-0.208317	-0.640855
C42	C	1.313218	-0.717706	-1.279766
C43	C	1.329021	-0.737605	-1.188282
C44	C	1.280927	-0.677270	-1.132864
C45	C	1.217026	-0.597034	-1.168938
C46	C	1.201216	-0.577138	-1.260429
C47	C	1.168924	-0.536702	-1.113528
C48	C	1.105023	-0.456465	-1.149602
C49	C	1.089217	-0.436573	-1.241085
C50	C	1.137312	-0.496907	-1.296503
C51	C	1.184734	-0.556598	-1.022037
C52	C	1.072731	-0.416029	-1.002700
C53	C	1.056929	-0.396131	-1.094184
C54	C	1.232320	-0.616549	-0.413178
C55	C	1.249314	-0.637476	-0.315839
H56	H	0.776254	-0.656563	-0.741554
O57	O	1.027136	-0.358571	-1.275987
C58	C	0.917677	-0.221281	-1.247144
C59	C	0.987971	-0.309571	-1.207506
H60	H	0.885979	-0.181652	-1.191794
H61	H	0.950474	-0.167637	-1.296910
H62	H	0.864491	-0.249241	-1.282078
H63	H	1.041178	-0.281701	-1.172527
H64	H	0.955111	-0.363197	-1.157786
O65	O	0.994747	-0.318246	-1.129113
C66	C	0.840911	-0.242504	-1.131409
C67	C	0.911243	-0.330752	-1.091766
H68	H	0.773378	-0.252596	-1.101245
H69	H	0.859357	-0.170974	-1.116072
H70	H	0.837924	-0.238645	-1.206319
H71	H	0.914267	-0.334705	-1.016851
H72	H	0.892769	-0.402240	-1.107173
H73	H	1.124451	-0.480708	-1.370997
H74	H	0.877015	-0.425955	-0.481684
H75	H	0.509748	-0.708436	-0.800012
O76	O	1.390975	-0.815629	-1.153185
C77	C	1.420573	-0.970102	-1.051868
C78	C	1.350312	-0.881803	-1.091557
H79	H	1.387728	-1.023617	-1.002021
H80	H	1.452224	-1.009880	-1.107150
H81	H	1.473805	-0.942136	-1.017006
H82	H	1.297027	-0.909687	-1.126411
H83	H	1.318732	-0.842042	-1.036239
H84	H	0.463616	-0.506434	-0.572397
H85	H	0.564149	-0.429124	-0.485252
H86	H	0.711024	-0.400515	-0.453036
H87	H	1.033568	-0.366900	-0.957578
O88	O	0.681464	-0.742903	-0.838591
C89	C	0.782781	-0.886419	-0.868014
C90	C	0.743073	-0.824073	-0.797840
H91	H	0.832614	-0.952046	-0.835097
H92	H	0.727510	-0.914549	-0.899622
H93	H	0.817660	-0.838766	-0.921296
H94	H	0.708203	-0.871662	-0.744505
H95	H	0.798381	-0.795934	-0.766302
O96	O	1.246745	-0.634637	-0.987088
C97	C	1.294015	-0.811330	-0.966367
C98	C	1.223729	-0.723032	-1.006007
H99	H	1.275421	-0.882820	-0.981632
H100	H	1.361558	-0.801396	-0.996590
H101	H	1.297068	-0.815141	-0.891468
H102	H	1.220595	-0.719168	-1.080904
H103	H	1.156221	-0.733002	-0.975715
O104	O	0.847559	-0.614783	-0.694754
C105	C	0.849787	-0.633800	-0.848517
C106	C	0.810116	-0.571551	-0.778261
H107	H	0.819517	-0.598883	-0.916045
H108	H	0.924690	-0.636483	-0.851642
H109	H	0.834480	-0.712171	-0.829856
H110	H	0.825357	-0.493151	-0.796871
H111	H	0.735224	-0.568950	-0.775150
O112	O	1.296283	-0.696416	-1.043999
C113	C	1.341564	-0.635967	-0.916637
C114	C	1.324179	-0.614146	-1.017281
H115	H	1.364140	-0.569475	-0.895008
H116	H	1.278018	-0.650917	-0.880015
H117	H	1.395468	-0.703706	-0.900389
H118	H	1.270305	-0.546397	-1.033611
H119	H	1.387767	-0.599257	-1.053848
O120	O	1.359874	-0.776188	-1.333726
C121	C	1.385098	-0.807877	-1.483232
C122	C	1.332211	-0.741544	-1.422226
H123	H	1.362739	-0.779904	-1.554794
H124	H	1.458857	-0.805683	-1.477538
H125	H	1.372809	-0.887205	-1.462512
H126	H	1.344425	-0.662186	-1.442905
H127	H	1.258469	-0.743823	-1.427928
