data_functionalizedCrystal
_audit_creation_method	'MofGen! by Chris Wilmer'
_symmetry_space_group_name_H-M	'P1'
_symmetry_Int_Tables_number	1
_symmetry_cell_setting	triclinic
loop_
_symmetry_equiv_pos_as_xyz
  x,y,z
_cell_length_a	19.902436
_cell_length_b	19.376995
_cell_length_c	19.377372
_cell_angle_alpha	62.052776
_cell_angle_beta	89.998346
_cell_angle_gamma	48.615078
loop_
_atom_site_label
_atom_site_type_symbol
_atom_site_fract_x
_atom_site_fract_y
_atom_site_fract_z
Zr1	Zr	0.525967	0.759841	0.055577
O2	O	0.369993	0.944390	-0.042423
O3	O	0.586534	0.607940	0.064295
O4	O	0.528571	0.806901	-0.073163
O5	O	0.459171	0.696923	0.227722
O6	O	0.639154	0.806884	-0.073155
O7	O	0.427955	0.745429	0.095036
O8	O	0.742838	0.450979	0.172733
O9	O	0.355487	1.052828	-0.018166
O10	O	0.679484	0.658315	0.093782
O11	O	0.620253	0.622127	0.192799
O12	O	0.552010	0.856378	0.030959
O13	O	0.492779	0.820191	0.129975
Zr14	Zr	0.752119	0.682452	0.267209
Zr15	Zr	0.702334	0.759814	0.055590
Zr16	Zr	0.575752	0.682479	0.267196
Zr17	Zr	0.502831	0.932786	0.094264
Zr18	Zr	0.775255	0.509507	0.228522
O19	O	0.691552	0.834354	0.258491
O20	O	0.620765	0.944352	-0.042405
O21	O	0.440781	0.834392	0.258473
O22	O	0.908093	0.497903	0.365209
O23	O	0.837305	0.607902	0.064313
O24	O	0.657321	0.497941	0.365191
O25	O	0.818915	0.745370	0.095064
O26	O	0.749515	0.635393	0.395949
O27	O	0.638932	0.635409	0.395941
O28	O	0.850131	0.696864	0.227750
O29	O	0.495675	1.052807	-0.018156
O30	O	0.782411	0.389487	0.340942
O31	O	0.922599	0.389466	0.340952
O32	O	0.883027	0.450958	0.172743
O33	O	0.395059	0.991335	0.150043
O34	O	0.535248	0.991314	0.150053
O35	O	0.726076	0.585915	0.291827
O36	O	0.785307	0.622102	0.192811
O37	O	0.657833	0.820166	0.129987
O38	O	0.598602	0.783979	0.229004
C39	C	0.667982	0.504819	0.113002
C40	C	0.677804	0.431399	0.096578
C41	C	0.722564	0.346803	0.021749
C42	C	0.713331	0.415790	0.037187
C43	C	0.651500	0.378015	0.140559
C44	C	0.660733	0.309018	0.125133
C45	C	0.696264	0.293420	0.065726
C46	C	0.634433	0.255635	0.169110
C47	C	0.643660	0.186650	0.153681
C48	C	0.679187	0.171048	0.094275
C49	C	0.705491	0.224434	0.050297
C50	C	0.598895	0.271242	0.228511
C51	C	0.572595	0.217859	0.272488
C52	C	0.581828	0.148866	0.257065
C53	C	0.617355	0.133263	0.197659
C54	C	0.555524	0.095479	0.301043
C55	C	0.564751	0.026494	0.285614
C56	C	0.626582	0.064278	0.182231
C57	C	0.418435	0.721180	0.161377
C58	C	0.343562	0.721191	0.161372
C59	C	0.071575	0.721132	0.161400
C60	C	0.019723	0.845964	0.122069
C61	C	0.097471	0.846155	0.121738
C62	C	0.206511	0.721162	0.161386
C63	C	0.200166	0.687107	0.104491
C64	C	0.121743	0.687928	0.104178
C65	C	0.159189	0.629612	0.257490
C66	C	0.235815	0.631592	0.257754
C67	C	0.282774	0.721173	0.161378
C68	C	-0.004687	0.721118	0.161404
C69	C	0.859651	0.721113	0.161409
C70	C	0.934524	0.721102	0.161414
C71	C	0.576770	0.817915	-0.103311
C72	C	0.555635	0.850757	-0.193149
C73	C	0.610104	0.937475	0.209784
C74	C	0.600282	1.010895	0.226208
C75	C	0.818796	0.441847	-0.324653
C76	C	0.798915	0.472735	-0.409078
C77	C	0.665842	0.679498	-0.474651
C78	C	0.685715	0.648628	-0.390230
C79	C	0.762192	0.529801	-0.315236
C80	C	0.629111	0.736581	-0.380813
C81	C	0.648979	0.705713	-0.296399
C82	C	0.725451	0.586891	-0.221402
C83	C	0.782060	0.498932	-0.230822
C84	C	0.552629	0.855408	-0.455809
C85	C	0.496026	0.943361	-0.446392
C86	C	0.515898	0.912493	-0.361977
C87	C	0.592370	0.793672	-0.286979
C88	C	0.459289	1.000453	-0.352557
C89	C	0.479157	0.969584	-0.268143
C90	C	0.612238	0.762804	-0.202565
C91	C	0.701316	0.624379	0.426097
C92	C	0.722451	0.591536	0.515935
C93	C	0.888591	0.504785	0.113018
C94	C	0.973285	0.431354	0.096600
C95	C	0.730256	0.408050	0.377706
C96	C	0.761212	0.301788	0.451120
C97	C	0.950864	0.408017	0.377721
C98	C	1.056693	0.301744	0.451141
C99	C	0.327222	1.034276	-0.054935
C100	C	0.221393	1.140550	-0.128355
C101	C	0.389495	0.937508	0.209768
C102	C	0.304801	1.010939	0.226186
C103	C	0.547830	1.034243	-0.054920
C104	C	0.516874	1.140505	-0.128334
C105	C	0.957818	0.415776	0.037189
C106	C	1.037384	0.346796	0.021745
C107	C	1.132419	0.293389	0.065717
C108	C	1.147884	0.308974	0.125131
C109	C	1.068316	0.377959	0.140569
C110	C	0.830990	0.232981	0.537297
C111	C	0.860075	0.133143	0.606288
C112	C	0.819386	0.102110	0.589099
C113	C	0.749599	0.170928	0.502914
C114	C	0.720510	0.270769	0.433926
C115	C	1.137317	0.270726	0.433934
C116	C	1.236759	0.170884	0.502914
C117	C	1.255575	0.102056	0.589099
C118	C	1.174941	0.133081	0.606306
C119	C	1.075501	0.232927	0.537328
C120	C	0.140768	1.171576	-0.111147
C121	C	0.041323	1.271440	-0.180122
C122	C	0.022507	1.340271	-0.266306
C123	C	0.103141	1.309242	-0.283513
C124	C	0.202583	1.209384	-0.214538
C125	C	0.320265	1.026528	0.285590
C126	C	0.240691	1.095535	0.301015
C127	C	0.145655	1.148946	0.257041
C128	C	0.130191	1.133356	0.197630
C129	C	0.209763	1.064357	0.182201
C130	C	0.557582	1.171505	-0.111119
C131	C	0.528514	1.271337	-0.180093
C132	C	0.458732	1.340173	-0.266282
C133	C	0.418024	1.309166	-0.283497
C134	C	0.447098	1.209330	-0.214524
H135	H	0.734434	0.211724	0.001929
Br136	Br	0.529049	-0.045951	0.345291
H137	H	1.024774	0.334118	-0.026634
Br138	Br	0.323313	1.402607	-0.400471
H139	H	0.734749	0.459256	0.001370
H140	H	0.052803	1.176853	0.161830
Br141	Br	0.054417	0.961313	0.004187
Br142	Br	-0.068090	1.313526	-0.156749
H143	H	0.413941	1.184103	-0.228553
H144	H	0.526585	0.108200	0.349405
Br145	Br	0.828850	0.488248	-0.022502
H146	H	0.591378	0.327422	0.241067
H147	H	0.268226	1.184127	-0.228561
Br148	Br	0.392230	1.104621	-0.548174
H149	H	0.397643	0.983042	0.321408
Br150	Br	0.583767	1.313398	-0.156709
Br151	Br	0.098630	0.893844	0.187496
Br152	Br	0.886232	0.275067	0.560648
H153	H	0.655525	0.051568	0.133862
H154	H	1.197200	0.237219	0.053138
Br155	Br	-0.112457	1.475791	-0.359907
H156	H	0.433061	1.041205	-0.260478
Br157	Br	0.261700	1.116672	0.381648
Br158	Br	1.346172	0.128799	0.479542
H159	H	0.435067	1.421462	-0.322436
Br160	Br	0.524371	0.239041	0.353106
Br161	Br	0.885888	0.337665	-0.129037
H162	H	0.686692	0.114880	0.081711
H163	H	0.622567	0.390729	0.188925
H164	H	0.087808	1.365297	-0.353692
H165	H	0.156071	1.115538	-0.040978
H166	H	0.238498	0.656124	0.300054
H167	H	1.009861	0.258167	0.551349
H168	H	0.751508	0.334093	-0.026619
H169	H	-0.017654	0.874928	0.161432
H170	H	-0.044110	0.914725	0.051984
Br171	Br	1.089327	0.399083	0.221208
Br172	Br	0.328503	0.535662	0.148331
H173	H	0.197159	1.051668	0.133832
H174	H	0.080871	1.205126	0.269612
H175	H	0.916901	0.077122	0.676457
H176	H	0.061726	0.752948	0.032948
H177	H	0.716476	0.145646	0.488931
Br178	Br	1.111808	0.364121	0.316977
H179	H	0.614400	1.115470	-0.040944
Br180	Br	0.858875	-0.033393	0.682738
Br181	Br	0.187290	0.537271	0.146827
H182	H	0.127458	0.648375	0.302851
Br183	Br	0.164104	0.793652	-0.013278
Br184	Br	0.367879	0.476770	0.313668
H185	H	0.674518	0.666043	-0.141499
Br186	Br	0.227424	0.475886	0.307012
Br187	Br	0.625811	0.364137	0.316972
Br188	Br	0.752410	0.544994	-0.106837
Br189	Br	0.875741	0.353356	-0.421852
Br190	Br	0.562047	0.840758	-0.576433
Br191	Br	0.922623	0.280580	-0.222868
H192	H	0.536454	0.880536	-0.524542
Br193	Br	0.355486	1.161711	-0.454340
H194	H	1.225272	0.265481	0.160928
H195	H	1.336550	0.020758	0.645258
H196	H	1.190277	0.077027	0.676486
