data_functionalizedCrystal
_audit_creation_method	'MofGen! by Chris Wilmer'
_symmetry_space_group_name_H-M	'P1'
_symmetry_Int_Tables_number	1
_symmetry_cell_setting	triclinic
loop_
_symmetry_equiv_pos_as_xyz
  x,y,z
_cell_length_a	15.698487
_cell_length_b	12.970454
_cell_length_c	12.970454
_cell_angle_alpha	89.998717
_cell_angle_beta	59.998787
_cell_angle_gamma	60.000833
loop_
_atom_site_label
_atom_site_type_symbol
_atom_site_fract_x
_atom_site_fract_y
_atom_site_fract_z
Zr1	Zr	0.932394	-0.135290	0.993220
O2	O	1.110106	-0.299907	0.828595
O3	O	0.754683	-0.084829	1.043686
O4	O	0.932395	-0.299915	1.043687
O5	O	0.932394	0.084847	0.828595
O6	O	0.932394	-0.299918	1.213354
O7	O	0.932395	-0.084821	0.828595
O8	O	0.614500	0.084832	1.213354
O9	O	1.250288	-0.299903	0.828595
O10	O	0.827777	-0.063306	1.191830
O11	O	0.827777	0.063317	1.065209
O12	O	1.037010	-0.189919	1.065209
O13	O	1.037010	-0.063296	0.938588
Zr14	Zr	0.932392	0.135306	1.263820
Zr15	Zr	0.932393	-0.135294	1.263820
Zr16	Zr	0.932393	0.135310	0.993220
Zr17	Zr	1.155967	-0.135283	0.993220
Zr18	Zr	0.708819	0.135300	1.263820
O19	O	1.110103	0.084846	1.213353
O20	O	1.110105	-0.299913	1.213354
O21	O	1.110105	0.084852	0.828595
O22	O	0.754680	0.299923	1.428444
O23	O	0.754681	-0.084835	1.428445
O24	O	0.754681	0.299929	1.043686
O25	O	0.932392	-0.084830	1.428444
O26	O	0.932391	0.299932	1.213353
O27	O	0.932392	0.299934	1.043686
O28	O	0.932391	0.084837	1.428444
O29	O	1.250287	-0.299906	1.043686
O30	O	0.614499	0.299923	1.213353
O31	O	0.614498	0.299919	1.428444
O32	O	0.614499	0.084829	1.428445
O33	O	1.250287	-0.084812	0.828595
O34	O	1.250286	-0.084815	1.043686
O35	O	0.827776	0.189936	1.191830
O36	O	0.827776	0.063313	1.318451
O37	O	1.037009	-0.063300	1.191830
O38	O	1.037009	0.063323	1.065209
C39	C	0.652737	0.000001	1.128520
C40	C	0.557825	-0.000002	1.128520
C41	C	0.932394	0.000014	0.790040
C42	C	0.932395	0.000015	0.675164
C43	C	0.932391	0.338488	1.128519
C44	C	0.932391	0.453364	1.128519
C45	C	0.384042	0.000020	1.128517
C46	C	0.480747	0.000011	1.128516
C47	C	1.212049	0.000016	1.128519
C48	C	1.306961	0.000019	1.128519
C49	C	0.932394	-0.338471	1.128520
C50	C	0.932395	-0.453348	1.128520
C51	C	0.932391	0.000003	1.466999
C52	C	0.932391	0.000001	1.581876
C53	C	0.652736	-0.000005	1.466999
C54	C	0.557823	-0.000009	1.581876
C55	C	0.652736	0.338480	1.128520
C56	C	0.557823	0.453354	1.128520
C57	C	0.652734	0.338475	1.466999
C58	C	0.557821	0.453347	1.581876
C59	C	1.212052	-0.338458	0.790041
C60	C	1.306965	-0.453330	0.675164
C61	C	1.212050	0.000021	0.790040
C62	C	1.306963	0.000026	0.675163
C63	C	1.212050	-0.338463	1.128520
C64	C	1.306963	-0.453337	1.128520
C65	C	0.513251	-0.066116	1.569729
C66	C	0.424082	-0.066146	1.677658
C67	C	0.379481	-0.000060	1.797733
C68	C	0.424061	0.066049	1.809877
C69	C	0.513235	0.066071	1.701950
C70	C	0.513250	0.573405	1.194614
C71	C	0.424081	0.681352	1.194609
C72	C	0.379481	0.669245	1.128517
C73	C	0.424063	0.549181	1.062414
C74	C	0.513236	0.441237	1.062412
C75	C	0.513248	0.441196	1.701929
C76	C	0.424079	0.549121	1.809878
C77	C	0.379478	0.669195	1.797771
C78	C	0.424059	0.681343	1.677705
C79	C	0.513233	0.573420	1.569759
C80	C	1.351548	-0.441180	0.555110
C81	C	1.440745	-0.549104	0.447161
C82	C	1.485351	-0.669178	0.459268
C83	C	1.440764	-0.681326	0.579334
C84	C	1.351575	-0.573403	0.687281
C85	C	1.351544	0.066122	0.687310
C86	C	1.440737	0.066121	0.579382
C87	C	1.485342	0.000031	0.459307
C88	C	1.440757	-0.066073	0.447162
C89	C	1.351572	-0.066079	0.555090
C90	C	1.351535	-0.441190	1.194626
C91	C	1.440704	-0.549116	1.194650
C92	C	1.485306	-0.669189	1.128561
C93	C	1.440725	-0.681334	1.062453
C94	C	1.351552	-0.573409	1.062437
H95	H	0.387796	-0.119979	1.667745
O96	O	0.556346	0.585457	1.453235
C97	C	0.497868	0.714583	1.465714
H98	H	0.407489	0.772122	1.562047
H99	H	0.556354	0.746389	1.456862
C100	C	0.588076	0.664272	1.242854
C101	C	0.477066	0.734942	1.361169
H102	H	0.575248	0.676832	1.178363
H103	H	0.627477	0.577277	1.234445
H104	H	0.636803	0.690785	1.235496
H105	H	0.428347	0.708418	1.368532
H106	H	0.437655	0.821934	1.369577
H107	H	1.315234	-0.343430	1.248443
H108	H	1.315276	-0.583311	0.785031
O109	O	1.484234	-0.798070	0.998270
C110	C	1.572480	-0.890708	1.012490
H111	H	1.611451	-0.848613	1.036850
H112	H	1.529821	-0.924480	1.091620
C113	C	1.625993	-1.054847	0.858308
C114	C	1.673865	-1.003148	0.888217
H115	H	1.688529	-1.124208	0.781653
H116	H	1.566536	-0.992437	0.848730
H117	H	1.590444	-1.082980	0.924259
H118	H	1.709398	-0.975002	0.822274
H119	H	1.733330	-1.065556	0.897781
O120	O	1.308065	-0.324454	0.543557
C121	C	1.219804	-0.231785	0.664566
H122	H	1.180789	-0.273844	0.736111
H123	H	1.262461	-0.198023	0.692075
C124	C	1.166390	-0.067691	0.575070
C125	C	1.118464	-0.119346	0.662942
H126	H	1.103881	0.001670	0.574069
H127	H	1.225856	-0.130123	0.493543
H128	H	1.201937	-0.039567	0.598005
H129	H	1.082931	-0.147483	0.639997
H130	H	1.058989	-0.056916	0.744465
H131	H	0.387734	0.119854	1.907657
H132	H	1.477093	-0.779103	0.589177
O133	O	0.556346	0.130415	1.713984
C134	C	0.497868	0.188710	1.843112
H135	H	0.407490	0.201762	1.900655
H136	H	0.556355	0.126774	1.874916
C137	C	0.588074	0.302392	1.792795
C138	C	0.477065	0.318432	1.863470
H139	H	0.575246	0.382408	1.805354
H140	H	0.627476	0.263114	1.705799
H141	H	0.636802	0.250775	1.819306
H142	H	0.428346	0.370035	1.836947
H143	H	0.437654	0.357722	1.950462
H144	H	1.315234	0.119948	0.785072
H145	H	0.387736	0.539342	1.008603
O146	O	1.308132	-0.584994	0.998277
C147	C	1.219903	-0.464000	1.012368
H148	H	1.180833	-0.392436	1.101664
H149	H	1.262609	-0.436506	0.926983
C150	C	1.166600	-0.553539	0.912804
C151	C	1.118606	-0.465645	1.022484
H152	H	1.104117	-0.554553	0.919038
H153	H	1.226045	-0.635056	0.903305
H154	H	1.202187	-0.530617	0.841661
H155	H	1.083033	-0.488577	1.093623
H156	H	1.059153	-0.384132	1.031995
H157	H	0.549565	-0.119947	1.471968
H158	H	0.306870	-0.000086	1.885604
H159	H	1.477023	0.119956	0.589295
H160	H	1.315276	-0.119899	0.545181
H161	H	1.477033	-0.539189	0.349409
H162	H	0.387790	0.539207	1.907632
H163	H	0.306867	0.757063	1.885679
H164	H	0.387794	0.779103	1.248443
H165	H	1.476992	-0.539202	1.248481
H166	H	1.557962	0.000047	0.371436
H167	H	0.387732	0.779121	1.667866
H168	H	0.549553	0.583287	1.248435
H169	H	0.306871	0.757150	1.128528
H170	H	0.549515	0.343490	1.008594
H171	H	0.549549	0.343436	1.711811
H172	H	1.557974	-0.757046	0.371361
H173	H	1.477088	-0.119881	0.349383
H174	H	1.557917	-0.757058	1.128585
