data_functionalizedCrystal
_audit_creation_method	'MofGen! by Chris Wilmer'
_symmetry_space_group_name_H-M	'P1'
_symmetry_Int_Tables_number	1
_symmetry_cell_setting	triclinic
loop_
_symmetry_equiv_pos_as_xyz
  x,y,z
_cell_length_a	14.044191
_cell_length_b	16.992694
_cell_length_c	15.455313
_cell_angle_alpha	87.142206
_cell_angle_beta	87.087010
_cell_angle_gamma	88.070000
loop_
_atom_site_label
_atom_site_type_symbol
_atom_site_fract_x
_atom_site_fract_y
_atom_site_fract_z
O1	O	-0.198161	1.057686	-0.072010
O2	O	0.301839	1.557686	0.427990
O3	O	-0.195943	0.829247	-0.072036
O4	O	0.304057	1.329247	0.427964
O5	O	-0.058807	0.940035	-0.072025
O6	O	0.441193	1.440035	0.427975
O7	O	-0.335297	0.946898	-0.072021
O8	O	0.164703	1.446898	0.427979
O9	O	-0.066614	0.933697	0.072237
O10	O	0.433386	1.433697	0.572237
O11	O	-0.203750	0.822909	0.072226
O12	O	0.296250	1.322909	0.572226
O13	O	-0.205968	1.051349	0.072252
O14	O	0.294032	1.551349	0.572252
Cu15	Cu	-0.205572	0.936550	0.085411
Cu16	Cu	0.294428	1.436550	0.585411
Cu17	Cu	-0.196339	0.944046	-0.085195
Cu18	Cu	0.303661	1.444046	0.414805
O19	O	-0.343104	0.940561	0.072241
O20	O	0.156896	1.440561	0.572241
C21	C	-0.196995	0.796666	0.000092
C22	C	0.303005	1.296666	0.500092
C23	C	-0.188485	0.709027	0.000082
C24	C	0.311515	1.209027	0.500082
C25	C	-0.270582	0.664531	0.000083
C26	C	0.229418	1.164531	0.500083
C27	C	-0.262583	0.582184	0.000095
C28	C	0.237417	1.082184	0.500095
C29	C	-0.172484	0.544335	0.000099
C30	C	0.327516	1.044335	0.500099
C31	C	-0.090381	0.588838	0.000100
C32	C	0.409619	1.088838	0.500100
C33	C	-0.098382	0.671183	0.000094
C34	C	0.401618	1.171183	0.500094
C35	C	-0.139323	0.298417	0.000122
C36	C	0.360677	0.798417	0.500122
C37	C	-0.131328	0.216066	0.000125
C38	C	0.368672	0.716066	0.500125
C39	C	-0.303530	0.209417	0.000122
C40	C	0.196470	0.709417	0.500122
C41	C	-0.311523	0.291764	0.000111
C42	C	0.188477	0.791764	0.500111
C43	C	-0.229420	0.336259	0.000116
C44	C	0.270580	0.836259	0.500116
N45	N	-0.164305	0.460164	0.000108
N46	N	0.335695	0.960164	0.500108
N47	N	-0.237601	0.420429	0.000113
N48	N	0.262399	0.920429	0.500113
C49	C	-0.374742	0.946732	0.000111
C50	C	0.125258	1.446732	0.500111
C51	C	-0.480647	0.955688	0.000113
C52	C	0.019353	1.455688	0.500113
C53	C	-0.727361	0.908543	0.000100
C54	C	-0.227361	1.408543	0.500100
C55	C	-0.674544	0.972050	0.000108
C56	C	-0.174544	1.472050	0.500108
C57	C	-0.566650	0.962944	0.000111
C58	C	-0.066650	1.462944	0.500111
C59	C	-0.835265	0.917647	0.000097
C60	C	-0.335265	1.417647	0.500097
C61	C	-0.027169	0.933864	0.000103
C62	C	0.472831	1.433864	0.500103
C63	C	0.078736	0.924908	0.000096
C64	C	0.578736	1.424908	0.500096
C65	C	-0.204916	1.083930	0.000122
C66	C	0.295084	1.583930	0.500122
C67	C	-0.213425	1.171569	0.000127
C68	C	0.286575	1.671569	0.500127
N69	N	-0.212066	0.931284	0.205406
N70	N	0.287934	1.431284	0.705406
N71	N	-0.189838	0.949317	-0.205190
N72	N	0.310162	1.449317	0.294810
C73	C	-0.153830	0.978370	0.250805
C74	C	0.346170	1.478370	0.750805
C75	C	-0.158751	0.974396	0.341612
C76	C	0.341249	1.474396	0.841612
C77	C	-0.221913	0.923339	0.387019
C78	C	0.278087	1.423339	0.887019
C79	C	-0.280151	0.876248	0.341614
C80	C	0.219849	1.376248	0.841614
C81	C	-0.275225	0.880219	0.250808
C82	C	0.224775	1.380219	0.750808
C83	C	-0.243150	0.906197	0.658599
C84	C	0.256850	1.406197	1.158599
C85	C	-0.248074	0.902231	0.749411
C86	C	0.251926	1.402231	1.249411
C87	C	-0.126672	1.000379	0.749403
C88	C	0.373328	1.500379	1.249403
C89	C	-0.121755	1.004349	0.658595
C90	C	0.378245	1.504349	1.158595
C91	C	-0.179990	0.957255	0.613198
C92	C	0.320010	1.457255	1.113198
N93	N	-0.226946	0.919277	0.479839
N94	N	0.273054	1.419277	0.979839
N95	N	-0.174951	0.961313	0.520380
N96	N	0.325049	1.461313	1.020380
H97	H	-0.384890	0.322575	0.000098
H98	H	0.115110	0.822575	0.500098
C99	C	-0.393835	0.160471	0.000127
C100	C	0.106165	0.660471	0.500127
H101	H	-0.376171	0.106008	0.000139
H102	H	0.123829	0.606008	0.500139
H103	H	-0.427804	0.174801	-0.050178
H104	H	0.072196	0.674801	0.449822
H105	H	-0.433241	0.170398	0.050442
H106	H	0.066759	0.670398	0.550442
H107	H	-0.710352	1.033262	0.000053
H108	H	-0.210352	1.533262	0.500053
H109	H	-0.102402	1.019950	0.213840
H110	H	0.397598	1.519950	0.713840
H111	H	-0.331576	0.834672	0.378590
H112	H	0.168424	1.334672	0.878590
C113	C	-0.678989	0.825860	0.000103
C114	C	-0.178989	1.325860	0.500103
H115	H	-0.611767	0.830510	0.000115
H116	H	-0.111767	1.330510	0.500115
H117	H	-0.694942	0.800233	-0.050202
H118	H	-0.194942	1.300233	0.449798
H119	H	-0.700398	0.795830	0.050418
H120	H	-0.200398	1.295830	0.550418
H121	H	-0.299511	0.860652	0.786378
H122	H	0.200489	1.360652	1.286378
H123	H	-0.031530	0.707412	0.000092
H124	H	0.468470	1.207412	0.500092
H125	H	-0.111330	1.012737	0.378575
H126	H	0.388670	1.512737	0.878575
C127	C	-0.339288	0.828427	0.200870
C128	C	0.160712	1.328427	0.700870
H129	H	-0.377618	0.797456	0.240916
H130	H	0.122382	1.297456	0.740916
H131	H	-0.300579	0.794766	0.165453
H132	H	0.199421	1.294766	0.665453
H133	H	-0.379207	0.861112	0.165440
H134	H	0.120793	1.361112	0.665440
C135	C	-0.052271	1.060507	0.608654
C136	C	0.447729	1.560507	1.108654
H137	H	-0.018285	1.087976	0.648698
H138	H	0.481715	1.587976	1.148698
H139	H	-0.087136	1.097266	0.573221
H140	H	0.412864	1.597266	1.073221
H141	H	-0.008511	1.030918	0.573241
H142	H	0.491489	1.530918	1.073241
H143	H	-0.079259	1.038720	0.786374
H144	H	0.420741	1.538720	1.286374
C145	C	-0.307230	0.854419	0.608669
C146	C	0.192770	1.354419	1.108669
H147	H	-0.295253	0.864091	0.548085
H148	H	0.204747	1.364091	1.048085
H149	H	-0.372284	0.866791	0.623554
H150	H	0.127716	1.366791	1.123554
H151	H	-0.293677	0.800428	0.623554
H152	H	0.206323	1.300428	1.123554
C153	C	-0.369691	0.706157	0.000079
C154	C	0.130309	1.206157	0.500079
H155	H	-0.417439	0.667859	0.000090
H156	H	0.082561	1.167859	0.500090
H157	H	-0.373671	0.740344	-0.050230
H158	H	0.126329	1.240344	0.449770
H159	H	-0.379115	0.735937	0.050391
H160	H	0.120885	1.235937	0.550391
H161	H	-0.057956	0.185252	0.000127
H162	H	0.442044	0.685252	0.500127
C163	C	-0.352890	0.533241	0.000095
C164	C	0.147110	1.033241	0.500095
H165	H	-0.407693	0.567576	0.000081
H166	H	0.092307	1.067576	0.500081
H167	H	-0.356077	0.498778	0.050405
H168	H	0.143923	0.998778	0.550405
H169	H	-0.350621	0.503182	-0.050216
H170	H	0.149379	1.003182	0.449784
H171	H	-0.017022	0.558015	0.000115
H172	H	0.482978	1.058015	0.500115
C173	C	-0.049013	0.347351	0.000122
C174	C	0.450987	0.847351	0.500122
H175	H	0.005790	0.313014	0.000115
H176	H	0.505790	0.813014	0.500115
H177	H	-0.051275	0.377408	0.050428
H178	H	0.448725	0.877408	0.550428
H179	H	-0.045829	0.381816	-0.050193
H180	H	0.454171	0.881816	0.449807
