data_functionalizedCrystal
_audit_creation_method	'MofGen! by Chris Wilmer'
_symmetry_space_group_name_H-M	'P1'
_symmetry_Int_Tables_number	1
_symmetry_cell_setting	triclinic
loop_
_symmetry_equiv_pos_as_xyz
  x,y,z
_cell_length_a	17.699097
_cell_length_b	27.731996
_cell_length_c	16.776229
_cell_angle_alpha	89.987372
_cell_angle_beta	89.989262
_cell_angle_gamma	82.954908
loop_
_atom_site_label
_atom_site_type_symbol
_atom_site_fract_x
_atom_site_fract_y
_atom_site_fract_z
O1	O	1.003515	0.061159	-0.066365
O2	O	1.503515	0.561159	0.433635
O3	O	0.783066	0.069105	-0.066353
O4	O	1.283066	0.569105	0.433647
O5	O	0.900158	-0.005242	-0.066342
O6	O	1.400158	0.494758	0.433658
O7	O	0.886423	0.135506	-0.066376
O8	O	1.386423	0.635506	0.433624
O9	O	0.900142	-0.005246	0.066234
O10	O	1.400142	0.494754	0.566234
O11	O	0.783050	0.069101	0.066223
O12	O	1.283050	0.569101	0.566223
O13	O	1.003500	0.061154	0.066212
O14	O	1.503500	0.561154	0.566212
Zn15	Zn	0.893273	0.065127	0.087267
Zn16	Zn	1.393273	0.565127	0.587267
Zn17	Zn	0.893293	0.065133	-0.087408
Zn18	Zn	1.393293	0.565133	0.412592
O19	O	0.886408	0.135501	0.066201
O20	O	1.386408	0.635501	0.566201
C21	C	0.754864	0.068817	-0.000063
C22	C	1.254864	0.568817	0.499937
C23	C	0.670854	0.067960	-0.000058
C24	C	1.170854	0.567960	0.499942
C25	C	0.155192	0.062706	-0.072356
C26	C	0.655192	0.562706	0.427644
C27	C	0.234129	0.063509	-0.072353
C28	C	0.734129	0.563509	0.427647
C29	C	0.273583	0.063908	-0.000082
C30	C	0.773583	0.563908	0.499918
C31	C	0.234097	0.063500	0.072189
C32	C	0.734097	0.563500	0.572189
C33	C	0.155162	0.062694	0.072185
C34	C	0.655162	0.562694	0.572185
C35	C	0.552431	0.066749	0.072210
C36	C	1.052431	0.566749	0.572210
C37	C	0.631371	0.067557	0.072209
C38	C	1.131371	0.567557	0.572209
C39	C	0.631398	0.067564	-0.072328
C40	C	1.131398	0.567564	0.427672
C41	C	0.552463	0.066758	-0.072332
C42	C	1.052463	0.566758	0.427668
C43	C	0.512985	0.066347	-0.000061
C44	C	1.012985	0.566347	0.499939
C45	C	0.427393	0.065476	-0.000066
C46	C	0.927393	0.565476	0.499934
C47	C	0.359173	0.064783	-0.000076
C48	C	0.859173	0.564783	0.499924
C49	C	0.899868	-0.023252	-0.000051
C50	C	1.399868	0.476748	0.499949
C51	C	0.899018	-0.076912	-0.000043
C52	C	1.399018	0.423088	0.499957
C53	C	0.893680	-0.409645	-0.072349
C54	C	1.393680	0.090355	0.427651
C55	C	0.890453	-0.611315	-0.072363
C56	C	1.390453	-0.111315	0.427637
O57	O	0.890010	-0.637385	-0.133824
O58	O	1.390010	-0.137385	0.366176
N59	N	0.890044	-0.636536	-0.000096
N60	N	1.390044	-0.136536	0.499904
C61	C	0.890436	-0.611336	0.072179
C62	C	1.390436	-0.111336	0.572179
O63	O	0.890006	-0.637415	0.133646
O64	O	1.390006	-0.137415	0.633646
C65	C	0.893658	-0.409666	0.072192
C66	C	1.393658	0.090334	0.572192
C67	C	0.894075	-0.384449	-0.000079
C68	C	1.394075	0.115551	0.499921
C69	C	0.894096	-0.384427	-0.144615
C70	C	1.394096	0.115573	0.355385
C71	C	0.894907	-0.334013	-0.144611
C72	C	1.394907	0.165987	0.355389
C73	C	0.895301	-0.308817	-0.072341
C74	C	1.395301	0.191183	0.427659
C75	C	0.894885	-0.334035	-0.000075
C76	C	1.394885	0.165965	0.499925
C77	C	0.894045	-0.384467	0.144467
C78	C	1.394045	0.115533	0.644467
C79	C	0.894848	-0.334046	0.144464
C80	C	1.394848	0.165954	0.644464
C81	C	0.895265	-0.308828	0.072192
C82	C	1.395265	0.191172	0.572192
C83	C	0.896091	-0.258424	0.072199
C84	C	1.396091	0.241576	0.572199
N85	N	0.896500	-0.233203	-0.000068
N86	N	1.396500	0.266797	0.499932
C87	C	0.896105	-0.258399	-0.072338
C88	C	1.396105	0.241601	0.427662
C89	C	0.888746	-0.717215	0.072167
C90	C	1.388746	-0.217215	0.572167
C91	C	0.887942	-0.767633	0.072164
C92	C	1.387942	-0.267633	0.572164
C93	C	0.887957	-0.767608	-0.072378
C94	C	1.387957	-0.267608	0.427622
C95	C	0.888767	-0.717190	-0.072374
C96	C	1.388767	-0.217190	0.427626
C97	C	0.889155	-0.691994	-0.000100
C98	C	1.389155	-0.191994	0.499900
C99	C	0.897809	-0.152526	-0.072323
C100	C	1.397809	0.347474	0.427677
C101	C	0.898623	-0.102108	-0.072313
C102	C	1.398623	0.397892	0.427687
C103	C	0.898604	-0.102137	0.072229
C104	C	1.398604	0.397863	0.572229
C105	C	0.897794	-0.152551	0.072219
C106	C	1.397794	0.347449	0.572219
C107	C	0.897394	-0.177744	-0.000064
C108	C	1.397394	0.322256	0.499936
O109	O	0.896526	-0.232322	0.133628
O110	O	1.396526	0.267678	0.633628
O111	O	0.896519	-0.232310	-0.133796
O112	O	1.396519	0.267690	0.366204
C113	C	0.892869	-0.460059	-0.072353
C114	C	1.392869	0.039941	0.427647
C115	C	0.892453	-0.485277	-0.000088
C116	C	1.392453	0.014723	0.499912
C117	C	0.892848	-0.460081	0.072182
C118	C	1.392848	0.039919	0.572182
C119	C	0.891649	-0.535694	-0.000091
C120	C	1.391649	-0.035694	0.499909
C121	C	0.891254	-0.560890	-0.072361
C122	C	1.391254	-0.060890	0.427639
C123	C	0.891663	-0.535669	-0.144627
C124	C	1.391663	-0.035669	0.355373
C125	C	0.892474	-0.485255	-0.144623
C126	C	1.392474	0.014745	0.355377
C127	C	0.892439	-0.485302	0.144449
C128	C	1.392439	0.014698	0.644449
C129	C	0.891629	-0.535716	0.144439
C130	C	1.391629	-0.035716	0.644439
C131	C	0.891234	-0.560912	0.072169
C132	C	1.391234	-0.060912	0.572169
C133	C	1.031702	0.061442	-0.000080
C134	C	1.531702	0.561442	0.499920
C135	C	1.115711	0.062300	-0.000091
C136	C	1.615711	0.562300	0.499909
C137	C	0.886698	0.153512	-0.000092
C138	C	1.386698	0.653512	0.499908
C139	C	0.887547	0.207171	-0.000106
C140	C	1.387547	0.707171	0.499894
N141	N	0.893264	0.065122	0.206478
N142	N	1.393264	0.565122	0.706478
N143	N	0.893307	0.065133	-0.206620
N144	N	1.393307	0.565133	0.293380
C145	C	0.945128	0.032215	0.248200
C146	C	1.445128	0.532215	0.748200
C147	C	0.945132	0.032215	0.331652
C148	C	1.445132	0.532215	0.831652
C149	C	0.893276	0.065124	0.373381
C150	C	1.393276	0.565124	0.873381
C151	C	0.841406	0.098033	0.331653
C152	C	1.341406	0.598033	0.831653
C153	C	0.841399	0.098031	0.248202
C154	C	1.341399	0.598031	0.748202
C155	C	0.841434	0.098043	0.668200
C156	C	1.341434	0.598043	1.168200
C157	C	0.841446	0.098043	0.751657
C158	C	1.341446	0.598043	1.251657
C159	C	0.945167	0.032226	0.751650
C160	C	1.445167	0.532226	1.251650
C161	C	0.945160	0.032224	0.668199
C162	C	1.445160	0.532224	1.168199
C163	C	0.893288	0.065131	0.626479
C164	C	1.393288	0.565131	1.126479
C165	C	0.893283	0.065131	0.535991
C166	C	1.393283	0.565131	1.035991
C167	C	0.893284	0.065127	0.463868
C168	C	1.393284	0.565127	0.963868
H169	H	0.520299	0.066408	0.131057
H170	H	1.020299	0.566408	0.631057
Cl171	Cl	0.891108	-0.567412	0.235304
Cl172	Cl	1.391108	-0.067412	0.735304
H173	H	0.799165	0.124827	0.214233
H174	H	1.299165	0.624827	0.714233
H175	H	0.987401	0.005430	0.785628
H176	H	1.487401	0.505430	1.285628
Cl177	Cl	0.776228	0.139412	0.615757
Cl178	Cl	1.276228	0.639412	1.115757
Cl179	Cl	0.105600	0.062208	-0.163217
Cl180	Cl	0.605600	0.562208	0.336783
Cl181	Cl	0.681034	0.068076	-0.163185
Cl182	Cl	1.181034	0.568076	0.336815
H183	H	0.123017	0.062369	0.131031
H184	H	0.623017	0.562369	0.631031
Cl185	Cl	0.893601	-0.416093	-0.235481
Cl186	Cl	1.393601	0.083907	0.264519
Cl187	Cl	0.897284	-0.184255	0.163076
Cl188	Cl	1.397284	0.315745	0.663076
H189	H	0.799180	0.124827	0.365633
H190	H	1.299180	0.624827	0.865633
Cl191	Cl	0.283759	0.064017	-0.163206
Cl192	Cl	0.783759	0.564017	0.336794
Cl193	Cl	0.502868	0.066258	-0.163190
Cl194	Cl	1.002868	0.566258	0.336810
H195	H	0.895243	-0.313485	-0.203462
H196	H	1.395243	0.186515	0.296538
Cl197	Cl	0.889288	-0.685493	-0.163233
Cl198	Cl	1.389288	-0.185493	0.336767
H199	H	0.898964	-0.081578	-0.131168
H200	H	1.398964	0.418422	0.368832
H201	H	0.663492	0.067882	0.131064
H202	H	1.163492	0.567882	0.631064
H203	H	0.889066	-0.696706	0.131026
H204	H	1.389066	-0.196706	0.631026
H205	H	0.266227	0.063822	0.131033
H206	H	0.766227	0.563822	0.631033
H207	H	0.799216	0.124843	0.785631
H208	H	1.299216	0.624843	1.285631
H209	H	0.897480	-0.173032	-0.131183
H210	H	1.397480	0.326968	0.368817
H211	H	0.887637	-0.788131	-0.131223
H212	H	1.387637	-0.288131	0.368777
H213	H	0.887614	-0.788162	0.131015
H214	H	1.387614	-0.288162	0.631015
Cl215	Cl	0.893516	-0.416157	0.235329
Cl216	Cl	1.393516	0.083843	0.735329
Cl217	Cl	1.010355	-0.009148	0.615744
Cl218	Cl	1.510355	0.490852	1.115744
H219	H	0.895154	-0.313533	0.203320
H220	H	1.395154	0.186467	0.703320
H221	H	0.987359	0.005418	0.214230
H222	H	1.487359	0.505418	0.714230
H223	H	0.892813	-0.464727	-0.203474
H224	H	1.392813	0.035273	0.296526
Cl225	Cl	0.899100	-0.070452	0.163078
Cl226	Cl	1.399100	0.429548	0.663078
Cl227	Cl	0.891170	-0.567354	-0.235480
Cl228	Cl	1.391170	-0.067354	0.264520
H229	H	0.892761	-0.464792	0.203301
H230	H	1.392761	0.035208	0.703301
H231	H	0.987363	0.005419	0.365622
H232	H	1.487363	0.505419	0.865622
