data_functionalizedCrystal
_audit_creation_method	'MofGen! by Chris Wilmer'
_symmetry_space_group_name_H-M	'P1'
_symmetry_Int_Tables_number	1
_symmetry_cell_setting	triclinic
loop_
_symmetry_equiv_pos_as_xyz
  x,y,z
_cell_length_a	14.044220
_cell_length_b	14.044220
_cell_length_c	13.101039
_cell_angle_alpha	93.669626
_cell_angle_beta	93.659868
_cell_angle_gamma	86.811122
loop_
_atom_site_label
_atom_site_type_symbol
_atom_site_fract_x
_atom_site_fract_y
_atom_site_fract_z
O1	O	-1.281968	0.225349	-0.085100
O2	O	-1.031968	0.475349	0.164900
O3	O	-0.781968	0.725349	0.414900
O4	O	-0.531968	0.975349	0.664900
O5	O	-1.005298	0.217042	-0.085126
O6	O	-0.755298	0.467042	0.164874
O7	O	-0.505298	0.717042	0.414874
O8	O	-0.255298	0.967042	0.664874
O9	O	-1.139480	0.082860	-0.085109
O10	O	-0.889480	0.332860	0.164891
O11	O	-0.639480	0.582860	0.414891
O12	O	-0.389480	0.832860	0.664891
O13	O	-1.147786	0.359531	-0.085117
O14	O	-0.897786	0.609531	0.164883
O15	O	-0.647786	0.859531	0.414883
O16	O	-0.397786	1.109531	0.664883
O17	O	-1.129854	0.092504	0.085320
O18	O	-0.879854	0.342504	0.335320
O19	O	-0.629854	0.592504	0.585320
O20	O	-0.379854	0.842504	0.835320
O21	O	-0.995672	0.226686	0.085302
O22	O	-0.745672	0.476686	0.335302
O23	O	-0.495672	0.726686	0.585302
O24	O	-0.245672	0.976686	0.835302
O25	O	-1.272342	0.234994	0.085329
O26	O	-1.022342	0.484994	0.335329
O27	O	-0.772342	0.734994	0.585329
O28	O	-0.522342	0.984994	0.835329
Zn29	Zn	-1.132479	0.232371	0.112375
Zn30	Zn	-0.882479	0.482371	0.362375
Zn31	Zn	-0.632479	0.732371	0.612375
Zn32	Zn	-0.382479	0.982371	0.862375
Zn33	Zn	-1.145161	0.219664	-0.112172
Zn34	Zn	-0.895161	0.469664	0.137828
Zn35	Zn	-0.645161	0.719664	0.387828
Zn36	Zn	-0.395161	0.969664	0.637828
O37	O	-1.138160	0.369176	0.085311
O38	O	-0.888160	0.619176	0.335311
O39	O	-0.638160	0.869176	0.585311
O40	O	-0.388160	1.119176	0.835311
C41	C	-0.964863	0.218228	0.000085
C42	C	-0.714863	0.468228	0.250085
C43	C	-0.464863	0.718228	0.500085
C44	C	-0.214863	0.968228	0.750085
C45	C	-0.858721	0.207383	0.000075
C46	C	-0.608721	0.457383	0.250075
C47	C	-0.358721	0.707383	0.500075
C48	C	-0.108721	0.957383	0.750075
C49	C	-1.131031	0.052060	0.000104
C50	C	-0.881031	0.302060	0.250104
C51	C	-0.631031	0.552060	0.500104
C52	C	-0.381031	0.802060	0.750104
C53	C	-1.120187	-0.054083	0.000100
C54	C	-0.870187	0.195917	0.250100
C55	C	-0.620187	0.445917	0.500100
C56	C	-0.370187	0.695917	0.750100
C57	C	-1.312777	0.233807	0.000115
C58	C	-1.062777	0.483807	0.250115
C59	C	-0.812777	0.733807	0.500115
C60	C	-0.562777	0.983807	0.750115
C61	C	-1.418919	0.244652	0.000119
C62	C	-1.168919	0.494652	0.250119
C63	C	-0.918919	0.744652	0.500119
C64	C	-0.668919	0.994652	0.750119
C65	C	-1.146609	0.399975	0.000096
C66	C	-0.896609	0.649975	0.250096
C67	C	-0.646609	0.899975	0.500096
C68	C	-0.396609	1.149975	0.750096
C69	C	-1.157454	0.506117	0.000093
C70	C	-0.907454	0.756117	0.250093
C71	C	-0.657454	1.006117	0.500093
C72	C	-0.407454	1.256117	0.750093
C73	C	-0.664382	0.187558	0.000096
C74	C	-0.414382	0.437558	0.250096
C75	C	-0.164382	0.687558	0.500096
C76	C	0.085618	0.937558	0.750096
C77	C	-0.613252	0.264472	0.000098
C78	C	-0.363252	0.514472	0.250098
C79	C	-0.113252	0.764472	0.500098
C80	C	0.136748	1.014472	0.750098
C81	C	-0.505115	0.253442	0.000109
C82	C	-0.255115	0.503442	0.250109
C83	C	-0.005115	0.753442	0.500109
C84	C	0.244885	1.003442	0.750109
C85	C	-0.772529	0.198587	0.000084
C86	C	-0.522529	0.448587	0.250084
C87	C	-0.272529	0.698587	0.500084
C88	C	-0.022529	0.948587	0.750084
N89	N	-1.123830	0.241044	0.265622
N90	N	-0.873830	0.491044	0.515622
N91	N	-0.623830	0.741044	0.765622
N92	N	-0.373830	0.991044	1.015622
C93	C	-1.177279	0.700456	0.000100
C94	C	-0.927279	0.950456	0.250100
C95	C	-0.677279	1.200456	0.500100
C96	C	-0.427279	1.450456	0.750100
C97	C	-1.100365	0.751585	0.000094
C98	C	-0.850365	1.001585	0.250094
C99	C	-0.600365	1.251585	0.500094
C100	C	-0.350365	1.501585	0.750094
C101	C	-1.111397	0.859721	0.000097
C102	C	-0.861397	1.109721	0.250097
C103	C	-0.611397	1.359721	0.500097
C104	C	-0.361397	1.609721	0.750097
C105	C	-1.166249	0.592309	0.000096
C106	C	-0.916249	0.842309	0.250096
C107	C	-0.666249	1.092309	0.500096
C108	C	-0.416249	1.342309	0.750096
N109	N	-1.153817	0.210984	-0.265420
N110	N	-0.903817	0.460984	-0.015420
N111	N	-0.653817	0.710984	0.234580
N112	N	-0.403817	0.960984	0.484580
C113	C	-1.112064	0.252852	0.474663
C114	C	-0.862064	0.502852	0.724663
C115	C	-0.612064	0.752852	0.974663
C116	C	-0.362064	1.002852	1.224663
C117	C	-1.165580	0.199179	0.525546
C118	C	-0.915580	0.449179	0.775546
C119	C	-0.665580	0.699179	1.025546
C120	C	-0.415580	0.949179	1.275546
C121	C	-1.159033	0.205749	0.641863
C122	C	-0.909033	0.455749	0.891863
C123	C	-0.659033	0.705749	1.141863
C124	C	-0.409033	0.955749	1.391863
C125	C	-1.118610	0.246283	0.358335
C126	C	-0.868610	0.496283	0.608335
C127	C	-0.618610	0.746283	0.858335
C128	C	-0.368610	0.996283	1.108335
H129	H	-0.650692	0.338606	0.000091
H130	H	-0.400692	0.588606	0.250091
H131	H	-0.150692	0.838606	0.500091
H132	H	0.099308	1.088606	0.750091
C133	C	-1.043510	0.321569	0.533815
C134	C	-0.793510	0.571569	0.783815
C135	C	-0.543510	0.821569	1.033815
C136	C	-0.293510	1.071569	1.283815
H137	H	-1.010780	0.354373	0.486596
H138	H	-0.760780	0.604373	0.736596
H139	H	-0.510780	0.854373	0.986596
H140	H	-0.260780	1.104373	1.236596
H141	H	-1.078944	0.366504	0.575682
H142	H	-0.828944	0.616504	0.825682
H143	H	-0.578944	0.866504	1.075682
H144	H	-0.328944	1.116504	1.325682
H145	H	-0.998492	0.286209	0.575656
H146	H	-0.748492	0.536209	0.825656
H147	H	-0.498492	0.786209	1.075656
H148	H	-0.248492	1.036209	1.325656
C149	C	-0.613812	0.087417	0.000092
C150	C	-0.363812	0.337417	0.250092
C151	C	-0.113812	0.587417	0.500092
C152	C	0.136188	0.837417	0.750092
H153	H	-0.546714	0.093047	0.000088
H154	H	-0.296714	0.343047	0.250088
H155	H	-0.046714	0.593047	0.500088
H156	H	0.203286	0.843047	0.750088
H157	H	-0.628404	0.057067	0.059518
H158	H	-0.378404	0.307067	0.309518
H159	H	-0.128404	0.557067	0.559518
H160	H	0.121596	0.807067	0.809518
H161	H	-0.635103	0.050359	-0.059353
H162	H	-0.385103	0.300359	0.190647
H163	H	-0.135103	0.550359	0.440647
H164	H	0.114897	0.800359	0.690647
C165	C	-1.234148	0.130470	0.466389
C166	C	-0.984148	0.380470	0.716389
C167	C	-0.734148	0.630470	0.966389
C168	C	-0.484148	0.880470	1.216389
H169	H	-1.229629	0.135028	0.394838
H170	H	-0.979629	0.385028	0.644838
H171	H	-0.729629	0.635028	0.894838
H172	H	-0.479629	0.885028	1.144838
H173	H	-1.217349	0.066854	0.483895
H174	H	-0.967349	0.316854	0.733895
H175	H	-0.717349	0.566854	0.983895
H176	H	-0.467349	0.816854	1.233895
H177	H	-1.297785	0.147165	0.483925
H178	H	-1.047785	0.397165	0.733925
H179	H	-0.797785	0.647165	0.983925
H180	H	-0.547785	0.897165	1.233925
C181	C	-1.000215	0.701019	0.000092
C182	C	-0.750215	0.951019	0.250092
C183	C	-0.500215	1.201019	0.500092
C184	C	-0.250215	1.451019	0.750092
H185	H	-0.953408	0.747321	0.000084
H186	H	-0.703408	0.997321	0.250084
H187	H	-0.453408	1.247321	0.500084
H188	H	-0.203408	1.497321	0.750084
H189	H	-0.989373	0.665634	0.059523
H190	H	-0.739373	0.915634	0.309523
H191	H	-0.489373	1.165634	0.559523
H192	H	-0.239373	1.415634	0.809523
H193	H	-0.996077	0.658913	-0.059349
H194	H	-0.746077	0.908913	0.190651
H195	H	-0.496077	1.158913	0.440651
H196	H	-0.246077	1.408913	0.690651
C197	C	-1.277419	0.751027	0.000124
C198	C	-1.027419	1.001027	0.250124
C199	C	-0.777419	1.251027	0.500124
C200	C	-0.527419	1.501027	0.750124
H201	H	-1.271788	0.818127	0.000135
H202	H	-1.021788	1.068127	0.250135
H203	H	-0.771788	1.318127	0.500135
H204	H	-0.521788	1.568127	0.750135
H205	H	-1.314489	0.729729	-0.059300
H206	H	-1.064489	0.979729	0.190700
H207	H	-0.814489	1.229729	0.440700
H208	H	-0.564489	1.479729	0.690700
H209	H	-1.307754	0.736445	0.059572
H210	H	-1.057754	0.986445	0.309572
H211	H	-0.807754	1.236445	0.559572
H212	H	-0.557754	1.486445	0.809572
