data_functionalizedCrystal
_audit_creation_method	'MofGen! by Chris Wilmer'
_symmetry_space_group_name_H-M	'P1'
_symmetry_Int_Tables_number	1
_symmetry_cell_setting	triclinic
loop_
_symmetry_equiv_pos_as_xyz
  x,y,z
_cell_length_a	29.839131
_cell_length_b	29.839135
_cell_length_c	11.169409
_cell_angle_alpha	90.027409
_cell_angle_beta	89.959939
_cell_angle_gamma	89.956753
loop_
_atom_site_label
_atom_site_type_symbol
_atom_site_fract_x
_atom_site_fract_y
_atom_site_fract_z
Zn1	Zn	-0.178795	-0.686771	-0.678697
Zn2	Zn	-0.253937	-0.686688	-0.477987
Zn3	Zn	-0.178824	-0.611639	-0.478007
Zn4	Zn	-0.253901	-0.611602	-0.678607
O5	O	-0.216364	-0.649175	-0.578325
O6	O	-0.188766	-0.749627	-0.652101
O7	O	-0.243999	-0.676713	-0.310039
O8	O	-0.115953	-0.621656	-0.504675
O9	O	-0.243972	-0.749566	-0.504640
O10	O	-0.115932	-0.676855	-0.652121
O11	O	-0.188814	-0.621575	-0.310055
O12	O	-0.188780	-0.548767	-0.504589
O13	O	-0.243912	-0.621593	-0.846569
O14	O	-0.243939	-0.548740	-0.651969
O15	O	-0.188732	-0.676819	-0.846635
O16	O	-0.316799	-0.676678	-0.504553
O17	O	-0.316773	-0.621512	-0.651949
C18	C	-0.216359	-0.532453	-0.578272
C19	C	-0.216368	-0.482518	-0.578278
C20	C	-0.187656	-0.172904	-0.655215
C21	C	-0.187657	0.014770	-0.655247
O22	O	-0.163238	0.039010	-0.720607
N23	N	-0.216356	0.038267	-0.578360
C24	C	-0.245055	0.014843	-0.501455
O25	O	-0.269463	0.039136	-0.436050
C26	C	-0.245052	-0.172829	-0.501418
C27	C	-0.216354	-0.196324	-0.578318
C28	C	-0.158960	-0.196399	-0.732108
C29	C	-0.158962	-0.243314	-0.732104
C30	C	-0.187660	-0.266734	-0.655207
C31	C	-0.216356	-0.243239	-0.578314
C32	C	-0.273749	-0.196252	-0.424507
C33	C	-0.273744	-0.243173	-0.424503
C34	C	-0.245046	-0.266668	-0.501403
C35	C	-0.245056	-0.313575	-0.501413
N36	N	-0.216356	-0.337073	-0.578299
C37	C	-0.187658	-0.313652	-0.655196
C38	C	-0.245056	0.113374	-0.501481
C39	C	-0.245057	0.160292	-0.501492
C40	C	-0.187658	0.160215	-0.655282
C41	C	-0.187659	0.113296	-0.655277
C42	C	-0.216356	0.089876	-0.578368
C43	C	-0.187665	-0.412178	-0.655182
C44	C	-0.187670	-0.459098	-0.655175
C45	C	-0.245068	-0.459017	-0.501380
C46	C	-0.245064	-0.412101	-0.501392
C47	C	-0.216359	-0.388683	-0.578297
O48	O	-0.269458	-0.337844	-0.436077
O49	O	-0.163248	-0.337953	-0.720572
C50	C	-0.187654	-0.125988	-0.655219
C51	C	-0.216350	-0.102493	-0.578326
C52	C	-0.245048	-0.125913	-0.501429
C53	C	-0.216352	-0.055575	-0.578337
C54	C	-0.187654	-0.032155	-0.655234
C55	C	-0.158955	-0.055652	-0.732120
C56	C	-0.158957	-0.102568	-0.732116
C57	C	-0.273748	-0.102416	-0.424543
C58	C	-0.273744	-0.055500	-0.424554
C59	C	-0.245046	-0.032080	-0.501451
C60	C	-0.333087	-0.649094	-0.578265
C61	C	-0.383021	-0.649100	-0.578280
C62	C	-0.692665	-0.677952	-0.501688
C63	C	-0.880339	-0.678008	-0.501735
O64	O	-0.904604	-0.702474	-0.436568
N65	N	-0.903806	-0.649268	-0.578415
C66	C	-0.880353	-0.620515	-0.655095
O67	O	-0.904620	-0.596075	-0.720326
C68	C	-0.692681	-0.620462	-0.655054
C69	C	-0.669215	-0.649200	-0.578359
C70	C	-0.669200	-0.706688	-0.425001
C71	C	-0.622285	-0.706672	-0.424986
C72	C	-0.598835	-0.677920	-0.501657
C73	C	-0.622300	-0.649184	-0.578344
C74	C	-0.669228	-0.591712	-0.731739
C75	C	-0.622307	-0.591702	-0.731724
C76	C	-0.598842	-0.620440	-0.655030
C77	C	-0.551935	-0.620417	-0.655000
N78	N	-0.528467	-0.649156	-0.578319
C79	C	-0.551917	-0.677908	-0.501648
C80	C	-0.978884	-0.620544	-0.655110
C81	C	-1.025801	-0.620557	-0.655119
C82	C	-1.025784	-0.678050	-0.501760
C83	C	-0.978865	-0.678035	-0.501745
C84	C	-0.955416	-0.649284	-0.578429
C85	C	-0.453391	-0.677872	-0.501620
C86	C	-0.406471	-0.677852	-0.501608
C87	C	-0.406493	-0.620361	-0.654971
C88	C	-0.453409	-0.620379	-0.654980
C89	C	-0.476856	-0.649138	-0.578300
O90	O	-0.527640	-0.595967	-0.720142
O91	O	-0.527642	-0.702351	-0.436445
C92	C	-0.739581	-0.677968	-0.501704
C93	C	-0.763046	-0.649232	-0.578390
C94	C	-0.739596	-0.620480	-0.655062
C95	C	-0.809964	-0.649245	-0.578400
C96	C	-0.833414	-0.677996	-0.501728
C97	C	-0.809946	-0.706736	-0.425048
C98	C	-0.763031	-0.706720	-0.425032
C99	C	-0.763064	-0.591741	-0.731742
C100	C	-0.809980	-0.591759	-0.731751
C101	C	-0.833430	-0.620511	-0.655079
C102	C	-0.099186	-0.649269	-0.578411
C103	C	-0.049251	-0.649309	-0.578447
C104	C	-0.216315	-0.649211	-0.891367
C105	C	-0.216293	-0.649226	-1.024767
C106	C	-0.216366	0.233647	-0.578375
C107	C	-0.216359	0.183712	-0.578389
C108	C	-0.216381	-0.649165	-0.266500
C109	C	-0.216276	-0.649237	-0.133100
H110	H	-0.135592	-0.262440	-0.794722
C111	C	-0.305319	-0.128175	-0.339956
C112	C	-0.340615	-0.160410	-0.391789
C113	C	-0.372191	-0.186167	-0.307203
C114	C	-0.368471	-0.179689	-0.170784
C115	C	-0.333175	-0.147453	-0.118944
C116	C	-0.301599	-0.121696	-0.203530
H117	H	-0.343369	-0.165206	-0.492781
H118	H	-0.398320	-0.210030	-0.345579
H119	H	-0.391846	-0.198756	-0.108168
H120	H	-0.330420	-0.142657	-0.017952
H121	H	-0.275470	-0.097832	-0.165154
C122	C	-0.953092	-0.588913	-0.739459
C123	C	-0.920791	-0.608347	-0.833743
C124	C	-0.895001	-0.576714	-0.918088
C125	C	-0.901512	-0.525647	-0.908148
C126	C	-0.933814	-0.506210	-0.813860
C127	C	-0.959604	-0.537843	-0.729516
H128	H	-0.915971	-0.646152	-0.841105
H129	H	-0.871089	-0.591103	-0.987886
H130	H	-0.882421	-0.502230	-0.970585
H131	H	-0.938635	-0.468405	-0.806499
H132	H	-0.983516	-0.523454	-0.659718
H133	H	-0.688326	-0.568308	-0.794186
H134	H	-0.603217	-0.568290	-0.794173
C135	C	-0.737275	-0.560110	-0.816086
C136	C	-0.743791	-0.509044	-0.806151
C137	C	-0.718004	-0.477409	-0.890497
C138	C	-0.685702	-0.496840	-0.984780
C139	C	-0.679184	-0.547909	-0.994720
C140	C	-0.704971	-0.579544	-0.910373
H141	H	-0.767704	-0.494657	-0.736353
H142	H	-0.722829	-0.439604	-0.883139
H143	H	-0.666613	-0.473422	-1.047218
H144	H	-0.655271	-0.562296	-1.064517
H145	H	-0.700146	-0.617349	-0.917732
C146	C	-0.276635	-0.386255	-0.416809
C147	C	-0.311927	-0.353981	-0.468635
C148	C	-0.343496	-0.328140	-0.384042
C149	C	-0.339772	-0.334573	-0.247623
C150	C	-0.304478	-0.366848	-0.195791
C151	C	-0.272909	-0.392690	-0.280384
H152	H	-0.314685	-0.349217	-0.569626
H153	H	-0.369623	-0.304247	-0.422412
H154	H	-0.363141	-0.315443	-0.185002
H155	H	-0.301720	-0.371612	-0.094799
H156	H	-0.246782	-0.416582	-0.242013
C157	C	-0.380694	-0.588734	-0.739308
C158	C	-0.387098	-0.592379	-0.875758
C159	C	-0.361298	-0.560754	-0.960102
C160	C	-0.329094	-0.525485	-0.907996
C161	C	-0.322688	-0.521839	-0.771540
C162	C	-0.348488	-0.553464	-0.687196
H163	H	-0.410938	-0.618488	-0.914336
H164	H	-0.366039	-0.563453	-1.061117
H165	H	-0.309995	-0.502074	-0.970433
H166	H	-0.298848	-0.495729	-0.732961
H167	H	-0.343747	-0.550765	-0.586181
H168	H	-0.297117	-0.036375	-0.361935
C169	C	-0.479226	-0.588766	-0.739333
C170	C	-0.472838	-0.537694	-0.729409
C171	C	-0.498652	-0.506085	-0.813773
C172	C	-0.530854	-0.525548	-0.908061
C173	C	-0.537243	-0.576624	-0.917990
C174	C	-0.511429	-0.608233	-0.833626
H175	H	-0.448998	-0.523283	-0.659607
H176	H	-0.493922	-0.468275	-0.806422
H177	H	-0.549963	-0.502149	-0.970513
H178	H	-0.561082	-0.591034	-0.987792
H179	H	-0.516159	-0.646042	-0.840977
H180	H	-0.164300	-0.478225	-0.717800
H181	H	-0.268431	0.179417	-0.438885
H182	H	-0.743929	-0.730121	-0.362581
H183	H	-0.387367	-0.701254	-0.439151
C184	C	-0.276633	-0.484785	-0.416794
C185	C	-0.276629	-0.536393	-0.416792
C186	C	-0.308192	-0.562162	-0.332199
C187	C	-0.339760	-0.536324	-0.247608
C188	C	-0.339766	-0.484713	-0.247607
C189	C	-0.308203	-0.458944	-0.332201
H190	H	-0.253259	-0.555522	-0.479414
H191	H	-0.308188	-0.600368	-0.332200
H192	H	-0.363126	-0.555400	-0.184987
H193	H	-0.363136	-0.465583	-0.184985
H194	H	-0.308207	-0.420738	-0.332200
H195	H	-0.268426	0.094310	-0.438849
C196	C	-1.051584	-0.709680	-0.417425
C197	C	-1.103192	-0.709692	-0.417451
C198	C	-1.128995	-0.741323	-0.333129
C199	C	-1.103190	-0.772942	-0.248781
C200	C	-1.051579	-0.772930	-0.248751
C201	C	-1.025776	-0.741300	-0.333073
H202	H	-1.122297	-0.686285	-0.479894
H203	H	-1.167201	-0.741331	-0.333152
H204	H	-1.122291	-0.796357	-0.186361
H205	H	-1.032474	-0.796337	-0.186309
H206	H	-0.987571	-0.741291	-0.333051
H207	H	-0.829048	-0.730145	-0.362616
H208	H	-1.044903	-0.597151	-0.717560
C209	C	-0.156087	0.185981	-0.739867
C210	C	-0.159803	0.179511	-0.876289
C211	C	-0.128232	0.205279	-0.960862
C212	C	-0.092944	0.237518	-0.909013
C213	C	-0.089226	0.243991	-0.772584
C214	C	-0.120798	0.218222	-0.688011
H215	H	-0.185927	0.155644	-0.914677
H216	H	-0.130984	0.200488	-1.061856
H217	H	-0.069572	0.256594	-0.971619
H218	H	-0.063103	0.267857	-0.734196
H219	H	-0.118046	0.223014	-0.587017
H220	H	-0.164289	-0.393117	-0.717802
H221	H	-0.135588	-0.177335	-0.794727
H222	H	-0.164290	0.094169	-0.717893
H223	H	-0.297117	-0.177130	-0.361885
H224	H	-0.829081	-0.568353	-0.794203
C225	C	-0.127385	-0.128407	-0.816704
C226	C	-0.131108	-0.121973	-0.953122
C227	C	-0.099534	-0.147809	-1.037714
C228	C	-0.064237	-0.180078	-0.985887
C229	C	-0.060513	-0.186513	-0.849461
C230	C	-0.092087	-0.160678	-0.764869
H231	H	-0.157238	-0.098084	-0.991494
H232	H	-0.102291	-0.143045	-1.138705
H233	H	-0.040864	-0.199203	-1.048506
H234	H	-0.034383	-0.210402	-0.811089
H235	H	-0.089330	-0.165442	-0.663878
H236	H	-0.472477	-0.701291	-0.439183
H237	H	-0.297113	-0.262238	-0.361870
H238	H	-0.135589	-0.036575	-0.794736
H239	H	-0.959762	-0.701436	-0.439295
H240	H	-0.603182	-0.730074	-0.362538
H241	H	-0.688288	-0.730104	-0.362566
