data_functionalizedCrystal
_audit_creation_method	'MofGen! by Chris Wilmer'
_symmetry_space_group_name_H-M	'P1'
_symmetry_Int_Tables_number	1
_symmetry_cell_setting	triclinic
loop_
_symmetry_equiv_pos_as_xyz
  x,y,z
_cell_length_a	8.497374
_cell_length_b	12.759401
_cell_length_c	12.759399
_cell_angle_alpha	89.983359
_cell_angle_beta	89.991562
_cell_angle_gamma	90.001753
loop_
_atom_site_label
_atom_site_type_symbol
_atom_site_fract_x
_atom_site_fract_y
_atom_site_fract_z
Zn1	Zn	0.891958	1.606064	0.418406
Zn2	Zn	0.628160	1.606013	0.594052
Zn3	Zn	0.628185	1.430422	0.418393
Zn4	Zn	0.891892	1.430354	0.594048
O5	O	0.760048	1.518213	0.506225
O6	O	0.856982	1.753079	0.441713
O7	O	0.407401	1.582728	0.570747
O8	O	0.663213	1.453771	0.271373
O9	O	0.663171	1.753041	0.570760
O10	O	0.857005	1.582815	0.271383
O11	O	0.407419	1.453722	0.441691
O12	O	0.663149	1.283392	0.441686
O13	O	1.112663	1.453655	0.570752
O14	O	0.856893	1.283342	0.570739
O15	O	1.112711	1.582749	0.441709
O16	O	0.663107	1.582661	0.741073
O17	O	0.856869	1.453605	0.741069
C18	C	0.760017	1.245246	0.506212
C19	C	0.760041	1.128469	0.506232
C20	C	0.860765	1.073609	0.573532
C21	C	0.860796	0.963885	0.573536
C22	C	0.659366	0.963891	0.438937
C23	C	0.659344	1.073613	0.438928
C24	C	0.760013	1.518149	0.779192
C25	C	0.760050	1.518217	0.895969
C26	C	1.171529	1.518205	0.506226
C27	C	1.350173	1.518208	0.506237
C28	C	0.760081	1.792246	0.506238
C29	C	0.760095	1.909023	0.506244
C30	C	0.760119	1.518307	0.232191
C31	C	0.760149	1.518346	0.115415
C32	C	0.659273	1.585494	0.950797
C33	C	0.659326	1.585561	1.060521
C34	C	0.860938	1.451067	1.060578
C35	C	0.860891	1.451006	0.950856
H36	H	0.942818	0.919222	0.628337
H37	H	0.942964	1.396221	0.906212
H38	H	0.577380	0.919214	0.384142
H39	H	0.943037	1.396344	1.105281
O40	O	0.561507	1.651084	1.113634
C41	C	0.596181	1.755743	1.086692
H42	H	0.656828	1.757790	1.007017
H43	H	0.677348	1.791140	1.148387
C44	C	0.368003	1.816973	1.179408
C45	C	0.442479	1.819487	1.081546
H46	H	0.273195	1.856295	1.176238
H47	H	0.344645	1.746462	1.197563
H48	H	0.435658	1.846468	1.230810
H49	H	0.374832	1.789980	1.030148
H50	H	0.465823	1.889994	1.063382
O51	O	0.561548	1.650838	0.897364
C52	C	0.651427	1.718627	0.833832
H53	H	0.770924	1.681495	0.817388
H54	H	0.668885	1.796498	0.876048
C55	C	0.417836	1.783250	0.749815
C56	C	0.564599	1.737640	0.729611
H57	H	0.364275	1.794983	0.685529
H58	H	0.357281	1.737583	0.792620
H59	H	0.432405	1.848137	0.784998
H60	H	0.550027	1.672748	0.694441
H61	H	0.625150	1.783297	0.686797
O62	O	0.958816	1.126850	0.638788
C63	C	1.116109	1.100039	0.616007
H64	H	1.124292	1.069896	0.532086
H65	H	1.157213	1.036341	0.672381
C66	C	1.211296	1.234538	0.731409
C67	C	1.221349	1.197524	0.628332
H68	H	1.276216	1.294669	0.739016
H69	H	1.105325	1.252599	0.746760
H70	H	1.245547	1.181447	0.778376
H71	H	1.187079	1.250609	0.581368
H72	H	1.327317	1.179474	0.612973
O73	O	0.561344	1.126749	0.373516
C74	C	0.472489	1.054807	0.314102
H75	H	0.466922	0.976582	0.357133
H76	H	0.530473	1.043161	0.234372
C77	C	0.311461	1.193698	0.245926
C78	C	0.304612	1.097623	0.298781
H79	H	0.207908	1.220110	0.236470
H80	H	0.371327	1.242168	0.285951
H81	H	0.359787	1.183980	0.179490
H82	H	0.256304	1.107344	0.365220
H83	H	0.244733	1.049155	0.258767
