data_functionalizedCrystal
_audit_creation_method	'MofGen! by Chris Wilmer'
_symmetry_space_group_name_H-M	'P1'
_symmetry_Int_Tables_number	1
_symmetry_cell_setting	triclinic
loop_
_symmetry_equiv_pos_as_xyz
  x,y,z
_cell_length_a	16.109318
_cell_length_b	16.109301
_cell_length_c	17.766277
_cell_angle_alpha	89.992214
_cell_angle_beta	89.994221
_cell_angle_gamma	83.465022
loop_
_atom_site_label
_atom_site_type_symbol
_atom_site_fract_x
_atom_site_fract_y
_atom_site_fract_z
O1	O	1.103129	0.106937	-0.062534
O2	O	0.861069	0.120221	-0.062550
O3	O	0.988748	-0.007451	-0.062534
O4	O	0.975449	0.234610	-0.062550
O5	O	0.988726	-0.007458	0.062655
O6	O	0.861046	0.120215	0.062639
O7	O	1.103106	0.106931	0.062655
Cu8	Cu	0.982074	0.113572	0.074077
Cu9	Cu	0.982101	0.113580	-0.073972
O10	O	0.975427	0.234603	0.062639
C11	C	0.830083	0.119677	0.000043
C12	C	0.737788	0.118057	0.000037
C13	C	0.438727	0.112825	-0.068190
C14	C	0.525448	0.114343	-0.068194
C15	C	0.525442	0.114324	0.068293
C16	C	0.438723	0.112801	0.068297
C17	C	0.395367	0.112056	0.000054
C18	C	0.568807	0.115096	0.000045
C19	C	0.662835	0.116742	0.000040
C20	C	0.301334	0.110409	0.000058
C21	C	0.988198	-0.038430	0.000061
C22	C	0.986583	-0.130725	0.000062
C23	C	1.058590	-0.352993	0.000055
C24	C	1.057066	-0.439713	0.000048
C25	C	0.905579	-0.419848	0.000042
C26	C	0.907104	-0.333130	0.000042
C27	C	0.983612	-0.299704	0.000053
C28	C	0.980563	-0.473144	0.000046
C29	C	0.978910	-0.567170	0.000039
C30	C	0.985265	-0.205672	0.000058
C31	C	1.134092	0.107474	0.000061
C32	C	1.226387	0.109095	0.000061
C33	C	0.975976	0.265581	0.000042
C34	C	0.977592	0.357877	0.000036
N35	N	0.982061	0.113566	0.178208
N36	N	0.982120	0.113579	-0.178103
C37	C	1.038616	0.057060	0.217602
C38	C	1.038621	0.057057	0.296404
C39	C	0.982079	0.113573	0.335808
C40	C	0.925514	0.170083	0.296405
C41	C	0.925505	0.170079	0.217605
C42	C	0.971165	0.189294	0.460641
C43	C	0.971180	0.189299	0.539440
C44	C	0.982101	0.113583	0.578855
C45	C	0.993026	0.037859	0.539461
C46	C	0.993017	0.037856	0.460661
C47	C	0.982082	0.113582	0.421254
C48	C	1.038664	0.057068	0.703695
C49	C	1.038663	0.057063	0.782498
C50	C	0.925560	0.170097	0.782498
C51	C	0.925557	0.170094	0.703696
C52	C	0.982114	0.113581	0.664299
H53	H	1.118121	-0.483098	0.000048
H54	H	1.001919	-0.023796	0.571551
H55	H	0.560753	0.114932	0.123855
H56	H	0.403429	0.112217	-0.123758
O57	O	0.870598	0.224883	0.820848
C58	C	0.819314	0.180337	0.866429
H59	H	0.852448	0.115291	0.878240
H60	H	0.757871	0.174663	0.836070
C61	C	0.760837	0.307099	0.926771
C62	C	0.801536	0.227211	0.941282
H63	H	0.749867	0.336014	0.972942
H64	H	0.795385	0.337111	0.896060
H65	H	0.709639	0.302359	0.901469
H66	H	0.852737	0.231952	0.966574
H67	H	0.766996	0.197201	0.971999
H68	H	0.879450	0.216094	0.185529
H69	H	1.084715	0.011045	0.814573
O70	O	0.567699	0.115060	-0.134418
C71	C	0.653535	0.116584	-0.119793
H72	H	0.668827	0.090474	-0.061146
H73	H	0.669406	0.183676	-0.123026
C74	C	0.686418	0.094955	-0.250702
C75	C	0.705202	0.062880	-0.178674
H76	H	0.718290	0.061831	-0.287024
H77	H	0.628589	0.093931	-0.260556
H78	H	0.699644	0.150864	-0.253385
H79	H	0.691966	0.006975	-0.175988
H80	H	0.763031	0.063892	-0.168820
H81	H	1.084666	0.011042	0.185527
O82	O	1.093638	0.002129	0.334565
C83	C	1.143533	-0.047770	0.282895
H84	H	1.144462	-0.013685	0.226717
H85	H	1.116557	-0.109543	0.274528
C86	C	1.232084	-0.106736	0.382640
C87	C	1.233229	-0.064870	0.313643
H88	H	1.287412	-0.117288	0.401608
H89	H	1.198467	-0.073121	0.417452
H90	H	1.209600	-0.158209	0.375659
H91	H	1.255703	-0.013394	0.320628
H92	H	1.266853	-0.098477	0.278833
H93	H	0.843288	-0.447074	0.000035
O94	O	1.093625	0.002088	0.665536
C95	C	1.143553	-0.047781	0.717208
H96	H	1.109473	-0.048732	0.773385
H97	H	1.205304	-0.020763	0.725576
C98	C	1.202571	-0.136298	0.617466
C99	C	1.160710	-0.137472	0.686461
H100	H	1.213158	-0.191623	0.598499
H101	H	1.168936	-0.102699	0.582652
H102	H	1.254026	-0.113779	0.624448
H103	H	1.109252	-0.159980	0.679476
H104	H	1.194336	-0.171077	0.721273
O105	O	0.870594	0.225072	0.665541
C106	C	0.820674	0.274941	0.717215
H107	H	0.854763	0.275895	0.773381
H108	H	0.758925	0.247922	0.725611
C109	C	0.761637	0.363453	0.617465
C110	C	0.803510	0.364631	0.686447
H111	H	0.751046	0.418777	0.598486
H112	H	0.795267	0.329854	0.582651
H113	H	0.710184	0.340934	0.624471
H114	H	0.854966	0.387140	0.679439
H115	H	0.769888	0.398236	0.721260
H116	H	0.846043	-0.289740	0.000039
O117	O	0.870508	0.225013	0.334562
C118	C	0.820600	0.274902	0.282890
H119	H	0.819668	0.240811	0.226724
H120	H	0.847569	0.336678	0.274493
C121	C	0.732059	0.333871	0.382642
C122	C	0.730908	0.291997	0.313660
H123	H	0.676733	0.344420	0.401623
H124	H	0.765684	0.300263	0.417456
H125	H	0.754536	0.385346	0.375636
H126	H	0.708440	0.240519	0.320669
H127	H	0.697277	0.325598	0.278848
H128	H	0.403419	0.112173	0.123872
O129	O	1.132979	-0.320661	0.000022
C130	C	1.198829	-0.386295	0.000038
H131	H	1.175537	-0.445195	-0.023661
H132	H	1.221953	-0.398580	0.060097
C133	C	1.299596	-0.289487	-0.019951
C134	C	1.270989	-0.361828	-0.049065
H135	H	1.344110	-0.274394	-0.050237
H136	H	1.255232	-0.245267	-0.019959
H137	H	1.318860	-0.299734	0.030097
H138	H	1.251717	-0.351577	-0.099109
H139	H	1.315352	-0.406046	-0.049066
O140	O	1.003594	-0.035772	0.422511
C141	C	1.013259	-0.102604	0.474188
H142	H	0.984033	-0.081213	0.530365
H143	H	1.082591	-0.123849	0.482556
C144	C	1.005535	-0.202078	0.374455
C145	C	0.969632	-0.175807	0.443449
H146	H	0.978628	-0.247235	0.355493
H147	H	0.999027	-0.157052	0.339637
H148	H	1.063310	-0.219776	0.381437
H149	H	0.911861	-0.158100	0.436465
H150	H	0.976130	-0.220832	0.478265
H151	H	0.962290	0.250957	0.571508
H152	H	0.962257	0.250955	0.428556
