data_functionalizedCrystal
_audit_creation_method	'MofGen! by Chris Wilmer'
_symmetry_space_group_name_H-M	'P1'
_symmetry_Int_Tables_number	1
_symmetry_cell_setting	triclinic
loop_
_symmetry_equiv_pos_as_xyz
  x,y,z
_cell_length_a	13.897449
_cell_length_b	12.594516
_cell_length_c	13.897441
_cell_angle_alpha	90.028053
_cell_angle_beta	90.023394
_cell_angle_gamma	90.012642
loop_
_atom_site_label
_atom_site_type_symbol
_atom_site_fract_x
_atom_site_fract_y
_atom_site_fract_z
Zn1	Zn	1.474742	-0.423685	0.545467
Zn2	Zn	1.808075	-0.090351	0.878800
Zn3	Zn	2.141409	0.242982	1.212133
Zn4	Zn	1.474653	-0.601695	0.384175
Zn5	Zn	1.807986	-0.268362	0.717509
Zn6	Zn	2.141319	0.064971	1.050842
Zn7	Zn	1.313431	-0.423734	0.384178
Zn8	Zn	1.646764	-0.090401	0.717511
Zn9	Zn	1.980098	0.242933	1.050844
Zn10	Zn	1.313429	-0.601624	0.545420
Zn11	Zn	1.646763	-0.268291	0.878754
Zn12	Zn	1.980096	0.065043	1.212087
O13	O	1.394064	-0.512685	0.464810
O14	O	1.727397	-0.179351	0.798143
O15	O	2.060730	0.153982	1.131477
O16	O	1.609712	-0.447307	0.524090
O17	O	1.943045	-0.113974	0.857423
O18	O	2.276378	0.219359	1.190756
O19	O	1.453230	-0.578139	0.249194
O20	O	1.786563	-0.244806	0.582527
O21	O	2.119896	0.088528	0.915861
O22	O	1.334868	-0.274782	0.405593
O23	O	1.668201	0.058552	0.738927
O24	O	2.001534	0.391885	1.072260
O25	O	1.609646	-0.578091	0.405589
O26	O	1.942979	-0.244758	0.738923
O27	O	2.276313	0.088576	1.072256
O28	O	1.453382	-0.274745	0.524092
O29	O	1.786715	0.058588	0.857425
O30	O	2.120049	0.391921	1.190758
O31	O	1.334781	-0.447391	0.249196
O32	O	1.668114	-0.114058	0.582529
O33	O	2.001447	0.219275	0.915862
O34	O	1.178449	-0.447322	0.405548
O35	O	1.511783	-0.113989	0.738882
O36	O	1.845116	0.219344	1.072215
O37	O	1.334865	-0.577970	0.680408
O38	O	1.668198	-0.244636	1.013742
O39	O	2.001531	0.088697	1.347075
O40	O	1.178448	-0.578017	0.524013
O41	O	1.511781	-0.244684	0.857346
O42	O	1.845115	0.088649	1.190679
O43	O	1.453380	-0.447238	0.680442
O44	O	1.786714	-0.113905	1.013776
O45	O	2.120047	0.219428	1.347109
O46	O	1.453228	-0.750632	0.405544
O47	O	1.786561	-0.417298	0.738878
O48	O	2.119894	-0.083965	1.072211
O49	O	1.334778	-0.750579	0.524011
O50	O	1.668111	-0.417246	0.857344
O51	O	2.001445	-0.083913	1.190677
C52	C	1.143449	-0.512668	0.464776
C53	C	1.476783	-0.179335	0.798110
C54	C	1.810116	0.153999	1.131443
C55	C	1.036236	-0.512687	0.464785
C56	C	1.369569	-0.179353	0.798118
C57	C	1.702902	0.153980	1.131452
C58	C	0.949166	-0.512690	0.464801
C59	C	1.282499	-0.179357	0.798134
C60	C	1.615832	0.153976	1.131468
C61	C	0.839933	-0.512698	0.464830
C62	C	1.173267	-0.179364	0.798164
C63	C	1.506600	0.153969	1.131497
C64	C	1.394019	-0.789225	0.464793
C65	C	1.727352	-0.455892	0.798127
C66	C	2.060686	-0.122559	1.131460
C67	C	1.394088	-0.907531	0.464818
C68	C	1.727422	-0.574198	0.798152
C69	C	2.060755	-0.240864	1.131485
C70	C	1.458588	-0.976774	0.400453
C71	C	1.791921	-0.643440	0.733787
C72	C	2.125255	-0.310107	1.067120
C73	C	1.482161	-1.047470	0.488495
C74	C	1.815495	-0.714136	0.821829
C75	C	2.148828	-0.380803	1.155162
C76	C	1.370636	-1.047634	0.376833
C77	C	1.703969	-0.714301	0.710166
C78	C	2.037302	-0.380967	1.043499
C79	C	1.417707	-0.976668	0.552906
C80	C	1.751040	-0.643335	0.886240
C81	C	2.084373	-0.310002	1.219573
C82	C	1.306140	-0.976827	0.441184
C83	C	1.639473	-0.643493	0.774518
C84	C	1.972807	-0.310160	1.107851
C85	C	1.329680	-1.047490	0.529287
C86	C	1.663013	-0.714157	0.862620
C87	C	1.996346	-0.380824	1.195954
C88	C	1.645657	-0.512702	0.464844
C89	C	1.978990	-0.179368	0.798178
C90	C	2.312323	0.153965	1.131511
C91	C	1.752871	-0.512709	0.464859
C92	C	2.086204	-0.179376	0.798192
C93	C	2.419537	0.153958	1.131526
C94	C	1.394132	-0.512590	0.716403
C95	C	1.727466	-0.179257	1.049736
C96	C	2.060799	0.154076	1.383070
C97	C	1.394161	-0.512550	0.823617
C98	C	1.727495	-0.179217	1.156950
C99	C	2.060828	0.154116	1.490284
C100	C	1.394135	-0.235064	0.464848
C101	C	1.727468	0.098270	0.798181
C102	C	2.060802	0.431603	1.131515
C103	C	1.394165	-0.116758	0.464864
C104	C	1.727499	0.216575	0.798197
C105	C	2.060832	0.549908	1.131531
C106	C	1.394051	-0.512701	0.214196
C107	C	1.727384	-0.179368	0.547529
C108	C	2.060718	0.153965	0.880862
C109	C	1.394209	-0.512442	0.106982
C110	C	1.727542	-0.179108	0.440316
C111	C	2.060875	0.154225	0.773649
C112	C	1.394188	-0.512478	1.019912
C113	C	1.727521	-0.179145	1.353246
C114	C	2.060854	0.154188	1.686579
C115	C	1.394170	-0.512521	0.910680
C116	C	1.727503	-0.179188	1.244013
C117	C	2.060837	0.154145	1.577347
H118	H	1.513142	-0.945722	0.346071
H119	H	1.846475	-0.612389	0.679404
H120	H	2.179809	-0.279056	1.012738
H121	H	1.350767	-1.078805	0.302405
H122	H	1.684101	-0.745471	0.635738
H123	H	2.017434	-0.412138	0.969072
H124	H	1.556570	-1.078503	0.508511
H125	H	1.889904	-0.745170	0.841844
H126	H	2.223237	-0.411836	1.175178
H127	H	1.437501	-0.945630	0.627398
H128	H	1.770834	-0.612296	0.960731
H129	H	2.104168	-0.278963	1.294065
H130	H	1.275168	-1.078345	0.583801
H131	H	1.608501	-0.745012	0.917134
H132	H	1.941834	-0.411678	1.250467
H133	H	1.231752	-0.945770	0.421142
H134	H	1.565086	-0.612437	0.754476
H135	H	1.898419	-0.279104	1.087809
