data_functionalizedCrystal
_audit_creation_method	'MofGen! by Chris Wilmer'
_symmetry_space_group_name_H-M	'P1'
_symmetry_Int_Tables_number	1
_symmetry_cell_setting	triclinic
loop_
_symmetry_equiv_pos_as_xyz
  x,y,z
_cell_length_a	15.500227
_cell_length_b	9.065218
_cell_length_c	9.065215
_cell_angle_alpha	85.015291
_cell_angle_beta	92.871180
_cell_angle_gamma	87.113422
loop_
_atom_site_label
_atom_site_type_symbol
_atom_site_fract_x
_atom_site_fract_y
_atom_site_fract_z
O1	O	0.071944	-1.967172	-0.209599
O2	O	0.071946	-1.537887	-0.227345
O3	O	0.071941	-1.761404	-0.003830
O4	O	0.071949	-1.743654	-0.433114
O5	O	-0.071947	-1.747840	-0.017339
O6	O	-0.071943	-1.524322	-0.240855
O7	O	-0.071944	-1.953607	-0.223108
Cu8	Cu	-0.085082	-1.737726	-0.233215
Cu9	Cu	0.085083	-1.753768	-0.217238
O10	O	-0.071940	-1.730090	-0.446624
C11	C	0.000001	-1.476118	-0.232394
C12	C	0.000002	-1.312275	-0.227295
N13	N	-0.204766	-1.726454	-0.244451
C14	C	-0.250045	-1.821200	-0.149776
C15	C	-0.340617	-1.812689	-0.158287
C16	C	-0.385910	-1.709439	-0.261483
C17	C	-0.340625	-1.614682	-0.356162
C18	C	-0.250054	-1.623187	-0.347643
C19	C	-0.659376	-1.678800	-0.292150
C20	C	-0.749954	-1.670305	-0.300666
C21	C	-0.749940	-1.868311	-0.102788
C22	C	-0.659367	-1.876813	-0.094283
C23	C	-0.614090	-1.782052	-0.188958
C24	C	-0.478490	-1.700740	-0.270189
C25	C	-0.521512	-1.790745	-0.180244
C26	C	-0.000002	-1.752917	0.044402
C27	C	0.000001	-1.747820	0.208246
N28	N	0.204768	-1.765051	-0.205990
C29	C	0.000002	-2.015376	-0.218059
C30	C	0.000007	-2.179220	-0.223158
C31	C	0.000006	-1.738577	-0.494856
C32	C	0.000009	-1.743675	-0.658698
H33	H	-0.213173	-1.905284	-0.065749
C34	C	-0.390420	-1.916883	-0.054100
N35	N	-0.427930	-1.995352	0.024393
C36	C	-0.609552	-1.990389	0.019247
N37	N	-0.572031	-2.075938	0.104759
C38	C	-0.200248	-1.518971	-0.451805
N39	N	-0.162736	-1.440472	-0.530265
C40	C	-0.799774	-1.556712	-0.414189
N41	N	-0.837298	-1.471158	-0.499692
H42	H	-0.786812	-1.945460	-0.025707
C43	C	-0.609584	-1.574752	-0.396490
N44	N	-0.572077	-1.496448	-0.475154
H45	H	-0.377508	-1.530606	-0.440182
H46	H	-0.484632	-1.874806	-0.096216
H47	H	-0.515374	-1.616673	-0.354215
