data_functionalizedCrystal
_audit_creation_method	'MofGen! by Chris Wilmer'
_symmetry_space_group_name_H-M	'P1'
_symmetry_Int_Tables_number	1
_symmetry_cell_setting	triclinic
loop_
_symmetry_equiv_pos_as_xyz
  x,y,z
_cell_length_a	16.625548
_cell_length_b	18.050589
_cell_length_c	16.625539
_cell_angle_alpha	90.024824
_cell_angle_beta	90.020568
_cell_angle_gamma	90.029289
loop_
_atom_site_label
_atom_site_type_symbol
_atom_site_fract_x
_atom_site_fract_y
_atom_site_fract_z
Zn1	Zn	1.232648	-0.295637	0.455929
Zn2	Zn	1.565982	0.037696	0.789262
Zn3	Zn	1.899315	0.371030	1.122596
Zn4	Zn	1.232538	-0.419835	0.321104
Zn5	Zn	1.565871	-0.086501	0.654438
Zn6	Zn	1.899205	0.246832	0.987771
Zn7	Zn	1.097810	-0.295665	0.321109
Zn8	Zn	1.431143	0.037668	0.654443
Zn9	Zn	1.764477	0.371001	0.987776
Zn10	Zn	1.097767	-0.419792	0.455894
Zn11	Zn	1.431100	-0.086459	0.789227
Zn12	Zn	1.764434	0.246875	1.122561
O13	O	1.165191	-0.357732	0.388509
O14	O	1.498524	-0.024399	0.721842
O15	O	1.831857	0.308934	1.055176
O16	O	1.345466	-0.312118	0.438056
O17	O	1.678799	0.021215	0.771390
O18	O	2.012133	0.354549	1.104723
O19	O	1.214638	-0.403393	0.208272
O20	O	1.547971	-0.070060	0.541606
O21	O	1.881305	0.263274	0.874939
O22	O	1.115761	-0.191737	0.339010
O23	O	1.449094	0.141596	0.672343
O24	O	1.782428	0.474930	1.005677
O25	O	1.345385	-0.403366	0.339001
O26	O	1.678718	-0.070032	0.672335
O27	O	2.012052	0.263301	1.005668
O28	O	1.214826	-0.191716	0.438061
O29	O	1.548159	0.141617	0.771395
O30	O	1.881493	0.474951	1.104728
O31	O	1.115654	-0.312166	0.208276
O32	O	1.448987	0.021167	0.541610
O33	O	1.782321	0.354500	0.874943
O34	O	0.984972	-0.312125	0.338976
O35	O	1.318305	0.021208	0.672310
O36	O	1.651639	0.354542	1.005643
O37	O	1.115687	-0.403293	0.568731
O38	O	1.449021	-0.069960	0.902064
O39	O	1.782354	0.263374	1.235398
O40	O	0.984940	-0.403320	0.438002
O41	O	1.318274	-0.069987	0.771336
O42	O	1.651607	0.263346	1.104669
O43	O	1.214784	-0.312077	0.568757
O44	O	1.548117	0.021257	0.902090
O45	O	1.881451	0.354590	1.235423
O46	O	1.214596	-0.523754	0.338968
O47	O	1.547929	-0.190420	0.672301
O48	O	1.881263	0.142913	1.005634
O49	O	1.115580	-0.523722	0.437997
O50	O	1.448914	-0.190389	0.771331
O51	O	1.782247	0.142944	1.104664
C52	C	0.955700	-0.357722	0.388487
C53	C	1.289033	-0.024388	0.721820
C54	C	1.622367	0.308945	1.055153
C55	C	0.866079	-0.357735	0.388496
C56	C	1.199412	-0.024402	0.721829
C57	C	1.532746	0.308932	1.055163
C58	C	1.165093	-0.550684	0.388496
C59	C	1.498427	-0.217351	0.721829
C60	C	1.831760	0.115982	1.055162
C61	C	1.165126	-0.633230	0.388517
C62	C	1.498459	-0.299897	0.721850
C63	C	1.831792	0.033437	1.055184
C64	C	0.537903	-0.357740	0.388531
C65	C	0.871237	-0.024406	0.721864
C66	C	1.204570	0.308927	1.055197
C67	C	0.629212	-0.357736	0.388518
C68	C	0.962545	-0.024403	0.721852
C69	C	1.295878	0.308930	1.055185
C70	C	0.701988	-0.357738	0.388513
C71	C	1.035321	-0.024404	0.721846
C72	C	1.368655	0.308929	1.055179
C73	C	0.793302	-0.357734	0.388502
C74	C	1.126636	-0.024400	0.721835
C75	C	1.459969	0.308933	1.055168
C76	C	1.111334	-0.832691	0.442350
C77	C	1.444667	-0.499357	0.775684
C78	C	1.778000	-0.166024	1.109017
C79	C	1.091677	-0.882133	0.368775
C80	C	1.425011	-0.548799	0.702108
C81	C	1.758344	-0.215466	1.035441
C82	C	1.165205	-0.784360	0.388528
C83	C	1.498538	-0.451027	0.721861
C84	C	1.831871	-0.117694	1.055194
C85	C	1.184901	-0.882000	0.462112
C86	C	1.518234	-0.548667	0.795445
C87	C	1.851567	-0.215333	1.128779
C88	C	1.165280	-0.930346	0.388544
C89	C	1.498613	-0.597012	0.721877
C90	C	1.831946	-0.263679	1.055211
C91	C	1.145510	-0.832715	0.314913
C92	C	1.478843	-0.499382	0.648246
C93	C	1.812176	-0.166049	0.981579
C94	C	1.238767	-0.832578	0.408300
C95	C	1.572101	-0.499245	0.741633
C96	C	1.905434	-0.165912	1.074966
C97	C	1.219139	-0.881998	0.334673
C98	C	1.552472	-0.548665	0.668006
C99	C	1.885806	-0.215331	1.001340
C100	C	1.165160	-0.700262	0.388519
C101	C	1.498493	-0.366929	0.721852
C102	C	1.831826	-0.033596	1.055186
C103	C	1.165325	-1.014442	0.388544
C104	C	1.498659	-0.681109	0.721878
C105	C	1.831992	-0.347775	1.055211
C106	C	1.375500	-0.357743	0.388532
C107	C	1.708833	-0.024410	0.721866
C108	C	2.042166	0.308923	1.055199
C109	C	1.465121	-0.357748	0.388542
C110	C	1.798454	-0.024415	0.721875
C111	C	2.131787	0.308919	1.055209
C112	C	1.165243	-0.357677	0.598818
C113	C	1.498577	-0.024344	0.932151
C114	C	1.831910	0.308990	1.265485
C115	C	1.165266	-0.357653	0.688439
C116	C	1.498599	-0.024320	1.021773
C117	C	1.831932	0.309013	1.355106
C118	C	1.165310	-0.164027	0.388540
C119	C	1.498644	0.169307	0.721874
C120	C	1.831977	0.502640	1.055207
C121	C	1.165361	-0.081481	0.388553
C122	C	1.498695	0.251853	0.721887
C123	C	1.832028	0.585186	1.055220
C124	C	1.165185	-0.357734	0.179018
C125	C	1.498518	-0.024400	0.512352
C126	C	1.831852	0.308933	0.845685
C127	C	1.165319	-0.357548	0.089398
C128	C	1.498652	-0.024215	0.422731
C129	C	1.831986	0.309119	0.756064
C130	C	1.165303	-0.357570	1.016615
C131	C	1.498636	-0.024237	1.349948
C132	C	1.831969	0.309097	1.683282
C133	C	1.165290	-0.357596	0.925307
C134	C	1.498624	-0.024262	1.258640
C135	C	1.831957	0.309071	1.591973
C136	C	1.165285	-0.357612	0.852530
C137	C	1.498618	-0.024279	1.185863
C138	C	1.831951	0.309054	1.519197
C139	C	1.165271	-0.357637	0.761216
C140	C	1.498604	-0.024303	1.094549
C141	C	1.831938	0.309030	1.427882
H142	H	1.065710	-0.811040	0.487802
H143	H	1.399043	-0.477706	0.821136
H144	H	1.732377	-0.144373	1.154469
F145	F	1.123682	-0.804539	0.233559
F146	F	1.457016	-0.471205	0.566893
F147	F	1.790349	-0.137872	0.900226
H148	H	1.029503	-0.903916	0.352066
H149	H	1.362836	-0.570582	0.685400
H150	H	1.696170	-0.237249	1.018733
F151	F	1.320016	-0.804107	0.430184
F152	F	1.653349	-0.470773	0.763517
F153	F	1.986682	-0.137440	1.096851
H154	H	1.264728	-0.903512	0.289111
H155	H	1.598061	-0.570178	0.622445
H156	H	1.931395	-0.236845	0.955778
F157	F	1.206636	-0.910300	0.543440
F158	F	1.539969	-0.576967	0.876773
F159	F	1.873302	-0.243633	1.210107
