data_functionalizedCrystal
_audit_creation_method	'MofGen! by Chris Wilmer'
_symmetry_space_group_name_H-M	'P1'
_symmetry_Int_Tables_number	1
_symmetry_cell_setting	triclinic
loop_
_symmetry_equiv_pos_as_xyz
  x,y,z
_cell_length_a	19.805407
_cell_length_b	10.686285
_cell_length_c	19.805399
_cell_angle_alpha	85.610534
_cell_angle_beta	89.980427
_cell_angle_gamma	85.631507
loop_
_atom_site_label
_atom_site_type_symbol
_atom_site_fract_x
_atom_site_fract_y
_atom_site_fract_z
Zn1	Zn	1.055500	-0.502374	-0.362110
Zn2	Zn	1.064136	-0.713385	-0.240266
Zn3	Zn	0.942316	-0.502409	-0.248934
Zn4	Zn	0.950997	-0.713318	-0.353415
O5	O	1.003237	-0.607872	-0.301181
O6	O	1.151363	-0.530379	-0.345959
O7	O	1.047958	-0.685441	-0.146697
O8	O	0.950083	-0.325830	-0.271213
O9	O	1.157708	-0.685408	-0.256440
O10	O	1.033239	-0.325804	-0.354364
O11	O	0.958457	-0.530438	-0.153065
O12	O	0.848750	-0.530373	-0.262782
O13	O	0.964878	-0.685293	-0.449287
O14	O	0.855128	-0.685327	-0.339544
O15	O	1.041656	-0.530314	-0.455675
O16	O	1.056375	-0.889951	-0.248009
O17	O	0.973252	-0.889902	-0.331139
C18	C	0.827380	-0.607847	-0.301160
C19	C	0.752149	-0.607868	-0.301166
C20	C	0.720149	-0.688673	-0.341061
C21	C	0.649460	-0.688676	-0.341071
C22	C	0.610774	-0.607877	-0.301181
C23	C	0.642779	-0.527063	-0.261284
C24	C	0.713466	-0.527055	-0.261279
C25	C	0.357707	-0.527090	-0.261306
C26	C	0.287015	-0.527107	-0.261312
C27	C	0.293701	-0.688711	-0.341097
C28	C	0.364388	-0.688704	-0.341092
C29	C	0.396387	-0.607885	-0.301198
C30	C	0.473035	-0.607882	-0.301190
C31	C	0.534127	-0.607886	-0.301186
C32	C	1.016711	-0.935710	-0.287705
C33	C	1.022538	-1.075961	-0.281962
C34	C	1.179781	-0.607897	-0.301203
C35	C	1.255013	-0.607907	-0.301212
C36	C	1.003272	-0.607792	-0.477727
C37	C	1.003287	-0.607758	-0.552961
C38	C	0.989729	-0.278753	-0.314725
C39	C	0.983973	-0.138502	-0.320497
C40	C	1.043266	-0.527056	-0.591633
C41	C	1.043271	-0.527020	-0.662323
C42	C	1.003301	-0.607692	-0.694339
C43	C	0.963317	-0.688398	-0.655662
C44	C	0.963308	-0.688427	-0.584974
C45	C	0.963350	-0.688280	-0.940740
C46	C	0.963364	-0.688247	-1.011434
C47	C	1.043313	-0.526873	-1.018089
C48	C	1.043305	-0.526902	-0.947401
C49	C	1.003318	-0.607602	-0.908730
C50	C	1.003312	-0.607639	-0.832080
C51	C	1.003310	-0.607663	-0.770988
C52	C	1.003238	-0.607860	-0.125326
C53	C	1.003340	-0.607538	-0.050107
H54	H	0.267639	-0.754513	-0.373583
H55	H	0.930770	-0.754078	-0.681736
O56	O	1.082051	-0.448347	-0.916344
C57	C	1.106111	-0.233717	-0.903602
C58	C	1.062175	-0.322547	-0.938805
H59	H	1.090067	-0.131991	-0.921758
H60	H	1.099234	-0.247480	-0.846432
H61	H	1.161599	-0.255936	-0.916589
H62	H	1.006671	-0.300383	-0.925871
H63	H	1.069110	-0.308768	-0.995966
H64	H	0.946499	-1.084751	-0.357883
O65	O	0.757828	-0.767121	-0.379749
C66	C	0.869682	-0.838678	-0.415139
C67	C	0.827096	-0.749796	-0.371277
H68	H	0.925692	-0.824683	-0.408316
H69	H	0.860013	-0.940425	-0.398983
H70	H	0.854860	-0.816664	-0.470634
H71	H	0.841892	-0.771696	-0.315772
H72	H	0.836770	-0.648076	-0.387490
O73	O	1.067251	-1.140277	-0.237430
C74	C	1.113997	-1.343397	-0.190885
C75	C	1.063331	-1.270717	-0.241342
H76	H	1.110834	-1.448870	-0.194021
H77	H	1.167511	-1.317530	-0.203900
H78	H	1.101121	-1.317583	-0.137340
H79	H	1.076145	-1.296492	-0.294905
H80	H	1.009832	-1.296590	-0.228269
O81	O	0.924435	-0.766487	-0.903152
C82	C	0.833767	-0.783462	-0.822593
C83	C	0.877781	-0.694749	-0.865145
H84	H	0.796046	-0.725499	-0.791842
H85	H	0.805149	-0.841102	-0.857583
H86	H	0.867561	-0.849478	-0.786815
H87	H	0.844036	-0.628657	-0.900927
H88	H	0.906405	-0.637197	-0.830115
H89	H	1.075817	-0.461367	-0.565570
O90	O	0.401930	-0.767055	-0.379945
C91	C	0.426107	-0.828626	-0.492491
C92	C	0.383559	-0.739798	-0.448569
H93	H	0.411259	-0.806638	-0.547981
H94	H	0.482134	-0.814737	-0.485694
H95	H	0.416395	-0.930337	-0.476303
H96	H	0.393213	-0.638053	-0.464729
H97	H	0.327546	-0.753797	-0.455370
H98	H	0.623409	-0.754477	-0.373557
O99	O	0.388813	-0.448463	-0.222653
C100	C	0.461643	-0.278122	-0.220689
C101	C	0.426436	-0.367070	-0.264547
H102	H	0.492081	-0.212311	-0.254541
H103	H	0.421879	-0.220286	-0.192192
H104	H	0.497073	-0.335992	-0.182854
H105	H	0.391010	-0.309298	-0.302419
H106	H	0.466237	-0.424910	-0.292996
H107	H	0.930746	-0.754130	-0.553488
H108	H	1.075869	-0.461159	-1.049584
O109	O	1.082172	-0.448591	-0.699785
C110	C	1.161449	-0.288486	-0.698928
C111	C	1.117436	-0.377267	-0.656420
H112	H	1.189961	-0.230778	-0.663887
H113	H	1.199263	-0.346352	-0.729630
H114	H	1.127664	-0.222536	-0.734748
H115	H	1.151168	-0.443235	-0.620564
H116	H	1.079618	-0.319323	-0.625764
O117	O	0.249534	-0.448489	-0.222548
C118	C	0.250359	-0.288231	-0.143386
C119	C	0.292887	-0.377172	-0.187264
H120	H	0.285393	-0.230567	-0.114836
H121	H	0.214582	-0.222259	-0.177206
H122	H	0.219612	-0.346099	-0.105595
H123	H	0.323674	-0.319405	-0.225060
H124	H	0.328621	-0.443147	-0.153402
O125	O	0.924468	-0.766651	-1.042430
C126	C	0.845188	-0.926762	-1.028371
C127	C	0.889188	-0.838019	-0.993183
H128	H	0.816663	-0.984505	-0.988570
H129	H	0.807385	-0.868864	-1.063825
H130	H	0.878983	-0.992681	-1.058775
H131	H	0.855446	-0.772083	-0.962743
H132	H	0.926996	-0.895996	-0.957768
O133	O	0.605301	-0.448456	-0.222518
C134	C	0.606138	-0.288218	-0.143345
C135	C	0.648660	-0.377152	-0.187232
H136	H	0.641177	-0.230564	-0.114794
H137	H	0.570361	-0.222235	-0.177159
H138	H	0.575392	-0.346090	-0.105555
H139	H	0.679447	-0.319382	-0.225027
H140	H	0.684395	-0.443138	-0.153375
O141	O	0.744637	-0.448740	-0.222483
C142	C	0.823671	-0.431538	-0.131792
C143	C	0.788431	-0.520376	-0.175689
H144	H	0.859076	-0.489421	-0.093939
H145	H	0.854115	-0.365654	-0.165595
H146	H	0.783868	-0.373762	-0.103312
H147	H	0.828189	-0.578234	-0.204175
H148	H	0.757974	-0.586177	-0.141850
