data_functionalizedCrystal
_audit_creation_method	'MofGen! by Chris Wilmer'
_symmetry_space_group_name_H-M	'P1'
_symmetry_Int_Tables_number	1
_symmetry_cell_setting	triclinic
loop_
_symmetry_equiv_pos_as_xyz
  x,y,z
_cell_length_a	19.288864
_cell_length_b	9.065215
_cell_length_c	18.366186
_cell_angle_alpha	89.994788
_cell_angle_beta	89.977106
_cell_angle_gamma	84.075472
loop_
_atom_site_label
_atom_site_type_symbol
_atom_site_fract_x
_atom_site_fract_y
_atom_site_fract_z
O1	O	0.922781	0.184032	-0.060782
O2	O	0.720713	0.208857	-0.060732
O3	O	0.825924	-0.018345	-0.060755
O4	O	0.817569	0.411233	-0.060759
O5	O	0.825906	-0.018356	0.060344
O6	O	0.720694	0.208846	0.060367
O7	O	0.922763	0.184021	0.060317
Zn8	Zn	0.821726	0.196432	0.079569
Zn9	Zn	0.821750	0.196446	-0.079984
O10	O	0.817551	0.411222	0.060340
C11	C	0.694821	0.208053	-0.000176
C12	C	0.617699	0.205655	-0.000157
C13	C	0.574037	0.338967	-0.000170
C14	C	0.501572	0.336714	-0.000178
C15	C	0.472773	0.201142	-0.000188
C16	C	0.516444	0.067813	-0.000171
C17	C	0.588907	0.070069	-0.000155
C18	C	0.363690	0.094571	-0.042638
C19	C	0.291228	0.092320	-0.042657
C20	C	0.249273	0.194176	-0.000232
C21	C	0.279788	0.298309	0.042205
C22	C	0.352251	0.300565	0.042220
C23	C	0.394200	0.198680	-0.000204
C24	C	0.127036	0.325054	-0.000252
C25	C	0.054571	0.322796	-0.000256
C26	C	0.069445	0.053891	-0.000256
C27	C	0.141909	0.056153	-0.000245
C28	C	0.170700	0.191739	-0.000247
C29	C	0.825113	-0.073309	-0.000206
C30	C	0.822713	-0.237068	-0.000208
C31	C	0.948654	0.184825	-0.000240
C32	C	1.025776	0.187223	-0.000264
C33	C	0.818362	0.466186	-0.000211
C34	C	0.820762	0.629946	-0.000214
N35	N	0.821714	0.196421	0.188461
N36	N	0.821766	0.196445	-0.188875
C37	C	0.868318	0.095865	0.226551
C38	C	0.868322	0.095858	0.302779
C39	C	0.821730	0.196433	0.340913
C40	C	0.775117	0.296996	0.302814
C41	C	0.775110	0.296990	0.226587
C42	C	0.813475	0.330849	0.461674
C43	C	0.813487	0.330857	0.537899
C44	C	0.821750	0.196451	0.576021
C45	C	0.830014	0.062032	0.537909
C46	C	0.830007	0.062026	0.461682
C47	C	0.821733	0.196450	0.423568
C48	C	0.868361	0.095880	0.696766
C49	C	0.868360	0.095872	0.772995
C50	C	0.775159	0.297022	0.773029
C51	C	0.775156	0.297018	0.696801
C52	C	0.821760	0.196448	0.658674
H53	H	0.177459	-0.052404	-0.000239
H54	H	0.597474	0.449371	-0.000172
H55	H	0.019021	0.431359	-0.000262
H56	H	0.836734	-0.047423	0.430654
H57	H	0.806762	0.440309	0.568924
H58	H	0.806734	0.440305	0.430641
H59	H	0.245629	0.381249	0.076752
H60	H	0.906264	0.013972	0.195510
O61	O	0.258318	-0.020002	-0.088415
H62	H	0.299665	-0.090475	-0.117899
O63	O	0.636007	-0.073722	-0.000141
H64	H	0.625697	-0.138622	-0.049503
H65	H	0.397845	0.011624	-0.077190
O66	O	0.038397	-0.092343	-0.000261
H67	H	0.005769	-0.099813	-0.049628
O68	O	0.158096	0.471286	-0.000245
H69	H	0.190734	0.478729	0.049115
H70	H	0.492991	-0.042571	-0.000189
O71	O	0.918596	-0.012586	0.343876
H72	H	0.951005	-0.082509	0.304558
O73	O	0.838921	-0.082952	0.579012
H74	H	0.837528	-0.060374	0.638420
O75	O	0.454466	0.480504	-0.000199
H76	H	0.486660	0.575162	-0.000203
O77	O	0.918614	-0.012601	0.655634
H78	H	0.951014	-0.082547	0.694931
O79	O	0.918635	-0.012574	0.814084
H80	H	0.951045	-0.082487	0.774763
H81	H	0.737180	0.378883	0.333867
H82	H	0.737159	0.378876	0.195574
O83	O	0.385169	0.412814	0.088017
H84	H	0.343828	0.483246	0.117531
O85	O	0.724904	0.405508	0.814147
H86	H	0.732741	0.388627	0.873552
O87	O	0.724898	0.405492	0.655710
H88	H	0.692504	0.475438	0.695031
