data_functionalizedCrystal
_audit_creation_method	'MofGen! by Chris Wilmer'
_symmetry_space_group_name_H-M	'P1'
_symmetry_Int_Tables_number	1
_symmetry_cell_setting	triclinic
loop_
_symmetry_equiv_pos_as_xyz
  x,y,z
_cell_length_a	11.792241
_cell_length_b	11.792254
_cell_length_c	7.540329
_cell_angle_alpha	89.996229
_cell_angle_beta	90.001242
_cell_angle_gamma	84.196007
loop_
_atom_site_label
_atom_site_type_symbol
_atom_site_fract_x
_atom_site_fract_y
_atom_site_fract_z
O1	O	1.506913	0.155565	-0.147311
O2	O	1.756913	0.405565	0.102689
O3	O	2.006913	0.655565	0.352689
O4	O	2.256913	0.905565	0.602689
O5	O	1.176573	0.171598	-0.147352
O6	O	1.426573	0.421598	0.102648
O7	O	1.676573	0.671598	0.352648
O8	O	1.926573	0.921598	0.602648
O9	O	1.349752	-0.001588	-0.147318
O10	O	1.599752	0.248412	0.102682
O11	O	1.849752	0.498412	0.352682
O12	O	2.099752	0.748412	0.602682
O13	O	1.333734	0.328751	-0.147345
O14	O	1.583734	0.578751	0.102655
O15	O	1.833734	0.828751	0.352655
O16	O	2.083734	1.078751	0.602655
O17	O	1.349742	-0.001590	0.147647
O18	O	1.599742	0.248410	0.397647
O19	O	1.849742	0.498410	0.647647
O20	O	2.099742	0.748410	0.897647
O21	O	1.176563	0.171596	0.147613
O22	O	1.426563	0.421596	0.397613
O23	O	1.676563	0.671596	0.647613
O24	O	1.926563	0.921596	0.897613
O25	O	1.506903	0.155563	0.147654
O26	O	1.756903	0.405563	0.397654
O27	O	2.006903	0.655563	0.647654
O28	O	2.256903	0.905563	0.897654
Cu29	Cu	1.341732	0.163579	0.174566
Cu30	Cu	1.591732	0.413579	0.424566
Cu31	Cu	1.841732	0.663579	0.674566
Cu32	Cu	2.091732	0.913579	0.924566
Cu33	Cu	1.341744	0.163582	-0.174264
Cu34	Cu	1.591744	0.413582	0.075736
Cu35	Cu	1.841744	0.663582	0.325736
Cu36	Cu	2.091744	0.913582	0.575736
O37	O	1.333724	0.328749	0.147620
O38	O	1.583724	0.578749	0.397620
O39	O	1.833724	0.828749	0.647620
O40	O	2.083724	1.078749	0.897620
C41	C	1.134277	0.170590	0.000125
C42	C	1.384277	0.420590	0.250125
C43	C	1.634277	0.670590	0.500125
C44	C	1.884277	0.920590	0.750125
C45	C	1.008263	0.167576	0.000109
C46	C	1.258263	0.417576	0.250109
C47	C	1.508263	0.667576	0.500109
C48	C	1.758263	0.917576	0.750109
C49	C	1.348738	-0.043880	0.000164
C50	C	1.598738	0.206120	0.250164
C51	C	1.848738	0.456120	0.500164
C52	C	2.098738	0.706120	0.750164
C53	C	1.345718	-0.169893	0.000162
C54	C	1.595718	0.080107	0.250162
C55	C	1.845718	0.330107	0.500162
C56	C	2.095718	0.580107	0.750162
C57	C	0.777551	0.162033	0.000161
C58	C	1.027551	0.412033	0.250161
C59	C	1.277551	0.662033	0.500161
C60	C	1.527551	0.912033	0.750161
C61	C	0.905936	0.165112	0.000133
C62	C	1.155936	0.415112	0.250133
C63	C	1.405936	0.665112	0.500133
C64	C	1.655936	0.915112	0.750133
C65	C	1.343264	-0.272229	0.000155
C66	C	1.593264	-0.022229	0.250155
C67	C	1.843264	0.227771	0.500155
C68	C	2.093264	0.477771	0.750155
C69	C	1.340196	-0.400616	0.000138
C70	C	1.590196	-0.150616	0.250138
C71	C	1.840196	0.099384	0.500138
C72	C	2.090196	0.349384	0.750138
C73	C	1.549199	0.156571	0.000173
C74	C	1.799199	0.406571	0.250173
C75	C	2.049199	0.656571	0.500173
C76	C	2.299199	0.906571	0.750173
C77	C	1.675213	0.159586	0.000177
C78	C	1.925213	0.409586	0.250177
C79	C	2.175213	0.659586	0.500177
C80	C	2.425213	0.909586	0.750177
C81	C	1.334738	0.371041	0.000134
C82	C	1.584738	0.621041	0.250134
C83	C	1.834738	0.871041	0.500134
C84	C	2.084738	1.121041	0.750134
C85	C	1.337758	0.497054	0.000124
C86	C	1.587758	0.747054	0.250124
C87	C	1.837758	0.997054	0.500124
C88	C	2.087758	1.247054	0.750124
N89	N	1.341732	0.163577	0.419914
N90	N	1.591732	0.413577	0.669914
N91	N	1.841732	0.663577	0.919914
N92	N	2.091732	0.913577	1.169914
N93	N	1.341754	0.163575	-0.419613
N94	N	1.591754	0.413575	-0.169613
N95	N	1.841754	0.663575	0.080387
N96	N	2.091754	0.913575	0.330387
