data_functionalizedCrystal
_audit_creation_method	'MofGen! by Chris Wilmer'
_symmetry_space_group_name_H-M	'P1'
_symmetry_Int_Tables_number	1
_symmetry_cell_setting	triclinic
loop_
_symmetry_equiv_pos_as_xyz
  x,y,z
_cell_length_a	16.992694
_cell_length_b	15.455438
_cell_length_c	10.654550
_cell_angle_alpha	87.301157
_cell_angle_beta	92.423437
_cell_angle_gamma	87.147035
loop_
_atom_site_label
_atom_site_type_symbol
_atom_site_fract_x
_atom_site_fract_y
_atom_site_fract_z
O1	O	1.038445	0.072018	-0.271573
O2	O	0.810143	0.072043	-0.268652
O3	O	0.929543	0.072027	-0.087827
O4	O	0.919044	0.072034	-0.452398
O5	O	0.936334	-0.072233	-0.077521
O6	O	0.816933	-0.072217	-0.258346
O7	O	1.045236	-0.072242	-0.261267
Cu8	Cu	0.931704	-0.085402	-0.258865
Cu9	Cu	0.923674	0.085203	-0.271054
O10	O	0.925835	-0.072226	-0.442092
C11	C	0.784305	-0.000083	-0.259739
C12	C	0.697199	-0.000074	-0.248520
N13	N	0.937358	-0.205396	-0.250293
C14	C	0.647547	-0.000072	-0.356771
C15	C	0.565704	-0.000084	-0.346221
C16	C	0.533514	-0.000092	-0.227420
C17	C	0.583172	-0.000096	-0.119160
C18	C	0.665014	-0.000090	-0.129711
C19	C	0.289679	-0.000116	-0.183691
C20	C	0.207831	-0.000119	-0.173148
C21	C	0.190368	-0.000109	-0.400210
C22	C	0.272212	-0.000098	-0.410751
C23	C	0.321864	-0.000107	-0.302491
N24	N	0.449857	-0.000102	-0.216633
N25	N	0.405519	-0.000103	-0.313279
C26	C	0.886623	-0.250804	-0.327081
C27	C	0.890922	-0.341611	-0.320596
C28	C	0.945952	-0.387007	-0.237314
C29	C	0.996692	-0.341593	-0.160522
C30	C	0.992397	-0.250788	-0.167015
C31	C	0.964471	-0.658584	-0.209318
C32	C	0.968761	-0.749395	-0.202828
C33	C	0.862991	-0.749407	-0.362904
C34	C	0.858697	-0.658600	-0.369384
C35	C	0.909441	-0.613193	-0.292597
N36	N	0.950345	-0.479826	-0.230679
N37	N	0.905051	-0.520376	-0.299239
C38	C	1.071073	-0.000114	-0.270180
C39	C	1.158179	-0.000118	-0.281399
C40	C	0.932167	-0.000102	-0.035809
C41	C	0.929861	-0.000099	0.103833
N42	N	0.918026	0.205197	-0.279617
C43	C	0.923211	-0.000095	-0.494110
C44	C	0.925517	-0.000093	-0.633753
C45	C	1.000162	-0.000109	0.177245
C46	C	0.997990	-0.000103	0.308453
C47	C	0.855210	-0.000079	0.292826
C48	C	0.857383	-0.000080	0.161620
C49	C	1.082595	-0.000127	0.186268
C50	C	1.080423	-0.000121	0.317476
H51	H	0.673750	-0.000065	-0.453512
H52	H	0.181625	-0.000125	-0.076401
C53	C	1.110113	0.084015	0.370233
H54	H	1.107591	0.081151	0.459228
H55	H	1.163112	0.090659	0.348054
H56	H	1.077937	0.132141	0.335977
C57	C	1.126214	-0.081678	0.376106
H58	H	1.124746	-0.081664	0.465142
H59	H	1.102710	-0.131989	0.347157
H60	H	1.179445	-0.081682	0.352204
C61	C	1.029294	-0.799330	-0.111211
H62	H	1.058904	-0.759283	-0.066414
H63	H	1.002463	-0.834753	-0.053514
H64	H	1.063869	-0.834752	-0.157193
H65	H	0.525280	-0.000082	-0.434371
H66	H	0.298415	-0.000082	-0.507492
C67	C	0.826091	-0.200876	-0.418695
H68	H	0.796497	-0.240928	-0.463507
H69	H	0.791514	-0.165456	-0.372725
H70	H	0.852925	-0.165451	-0.476397
C71	C	0.344285	-0.000120	-0.064610
H72	H	0.313389	-0.000116	0.007650
H73	H	0.378949	-0.050425	-0.060409
H74	H	0.374199	0.050195	-0.067596
C75	C	0.798168	-0.608670	-0.461000
H76	H	0.768571	-0.648720	-0.505813
H77	H	0.763593	-0.573251	-0.415025
H78	H	0.825001	-0.573244	-0.518702
H79	H	0.149934	-0.000104	-0.488348
C80	C	1.057223	-0.391526	-0.068912
H81	H	1.052510	-0.452110	-0.076032
H82	H	1.108950	-0.376639	-0.088924
H83	H	1.047540	-0.376643	0.014750
H84	H	0.705440	-0.000091	-0.041561
H85	H	0.821679	-0.786385	-0.425422
C86	C	0.775488	-0.000059	0.356390
H87	H	0.733930	-0.000046	0.293873
H88	H	0.774035	-0.050361	0.410851
H89	H	0.769310	0.050259	0.403644
C90	C	0.835129	-0.391556	-0.405091
H91	H	0.801740	-0.351515	-0.455618
H92	H	0.865322	-0.426963	-0.457719
H93	H	0.803897	-0.426996	-0.354068
H94	H	1.005787	-0.621620	-0.146793
C95	C	1.122311	0.081415	0.137001
H96	H	1.123791	0.081405	0.047966
H97	H	1.093094	0.131735	0.160185
H98	H	1.174559	0.081399	0.172447
C99	C	1.122013	-0.084273	0.141069
H100	H	1.122166	-0.081407	0.051814
H101	H	1.174727	-0.090941	0.174818
H102	H	1.093448	-0.132387	0.168675
C103	C	0.547769	-0.000103	0.011521
H104	H	0.589064	-0.000111	0.074481
H105	H	0.513831	0.050202	0.016765
H106	H	0.518581	-0.050418	0.023950
C107	C	1.048203	-0.200838	-0.082544
H108	H	1.081588	-0.240879	-0.032005
H109	H	1.079427	-0.165410	-0.133586
H110	H	1.018021	-0.165421	-0.029907
H111	H	0.800136	-0.000059	0.101852
