data_functionalizedCrystal
_audit_creation_method	'MofGen! by Chris Wilmer'
_symmetry_space_group_name_H-M	'P1'
_symmetry_Int_Tables_number	1
_symmetry_cell_setting	triclinic
loop_
_symmetry_equiv_pos_as_xyz
  x,y,z
_cell_length_a	16.974800
_cell_length_b	10.723023
_cell_length_c	16.053802
_cell_angle_alpha	92.591082
_cell_angle_beta	91.074188
_cell_angle_gamma	83.927595
loop_
_atom_site_label
_atom_site_type_symbol
_atom_site_fract_x
_atom_site_fract_y
_atom_site_fract_z
O1	O	1.049937	0.159066	0.001541
O2	O	0.820579	0.178168	-0.013963
O3	O	0.940548	-0.013013	-0.005850
O4	O	0.929967	0.350247	-0.006572
O5	O	0.933945	-0.002533	0.132562
O6	O	0.813975	0.188648	0.124449
O7	O	1.043333	0.169546	0.139954
Zn8	Zn	0.927606	0.180761	0.154177
Zn9	Zn	0.936306	0.166953	-0.028187
O10	O	0.923363	0.360727	0.131840
C11	C	0.787909	0.182490	0.053258
C12	C	0.700401	0.179738	0.047342
C13	C	0.655695	0.184155	0.120013
C14	C	0.573474	0.181550	0.114458
C15	C	0.535960	0.174537	0.036230
C16	C	0.580672	0.170116	-0.036447
C17	C	0.662893	0.172712	-0.030890
C18	C	0.290444	0.166151	0.011521
C19	C	0.208217	0.163559	0.005969
C20	C	0.201025	0.174990	0.156875
C21	C	0.283246	0.177594	0.162425
C22	C	0.327952	0.173166	0.089748
N23	N	0.451916	0.171877	0.030549
N24	N	0.411995	0.175816	0.095430
C25	C	0.936477	-0.054265	0.063303
C26	C	0.934173	-0.192796	0.063145
C27	C	0.936567	-0.259980	-0.008627
C28	C	0.934187	-0.403159	-0.008793
C29	C	1.076003	0.165224	0.072731
C30	C	1.163511	0.167975	0.078641
C31	C	0.927435	0.401979	0.062685
C32	C	0.929739	0.540509	0.062838
N33	N	0.921673	0.190183	0.278636
N34	N	0.942245	0.157521	-0.152646
C35	C	0.972740	0.108864	0.325784
C36	C	0.968597	0.115467	0.412910
C37	C	0.913392	0.203396	0.452888
C38	C	0.862320	0.284718	0.405734
C39	C	0.866459	0.278109	0.318609
C40	C	0.895312	0.232233	0.713075
C41	C	0.891178	0.238840	0.800207
C42	C	0.997455	0.069586	0.807377
C43	C	1.001592	0.062989	0.720250
C44	C	0.950518	0.144307	0.673103
N45	N	0.909158	0.210150	0.541946
N46	N	0.954748	0.137546	0.584047
H47	H	0.177676	0.157851	-0.057736
H48	H	0.927697	-0.401743	0.124289
H49	H	0.537079	0.185125	0.173635
H50	H	0.699291	0.169118	-0.090067
O51	O	0.544362	0.163254	-0.112504
C52	C	0.560173	0.152290	-0.261595
C53	C	0.601395	0.160019	-0.175512
H54	H	0.606263	0.149699	-0.312560
H55	H	0.528626	0.063521	-0.267573
H56	H	0.515096	0.238026	-0.268377
H57	H	0.646507	0.074347	-0.168672
H58	H	0.632890	0.248841	-0.169573
H59	H	1.046545	-0.008609	0.687702
H60	H	0.846221	0.310447	0.832752
O61	O	0.319564	0.184352	0.238482
C62	C	0.303744	0.195502	0.387573
C63	C	0.262517	0.187810	0.301491
H64	H	0.257637	0.198327	0.438538
H65	H	0.348782	0.109741	0.394464
H66	H	0.335335	0.284232	0.393439
H67	H	0.230881	0.099134	0.295566
H68	H	0.217522	0.273633	0.294639
O69	O	0.845669	0.311359	0.667412
C70	C	0.739792	0.479886	0.669501
C71	C	0.795980	0.390367	0.721320
H72	H	0.699593	0.543769	0.713063
H73	H	0.776047	0.539364	0.631037
H74	H	0.702102	0.422727	0.626027
H75	H	0.833682	0.447428	0.764840
H76	H	0.759678	0.330886	0.759728
O77	O	0.929514	-0.250734	0.136250
C78	C	0.854696	-0.377253	0.218945
C79	C	0.859887	-0.311732	0.136106
H80	H	0.798398	-0.426564	0.218863
H81	H	0.908523	-0.449235	0.226334
H82	H	0.853302	-0.304380	0.272995
H83	H	0.861257	-0.384512	0.082006
H84	H	0.806062	-0.239727	0.128789
H85	H	0.817367	0.356308	0.438289
O86	O	1.047027	-0.009590	0.853083
C87	C	1.090725	-0.224356	0.882829
C88	C	1.034559	-0.134821	0.830997
H89	H	1.080653	-0.325623	0.865004
H90	H	1.154771	-0.209245	0.869944
H91	H	1.078294	-0.204468	0.951962
H92	H	1.046919	-0.154655	0.761848
H93	H	0.970531	-0.149950	0.843953
H94	H	0.686232	0.189876	0.183715
H95	H	0.940376	-0.211499	-0.069952
H96	H	0.824875	0.344325	0.280222
O97	O	0.936657	-0.471869	-0.082176
C98	C	0.943944	-0.469717	-0.231854
C99	C	0.941179	-0.391757	-0.148804
H100	H	0.947584	-0.404976	-0.285745
H101	H	0.998181	-0.542162	-0.231992
H102	H	0.888053	-0.519730	-0.239308
H103	H	0.997031	-0.341664	-0.141297
H104	H	0.886906	-0.319385	-0.148703
O105	O	0.333741	0.161898	-0.059158
C106	C	0.332198	0.150200	-0.209421
C107	C	0.283062	0.155042	-0.129441
H108	H	0.291246	0.144629	-0.266265
H109	H	0.364110	0.238388	-0.211116
H110	H	0.377630	0.063900	-0.210086
H111	H	0.237589	0.241286	-0.128722
H112	H	0.251205	0.066795	-0.127777
O113	O	1.026390	0.023339	0.287084
C114	C	1.131392	-0.143794	0.303404
C115	C	1.070659	-0.047010	0.347333
H116	H	1.167211	-0.200679	0.352096
H117	H	1.099008	-0.209456	0.260331
H118	H	1.172958	-0.092826	0.265255
H119	H	1.029077	-0.097873	0.385526
H120	H	1.103095	0.018647	0.390356
H121	H	0.164617	0.178593	0.216044
H122	H	1.010179	0.049250	0.451298
