data_functionalizedCrystal
_audit_creation_method	'MofGen! by Chris Wilmer'
_symmetry_space_group_name_H-M	'P1'
_symmetry_Int_Tables_number	1
_symmetry_cell_setting	triclinic
loop_
_symmetry_equiv_pos_as_xyz
  x,y,z
_cell_length_a	19.805407
_cell_length_b	19.805405
_cell_length_c	19.805399
_cell_angle_alpha	89.973385
_cell_angle_beta	89.979591
_cell_angle_gamma	90.028666
loop_
_atom_site_label
_atom_site_type_symbol
_atom_site_fract_x
_atom_site_fract_y
_atom_site_fract_z
Zn1	Zn	1.034734	-0.269444	-0.382739
Zn2	Zn	1.368068	0.063890	-0.049406
Zn3	Zn	1.701401	0.397223	0.283927
Zn4	Zn	1.034648	-0.382632	-0.269553
Zn5	Zn	1.367982	-0.049299	0.063780
Zn6	Zn	1.701315	0.284034	0.397114
Zn7	Zn	0.921549	-0.269466	-0.269562
Zn8	Zn	1.254882	0.063867	0.063771
Zn9	Zn	1.588216	0.397200	0.397104
Zn10	Zn	0.921512	-0.382600	-0.382698
Zn11	Zn	1.254845	-0.049267	-0.049365
Zn12	Zn	1.588178	0.284067	0.283969
O13	O	0.978111	-0.326036	-0.326138
O14	O	1.311444	0.007298	0.007195
O15	O	1.644777	0.340631	0.340529
O16	O	1.129439	-0.284463	-0.367738
O17	O	1.462773	0.048871	-0.034405
O18	O	1.796106	0.382204	0.298928
O19	O	1.019625	-0.367643	-0.174838
O20	O	1.352958	-0.034310	0.158496
O21	O	1.686292	0.299023	0.491829
O22	O	0.936615	-0.174747	-0.284597
O23	O	1.269948	0.158587	0.048737
O24	O	1.603281	0.491920	0.382070
O25	O	1.129376	-0.367622	-0.284581
O26	O	1.462710	-0.034288	0.048753
O27	O	1.796043	0.299045	0.382086
O28	O	1.019771	-0.174730	-0.367747
O29	O	1.353105	0.158603	-0.034414
O30	O	1.686438	0.491936	0.298919
O31	O	0.936531	-0.284501	-0.174844
O32	O	1.269865	0.048832	0.158489
O33	O	1.603198	0.382166	0.491822
O34	O	0.826827	-0.284470	-0.284557
O35	O	1.160161	0.048864	0.048777
O36	O	1.493494	0.382197	0.382110
O37	O	0.936551	-0.367567	-0.477420
O38	O	1.269885	-0.034233	-0.144087
O39	O	1.603218	0.299100	0.189247
O40	O	0.826800	-0.367589	-0.367677
O41	O	1.160133	-0.034255	-0.034344
O42	O	1.493467	0.299078	0.298990
O43	O	1.019735	-0.284431	-0.477450
O44	O	1.353069	0.048902	-0.144117
O45	O	1.686402	0.382235	0.189216
O46	O	1.019589	-0.477345	-0.284541
O47	O	1.352923	-0.144011	0.048793
O48	O	1.686256	0.189322	0.382126
O49	O	0.936468	-0.477321	-0.367668
O50	O	1.269801	-0.143988	-0.034335
O51	O	1.603135	0.189346	0.298999
C52	C	0.802255	-0.326029	-0.326114
C53	C	1.135588	0.007305	0.007220
C54	C	1.468921	0.340638	0.340553
C55	C	0.727023	-0.326042	-0.326119
C56	C	1.060356	0.007291	0.007214
C57	C	1.393689	0.340625	0.340547
C58	C	0.265268	-0.282816	-0.369531
C59	C	0.598601	0.050518	-0.036197
C60	C	0.931935	0.383851	0.297136
C61	C	0.335957	-0.282817	-0.369526
C62	C	0.669290	0.050516	-0.036193
C63	C	1.002623	0.383850	0.297141
C64	C	0.371261	-0.326046	-0.326160
C65	C	0.704594	0.007287	0.007173
C66	C	1.037928	0.340621	0.340507
C67	C	0.335874	-0.369281	-0.282801
C68	C	0.669207	-0.035948	0.050532
C69	C	1.002540	0.297385	0.383866
C70	C	0.265186	-0.369283	-0.282810
C71	C	0.598520	-0.035950	0.050523
C72	C	0.931853	0.297384	0.383857
C73	C	0.620947	-0.369276	-0.282765
C74	C	0.954280	-0.035943	0.050568
C75	C	1.287613	0.297391	0.383901
C76	C	0.691639	-0.369270	-0.282758
C77	C	1.024972	-0.035936	0.050575
C78	C	1.358306	0.297397	0.383908
C79	C	0.691717	-0.282810	-0.369481
C80	C	1.025050	0.050523	-0.036148
C81	C	1.358384	0.383857	0.297185
C82	C	0.621030	-0.282812	-0.369490
C83	C	0.954363	0.050522	-0.036157
C84	C	1.287696	0.383855	0.297177
C85	C	0.585648	-0.326049	-0.326134
C86	C	0.918982	0.007284	0.007199
C87	C	1.252315	0.340617	0.340533
C88	C	0.509000	-0.326048	-0.326141
C89	C	0.842333	0.007285	0.007193
C90	C	1.175667	0.340618	0.340526
C91	C	0.447908	-0.326044	-0.326149
C92	C	0.781242	0.007289	0.007184
C93	C	1.114575	0.340623	0.340517
C94	C	0.978034	-0.501892	-0.326114
C95	C	1.311367	-0.168558	0.007220
C96	C	1.644700	0.164775	0.340553
C97	C	0.978063	-0.577124	-0.326126
C98	C	1.311396	-0.243790	0.007208
C99	C	1.644729	0.089543	0.340541
C100	C	1.021337	-0.612401	-0.369456
C101	C	1.354670	-0.279068	-0.036123
C102	C	1.688003	0.054266	0.297210
C103	C	1.021361	-0.683089	-0.369469
C104	C	1.354695	-0.349756	-0.036136
C105	C	1.688028	-0.016423	0.297198
C106	C	0.978114	-0.718499	-0.326147
C107	C	1.311448	-0.385166	0.007186
C108	C	1.644781	-0.051832	0.340520
C109	C	0.934835	-0.683217	-0.282815
C110	C	1.268169	-0.349884	0.050519
C111	C	1.601502	-0.016550	0.383852
C112	C	0.934808	-0.612530	-0.282806
C113	C	1.268141	-0.279196	0.050527
C114	C	1.601475	0.054137	0.383861
C115	C	0.934944	-0.968290	-0.282849
C116	C	1.268278	-0.634957	0.050484
C117	C	1.601611	-0.301623	0.383817
C118	C	0.934976	-1.038982	-0.282860
C119	C	1.268310	-0.705649	0.050473
C120	C	1.601643	-0.372316	0.383807
C121	C	1.021497	-1.038850	-0.369512
C122	C	1.354831	-0.705516	-0.036179
C123	C	1.688164	-0.372183	0.297154
C124	C	1.021470	-0.968163	-0.369504
C125	C	1.354803	-0.634829	-0.036170
C126	C	1.688137	-0.301496	0.297163
C127	C	0.978189	-0.932887	-0.326174
C128	C	1.311522	-0.599553	0.007159
C129	C	1.644855	-0.266220	0.340493
C130	C	0.978162	-0.856238	-0.326162
C131	C	1.311495	-0.522905	0.007172
C132	C	1.644829	-0.189571	0.340505
C133	C	0.978144	-0.795146	-0.326155
C134	C	1.311478	-0.461813	0.007178
C135	C	1.644811	-0.128480	0.340511
C136	C	1.154654	-0.326043	-0.326163
C137	C	1.487987	0.007290	0.007170
C138	C	1.821320	0.340624	0.340504
C139	C	1.229885	-0.326046	-0.326174
C140	C	1.563219	0.007287	0.007160
C141	C	1.896552	0.340620	0.340493
C142	C	0.978149	-0.325993	-0.502681
C143	C	1.311482	0.007340	-0.169348
C144	C	1.644815	0.340674	0.163986
C145	C	0.978165	-0.325975	-0.577913
C146	C	1.311498	0.007359	-0.244580
C147	C	1.644832	0.340692	0.088754
C148	C	0.978207	-0.149493	-0.326178
C149	C	1.311540	0.183840	0.007156
C150	C	1.644873	0.517174	0.340489
C151	C	0.978248	-0.074261	-0.326194
C152	C	1.311581	0.259073	0.007139
C153	C	1.644914	0.592406	0.340472
C154	C	1.021480	-0.282684	-0.613274
C155	C	1.354813	0.050649	-0.279941
C156	C	1.688147	0.383983	0.053393
C157	C	1.021487	-0.282664	-0.683962
C158	C	1.354820	0.050669	-0.350629
C159	C	1.688153	0.384002	-0.017296
C160	C	0.978182	-0.325939	-0.719289
C161	C	1.311515	0.007394	-0.385955
C162	C	1.644848	0.340727	-0.052622
C163	C	0.934862	-0.369232	-0.683923
C164	C	1.268195	-0.035899	-0.350589
C165	C	1.601529	0.297435	-0.017256
C166	C	0.934852	-0.369248	-0.613235
C167	C	1.268186	-0.035914	-0.279902
C168	C	1.601519	0.297419	0.053431
C169	C	0.934900	-0.369169	-0.968996
C170	C	1.268234	-0.035836	-0.635663
C171	C	1.601567	0.297498	-0.302329
C172	C	0.934915	-0.369151	-1.039688
C173	C	1.268248	-0.035818	-0.706355
C174	C	1.601582	0.297515	-0.373022
C175	C	1.021535	-0.282586	-1.039723
C176	C	1.354868	0.050748	-0.706390
C177	C	1.688202	0.384081	-0.373056
C178	C	1.021525	-0.282601	-0.969036
C179	C	1.354858	0.050732	-0.635703
C180	C	1.688192	0.384065	-0.302369
C181	C	0.978203	-0.325891	-0.933676
C182	C	1.311536	0.007442	-0.600343
C183	C	1.644870	0.340776	-0.267009
C184	C	0.978195	-0.325911	-0.857028
C185	C	1.311529	0.007422	-0.523694
C186	C	1.644862	0.340756	-0.190361
C187	C	0.978193	-0.325923	-0.795936
C188	C	1.311526	0.007410	-0.462602
C189	C	1.644859	0.340743	-0.129269
C190	C	0.978112	-0.326029	-0.150282
C191	C	1.311445	0.007304	0.183051
C192	C	1.644779	0.340637	0.516385
C193	C	0.978227	-0.325857	-0.075051
C194	C	1.311560	0.007477	0.258283
C195	C	1.644894	0.340810	0.591616
H196	H	0.236528	-0.247609	-0.404840
H197	H	0.569862	0.085724	-0.071507
H198	H	0.903195	0.419057	0.261826
F199	F	0.583300	-0.415278	-0.236606
F200	F	0.916634	-0.081945	0.096727
F201	F	1.249967	0.251389	0.430060
F202	F	1.067640	-0.236510	-1.077361
F203	F	1.400974	0.096823	-0.744028
F204	F	1.734307	0.430157	-0.410694
H205	H	0.899705	-0.939574	-0.247568
H206	H	1.233038	-0.606241	0.085766
H207	H	1.566371	-0.272907	0.419099
H208	H	1.056737	-1.067580	-0.404796
H209	H	1.390070	-0.734247	-0.071462
H210	H	1.723403	-0.400913	0.261871
H211	H	1.056791	-0.247365	-0.940277
H212	H	1.390124	0.085969	-0.606944
H213	H	1.723457	0.419302	-0.273610
H214	H	1.056688	-0.939334	-0.404778
H215	H	1.390021	-0.606001	-0.071444
H216	H	1.723354	-0.272667	0.261889
H217	H	0.364624	-0.404482	-0.247494
H218	H	0.697957	-0.071148	0.085839
H219	H	1.031291	0.262185	0.419172
F220	F	0.888803	-0.720905	-0.236714
F221	F	1.222136	-0.387571	0.096619
F222	F	1.555469	-0.054238	0.429953
H223	H	0.899756	-1.067811	-0.247581
H224	H	1.233090	-0.734478	0.085752
H225	H	1.566423	-0.401144	0.419086
F226	F	0.888749	-0.574985	-0.236688
F227	F	1.222082	-0.241652	0.096645
F228	F	1.555416	0.091681	0.429978
F229	F	1.067575	-0.236627	-0.575683
F230	F	1.400909	0.096706	-0.242350
F231	F	1.734242	0.430039	0.090983
H232	H	0.720533	-0.247606	-0.404786
H233	H	1.053866	0.085728	-0.071453
H234	H	1.387200	0.419061	0.261881
F235	F	0.227530	-0.415299	-0.236668
F236	F	0.560863	-0.081966	0.096665
F237	F	0.894197	0.251367	0.429999
H238	H	0.899574	-0.404493	-0.584445
H239	H	1.232907	-0.071159	-0.251112
H240	H	1.566241	0.262174	0.082221
F241	F	1.067612	-0.236612	-0.721593
F242	F	1.400945	0.096722	-0.388260
F243	F	1.734278	0.430055	-0.054927
F244	F	1.067412	-0.720631	-0.415595
F245	F	1.400746	-0.387298	-0.082261
F246	F	1.734079	-0.053964	0.251072
F247	F	0.888821	-0.415213	-1.077284
F248	F	1.222154	-0.081879	-0.743950
F249	F	1.555488	0.251454	-0.410617
F250	F	0.888793	-0.415242	-0.931373
F251	F	1.222127	-0.081909	-0.598039
F252	F	1.555460	0.251425	-0.264706
H253	H	0.364762	-0.247616	-0.404834
H254	H	0.698095	0.085717	-0.071500
H255	H	1.031429	0.419050	0.261833
F256	F	0.583460	-0.236800	-0.415644
F257	F	0.916793	0.096533	-0.082311
F258	F	1.250127	0.429867	0.251023
H259	H	0.899600	-0.404465	-0.712691
H260	H	1.232933	-0.071132	-0.379357
H261	H	1.566267	0.262202	-0.046024
F262	F	0.729211	-0.415282	-0.236600
F263	F	1.062545	-0.081949	0.096733
F264	F	1.395878	0.251384	0.430067
F265	F	1.067370	-0.574721	-0.415563
F266	F	1.400704	-0.241388	-0.082229
F267	F	1.734037	0.091945	0.251104
