data_functionalizedCrystal
_audit_creation_method	'MofGen! by Chris Wilmer'
_symmetry_space_group_name_H-M	'P1'
_symmetry_Int_Tables_number	1
_symmetry_cell_setting	triclinic
loop_
_symmetry_equiv_pos_as_xyz
  x,y,z
_cell_length_a	17.038272
_cell_length_b	11.792241
_cell_length_c	10.868271
_cell_angle_alpha	90.005281
_cell_angle_beta	89.998595
_cell_angle_gamma	87.652486
loop_
_atom_site_label
_atom_site_type_symbol
_atom_site_fract_x
_atom_site_fract_y
_atom_site_fract_z
O1	O	-1.038456	-0.246565	-0.102169
O2	O	-0.538456	0.253435	0.397831
O3	O	-0.810808	-0.242650	-0.102206
O4	O	-0.310808	0.257350	0.397794
O5	O	-0.930157	-0.079921	-0.102178
O6	O	-0.430157	0.420079	0.397822
O7	O	-0.919108	-0.409294	-0.102197
O8	O	-0.419108	0.090706	0.397803
O9	O	-0.930147	-0.079913	0.102467
O10	O	-0.430147	0.420087	0.602467
O11	O	-0.810798	-0.242642	0.102439
O12	O	-0.310798	0.257358	0.602439
O13	O	-1.038446	-0.246557	0.102475
O14	O	-0.538446	0.253443	0.602475
Zn15	Zn	-0.924621	-0.244598	0.134949
Zn16	Zn	-0.424621	0.255402	0.634949
Zn17	Zn	-0.924634	-0.244609	-0.134679
Zn18	Zn	-0.424634	0.255391	0.365321
O19	O	-0.919098	-0.409286	0.102448
O20	O	-0.419098	0.090714	0.602448
C21	C	-0.781659	-0.239085	0.000112
C22	C	-0.281659	0.260915	0.500112
C23	C	-0.694819	-0.228461	0.000099
C24	C	-0.194819	0.271539	0.500099
C25	C	-0.929458	-0.037565	0.000144
C26	C	-0.429458	0.462435	0.500144
C27	C	-0.927380	0.088630	0.000142
C28	C	-0.427380	0.588630	0.500142
C29	C	-1.067595	-0.250122	0.000155
C30	C	-0.567595	0.249878	0.500155
C31	C	-1.154435	-0.260746	0.000160
C32	C	-0.654435	0.239254	0.500160
C33	C	-0.645136	-0.326001	0.000094
C34	C	-0.145136	0.173999	0.500094
C35	C	-0.563542	-0.316012	0.000112
C36	C	-0.063542	0.183988	0.500112
C37	C	-0.531632	-0.208482	0.000125
C38	C	-0.031632	0.291518	0.500125
C39	C	-0.581321	-0.110935	0.000133
C40	C	-0.081321	0.389065	0.500133
C41	C	-0.662914	-0.120925	0.000125
C42	C	-0.162914	0.379075	0.500125
C43	C	-0.285718	-0.173189	0.000160
C44	C	0.214282	0.326811	0.500160
C45	C	-0.204118	-0.163206	0.000165
C46	C	0.295882	0.336794	0.500165
C47	C	-0.186344	-0.368284	0.000145
C48	C	0.313656	0.131716	0.500145
C49	C	-0.267940	-0.378265	0.000129
C50	C	0.232060	0.121735	0.500129
C51	C	-0.317622	-0.280718	0.000144
C52	C	0.182378	0.219282	0.500144
C53	C	-0.448229	-0.198269	0.000139
C54	C	0.051771	0.301731	0.500139
C55	C	-0.401023	-0.290932	0.000139
C56	C	0.098977	0.209068	0.500139
C57	C	-0.919797	-0.451642	0.000123
C58	C	-0.419797	0.048358	0.500123
C59	C	-0.921874	-0.577837	0.000117
C60	C	-0.421874	-0.077837	0.500117
N61	N	-0.924618	-0.244591	0.318963
N62	N	-0.424618	0.255409	0.818963
C63	C	-0.923561	0.319677	0.000121
C64	C	-0.423561	0.819677	0.500121
C65	C	-0.925683	0.191106	0.000133
C66	C	-0.425683	0.691106	0.500133
N67	N	-0.924643	-0.244607	-0.318693
N68	N	-0.424643	0.255393	0.181307
C69	C	-0.924630	-0.244606	0.569969
C70	C	-0.424630	0.255394	1.069969
C71	C	-0.924620	-0.244601	0.430292
C72	C	-0.424620	0.255399	0.930292
H73	H	-0.523092	-0.395440	0.000106
H74	H	-0.023092	0.104560	0.500106
H75	H	-0.671111	-0.413563	0.000082
H76	H	-0.171111	0.086437	0.500082
H77	H	-0.326160	-0.093758	0.000173
H78	H	0.173840	0.406242	0.500173
C79	C	-0.194141	0.014678	-0.105007
C80	C	0.305859	0.514678	0.394993
C81	C	-0.169040	-0.045001	0.000183
C82	C	0.330960	0.454999	0.500183
H83	H	-0.172486	0.087649	-0.104993
H84	H	0.327514	0.587649	0.395007
H85	H	-0.177115	-0.025816	-0.176363
H86	H	0.322885	0.474184	0.323637
H87	H	-0.249845	0.022689	-0.104991
H88	H	0.250155	0.522689	0.395009
H89	H	-0.113335	-0.053020	0.000162
H90	H	0.386665	0.446980	0.500162
H91	H	-0.186061	-0.004498	0.071557
H92	H	0.313939	0.495502	0.571557
C93	C	-0.176973	-0.571994	0.000121
C94	C	0.323027	-0.071994	0.500121
C95	C	-0.131733	-0.475504	0.000136
C96	C	0.368267	0.024496	0.500136
H97	H	-0.143257	-0.638189	0.000110
H98	H	0.356743	-0.138189	0.500110
H99	H	-0.209168	-0.571623	0.071478
H100	H	0.290832	-0.071623	0.571478
H101	H	-0.209166	-0.571617	-0.071251
H102	H	0.290834	-0.071617	0.428749
H103	H	-0.099544	-0.475878	0.071513
H104	H	0.400456	0.024122	0.571513
H105	H	-0.099524	-0.475876	-0.071228
H106	H	0.400476	0.024124	0.428772
H107	H	-0.427008	-0.378482	0.000135
H108	H	0.072992	0.121518	0.500135
H109	H	-0.293914	-0.465827	0.000104
H110	H	0.206086	0.034173	0.500104
H111	H	-0.703366	-0.041497	0.000128
H112	H	-0.203366	0.458503	0.500128
H113	H	-0.555334	-0.023382	0.000162
H114	H	-0.055334	0.476618	0.500162
H115	H	-0.422239	-0.110718	0.000185
H116	H	0.077761	0.389282	0.500185
