data_functionalizedCrystal
_audit_creation_method	'MofGen! by Chris Wilmer'
_symmetry_space_group_name_H-M	'P1'
_symmetry_Int_Tables_number	1
_symmetry_cell_setting	triclinic
loop_
_symmetry_equiv_pos_as_xyz
  x,y,z
_cell_length_a	12.837943
_cell_length_b	10.489741
_cell_length_c	11.295483
_cell_angle_alpha	94.137284
_cell_angle_beta	85.461227
_cell_angle_gamma	89.684057
loop_
_atom_site_label
_atom_site_type_symbol
_atom_site_fract_x
_atom_site_fract_y
_atom_site_fract_z
O1	O	1.384854	0.324137	-0.099003
O2	O	1.082927	0.307742	-0.099010
O3	O	1.240760	0.131100	-0.098999
O4	O	1.227021	0.500780	-0.099013
O5	O	1.226897	0.146588	0.099051
O6	O	1.069064	0.323231	0.099040
O7	O	1.370991	0.339626	0.099047
Cu8	Cu	1.218762	0.332842	0.117127
Cu9	Cu	1.235156	0.314526	-0.117090
O10	O	1.213158	0.516268	0.099036
C11	C	1.037334	0.309948	0.000014
C12	C	0.922133	0.293430	0.000012
C13	C	0.682657	0.492006	0.000021
C14	C	0.574415	0.476492	0.000020
C15	C	0.597406	0.246889	0.000016
C16	C	0.705648	0.262403	0.000017
C17	C	0.748269	0.384966	0.000018
C18	C	0.856513	0.400478	0.000011
C19	C	0.879501	0.170877	0.000016
C20	C	0.771260	0.155363	0.000014
C21	C	1.232791	0.091198	0.000025
C22	C	1.229686	-0.050774	0.000023
C23	C	1.129262	-0.129987	0.000012
C24	C	1.169867	-0.209242	0.097662
C25	C	1.183558	-0.224485	-0.097600
C26	C	1.270327	-0.128153	0.097754
C27	C	1.284011	-0.143394	-0.097596
C28	C	1.324687	-0.222613	0.000078
C29	C	1.416585	0.337420	0.000020
C30	C	1.531786	0.353937	0.000015
C31	C	1.221127	0.556170	0.000010
C32	C	1.224233	0.698141	0.000004
N33	N	1.207238	0.345726	0.281863
N34	N	1.246688	0.301633	-0.281825
C35	C	1.329641	0.208822	0.531161
C36	C	1.320940	0.218568	0.655824
C37	C	1.181131	0.374956	0.655854
C38	C	1.189832	0.365210	0.531191
C39	C	1.264090	0.282142	0.468849
C40	C	1.272796	0.272403	0.344183
C41	C	1.132982	0.428784	0.344216
C42	C	1.124281	0.438530	0.468879
H43	H	0.736541	0.055577	0.000027
N44	N	0.902489	0.532662	0.000002
H45	H	0.844495	0.598116	0.000006
H46	H	0.941763	0.549839	0.073420
N47	N	1.347897	-0.104615	-0.206955
H48	H	1.350080	-0.008299	-0.205719
H49	H	1.421321	-0.139893	-0.207677
H50	H	0.932936	0.083716	0.000006
N51	N	1.044202	0.528131	0.536127
H52	H	1.003999	0.573103	0.477732
H53	H	0.994355	0.477700	0.587862
H54	H	1.306997	-0.086177	0.180402
N55	N	1.019887	-0.076256	0.000135
H56	H	1.013998	-0.028571	-0.073642
H57	H	0.968179	-0.148462	0.000989
H58	H	1.146833	-0.266591	-0.180163
H59	H	1.079610	0.488490	0.293468
H60	H	0.717359	0.591801	0.000020
N61	N	1.409709	0.119205	0.463915
H62	H	1.405267	0.124148	0.375486
H63	H	1.481910	0.144629	0.485672
N64	N	0.503667	0.591961	0.000025
H65	H	0.463379	0.584924	-0.073390
H66	H	0.453174	0.596325	0.073493
N67	N	1.105927	-0.247961	0.207017
H68	H	1.045328	-0.301818	0.182109
H69	H	1.151253	-0.298996	0.255891
H70	H	1.333263	0.204769	0.293425
H71	H	0.562677	0.147112	0.000113
H72	H	1.374316	0.158862	0.706555
H73	H	1.120664	0.442579	0.706630
N74	N	1.434143	-0.276032	0.000145
H75	H	1.477502	-0.250932	-0.072894
H76	H	1.466674	-0.240643	0.073983
