data_functionalizedCrystal
_audit_creation_method	'MofGen! by Chris Wilmer'
_symmetry_space_group_name_H-M	'P1'
_symmetry_Int_Tables_number	1
_symmetry_cell_setting	triclinic
loop_
_symmetry_equiv_pos_as_xyz
  x,y,z
_cell_length_a	19.902436
_cell_length_b	14.628931
_cell_length_c	14.628931
_cell_angle_alpha	60.000000
_cell_angle_beta	90.001278
_cell_angle_gamma	59.996936
loop_
_atom_site_label
_atom_site_type_symbol
_atom_site_fract_x
_atom_site_fract_y
_atom_site_fract_z
Zr1	Zr	0.647322	1.000474	-0.119891
O2	O	0.540030	1.191197	-0.265863
O3	O	0.680212	0.809764	-0.075142
O4	O	0.680213	1.000469	-0.265847
O5	O	0.540029	1.000492	0.075274
O6	O	0.790791	1.000451	-0.265835
O7	O	0.540029	1.000492	-0.075158
O8	O	0.790791	0.659314	0.075302
O9	O	0.540030	1.341629	-0.265863
O10	O	0.776764	0.888188	-0.056048
O11	O	0.694240	0.888202	0.056208
O12	O	0.694240	1.112732	-0.168323
O13	O	0.611716	1.112746	-0.056067
Zr14	Zr	0.823682	1.000447	0.120050
Zr15	Zr	0.823682	1.000446	-0.119871
Zr16	Zr	0.647321	1.000475	0.120031
Zr17	Zr	0.647322	1.240396	-0.119891
Zr18	Zr	0.823682	0.760525	0.120051
O19	O	0.790791	1.191158	0.075301
O20	O	0.790792	1.191157	-0.265836
O21	O	0.540029	1.191198	0.075274
O22	O	0.930974	0.809724	0.266023
O23	O	0.930974	0.809723	-0.075114
O24	O	0.680212	0.809765	0.265995
O25	O	0.930974	1.000429	-0.075114
O26	O	0.790791	1.000452	0.266007
O27	O	0.680212	1.000470	0.265995
O28	O	0.930974	1.000429	0.075317
O29	O	0.680213	1.341606	-0.265848
O30	O	0.790791	0.659315	0.266008
O31	O	0.930974	0.659292	0.266023
O32	O	0.930974	0.659292	0.075318
O33	O	0.540030	1.341629	-0.075158
O34	O	0.680213	1.341607	-0.075143
O35	O	0.776763	0.888189	0.168483
O36	O	0.859287	0.888175	0.056226
O37	O	0.776764	1.112719	-0.056049
O38	O	0.694240	1.112733	0.056208
C39	C	0.735501	0.700355	0.000080
C40	C	0.735501	0.598502	0.000080
C41	C	0.776439	0.553086	-0.055606
C42	C	0.776440	0.447816	-0.055607
C43	C	0.514902	1.000496	0.000055
C44	C	0.440032	1.000508	0.000047
C45	C	0.168030	1.000444	0.000091
C46	C	0.144463	1.142091	-0.070395
C47	C	0.222301	1.142180	-0.070787
C48	C	0.302973	1.000477	0.000069
C49	C	0.300562	0.930132	-0.051575
C50	C	0.222334	0.931037	-0.052096
C51	C	0.223322	0.928129	0.122252
C52	C	0.300243	0.930791	0.122065
C53	C	0.379240	1.000488	0.000058
C54	C	0.091765	1.000429	0.000098
C55	C	0.956102	1.000425	0.000104
C56	C	1.030971	1.000413	0.000112
C57	C	0.735502	1.000460	-0.300025
C58	C	0.735502	1.000459	-0.401878
C59	C	0.735502	1.300566	0.000079
C60	C	0.735502	1.402419	0.000079
C61	C	0.694565	1.111848	-0.502983
C62	C	0.694564	1.111851	-0.608254
C63	C	0.735501	1.000461	0.300185
C64	C	0.735501	1.000462	0.402037
C65	C	0.956101	0.700320	0.000105
C66	C	1.030971	0.598455	0.000113
C67	C	0.735501	0.700356	0.300185
C68	C	0.735501	0.598504	0.402038
C69	C	0.956101	0.700321	0.300209
C70	C	1.030971	0.598456	0.402071
C71	C	0.514902	1.300600	-0.300050
C72	C	0.440033	1.402465	-0.401911
C73	C	0.514902	1.300601	0.000055
C74	C	0.440033	1.402466	0.000047
C75	C	0.735502	1.300565	-0.300025
C76	C	0.735503	1.402418	-0.401878
C77	C	1.023054	0.550625	-0.058499
C78	C	1.093395	0.454925	-0.058514
C79	C	1.171652	0.407051	0.000091
C80	C	1.179568	0.454890	0.058705
C81	C	1.109227	0.550595	0.058713
C82	C	1.109214	0.550612	0.391309
C83	C	1.179569	0.454913	0.487009
C84	C	1.171678	0.407053	0.593470
C85	C	1.093426	0.454906	0.604230
C86	C	1.023073	0.550610	0.508530
C87	C	0.361790	1.450320	-0.391149
C88	C	0.291435	1.546049	-0.486850
C89	C	0.299326	1.593915	-0.593311
C90	C	0.377578	1.546055	-0.604070
C91	C	0.447930	1.450335	-0.508371
C92	C	0.447950	1.450306	0.058649
C93	C	0.377608	1.546032	0.058637
C94	C	0.299351	1.593910	0.000029
C95	C	0.291436	1.546066	-0.058581
C96	C	0.361776	1.450348	-0.058575
C97	C	0.776438	0.553088	0.503143
C98	C	0.776439	0.447818	0.608415
H99	H	0.700449	0.441475	0.047752
O100	O	0.376348	0.793842	0.197483
H101	H	0.431594	0.795020	0.201133
H102	H	0.383993	1.585040	-0.690762
O103	O	0.781955	0.874142	-0.483070
H104	H	0.738454	0.868603	-0.436674
O105	O	0.689059	0.546809	0.063225
H106	H	0.732566	0.441227	0.127964
H107	H	0.384069	1.584971	0.106368
O108	O	0.207028	1.597710	-0.121793
H109	H	0.159453	1.672295	-0.111935
H110	H	0.811490	0.592132	-0.103277
O111	O	0.781950	0.874124	-0.390426
H112	H	0.757083	0.817871	-0.343981
O113	O	0.299767	0.998711	0.173179
H114	H	0.244797	1.100574	0.121546
H115	H	0.242033	1.671856	-0.671226
H116	H	1.243278	0.415961	0.478229
O117	O	0.532322	1.398704	-0.519983
H118	H	0.525981	1.448065	-0.610092
H119	H	0.511664	1.411331	0.106382
H120	H	0.220526	1.197704	-0.160899
O121	O	0.249711	0.789910	0.192157
H122	H	0.223598	0.772739	0.140216
O123	O	0.353233	1.398739	-0.121773
H124	H	0.286997	1.448110	-0.162513
H125	H	0.242082	1.671850	0.000033
H126	H	0.811482	0.592145	0.511767
O127	O	1.084850	0.403331	-0.121730
H128	H	1.050702	0.359723	-0.087847
H129	H	0.700450	0.559456	0.393414
O130	O	1.117778	0.602156	0.121954
H131	H	1.055725	0.676752	0.112120
H132	H	0.811488	0.408760	0.695149
H133	H	0.659512	1.207215	-0.694989
O134	O	0.689080	0.454055	0.483272
H135	H	0.641470	0.559634	0.436846
H136	H	0.811484	0.408765	-0.103288
O137	O	1.247565	0.303810	0.696682
H138	H	1.247537	0.340524	0.747225
H139	H	0.221023	1.197653	-0.036415
O140	O	0.938654	0.602263	-0.121732
H141	H	0.904536	0.583895	-0.062584
O142	O	1.247518	0.303816	0.000090
H143	H	1.228857	0.278597	-0.050506
O144	O	0.648131	1.238179	-0.514426
H145	H	0.655411	1.218352	-0.429946
H146	H	1.243294	0.415897	0.106419
H147	H	1.115654	0.589566	0.304632
O148	O	1.084919	0.403263	0.719058
H149	H	1.146990	0.328663	0.783785
H150	H	0.104552	1.197413	-0.159966
O151	O	0.092567	1.215761	-0.024770
H152	H	0.083009	1.152214	0.048628
O153	O	0.938681	0.602184	0.520143
H154	H	0.945023	0.552803	0.610252
H155	H	0.355349	1.411354	-0.304472
O156	O	0.207041	1.597636	-0.475234
H157	H	0.213381	1.548242	-0.385125
H158	H	0.185792	0.981026	-0.141990
O159	O	0.247950	0.793387	0.011496
H160	H	0.316105	0.726468	0.042477
O161	O	0.375824	0.792128	0.013131
H162	H	0.415842	0.772167	0.082950
H163	H	0.187009	0.973456	0.165393
H164	H	0.302113	0.978986	-0.140614
