data_functionalizedCrystal
_audit_creation_method	'MofGen! by Chris Wilmer'
_symmetry_space_group_name_H-M	'P1'
_symmetry_Int_Tables_number	1
_symmetry_cell_setting	triclinic
loop_
_symmetry_equiv_pos_as_xyz
  x,y,z
_cell_length_a	25.639242
_cell_length_b	29.839131
_cell_length_c	25.639233
_cell_angle_alpha	89.980415
_cell_angle_beta	89.977834
_cell_angle_gamma	90.036947
loop_
_atom_site_label
_atom_site_type_symbol
_atom_site_fract_x
_atom_site_fract_y
_atom_site_fract_z
Zn1	Zn	0.799215	-0.178962	-0.295739
Zn2	Zn	1.299215	0.321038	0.204261
Zn3	Zn	0.799134	-0.254076	-0.208302
Zn4	Zn	1.299134	0.245924	0.291698
Zn5	Zn	0.711791	-0.178955	-0.208303
Zn6	Zn	1.211791	0.321045	0.291697
Zn7	Zn	0.711732	-0.254059	-0.295692
Zn8	Zn	1.211732	0.245941	0.204308
O9	O	0.755468	-0.216513	-0.252009
O10	O	1.255468	0.283487	0.247991
O11	O	0.872370	-0.188935	-0.284160
O12	O	1.372370	0.311065	0.215840
O13	O	0.787539	-0.244115	-0.135137
O14	O	1.287539	0.255885	0.364863
O15	O	0.723447	-0.116089	-0.219922
O16	O	1.223447	0.383911	0.280078
O17	O	0.872310	-0.244122	-0.219920
O18	O	1.372310	0.255878	0.280080
O19	O	0.787677	-0.116094	-0.284161
O20	O	1.287677	0.383906	0.215839
O21	O	0.723369	-0.188924	-0.135138
O22	O	1.223369	0.311076	0.364862
O23	O	0.638618	-0.188908	-0.219876
O24	O	1.138618	0.311092	0.280124
O25	O	0.723346	-0.244093	-0.368864
O26	O	1.223346	0.255907	0.131136
O27	O	0.638575	-0.244087	-0.284081
O28	O	1.138575	0.255913	0.215919
O29	O	0.787619	-0.188919	-0.368898
O30	O	1.287619	0.311081	0.131102
O31	O	0.787482	-0.316941	-0.219875
O32	O	1.287482	0.183059	0.280125
O33	O	0.723268	-0.316929	-0.284080
O34	O	1.223268	0.183071	0.215920
C35	C	0.619626	-0.216495	-0.251974
C36	C	1.119626	0.283505	0.248026
C37	C	0.561512	-0.216499	-0.251971
C38	C	1.061512	0.283501	0.248029
C39	C	0.201135	-0.245293	-0.285409
C40	C	0.701135	0.254707	0.214591
C41	C	0.146531	-0.245295	-0.285417
C42	C	0.646531	0.254705	0.214583
O43	O	0.118282	-0.269755	-0.313817
O44	O	0.618282	0.230245	0.186183
N45	N	0.119229	-0.216525	-0.252043
N46	N	0.619229	0.283475	0.247957
C47	C	0.146535	-0.187748	-0.218663
C48	C	0.646535	0.312252	0.281337
O49	O	0.118299	-0.163276	-0.190277
O50	O	0.618299	0.336724	0.309723
C51	C	0.201138	-0.187743	-0.218658
C52	C	0.701138	0.312257	0.281342
C53	C	0.228437	-0.216518	-0.252030
C54	C	0.728437	0.283482	0.247970
C55	C	0.228434	-0.274065	-0.318778
C56	C	0.728434	0.225935	0.181222
C57	C	0.283034	-0.274063	-0.318769
C58	C	0.783034	0.225937	0.181231
C59	C	0.310336	-0.245288	-0.285390
C60	C	0.810336	0.254712	0.214610
C61	C	0.283037	-0.216516	-0.252021
C62	C	0.783037	0.283484	0.247979
C63	C	0.228443	-0.158963	-0.185281
C64	C	0.728443	0.341037	0.314719
C65	C	0.283050	-0.158961	-0.185279
C66	C	0.783050	0.341039	0.314721
C67	C	0.310349	-0.187736	-0.218651
C68	C	0.810349	0.312264	0.281349
C69	C	0.364940	-0.187739	-0.218633
C70	C	0.864940	0.312261	0.281367
N71	N	0.392241	-0.216509	-0.252006
N72	N	0.892241	0.283491	0.247994
C73	C	0.364939	-0.245283	-0.285385
C74	C	0.864939	0.254717	0.214615
C75	C	0.031864	-0.187759	-0.218677
C76	C	0.531864	0.312241	0.281323
C77	C	-0.022738	-0.187766	-0.218679
C78	C	0.477262	0.312234	0.281321
C79	C	-0.022739	-0.245313	-0.285434
C80	C	0.477261	0.254687	0.214566
C81	C	0.031865	-0.245308	-0.285429
C82	C	0.531865	0.254692	0.214571
C83	C	0.059166	-0.216529	-0.252051
C84	C	0.559166	0.283471	0.247949
C85	C	0.479604	-0.245277	-0.285363
C86	C	0.979604	0.254723	0.214637
C87	C	0.534210	-0.245273	-0.285350
C88	C	1.034210	0.254727	0.214650
C89	C	0.534206	-0.187724	-0.218597
C90	C	1.034206	0.312276	0.281403
C91	C	0.479605	-0.187729	-0.218609
C92	C	0.979605	0.312271	0.281391
C93	C	0.452306	-0.216507	-0.251996
C94	C	0.952306	0.283493	0.248004
O95	O	0.393223	-0.163290	-0.190249
O96	O	0.893223	0.336710	0.309751
O97	O	0.393182	-0.269746	-0.313771
O98	O	0.893182	0.230254	0.186229
C99	C	0.755374	-0.333236	-0.251983
C100	C	1.255374	0.166764	0.248017
C101	C	0.755381	-0.383170	-0.251990
C102	C	1.255381	0.116830	0.248010
C103	C	0.788965	-0.692807	-0.218627
C104	C	1.288965	-0.192807	0.281373
C105	C	0.789030	-0.880480	-0.218647
C106	C	1.289030	-0.380480	0.281353
O107	O	0.817509	-0.904740	-0.190260
O108	O	1.317509	-0.404740	0.309740
N109	N	0.755577	-0.903955	-0.252049
N110	N	1.255577	-0.403955	0.247951
C111	C	0.722108	-0.880509	-0.285450
C112	C	1.222108	-0.380509	0.214550
O113	O	0.693659	-0.904782	-0.313865
O114	O	1.193659	-0.404782	0.186135
C115	C	0.722046	-0.692837	-0.285432
C116	C	1.222046	-0.192837	0.214568
C117	C	0.755498	-0.669364	-0.252024
C118	C	1.255498	-0.169364	0.247976
C119	C	0.822415	-0.669335	-0.185222
C120	C	1.322415	-0.169335	0.314778
C121	C	0.822396	-0.622419	-0.185215
C122	C	1.322396	-0.122419	0.314785
C123	C	0.788928	-0.598976	-0.218613
C124	C	1.288928	-0.098976	0.281387
C125	C	0.755479	-0.622449	-0.252018
C126	C	1.255479	-0.122449	0.247982
C127	C	0.688580	-0.669391	-0.318836
C128	C	1.188580	-0.169391	0.181164
C129	C	0.688568	-0.622470	-0.318829
C130	C	1.188568	-0.122470	0.181171
C131	C	0.722020	-0.598998	-0.285422
C132	C	1.222020	-0.098998	0.214578
C133	C	0.721993	-0.552090	-0.285409
C134	C	1.221993	-0.052090	0.214591
N135	N	0.755446	-0.528615	-0.252007
N136	N	1.255446	-0.028615	0.247993
C137	C	0.788914	-0.552058	-0.218609
C138	C	1.288914	-0.052058	0.281391
C139	C	0.722141	-0.979039	-0.285457
C140	C	1.222141	-0.479039	0.214543
C141	C	0.722156	-1.025957	-0.285461
C142	C	1.222156	-0.525957	0.214539
C143	C	0.789079	-1.025925	-0.218658
C144	C	1.289079	-0.525925	0.281342
C145	C	0.789062	-0.979007	-0.218652
C146	C	1.289062	-0.479007	0.281348
C147	C	0.755595	-0.955565	-0.252055
C148	C	1.255595	-0.455565	0.247945
C149	C	0.788872	-0.453533	-0.218597
C150	C	1.288872	0.046467	0.281403
C151	C	0.788849	-0.406613	-0.218592
C152	C	1.288849	0.093387	0.281408
C153	C	0.721928	-0.406649	-0.285396
C154	C	1.221928	0.093351	0.214604
C155	C	0.721949	-0.453564	-0.285400
C156	C	1.221949	0.046436	0.214600
C157	C	0.755425	-0.477005	-0.251999
C158	C	1.255425	0.022995	0.248001
O159	O	0.693533	-0.527802	-0.313784
O160	O	1.193533	-0.027802	0.186216
O161	O	0.817366	-0.527777	-0.190207
O162	O	1.317366	-0.027777	0.309793
C163	C	0.788984	-0.739723	-0.218633
C164	C	1.288984	-0.239723	0.281367
C165	C	0.755535	-0.763195	-0.252038
C166	C	1.255535	-0.263195	0.247962
C167	C	0.722067	-0.739752	-0.285436
C168	C	1.222067	-0.239752	0.214564
C169	C	0.755549	-0.810113	-0.252042
C170	C	1.255549	-0.310113	0.247958
C171	C	0.789017	-0.833556	-0.218644
C172	C	1.289017	-0.333556	0.281356
C173	C	0.822470	-0.810081	-0.185242
C174	C	1.322470	-0.310081	0.314758
C175	C	0.822451	-0.763166	-0.185235
C176	C	1.322451	-0.263166	0.314765
C177	C	0.688614	-0.763227	-0.318838
C178	C	1.188614	-0.263227	0.181162
C179	C	0.688635	-0.810143	-0.318841
C180	C	1.188635	-0.310143	0.181159
C181	C	0.722102	-0.833585	-0.285443
C182	C	1.222102	-0.333585	0.214557
C183	C	0.891841	-0.216531	-0.252045
C184	C	1.391841	0.283469	0.247955
C185	C	0.949955	-0.216539	-0.252060
C186	C	1.449955	0.283461	0.247940
C187	C	0.755485	-0.216505	-0.388382
C188	C	1.255485	0.283495	0.111618
C189	C	0.755492	-0.216502	-0.446496
C190	C	1.255492	0.283498	0.053504
C191	C	0.755577	-0.099335	-0.252047
C192	C	1.255577	0.400665	0.247953
C193	C	0.755624	-0.049400	-0.252063
C194	C	1.255624	0.450600	0.247937
C195	C	0.789002	-0.187687	-0.806883
C196	C	1.289002	0.312313	-0.306883
C197	C	0.789008	-0.187675	-0.861488
C198	C	1.289008	0.312325	-0.361488
O199	O	0.817457	-0.163229	-0.889744
O200	O	1.317457	0.336771	-0.389744
N201	N	0.755550	-0.216396	-0.888779
N202	N	1.255550	0.283604	-0.388779
C203	C	0.722079	-0.245129	-0.861463
C204	C	1.222079	0.254871	-0.361463
O205	O	0.693621	-0.269558	-0.889691
O206	O	1.193621	0.230442	-0.389691
C207	C	0.722071	-0.245139	-0.806860
C208	C	1.222071	0.254861	-0.306860
C209	C	0.755535	-0.216419	-0.779571
C210	C	1.255535	0.283581	-0.279571
C211	C	0.822463	-0.158969	-0.779594
C212	C	1.322463	0.341031	-0.279594
C213	C	0.822457	-0.158982	-0.724994
C214	C	1.322457	0.341018	-0.224994
C215	C	0.788990	-0.187714	-0.697682
C216	C	1.288990	0.312286	-0.197682
C217	C	0.755529	-0.216432	-0.724971
C218	C	1.255529	0.283568	-0.224971
C219	C	0.688598	-0.273869	-0.779545
C220	C	1.188598	0.226131	-0.279545
C221	C	0.688592	-0.273876	-0.724938
C222	C	1.188592	0.226124	-0.224938
C223	C	0.722056	-0.245156	-0.697650
C224	C	1.222056	0.254844	-0.197650
C225	C	0.722056	-0.245176	-0.643058
C226	C	1.222056	0.254824	-0.143058
N227	N	0.755514	-0.216455	-0.615767
N228	N	1.255514	0.283545	-0.115767
C229	C	0.788981	-0.187723	-0.643079
C230	C	1.288981	0.312277	-0.143079
C231	C	0.722100	-0.245106	-0.976134
C232	C	1.222100	0.254894	-0.476134
C233	C	0.722110	-0.245099	-1.030736
C234	C	1.222110	0.254901	-0.530736
C235	C	0.789039	-0.187644	-1.030757
C236	C	1.289039	0.312356	-0.530757
C237	C	0.789030	-0.187653	-0.976153
C238	C	1.289030	0.312347	-0.476153
C239	C	0.755558	-0.216384	-0.948843
C240	C	1.255558	0.283616	-0.448843
C241	C	0.788967	-0.187753	-0.528414
C242	C	1.288967	0.312247	-0.028414
C243	C	0.788959	-0.187770	-0.473808
C244	C	1.288959	0.312230	0.026192
C245	C	0.722029	-0.245223	-0.473793
C246	C	1.222029	0.254777	0.026207
C247	C	0.722038	-0.245208	-0.528393
C248	C	1.222038	0.254792	-0.028393
C249	C	0.755509	-0.216470	-0.555702
C250	C	1.255509	0.283530	-0.055702
O251	O	0.693620	-0.269609	-0.614767
O252	O	1.193620	0.230391	-0.114767
O253	O	0.817430	-0.163295	-0.614845
O254	O	1.317430	0.336705	-0.114845
C255	C	0.755482	-0.216488	-0.116167
C256	C	1.255482	0.283512	0.383833
C257	C	0.755576	-0.216365	-0.058053
C258	C	1.255576	0.283635	0.441947
H259	H	0.457384	-0.268709	-0.312552
H260	H	0.957384	0.231291	0.187448
H261	H	0.816220	-0.164350	-0.550642
H262	H	1.316220	0.335650	-0.050642
C263	C	0.859382	-0.926194	-0.211454
C264	C	1.359382	-0.426194	0.288546
C265	C	0.825834	-0.953207	-0.181932
C266	C	1.325834	-0.453207	0.318068
H267	H	0.882083	-0.910267	-0.188783
H268	H	1.382083	-0.410267	0.311217
H269	H	0.879369	-0.944474	-0.234252
H270	H	1.379369	-0.444474	0.265748
H271	H	0.839445	-0.905515	-0.231341
H272	H	1.339445	-0.405515	0.268659
H273	H	0.845771	-0.973888	-0.162048
H274	H	1.345771	-0.473888	0.337952
H275	H	0.805846	-0.934925	-0.159124
H276	H	1.305846	-0.434925	0.340876
H277	H	0.816330	-1.045021	-0.191464
H278	H	1.316330	-0.545021	0.308536
H279	H	0.305276	-0.135522	-0.158101
H280	H	0.805276	0.364478	0.341899
C281	C	0.692456	-1.097889	-0.315134
C282	C	1.192456	-0.597889	0.184866
C283	C	0.685381	-1.051756	-0.322179
C284	C	1.185381	-0.551756	0.177821
H285	H	0.669751	-1.113813	-0.337804
H286	H	1.169751	-0.613813	0.162196
H287	H	0.727578	-1.105546	-0.322825
H288	H	1.227578	-0.605546	0.177175
H289	H	0.684828	-1.105595	-0.279997
H290	H	1.184828	-0.605595	0.220003
H291	H	0.693013	-1.044049	-0.357316
H292	H	1.193013	-0.544049	0.142684
H293	H	0.650251	-1.044095	-0.314491
H294	H	1.150251	-0.544095	0.185509
H295	H	0.694794	-0.268599	-0.550613
H296	H	1.194794	0.231401	-0.050613
H297	H	0.206226	-0.135532	-0.158104
H298	H	0.706226	0.364468	0.341896
H299	H	0.694887	-0.959956	-0.312658
H300	H	1.194887	-0.459956	0.187342
C301	C	-0.084116	-0.127337	-0.211532
C302	C	0.415884	0.372663	0.288468
C303	C	-0.052748	-0.156149	-0.181986
C304	C	0.447252	0.343851	0.318014
H305	H	-0.102645	-0.107821	-0.188876
H306	H	0.397355	0.392179	0.311124
H307	H	-0.062794	-0.110174	-0.234336
H308	H	0.437206	0.389826	0.265664
H309	H	-0.108188	-0.144478	-0.231414
H310	H	0.391812	0.355522	0.268586
H311	H	-0.028674	-0.139008	-0.162106
H312	H	0.471326	0.360992	0.337894
H313	H	-0.074072	-0.173313	-0.159173
H314	H	0.425928	0.326687	0.340827
C315	C	0.211666	-0.296072	-0.407268
C316	C	0.711666	0.203928	0.092732
C317	C	0.198430	-0.305700	-0.355471
C318	C	0.698430	0.194300	0.144529
H319	H	0.193148	-0.315608	-0.429919
H320	H	0.693148	0.184392	0.070081
H321	H	0.202730	-0.265904	-0.414986
H322	H	0.702730	0.234096	0.085014
H323	H	0.248095	-0.300181	-0.412029
H324	H	0.748095	0.199819	0.087971
H325	H	0.162002	-0.301588	-0.350709
H326	H	0.662002	0.198412	0.149291
H327	H	0.207362	-0.335876	-0.347750
H328	H	0.707362	0.164124	0.152250
H329	H	0.694783	-0.268617	-0.451545
H330	H	1.194783	0.231383	0.048455
H331	H	0.849706	-0.135594	-0.702780
H332	H	1.349706	0.364406	-0.202780
H333	H	0.054089	-0.164324	-0.191493
H334	H	0.554089	0.335676	0.308507
C335	C	0.696574	-0.321167	-1.047519
C336	C	1.196574	0.178833	-0.547519
C337	C	0.685329	-0.276674	-1.060725
C338	C	1.185329	0.223326	-0.560725
H339	H	0.673862	-0.340660	-1.066029
H340	H	1.173862	0.159340	-0.566029
H341	H	0.731693	-0.327742	-1.056483
H342	H	1.231693	0.172258	-0.556483
H343	H	0.691785	-0.325277	-1.011088
H344	H	1.191785	0.174723	-0.511088
H345	H	0.690123	-0.272564	-1.097156
H346	H	1.190123	0.227436	-0.597156
H347	H	0.650202	-0.270097	-1.051765
H348	H	1.150202	0.229903	-0.551765
H349	H	0.457377	-0.164299	-0.191433
H350	H	0.957377	0.335701	0.308567
C351	C	0.859358	-0.181424	-0.914765
C352	C	1.359358	0.318576	-0.414765
C353	C	0.825809	-0.156080	-0.946159
C354	C	1.325809	0.343920	-0.446159
H355	H	0.882065	-0.161929	-0.896253
H356	H	1.382065	0.338071	-0.396253
H357	H	0.839426	-0.198531	-0.890684
H358	H	1.339426	0.301469	-0.390684
H359	H	0.879342	-0.200996	-0.936071
H360	H	1.379342	0.299004	-0.436071
H361	H	0.805822	-0.136510	-0.924853
H362	H	1.305822	0.363490	-0.424853
H363	H	0.845744	-0.138965	-0.970244
H364	H	1.345744	0.361035	-0.470244
H365	H	0.556445	-0.164298	-0.191419
H366	H	1.056445	0.335702	0.308581
H367	H	0.661328	-0.297268	-0.702705
H368	H	1.161328	0.202732	-0.202705
H369	H	0.556434	-0.268707	-0.312526
H370	H	1.056434	0.231293	0.187474
H371	H	0.816089	-0.387503	-0.191385
H372	H	1.316089	0.112497	0.308615
H373	H	0.661337	-0.688495	-0.346038
H374	H	1.161337	-0.188495	0.153962
H375	H	0.661316	-0.603386	-0.346032
H376	H	1.161316	-0.103386	0.153968
C377	C	0.714771	-0.305553	-0.914721
C378	C	1.214771	0.194447	-0.414721
C379	C	0.685311	-0.276695	-0.946113
C380	C	1.185311	0.223305	-0.446113
H381	H	0.692059	-0.325051	-0.896188
H382	H	1.192059	0.174949	-0.396188
H383	H	0.737536	-0.322732	-0.936027
H384	H	1.237536	0.177268	-0.436027
H385	H	0.734692	-0.288444	-0.890653
H386	H	1.234692	0.211556	-0.390653
H387	H	0.665393	-0.293803	-0.970185
H388	H	1.165393	0.206197	-0.470185
H389	H	0.662537	-0.259514	-0.924806
H390	H	1.162537	0.240486	-0.424806
H391	H	0.694712	-0.472677	-0.312605
H392	H	1.194712	0.027323	0.187395
C393	C	0.848013	-0.082895	-0.796405
C394	C	1.348013	0.417105	-0.296405
C395	C	0.859257	-0.127384	-0.809607
C396	C	1.359257	0.372616	-0.309607
H397	H	0.870735	-0.063397	-0.814928
H398	H	1.370735	0.436603	-0.314928
H399	H	0.812899	-0.076314	-0.805357
H400	H	1.312899	0.423686	-0.305357
H401	H	0.852789	-0.078803	-0.759977
H402	H	1.352789	0.421197	-0.259977
H403	H	0.854477	-0.131478	-0.846035
H404	H	1.354477	0.368522	-0.346035
H405	H	0.894380	-0.133968	-0.800659
H406	H	1.394380	0.366032	-0.300659
C407	C	0.344463	-0.280387	-0.389085
C408	C	0.844463	0.219613	0.110915
C409	C	0.313036	-0.305688	-0.355460
C410	C	0.813036	0.194312	0.144540
H411	H	0.362983	-0.299912	-0.411737
H412	H	0.862983	0.200088	0.088263
H413	H	0.323182	-0.260841	-0.409120
H414	H	0.823182	0.239159	0.090880
H415	H	0.368542	-0.263256	-0.369201
H416	H	0.868542	0.236744	0.130799
H417	H	0.288953	-0.322817	-0.375345
H418	H	0.788953	0.177183	0.124655
H419	H	0.334318	-0.325242	-0.335424
H420	H	0.834318	0.174758	0.164576
C421	C	0.911030	-0.824454	-0.159879
C422	C	1.411030	-0.324454	0.340121
C423	C	0.859267	-0.835848	-0.148531
C424	C	1.359267	-0.335848	0.351469
H425	H	0.933748	-0.840359	-0.137215
H426	H	1.433748	-0.340359	0.362785
H427	H	0.918652	-0.832124	-0.195014
H428	H	1.418652	-0.332124	0.304986
H429	H	0.915797	-0.793150	-0.155094
H430	H	1.415797	-0.293150	0.344906
H431	H	0.854499	-0.867150	-0.153320
H432	H	1.354499	-0.367150	0.346680
H433	H	0.851643	-0.828180	-0.113387
H434	H	1.351643	-0.328180	0.386613
C435	C	0.855015	-0.448775	-0.152558
C436	C	1.355015	0.051225	0.347442
C437	C	0.825665	-0.479294	-0.181878
C438	C	1.325665	0.020706	0.318122
H439	H	0.877725	-0.464680	-0.129886
H440	H	1.377725	0.035320	0.370114
H441	H	0.874991	-0.430453	-0.175359
H442	H	1.374991	0.069547	0.324641
H443	H	0.832232	-0.430501	-0.132539
H444	H	1.332232	0.069499	0.367461
H445	H	0.848448	-0.497566	-0.201901
H446	H	1.348448	0.002434	0.298099
H447	H	0.805688	-0.497624	-0.159075
H448	H	1.305688	0.002376	0.340925
C449	C	0.888554	-0.627115	-0.119194
C450	C	1.388554	-0.127115	0.380806
C451	C	0.859175	-0.596622	-0.148500
C452	C	1.359175	-0.096622	0.351500
H453	H	0.911265	-0.611190	-0.096531
H454	H	1.411265	-0.111190	0.403469
H455	H	0.865794	-0.645437	-0.099171
H456	H	1.365794	-0.145437	0.400829
H457	H	0.908535	-0.645393	-0.142008
H458	H	1.408535	-0.145393	0.357992
H459	H	0.839191	-0.578347	-0.125686
H460	H	1.339191	-0.078347	0.374314
H461	H	0.881939	-0.578293	-0.168525
H462	H	1.381939	-0.078293	0.331475
C463	C	0.093297	-0.251636	-0.355742
C464	C	0.593297	0.248364	0.144258
C465	C	0.061870	-0.276935	-0.322115
C466	C	0.561870	0.223065	0.177885
H467	H	0.111821	-0.271162	-0.378390
H468	H	0.611821	0.228838	0.121610
H469	H	0.072016	-0.232094	-0.375781
H470	H	0.572016	0.267906	0.124219
H471	H	0.117374	-0.234501	-0.335859
H472	H	0.617374	0.265499	0.164141
H473	H	0.037791	-0.294068	-0.341998
H474	H	0.537791	0.205932	0.158002
H475	H	0.083153	-0.296485	-0.302074
H476	H	0.583153	0.203515	0.197926
C477	C	-0.106447	-0.270861	-0.315087
C478	C	0.393553	0.229139	0.184913
C479	C	-0.052756	-0.276939	-0.322131
C480	C	0.447244	0.223061	0.177869
H481	H	-0.124978	-0.290383	-0.337744
H482	H	0.375022	0.209617	0.162256
H483	H	-0.115414	-0.277395	-0.279950
H484	H	0.384586	0.222605	0.220050
H485	H	-0.115362	-0.240683	-0.322801
H486	H	0.384638	0.259317	0.177199
H487	H	-0.043841	-0.307116	-0.314413
H488	H	0.456159	0.192884	0.185587
H489	H	-0.043786	-0.270409	-0.357277
H490	H	0.456214	0.229591	0.142723
C491	C	0.692200	-0.334737	-0.315047
C492	C	1.192200	0.165263	0.184953
C493	C	0.685144	-0.380874	-0.322109
C494	C	1.185144	0.119126	0.177891
H495	H	0.669495	-0.318825	-0.337717
H496	H	1.169495	0.181175	0.162283
H497	H	0.684565	-0.327071	-0.279913
H498	H	1.184565	0.172929	0.220087
H499	H	0.727325	-0.327025	-0.322732
H500	H	1.227325	0.172975	0.177268
H501	H	0.650019	-0.388587	-0.314421
H502	H	1.150019	0.111413	0.185579
H503	H	0.692776	-0.388543	-0.357251
H504	H	1.192776	0.111457	0.142749
C505	C	0.892812	-0.721999	-0.178072
C506	C	1.392812	-0.221999	0.321928
C507	C	0.859243	-0.695080	-0.148526
C508	C	1.359243	-0.195080	0.351474
H509	H	0.915560	-0.737882	-0.155419
H510	H	1.415560	-0.237882	0.344581
H511	H	0.872897	-0.742711	-0.197939
H512	H	1.372897	-0.242711	0.302061
H513	H	0.912751	-0.703656	-0.200891
H514	H	1.412751	-0.203656	0.299109
H515	H	0.839301	-0.713423	-0.125709
H516	H	1.339301	-0.213423	0.374291
H517	H	0.879160	-0.674365	-0.128650
H518	H	1.379160	-0.174365	0.371350
H519	H	0.849691	-0.744058	-0.158032
H520	H	1.349691	-0.244058	0.341968
H521	H	0.661390	-0.829250	-0.346045
H522	H	1.161390	-0.329250	0.153955
C523	C	0.818751	-0.162109	-1.114474
C524	C	1.318751	0.337891	-0.614474
C525	C	0.825819	-0.156053	-1.060785
C526	C	1.325819	0.343947	-0.560785
H527	H	0.841453	-0.142604	-1.133012
H528	H	1.341453	0.357396	-0.633012
H529	H	0.826383	-0.192288	-1.123418
H530	H	1.326383	0.307712	-0.623418
H531	H	0.783624	-0.155533	-1.123403
H532	H	1.283624	0.344467	-0.623403
H533	H	0.860945	-0.162632	-1.051856
H534	H	1.360945	0.337368	-0.551856
H535	H	0.818191	-0.125867	-1.051837
H536	H	1.318191	0.374133	-0.551837
C537	C	0.622431	-0.330648	-0.774017
C538	C	1.122431	0.169352	-0.274017
C539	C	0.651807	-0.305436	-0.809531
C540	C	1.151807	0.194564	-0.309531
H541	H	0.599713	-0.350134	-0.792530
H542	H	1.099713	0.149866	-0.292530
H543	H	0.645192	-0.347841	-0.752728
H544	H	1.145192	0.152159	-0.252728
H545	H	0.602456	-0.311066	-0.752714
H546	H	1.102456	0.188934	-0.252714
H547	H	0.671784	-0.325018	-0.830832
H548	H	1.171784	0.174982	-0.330832
H549	H	0.629043	-0.288242	-0.830830
H550	H	1.129043	0.211758	-0.330830
C551	C	0.622461	-0.767981	-0.384860
C552	C	1.122461	-0.267981	0.115140
C553	C	0.651818	-0.737463	-0.355547
C554	C	1.151818	-0.237463	0.144453
H555	H	0.599739	-0.752075	-0.407520
H556	H	1.099739	-0.252075	0.092480
H557	H	0.645235	-0.786250	-0.404888
H558	H	1.145235	-0.286250	0.095112
H559	H	0.602493	-0.786309	-0.362052
H560	H	1.102493	-0.286309	0.137948
H561	H	0.671789	-0.719137	-0.378356
H562	H	1.171789	-0.219137	0.121644
H563	H	0.629041	-0.719186	-0.335518
H564	H	1.129041	-0.219186	0.164482
H565	H	0.816212	-0.164382	-0.451592
H566	H	1.316212	0.335618	0.048408
