data_functionalizedCrystal
_audit_creation_method	'MofGen! by Chris Wilmer'
_symmetry_space_group_name_H-M	'P1'
_symmetry_Int_Tables_number	1
_symmetry_cell_setting	triclinic
loop_
_symmetry_equiv_pos_as_xyz
  x,y,z
_cell_length_a	13.032831
_cell_length_b	12.759394
_cell_length_c	13.034356
_cell_angle_alpha	82.791310
_cell_angle_beta	74.815040
_cell_angle_gamma	82.818938
loop_
_atom_site_label
_atom_site_type_symbol
_atom_site_fract_x
_atom_site_fract_y
_atom_site_fract_z
Zn1	Zn	1.700231	-0.532622	-0.806476
Zn2	Zn	2.200231	-0.032622	-0.306476
Zn3	Zn	1.677560	-0.728121	-0.628859
Zn4	Zn	2.177560	-0.228121	-0.128859
Zn5	Zn	1.500036	-0.532631	-0.606359
Zn6	Zn	2.000036	-0.032631	-0.106359
Zn7	Zn	1.522587	-0.688428	-0.783909
Zn8	Zn	2.022587	-0.188428	-0.283909
O9	O	1.600103	-0.620451	-0.706401
O10	O	2.100103	-0.120451	-0.206401
O11	O	1.845863	-0.575164	-0.801776
O12	O	2.345863	-0.075164	-0.301776
O13	O	1.635085	-0.718804	-0.477235
O14	O	2.135085	-0.218804	0.022765
O15	O	1.526642	-0.385612	-0.632933
O16	O	2.026642	0.114388	-0.132933
O17	O	1.829206	-0.718796	-0.671281
O18	O	2.329206	-0.218796	-0.171281
O19	O	1.673725	-0.385605	-0.779958
O20	O	2.173725	0.114395	-0.279958
O21	O	1.504659	-0.575179	-0.460705
O22	O	2.004659	-0.075179	0.039295
O23	O	1.354388	-0.536690	-0.611051
O24	O	1.854388	-0.036690	-0.111051
O25	O	1.565077	-0.651144	-0.935542
O26	O	2.065077	-0.151144	-0.435542
O27	O	1.370956	-0.651153	-0.741496
O28	O	1.870956	-0.151153	-0.241496
O29	O	1.695592	-0.536675	-0.952122
O30	O	2.195592	-0.036675	-0.452122
O31	O	1.656952	-0.869874	-0.649399
O32	O	2.156952	-0.369874	-0.149399
O33	O	1.543094	-0.840712	-0.763314
O34	O	2.043094	-0.340712	-0.263314
C35	C	1.324132	-0.589616	-0.671384
C36	C	1.824132	-0.089616	-0.171384
C37	C	1.206073	-0.576447	-0.656428
C38	C	1.706073	-0.076447	-0.156428
C39	C	1.161652	-0.627324	-0.714206
C40	C	1.661652	-0.127324	-0.214206
C41	C	1.039632	-0.613714	-0.698751
C42	C	1.539632	-0.113714	-0.198751
C43	C	1.600042	-0.893414	-0.706376
C44	C	2.100042	-0.393414	-0.206376
C45	C	1.600118	-1.010195	-0.706413
C46	C	2.100118	-0.510195	-0.206413
C47	C	1.753186	-1.010007	-0.859600
C48	C	2.253186	-0.510007	-0.359600
C49	C	1.829755	-1.064777	-0.936205
C50	C	2.329755	-0.564777	-0.436205
C51	C	1.829821	-1.174503	-0.936236
C52	C	2.329821	-0.674503	-0.436236
C53	C	1.753308	-1.229461	-0.859655
C54	C	2.253308	-0.729461	-0.359655
C55	C	1.676739	-1.174692	-0.783050
C56	C	2.176739	-0.674692	-0.283050
C57	C	1.676683	-1.064964	-0.783025
C58	C	2.176683	-0.564964	-0.283025
C59	C	1.523668	-1.174878	-0.629870
C60	C	2.023668	-0.674878	-0.129870
C61	C	1.523605	-1.065153	-0.629832
C62	C	2.023605	-0.565153	-0.129832
C63	C	1.447155	-1.229837	-0.553289
C64	C	1.947155	-0.729837	-0.053289
C65	C	1.370589	-1.175068	-0.476677
C66	C	1.870589	-0.675068	0.023323
C67	C	1.370527	-1.065336	-0.476648
C68	C	1.870527	-0.565336	0.023352
C69	C	1.447036	-1.010384	-0.553227
C70	C	1.947036	-0.510384	-0.053227
C71	C	1.877153	-0.651406	-0.741555
C72	C	2.377153	-0.151406	-0.241555
C73	C	1.995215	-0.664598	-0.756536
C74	C	2.495215	-0.164598	-0.256536
C75	C	1.635379	-0.589481	-0.983450
C76	C	2.135379	-0.089481	-0.483450
C77	C	1.650411	-0.576283	-1.101512
C78	C	2.150411	-0.076283	-0.601512
C79	C	1.600197	-0.346423	-0.706453
C80	C	2.100197	0.153577	-0.206453
C81	C	1.600237	-0.229648	-0.706475
C82	C	2.100237	0.270352	-0.206475
C83	C	1.608071	-0.613403	-1.267967
C84	C	2.108071	-0.113403	-0.767967
C85	C	1.592532	-0.627043	-1.145944
C86	C	2.092532	-0.127043	-0.645944
C87	C	1.565026	-0.651231	-0.430438
C88	C	2.065026	-0.151231	0.069562
C89	C	1.550199	-0.664155	-0.312403
C90	C	2.050199	-0.164155	0.187597
H91	H	1.753149	-0.920665	-0.859573
H92	H	2.253149	-0.420665	-0.359573
Br93	Br	1.118908	-0.487043	-0.554916
Br94	Br	1.618908	0.012957	-0.054916
H95	H	1.446997	-0.921040	-0.553207
H96	H	1.946997	-0.421040	-0.053207
H97	H	0.987332	-0.560074	-0.637843
H98	H	1.487332	-0.060074	-0.137843
Br99	Br	1.752185	-0.487032	-1.188657
Br100	Br	2.252185	0.012968	-0.688657
Br101	Br	1.082377	-0.753974	-0.858084
Br102	Br	1.582377	-0.253974	-0.358084
H103	H	1.892049	-1.020020	-0.998559
H104	H	2.392049	-0.520020	-0.498559
H105	H	1.669126	-0.559858	-1.320262
H106	H	2.169126	-0.059858	-0.820262
Br107	Br	1.933730	-1.248837	-1.040205
Br108	Br	2.433730	-0.748837	-0.540205
Br109	Br	1.248818	-0.716722	-0.815725
Br110	Br	1.748818	-0.216722	-0.315725
H111	H	1.753361	-1.318804	-0.859695
H112	H	2.253361	-0.818804	-0.359695
Br113	Br	1.448449	-0.753422	-1.225253
Br114	Br	1.948449	-0.253422	-0.725253
Br115	Br	1.447382	-1.378787	-0.553190
Br116	Br	1.947382	-0.878787	-0.053190
H117	H	1.308294	-1.219823	-0.414335
H118	H	1.808294	-0.719823	0.085665
H119	H	1.308172	-1.020747	-0.414270
H120	H	1.808172	-0.520747	0.085730
Br121	Br	1.490777	-0.716313	-1.058798
Br122	Br	1.990777	-0.216313	-0.558798
