data_functionalizedCrystal
_audit_creation_method	'MofGen! by Chris Wilmer'
_symmetry_space_group_name_H-M	'P1'
_symmetry_Int_Tables_number	1
_symmetry_cell_setting	triclinic
loop_
_symmetry_equiv_pos_as_xyz
  x,y,z
_cell_length_a	30.700809
_cell_length_b	30.711276
_cell_length_c	30.700862
_cell_angle_alpha	59.998386
_cell_angle_beta	89.999414
_cell_angle_gamma	60.000191
loop_
_atom_site_label
_atom_site_type_symbol
_atom_site_fract_x
_atom_site_fract_y
_atom_site_fract_z
O1	O	-0.371254	-0.311651	0.012944
O2	O	-0.307913	-0.222487	-0.012907
O3	O	-0.307911	-0.311650	0.076286
O4	O	-0.371257	-0.222488	-0.076249
O5	O	-0.235466	-0.384070	0.076286
O6	O	-0.235468	-0.294907	-0.012907
O7	O	-0.298809	-0.384071	0.012944
Zn8	Zn	-0.255636	-0.350987	0.000018
Zn9	Zn	-0.351086	-0.255571	0.000019
O10	O	-0.298812	-0.294908	-0.076249
C11	C	-0.234796	-0.137097	-0.018777
C12	C	-0.261674	-0.083360	-0.015076
C13	C	-0.182374	-0.163176	-0.019143
C14	C	-0.234798	-0.215942	-0.018783
C15	C	-0.261678	-0.246507	-0.015089
C16	C	-0.182376	-0.241901	-0.019150
C17	C	-0.155920	-0.215947	-0.018777
C18	C	-0.098463	-0.246515	-0.015075
C19	C	-0.261132	-0.163172	-0.019150
C20	C	-0.574961	-0.535511	0.039265
C21	C	-0.548506	-0.588283	0.039634
C22	C	-0.496086	-0.535509	0.039262
C23	C	-0.469751	-0.588281	0.039632
C24	C	-0.496085	-0.614360	0.039265
C25	C	-0.548507	-0.509552	0.039632
C26	C	-0.765169	-0.393516	0.024987
C27	C	-0.819034	-0.364488	0.020950
C28	C	-0.846055	-0.389406	0.018925
C29	C	-0.904462	-0.357927	0.014538
C30	C	-0.819206	-0.443357	0.020941
C31	C	-0.765344	-0.472385	0.024984
C32	C	-0.738325	-0.447463	0.027007
C33	C	-0.447920	-0.790230	0.024988
C34	C	-0.423094	-0.840041	0.020951
C35	C	-0.371150	-0.865027	0.018921
C36	C	-0.344230	-0.919028	0.014536
C37	C	-0.344030	-0.840201	0.020935
C38	C	-0.368852	-0.790399	0.024981
C39	C	-0.420803	-0.765414	0.027004
C40	C	-0.447922	-0.393510	0.024977
C41	C	-0.423099	-0.364475	0.020931
C42	C	-0.371152	-0.389391	0.018903
C43	C	-0.344235	-0.357911	0.014513
C44	C	-0.344034	-0.443338	0.020916
C45	C	-0.368860	-0.472368	0.024960
C46	C	-0.420804	-0.447452	0.026995
C47	C	-0.679920	-0.478941	0.031387
C48	C	-0.633366	-0.504032	0.034880
C49	C	-0.469171	-0.504029	0.034875
C50	C	-0.447717	-0.478936	0.031380
C51	C	-0.469170	-0.668361	0.034880
C52	C	-0.447716	-0.711408	0.031386
C53	C	-0.496432	-0.071057	-0.503890
C54	C	-0.548853	-0.018285	-0.530226
C55	C	-0.496432	-0.071056	-0.425015
C56	C	-0.548854	-0.018284	-0.451470
C57	C	-0.575308	0.007793	-0.503892
C58	C	-0.470097	-0.097014	-0.451469
C59	C	-0.368666	-0.213054	-0.552051
C60	C	-0.343664	-0.242084	-0.576877
C61	C	-0.370616	-0.217167	-0.628824
C62	C	-0.343513	-0.248647	-0.655741
C63	C	-0.422570	-0.163216	-0.655945
C64	C	-0.447565	-0.134187	-0.631122
C65	C	-0.420611	-0.159108	-0.579173
C66	C	-0.765518	0.183662	-0.631659
C67	C	-0.819384	0.233473	-0.656662
C68	C	-0.846408	0.258459	-0.629712
C69	C	-0.904813	0.312461	-0.656813
C70	C	-0.819559	0.233635	-0.577758
C71	C	-0.765694	0.183833	-0.552761
C72	C	-0.738677	0.158847	-0.579717
C73	C	-0.368668	-0.213052	-0.234803
C74	C	-0.343669	-0.242086	-0.180935
C75	C	-0.370621	-0.217169	-0.153914
C76	C	-0.343519	-0.248648	-0.095506
C77	C	-0.422573	-0.163222	-0.180762
C78	C	-0.447570	-0.134193	-0.234627
C79	C	-0.420610	-0.159111	-0.261646
C80	C	-0.447720	-0.127629	-0.552258
C81	C	-0.469327	-0.102536	-0.530805
C82	C	-0.469328	-0.102535	-0.366609
C83	C	-0.447721	-0.127627	-0.320054
C84	C	-0.633714	0.061794	-0.530997
C85	C	-0.680269	0.104841	-0.552605
O86	O	0.076277	-0.384081	0.012960
O87	O	-0.076257	-0.294916	-0.012894
O88	O	0.012931	-0.384083	0.076300
O89	O	-0.012910	-0.294914	-0.076234
O90	O	0.012933	-0.311666	0.076306
O91	O	-0.076254	-0.222499	-0.012888
O92	O	0.076280	-0.311664	0.012966
Zn93	Zn	0.000013	-0.255584	0.000040
Zn94	Zn	0.000010	-0.350996	0.000032
O95	O	-0.012908	-0.222497	-0.076228
O96	O	-0.298805	0.063292	0.012964
O97	O	-0.235462	-0.063346	-0.012888
O98	O	-0.235465	-0.063353	0.076305
O99	O	-0.298803	0.063300	-0.076229
O100	O	-0.307912	-0.063350	0.076299
O101	O	-0.307909	-0.063342	-0.012895
O102	O	-0.371252	0.063295	0.012958
Zn103	Zn	-0.351083	-0.000023	0.000031
Zn104	Zn	-0.255631	-0.000027	0.000039
O105	O	-0.371250	0.063303	-0.076236
O106	O	-1.076607	0.456783	-0.692421
O107	O	-0.924074	0.330140	-0.629074
O108	O	-1.013262	0.330138	-0.629073
O109	O	-0.987418	0.456785	-0.692422
O110	O	-1.013261	0.330136	-0.701518
O111	O	-0.924072	0.330138	-0.701518
O112	O	-1.076605	0.456781	-0.764865
Zn113	Zn	-1.000338	0.393459	-0.744694
Zn114	Zn	-1.000340	0.393461	-0.649245
O115	O	-0.987417	0.456783	-0.764866
O116	O	-0.307911	-0.311650	-0.764507
O117	O	-0.371254	-0.222491	-0.701165
O118	O	-0.371252	-0.311652	-0.701162
O119	O	-0.307912	-0.222489	-0.764510
O120	O	-0.298806	-0.384074	-0.628716
O121	O	-0.298807	-0.294912	-0.628719
O122	O	-0.235464	-0.384072	-0.692061
Zn123	Zn	-0.255634	-0.350991	-0.648887
Zn124	Zn	-0.351085	-0.255572	-0.744338
O125	O	-0.235466	-0.294910	-0.692064
C126	C	-0.155920	-0.469469	0.234827
C127	C	-0.098464	-0.523208	0.261706
C128	C	-0.182375	-0.443392	0.261162
C129	C	-0.234797	-0.390619	0.155950
C130	C	-0.261676	-0.360052	0.098494
C131	C	-0.261132	-0.364662	0.182405
C132	C	-0.234797	-0.390620	0.234826
C133	C	-0.261675	-0.360052	0.261704
C134	C	-0.182375	-0.443391	0.182406
C135	C	0.018810	-0.390643	0.234846
C136	C	0.015111	-0.360079	0.261727
C137	C	0.019176	-0.443414	0.261179
C138	C	0.018812	-0.390637	0.155967
C139	C	0.015115	-0.360067	0.098511
C140	C	0.019178	-0.443408	0.182420
C141	C	0.018807	-0.469488	0.234841
C142	C	0.015106	-0.523226	0.261717
C143	C	0.019180	-0.364683	0.182425
C144	C	-0.234799	-0.215977	0.234834
C145	C	-0.261678	-0.246545	0.261708
C146	C	-0.182376	-0.241940	0.261172
C147	C	-0.234798	-0.137119	0.155964
C148	C	-0.261676	-0.083372	0.098509
C149	C	-0.182375	-0.163202	0.182421
C150	C	-0.155921	-0.215981	0.234841
C151	C	-0.098464	-0.246554	0.261721
C152	C	-0.261134	-0.163198	0.182415
C153	C	-0.039199	0.007461	-0.503869
C154	C	-0.039568	-0.018614	-0.530207
C155	C	-0.039203	-0.071390	-0.424995
C156	C	-0.039572	-0.097344	-0.451452
C157	C	-0.039201	-0.071385	-0.503874
C158	C	-0.039570	-0.018618	-0.451448
C159	C	-0.024912	0.183325	-0.552025
C160	C	-0.020873	0.233135	-0.576849
C161	C	-0.018844	0.258123	-0.628796
C162	C	-0.014454	0.312124	-0.655711
C163	C	-0.020859	0.233301	-0.655918
C164	C	-0.024906	0.183500	-0.631097
C165	C	-0.026932	0.158512	-0.579148
C166	C	-0.024920	-0.133799	-0.631644
C167	C	-0.020882	-0.162650	-0.656647
C168	C	-0.018855	-0.216605	-0.629699
C169	C	-0.014470	-0.247897	-0.656801
C170	C	-0.020872	-0.241704	-0.577746
C171	C	-0.024919	-0.212847	-0.552747
C172	C	-0.026939	-0.158893	-0.579702
C173	C	-0.024929	-0.133823	-0.234783
C174	C	-0.020887	-0.162684	-0.180915
C175	C	-0.018862	-0.216639	-0.153896
C176	C	-0.014477	-0.247936	-0.095488
C177	C	-0.020875	-0.241733	-0.180745
C178	C	-0.024915	-0.212872	-0.234610
C179	C	-0.026947	-0.158912	-0.261627
C180	C	-0.031316	0.104507	-0.552235
C181	C	-0.034811	0.061462	-0.530782
C182	C	-0.034820	-0.102682	-0.366590
C183	C	-0.031328	-0.127624	-0.320035
C184	C	-0.034816	-0.102672	-0.530980
C185	C	-0.031322	-0.127610	-0.552588
O186	O	-0.012940	-0.294936	0.371303
O187	O	0.012923	-0.384099	0.307961
O188	O	-0.076273	-0.294935	0.307950
O189	O	0.076257	-0.384100	0.371315
O190	O	-0.076265	-0.222515	0.235508
O191	O	0.012932	-0.311679	0.235520
O192	O	-0.012931	-0.222517	0.298862
Zn193	Zn	0.000002	-0.255600	0.255689
Zn194	Zn	-0.000010	-0.351016	0.351134
O195	O	0.076266	-0.311681	0.298873
C196	C	-0.574962	0.464558	-0.503864
C197	C	-0.548506	0.490518	-0.530195
C198	C	-0.496085	0.385697	-0.424987
C199	C	-0.469749	0.411776	-0.451438
C200	C	-0.496084	0.464555	-0.503857
C201	C	-0.548507	0.411779	-0.451444
C202	C	-0.765173	0.526994	-0.552039
C203	C	-0.819039	0.555852	-0.576867
C204	C	-0.846061	0.609814	-0.628812
C205	C	-0.904469	0.641114	-0.655732
C206	C	-0.819211	0.634913	-0.655928
C207	C	-0.765348	0.606050	-0.631102
C208	C	-0.738329	0.552088	-0.579155
C209	C	-0.447916	0.606561	-0.631604
C210	C	-0.423088	0.635592	-0.656601
C211	C	-0.371143	0.610674	-0.629648
C212	C	-0.344222	0.642150	-0.656742
C213	C	-0.344023	0.556716	-0.577696
C214	C	-0.368845	0.527681	-0.552704
C215	C	-0.420798	0.552613	-0.579664
C216	C	-0.447920	0.209802	-0.234786
C217	C	-0.423096	0.159988	-0.180919
C218	C	-0.371148	0.134996	-0.153895
C219	C	-0.344230	0.080987	-0.095489
C220	C	-0.344029	0.159823	-0.180737
C221	C	-0.368856	0.209637	-0.234602
C222	C	-0.420801	0.234620	-0.261624
C223	C	-0.679923	0.520797	-0.552238
C224	C	-0.633367	0.495853	-0.530781
C225	C	-0.469169	0.331687	-0.366583
C226	C	-0.447714	0.288634	-0.320030
C227	C	-0.469167	0.496035	-0.530956
C228	C	-0.447712	0.521128	-0.552558
H229	H	-0.161137	-0.141349	-0.019737
O230	O	-0.019028	-0.138225	-0.154884
C231	C	-0.065849	-0.078147	-0.180250
H232	H	-0.098987	-0.073088	-0.203496
H233	H	-0.057838	-0.043299	-0.208823
C234	C	-0.042349	-0.072641	-0.109408
C235	C	-0.083051	-0.066429	-0.137956
H236	H	-0.052959	-0.065411	-0.083320
H237	H	-0.010804	-0.113116	-0.092319
H238	H	-0.035677	-0.043600	-0.133224
H239	H	-0.089717	-0.095474	-0.114140
H240	H	-0.114597	-0.025958	-0.155040
O241	O	-0.312484	-0.313935	0.157066
C242	C	-0.315390	-0.265347	0.154445
H243	H	-0.274596	-0.273607	0.157873
H244	H	-0.328097	-0.263163	0.188590
C245	C	-0.406612	-0.193916	0.096617
C246	C	-0.356508	-0.204060	0.100823
H247	H	-0.431977	-0.156111	0.063541
H248	H	-0.404654	-0.226651	0.098384
H249	H	-0.417193	-0.192100	0.125074
H250	H	-0.345925	-0.205883	0.072370
H251	H	-0.358465	-0.171323	0.099050
H252	H	-0.161141	-0.284407	0.304244
H253	H	-0.445184	-0.320548	0.019287
O254	O	-0.845505	0.687391	-0.706347
C255	C	-0.888813	0.735417	-0.706220
H256	H	-0.881014	0.724529	-0.664526
H257	H	-0.926871	0.740127	-0.718230
C258	C	-0.904823	0.809593	-0.797389
C259	C	-0.895242	0.796224	-0.746181
H260	H	-0.908791	0.847103	-0.822040
H261	H	-0.875647	0.777238	-0.797476
H262	H	-0.936537	0.813515	-0.807390
H263	H	-0.863526	0.792295	-0.736178
H264	H	-0.924413	0.828580	-0.746093
O265	O	-0.312548	-0.137112	0.157123
C266	C	-0.344972	-0.119496	0.185679
H267	H	-0.324800	-0.113054	0.210930
H268	H	-0.351029	-0.156822	0.212746
C269	C	-0.424233	-0.066445	0.115182
C270	C	-0.399460	-0.058528	0.146193
H271	H	-0.457845	-0.028839	0.090827
H272	H	-0.402389	-0.078315	0.095944
H273	H	-0.429275	-0.097552	0.137744
H274	H	-0.394412	-0.027427	0.123632
H275	H	-0.421305	-0.046651	0.165426
O276	O	0.019962	-0.314073	0.157058
C277	C	0.066165	-0.327847	0.142301
H278	H	0.081067	-0.368297	0.139475
H279	H	0.098465	-0.340433	0.173565
C280	C	0.034570	-0.221565	0.091239
C281	C	0.052871	-0.271244	0.087763
H282	H	0.026371	-0.186650	0.057598
H283	H	0.003443	-0.212286	0.101182
H284	H	0.061490	-0.232062	0.117294
H285	H	0.025949	-0.260749	0.061713
H286	H	0.083994	-0.280520	0.077814
O287	O	-0.157082	-0.469327	0.312527
C288	C	-0.154427	-0.426294	0.315457
H289	H	-0.187308	-0.377680	0.280051
H290	H	-0.113908	-0.434766	0.314534
C291	C	-0.121461	-0.493221	0.411219
C292	C	-0.161848	-0.433512	0.367735
H293	H	-0.126036	-0.497674	0.443467
H294	H	-0.123247	-0.522214	0.409246
H295	H	-0.087698	-0.500273	0.410443
H296	H	-0.195609	-0.426463	0.368508
H297	H	-0.160068	-0.404518	0.369710
H298	H	-0.161128	-0.465208	0.161163
O299	O	-0.040349	0.007403	-0.426072
C300	C	-0.086552	0.025060	-0.411315
H301	H	-0.101456	-0.003314	-0.408499
H302	H	-0.118851	0.076019	-0.442573
C303	C	-0.054954	0.048688	-0.360233
C304	C	-0.073256	0.013835	-0.356769
H305	H	-0.046754	0.041767	-0.326588
H306	H	-0.023826	0.036795	-0.370177
H307	H	-0.081872	0.091151	-0.386283
H308	H	-0.046336	-0.028627	-0.330724
H309	H	-0.104379	0.025721	-0.346820
O310	O	-0.026903	0.159148	-0.501572
C311	C	-0.024246	0.191726	-0.482953
H312	H	-0.038116	0.239566	-0.518396
H313	H	0.018636	0.165800	-0.457832
C314	C	-0.043501	0.138954	-0.405139
C315	C	-0.060540	0.197714	-0.448672
H316	H	-0.065886	0.142645	-0.383991
H317	H	-0.045288	0.117004	-0.417682
H318	H	-0.007765	0.117355	-0.384211
H319	H	-0.096273	0.219309	-0.469602
H320	H	-0.058759	0.219668	-0.436132
O321	O	-0.498373	-0.766057	0.026978
C322	C	-0.516988	-0.798639	0.024325
H323	H	-0.481544	-0.846477	0.038196
H324	H	-0.542109	-0.772714	-0.018558
C325	C	-0.594801	-0.745872	0.043579
C326	C	-0.551268	-0.804630	0.060620
H327	H	-0.615949	-0.749566	0.065966
H328	H	-0.582261	-0.723919	0.045365
H329	H	-0.615729	-0.724274	0.007843
H330	H	-0.530338	-0.826224	0.096353
H331	H	-0.563806	-0.826587	0.058841
H332	H	-0.490215	0.626864	-0.653559
H333	H	-0.161136	-0.141377	0.161182
H334	H	-0.840890	-0.320560	0.019306
O335	O	0.019978	-0.469487	0.157094
C336	C	0.066160	-0.487111	0.142299
H337	H	0.097858	-0.493564	0.168923
H338	H	0.055896	-0.449785	0.098907
C339	C	0.048720	-0.540143	0.116091
C340	C	0.087654	-0.548074	0.148794
H341	H	0.061978	-0.577746	0.120094
H342	H	0.017606	-0.528267	0.126057
H343	H	0.040171	-0.509036	0.079933
H344	H	0.096198	-0.579175	0.184951
H345	H	0.118771	-0.559956	0.138834
O346	O	-0.418357	-0.614264	0.040372
C347	C	-0.400686	-0.579902	0.040599
H348	H	-0.425782	-0.553177	0.056962
H349	H	-0.404952	-0.546297	-0.001834
C350	C	-0.310896	-0.656683	0.055967
C351	C	-0.341717	-0.623864	0.076069
H352	H	-0.274521	-0.683800	0.077845
H353	H	-0.322801	-0.679833	0.055813
H354	H	-0.314458	-0.628674	0.020606
H355	H	-0.338161	-0.651873	0.111427
H356	H	-0.329810	-0.600720	0.076231
O357	O	-0.312548	-0.137051	-0.019959
C358	C	-0.344965	-0.076094	-0.066142
H359	H	-0.324787	-0.071025	-0.097833
H360	H	-0.351021	-0.042979	-0.055876
C361	C	-0.424235	-0.067314	-0.048726
C362	C	-0.399454	-0.061089	-0.087651
H363	H	-0.457847	-0.058057	-0.061993
H364	H	-0.402395	-0.108381	-0.017610
H365	H	-0.429277	-0.039717	-0.040174
H366	H	-0.394407	-0.088691	-0.096198
H367	H	-0.421294	-0.020026	-0.118769
H368	H	-0.040160	0.003216	-0.573279
H369	H	-0.019230	-0.285631	-0.555806
O370	O	-0.026799	-0.081443	-0.657771
C371	C	0.016687	-0.091358	-0.628820
H372	H	0.049945	-0.142738	-0.602194
H373	H	0.003264	-0.073559	-0.603082
C374	C	-0.003451	0.006278	-0.700633
C375	C	0.037398	-0.056827	-0.667934
H376	H	0.009323	0.027581	-0.724760
H377	H	-0.032750	0.012960	-0.720138
H378	H	-0.014634	0.021102	-0.679179
H379	H	0.048575	-0.071651	-0.689388
H380	H	0.066699	-0.063510	-0.648434
O381	O	-0.573922	-0.614240	0.040336
C382	C	-0.625955	-0.579900	0.040597
H383	H	-0.639001	-0.531000	0.023362
H384	H	-0.626396	-0.602484	0.083294
C385	C	-0.648550	-0.637997	0.027656
C386	C	-0.664576	-0.577935	0.006483
H387	H	-0.672374	-0.636787	0.006615
H388	H	-0.613494	-0.661134	0.027482
H389	H	-0.648918	-0.656810	0.063236
H390	H	-0.664201	-0.559126	-0.029094
H391	H	-0.699633	-0.554795	0.006650
O392	O	-0.739194	0.159321	-0.657768
C393	C	-0.685889	0.110056	-0.624574
H394	H	-0.683047	0.090991	-0.581095
H395	H	-0.659362	0.127131	-0.634943
C396	C	-0.670824	0.082341	-0.686442
C397	C	-0.667334	0.058923	-0.633040
H398	H	-0.659377	0.050801	-0.691665
H399	H	-0.706736	0.115534	-0.708807
H400	H	-0.648719	0.096571	-0.695077
H401	H	-0.689444	0.044701	-0.624408
H402	H	-0.631425	0.025727	-0.610674
H403	H	-0.040166	-0.139808	-0.430213
H404	H	0.019760	-0.465234	0.304248
O405	O	-0.019002	0.257331	-0.550559
C406	C	-0.062486	0.319821	-0.579402
H407	H	-0.095739	0.328404	-0.606128
H408	H	-0.049056	0.349973	-0.605028
C409	C	-0.042365	0.325213	-0.507362
C410	C	-0.083209	0.335754	-0.540184
H411	H	-0.055147	0.335043	-0.483171
H412	H	-0.013068	0.283113	-0.487930
H413	H	-0.031177	0.350341	-0.528723
H414	H	-0.094391	0.310621	-0.518824
H415	H	-0.112508	0.377850	-0.559612
O416	O	-0.293587	0.532491	-0.551432
C417	C	-0.292450	0.530389	-0.504480
H418	H	-0.327331	0.530182	-0.491933
H419	H	-0.295752	0.572481	-0.512214
C420	C	-0.196786	0.471768	-0.475102
C421	C	-0.239625	0.471508	-0.459690
H422	H	-0.164200	0.435449	-0.447474
H423	H	-0.197551	0.473186	-0.506736
H424	H	-0.199545	0.506848	-0.481548
H425	H	-0.236869	0.436433	-0.453251
H426	H	-0.238857	0.470083	-0.428054
O427	O	-0.018790	0.257522	-0.706340
C428	C	0.029377	0.252665	-0.706217
H429	H	0.060186	0.214069	-0.664526
H430	H	0.022080	0.298004	-0.718220
C431	C	0.012393	0.285658	-0.797392
C432	C	0.050234	0.238249	-0.746188
H433	H	0.025257	0.276768	-0.822049
H434	H	-0.020060	0.288932	-0.797476
H435	H	0.006315	0.323435	-0.807387
H436	H	0.056306	0.200474	-0.736191
H437	H	0.082688	0.234968	-0.746103
H438	H	-0.026581	-0.089888	-0.256777
H439	H	-0.026547	0.163294	-0.653183
O440	O	-0.018893	-0.138212	-0.707099
C441	C	-0.021554	-0.084400	-0.725528
H442	H	-0.007690	-0.086007	-0.689984
H443	H	-0.064436	-0.042329	-0.750618
C444	C	-0.002287	-0.078306	-0.803439
C445	C	0.014745	-0.080282	-0.759783
H446	H	0.020101	-0.075763	-0.824571
H447	H	-0.000497	-0.114558	-0.791024
H448	H	-0.038023	-0.043246	-0.824341
H449	H	0.050477	-0.115345	-0.738878
H450	H	0.012961	-0.044034	-0.772195
O451	O	-0.448814	-0.139054	-0.154512
C452	C	-0.495772	-0.136939	-0.155490
H453	H	-0.491332	-0.172284	-0.161863
H454	H	-0.531074	-0.088951	-0.189447
C455	C	-0.510831	-0.108298	-0.094252
C456	C	-0.505376	-0.151712	-0.102075
H457	H	-0.516757	-0.117408	-0.061305
H458	H	-0.479195	-0.109720	-0.093595
H459	H	-0.540248	-0.068311	-0.122553
H460	H	-0.475956	-0.191697	-0.073779
H461	H	-0.537007	-0.150297	-0.102727
H462	H	-0.026564	-0.233284	-0.510448
H463	H	-0.489870	-0.090268	-0.256484
O464	O	-0.157065	-0.292608	-0.019787
C465	C	-0.154395	-0.341228	0.025928
H466	H	-0.187286	-0.321580	0.041669
H467	H	-0.113881	-0.372314	0.057972
C468	C	-0.121382	-0.403020	-0.008019
C469	C	-0.161781	-0.378887	0.011312
H470	H	-0.125935	-0.426252	-0.017033
H471	H	-0.123179	-0.370264	-0.038817
H472	H	-0.087624	-0.428920	0.018688
H473	H	-0.195538	-0.352981	-0.015397
H474	H	-0.159990	-0.411639	0.042105
H475	H	-0.026556	-0.233307	-0.256467
O476	O	-0.019009	-0.294081	-0.154508
C477	C	-0.062501	-0.284158	-0.135484
H478	H	-0.095749	-0.232775	-0.160251
H479	H	-0.049081	-0.301971	-0.091936
C480	C	-0.042391	-0.381773	-0.109656
C481	C	-0.083228	-0.318665	-0.140078
H482	H	-0.055175	-0.403061	-0.112487
H483	H	-0.013088	-0.388461	-0.122471
H484	H	-0.031211	-0.396609	-0.073369
H485	H	-0.094402	-0.303828	-0.176365
H486	H	-0.112533	-0.311976	-0.127269
H487	H	-0.426677	0.389946	-0.430194
O488	O	-0.573935	0.541214	-0.581562
C489	C	-0.625977	0.558648	-0.599240
H490	H	-0.639001	0.539970	-0.563364
H491	H	-0.626447	0.539051	-0.622320
C492	C	-0.648598	0.652333	-0.679896
C493	C	-0.664597	0.629397	-0.635833
H494	H	-0.672421	0.695974	-0.702471
H495	H	-0.613536	0.640587	-0.667988
H496	H	-0.648990	0.635996	-0.699124
H497	H	-0.664198	0.645727	-0.616603
H498	H	-0.699660	0.641147	-0.647740
H499	H	-0.841239	0.253681	-0.698962
O500	O	-0.573914	-0.458905	0.040356
C501	C	-0.625962	-0.441462	0.040576
H502	H	-0.627597	-0.482912	0.056956
H503	H	-0.655303	-0.403324	-0.001863
C504	C	-0.638962	-0.367028	0.055897
C505	C	-0.640969	-0.417938	0.076020
H506	H	-0.648221	-0.352515	0.077759
H507	H	-0.603898	-0.378777	0.055747
H508	H	-0.663413	-0.335252	0.020532
H509	H	-0.616513	-0.449715	0.111382
H510	H	-0.676030	-0.406194	0.076177
O511	O	-0.498037	-0.081800	-0.657534
C512	C	-0.516461	-0.066021	-0.708712
H513	H	-0.493238	-0.108865	-0.708663
H514	H	-0.510325	-0.030143	-0.739110
C515	C	-0.604769	0.013250	-0.723680
C516	C	-0.576249	-0.039374	-0.723618
H517	H	-0.641649	0.029690	-0.732876
H518	H	-0.592356	0.002621	-0.689201
H519	H	-0.599650	0.043141	-0.749011
H520	H	-0.581363	-0.069266	-0.698282
H521	H	-0.588664	-0.028749	-0.758093
O522	O	-0.573915	0.385805	-0.426193
C523	C	-0.625963	0.420178	-0.460794
H524	H	-0.627600	0.446896	-0.503892
H525	H	-0.655303	0.453789	-0.451978
C526	C	-0.638964	0.343416	-0.399345
C527	C	-0.640973	0.376228	-0.452279
H528	H	-0.648224	0.316307	-0.394092
H529	H	-0.603899	0.320259	-0.376033
H530	H	-0.663414	0.371431	-0.392006
H531	H	-0.616518	0.348213	-0.459616
H532	H	-0.676034	0.399380	-0.475593
H533	H	-0.490220	-0.373215	0.026628
H534	H	-0.570092	0.003538	-0.430229
O535	O	-0.449506	0.135931	-0.154932
C536	C	-0.500682	0.168676	-0.190330
H537	H	-0.500632	0.191851	-0.233139
H538	H	-0.531082	0.205191	-0.184834
C539	C	-0.515647	0.095349	-0.126011
C540	C	-0.515585	0.123809	-0.178591
H541	H	-0.524842	0.067675	-0.118769
H542	H	-0.481170	0.073289	-0.102162
H543	H	-0.540980	0.125784	-0.121438
H544	H	-0.490248	0.093375	-0.183161
H545	H	-0.550059	0.145863	-0.202440
O546	O	-0.342413	-0.237230	-0.501628
C547	C	-0.295456	-0.239340	-0.500505
H548	H	-0.299908	-0.203986	-0.542239
H549	H	-0.260157	-0.287324	-0.486468
C550	C	-0.280366	-0.268004	-0.410609
C551	C	-0.285835	-0.224579	-0.461866
H552	H	-0.274429	-0.258902	-0.386772
H553	H	-0.312000	-0.266585	-0.411363
H554	H	-0.250950	-0.307987	-0.398918
H555	H	-0.315254	-0.184598	-0.473558
H556	H	-0.254206	-0.225991	-0.461112
O557	O	-0.845490	-0.467547	0.019042
C558	C	-0.864499	-0.482107	0.062544
H559	H	-0.868445	-0.453182	0.077222
H560	H	-0.835280	-0.533044	0.096194
C561	C	-0.914556	-0.503802	0.026753
C562	C	-0.919407	-0.468272	0.044777
H563	H	-0.948424	-0.495271	0.015795
H564	H	-0.901748	-0.493995	-0.002555
H565	H	-0.890204	-0.546247	0.054797
H566	H	-0.943752	-0.425828	0.016731
H567	H	-0.932220	-0.478071	0.074080
O568	O	-0.845046	0.531411	-0.550442
C569	C	-0.809645	0.477588	-0.499276
H570	H	-0.775709	0.479190	-0.487008
H571	H	-0.792648	0.435526	-0.500087
C572	C	-0.881460	0.471485	-0.473928
C573	C	-0.839781	0.473454	-0.458858
H574	H	-0.900049	0.468932	-0.448997
H575	H	-0.905310	0.507744	-0.508400
H576	H	-0.867290	0.436433	-0.474604
H577	H	-0.853953	0.508509	-0.458189
H578	H	-0.815934	0.437200	-0.424385
H579	H	-0.743175	-0.373219	0.026636
H580	H	-0.490217	0.230142	-0.256784
O581	O	-0.449380	-0.864243	0.019083
C582	C	-0.420534	-0.926733	0.062569
H583	H	-0.393812	-0.935311	0.095821
H584	H	-0.394904	-0.956885	0.049141
C585	C	-0.492566	-0.932138	0.042451
C586	C	-0.459748	-0.942673	0.083293
H587	H	-0.516754	-0.941972	0.055233
H588	H	-0.512000	-0.890038	0.013152
H589	H	-0.471202	-0.957266	0.031265
H590	H	-0.481112	-0.917540	0.094474
H591	H	-0.440319	-0.984769	0.112595
H592	H	-0.301733	-0.860548	0.019286
O593	O	-0.449520	0.688020	-0.707050
C594	C	-0.500691	0.703790	-0.725485
H595	H	-0.512949	0.682111	-0.689943
H596	H	-0.499894	0.686011	-0.750581
C597	C	-0.526048	0.800940	-0.803385
C598	C	-0.541106	0.774319	-0.759732
H599	H	-0.550977	0.844446	-0.824512
H600	H	-0.491573	0.790316	-0.790966
H601	H	-0.525384	0.786118	-0.824292
H602	H	-0.541763	0.789135	-0.738822
H603	H	-0.575582	0.784948	-0.772148
O604	O	-0.342584	0.475315	-0.502218
C605	C	-0.371418	0.485143	-0.468550
H606	H	-0.415075	0.524694	-0.493443
H607	H	-0.354135	0.497156	-0.446914
C608	C	-0.313666	0.377645	-0.396799
C609	C	-0.367288	0.426220	-0.427373
H610	H	-0.311117	0.341298	-0.371397
H611	H	-0.294239	0.371024	-0.419481
H612	H	-0.299270	0.387664	-0.378774
H613	H	-0.381681	0.416203	-0.445402
H614	H	-0.386717	0.432838	-0.404693
H615	H	-0.743487	-0.516312	0.026628
O616	O	-0.342427	0.233659	-0.260602
C617	C	-0.291259	0.200930	-0.225199
H618	H	-0.278995	0.153137	-0.191270
H619	H	-0.292064	0.226799	-0.208190
C620	C	-0.265910	0.253497	-0.297007
C621	C	-0.250844	0.194794	-0.255337
H622	H	-0.240980	0.249713	-0.315598
H623	H	-0.300383	0.275549	-0.320859
H624	H	-0.266581	0.275047	-0.282827
H625	H	-0.250180	0.173247	-0.269519
H626	H	-0.216370	0.172738	-0.231488
O627	O	-0.293594	0.135550	-0.154415
C628	C	-0.293710	0.140417	-0.111112
H629	H	-0.329928	0.144249	-0.099068
H630	H	-0.295566	0.183154	-0.123321
C631	C	-0.197924	0.078119	-0.078381
C632	C	-0.242405	0.082820	-0.063585
H633	H	-0.166276	0.042592	-0.049064
H634	H	-0.197845	0.074841	-0.107556
H635	H	-0.199478	0.113737	-0.088555
H636	H	-0.240854	0.047206	-0.053418
H637	H	-0.242483	0.086090	-0.034407
H638	H	-0.743179	0.483055	-0.509743
H639	H	-0.743490	0.626486	-0.653184
H640	H	-0.346776	-0.516292	0.026600
O641	O	-0.342521	-0.766239	0.026838
C642	C	-0.329241	-0.744796	-0.019983
H643	H	-0.357323	-0.734904	-0.053121
H644	H	-0.286374	-0.781372	-0.011971
C645	C	-0.300219	-0.697479	0.003514
C646	C	-0.334712	-0.685323	-0.037188
H647	H	-0.303591	-0.660795	-0.007098
H648	H	-0.309163	-0.711927	0.035059
H649	H	-0.264499	-0.727960	0.010186
H650	H	-0.370431	-0.654848	-0.043855
H651	H	-0.325773	-0.670869	-0.068735
O652	O	-0.293544	-0.467652	0.019025
C653	C	-0.258718	-0.527706	0.065849
H654	H	-0.282373	-0.547226	0.084065
H655	H	-0.238429	-0.526195	0.095669
C656	C	-0.187080	-0.545003	0.029737
C657	C	-0.216132	-0.568980	0.052107
H658	H	-0.160809	-0.570463	0.021261
H659	H	-0.210541	-0.504543	-0.001809
H660	H	-0.170176	-0.543745	0.054590
H661	H	-0.233040	-0.570230	0.027251
H662	H	-0.192672	-0.609442	0.083649
O663	O	-0.418726	-0.147701	-0.426035
C664	C	-0.401055	-0.165112	-0.374001
H665	H	-0.436933	-0.146437	-0.360980
H666	H	-0.377987	-0.145497	-0.373546
C667	C	-0.320384	-0.258793	-0.351360
C668	C	-0.364449	-0.235860	-0.335365
H669	H	-0.297801	-0.302433	-0.327528
H670	H	-0.332288	-0.247062	-0.386417
H671	H	-0.301166	-0.242442	-0.350980
H672	H	-0.383669	-0.252205	-0.335752
H673	H	-0.352547	-0.247595	-0.300307
H674	H	-0.301369	-0.286012	-0.159078
O675	O	-0.293168	-0.294430	-0.550594
C676	C	-0.259508	-0.284606	-0.579444
H677	H	-0.277653	-0.233228	-0.606166
H678	H	-0.254979	-0.302556	-0.605077
C679	C	-0.182064	-0.382133	-0.507418
C680	C	-0.204347	-0.319030	-0.540234
H681	H	-0.148036	-0.403370	-0.483233
H682	H	-0.204740	-0.388754	-0.487982
H683	H	-0.178294	-0.397083	-0.528785
H684	H	-0.208122	-0.304080	-0.518869
H685	H	-0.181669	-0.312408	-0.559667
O686	O	-0.845841	0.258010	-0.551658
C687	C	-0.864851	0.320501	-0.580598
H688	H	-0.868798	0.339120	-0.624212
H689	H	-0.835633	0.324930	-0.563294
C690	C	-0.914907	0.334760	-0.523102
C691	C	-0.919759	0.357629	-0.576671
H692	H	-0.948776	0.357662	-0.520678
H693	H	-0.902098	0.292658	-0.503603
H694	H	-0.890556	0.338452	-0.508689
H695	H	-0.944104	0.353929	-0.591081
H696	H	-0.932574	0.399731	-0.596172
O697	O	-0.739700	0.159780	-0.502288
C698	C	-0.775093	0.192522	-0.483865
H699	H	-0.817904	0.215689	-0.507088
H700	H	-0.769602	0.229043	-0.490002
C701	C	-0.710763	0.119205	-0.395556
C702	C	-0.763343	0.147654	-0.424076
H703	H	-0.703514	0.091530	-0.358675
H704	H	-0.686917	0.097147	-0.407968
H705	H	-0.706193	0.149645	-0.400676
H706	H	-0.767910	0.117215	-0.418960
H707	H	-0.787190	0.169707	-0.411661
O708	O	-0.448762	-0.139098	-0.706368
C709	C	-0.453498	-0.182513	-0.706248
H710	H	-0.450417	-0.216395	-0.664558
H711	H	-0.420147	-0.208557	-0.718250
C712	C	-0.511670	-0.107376	-0.797424
C713	C	-0.507890	-0.148987	-0.746220
H714	H	-0.545220	-0.086696	-0.822082
H715	H	-0.508478	-0.078126	-0.797506
H716	H	-0.483874	-0.129086	-0.807418
H717	H	-0.535681	-0.127276	-0.736224
H718	H	-0.511087	-0.178232	-0.746138
H719	H	-0.570087	0.003544	-0.573301
H720	H	-0.346709	-0.233340	-0.256801
