data_functionalizedCrystal
_audit_creation_method	'MofGen! by Chris Wilmer'
_symmetry_space_group_name_H-M	'P1'
_symmetry_Int_Tables_number	1
_symmetry_cell_setting	triclinic
loop_
_symmetry_equiv_pos_as_xyz
  x,y,z
_cell_length_a	10.686220
_cell_length_b	21.295417
_cell_length_c	10.685314
_cell_angle_alpha	94.327544
_cell_angle_beta	98.357559
_cell_angle_gamma	94.412682
loop_
_atom_site_label
_atom_site_type_symbol
_atom_site_fract_x
_atom_site_fract_y
_atom_site_fract_z
Zn1	Zn	1.885387	-0.200077	-0.568967
Zn2	Zn	1.901480	-0.296632	-0.356714
Zn3	Zn	1.689397	-0.200129	-0.373002
Zn4	Zn	1.673056	-0.314067	-0.585149
O5	O	1.787330	-0.252726	-0.470958
O6	O	2.065141	-0.205567	-0.527223
O7	O	1.886921	-0.276555	-0.181263
O8	O	1.715500	-0.112031	-0.399042
O9	O	2.076964	-0.276505	-0.371282
O10	O	1.859493	-0.111992	-0.543016
O11	O	1.731104	-0.205655	-0.193229
O12	O	1.509611	-0.222562	-0.414732
O13	O	1.687648	-0.306221	-0.760615
O14	O	1.497605	-0.306271	-0.570595
O15	O	1.843647	-0.222473	-0.748726
O16	O	1.871075	-0.387036	-0.386972
O17	O	1.703253	-0.399846	-0.554802
C18	C	1.457553	-0.266315	-0.496188
C19	C	1.316471	-0.272144	-0.507012
C20	C	1.787169	-0.416282	-0.470901
C21	C	1.787213	-0.486249	-0.470909
C22	C	1.874664	-0.512425	-0.383598
C23	C	1.874721	-0.578166	-0.383622
C24	C	1.787306	-0.617729	-0.470946
C25	C	1.699848	-0.591546	-0.558273
C26	C	1.699802	-0.525806	-0.558255
N27	N	1.675529	-0.725972	-0.489117
N28	N	1.675578	-0.788422	-0.489126
C29	C	1.787443	-0.815801	-0.471008
N30	N	1.899262	-0.778370	-0.452854
N31	N	1.899213	-0.715914	-0.452838
C32	C	1.787347	-0.689014	-0.470976
C33	C	1.874963	-0.913261	-0.383718
C34	C	1.875021	-0.979003	-0.383750
C35	C	1.700138	-0.992382	-0.558396
C36	C	1.700090	-0.926640	-0.558369
C37	C	1.787501	-0.887083	-0.471023
C38	C	2.118395	-0.239085	-0.445630
C39	C	2.259475	-0.233272	-0.434837
C40	C	1.762030	-0.266286	-0.802011
C41	C	1.751248	-0.272065	-0.943086
C42	C	1.787524	-0.088532	-0.471041
C43	C	1.787607	-0.018562	-0.471076
C44	C	1.812605	-0.239171	-0.141188
C45	C	1.823633	-0.233205	-0.000094
H46	H	1.945842	-0.480219	-0.312479
O47	O	1.238146	-0.322189	-0.599728
H48	H	1.302091	-0.349764	-0.650848
H49	H	1.893845	-0.195506	-0.940970
H50	H	1.318610	-0.195533	-0.364764
O51	O	1.658237	-0.321995	-1.021390
H52	H	1.560548	-0.314270	-1.003658
O53	O	1.969036	-0.606411	-0.289438
H54	H	2.029803	-0.567860	-0.228693
O55	O	1.605855	-1.035044	-0.652588
H56	H	1.507917	-1.025685	-0.638360
H57	H	1.628874	-0.905327	-0.629461
H58	H	1.628588	-0.504493	-0.629356
O59	O	1.605548	-0.634212	-0.652449
H60	H	1.620259	-0.684323	-0.637781
H61	H	1.946142	-0.881052	-0.312599
H62	H	1.946242	-1.000314	-0.312653
