data_functionalizedCrystal
_audit_creation_method	'MofGen! by Chris Wilmer'
_symmetry_space_group_name_H-M	'P1'
_symmetry_Int_Tables_number	1
_symmetry_cell_setting	triclinic
loop_
_symmetry_equiv_pos_as_xyz
  x,y,z
_cell_length_a	8.597187
_cell_length_b	14.519731
_cell_length_c	7.088668
_cell_angle_alpha	96.957502
_cell_angle_beta	104.526127
_cell_angle_gamma	84.515377
loop_
_atom_site_label
_atom_site_type_symbol
_atom_site_fract_x
_atom_site_fract_y
_atom_site_fract_z
O1	O	2.129081	0.165167	0.509725
O2	O	1.665244	0.171601	0.433322
O3	O	1.909441	0.034353	0.473529
O4	O	1.884884	0.302416	0.469518
O5	O	1.880162	0.016928	0.150714
O6	O	1.635965	0.154177	0.110507
O7	O	2.099802	0.147743	0.186911
Cu8	Cu	1.865210	0.149369	0.119233
Cu9	Cu	1.899836	0.169975	0.500999
O10	O	1.855605	0.284992	0.146704
C11	C	1.591242	0.161227	0.262136
C12	C	1.414362	0.156264	0.232999
C13	C	1.893651	-0.008738	0.311931
C14	C	1.890202	-0.111177	0.311362
C15	C	1.887400	-0.194368	0.310905
C16	C	1.883901	-0.298734	0.310343
C17	C	1.881123	-0.381920	0.309898
C18	C	1.877623	-0.486293	0.309332
C19	C	2.173804	0.158117	0.358101
C20	C	2.350686	0.163081	0.387250
C21	C	1.871396	0.328083	0.308305
C22	C	1.874845	0.430522	0.308887
N23	N	1.840868	0.134875	-0.149278
N24	N	1.924191	0.184462	0.769513
H25	H	1.431497	0.172716	0.541600
H26	H	1.754559	0.083491	-0.245193
F27	F	1.308747	0.143686	0.031260
H28	H	2.010515	0.235844	-0.134561
