data_functionalizedCrystal
_audit_creation_method	'MofGen! by Chris Wilmer'
_symmetry_space_group_name_H-M	'P1'
_symmetry_Int_Tables_number	1
_symmetry_cell_setting	triclinic
loop_
_symmetry_equiv_pos_as_xyz
  x,y,z
_cell_length_a	12.827893
_cell_length_b	25.639239
_cell_length_c	12.827885
_cell_angle_alpha	89.964018
_cell_angle_beta	89.980538
_cell_angle_gamma	90.038657
loop_
_atom_site_label
_atom_site_type_symbol
_atom_site_fract_x
_atom_site_fract_y
_atom_site_fract_z
Zn1	Zn	1.597502	-0.208126	-0.590804
Zn2	Zn	2.097502	0.291874	-0.090804
Zn3	Zn	1.597325	-0.295571	-0.416045
Zn4	Zn	2.097325	0.204429	0.083955
Zn5	Zn	1.422743	-0.208151	-0.416077
Zn6	Zn	1.922743	0.291849	0.083923
Zn7	Zn	1.422658	-0.295532	-0.590745
Zn8	Zn	1.922658	0.204468	-0.090745
O9	O	1.510057	-0.251845	-0.503418
O10	O	2.010057	0.248155	-0.003418
O11	O	1.743715	-0.219731	-0.567633
O12	O	2.243715	0.280269	-0.067633
O13	O	1.574128	-0.284002	-0.269813
O14	O	2.074128	0.215998	0.230187
O15	O	1.446035	-0.134983	-0.439293
O16	O	1.946035	0.365017	0.060707
O17	O	1.743584	-0.283977	-0.439238
O18	O	2.243584	0.216023	0.060762
O19	O	1.574430	-0.134964	-0.567664
O20	O	2.074430	0.365036	-0.067664
O21	O	1.445863	-0.219775	-0.269837
O22	O	1.945863	0.280225	0.230163
O23	O	1.276496	-0.219737	-0.439236
O24	O	1.776496	0.280263	0.060764
O25	O	1.445890	-0.283911	-0.736989
O26	O	1.945890	0.216089	-0.236989
O27	O	1.276433	-0.283935	-0.567564
O28	O	1.776433	0.216065	-0.067564
O29	O	1.574348	-0.219694	-0.737032
O30	O	2.074348	0.280306	-0.237032
O31	O	1.574045	-0.368731	-0.439181
O32	O	2.074045	0.131269	0.060819
O33	O	1.445718	-0.368702	-0.567533
O34	O	1.945718	0.131298	-0.067533
C35	C	1.238547	-0.251835	-0.503398
C36	C	1.738547	0.248165	-0.003398
C37	C	1.122394	-0.251843	-0.503414
C38	C	1.622394	0.248157	-0.003414
C39	C	1.070606	-0.283660	-0.566817
C40	C	1.570606	0.216340	-0.066817
C41	C	0.950556	-0.283670	-0.566835
C42	C	1.450556	0.216330	-0.066835
C43	C	1.509881	-0.387688	-0.503370
C44	C	2.009881	0.112312	-0.003370
C45	C	1.509902	-0.445802	-0.503384
C46	C	2.009902	0.054198	-0.003384
C47	C	1.577051	-0.806167	-0.436699
C48	C	2.077051	-0.306167	0.063301
C49	C	1.577092	-0.860771	-0.436713
C50	C	2.077092	-0.360771	0.063287
O51	O	1.634003	-0.889010	-0.379962
O52	O	2.134003	-0.389010	0.120038
N53	N	1.510241	-0.888084	-0.503487
N54	N	2.010241	-0.388084	-0.003487
C55	C	1.443352	-0.860790	-0.570259
C56	C	1.943352	-0.360790	-0.070259
O57	O	1.386495	-0.889035	-0.627057
O58	O	1.886495	-0.389035	-0.127057
C59	C	1.443318	-0.806186	-0.570249
C60	C	1.943318	-0.306186	-0.070249
C61	C	1.510166	-0.778876	-0.503463
C62	C	2.010166	-0.278876	-0.003463
C63	C	1.643895	-0.778857	-0.369920
C64	C	2.143895	-0.278857	0.130080
C65	C	1.643853	-0.724256	-0.369904
C66	C	2.143853	-0.224256	0.130096
C67	C	1.576967	-0.696966	-0.436669
C68	C	2.076967	-0.196966	0.063331
C69	C	1.510124	-0.724276	-0.503448
C70	C	2.010124	-0.224276	-0.003448
C71	C	1.376436	-0.778893	-0.637026
C72	C	1.876436	-0.278893	-0.137026
C73	C	1.376407	-0.724286	-0.637011
C74	C	1.876407	-0.224286	-0.137011
C75	C	1.443255	-0.696976	-0.570225
C76	C	1.943255	-0.196976	-0.070225
C77	C	1.443196	-0.642385	-0.570198
C78	C	1.943196	-0.142385	-0.070198
N79	N	1.510047	-0.615072	-0.503424
N80	N	2.010047	-0.115072	-0.003424
C81	C	1.576933	-0.642363	-0.436659
C82	C	2.076933	-0.142363	0.063341
C83	C	1.443431	-0.975460	-0.570275
C84	C	1.943431	-0.475460	-0.070275
C85	C	1.443460	-1.030063	-0.570280
C86	C	1.943460	-0.530063	-0.070280
C87	C	1.577201	-1.030040	-0.436735
C88	C	2.077201	-0.530040	0.063265
C89	C	1.577166	-0.975437	-0.436726
C90	C	2.077166	-0.475437	0.063274
C91	C	1.510282	-0.948148	-0.503501
C92	C	2.010282	-0.448148	-0.003501
C93	C	1.576838	-0.527698	-0.436632
C94	C	2.076838	-0.027698	0.063368
C95	C	1.576787	-0.473092	-0.436620
C96	C	2.076787	0.026908	0.063380
C97	C	1.443051	-0.473119	-0.570168
C98	C	1.943051	0.026881	-0.070168
C99	C	1.443097	-0.527720	-0.570177
C100	C	1.943097	-0.027720	-0.070177
C101	C	1.510000	-0.555008	-0.503405
C102	C	2.010000	-0.055008	-0.003405
O103	O	1.386317	-0.614112	-0.626923
O104	O	1.886317	-0.114112	-0.126923
O105	O	1.633790	-0.614110	-0.379880
O106	O	2.133790	-0.114110	0.120120
C107	C	1.782627	-0.251856	-0.503438
C108	C	2.282627	0.248144	-0.003438
C109	C	1.898780	-0.251860	-0.503447
C110	C	2.398780	0.248140	-0.003447
C111	C	1.510129	-0.251795	-0.775988
C112	C	2.010129	0.248205	-0.275988
C113	C	1.510160	-0.251773	-0.892141
C114	C	2.010160	0.248227	-0.392141
C115	C	1.510262	-0.115472	-0.503489
C116	C	2.010262	0.384528	-0.003489
C117	C	1.510349	-0.057358	-0.503519
C118	C	2.010349	0.442642	-0.003519
C119	C	1.446711	-0.219986	-0.943938
C120	C	1.946711	0.280014	-0.443938
C121	C	1.446741	-0.219963	-1.063988
C122	C	1.946741	0.280037	-0.563988
C123	C	1.510046	-0.251857	-0.231908
C124	C	2.010046	0.248143	0.268092
C125	C	1.510217	-0.251731	-0.115755
C126	C	2.010217	0.248269	0.384245
H127	H	1.631223	-0.450858	-0.382231
H128	H	2.131223	0.049142	0.117769
H129	H	1.389015	-1.052294	-0.624654
H130	H	1.889015	-0.552294	-0.124654
F131	F	1.648043	-0.556732	-0.365566
F132	F	2.148043	-0.056732	0.134434
F133	F	1.648315	-0.946377	-0.365645
F134	F	2.148315	-0.446377	0.134355
H135	H	1.564545	-0.278945	-1.071218
H136	H	2.064545	0.221055	-0.571218
H137	H	1.321943	-0.702069	-0.691391
H138	H	1.821943	-0.202069	-0.191391
F139	F	1.375688	-0.184430	-0.885737
F140	F	1.875688	0.315570	-0.385737
H141	H	1.698289	-0.702024	-0.315525
H142	H	2.198289	-0.202024	0.184475
H143	H	1.115145	-0.310891	-0.621088
H144	H	1.615145	0.189109	-0.121088
H145	H	1.392425	-0.192746	-1.108532
H146	H	1.892425	0.307254	-0.608532
F147	F	1.581188	-0.287327	-0.950342
F148	F	2.081188	0.212673	-0.450342
F149	F	1.648385	-1.059095	-0.365676
F150	F	2.148385	-0.559095	0.134324
H151	H	0.943310	-0.224621	-0.449159
H152	H	1.443310	0.275379	0.050841
F153	F	1.064184	-0.216244	-0.432485
F154	F	1.564184	0.283756	0.067515
F155	F	1.715092	-0.807893	-0.298855
F156	F	2.215092	-0.307893	0.201145
F157	F	0.892347	-0.319278	-0.637782
F158	F	1.392347	0.180722	-0.137782
H159	H	1.321996	-0.801120	-0.691405
H160	H	1.821996	-0.301120	-0.191405
H161	H	1.388957	-0.953244	-0.624648
H162	H	1.888957	-0.453244	-0.124648
H163	H	1.388668	-0.549957	-0.624562
H164	H	1.888668	-0.049957	-0.124562
F165	F	1.371873	-0.444065	-0.641223
F166	F	1.871873	0.055935	-0.141223
