data_functionalizedCrystal
_audit_creation_method	'MofGen! by Chris Wilmer'
_symmetry_space_group_name_H-M	'P1'
_symmetry_Int_Tables_number	1
_symmetry_cell_setting	triclinic
loop_
_symmetry_equiv_pos_as_xyz
  x,y,z
_cell_length_a	14.853566
_cell_length_b	15.538191
_cell_length_c	13.330367
_cell_angle_alpha	89.997411
_cell_angle_beta	89.995295
_cell_angle_gamma	65.453254
loop_
_atom_site_label
_atom_site_type_symbol
_atom_site_fract_x
_atom_site_fract_y
_atom_site_fract_z
O1	O	1.155996	0.122929	-0.083349
O2	O	0.888726	0.137574	-0.083365
O3	O	1.074387	-0.006810	-0.083359
O4	O	0.970334	0.267313	-0.083356
O5	O	1.074368	-0.006813	0.083488
O6	O	0.888707	0.137571	0.083482
O7	O	1.155977	0.122925	0.083498
Cu8	Cu	1.022340	0.130248	0.098724
Cu9	Cu	1.022362	0.130252	-0.098592
O10	O	0.970315	0.267310	0.083492
C11	C	0.855345	0.136909	0.000056
C12	C	0.755915	0.134921	0.000050
C13	C	0.335502	0.126515	-0.090881
C14	C	0.335502	0.126512	0.091022
C15	C	0.428923	0.128379	0.091019
C16	C	0.475637	0.129315	0.000065
C17	C	0.428930	0.128385	-0.090887
C18	C	0.475633	0.129319	0.181969
C19	C	0.569059	0.131187	0.181970
C20	C	0.615778	0.132116	0.091014
C21	C	0.569065	0.131185	0.000059
C22	C	0.615779	0.132121	-0.090895
C23	C	0.569072	0.131183	-0.181852
C24	C	0.475649	0.129314	-0.181842
C25	C	0.709201	0.133985	0.091005
C26	C	0.709208	0.133991	-0.090901
C27	C	1.085264	-0.041893	0.000062
C28	C	1.117692	-0.146424	0.000054
C29	C	0.795531	-0.434635	0.000057
C30	C	0.826025	-0.532861	0.000061
C31	C	0.997543	-0.555080	0.000070
C32	C	0.967064	-0.456854	0.000061
C33	C	0.866057	-0.396639	0.000056
C34	C	1.037590	-0.418858	0.000060
C35	C	1.007113	-0.320640	0.000057
C36	C	0.906110	-0.260419	0.000054
C37	C	0.835580	-0.298421	0.000052
C38	C	1.138597	-0.479075	0.000073
C39	C	1.209123	-0.441079	0.000072
C40	C	1.178646	-0.342860	0.000061
C41	C	1.077643	-0.282638	0.000059
C42	C	1.249176	-0.304858	0.000063
C43	C	1.218699	-0.206640	0.000060
C44	C	1.047166	-0.184421	0.000055
C45	C	1.189357	0.123590	0.000074
C46	C	1.288788	0.125578	0.000074
C47	C	0.959438	0.302393	0.000069
C48	C	0.927011	0.406924	0.000070
N49	N	1.022331	0.130245	0.237506
N50	N	1.022381	0.130248	-0.237373
C51	C	0.940157	0.194160	0.710126
C52	C	1.104594	0.066336	0.710099
C53	C	1.104585	0.066333	0.605081
C54	C	1.022361	0.130246	0.552580
C55	C	0.940147	0.194161	0.605098
C56	C	1.186802	0.002425	0.552556
C57	C	1.186797	0.002421	0.447531
C58	C	1.104569	0.066329	0.395028
C59	C	1.022351	0.130247	0.447552
C60	C	0.940127	0.194159	0.395052
C61	C	0.857905	0.258073	0.447574
C62	C	0.857919	0.258070	0.552595
C63	C	1.104555	0.066332	0.290007
C64	C	0.940116	0.194160	0.290023
H65	H	0.437589	0.128563	0.256019
H66	H	1.253745	-0.049621	0.404774
F67	F	1.192102	-0.001675	0.765974
H68	H	1.291363	-0.490119	0.000081
F69	F	0.425947	0.128286	-0.278635
H70	H	0.297470	0.125747	-0.164935
H71	H	0.297459	0.125756	0.165073
H72	H	0.873211	0.246195	0.752892
H73	H	0.607116	0.131952	-0.255907
F74	F	0.770402	0.326096	0.391687
F75	F	0.618761	0.132184	0.278772
H76	H	0.747222	0.134758	0.165060
F77	F	0.939662	-0.120329	0.000039
F78	F	1.192059	-0.001679	0.234115
F79	F	0.873673	-0.155886	0.000058
F80	F	1.274310	-0.065586	0.608430
F81	F	0.758920	0.134981	-0.187710
F82	F	1.356672	-0.368954	0.000086
H83	H	0.753330	-0.249390	0.000040
H84	H	0.713281	-0.385604	0.000044
H85	H	0.768586	-0.563792	0.000076
F86	F	1.171031	-0.583608	0.000084
F87	F	1.105039	-0.619175	0.000084
H88	H	1.276129	-0.175703	0.000060
H89	H	0.873157	0.246202	0.247284
F90	F	0.770420	0.326088	0.608497
