data_functionalizedCrystal
_audit_creation_method	'MofGen! by Chris Wilmer'
_symmetry_space_group_name_H-M	'P1'
_symmetry_Int_Tables_number	1
_symmetry_cell_setting	triclinic
loop_
_symmetry_equiv_pos_as_xyz
  x,y,z
_cell_length_a	6.817900
_cell_length_b	11.102289
_cell_length_c	16.255661
_cell_angle_alpha	93.854258
_cell_angle_beta	103.488922
_cell_angle_gamma	108.605707
loop_
_atom_site_label
_atom_site_type_symbol
_atom_site_fract_x
_atom_site_fract_y
_atom_site_fract_z
V1	V	-4.052939	-0.176866	-0.263871
O2	O	-4.013087	0.007443	-0.258848
O3	O	-4.030117	-0.349679	-0.262066
O4	O	-4.004166	-0.174609	-0.378954
O5	O	-4.039217	-0.168840	-0.141151
V6	V	-4.533301	-0.154766	-0.249193
O7	O	-4.321131	-0.225344	-0.296069
O8	O	-4.715306	-0.106287	-0.216995
O9	O	-4.332916	0.018048	-0.250997
O10	O	-4.690550	-0.339074	-0.254216
O11	O	-4.664420	-0.162792	-0.371913
O12	O	-4.358867	-0.157023	-0.134109
C13	C	-3.881352	-0.391793	-0.257903
C14	C	-3.943976	-0.533073	-0.257195
C15	C	-4.156467	-0.605936	-0.261084
C16	C	-4.215301	-0.738685	-0.260425
C17	C	-3.849130	-0.725694	-0.251985
C18	C	-3.790303	-0.592949	-0.252650
C19	C	-4.367872	-0.613436	-0.265953
C20	C	-4.426706	-0.746185	-0.265294
C21	C	-3.848248	-0.168471	-0.407005
C22	C	-3.889824	-0.167770	-0.501086
C23	C	-3.799137	-0.159385	-0.723905
C24	C	-3.971599	-0.267595	-0.793381
C25	C	-3.966013	-0.166454	-0.673335
C26	C	-3.867658	-0.057005	-0.771496
C27	C	-4.039592	-0.165176	-0.839718
C28	C	-4.137972	-0.274760	-0.741581
C29	C	-4.033954	-0.064074	-0.719680
C30	C	-4.206557	-0.172315	-0.789137
C31	C	-3.923622	-0.167190	-0.577485
C32	C	-4.082002	-0.164450	-0.935567
C33	C	-4.145024	0.060155	-0.255158
C34	C	-4.061638	0.201433	-0.255872
C35	C	-4.178128	-0.163164	-0.106054
C36	C	-4.115789	-0.163859	-0.011972
H37	H	-4.466071	-0.594455	-0.327502
Br38	Br	-3.928418	-0.411011	-0.846860
Br39	Br	-4.327787	-0.428311	-0.719142
H40	H	-4.379244	-0.177810	-0.817484
Br41	Br	-3.640591	-0.806964	-0.245820
Br42	Br	-3.677857	0.096379	-0.794134
Br43	Br	-3.501925	-0.494070	-0.247392
Br44	Br	-4.390046	-0.524320	-0.166497
Br45	Br	-4.622896	-0.843057	-0.369846
H46	H	-3.626593	-0.154059	-0.695424
Br47	Br	-4.533618	-0.787441	-0.168943
Br48	Br	-4.077014	0.079347	-0.666159
