data_functionalizedCrystal
_audit_creation_method	'MofGen! by Chris Wilmer'
_symmetry_space_group_name_H-M	'P1'
_symmetry_Int_Tables_number	1
_symmetry_cell_setting	triclinic
loop_
_symmetry_equiv_pos_as_xyz
  x,y,z
_cell_length_a	10.968094
_cell_length_b	19.188930
_cell_length_c	10.065875
_cell_angle_alpha	81.245692
_cell_angle_beta	86.881123
_cell_angle_gamma	83.945588
loop_
_atom_site_label
_atom_site_type_symbol
_atom_site_fract_x
_atom_site_fract_y
_atom_site_fract_z
O1	O	1.612229	0.121714	-0.265622
O2	O	1.262180	0.123712	-0.183301
O3	O	1.447302	0.021340	-0.226863
O4	O	1.427107	0.224085	-0.222060
O5	O	1.412002	0.040943	-0.445545
O6	O	1.226879	0.143314	-0.401982
O7	O	1.576929	0.141317	-0.484304
Zn8	Zn	1.396299	0.145428	-0.477864
Zn9	Zn	1.442810	0.119600	-0.189741
O10	O	1.391807	0.243688	-0.440742
C11	C	1.199745	0.131887	-0.282110
C12	C	1.066303	0.127035	-0.250729
C13	C	0.850597	0.130004	-0.317580
C14	C	0.988514	0.135025	-0.350027
C15	C	1.428997	0.005113	-0.336054
C16	C	1.427031	-0.072445	-0.335603
C17	C	1.535656	-0.114347	-0.361155
C18	C	1.533815	-0.187224	-0.360700
C19	C	1.423337	-0.218194	-0.334718
C20	C	1.314699	-0.176283	-0.309155
C21	C	1.316546	-0.103409	-0.309598
N22	N	1.326877	-0.321876	-0.389280
N23	N	1.325130	-0.391104	-0.388864
C24	C	1.417766	-0.437760	-0.333380
N25	N	1.512233	-0.412572	-0.278349
N26	N	1.513983	-0.343338	-0.278771
C27	C	1.421323	-0.297213	-0.334234
C28	C	1.524402	-0.558684	-0.358439
C29	C	1.522557	-0.631563	-0.357975
C30	C	1.303437	-0.620619	-0.306442
C31	C	1.305287	-0.547743	-0.306894
C32	C	1.415772	-0.516779	-0.332899
C33	C	1.639364	0.133141	-0.385492
C34	C	1.772808	0.137992	-0.416864
C35	C	1.410112	0.259915	-0.331548
C36	C	1.412079	0.337472	-0.331990
N37	N	1.364566	0.163054	-0.674502
C38	C	1.431761	0.125729	-0.758093
C39	C	1.407348	0.139300	-0.909515
N40	N	1.474552	0.101969	0.006895
H41	H	0.815093	0.119443	-0.208559
H42	H	1.507359	0.083722	-0.717558
Cl43	Cl	1.164550	-0.659546	-0.273771
Cl44	Cl	1.290609	0.204151	-0.972081
H45	H	0.808315	0.148545	-0.525886
Cl46	Cl	1.674558	-0.075429	-0.393810
Cl47	Cl	1.670382	-0.239911	-0.392824
H48	H	1.224748	-0.201503	-0.287997
H49	H	1.550155	0.059960	-0.952575
H50	H	1.228088	-0.069292	-0.288790
H51	H	1.288959	0.205055	-0.715037
Cl52	Cl	1.663293	-0.519754	-0.391138
H53	H	1.611018	-0.665680	-0.378776
Cl54	Cl	1.168720	-0.495062	-0.274775
H55	H	1.024015	0.145579	-0.459056
H56	H	1.030804	0.116479	-0.141699
