data_functionalizedCrystal
_audit_creation_method	'MofGen! by Chris Wilmer'
_symmetry_space_group_name_H-M	'P1'
_symmetry_Int_Tables_number	1
_symmetry_cell_setting	triclinic
loop_
_symmetry_equiv_pos_as_xyz
  x,y,z
_cell_length_a	10.654550
_cell_length_b	9.065218
_cell_length_c	9.730223
_cell_angle_alpha	90.000469
_cell_angle_beta	89.996251
_cell_angle_gamma	84.750394
loop_
_atom_site_label
_atom_site_type_symbol
_atom_site_fract_x
_atom_site_fract_y
_atom_site_fract_z
O1	O	1.668655	0.207228	-0.114397
O2	O	1.303254	0.226972	-0.114374
O3	O	1.493507	0.002417	-0.114383
O4	O	1.478402	0.431784	-0.114388
O5	O	1.493505	0.002422	0.114197
O6	O	1.303252	0.226978	0.114206
O7	O	1.668653	0.207234	0.114183
Zn8	Zn	1.485952	0.217107	0.150486
Zn9	Zn	1.485955	0.217099	-0.150678
O10	O	1.478400	0.431790	0.114192
C11	C	1.256450	0.225525	-0.000082
C12	C	1.116989	0.221188	-0.000073
C13	C	1.038027	0.353403	-0.000095
C14	C	0.906990	0.349319	-0.000118
C15	C	0.933890	0.080793	-0.000105
C16	C	1.064925	0.084879	-0.000071
C17	C	1.022496	0.508434	-0.000108
C18	C	0.891459	0.504350	-0.000132
C19	C	1.492055	-0.052559	-0.000096
C20	C	1.487714	-0.216378	-0.000102
C21	C	1.715457	0.208681	-0.000113
C22	C	1.854918	0.213018	-0.000130
C23	C	1.479852	0.486766	-0.000099
C24	C	1.484193	0.650585	-0.000102
N25	N	1.485959	0.217111	0.356023
N26	N	1.485958	0.217084	-0.356214
C27	C	1.570225	0.117712	0.427945
C28	C	1.570222	0.117694	0.571828
C29	C	1.401682	0.316488	0.571854
C30	C	1.401681	0.316497	0.427973
C31	C	1.667534	0.002944	0.427931
C32	C	1.667531	0.002926	0.571814
H33	H	0.849958	0.562761	-0.095800
H34	H	1.758860	0.038880	0.383298
H35	H	0.891483	-0.030185	-0.000124
H36	H	1.058348	0.557796	-0.098796
C37	C	0.923350	0.613313	0.220591
C38	C	0.830040	0.567604	0.133078
H39	H	0.885427	0.652367	0.302824
H40	H	0.981773	0.531048	0.242020
H41	H	0.966117	0.687543	0.176285
H42	H	0.787278	0.493365	0.177382
H43	H	0.771595	0.649879	0.111651
H44	H	1.052066	0.569069	0.095557
C45	C	1.235080	0.512982	0.442458
C46	C	1.309046	0.425751	0.348915
H47	H	1.177895	0.580437	0.393647
H48	H	1.189220	0.451058	0.498573
H49	H	1.287968	0.566629	0.498578
H50	H	1.256158	0.372095	0.292802
H51	H	1.354909	0.487682	0.292777
H52	H	1.333064	0.397404	0.630452
H53	H	1.645642	-0.110463	0.388879
H54	H	1.764142	0.028206	0.610858
C55	C	1.078346	-0.180954	-0.000043
C56	C	1.151721	-0.060455	-0.000033
H57	H	1.131934	-0.270679	-0.000026
H58	H	1.026657	-0.176948	0.079647
H59	H	1.026699	-0.176965	-0.079775
H60	H	1.203362	-0.064438	0.079704
H61	H	1.203432	-0.064463	-0.079732
C62	C	1.598424	-0.236776	0.524881
C63	C	1.625823	-0.141768	0.632062
H64	H	1.572695	-0.326109	0.562081
H65	H	1.532522	-0.190265	0.469968
H66	H	1.671483	-0.258405	0.469918
H67	H	1.552760	-0.120130	0.687019
H68	H	1.691730	-0.188287	0.686998
