data_functionalizedCrystal
_audit_creation_method	'MofGen! by Chris Wilmer'
_symmetry_space_group_name_H-M	'P1'
_symmetry_Int_Tables_number	1
_symmetry_cell_setting	triclinic
loop_
_symmetry_equiv_pos_as_xyz
  x,y,z
_cell_length_a	10.654550
_cell_length_b	14.044220
_cell_length_c	9.730223
_cell_angle_alpha	89.994583
_cell_angle_beta	89.999957
_cell_angle_gamma	88.836904
loop_
_atom_site_label
_atom_site_type_symbol
_atom_site_fract_x
_atom_site_fract_y
_atom_site_fract_z
O1	O	1.681228	0.133232	-0.114191
O2	O	1.317025	0.145925	-0.114216
O3	O	1.493659	0.001558	-0.114190
O4	O	1.504593	0.277599	-0.114217
O5	O	1.493647	0.001554	0.114390
O6	O	1.317012	0.145921	0.114364
O7	O	1.681215	0.133228	0.114389
Zn8	Zn	1.499111	0.139574	0.150668
Zn9	Zn	1.499128	0.139579	-0.150496
O10	O	1.504580	0.277595	0.114363
C11	C	1.270127	0.144991	0.000070
C12	C	1.130403	0.142202	0.000061
C13	C	1.488867	-0.033790	0.000100
C14	C	1.474592	-0.139110	0.000101
C15	C	1.059459	0.227204	0.000057
C16	C	0.928175	0.224578	0.000081
C17	C	0.938790	0.051942	0.000108
C18	C	1.070072	0.054569	0.000094
C19	C	1.448493	-0.331943	0.000079
C20	C	1.549741	-0.388910	0.000082
C21	C	1.535219	-0.496209	0.000070
C22	C	1.463013	-0.224634	0.000091
C23	C	1.728113	0.134162	0.000099
C24	C	1.867836	0.136950	0.000100
C25	C	1.509372	0.312943	0.000070
C26	C	1.523648	0.418262	0.000060
N27	N	1.499109	0.139570	0.356205
N28	N	1.499140	0.139576	-0.356032
C29	C	1.577355	0.075671	0.428142
C30	C	1.577367	0.075671	0.572025
C31	C	1.420885	0.203477	0.572021
C32	C	1.420867	0.203471	0.428140
H33	H	1.108577	0.298560	0.000041
H34	H	0.870417	0.293795	0.000080
H35	H	1.357144	0.255506	0.369565
O36	O	0.879981	-0.033099	0.000067
C37	C	0.748895	-0.017193	0.000110
H38	H	0.726400	0.056630	-0.043173
H39	H	0.711898	-0.022030	0.109775
C40	C	0.713695	-0.183677	-0.036355
C41	C	0.686066	-0.093009	-0.089527
H42	H	0.674937	-0.230445	-0.091641
H43	H	0.802010	-0.194394	-0.036378
H44	H	0.682864	-0.187694	0.055032
H45	H	0.716911	-0.088989	-0.180905
H46	H	0.597754	-0.082292	-0.089521
O47	O	1.666193	-0.351013	-0.000135
C48	C	1.731890	-0.381542	-0.118490
H49	H	1.662017	-0.402641	-0.201254
H50	H	1.794824	-0.445495	-0.091720
C51	C	1.898845	-0.274083	-0.070484
C52	C	1.813025	-0.299989	-0.172141
H53	H	1.948898	-0.223780	-0.103576
H54	H	1.854587	-0.253517	0.009257
H55	H	1.951278	-0.327384	-0.048185
H56	H	1.760584	-0.246692	-0.194426
H57	H	1.857277	-0.320544	-0.251887
H58	H	1.357184	0.255506	0.630605
H59	H	1.350913	-0.363754	0.000069
O60	O	1.138940	-0.028032	-0.000148
C61	C	1.110061	-0.081199	-0.118503
H62	H	1.070857	-0.031419	-0.201252
H63	H	1.037173	-0.136547	-0.091723
C64	C	1.278086	-0.192893	-0.070551
C65	C	1.229945	-0.131751	-0.172189
H66	H	1.352033	-0.224080	-0.103665
H67	H	1.297540	-0.157076	0.009190
H68	H	1.217334	-0.239008	-0.048244
H69	H	1.290690	-0.085631	-0.194482
H70	H	1.210504	-0.167561	-0.251935
O71	O	1.653384	0.013502	0.358476
C72	C	1.722469	-0.042881	0.452831
H73	H	1.670834	-0.044308	0.555401
H74	H	1.819278	-0.011424	0.468112
C75	C	1.800326	-0.143281	0.270722
C76	C	1.736903	-0.145040	0.396698
H77	H	1.809236	-0.206297	0.236096
H78	H	1.753787	-0.105293	0.207152
H79	H	1.880994	-0.117063	0.283474
H80	H	1.656232	-0.171247	0.383941
H81	H	1.783429	-0.183035	0.460265
H82	H	1.641080	0.023638	0.630593
