data_functionalizedCrystal
_audit_creation_method	'MofGen! by Chris Wilmer'
_symmetry_space_group_name_H-M	'P1'
_symmetry_Int_Tables_number	1
_symmetry_cell_setting	triclinic
loop_
_symmetry_equiv_pos_as_xyz
  x,y,z
_cell_length_a	17.077404
_cell_length_b	10.686285
_cell_length_c	17.077396
_cell_angle_alpha	85.608118
_cell_angle_beta	89.980499
_cell_angle_gamma	85.631810
loop_
_atom_site_label
_atom_site_type_symbol
_atom_site_fract_x
_atom_site_fract_y
_atom_site_fract_z
Zn1	Zn	1.224115	-0.502339	-0.419935
Zn2	Zn	1.234129	-0.713359	-0.278625
Zn3	Zn	1.092848	-0.502383	-0.288680
Zn4	Zn	1.102918	-0.713284	-0.409853
O5	O	1.163502	-0.607841	-0.349273
O6	O	1.335290	-0.530344	-0.401201
O7	O	1.215364	-0.685422	-0.170110
O8	O	1.101856	-0.325802	-0.314519
O9	O	1.342648	-0.685379	-0.297382
O10	O	1.198297	-0.325769	-0.410951
O11	O	1.111566	-0.530419	-0.177497
O12	O	0.984337	-0.530347	-0.304743
O13	O	1.119018	-0.685252	-0.521039
O14	O	0.991734	-0.685295	-0.393768
O15	O	1.208061	-0.530271	-0.528447
O16	O	1.225128	-0.889924	-0.287606
O17	O	1.128728	-0.889869	-0.384018
C18	C	0.959553	-0.607818	-0.349253
C19	C	0.872305	-0.607839	-0.349261
C20	C	0.835193	-0.688642	-0.395530
C21	C	0.753212	-0.688645	-0.395542
C22	C	0.708346	-0.607850	-0.349281
C23	C	0.745463	-0.527038	-0.303011
C24	C	0.827441	-0.527030	-0.303003
C25	C	0.574594	-0.527063	-0.303028
C26	C	0.492610	-0.527072	-0.303035
C27	C	0.500365	-0.688678	-0.395568
C28	C	0.582344	-0.688670	-0.395560
C29	C	0.619455	-0.607859	-0.349288
C30	C	1.179129	-0.935681	-0.333644
C31	C	1.185885	-1.075932	-0.326983
C32	C	1.368248	-0.607865	-0.349294
C33	C	1.455498	-0.607875	-0.349303
C34	C	1.163545	-0.607748	-0.554022
C35	C	1.163564	-0.607709	-0.641274
C36	C	1.147836	-0.278722	-0.364981
C37	C	1.141160	-0.138470	-0.371675
C38	C	1.209930	-0.527004	-0.686123
C39	C	1.209937	-0.526962	-0.768105
C40	C	1.163582	-0.607632	-0.805237
C41	C	1.117211	-0.688341	-0.760382
C42	C	1.117200	-0.688375	-0.678402
C43	C	1.117239	-0.688265	-0.931256
C44	C	1.117251	-0.688232	-1.013242
C45	C	1.209976	-0.526851	-1.020959
C46	C	1.209965	-0.526886	-0.938979
C47	C	1.163595	-0.607596	-0.894130
C48	C	1.163500	-0.607843	-0.145325
C49	C	1.163617	-0.607527	-0.058091
H50	H	0.456080	-0.461267	-0.265375
H51	H	1.079435	-0.754081	-0.641887
H52	H	1.097701	-1.084717	-0.415034
O53	O	0.717075	-0.767202	-0.440370
C54	C	0.632679	-0.937637	-0.442625
C55	C	0.673547	-0.848728	-0.391765
H56	H	0.597490	-1.003591	-0.403347
H57	H	0.591510	-0.879865	-0.486477
H58	H	0.678836	-0.995334	-0.475706
H59	H	0.627445	-0.791012	-0.358634
H60	H	0.714731	-0.906573	-0.347961
H61	H	1.229342	-1.129693	-0.283617
H62	H	0.618873	-0.754467	-0.433225
O63	O	0.878654	-0.767168	-0.440541
C64	C	0.877686	-0.927502	-0.532293
C65	C	0.828375	-0.838618	-0.481364
H66	H	0.837057	-0.985312	-0.565298
H67	H	0.913307	-0.869710	-0.576200
H68	H	0.919212	-0.993352	-0.493033
H69	H	0.786805	-0.772751	-0.520561
H70	H	0.792807	-0.896489	-0.437450
O71	O	0.464192	-0.767054	-0.440502
C72	C	0.341339	-0.838741	-0.481494
C73	C	0.382206	-0.749895	-0.430590
H74	H	0.275048	-0.824917	-0.473485
H75	H	0.356380	-0.816714	-0.545878
H76	H	0.362346	-0.940443	-0.462760
H77	H	0.361222	-0.648163	-0.449254
H78	H	0.367167	-0.772031	-0.366217
O79	O	1.254980	-0.448520	-0.650183
C80	C	1.346982	-0.288496	-0.666497
C81	C	1.295988	-0.377299	-0.707297
H82	H	1.380164	-0.230910	-0.712654
H83	H	1.307831	-0.222445	-0.631285
H84	H	1.390748	-0.346468	-0.625336
H85	H	1.252216	-0.319429	-0.748496
H86	H	1.335188	-0.443354	-0.742459
O87	O	1.254895	-0.448296	-1.064559
C88	C	1.257355	-0.277922	-1.165269
C89	C	1.206392	-0.366783	-1.115931
H90	H	1.218164	-0.212014	-1.206826
H91	H	1.290465	-0.220185	-1.124682
H92	H	1.301182	-0.335854	-1.200863
H93	H	1.162523	-0.308948	-1.080331
H94	H	1.173338	-0.424523	-1.156560
H95	H	0.604807	-0.461247	-0.265356
H96	H	0.708925	-0.461248	-0.265348
H97	H	1.079466	-0.753968	-0.894743
H98	H	1.079503	-0.753918	-1.043473
H99	H	1.247695	-0.461247	-0.804617
H100	H	0.857656	-0.461225	-0.265331
H101	H	1.247716	-0.461204	-0.908748
O102	O	1.072299	-0.766837	-0.796480
C103	C	1.069855	-0.937106	-0.880942
C104	C	1.120811	-0.848304	-0.840094
H105	H	1.109055	-1.002976	-0.916227
H106	H	1.036730	-0.994886	-0.834834
H107	H	1.026043	-0.879125	-0.922049
H108	H	1.164666	-0.906187	-0.798991
H109	H	1.153881	-0.790520	-0.886244
