data_functionalizedCrystal
_audit_creation_method	'MofGen! by Chris Wilmer'
_symmetry_space_group_name_H-M	'P1'
_symmetry_Int_Tables_number	1
_symmetry_cell_setting	triclinic
loop_
_symmetry_equiv_pos_as_xyz
  x,y,z
_cell_length_a	18.215407
_cell_length_b	15.297327
_cell_length_c	18.215399
_cell_angle_alpha	99.648308
_cell_angle_beta	89.980167
_cell_angle_gamma	99.707397
loop_
_atom_site_label
_atom_site_type_symbol
_atom_site_fract_x
_atom_site_fract_y
_atom_site_fract_z
Zn1	Zn	1.074360	-0.359166	-0.466794
Zn2	Zn	1.574360	0.140834	0.033206
Zn3	Zn	1.052966	-0.510038	-0.365016
Zn4	Zn	1.552966	-0.010038	0.134984
Zn5	Zn	0.951288	-0.359195	-0.343746
Zn6	Zn	1.451288	0.140805	0.156254
Zn7	Zn	0.929963	-0.509988	-0.488034
Zn8	Zn	1.429963	-0.009988	0.011966
O9	O	1.002144	-0.434597	-0.415897
O10	O	1.502144	0.065403	0.084103
O11	O	1.174505	-0.379188	-0.453306
O12	O	1.674505	0.120812	0.046694
O13	O	1.039449	-0.490062	-0.259215
O14	O	1.539449	0.009938	0.240785
O15	O	0.985492	-0.232944	-0.342278
O16	O	1.485492	0.267056	0.157722
O17	O	1.158787	-0.490033	-0.378530
O18	O	1.658787	0.009967	0.121470
O19	O	1.075912	-0.232922	-0.432681
O20	O	1.575912	0.267078	0.067319
O21	O	0.964747	-0.379238	-0.243588
O22	O	1.464747	0.120762	0.256412
O23	O	0.845476	-0.379190	-0.362873
O24	O	1.345476	0.120810	0.137127
O25	O	0.949146	-0.489948	-0.588196
O26	O	1.449146	0.010052	-0.088196
O27	O	0.829808	-0.489976	-0.468881
O28	O	1.329808	0.010024	0.031119
O29	O	1.055234	-0.379139	-0.572591
O30	O	1.555234	0.120861	-0.072591
O31	O	1.018771	-0.636279	-0.399125
O32	O	1.518771	-0.136279	0.100875
O33	O	0.928401	-0.636242	-0.489506
O34	O	1.428401	-0.136242	0.010494
C35	C	0.810940	-0.434581	-0.415874
C36	C	1.310940	0.065419	0.084126
C37	C	0.729139	-0.434597	-0.415885
C38	C	1.229139	0.065403	0.084115
C39	C	0.532793	-0.492374	-0.471037
C40	C	1.032793	0.007626	0.028963
C41	C	0.455934	-0.492377	-0.471046
C42	C	0.955934	0.007623	0.028954
C43	C	0.472244	-0.376836	-0.360776
C44	C	0.972244	0.123164	0.139224
C45	C	0.549103	-0.376830	-0.360771
C46	C	1.049103	0.123170	0.139229
C47	C	0.579374	-0.434603	-0.415900
C48	C	1.079374	0.065397	0.084100
C49	C	0.425657	-0.434613	-0.415916
C50	C	0.925657	0.065387	0.084084
C51	C	0.342323	-0.434616	-0.415926
C52	C	0.842323	0.065384	0.084074
C53	C	0.662714	-0.434600	-0.415891
C54	C	1.162714	0.065400	0.084109
C55	C	0.968970	-0.668995	-0.448944
C56	C	1.468970	-0.168995	0.051056
C57	C	0.954846	-0.769272	-0.463106
C58	C	1.454846	-0.269272	0.036894
C59	C	1.103397	-1.051887	-0.314929
C60	C	1.603397	-0.551887	0.185071
C61	C	1.116667	-0.957672	-0.301619
C62	C	1.616667	-0.457672	0.198381
C63	C	1.076213	-0.910567	-0.341990
C64	C	1.576213	-0.410567	0.158010
C65	C	1.022486	-0.957687	-0.395673
C66	C	1.522486	-0.457687	0.104327
C67	C	1.009211	-1.051911	-0.408980
C68	C	1.509211	-0.551911	0.091020
C69	C	0.982027	-0.910591	-0.436041
C70	C	1.482027	-0.410591	0.063959
C71	C	0.928300	-0.957711	-0.489723
C72	C	1.428300	-0.457711	0.010277
C73	C	0.915027	-1.051926	-0.503028
C74	C	1.415027	-0.551926	-0.003028
C75	C	0.955481	-1.099031	-0.462658
C76	C	1.455481	-0.599031	0.037342
C77	C	0.995303	-0.816367	-0.422734
C78	C	1.495303	-0.316367	0.077266
C79	C	0.901116	-0.816392	-0.516784
C80	C	1.401116	-0.316392	-0.016784
C81	C	0.887846	-0.910606	-0.530094
C82	C	1.387846	-0.410606	-0.030094
C83	C	1.194095	-0.434613	-0.415921
C84	C	1.694095	0.065387	0.084079
C85	C	1.275892	-0.434620	-0.415931
C86	C	1.775892	0.065380	0.084069
C87	C	1.002198	-0.434535	-0.607842
C88	C	1.502198	0.065465	-0.107842
C89	C	1.002220	-0.434508	-0.689637
C90	C	1.502220	0.065492	-0.189637
C91	C	1.035467	-0.199283	-0.382738
C92	C	1.535467	0.300717	0.117262
C93	C	1.049667	-0.099006	-0.368607
C94	C	1.549667	0.400994	0.131393
C95	C	1.057485	-0.376756	-0.869699
C96	C	1.557485	0.123244	-0.369699
C97	C	1.057497	-0.376730	-0.946554
C98	C	1.557497	0.123270	-0.446554
C99	C	0.947028	-0.492120	-0.962793
C100	C	1.447028	0.007880	-0.462793
C101	C	0.947013	-0.492141	-0.885938
C102	C	1.447013	0.007859	-0.385938
C103	C	1.002245	-0.434461	-0.839394
C104	C	1.502245	0.065539	-0.339394
C105	C	1.002273	-0.434413	-0.993103
C106	C	1.502273	0.065587	-0.493103
C107	C	1.002286	-0.434385	-1.076433
C108	C	1.502286	0.065615	-0.576433
C109	C	1.002232	-0.434487	-0.756058
C110	C	1.502232	0.065513	-0.256058
C111	C	1.002142	-0.434594	-0.224691
C112	C	1.502142	0.065406	0.275309
C113	C	1.002298	-0.434366	-0.142860
C114	C	1.502298	0.065634	0.357140
H115	H	0.418010	-0.539418	-0.515945
H116	H	0.918010	-0.039418	-0.015945
O117	O	0.835566	-0.956283	-0.582187
O118	O	1.335566	-0.456283	-0.082187
C119	C	0.706281	-0.985263	-0.621864
C120	C	1.206281	-0.485263	-0.121864
C121	C	0.765413	-0.933463	-0.562824
C122	C	1.265413	-0.433463	-0.062824
H123	H	0.649546	-0.966846	-0.606222
H124	H	1.149546	-0.466846	-0.106222
H125	H	0.721732	-0.966661	-0.678602
H126	H	1.221732	-0.466661	-0.178602
H127	H	0.703784	-1.060688	-0.624450
H128	H	1.203784	-0.560688	-0.124450
H129	H	0.767941	-0.858026	-0.560171
H130	H	1.267941	-0.358026	-0.060171
H131	H	0.749939	-0.952139	-0.506116
H132	H	1.249939	-0.452139	-0.006116
H133	H	0.868174	-0.778040	-0.549656
H134	H	1.368174	-0.278040	-0.049656
H135	H	0.902025	-0.539131	-0.861264
H136	H	1.402025	-0.039131	-0.361264
O137	O	0.442908	-0.320768	-0.307128
O138	O	0.942908	0.179232	0.192872
C139	C	0.425521	-0.276823	-0.175806
C140	C	0.925521	0.223177	0.324194
C141	C	0.458796	-0.340360	-0.236488
C142	C	0.958796	0.159640	0.263512
H143	H	0.438340	-0.292653	-0.118680
H144	H	0.938340	0.207347	0.381320
H145	H	0.450943	-0.204079	-0.178506
H146	H	0.950943	0.295921	0.321494
H147	H	0.362593	-0.286739	-0.185317
H148	H	0.862593	0.213261	0.314683
H149	H	0.521723	-0.330525	-0.227017
H150	H	1.021723	0.169475	0.272983
H151	H	0.433316	-0.413081	-0.233771
H152	H	0.933316	0.086919	0.266229
O153	O	0.562083	-0.548515	-0.524665
O154	O	1.062083	-0.048515	-0.024665
C155	C	0.537786	-0.663146	-0.634018
C156	C	1.037786	-0.163146	-0.134018
C157	C	0.504522	-0.599599	-0.573334
C158	C	1.004522	-0.099599	-0.073334
H159	H	0.491262	-0.704477	-0.673373
H160	H	0.991262	-0.204477	-0.173373
H161	H	0.579611	-0.621823	-0.666772
H162	H	1.079611	-0.121823	-0.166772
H163	H	0.567113	-0.710228	-0.606795
H164	H	1.067113	-0.210228	-0.106795
H165	H	0.475157	-0.552504	-0.600495
H166	H	0.975157	-0.052504	-0.100495
H167	H	0.462735	-0.640978	-0.540585
H168	H	0.962735	-0.140978	-0.040585
O169	O	0.594420	-0.320834	-0.307188
O170	O	1.094420	0.179166	0.192812
C171	C	0.682864	-0.308543	-0.206081
C172	C	1.182864	0.191457	0.293919
C173	C	0.631587	-0.372057	-0.266736
C174	C	1.131587	0.127943	0.233264
H175	H	0.712916	-0.349931	-0.173349
H176	H	1.212916	0.150069	0.326651
H177	H	0.725575	-0.261434	-0.233248
H178	H	1.225575	0.238566	0.266752
H179	H	0.648015	-0.267237	-0.166707
H180	H	1.148015	0.232763	0.333293
H181	H	0.666375	-0.413421	-0.306129
H182	H	1.166375	0.086579	0.193871
H183	H	0.588873	-0.419106	-0.239519
H184	H	1.088873	0.080894	0.260481
H185	H	1.102478	-0.329740	-0.971224
H186	H	1.602478	0.170260	-0.471224
O187	O	1.089222	-0.819048	-0.328996
O188	O	1.589222	-0.319048	0.171004
C189	C	1.159920	-0.683828	-0.258266
C190	C	1.659920	-0.183828	0.241734
C191	C	1.145269	-0.787478	-0.272918
C192	C	1.645269	-0.287478	0.227082
H193	H	1.205223	-0.658273	-0.212915
H194	H	1.705223	-0.158273	0.287085
H195	H	1.178826	-0.658142	-0.311621
H196	H	1.678826	-0.158142	0.188379
H197	H	1.106510	-0.658336	-0.239380
H198	H	1.606510	-0.158336	0.260620
H199	H	1.198650	-0.813046	-0.291783
H200	H	1.698650	-0.313046	0.208217
H201	H	1.126330	-0.813103	-0.219547
H202	H	1.626330	-0.313103	0.280453
H203	H	1.039047	-0.778011	-0.379024
H204	H	1.539047	-0.278011	0.120976
H205	H	1.102457	-0.329786	-0.831804
H206	H	1.602457	0.170214	-0.331804
O207	O	1.168908	-0.912042	-0.249477
O208	O	1.668908	-0.412042	0.250523
C209	C	1.260900	-0.921967	-0.157571
C210	C	1.760900	-0.421967	0.342429
C211	C	1.201766	-0.973755	-0.216613
C212	C	1.701766	-0.473755	0.283387
H213	H	1.287472	-0.971839	-0.130972
H214	H	1.787472	-0.471839	0.369028
H215	H	1.305630	-0.877816	-0.185125
H216	H	1.805630	-0.377816	0.314875
H217	H	1.233333	-0.877895	-0.112866
H218	H	1.733333	-0.377895	0.387134
H219	H	1.229267	-1.017876	-0.261335
H220	H	1.729267	-0.517876	0.238665
H221	H	1.157042	-1.017849	-0.189005
H222	H	1.657042	-0.517849	0.310995
O223	O	0.893290	-0.548059	-1.007961
O224	O	1.393290	-0.048059	-0.507961
C225	C	0.761909	-0.591884	-1.037593
C226	C	1.261909	-0.091884	-0.537593
C227	C	0.822692	-0.528459	-0.986400
C228	C	1.322692	-0.028459	-0.486400
H229	H	0.704816	-0.576073	-1.020170
H230	H	1.204816	-0.076073	-0.520170
H231	H	0.771344	-0.581958	-1.097738
H232	H	1.271344	-0.081958	-0.597738
H233	H	0.764571	-0.664628	-1.032738
H234	H	1.264571	-0.164628	-0.532738
H235	H	0.820066	-0.455691	-0.991190
H236	H	1.320066	0.044309	-0.491190
H237	H	0.813236	-0.538463	-0.926276
H238	H	1.313236	-0.038463	-0.426276
H239	H	1.136324	-1.090248	-0.282060
H240	H	1.636324	-0.590248	0.217940
H241	H	0.944681	-1.175748	-0.473493
H242	H	1.444681	-0.675748	0.026507
H243	H	0.871270	-1.090288	-0.546732
H244	H	1.371270	-0.590288	-0.046732
