data_functionalizedCrystal
_audit_creation_method	'MofGen! by Chris Wilmer'
_symmetry_space_group_name_H-M	'P1'
_symmetry_Int_Tables_number	1
_symmetry_cell_setting	triclinic
loop_
_symmetry_equiv_pos_as_xyz
  x,y,z
_cell_length_a	23.532407
_cell_length_b	14.971486
_cell_length_c	22.010155
_cell_angle_alpha	90.004049
_cell_angle_beta	89.994271
_cell_angle_gamma	83.231437
loop_
_atom_site_label
_atom_site_type_symbol
_atom_site_fract_x
_atom_site_fract_y
_atom_site_fract_z
O1	O	-0.755729	-0.108567	0.050487
O2	O	-0.589933	-0.124277	0.050497
O3	O	-0.677274	0.013825	0.050487
O4	O	-0.668387	-0.246669	0.050497
O5	O	-0.677258	0.013804	-0.050563
O6	O	-0.589917	-0.124298	-0.050553
O7	O	-0.755713	-0.108588	-0.050563
Cu8	Cu	-0.672813	-0.116445	-0.059785
Cu9	Cu	-0.672832	-0.116420	0.059719
O10	O	-0.668371	-0.246690	-0.050554
C11	C	-0.568707	-0.123887	-0.000027
C12	C	-0.505485	-0.122684	-0.000024
C13	C	-0.676869	0.047135	-0.000038
C14	C	-0.675678	0.146420	-0.000037
C15	C	-0.776938	-0.108977	-0.000038
C16	C	-0.840161	-0.110180	-0.000037
C17	C	-0.238946	-0.035998	-0.000043
C18	C	-0.298351	-0.037116	-0.000043
O19	O	-0.334801	0.031652	-0.000066
N20	N	-0.321329	-0.119217	-0.000036
C21	C	-0.284898	-0.200207	-0.000035
O22	O	-0.309897	-0.270143	-0.000030
C23	C	-0.225494	-0.199089	-0.000040
C24	C	-0.202520	-0.116982	-0.000041
C25	C	-0.215971	0.046102	-0.000045
C26	C	-0.156570	0.047219	-0.000044
C27	C	-0.120144	-0.033764	-0.000041
C28	C	-0.143119	-0.115865	-0.000040
C29	C	-0.189065	-0.280077	-0.000044
C30	C	-0.129657	-0.278952	-0.000049
C31	C	-0.106683	-0.196845	-0.000049
C32	C	-0.047292	-0.195731	-0.000036
N33	N	-0.024314	-0.113629	-0.000043
C34	C	-0.060740	-0.032646	-0.000046
C35	C	-0.409651	-0.202549	-0.000027
C36	C	-0.469053	-0.203668	-0.000018
C37	C	-0.482502	-0.040577	-0.000027
C38	C	-0.423098	-0.039458	-0.000031
C39	C	-0.386673	-0.120447	-0.000034
C40	C	0.064007	-0.030306	-0.000043
C41	C	0.123413	-0.029197	-0.000040
C42	C	0.136857	-0.192288	-0.000034
C43	C	0.077455	-0.193398	-0.000035
C44	C	0.041031	-0.112400	-0.000041
O45	O	-0.010807	-0.264462	-0.000015
O46	O	-0.035733	0.037279	-0.000059
N47	N	-0.672804	-0.116461	-0.143838
C48	C	-0.668776	-0.280000	-0.000027
C49	C	-0.669967	-0.379284	-0.000024
C50	C	-0.726989	0.204187	-0.000040
C51	C	-0.725866	0.297475	-0.000034
C52	C	-0.673432	0.332993	-0.000029
C53	C	-0.622117	0.275218	-0.000024
C54	C	-0.623240	0.181933	-0.000025
C55	C	-0.619780	0.469656	-0.000021
C56	C	-0.618657	0.562948	-0.000021
C57	C	-0.722406	0.585198	-0.000030
C58	C	-0.723529	0.491913	-0.000032
C59	C	-0.672214	0.434144	-0.000028
C60	C	-0.711509	-0.055277	-0.563621
C61	C	-0.711512	-0.055271	-0.627229
O62	O	-0.744397	-0.003262	-0.660124
N63	N	-0.672832	-0.116401	-0.659045
C64	C	-0.634142	-0.177536	-0.627250
O65	O	-0.601242	-0.229531	-0.660152
C66	C	-0.634138	-0.177537	-0.563643
C67	C	-0.672824	-0.116409	-0.531831
C68	C	-0.750192	0.005847	-0.531808
C69	C	-0.750190	0.005840	-0.468205
C70	C	-0.711505	-0.055292	-0.436415
C71	C	-0.672822	-0.116416	-0.468227
C72	C	-0.595446	-0.238667	-0.531849
C73	C	-0.595444	-0.238662	-0.468239
C74	C	-0.634131	-0.177534	-0.436426
C75	C	-0.634135	-0.177555	-0.372834
N76	N	-0.672815	-0.116425	-0.341018
C77	C	-0.711500	-0.055293	-0.372808
C78	C	-0.634155	-0.177528	-0.760827
C79	C	-0.634162	-0.177531	-0.824433
C80	C	-0.711531	-0.055265	-0.824407
C81	C	-0.711526	-0.055266	-0.760801
C82	C	-0.672835	-0.116397	-0.729012
C83	C	-0.711493	-0.055314	-0.239237
C84	C	-0.711489	-0.055330	-0.175628
C85	C	-0.634119	-0.177592	-0.175659
C86	C	-0.634124	-0.177580	-0.239262
C87	C	-0.672814	-0.116434	-0.271050
O88	O	-0.601265	-0.229536	-0.339898
O89	O	-0.744390	-0.003299	-0.339898
N90	N	-0.672846	-0.116396	0.143771
H91	H	0.142115	0.037667	-0.000039
F92	F	0.025249	0.055901	-0.000050
F93	F	-0.562850	0.600748	-0.000016
F94	F	-0.782797	0.166395	-0.000052
H95	H	-0.487753	-0.270528	-0.000009
F96	F	-0.565164	0.408176	-0.000016
H97	H	-0.137870	0.114079	-0.000047
H98	H	-0.245624	0.112052	-0.000049
H99	H	-0.100002	-0.344905	-0.000053
H100	H	-0.742995	-0.005551	-0.149728
H101	H	-0.404397	0.027400	-0.000032
F102	F	-0.592976	-0.242602	-0.727000
F103	F	-0.568628	0.120452	-0.000020
H104	H	-0.602628	-0.227365	-0.265165
F105	F	-0.777020	0.646680	-0.000032
F106	F	-0.521280	0.045614	-0.000029
F107	F	-0.566313	0.313022	-0.000011
F108	F	-0.752701	0.009795	-0.726949
H109	H	0.058749	-0.260256	-0.000033
F110	F	-0.370888	-0.288755	-0.000023
F111	F	0.175634	-0.278472	-0.000028
H112	H	-0.207760	-0.346938	-0.000040
H113	H	-0.767649	0.344506	-0.000038
F114	F	-0.752702	0.009798	-0.858253
F115	F	-0.791363	0.070904	-0.434354
F116	F	-0.779335	0.454113	-0.000036
H117	H	-0.742997	-0.005522	-0.265111
F118	F	-0.592994	-0.242603	-0.858284
F119	F	-0.791369	0.070918	-0.565633
F120	F	-0.554270	-0.303727	-0.565695
H121	H	-0.563936	-0.288441	-0.442359
H122	H	-0.602623	-0.227368	-0.149765
