data_functionalizedCrystal
_audit_creation_method	'MofGen! by Chris Wilmer'
_symmetry_space_group_name_H-M	'P1'
_symmetry_Int_Tables_number	1
_symmetry_cell_setting	triclinic
loop_
_symmetry_equiv_pos_as_xyz
  x,y,z
_cell_length_a	16.974800
_cell_length_b	11.792254
_cell_length_c	16.053802
_cell_angle_alpha	92.583162
_cell_angle_beta	91.074188
_cell_angle_gamma	83.793472
loop_
_atom_site_label
_atom_site_type_symbol
_atom_site_fract_x
_atom_site_fract_y
_atom_site_fract_z
O1	O	1.049700	0.144679	0.001523
O2	O	0.820313	0.162053	-0.013984
O3	O	0.940568	-0.011836	-0.005848
O4	O	0.929446	0.318567	-0.006612
O5	O	0.933948	-0.002304	0.132563
O6	O	0.813694	0.171585	0.124427
O7	O	1.043081	0.154210	0.139934
Zn8	Zn	0.927336	0.164411	0.154157
Zn9	Zn	0.936058	0.151852	-0.028206
O10	O	0.922826	0.328099	0.131799
C11	C	0.787637	0.165983	0.053237
C12	C	0.700134	0.163481	0.047322
C13	C	0.655421	0.167498	0.119992
C14	C	0.573203	0.165128	0.114437
C15	C	0.535700	0.158750	0.036210
C16	C	0.580419	0.154729	-0.036467
C17	C	0.662635	0.157090	-0.030910
C18	C	0.290196	0.151122	0.011502
C19	C	0.207974	0.148765	0.005951
C20	C	0.200764	0.159162	0.156855
C21	C	0.282982	0.161530	0.162404
C22	C	0.327694	0.157503	0.089728
N23	N	0.451660	0.156331	0.030529
N24	N	0.411733	0.159914	0.095409
C25	C	0.936557	-0.049357	0.063309
C26	C	0.934460	-0.175358	0.063167
C27	C	0.932757	-0.277684	0.063049
C28	C	0.930626	-0.406059	0.062897
C29	C	1.075757	0.150280	0.072712
C30	C	1.163261	0.152782	0.078622
C31	C	0.926837	0.365620	0.062639
C32	C	0.928934	0.491620	0.062776
N33	N	0.921390	0.172981	0.278615
N34	N	0.942010	0.143273	-0.152664
C35	C	0.972578	0.099018	0.325771
C36	C	0.968425	0.105023	0.412897
C37	C	0.913089	0.184999	0.452865
C38	C	0.861896	0.258966	0.405702
C39	C	0.866045	0.252954	0.318577
C40	C	0.894966	0.211228	0.713049
C41	C	0.890823	0.217237	0.800180
C42	C	0.997351	0.063292	0.807369
C43	C	1.001498	0.057292	0.720243
C44	C	0.950303	0.131254	0.673087
N45	N	0.908845	0.191142	0.541922
N46	N	0.954543	0.125105	0.584032
H47	H	0.164351	0.162439	0.216024
C48	C	0.661507	0.146598	-0.180629
C49	C	0.711786	0.152687	-0.110792
H50	H	0.691851	0.143885	-0.229945
H51	H	0.635021	0.079770	-0.179271
H52	H	0.623557	0.212023	-0.180039
H53	H	0.749732	0.087257	-0.111379
H54	H	0.738285	0.219522	-0.112151
C55	C	0.574333	0.175667	0.264154
C56	C	0.524054	0.169556	0.194319
H57	H	0.543988	0.178408	0.313471
H58	H	0.612277	0.110251	0.263578
H59	H	0.600823	0.242502	0.262780
H60	H	0.497569	0.102716	0.195690
H61	H	0.486096	0.234979	0.194896
H62	H	1.017641	0.033898	0.293236
C63	C	0.724465	0.326925	0.423356
C64	C	0.801066	0.346870	0.449636
H65	H	0.686912	0.381191	0.450484
H66	H	0.719613	0.333937	0.364727
H67	H	0.714917	0.252122	0.437050
H68	H	0.810616	0.421669	0.435936
H69	H	0.805921	0.339868	0.508278
H70	H	1.010106	0.044796	0.451292
C71	C	0.821885	0.447411	0.288660
C72	C	0.809783	0.334260	0.266737
H73	H	0.787151	0.497603	0.256652
H74	H	0.811492	0.462431	0.346260
H75	H	0.875219	0.458939	0.277922
H76	H	0.756450	0.322729	0.277481
H77	H	0.820170	0.319234	0.209124
H78	H	1.046558	-0.007831	0.687703
H79	H	0.685949	0.172702	0.183693
H80	H	1.039031	0.003074	0.845771
H81	H	0.845759	0.282367	0.832717
C82	C	0.850810	0.405686	0.683160
C83	C	0.838699	0.292541	0.661226
H84	H	0.816074	0.455889	0.651161
H85	H	0.840424	0.420696	0.740762
H86	H	0.904143	0.417211	0.672416
H87	H	0.785367	0.281014	0.671976
H88	H	0.849079	0.277527	0.603611
C89	C	0.267594	0.171563	0.311009
C90	C	0.324204	0.168539	0.248395
H91	H	0.293045	0.175887	0.364095
H92	H	0.229949	0.236546	0.305313
H93	H	0.241406	0.104293	0.306090
H94	H	0.350388	0.235813	0.253310
H95	H	0.361863	0.103549	0.254093
C96	C	0.223354	0.138723	-0.142661
C97	C	0.166747	0.141758	-0.080043
H98	H	0.197901	0.134397	-0.195746
H99	H	0.249548	0.205975	-0.137746
H100	H	0.260997	0.073723	-0.136965
H101	H	0.129107	0.206763	-0.085736
H102	H	0.140541	0.074498	-0.084961
C103	C	0.378386	0.245224	-0.070375
C104	C	0.339335	0.146709	-0.068385
H105	H	0.408726	0.242495	-0.119694
H106	H	0.340435	0.310633	-0.069793
H107	H	0.412491	0.249343	-0.022991
H108	H	0.305225	0.142594	-0.115765
H109	H	0.377290	0.081282	-0.068974
H110	H	0.549878	0.149527	-0.100161
