data_functionalizedCrystal
_audit_creation_method	'MofGen! by Chris Wilmer'
_symmetry_space_group_name_H-M	'P1'
_symmetry_Int_Tables_number	1
_symmetry_cell_setting	triclinic
loop_
_symmetry_equiv_pos_as_xyz
  x,y,z
_cell_length_a	15.995350
_cell_length_b	15.995300
_cell_length_c	7.681481
_cell_angle_alpha	95.720838
_cell_angle_beta	84.260013
_cell_angle_gamma	83.482091
loop_
_atom_site_label
_atom_site_type_symbol
_atom_site_fract_x
_atom_site_fract_y
_atom_site_fract_z
O1	O	0.115657	1.103092	-0.146484
O2	O	0.129028	0.859311	-0.146472
O3	O	0.000454	0.987866	-0.146477
O4	O	0.244232	0.974538	-0.146480
O5	O	-0.015407	1.003688	0.146380
O6	O	0.113167	0.875134	0.146385
O7	O	0.099796	1.118915	0.146373
Zn8	Zn	0.103963	0.999537	0.192876
Zn9	Zn	0.124861	0.978689	-0.192976
O10	O	0.228371	0.990361	0.146378
C11	C	0.120552	0.836027	-0.000042
C12	C	0.118917	0.743075	-0.000038
C13	C	0.115898	0.572891	-0.000052
C14	C	0.207446	0.525426	-0.000049
C15	C	0.205812	0.428702	-0.000718
C16	C	0.112927	0.405334	-0.000063
C17	C	0.076547	0.437449	-0.166969
C18	C	0.078871	0.534075	-0.167104
C19	C	0.059477	0.552348	0.165941
C20	C	0.059367	0.455522	0.168130
C21	C	0.111243	0.310638	-0.000075
C22	C	0.117580	0.667587	-0.000051
C23	C	-0.038671	0.995226	-0.000052
C24	C	-0.131621	0.993573	-0.000062
C25	C	-0.469367	0.987641	-0.000055
C26	C	-0.421881	0.896052	-0.000708
C27	C	-0.325227	0.897740	-0.000048
C28	C	-0.301807	0.990584	-0.000060
C29	C	-0.351950	1.044777	0.167171
C30	C	-0.448593	1.042485	0.167311
C31	C	-0.430914	1.026382	-0.165722
C32	C	-0.333849	1.026241	-0.167932
C33	C	-0.207110	0.992252	-0.000056
C34	C	-0.564065	0.985977	-0.000047
C35	C	0.267496	0.983000	-0.000052
C36	C	0.360446	0.984652	-0.000053
C37	C	0.108273	1.142198	-0.000061
C38	C	0.109908	1.235150	-0.000077
N39	N	0.089701	1.013771	0.456210
N40	N	0.139117	0.964462	-0.456309
H41	H	0.237755	0.550382	0.119621
O42	O	0.199336	0.904514	0.453802
C43	C	0.256681	0.943710	0.347177
H44	H	0.224747	1.007720	0.319712
H45	H	0.314738	0.953290	0.418119
C46	C	0.323255	0.808504	0.205708
C47	C	0.284030	0.887118	0.171963
H48	H	0.340129	0.773594	0.097630
H49	H	0.284623	0.782095	0.277547
H50	H	0.371631	0.816498	0.264830
H51	H	0.235650	0.879123	0.112862
H52	H	0.322655	0.913523	0.100109
H53	H	-0.290306	0.855766	-0.119925
O54	O	0.240574	0.402577	0.142176
C55	C	0.193589	0.445266	0.296979
H56	H	0.158171	0.506944	0.265697
H57	H	0.146214	0.403543	0.351120
C58	C	0.297605	0.389189	0.473620
C59	C	0.254110	0.464946	0.435201
H60	H	0.334936	0.401326	0.558887
H61	H	0.329259	0.360426	0.369328
H62	H	0.258117	0.354428	0.518729
H63	H	0.293597	0.499702	0.390074
H64	H	0.222464	0.493716	0.539490
O65	O	0.258279	0.541386	-0.142559
C66	C	0.262329	0.629220	-0.136122
H67	H	0.204127	0.664925	-0.051508
H68	H	0.321891	0.645038	-0.076577
C69	C	0.336402	0.611714	-0.427751
C70	C	0.264913	0.655567	-0.323839
H71	H	0.338000	0.627967	-0.543543
H72	H	0.333677	0.552538	-0.432087
H73	H	0.386029	0.624900	-0.378110
H74	H	0.215288	0.642373	-0.373469
H75	H	0.267630	0.714742	-0.319516
O76	O	0.029419	1.073780	0.545723
C77	C	-0.051030	1.057629	0.500845
H78	H	-0.043702	1.018166	0.366957
H79	H	-0.082446	1.021475	0.604584
C80	C	-0.115369	1.190602	0.656989
C81	C	-0.106369	1.142139	0.492539
H82	H	-0.149507	1.242731	0.651873
H83	H	-0.061169	1.201483	0.687231
H84	H	-0.141546	1.160464	0.743421
H85	H	-0.080182	1.172272	0.406115
H86	H	-0.160566	1.131265	0.462283
O87	O	-0.335394	1.126510	0.174373
C88	C	-0.278111	1.135942	0.027857
H89	H	-0.240761	1.071871	-0.024458
H90	H	-0.314663	1.161416	-0.079670
C91	C	-0.262486	1.277077	0.147988
C92	C	-0.216608	1.198384	0.083742
H93	H	-0.224550	1.315597	0.182456
H94	H	-0.301082	1.270724	0.246695
H95	H	-0.292944	1.298294	0.058371
H96	H	-0.186159	1.177164	0.173365
H97	H	-0.178006	1.204735	-0.014950
O98	O	0.256086	0.387807	-0.144231
C99	C	0.339693	0.406869	-0.137258
H100	H	0.338833	0.469275	-0.050913
H101	H	0.378145	0.354111	-0.079387
C102	C	0.381296	0.338013	-0.430508
C103	C	0.380239	0.414664	-0.324468
H104	H	0.406309	0.342817	-0.545987
H105	H	0.324969	0.325167	-0.435204
H106	H	0.413338	0.294055	-0.382260
H107	H	0.348188	0.458617	-0.372704
H108	H	0.436561	0.427518	-0.319785
O109	O	-0.487473	1.123189	0.176150
C110	C	-0.455979	1.161141	0.029246
H111	H	-0.390610	1.127309	-0.025092
H112	H	-0.500743	1.156110	-0.076824
C113	C	-0.529701	1.296645	0.152201
C114	C	-0.449410	1.255097	0.085471
H115	H	-0.525652	1.354603	0.186879
H116	H	-0.550921	1.271076	0.251171
H117	H	-0.566995	1.292444	0.063798
H118	H	-0.412120	1.259289	0.173880
H119	H	-0.428183	1.280669	-0.013483
O120	O	0.087134	0.585064	0.316962
C121	C	0.021960	0.642931	0.414104
H122	H	-0.024297	0.667449	0.321715
H123	H	-0.012976	0.609852	0.518689
C124	C	0.117264	0.687592	0.617217
C125	C	0.060453	0.717711	0.503740
H126	H	0.141007	0.733718	0.672516
H127	H	0.161172	0.648604	0.551775
H128	H	0.088141	0.660026	0.704356
H129	H	0.089578	0.745266	0.416592
H130	H	0.016550	0.756705	0.569170
H131	H	0.118388	0.545627	-0.292342
H132	H	0.012032	0.565963	-0.174235
H133	H	0.008634	0.423039	-0.172706
H134	H	-0.330303	1.020137	0.291626
H135	H	-0.444584	0.989600	-0.292473
H136	H	0.114438	0.402327	-0.291648
H137	H	0.085848	0.434854	0.291609
H138	H	-0.008899	0.440755	0.178702
H139	H	-0.433911	0.852979	-0.120632
H140	H	-0.462626	1.093823	-0.166855
H141	H	-0.008106	0.584216	0.167547
O142	O	-0.293179	0.978870	-0.315356
C143	C	-0.236027	0.913731	-0.267018
H144	H	-0.218657	0.932618	-0.129432
H145	H	-0.266860	0.852864	-0.267622
C146	C	-0.176750	0.876092	-0.568240
C147	C	-0.155409	0.899291	-0.399260
H148	H	-0.127022	0.867181	-0.649817
H149	H	-0.215255	0.919975	-0.600809
H150	H	-0.202444	0.825371	-0.568719
H151	H	-0.129725	0.950016	-0.398779
H152	H	-0.116897	0.855416	-0.366694
H153	H	-0.447928	0.866065	0.118552
H154	H	-0.303860	0.868493	0.120037
O155	O	-0.314876	1.106334	-0.180365
C156	C	-0.344733	1.135758	-0.332624
H157	H	-0.351486	1.079426	-0.431221
H158	H	-0.408969	1.175610	-0.295574
C159	C	-0.273158	1.259346	-0.294706
C160	C	-0.281446	1.190158	-0.415810
H161	H	-0.234122	1.292906	-0.346016
H162	H	-0.253045	1.239525	-0.192122
H163	H	-0.326692	1.292547	-0.263841
H164	H	-0.227914	1.156953	-0.446656
H165	H	-0.301548	1.209975	-0.518402
O166	O	-0.478647	1.011296	0.316383
C167	C	-0.566563	1.008786	0.318424
H168	H	-0.593512	1.056293	0.230993
H169	H	-0.578738	0.942419	0.266980
C170	C	-0.576652	0.973174	0.615636
C171	C	-0.609751	1.031528	0.508262
H172	H	-0.603293	0.987198	0.732737
H173	H	-0.517421	0.974861	0.614260
H174	H	-0.586800	0.917872	0.572745
H175	H	-0.599594	1.086826	0.551140
H176	H	-0.668982	1.029850	0.509650
