data_functionalizedCrystal
_audit_creation_method	'MofGen! by Chris Wilmer'
_symmetry_space_group_name_H-M	'P1'
_symmetry_Int_Tables_number	1
_symmetry_cell_setting	triclinic
loop_
_symmetry_equiv_pos_as_xyz
  x,y,z
_cell_length_a	10.540554
_cell_length_b	14.421503
_cell_length_c	10.540510
_cell_angle_alpha	90.007727
_cell_angle_beta	95.477700
_cell_angle_gamma	90.006364
loop_
_atom_site_label
_atom_site_type_symbol
_atom_site_fract_x
_atom_site_fract_y
_atom_site_fract_z
O1	O	-1.685867	-0.077060	0.178969
O2	O	-1.316454	-0.077072	0.195807
O3	O	-1.509608	-0.077065	0.002679
O4	O	-1.492713	-0.077067	0.372096
O5	O	-1.509573	0.077158	0.002712
O6	O	-1.316419	0.077152	0.195839
O7	O	-1.685832	0.077163	0.179002
Cu8	Cu	-1.501122	0.091239	0.187423
Cu9	Cu	-1.501164	-0.091148	0.187385
O10	O	-1.492678	0.077157	0.372129
C11	C	-1.269134	0.000039	0.194556
C12	C	-1.128187	0.000034	0.190767
C13	C	-1.091532	0.000038	0.049749
C14	C	-0.944933	0.000398	0.045762
C15	C	-0.918826	0.087943	0.255143
C16	C	-1.065590	0.088007	0.258153
C17	C	-1.065514	-0.087380	0.260168
C18	C	-0.919170	-0.088525	0.253636
N19	N	-1.501102	0.219521	0.187449
C20	C	-1.411766	0.469171	0.276717
C21	C	-1.526693	0.530978	0.302404
C22	C	-1.501128	0.408682	0.187424
C23	C	-1.386227	0.530970	0.161772
C24	C	-1.501144	0.591403	0.187402
C25	C	-1.616114	0.469127	0.213168
C26	C	-1.475572	0.469114	0.072486
C27	C	-1.590582	0.530892	0.098125
C28	C	-1.501118	0.303421	0.187440
C29	C	-1.501168	0.696662	0.187385
C30	C	-0.733154	0.000052	0.180235
C31	C	-0.874107	0.000052	0.183974
C32	C	-1.508332	0.000044	-0.044608
C33	C	-1.504565	0.000039	-0.185558
N34	N	-1.501172	0.780571	0.187373
C35	C	-1.638748	0.000396	-0.403007
C36	C	-1.642766	0.000044	-0.256411
C37	C	-1.433839	-0.088031	-0.230339
C38	C	-1.430800	-0.088100	-0.377100
C39	C	-1.427882	0.087281	-0.376872
C40	C	-1.434437	0.088440	-0.230530
C41	C	-1.493954	0.000045	0.419416
C42	C	-1.497721	0.000045	0.560366
H43	H	-1.133521	-0.062981	-0.004413
C44	C	-1.254953	0.567657	0.132457
H45	H	-1.191560	0.546511	0.195986
H46	H	-1.256114	0.633520	0.131883
H47	H	-1.236187	0.545552	0.051423
C48	C	-1.747423	0.432597	0.242627
H49	H	-1.802239	0.483446	0.254870
H50	H	-1.737923	0.395942	0.317805
H51	H	-1.783123	0.395875	0.173361
C52	C	-1.150214	0.085060	-0.022162
H53	H	-1.196951	0.120557	0.033383
H54	H	-1.205681	0.064988	-0.093184
H55	H	-1.084199	0.122102	-0.051028
H56	H	-0.916472	0.063775	-0.009596
C57	C	-1.095470	-0.088541	0.400326
H58	H	-1.057338	-0.141512	0.441766
H59	H	-1.185138	-0.090812	0.403813
H60	H	-1.062391	-0.034009	0.441873
H61	H	-1.324119	0.087871	-0.399027
H62	H	-1.485899	0.153593	-0.201902
H63	H	-1.692575	0.063555	-0.444946
C64	C	-1.119853	0.177094	0.193253
H65	H	-1.052172	0.212903	0.165295
H66	H	-1.162874	0.212160	0.252285
H67	H	-1.177974	0.161175	0.122114
C68	C	-0.854842	0.092036	0.392616
H69	H	-0.883222	0.145698	0.433902
H70	H	-0.764953	0.094680	0.391077
H71	H	-0.876901	0.038255	0.437690
C72	C	-1.309793	0.432547	0.378800
H73	H	-1.328172	0.453730	0.460410
H74	H	-1.228333	0.454628	0.361390
H75	H	-1.309986	0.366679	0.377595
C76	C	-1.692785	0.567284	-0.003898
H77	H	-1.774327	0.545994	0.014530
H78	H	-1.675320	0.545165	-0.085324
H79	H	-1.691776	0.633154	-0.003817
H80	H	-0.890588	-0.153548	0.201844
C81	C	-1.555910	0.567700	0.433691
H82	H	-1.492333	0.546576	0.497051
H83	H	-1.636925	0.545621	0.452529
H84	H	-1.556464	0.633568	0.432494
H85	H	-0.870112	-0.094106	0.354507
H86	H	-1.088609	0.091763	0.361531
H87	H	-0.887914	0.153604	0.206342
C88	C	-1.711089	-0.084444	-0.461766
H89	H	-1.796207	-0.083698	-0.439174
H90	H	-1.669933	-0.139593	-0.430472
H91	H	-1.711772	-0.082372	-0.551912
C92	C	-1.298126	0.095626	-0.164266
H93	H	-1.258069	0.149629	-0.193222
H94	H	-1.250768	0.042369	-0.184032
H95	H	-1.301448	0.099324	-0.074657
H96	H	-1.453904	0.441920	-0.024675
C97	C	-1.122885	-0.177408	0.200706
H98	H	-1.185603	-0.162523	0.132989
H99	H	-1.161037	-0.211953	0.263737
H100	H	-1.057405	-0.213279	0.168673
H101	H	-1.482985	-0.153569	-0.199494
C102	C	-1.717539	0.085318	-0.216743
H103	H	-1.745732	0.120486	-0.290283
H104	H	-1.663890	0.122579	-0.159928
H105	H	-1.789155	0.065490	-0.175567
H106	H	-1.698456	-0.063193	-0.228016
C107	C	-1.496071	-0.177052	-0.431443
H108	H	-1.524204	-0.212800	-0.363796
H109	H	-1.437158	-0.212235	-0.474455
H110	H	-1.567123	-0.161001	-0.489585
H111	H	-0.915616	-0.062593	-0.009895
H112	H	-1.327435	-0.092093	-0.400101
H113	H	-1.332099	-0.091309	-0.182956
H114	H	-1.471785	0.154038	-0.419037
