data_functionalizedCrystal
_audit_creation_method	'MofGen! by Chris Wilmer'
_symmetry_space_group_name_H-M	'P1'
_symmetry_Int_Tables_number	1
_symmetry_cell_setting	triclinic
loop_
_symmetry_equiv_pos_as_xyz
  x,y,z
_cell_length_a	14.519709
_cell_length_b	10.868271
_cell_length_c	14.519709
_cell_angle_alpha	90.001060
_cell_angle_beta	83.680144
_cell_angle_gamma	90.001299
loop_
_atom_site_label
_atom_site_type_symbol
_atom_site_fract_x
_atom_site_fract_y
_atom_site_fract_z
O1	O	1.223867	-0.102145	0.120892
O2	O	1.473867	0.147855	0.370892
O3	O	1.723867	0.397855	0.620892
O4	O	1.973867	0.647855	0.870892
O5	O	0.955390	-0.102180	0.135128
O6	O	1.205390	0.147820	0.385128
O7	O	1.455390	0.397820	0.635128
O8	O	1.705390	0.647820	0.885128
O9	O	1.096747	-0.102173	-0.006228
O10	O	1.346747	0.147827	0.243772
O11	O	1.596747	0.397827	0.493772
O12	O	1.846747	0.647827	0.743772
O13	O	1.082510	-0.102152	0.262248
O14	O	1.332510	0.147848	0.512248
O15	O	1.582510	0.397848	0.762248
O16	O	1.832510	0.647848	1.012248
O17	O	1.096735	0.102472	-0.006234
O18	O	1.346735	0.352472	0.243766
O19	O	1.596735	0.602472	0.493766
O20	O	1.846735	0.852472	0.743766
O21	O	0.955379	0.102464	0.135123
O22	O	1.205379	0.352464	0.385123
O23	O	1.455379	0.602464	0.635123
O24	O	1.705379	0.852464	0.885123
O25	O	1.223856	0.102500	0.120886
O26	O	1.473856	0.352500	0.370886
O27	O	1.723856	0.602500	0.620886
O28	O	1.973856	0.852500	0.870886
Zn29	Zn	1.089615	0.134974	0.128004
Zn30	Zn	1.339615	0.384974	0.378004
Zn31	Zn	1.589615	0.634974	0.628004
Zn32	Zn	1.839615	0.884974	0.878004
Zn33	Zn	1.089631	-0.134654	0.128011
Zn34	Zn	1.339631	0.115346	0.378011
Zn35	Zn	1.589631	0.365346	0.628011
Zn36	Zn	1.839631	0.615346	0.878011
O37	O	1.082499	0.102493	0.262243
O38	O	1.332499	0.352493	0.512243
O39	O	1.582499	0.602493	0.762243
O40	O	1.832499	0.852493	1.012243
C41	C	0.921025	0.000137	0.134462
C42	C	1.171025	0.250137	0.384462
C43	C	1.421025	0.500137	0.634462
C44	C	1.671025	0.750137	0.884462
C45	C	0.818643	0.000123	0.132474
C46	C	1.068643	0.250123	0.382474
C47	C	1.318643	0.500123	0.632474
C48	C	1.568643	0.750123	0.882474
N49	N	1.089612	0.318988	0.127998
N50	N	1.339612	0.568988	0.377998
N51	N	1.589612	0.818988	0.627998
N52	N	1.839612	1.068988	0.877998
N53	N	1.089642	-0.318668	0.128009
N54	N	1.339642	-0.068668	0.378009
N55	N	1.589642	0.181332	0.628009
N56	N	1.839642	0.431332	0.878009
C57	C	0.443748	0.000178	0.125154
C58	C	0.693748	0.250178	0.375154
C59	C	0.943748	0.500178	0.625154
C60	C	1.193748	0.750178	0.875154
C61	C	0.548056	0.000162	0.127187
C62	C	0.798056	0.250162	0.377187
C63	C	1.048056	0.500162	0.627187
C64	C	1.298056	0.750162	0.877187
C65	C	0.631192	0.000149	0.128814
C66	C	0.881192	0.250149	0.378814
C67	C	1.131192	0.500149	0.628814
C68	C	1.381192	0.750149	0.878814
C69	C	0.735507	0.000136	0.130847
C70	C	0.985507	0.250136	0.380847
C71	C	1.235507	0.500136	0.630847
C72	C	1.485507	0.750136	0.880847
C73	C	1.258221	0.000180	0.121553
C74	C	1.508221	0.250180	0.371553
C75	C	1.758221	0.500180	0.621553
C76	C	2.008221	0.750180	0.871553
C77	C	1.360602	0.000186	0.123541
C78	C	1.610602	0.250186	0.373541
C79	C	1.860602	0.500186	0.623541
C80	C	2.110602	0.750186	0.873541
C81	C	1.096078	0.000144	-0.040591
C82	C	1.346078	0.250144	0.209409
C83	C	1.596078	0.500144	0.459409
C84	C	1.846078	0.750144	0.709409
C85	C	1.094090	0.000127	-0.142972
C86	C	1.344090	0.250127	0.107028
C87	C	1.594090	0.500127	0.357028
C88	C	1.844090	0.750127	0.607028
C89	C	1.089626	0.569994	0.128009
C90	C	1.339626	0.819994	0.378009
C91	C	1.589626	1.069994	0.628009
C92	C	1.839626	1.319994	0.878009
C93	C	1.089615	0.430317	0.128006
C94	C	1.339615	0.680317	0.378006
C95	C	1.589615	0.930317	0.628006
C96	C	1.839615	1.180317	0.878006
C97	C	1.083168	0.000173	0.296605
C98	C	1.333168	0.250173	0.546605
C99	C	1.583168	0.500173	0.796605
C100	C	1.833168	0.750173	1.046605
C101	C	1.085156	0.000182	0.398987
C102	C	1.335156	0.250182	0.648987
C103	C	1.585156	0.500182	0.898987
C104	C	1.835156	0.750182	1.148987
C105	C	1.092476	0.000134	0.773883
C106	C	1.342476	0.250134	1.023883
C107	C	1.592476	0.500134	1.273883
C108	C	1.842476	0.750134	1.523883
C109	C	1.090443	0.000147	0.669575
C110	C	1.340443	0.250147	0.919575
C111	C	1.590443	0.500147	1.169575
C112	C	1.840443	0.750147	1.419575
C113	C	1.088816	0.000159	0.586438
C114	C	1.338816	0.250159	0.836438
C115	C	1.588816	0.500159	1.086438
C116	C	1.838816	0.750159	1.336438
C117	C	1.086783	0.000170	0.482123
C118	C	1.336783	0.250170	0.732123
C119	C	1.586783	0.500170	0.982123
C120	C	1.836783	0.750170	1.232123
