data_functionalizedCrystal
_audit_creation_method	'MofGen! by Chris Wilmer'
_symmetry_space_group_name_H-M	'P1'
_symmetry_Int_Tables_number	1
_symmetry_cell_setting	triclinic
loop_
_symmetry_equiv_pos_as_xyz
  x,y,z
_cell_length_a	9.065218
_cell_length_b	13.339070
_cell_length_c	7.540329
_cell_angle_alpha	89.998761
_cell_angle_beta	89.996962
_cell_angle_gamma	100.322590
loop_
_atom_site_label
_atom_site_type_symbol
_atom_site_fract_x
_atom_site_fract_y
_atom_site_fract_z
O1	O	2.018453	0.148888	-0.147480
O2	O	1.593930	0.161101	-0.147482
O3	O	1.757470	0.007285	-0.147476
O4	O	1.854913	0.302705	-0.147487
O5	O	1.757455	0.007283	0.147489
O6	O	1.593915	0.161099	0.147483
O7	O	2.018438	0.148886	0.147485
Cu8	Cu	1.806176	0.154992	0.174416
Cu9	Cu	1.806193	0.154995	-0.174414
O10	O	1.854898	0.302702	0.147479
C11	C	1.538478	0.159926	-0.000000
C12	C	1.373267	0.156417	-0.000001
C13	C	1.741002	-0.030556	0.000004
C14	C	1.691939	-0.143308	-0.000004
C15	C	2.073430	-0.504605	-0.000001
C16	C	2.119533	-0.398670	0.000016
C17	C	2.012638	-0.334824	0.000010
C18	C	1.859634	-0.376924	-0.000011
C19	C	1.813527	-0.482870	-0.000014
C20	C	1.752734	-0.313089	-0.000003
C21	C	1.599730	-0.355188	-0.000024
C22	C	1.553631	-0.461124	-0.000028
C23	C	1.660525	-0.524969	-0.000022
C24	C	1.798841	-0.207143	0.000000
C25	C	1.538938	-0.185408	-0.000012
C26	C	1.492836	-0.291343	-0.000029
C27	C	2.073890	0.150061	-0.000002
C28	C	2.239101	0.153570	-0.000012
C29	C	1.871366	0.340544	-0.000005
C30	C	1.920429	0.453295	-0.000010
N31	N	1.806174	0.154990	0.419765
N32	N	1.806202	0.154989	-0.419763
H33	H	1.923418	-0.172877	0.000018
H34	H	2.050184	-0.248568	0.000024
H35	H	2.244108	-0.364400	0.000036
C36	C	1.422637	-0.116271	0.000066
C37	C	1.278777	-0.175813	0.000109
C38	C	1.171615	-0.112154	0.000211
H39	H	1.435027	-0.074469	-0.102767
H40	H	1.435128	-0.074509	0.102968
H41	H	1.266291	-0.217557	-0.102783
H42	H	1.266339	-0.217613	0.102934
H43	H	1.184106	-0.070392	0.103113
H44	H	1.184019	-0.070355	-0.102624
H45	H	1.073995	-0.152543	0.000256
H46	H	2.160447	-0.556597	0.000018
H47	H	1.368256	-0.325636	-0.000046
H48	H	1.622996	-0.611232	-0.000043
C49	C	1.387562	-0.506970	-0.000318
C50	C	1.353525	-0.567171	-0.152051
C51	C	1.200562	-0.609428	-0.152369
H52	H	1.330333	-0.453881	-0.000415
H53	H	1.364124	-0.547905	0.102488
H54	H	1.376947	-0.526238	-0.254830
H55	H	1.410715	-0.620276	-0.151986
H56	H	1.177124	-0.650363	-0.049563
H57	H	1.143346	-0.556333	-0.152462
H58	H	1.177450	-0.650286	-0.255309
