data_functionalizedCrystal
_audit_creation_method	'MofGen! by Chris Wilmer'
_symmetry_space_group_name_H-M	'P1'
_symmetry_Int_Tables_number	1
_symmetry_cell_setting	triclinic
loop_
_symmetry_equiv_pos_as_xyz
  x,y,z
_cell_length_a	18.215407
_cell_length_b	16.625546
_cell_length_c	18.215399
_cell_angle_alpha	90.029595
_cell_angle_beta	90.019350
_cell_angle_gamma	90.022916
loop_
_atom_site_label
_atom_site_type_symbol
_atom_site_fract_x
_atom_site_fract_y
_atom_site_fract_z
Zn1	Zn	1.125081	-0.320997	0.416110
Zn2	Zn	1.458414	0.012336	0.749443
Zn3	Zn	1.791747	0.345670	1.082776
Zn4	Zn	1.124995	-0.455838	0.293041
Zn5	Zn	1.458329	-0.122505	0.626374
Zn6	Zn	1.791662	0.210829	0.959707
Zn7	Zn	1.002014	-0.321024	0.293057
Zn8	Zn	1.335348	0.012309	0.626390
Zn9	Zn	1.668681	0.345642	0.959724
Zn10	Zn	1.001984	-0.455792	0.416066
Zn11	Zn	1.335318	-0.122459	0.749399
Zn12	Zn	1.668651	0.210874	1.082732
O13	O	1.063519	-0.388413	0.354568
O14	O	1.396852	-0.055080	0.687902
O15	O	1.730185	0.278254	1.021235
O16	O	1.228054	-0.338892	0.399796
O17	O	1.561387	-0.005558	0.733129
O18	O	1.894720	0.327775	1.066463
O19	O	1.108659	-0.437985	0.190059
O20	O	1.441992	-0.104652	0.523392
O21	O	1.775325	0.228681	0.856725
O22	O	1.018388	-0.208188	0.309405
O23	O	1.351721	0.125145	0.642739
O24	O	1.685054	0.458478	0.976072
O25	O	1.227991	-0.437959	0.309378
O26	O	1.561324	-0.104626	0.642711
O27	O	1.894658	0.228708	0.976044
O28	O	1.108804	-0.208168	0.399812
O29	O	1.442137	0.125165	0.733145
O30	O	1.775471	0.458499	1.066478
O31	O	1.018305	-0.338938	0.190070
O32	O	1.351638	-0.005605	0.523404
O33	O	1.684972	0.327728	0.856737
O34	O	0.899026	-0.338894	0.309363
O35	O	1.232360	-0.005560	0.642696
O36	O	1.565693	0.327773	0.976029
O37	O	1.018337	-0.437881	0.519056
O38	O	1.351670	-0.104547	0.852389
O39	O	1.685003	0.228786	1.185722
O40	O	0.899004	-0.437907	0.399737
O41	O	1.232337	-0.104574	0.733070
O42	O	1.565671	0.228759	1.066403
O43	O	1.108775	-0.338847	0.519088
O44	O	1.442108	-0.005514	0.852421
O45	O	1.775442	0.327819	1.185755
O46	O	1.108629	-0.568664	0.309335
O47	O	1.441963	-0.235331	0.642668
O48	O	1.775296	0.098002	0.976002
O49	O	1.018254	-0.568631	0.399721
O50	O	1.351587	-0.235297	0.733054
O51	O	1.684921	0.098036	1.066387
C52	C	0.872313	-0.388399	0.354547
C53	C	1.205646	-0.055066	0.687880
C54	C	1.538979	0.278268	1.021214
C55	C	0.790514	-0.388413	0.354556
C56	C	1.123847	-0.055079	0.687889
C57	C	1.457180	0.278254	1.021222
C58	C	0.602327	-0.440050	0.401554
C59	C	0.935661	-0.106717	0.734887
C60	C	1.268994	0.226617	1.068221
C61	C	0.525469	-0.440053	0.401563
C62	C	0.858802	-0.106719	0.734897
C63	C	1.192135	0.226614	1.068230
C64	C	0.525462	-0.336790	0.307598
C65	C	0.858795	-0.003457	0.640932
C66	C	1.192129	0.329876	0.974265
C67	C	0.602319	-0.336784	0.307593
C68	C	0.935653	-0.003451	0.640927
C69	C	1.268986	0.329882	0.974260
C70	C	0.640750	-0.388419	0.354570
C71	C	0.974083	-0.055085	0.687904
C72	C	1.307417	0.278248	1.021237
C73	C	0.487034	-0.388427	0.354584
C74	C	0.820367	-0.055094	0.687918
C75	C	1.153701	0.278239	1.021251
C76	C	0.403700	-0.388430	0.354594
C77	C	0.737034	-0.055096	0.687927
C78	C	1.070367	0.278237	1.021261
C79	C	0.724089	-0.388416	0.354562
C80	C	1.057422	-0.055082	0.687895
C81	C	1.390756	0.278251	1.021228
C82	C	1.063449	-0.597904	0.354537
C83	C	1.396782	-0.264570	0.687871
C84	C	1.730116	0.068763	1.021204
C85	C	1.063487	-0.687525	0.354549
C86	C	1.396820	-0.354192	0.687882
C87	C	1.730153	-0.020858	1.021215
C88	C	1.063615	-1.015700	0.354625
C89	C	1.396948	-0.682367	0.687959
C90	C	1.730282	-0.349034	1.021292
C91	C	1.063577	-0.924392	0.354606
C92	C	1.396910	-0.591059	0.687940
C93	C	1.730244	-0.257725	1.021273
C94	C	1.063550	-0.851616	0.354587
C95	C	1.396884	-0.518282	0.687920
C96	C	1.730217	-0.184949	1.021253
C97	C	1.063513	-0.760301	0.354568
C98	C	1.396847	-0.426968	0.687902
C99	C	1.730180	-0.093635	1.021235
C100	C	1.255472	-0.388427	0.354590
C101	C	1.588805	-0.055094	0.687923
C102	C	1.922138	0.278239	1.021256
C103	C	1.337271	-0.388433	0.354599
C104	C	1.670604	-0.055100	0.687932
C105	C	2.003937	0.278233	1.021266
C106	C	1.063562	-0.388356	0.546521
C107	C	1.396895	-0.055022	0.879855
C108	C	1.730229	0.278311	1.213188
C109	C	1.063580	-0.388331	0.628320
C110	C	1.396914	-0.054998	0.961653
C111	C	1.730247	0.278335	1.294987
C112	C	1.063609	-0.178104	0.354615
C113	C	1.396942	0.155229	0.687949
C114	C	1.730275	0.488563	1.021282
C115	C	1.063647	-0.088483	0.354635
C116	C	1.396980	0.244850	0.687969
C117	C	1.730314	0.578184	1.021302
C118	C	1.063518	-0.388412	0.163362
C119	C	1.396851	-0.055078	0.496695
C120	C	1.730185	0.278255	0.830029
C121	C	1.063642	-0.388209	0.081563
C122	C	1.396976	-0.054876	0.414897
C123	C	1.730309	0.278458	0.748230
C124	C	1.110699	-0.336695	0.893396
C125	C	1.444032	-0.003362	1.226729
C126	C	1.777365	0.329972	1.560063
C127	C	1.110690	-0.336717	0.816537
C128	C	1.444023	-0.003384	1.149870
C129	C	1.777357	0.329950	1.483204
C130	C	1.016522	-0.439851	0.816493
C131	C	1.349855	-0.106518	1.149826
C132	C	1.683188	0.226816	1.483160
C133	C	1.016535	-0.439833	0.893351
C134	C	1.349868	-0.106499	1.226684
C135	C	1.683201	0.226834	1.560017
C136	C	1.063622	-0.388250	0.931800
C137	C	1.396955	-0.054917	1.265133
C138	C	1.730289	0.278417	1.598467
C139	C	1.063601	-0.388290	0.778084
C140	C	1.396934	-0.054957	1.111417
C141	C	1.730267	0.278376	1.444750
C142	C	1.063591	-0.388314	0.694750
C143	C	1.396924	-0.054981	1.028083
C144	C	1.730257	0.278352	1.361417
C145	C	1.063633	-0.388227	1.015139
C146	C	1.396966	-0.054894	1.348472
C147	C	1.730300	0.278440	1.681806
H148	H	0.633604	-0.294735	0.269333
H149	H	0.966937	0.038598	0.602667
H150	H	1.300271	0.371932	0.936000
H151	H	0.494162	-0.294753	0.269350
H152	H	0.827496	0.038581	0.602684
H153	H	1.160829	0.371914	0.936017
H154	H	1.149040	-0.294693	0.924699
H155	H	1.482373	0.038640	1.258032
H156	H	1.815707	0.371974	1.591366
H157	H	0.633616	-0.482092	0.439808
H158	H	0.966949	-0.148759	0.773141
H159	H	1.300282	0.184575	1.106474
H160	H	1.149025	-0.294736	0.785272
H161	H	1.482359	0.038597	1.118605
H162	H	1.815692	0.371930	1.451939
H163	H	0.978184	-0.481846	0.785178
H164	H	1.311517	-0.148513	1.118512
H165	H	1.644850	0.184820	1.451845
C166	C	0.533200	-0.542128	0.494434
C167	C	0.866534	-0.208795	0.827768
C168	C	1.199867	0.124538	1.161101
C169	C	0.483235	-0.496811	0.453206
C170	C	0.816568	-0.163478	0.786540
C171	C	1.149901	0.169856	1.119873
H172	H	0.507125	-0.577172	0.526315
H173	H	0.840459	-0.243839	0.859648
H174	H	1.173792	0.089494	1.192981
H175	H	0.563199	-0.507036	0.522638
H176	H	0.896532	-0.173703	0.855971
H177	H	1.229866	0.159631	1.189305
H178	H	0.563155	-0.572921	0.462308
H179	H	0.896489	-0.239588	0.795641
H180	H	1.229822	0.093745	1.128974
H181	H	0.453283	-0.466013	0.485333
H182	H	0.786616	-0.132680	0.818666
H183	H	1.119950	0.200653	1.151999
H184	H	0.453224	-0.531908	0.425001
H185	H	0.786557	-0.198574	0.758334
H186	H	1.119890	0.134759	1.091667
C187	C	0.923442	-0.541776	0.885593
C188	C	1.256776	-0.208443	1.218926
C189	C	1.590109	0.124890	1.552260
C190	C	0.964782	-0.496504	0.935570
C191	C	1.298115	-0.163171	1.268903
C192	C	1.631448	0.170162	1.602237
H193	H	0.891493	-0.576758	0.911660
H194	H	1.224826	-0.243425	1.244993
H195	H	1.558160	0.089908	1.578326
H196	H	0.955488	-0.572626	0.855614
H197	H	1.288822	-0.239292	1.188948
H198	H	1.622155	0.094041	1.522281
H199	H	0.895300	-0.506645	0.855620
H200	H	1.228633	-0.173312	1.188953
H201	H	1.561967	0.160021	1.522286
H202	H	0.992928	-0.531635	0.965540
H203	H	1.326262	-0.198302	1.298874
H204	H	1.659595	0.135032	1.632207
H205	H	0.932732	-0.465653	0.965562
H206	H	1.266065	-0.132319	1.298895
H207	H	1.599398	0.201014	1.632228
