data_functionalizedCrystal
_audit_creation_method	'MofGen! by Chris Wilmer'
_symmetry_space_group_name_H-M	'P1'
_symmetry_Int_Tables_number	1
_symmetry_cell_setting	triclinic
loop_
_symmetry_equiv_pos_as_xyz
  x,y,z
_cell_length_a	19.121102
_cell_length_b	19.120786
_cell_length_c	12.759393
_cell_angle_alpha	87.524000
_cell_angle_beta	87.538297
_cell_angle_gamma	89.915559
loop_
_atom_site_label
_atom_site_type_symbol
_atom_site_fract_x
_atom_site_fract_y
_atom_site_fract_z
Zn1	Zn	1.059888	-0.324884	-0.640845
Zn2	Zn	1.559888	0.175116	-0.140845
Zn3	Zn	1.054791	-0.442140	-0.457339
Zn4	Zn	1.554791	0.057860	0.042661
Zn5	Zn	0.942643	-0.319908	-0.458019
Zn6	Zn	1.442643	0.180092	0.041981
Zn7	Zn	0.937617	-0.437082	-0.625826
Zn8	Zn	1.437617	0.062918	-0.125826
O9	O	0.998735	-0.381003	-0.545507
O10	O	1.498735	0.118997	-0.045507
O11	O	1.157317	-0.344637	-0.622503
O12	O	1.657317	0.155363	-0.122503
O13	O	1.039885	-0.425961	-0.310404
O14	O	1.539885	0.074039	0.189596
O15	O	0.962432	-0.222458	-0.488842
O16	O	1.462432	0.277542	0.011158
O17	O	1.153573	-0.430785	-0.487682
O18	O	1.653573	0.069215	0.012318
O19	O	1.048572	-0.226114	-0.623163
O20	O	1.548572	0.273886	-0.123163
O21	O	0.957490	-0.336158	-0.310904
O22	O	1.457490	0.163842	0.189096
O23	O	0.843871	-0.331252	-0.474279
O24	O	1.343871	0.168748	0.025721
O25	O	0.953866	-0.422163	-0.774843
O26	O	1.453866	0.077837	-0.274843
O27	O	0.840178	-0.417339	-0.597565
O28	O	1.340178	0.082661	-0.097565
O29	O	1.043698	-0.339732	-0.785878
O30	O	1.543698	0.160268	-0.285878
O31	O	1.035011	-0.539579	-0.473119
O32	O	1.535011	-0.039579	0.026881
O33	O	0.948923	-0.535862	-0.596906
O34	O	1.448923	-0.035862	-0.096906
C35	C	0.816587	-0.373207	-0.534367
C36	C	1.316587	0.126793	-0.034367
C37	C	0.738662	-0.369889	-0.529624
C38	C	1.238662	0.130111	-0.029624
C39	C	0.700146	-0.413218	-0.591475
C40	C	1.200146	0.086782	-0.091475
C41	C	0.626928	-0.410091	-0.587025
C42	C	1.126928	0.089909	-0.087025
C43	C	0.592228	-0.363638	-0.520718
C44	C	1.092228	0.136362	-0.020718
C45	C	0.630749	-0.320304	-0.458865
C46	C	1.130749	0.179696	0.041135
C47	C	0.703966	-0.323428	-0.463321
C48	C	1.203966	0.176572	0.036679
C49	C	0.371256	-0.351956	-0.504062
C50	C	0.871256	0.148044	-0.004062
C51	C	0.298034	-0.348836	-0.499608
C52	C	0.798034	0.151164	0.000392
C53	C	0.294218	-0.438624	-0.627770
C54	C	0.794218	0.061376	-0.127770
C55	C	0.367436	-0.441747	-0.632216
C56	C	0.867436	0.058253	-0.132216
C57	C	0.405951	-0.398410	-0.570367
C58	C	0.905951	0.101590	-0.070367
C59	C	0.517387	-0.360442	-0.516165
C60	C	1.017387	0.139558	-0.016165
C61	C	0.480791	-0.401603	-0.574926
C62	C	0.980791	0.098397	-0.074926
C63	C	0.990888	-0.563160	-0.533333
C64	C	1.490888	-0.063160	-0.033333
C65	C	0.987595	-0.641090	-0.528164
C66	C	1.487595	-0.141090	-0.028164
C67	C	1.030863	-0.679543	-0.595721
C68	C	1.530863	-0.179543	-0.095721
C69	C	1.027766	-0.752767	-0.590866
C70	C	1.527766	-0.252767	-0.090866
C71	C	0.981404	-0.787536	-0.518447
C72	C	1.481404	-0.287536	-0.018447
C73	C	0.938132	-0.749078	-0.450886
C74	C	1.438132	-0.249078	0.049114
C75	C	0.941225	-0.675856	-0.455747
C76	C	1.441225	-0.175856	0.044253
C77	C	0.969818	-1.008528	-0.500272
C78	C	1.469818	-0.508528	-0.000272
C79	C	0.966729	-1.081756	-0.495414
C80	C	1.466729	-0.581756	0.004586
C81	C	1.056362	-1.085440	-0.635396
C82	C	1.556362	-0.585440	-0.135396
C83	C	1.059455	-1.012216	-0.640246
C84	C	1.559455	-0.512216	-0.140246
C85	C	1.016180	-0.973764	-0.572689
C86	C	1.516180	-0.473764	-0.072689
C87	C	0.978239	-0.862383	-0.513480
C88	C	1.478239	-0.362383	-0.013480
C89	C	1.019342	-0.898919	-0.577662
C90	C	1.519342	-0.398919	-0.077662
C91	C	1.181594	-0.388830	-0.556692
C92	C	1.681594	0.111170	-0.056692
C93	C	1.259518	-0.392166	-0.561458
C94	C	1.759518	0.107834	-0.061458
C95	C	0.998790	-0.380938	-0.819548
C96	C	1.498790	0.119062	-0.319548
C97	C	0.998814	-0.380911	-0.936328
C98	C	1.498814	0.119089	-0.436328
C99	C	1.006631	-0.198136	-0.557753
C100	C	1.506631	0.301864	-0.057753
C101	C	1.009997	-0.120209	-0.562972
C102	C	1.509997	0.379791	-0.062972
C103	C	1.045593	-0.337982	-0.996938
C104	C	1.545593	0.162018	-0.496938
C105	C	1.045606	-0.337952	-1.106665
C106	C	1.545606	0.162048	-0.606665
C107	C	0.952058	-0.423786	-1.095162
C108	C	1.452058	0.076214	-0.595162
C109	C	0.952042	-0.423812	-0.985437
C110	C	1.452042	0.076188	-0.485437
C111	C	1.074249	-0.256305	-1.263693
C112	C	1.574249	0.243695	-0.763693
C113	C	1.121039	-0.213383	-1.324307
C114	C	1.621039	0.286617	-0.824307
C115	C	1.189905	-0.205557	-1.293609
C116	C	1.689905	0.294443	-0.793609
C117	C	1.211995	-0.240663	-1.202299
C118	C	1.711995	0.259337	-0.702299
C119	C	1.165209	-0.283591	-1.141690
C120	C	1.665209	0.216409	-0.641690
C121	C	1.096333	-0.291404	-1.172387
C122	C	1.596333	0.208596	-0.672387
C123	C	0.923407	-0.505459	-0.828408
C124	C	1.423407	-0.005459	-0.328408
C125	C	0.876623	-0.548391	-0.767798
C126	C	1.376623	-0.048391	-0.267798
C127	C	0.807755	-0.556225	-0.798493
C128	C	1.307755	-0.056225	-0.298493
C129	C	0.785667	-0.521131	-0.889806
C130	C	1.285667	-0.021131	-0.389806
C131	C	0.832451	-0.478199	-0.950416
C132	C	1.332451	0.021801	-0.450416
C133	C	0.901318	-0.470364	-0.919713
C134	C	1.401318	0.029636	-0.419713
C135	C	0.998722	-0.381019	-0.272538
C136	C	1.498722	0.118981	0.227462
C137	C	0.998843	-0.380855	-0.155780
C138	C	1.498843	0.119145	0.344220
H139	H	0.395684	-0.479576	-0.686207
H140	H	0.895684	0.020424	-0.186207
O141	O	0.585377	-0.456958	-0.653524
O142	O	1.085377	0.043042	-0.153524
H143	H	0.621805	-0.489840	-0.700293
H144	H	1.121805	0.010160	-0.200293
H145	H	0.729590	-0.527511	-0.914801
H146	H	1.229590	-0.027511	-0.414801
O147	O	0.252679	-0.485357	-0.694489
O148	O	0.752679	0.014643	-0.194489
H149	H	0.195937	-0.475377	-0.680262
H150	H	0.695937	0.024623	-0.180262
O151	O	0.999965	-0.264739	-1.296793
O152	O	1.499965	0.235261	-0.796793
H153	H	0.992472	-0.233124	-1.370473
H154	H	1.492472	0.266876	-0.870473
H155	H	1.097206	-0.983909	-0.699215
H156	H	1.597206	-0.483909	-0.199215
H157	H	1.091594	-1.116755	-0.690398
H158	H	1.591594	-0.616755	-0.190398
O159	O	1.189020	-0.321451	-1.043205
O160	O	1.689020	0.178549	-0.543205
H161	H	1.244769	-0.308797	-1.032036
H162	H	1.744769	0.191203	-0.532036
H163	H	0.728393	-0.451048	-0.645466
H164	H	1.228393	0.048952	-0.145466
H165	H	0.979483	-0.499080	-0.803402
H166	H	1.479483	0.000920	-0.303402
H167	H	1.268076	-0.234293	-1.177318
H168	H	1.768076	0.265707	-0.677318
H169	H	0.900380	-0.777393	-0.391925
H170	H	1.400380	-0.277393	0.108075
H171	H	0.269783	-0.311000	-0.445619
H172	H	0.769783	0.189000	0.054381
H173	H	0.934583	-0.977226	-0.445263
H174	H	1.434583	-0.477226	0.054737
H175	H	0.769666	-0.591190	-0.749138
H176	H	1.269666	-0.091190	-0.249138
H177	H	0.489126	-0.322621	-0.462175
H178	H	0.989126	0.177379	0.037825
H179	H	0.602490	-0.282477	-0.404881
H180	H	1.102490	0.217523	0.095119
H181	H	0.735325	-0.288140	-0.412961
H182	H	1.235325	0.211860	0.087039
H183	H	0.402606	-0.316673	-0.453691
H184	H	0.902606	0.183327	0.046309
O185	O	0.928246	-0.899895	-0.435366
O186	O	1.428246	-0.399895	0.064634
H187	H	0.873805	-0.883540	-0.450874
H188	H	1.373805	-0.383540	0.049126
H189	H	0.905991	-0.644547	-0.400736
H190	H	1.405991	-0.144547	0.099264
O191	O	1.080873	-0.642043	-0.673822
O192	O	1.580873	-0.142043	-0.173822
H193	H	1.110437	-0.681087	-0.719986
H194	H	1.610437	-0.181087	-0.219986
O195	O	0.518219	-0.451693	-0.646457
O196	O	1.018219	0.048307	-0.146457
H197	H	0.550030	-0.488748	-0.598999
H198	H	1.050030	0.011252	-0.098999
H199	H	1.083675	-0.303047	-0.956957
H200	H	1.583675	0.196953	-0.456957
O201	O	1.074433	-0.794244	-0.663730
O202	O	1.574433	-0.294244	-0.163730
H203	H	1.107197	-0.757766	-0.714894
H204	H	1.607197	-0.257766	-0.214894
H205	H	0.928972	-1.110063	-0.436441
H206	H	1.428972	-0.610063	0.063559
H207	H	1.057087	-0.870608	-0.636630
H208	H	1.557087	-0.370608	-0.136630
O209	O	1.240371	-0.159253	-1.358970
O210	O	1.740371	0.340747	-0.858970
H211	H	1.213441	-0.136152	-1.427611
H212	H	1.713441	0.363848	-0.927611
O213	O	1.097215	-0.175507	-1.422778
O214	O	1.597215	0.324493	-0.922778
H215	H	1.041460	-0.188145	-1.433931
H216	H	1.541460	0.311855	-0.933931
H217	H	0.913980	-0.458716	-1.135160
H218	H	1.413980	0.041284	-0.635160
O219	O	0.808630	-0.440336	-1.048899
O220	O	1.308630	0.059664	-0.548899
H221	H	0.752879	-0.452988	-1.060060
H222	H	1.252879	0.047012	-0.560060
H223	H	0.894615	-0.576974	-0.693453
H224	H	1.394615	-0.076974	-0.193453
