data_functionalizedCrystal
_audit_creation_method	'MofGen! by Chris Wilmer'
_symmetry_space_group_name_H-M	'P1'
_symmetry_Int_Tables_number	1
_symmetry_cell_setting	triclinic
loop_
_symmetry_equiv_pos_as_xyz
  x,y,z
_cell_length_a	19.288864
_cell_length_b	27.732048
_cell_length_c	17.766277
_cell_angle_alpha	89.988664
_cell_angle_beta	89.976791
_cell_angle_gamma	82.889449
loop_
_atom_site_label
_atom_site_type_symbol
_atom_site_fract_x
_atom_site_fract_y
_atom_site_fract_z
O1	O	0.920977	0.060300	-0.062844
O2	O	1.420977	0.560300	0.437156
O3	O	0.718666	0.068434	-0.062793
O4	O	1.218666	0.568434	0.437207
O5	O	0.826105	-0.006011	-0.062806
O6	O	1.326105	0.493989	0.437194
O7	O	0.813538	0.134745	-0.062831
O8	O	1.313538	0.634745	0.437169
O9	O	0.826086	-0.006014	0.062383
O10	O	1.326086	0.493986	0.562383
O11	O	0.718647	0.068430	0.062395
O12	O	1.218647	0.568430	0.562395
O13	O	0.920958	0.060296	0.062345
O14	O	1.420958	0.560296	0.562345
Cu15	Cu	0.819801	0.064363	0.073801
Cu16	Cu	1.319801	0.564363	0.573801
Cu17	Cu	0.819823	0.064367	-0.074249
Cu18	Cu	1.319823	0.564367	0.425751
O19	O	0.813519	0.134741	0.062357
O20	O	1.313519	0.634741	0.562357
C21	C	0.692781	0.068171	-0.000192
C22	C	1.192781	0.568171	0.499808
C23	C	0.615683	0.067385	-0.000172
C24	C	1.115683	0.567385	0.499828
C25	C	0.570714	0.111066	-0.000192
C26	C	1.070714	0.611066	0.499808
C27	C	0.498271	0.110328	-0.000200
C28	C	0.998271	0.610328	0.499800
C29	C	0.470801	0.065906	-0.000204
C30	C	0.970801	0.565906	0.499796
C31	C	0.515780	0.022219	-0.000180
C32	C	1.015780	0.522219	0.499820
C33	C	0.588220	0.022959	-0.000164
C34	C	1.088220	0.522959	0.499836
C35	C	0.362763	0.030987	-0.044082
C36	C	0.862763	0.530987	0.455918
C37	C	0.290324	0.030250	-0.044102
C38	C	0.790324	0.530250	0.455898
C39	C	0.247370	0.063624	-0.000249
C40	C	0.747370	0.563624	0.499751
C41	C	0.276863	0.097744	0.043615
C42	C	0.776863	0.597744	0.543615
C43	C	0.349304	0.098483	0.043631
C44	C	0.849304	0.598483	0.543631
C45	C	0.392252	0.065099	-0.000220
C46	C	0.892252	0.565099	0.499780
C47	C	0.123850	0.106507	-0.000277
C48	C	0.623850	0.606507	0.499723
C49	C	0.051406	0.105767	-0.000280
C50	C	0.551406	0.605767	0.499720
C51	C	0.068916	0.017658	-0.000267
C52	C	0.568916	0.517658	0.499733
C53	C	0.141358	0.018399	-0.000256
C54	C	0.641358	0.518399	0.499744
C55	C	0.168820	0.062825	-0.000264
C56	C	0.668820	0.562825	0.499736
C57	C	0.825831	-0.024020	-0.000209
C58	C	1.325831	0.475980	0.499791
C59	C	0.825037	-0.077678	-0.000203
C60	C	1.325037	0.422322	0.499797
C61	C	0.883526	-0.416316	-0.000256
C62	C	1.383526	0.083684	0.499744
C63	C	0.880579	-0.617985	-0.000266
C64	C	1.380579	-0.117985	0.499734
O65	O	0.934063	-0.649079	-0.000312
O66	O	1.434063	-0.149079	0.499688
N67	N	0.816872	-0.637301	-0.000249
N68	N	1.316872	-0.137301	0.499751
C69	C	0.753897	-0.606196	-0.000235
C70	C	1.253897	-0.106196	0.499765
O71	O	0.699643	-0.627253	-0.000229
O72	O	1.199643	-0.127253	0.499771
C73	C	0.756845	-0.404529	-0.000231
C74	C	1.256845	0.095471	0.499769
C75	C	0.820556	-0.385216	-0.000240
C76	C	1.320556	0.114784	0.499760
C77	C	0.947232	-0.397002	-0.000266
C78	C	1.447232	0.102998	0.499734
C79	C	0.947968	-0.346588	-0.000259
C80	C	1.447968	0.153412	0.499741
C81	C	0.884998	-0.315488	-0.000243
C82	C	1.384998	0.184512	0.499757
C83	C	0.821292	-0.334801	-0.000233
C84	C	1.321292	0.165199	0.499767
C85	C	0.693871	-0.373425	-0.000222
C86	C	1.193871	0.126575	0.499778
C87	C	0.694614	-0.323006	-0.000223
C88	C	1.194614	0.176994	0.499777
C89	C	0.758325	-0.303693	-0.000232
C90	C	1.258325	0.196307	0.499768
C91	C	0.759059	-0.253287	-0.000210
C92	C	1.259059	0.246713	0.499790
N93	N	0.822766	-0.233971	-0.000227
N94	N	1.322766	0.266029	0.499773
C95	C	0.885735	-0.265071	-0.000243
C96	C	1.385735	0.234929	0.499757
C97	C	0.752354	-0.712075	-0.000236
C98	C	1.252354	-0.212075	0.499764
C99	C	0.751617	-0.762492	-0.000236
C100	C	1.251617	-0.262492	0.499764
C101	C	0.878299	-0.774276	-0.000268
C102	C	1.378299	-0.274276	0.499732
C103	C	0.879035	-0.723859	-0.000263
C104	C	1.379035	-0.223859	0.499737
C105	C	0.816061	-0.692759	-0.000253
C106	C	1.316061	-0.192759	0.499747
C107	C	0.887276	-0.159197	-0.000229
C108	C	1.387276	0.340803	0.499771
C109	C	0.888007	-0.108778	-0.000219
C110	C	1.388007	0.391222	0.499781
C111	C	0.761325	-0.096998	-0.000191
C112	C	1.261325	0.403002	0.499809
C113	C	0.760595	-0.147412	-0.000197
C114	C	1.260595	0.352588	0.499803
C115	C	0.823576	-0.178511	-0.000218
C116	C	1.323576	0.321489	0.499782
O117	O	0.705603	-0.222164	-0.000172
O118	O	1.205603	0.277836	0.499828
O119	O	0.939982	-0.244005	-0.000266
O120	O	1.439982	0.255995	0.499734
C121	C	0.882790	-0.466730	-0.000263
C122	C	1.382790	0.033270	0.499737
C123	C	0.819084	-0.486044	-0.000253
C124	C	1.319084	0.013956	0.499747
C125	C	0.756114	-0.454943	-0.000236
C126	C	1.256114	0.045057	0.499764
C127	C	0.818347	-0.536461	-0.000253
C128	C	1.318347	-0.036461	0.499747
C129	C	0.881317	-0.567561	-0.000269
C130	C	1.381317	-0.067561	0.499731
C131	C	0.945023	-0.548245	-0.000285
C132	C	1.445023	-0.048245	0.499715
C133	C	0.945760	-0.497831	-0.000279
C134	C	1.445760	0.002169	0.499721
C135	C	0.692407	-0.474260	-0.000220
C136	C	1.192407	0.025740	0.499780
C137	C	0.691676	-0.524674	-0.000226
C138	C	1.191676	-0.024674	0.499774
C139	C	0.754646	-0.555775	-0.000242
C140	C	1.254646	-0.055775	0.499758
C141	C	0.946842	0.060560	-0.000258
C142	C	1.446842	0.560560	0.499742
C143	C	1.023941	0.061345	-0.000282
C144	C	1.523941	0.561345	0.499718
C145	C	0.813792	0.152751	-0.000241
C146	C	1.313792	0.652751	0.499759
C147	C	0.814587	0.206408	-0.000252
C148	C	1.314587	0.706408	0.499748
N149	N	0.819790	0.064359	0.177931
N150	N	1.319790	0.564359	0.677931
N151	N	0.819839	0.064367	-0.178379
N152	N	1.319839	0.564367	0.321621
C153	C	0.867380	0.031411	0.217313
C154	C	1.367380	0.531411	0.717313
C155	C	0.867384	0.031409	0.296114
C156	C	1.367384	0.531409	0.796114
C157	C	0.819805	0.064363	0.335532
C158	C	1.319805	0.564363	0.835532
C159	C	0.772207	0.097314	0.296141
C160	C	1.272207	0.597314	0.796141
C161	C	0.772200	0.097312	0.217341
C162	C	1.272200	0.597312	0.717341
C163	C	0.810231	0.108406	0.460363
C164	C	1.310231	0.608406	0.960363
C165	C	0.810244	0.108408	0.539162
C166	C	1.310244	0.608408	1.039162
C167	C	0.819823	0.064369	0.578578
C168	C	1.319823	0.564369	1.078578
C169	C	0.829406	0.020325	0.539186
C170	C	1.329406	0.520325	1.039186
C171	C	0.829399	0.020323	0.460385
C172	C	1.329399	0.520323	0.960385
C173	C	0.819807	0.064369	0.420977
C174	C	1.319807	0.564369	0.920977
C175	C	0.867420	0.031416	0.703405
C176	C	1.367420	0.531416	1.203405
C177	C	0.867419	0.031413	0.782209
C178	C	1.367419	0.531413	1.282209
C179	C	0.772245	0.097322	0.782234
C180	C	1.272245	0.597322	1.282234
C181	C	0.772243	0.097321	0.703432
C182	C	1.272243	0.597321	1.203432
C183	C	0.819834	0.064368	0.664023
C184	C	1.319834	0.564368	1.164023
H185	H	0.593069	0.147241	-0.000200
H186	H	1.093069	0.647241	0.499800
N187	N	0.723597	0.130975	0.336390
N188	N	1.223597	0.630975	0.836390
N189	N	0.659405	0.130423	0.327624
N190	N	1.159405	0.630423	0.827624
H191	H	0.625069	0.154195	0.356049
H192	H	1.125069	0.654195	0.856049
H193	H	0.146211	0.142682	-0.000272
H194	H	0.646211	0.642682	0.499728
N195	N	0.626598	-0.544407	-0.000208
N196	N	1.126598	-0.044407	0.499792
N197	N	0.612038	-0.571234	0.052558
N198	N	1.112038	-0.071234	0.552558
H199	H	0.566079	-0.585170	0.052566
H200	H	1.066079	-0.085170	0.552566
N201	N	0.915993	-0.002241	0.336369
N202	N	1.415993	0.497759	0.836369
N203	N	0.894294	-0.032205	0.380373
N204	N	1.394294	0.467795	0.880373
H205	H	0.928626	-0.055968	0.408804
H206	H	1.428626	0.444032	0.908804
N207	N	0.723580	0.130971	0.177121
N208	N	1.223580	0.630971	0.677121
N209	N	0.681097	0.160390	0.212319
N210	N	1.181097	0.660390	0.712319
H211	H	0.646758	0.184163	0.183914
H212	H	1.146758	0.684163	0.683914
N213	N	0.628792	-0.393146	-0.000235
N214	N	1.128792	0.106854	0.499765
N215	N	0.614257	-0.419951	-0.053011
N216	N	1.114257	0.080049	0.446989
H217	H	0.568291	-0.433879	-0.053023
H218	H	1.068291	0.066121	0.446977
H219	H	0.997640	-0.482111	-0.000286
H220	H	1.497640	0.017889	0.499714
N221	N	0.634159	-0.021662	-0.000133
N222	N	1.134159	0.478338	0.499867
N223	N	0.631905	-0.051241	0.052644
N224	N	1.131905	0.448759	0.552644
H225	H	0.664351	-0.082755	0.052667
H226	H	1.164351	0.417245	0.552667
N227	N	0.686537	-0.782216	-0.000233
N228	N	1.186537	-0.282216	0.499767
N229	N	0.671998	-0.809024	-0.053004
N230	N	1.171998	-0.309024	0.446996
H231	H	0.626033	-0.822953	-0.053007
H232	H	1.126033	-0.322953	0.446993
N233	N	0.187307	-0.026216	-0.000252
N234	N	0.687307	0.473784	0.499748
N235	N	0.251984	-0.025550	-0.000240
N236	N	0.751984	0.474450	0.499760
H237	H	0.284437	-0.057061	-0.000236
H238	H	0.784437	0.442939	0.499764
H239	H	0.461651	0.145899	-0.000214
H240	H	0.961651	0.645899	0.499786
N241	N	0.630284	-0.291240	-0.000195
N242	N	1.130284	0.208760	0.499805
N243	N	0.616548	-0.261802	0.052584
N244	N	1.116548	0.238198	0.552584
H245	H	0.571115	-0.239368	0.052606
H246	H	1.071115	0.260632	0.552606
N247	N	0.800464	0.153397	0.420111
N248	N	1.300464	0.653397	0.920111
N249	N	0.842480	0.183822	0.428880
N250	N	1.342480	0.683822	0.928880
H251	H	0.835586	0.215596	0.400451
H252	H	1.335586	0.715596	0.900451
N253	N	0.487734	-0.023160	-0.000193
N254	N	0.987734	0.476840	0.499807
N255	N	0.527897	-0.062160	-0.000179
N256	N	1.027897	0.437840	0.499821
H257	H	0.508092	-0.094211	-0.000186
H258	H	1.008092	0.405789	0.499814
H259	H	0.014793	0.141339	-0.000292
H260	H	0.514793	0.641339	0.499708
N261	N	0.406640	-0.003112	-0.088867
N262	N	0.906640	0.496888	0.411133
N263	N	0.407387	-0.047687	-0.077806
N264	N	0.907387	0.452313	0.422194
H265	H	0.438376	-0.071770	-0.109432
H266	H	0.938376	0.428230	0.390568
H267	H	0.641128	-0.448942	-0.000208
H268	H	1.141128	0.051058	0.499792
H269	H	0.837199	-0.015539	0.428315
H270	H	1.337199	0.484461	0.928315
N271	N	0.953095	-0.089059	-0.000222
N272	N	1.453095	0.410941	0.499778
N273	N	1.009312	-0.116837	-0.000237
N274	N	1.509312	0.383163	0.499763
H275	H	1.055280	-0.102912	-0.000240
H276	H	1.555280	0.397088	0.499760
N277	N	0.839182	-0.024660	0.579448
N278	N	1.339182	0.475340	1.079448
N279	N	0.839174	-0.024654	0.649805
N280	N	1.339174	0.475346	1.149805
H281	H	0.846075	-0.056424	0.678245
H282	H	1.346075	0.443576	1.178245
N283	N	0.040879	-0.027723	-0.000262
N284	N	0.540879	0.472277	0.499738
N285	N	0.054808	-0.057138	0.052516
N286	N	0.554808	0.442862	0.552516
H287	H	0.035006	-0.089191	0.052524
H288	H	0.535006	0.410809	0.552524
H289	H	0.938562	-0.184513	-0.000249
H290	H	1.438562	0.315487	0.499751
H291	H	0.708716	-0.163138	-0.000169
H292	H	1.208716	0.336862	0.499831
N293	N	0.688022	-0.680311	-0.000234
N294	N	1.188022	-0.180311	0.499766
N295	N	0.645537	-0.681994	-0.052992
N296	N	1.145537	-0.181994	0.447008
H297	H	0.600102	-0.659562	-0.052989
H298	H	1.100102	-0.159562	0.447011
H299	H	0.710057	-0.071667	-0.000175
H300	H	1.210057	0.428333	0.499825
H301	H	0.930914	-0.708138	-0.000271
H302	H	1.430914	-0.208138	0.499729
H303	H	0.996296	-0.573576	-0.000295
H304	H	1.496296	-0.073576	0.499705
H305	H	0.906129	0.004578	0.185228
H306	H	1.406129	0.504578	0.685228
H307	H	0.373314	0.126263	0.079349
H308	H	0.873314	0.626263	0.579349
N309	N	0.260211	-0.004600	-0.088919
N310	N	0.760211	0.495400	0.411081
N311	N	0.298568	-0.034399	-0.128064
N312	N	0.798568	0.465601	0.371936
H313	H	0.277303	-0.059012	-0.159718
H314	H	0.777303	0.440988	0.340282
N315	N	0.232984	0.131846	0.088388
N316	N	0.732984	0.631846	0.588388
N317	N	0.168305	0.131188	0.088361
N318	N	0.668305	0.631188	0.588361
H319	H	0.137311	0.155276	0.119972
H320	H	0.637311	0.655276	0.619972
H321	H	0.999848	-0.330868	-0.000270
H322	H	1.499848	0.169132	0.499730
N323	N	0.915948	-0.002306	0.663156
N324	N	1.415948	0.497694	1.163156
N325	N	0.958375	-0.031766	0.698332
N326	N	1.458375	0.468234	1.198332
H327	H	0.992616	-0.055605	0.669908
H328	H	1.492616	0.444395	1.169908
N329	N	1.011566	-0.428759	-0.000288
N330	N	1.511566	0.071241	0.499712
N331	N	1.068436	-0.411498	-0.000299
N332	N	1.568436	0.088502	0.499701
H333	H	1.113877	-0.433923	-0.000310
H334	H	1.613877	0.066077	0.499690
H335	H	0.929571	-0.799607	-0.000281
H336	H	1.429571	-0.299607	0.499719
N337	N	0.916032	-0.002252	0.822427
N338	N	1.416032	0.497748	1.322427
N339	N	0.958515	-0.031670	0.787227
N340	N	1.458515	0.468330	1.287227
H341	H	0.992849	-0.055447	0.815631
H342	H	1.492849	0.444553	1.315631
N343	N	0.723633	0.130977	0.822486
N344	N	1.223633	0.630977	1.322486
N345	N	0.680687	0.115716	0.866482
N346	N	1.180687	0.615716	1.366482
H347	H	0.646350	0.139484	0.894913
H348	H	1.146350	0.639484	1.394913
N349	N	0.723627	0.130980	0.663212
N350	N	1.223627	0.630980	1.163212
N351	N	0.681146	0.160400	0.698411
N352	N	1.181146	0.660400	1.198411
H353	H	0.646806	0.184173	0.670007
H354	H	1.146806	0.684173	1.170007
H355	H	0.802445	0.144271	0.571229
H356	H	1.302445	0.644271	1.071229
