data_functionalizedCrystal
_audit_creation_method	'MofGen! by Chris Wilmer'
_symmetry_space_group_name_H-M	'P1'
_symmetry_Int_Tables_number	1
_symmetry_cell_setting	triclinic
loop_
_symmetry_equiv_pos_as_xyz
  x,y,z
_cell_length_a	19.188925
_cell_length_b	19.188925
_cell_length_c	10.868271
_cell_angle_alpha	89.995220
_cell_angle_beta	89.994733
_cell_angle_gamma	83.142549
loop_
_atom_site_label
_atom_site_type_symbol
_atom_site_fract_x
_atom_site_fract_y
_atom_site_fract_z
O1	O	0.926145	0.087150	-0.102348
O2	O	1.259479	0.420483	0.230986
O3	O	1.592812	0.753817	0.564319
O4	O	0.722833	0.098888	-0.102344
O5	O	1.056167	0.432222	0.230989
O6	O	1.389500	0.765555	0.564322
O7	O	0.830358	-0.008637	-0.102339
O8	O	1.163692	0.324697	0.230994
O9	O	1.497025	0.658030	0.564327
O10	O	0.818620	0.194675	-0.102353
O11	O	1.151953	0.528009	0.230980
O12	O	1.485287	0.861342	0.564314
O13	O	0.830350	-0.008641	0.102305
O14	O	1.163683	0.324692	0.435639
O15	O	1.497016	0.658026	0.768972
O16	O	0.722824	0.098884	0.102300
O17	O	1.056158	0.432218	0.435634
O18	O	1.389491	0.765551	0.768967
O19	O	0.926136	0.087146	0.102297
O20	O	1.259470	0.420479	0.435630
O21	O	1.592803	0.753813	0.768964
Zn22	Zn	0.824479	0.093014	0.134790
Zn23	Zn	1.157812	0.426348	0.468124
Zn24	Zn	1.491146	0.759681	0.801457
Zn25	Zn	0.824491	0.093020	-0.134838
Zn26	Zn	1.157824	0.426353	0.198496
Zn27	Zn	1.491157	0.759687	0.531829
O28	O	0.818611	0.194671	0.102292
O29	O	1.151945	0.528004	0.435625
O30	O	1.485278	0.861338	0.768958
C31	C	0.696818	0.098507	-0.000022
C32	C	1.030151	0.431840	0.333312
C33	C	1.363484	0.765173	0.666645
C34	C	0.619313	0.097368	-0.000020
C35	C	0.952646	0.430701	0.333313
C36	C	1.285980	0.764034	0.666647
C37	C	0.057542	0.152832	-0.000027
C38	C	0.390875	0.486165	0.333307
C39	C	0.724208	0.819498	0.666640
C40	C	0.130365	0.153908	-0.000033
C41	C	0.463698	0.487242	0.333300
C42	C	0.797032	0.820575	0.666633
C43	C	0.175301	0.090816	-0.000027
C44	C	0.508634	0.424149	0.333306
C45	C	0.841967	0.757483	0.666640
C46	C	0.147408	0.026642	-0.000045
C47	C	0.480741	0.359976	0.333288
C48	C	0.814074	0.693309	0.666621
C49	C	0.074586	0.025568	-0.000051
C50	C	0.407919	0.358901	0.333282
C51	C	0.741252	0.692234	0.666616
N52	N	0.295976	0.045138	0.069639
N53	N	0.629309	0.378472	0.402972
N54	N	0.962642	0.711805	0.736305
N55	N	0.365153	0.046163	0.069647
N56	N	0.698486	0.379497	0.402980
N57	N	1.031820	0.712830	0.736313
C58	C	0.394710	0.094050	-0.000013
C59	C	0.728043	0.427383	0.333321
C60	C	1.061376	0.760717	0.666654
N61	N	0.352474	0.140883	-0.069665
N62	N	0.685808	0.474217	0.263669
N63	N	1.019141	0.807550	0.597002
N64	N	0.283291	0.139860	-0.069667
N65	N	0.616624	0.473193	0.263666
N66	N	0.949957	0.806527	0.596999
C67	C	0.254265	0.091974	-0.000022
C68	C	0.587598	0.425308	0.333312
C69	C	0.920931	0.758641	0.666645
C70	C	0.501557	0.159387	-0.000010
C71	C	0.834891	0.492720	0.333323
C72	C	1.168224	0.826053	0.666656
C73	C	0.574382	0.160461	-0.000025
C74	C	0.907716	0.493794	0.333309
C75	C	1.241049	0.827127	0.666642
C76	C	0.591424	0.033193	-0.000024
C77	C	0.924757	0.366526	0.333309
C78	C	1.258091	0.699860	0.666643
C79	C	0.518600	0.032121	-0.000022
C80	C	0.851934	0.365454	0.333311
C81	C	1.185267	0.698788	0.666645
C82	C	0.473671	0.095220	-0.000009
C83	C	0.807004	0.428553	0.333324
C84	C	1.140338	0.761886	0.666657
C85	C	0.829974	-0.034650	-0.000018
C86	C	1.163308	0.298683	0.333316
C87	C	1.496641	0.632017	0.666649
C88	C	0.828835	-0.112155	-0.000020
C89	C	1.162169	0.221179	0.333313
C90	C	1.495502	0.554512	0.666646
C91	C	0.884299	-0.673926	-0.000052
C92	C	1.217633	-0.340593	0.333281
C93	C	1.550966	-0.007259	0.666614
C94	C	0.885376	-0.601103	-0.000041
C95	C	1.218709	-0.267769	0.333292
C96	C	1.552043	0.065564	0.666626
C97	C	0.822284	-0.556167	-0.000040
C98	C	1.155617	-0.222834	0.333293
C99	C	1.488950	0.110500	0.666626
C100	C	0.758110	-0.584060	-0.000019
C101	C	1.091443	-0.250727	0.333314
C102	C	1.424777	0.082607	0.666647
C103	C	0.757035	-0.656882	-0.000018
C104	C	1.090369	-0.323549	0.333315
C105	C	1.423702	0.009785	0.666649
N106	N	0.776610	-0.435484	-0.069695
N107	N	1.109944	-0.102151	0.263638
N108	N	1.443277	0.231182	0.596971
N109	N	0.777636	-0.366307	-0.069699
N110	N	1.110969	-0.032974	0.263634
N111	N	1.444302	0.300360	0.596968
C112	C	0.825518	-0.336758	-0.000041
C113	C	1.158851	-0.003425	0.333292
C114	C	1.492184	0.329909	0.666625
N115	N	0.872347	-0.379001	0.069605
N116	N	1.205680	-0.045668	0.402938
N117	N	1.539013	0.287666	0.736272
N118	N	0.871323	-0.448185	0.069603
N119	N	1.204657	-0.114852	0.402936
N120	N	1.537990	0.218482	0.736270
C121	C	0.823442	-0.477203	-0.000041
C122	C	1.156775	-0.143870	0.333292
C123	C	1.490109	0.189464	0.666626
C124	C	0.890854	-0.229910	-0.000042
C125	C	1.224188	0.103423	0.333292
C126	C	1.557521	0.436756	0.666625
C127	C	0.891928	-0.157085	-0.000023
C128	C	1.225262	0.176248	0.333310
C129	C	1.558595	0.509581	0.666644
C130	C	0.764661	-0.140044	-0.000013
C131	C	1.097994	0.193290	0.333320
C132	C	1.431327	0.526623	0.666653
C133	C	0.763589	-0.212867	-0.000020
C134	C	1.096922	0.120466	0.333313
C135	C	1.430255	0.453799	0.666647
C136	C	0.826688	-0.257797	-0.000040
C137	C	1.160021	0.075537	0.333293
C138	C	1.493354	0.408870	0.666627
C139	C	0.952152	0.087528	-0.000029
C140	C	1.285485	0.420861	0.333305
C141	C	1.618819	0.754194	0.666638
C142	C	1.029657	0.088667	-0.000038
C143	C	1.362990	0.422000	0.333295
C144	C	1.696323	0.755333	0.666628
C145	C	0.818995	0.220684	-0.000032
C146	C	1.152329	0.554018	0.333301
C147	C	1.485662	0.887351	0.666634
C148	C	0.820134	0.298189	-0.000038
C149	C	1.153468	0.631522	0.333295
C150	C	1.486801	0.964856	0.666629
N151	N	0.824476	0.093010	0.318804
N152	N	1.157810	0.426344	0.652138
N153	N	1.491143	0.759677	0.985471
N154	N	0.824499	0.093018	-0.318852
N155	N	1.157832	0.426352	0.014481
N156	N	1.491166	0.759685	0.347815
C157	C	0.824487	0.093018	0.569810
C158	C	1.157820	0.426352	0.903144
C159	C	1.491154	0.759685	1.236477
C160	C	0.824479	0.093016	0.430133
C161	C	1.157812	0.426349	0.763466
C162	C	1.491145	0.759683	1.096800
H163	H	0.495897	-0.020129	-0.000024
H164	H	0.829230	0.313204	0.333309
H165	H	1.162563	0.646537	0.666643
O166	O	0.958909	-0.278373	-0.000044
O167	O	1.292242	0.054960	0.333290
O168	O	1.625575	0.388294	0.666623
H169	H	0.961454	-0.311966	0.083361
H170	H	1.294788	0.021368	0.416695
H171	H	1.628121	0.354701	0.750028
H172	H	0.597084	0.212714	-0.000025
H173	H	0.930417	0.546047	0.333308
H174	H	1.263751	0.879380	0.666641
H175	H	0.937628	-0.578394	-0.000052
H176	H	1.270962	-0.245061	0.333281
H177	H	1.604295	0.088273	0.666614
H178	H	0.711338	-0.235571	-0.000017
H179	H	1.044672	0.097762	0.333316
H180	H	1.378005	0.431096	0.666649
H181	H	0.713290	-0.103458	-0.000002
H182	H	1.046623	0.229876	0.333331
H183	H	1.379956	0.563209	0.666665
O184	O	0.044505	-0.043642	-0.000057
O185	O	0.377838	0.289691	0.333277
O186	O	0.711171	0.623024	0.666610
H187	H	0.011727	-0.047175	0.083350
H188	H	0.345061	0.286159	0.416683
H189	H	0.678394	0.619492	0.750017
H190	H	0.020964	0.204212	-0.000022
H191	H	0.354298	0.537545	0.333311
H192	H	0.687631	0.870879	0.666644
H193	H	0.628010	-0.018178	-0.000028
H194	H	0.961343	0.315155	0.333305
H195	H	1.294677	0.648489	0.666638
H196	H	0.706740	-0.547469	-0.000015
H197	H	1.040073	-0.214135	0.333318
H198	H	1.373407	0.119198	0.666652
O199	O	0.687826	-0.686965	-0.000011
O200	O	1.021160	-0.353632	0.333323
O201	O	1.354493	-0.020298	0.666656
H202	H	0.644133	-0.643487	-0.000012
H203	H	0.977466	-0.310154	0.333321
H204	H	1.310800	0.023180	0.666655
H205	H	0.464974	0.210766	-0.000002
H206	H	0.798307	0.544099	0.333331
H207	H	1.131641	0.877432	0.666665
O208	O	0.961141	-0.127010	-0.000053
O209	O	1.294475	0.206323	0.333280
O210	O	1.627808	0.539657	0.666613
H211	H	0.991457	-0.145085	0.083338
H212	H	1.324790	0.188249	0.416671
H213	H	1.658124	0.521582	0.750005
O214	O	0.160455	0.223117	-0.000003
O215	O	0.493788	0.556450	0.333330
O216	O	0.827122	0.889784	0.666664
H217	H	0.116978	0.266812	0.000015
H218	H	0.450312	0.600145	0.333349
H219	H	0.783645	0.933479	0.666682
H220	H	0.183999	-0.024728	-0.000044
H221	H	0.517332	0.308606	0.333290
H222	H	0.850666	0.641939	0.666623
H223	H	0.935680	-0.710503	-0.000062
H224	H	1.269013	-0.377170	0.333272
H225	H	1.602346	-0.043837	0.666605
