data_functionalizedCrystal
_audit_creation_method	'MofGen! by Chris Wilmer'
_symmetry_space_group_name_H-M	'P1'
_symmetry_Int_Tables_number	1
_symmetry_cell_setting	triclinic
loop_
_symmetry_equiv_pos_as_xyz
  x,y,z
_cell_length_a	27.440280
_cell_length_b	14.395555
_cell_length_c	14.395555
_cell_angle_alpha	59.997581
_cell_angle_beta	90.001521
_cell_angle_gamma	59.995745
loop_
_atom_site_label
_atom_site_type_symbol
_atom_site_fract_x
_atom_site_fract_y
_atom_site_fract_z
Zr1	Zr	0.469473	1.016734	-0.121807
O2	O	0.391650	1.210561	-0.270158
O3	O	0.493334	0.822923	-0.076328
O4	O	0.493330	1.016735	-0.270131
O5	O	0.391652	1.016742	0.076520
O6	O	0.573533	1.016717	-0.270112
O7	O	0.391653	1.016749	-0.076354
O8	O	0.573540	0.670022	0.076567
O9	O	0.391645	1.363437	-0.270159
O10	O	0.563360	0.902620	-0.056919
O11	O	0.503504	0.902629	0.057155
O12	O	0.503500	1.130818	-0.171024
O13	O	0.443644	1.130826	-0.056950
Zr14	Zr	0.597385	1.016694	0.122040
Zr15	Zr	0.597387	1.016705	-0.121776
Zr16	Zr	0.469471	1.016723	0.122010
Zr17	Zr	0.469466	1.260553	-0.121809
Zr18	Zr	0.597392	0.772875	0.122043
O19	O	0.573524	1.210505	0.076561
O20	O	0.573527	1.210521	-0.270114
O21	O	0.391646	1.210546	0.076518
O22	O	0.675208	0.822866	0.270391
O23	O	0.675211	0.822882	-0.076284
O24	O	0.493331	0.822907	0.270348
O25	O	0.675206	1.016686	-0.076286
O26	O	0.573528	1.016693	0.270365
O27	O	0.493325	1.016711	0.270346
O28	O	0.675204	1.016679	0.076588
O29	O	0.493320	1.363414	-0.270135
O30	O	0.573538	0.670013	0.270369
O31	O	0.675213	0.669991	0.270393
O32	O	0.675214	0.669999	0.076591
O33	O	0.391643	1.363428	-0.076358
O34	O	0.493318	1.363406	-0.076333
O35	O	0.563358	0.902610	0.171257
O36	O	0.623213	0.902602	0.057184
O37	O	0.563353	1.130799	-0.056921
O38	O	0.503498	1.130807	0.057153
C39	C	0.533438	0.711733	0.000120
C40	C	0.533441	0.608226	0.000121
C41	C	0.566071	0.547643	-0.062088
C42	C	0.589722	0.409524	0.045190
C43	C	0.509794	0.561910	-0.107145
C44	C	0.557124	0.471407	0.107462
C45	C	0.477165	0.623867	-0.044951
C46	C	0.500801	0.485757	0.062391
C47	C	0.373428	1.016750	0.000079
C48	C	0.319125	1.016762	0.000066
C49	C	0.013673	0.897576	0.059710
C50	C	-0.037345	0.897568	0.059720
O51	O	-0.037159	0.796264	0.110409
N52	N	-0.094108	1.016684	0.000157
C53	C	-0.099852	1.135814	-0.059410
O54	O	-0.152818	1.237130	-0.110071
C55	C	-0.048834	1.135820	-0.059413
C56	C	0.007928	1.016697	0.000144
C57	C	0.070433	0.778462	0.119263
C58	C	0.121448	0.778470	0.119251
C59	C	0.115703	0.897591	0.059686
C60	C	0.058943	1.016705	0.000132
C61	C	-0.054579	1.254949	-0.118973
C62	C	-0.003555	1.254945	-0.118970
C63	C	0.053208	1.135821	-0.059412
C64	C	0.104213	1.135833	-0.059445
N65	N	0.160976	1.016718	0.000117
C66	C	0.166721	0.897597	0.059683
C67	C	-0.206991	1.135793	-0.059398
C68	C	-0.258008	1.135788	-0.059403
C69	C	-0.195497	0.897542	0.059729
C70	C	-0.144479	0.897548	0.059726
C71	C	-0.150228	1.016677	0.000165
C72	C	0.273853	0.897622	0.059652
C73	C	0.324870	0.897641	0.059631
C74	C	0.262355	1.135886	-0.059496
C75	C	0.211343	1.135868	-0.059480
C76	C	0.217096	1.016726	0.000103
O77	O	0.104073	1.237086	-0.110105
O78	O	0.219689	0.796298	0.110348
C79	C	0.693430	1.016678	0.000155
C80	C	0.747733	1.016666	0.000168
C81	C	0.533432	1.016728	-0.304861
C82	C	0.533433	1.016732	-0.408367
C83	C	0.533420	1.321694	0.000114
C84	C	0.533417	1.425202	0.000113
C85	C	0.500788	1.141156	-0.531171
C86	C	0.557066	1.078947	-0.561996
C87	C	0.477157	1.078936	-0.561965
C88	C	0.589745	0.954523	-0.437829
C89	C	0.509794	0.954530	-0.437801
C90	C	0.566107	0.892230	-0.468553
C91	C	0.533426	1.016700	0.305094
C92	C	0.533425	1.016695	0.408601
C93	C	0.693439	0.711698	0.000158
C94	C	0.747745	0.608178	0.000172
C95	C	0.533435	0.711720	0.305097
C96	C	0.533437	0.608207	0.408605
C97	C	0.693436	0.711684	0.305136
C98	C	0.747741	0.608159	0.408656
C99	C	0.373422	1.321744	-0.304902
C100	C	0.319117	1.425268	-0.408422
C101	C	0.373419	1.321730	0.000075
C102	C	0.319113	1.425250	0.000061
C103	C	0.533423	1.321708	-0.304864
C104	C	0.533421	1.425220	-0.408371
C105	C	0.742005	0.559574	-0.059392
C106	C	0.793026	0.462319	-0.059401
C107	C	0.849787	0.413664	0.000160
C108	C	0.855526	0.462278	0.059726
C109	C	0.804505	0.559538	0.059728
C110	C	0.804493	0.559539	0.397725
C111	C	0.855523	0.462280	0.494984
C112	C	0.849800	0.413637	0.603173
C113	C	0.793043	0.462267	0.614102
C114	C	0.742014	0.559531	0.516844
C115	C	0.262365	1.473901	-0.397491
C116	C	0.211335	1.571189	-0.494751
C117	C	0.217058	1.619838	-0.602940
C118	C	0.273815	1.571201	-0.613869
C119	C	0.324844	1.473921	-0.516611
C120	C	0.324853	1.473864	0.059615
C121	C	0.273832	1.571145	0.059598
C122	C	0.217071	1.619804	0.000033
C123	C	0.211332	1.571185	-0.059528
C124	C	0.262353	1.473913	-0.059517
C125	C	0.500802	0.547627	0.406983
C126	C	0.557088	0.409504	0.500020
C127	C	0.477174	0.561860	0.500007
C128	C	0.589756	0.471384	0.500279
C129	C	0.509801	0.623815	0.500251
C130	C	0.566121	0.485701	0.593305
H131	H	0.593708	0.574720	-0.114603
H132	H	0.788341	0.422750	-0.107907
Cl133	Cl	0.913922	0.291391	0.000149
Cl134	Cl	0.458191	0.444035	0.143716
Cl135	Cl	0.396228	0.747874	0.134507
Cl136	Cl	0.811702	0.620679	0.261727
Cl137	Cl	0.152936	1.742088	0.000033
H138	H	0.165110	1.610818	-0.108025
Cl139	Cl	0.663253	0.873385	-0.355442
H140	H	0.901733	0.422696	0.486066
H141	H	0.257694	1.434297	-0.309407
H142	H	0.788392	0.422648	0.702203
H143	H	0.695806	0.599105	0.525760
Cl144	Cl	0.255126	1.412800	-0.134384
Cl145	Cl	0.478935	0.619344	-0.247190
H146	H	0.891356	0.334439	0.682358
H147	H	0.278516	1.610714	0.108104
Cl148	Cl	0.403716	0.765394	-0.103849
Cl149	Cl	0.403700	0.619344	0.501371
Cl150	Cl	0.670654	0.620725	-0.134284
H151	H	0.165126	1.610773	-0.485830
Cl152	Cl	0.396187	1.412786	-0.530373
H153	H	0.473230	1.246367	-0.556621
H154	H	0.901747	0.422649	0.108219
Cl155	Cl	0.458255	0.589468	0.283826
H156	H	0.637304	0.317881	0.083314
Cl157	Cl	0.152900	1.742132	-0.725198
Cl158	Cl	0.587966	0.268032	0.501469
Cl159	Cl	0.280999	1.632368	-0.749887
H160	H	0.593763	0.458660	0.672944
Cl161	Cl	0.396204	1.412721	0.134500
H162	H	0.637364	0.433997	0.499466
Cl163	Cl	0.478903	0.765325	0.498738
H164	H	0.577167	0.434009	0.198215
H165	H	0.167663	0.681467	0.167744
Cl166	Cl	0.281094	0.747841	0.134553
Cl167	Cl	0.077670	0.628689	0.194158
H168	H	0.577058	1.131527	-0.615517
H169	H	-0.098264	0.800547	0.108233
H170	H	-0.304223	1.232790	-0.107915
Cl171	Cl	-0.214226	1.285571	-0.134295
Cl172	Cl	-0.188284	0.747788	0.134614
H173	H	0.593749	0.786933	-0.442888
H174	H	-0.100789	1.351952	-0.167469
Cl175	Cl	0.478905	0.873424	-0.355173
H176	H	0.809187	0.599099	0.108239
Cl177	Cl	0.403685	1.160170	-0.644585
H178	H	-0.008242	1.351957	-0.167458
Cl179	Cl	0.139983	1.285625	-0.134375
H180	H	0.257687	1.232871	-0.107996
