data_functionalizedCrystal
_audit_creation_method	'MofGen! by Chris Wilmer'
_symmetry_space_group_name_H-M	'P1'
_symmetry_Int_Tables_number	1
_symmetry_cell_setting	triclinic
loop_
_symmetry_equiv_pos_as_xyz
  x,y,z
_cell_length_a	10.685661
_cell_length_b	10.685194
_cell_length_c	10.686551
_cell_angle_alpha	81.584560
_cell_angle_beta	80.927213
_cell_angle_gamma	89.666413
loop_
_atom_site_label
_atom_site_type_symbol
_atom_site_fract_x
_atom_site_fract_y
_atom_site_fract_z
Zn1	Zn	1.946884	-0.589045	-0.817264
Zn2	Zn	1.911716	-0.815149	-0.586229
Zn3	Zn	1.718314	-0.589103	-0.588784
Zn4	Zn	1.718348	-0.784976	-0.784696
O5	O	1.823816	-0.694568	-0.694243
O6	O	2.118801	-0.631641	-0.799178
O7	O	1.871329	-0.797815	-0.407888
O8	O	1.763337	-0.412497	-0.633792
O9	O	2.092964	-0.797758	-0.629437
O10	O	1.931267	-0.412454	-0.801655
O11	O	1.729237	-0.631740	-0.409766
O12	O	1.541736	-0.602483	-0.602211
O13	O	1.763396	-0.746333	-0.967695
O14	O	1.541761	-0.746390	-0.746147
O15	O	1.931300	-0.602384	-0.991623
O16	O	1.871362	-0.987745	-0.597856
O17	O	1.729296	-0.965577	-0.743669
C18	C	1.495963	-0.671169	-0.670923
C19	C	1.355706	-0.661188	-0.660974
C20	C	1.796553	-1.022451	-0.666982
C21	C	1.785009	-1.162726	-0.655370
C22	C	2.152949	-0.718059	-0.717655
C23	C	2.293206	-0.728069	-0.727632
C24	C	1.851275	-0.670986	-1.027284
C25	C	1.862976	-0.660937	-1.169206
C26	C	1.851221	-0.365405	-0.721642
C27	C	1.862900	-0.225135	-0.733317
C28	C	1.796543	-0.717972	-0.362511
C29	C	1.785116	-0.727683	-0.220636
H30	H	1.301915	-0.596282	-0.596304
C31	C	2.034585	-1.237838	-0.905187
C32	C	1.964854	-1.152404	-0.835410
H33	H	2.097521	-1.192927	-0.968221
H34	H	2.074135	-1.296607	-0.848828
H35	H	1.979388	-1.281905	-0.945851
H36	H	2.020050	-1.108344	-0.794738
H37	H	1.925303	-1.093613	-0.891778
C38	C	1.454294	-0.744154	-0.908280
C39	C	1.365820	-0.815690	-0.814951
H40	H	1.499127	-0.798249	-0.962179
H41	H	1.411481	-0.682176	-0.958169
H42	H	1.512289	-0.703539	-0.867780
H43	H	1.307819	-0.856297	-0.855450
H44	H	1.408636	-0.877690	-0.765056
H45	H	1.709507	-0.792519	-1.156092
H46	H	1.709475	-1.216615	-0.579752
C47	C	1.957281	-0.580047	-1.384783
C48	C	1.965055	-0.573402	-1.256336
H49	H	2.020293	-0.525999	-1.438570
H50	H	1.970475	-0.664621	-1.400825
H51	H	1.875804	-0.554006	-1.402066
H52	H	2.046529	-0.599452	-1.239050
H53	H	1.951870	-0.488810	-1.240287
