data_functionalizedCrystal
_audit_creation_method	'MofGen! by Chris Wilmer'
_symmetry_space_group_name_H-M	'P1'
_symmetry_Int_Tables_number	1
_symmetry_cell_setting	triclinic
loop_
_symmetry_equiv_pos_as_xyz
  x,y,z
_cell_length_a	14.908571
_cell_length_b	29.839131
_cell_length_c	14.908308
_cell_angle_alpha	86.738717
_cell_angle_beta	89.824947
_cell_angle_gamma	86.737317
loop_
_atom_site_label
_atom_site_type_symbol
_atom_site_fract_x
_atom_site_fract_y
_atom_site_fract_z
Zn1	Zn	1.345126	-0.234441	0.587534
Zn2	Zn	1.353655	-0.305498	0.437159
Zn3	Zn	1.203447	-0.225812	0.428533
Zn4	Zn	1.194683	-0.304964	0.578811
O5	O	1.274228	-0.267679	0.508009
O6	O	1.472080	-0.247701	0.574847
O7	O	1.340967	-0.291540	0.310191
O8	O	1.222340	-0.164094	0.449665
O9	O	1.478346	-0.299907	0.464367
O10	O	1.326430	-0.170433	0.566482
O11	O	1.230610	-0.232995	0.303854
O12	O	1.076461	-0.232477	0.441208
O13	O	1.207402	-0.298997	0.705792
O14	O	1.070022	-0.290630	0.551616
O15	O	1.317932	-0.247184	0.712201
O16	O	1.332468	-0.368290	0.455909
O17	O	1.215672	-0.367898	0.559980
C18	C	1.040617	-0.260560	0.494530
C19	C	0.940676	-0.257526	0.488784
C20	C	0.746229	-0.312463	0.592802
C21	C	0.652326	-0.309614	0.587407
C22	C	0.658964	-0.248976	0.472604
C23	C	0.752867	-0.251825	0.477999
C24	C	0.796497	-0.283570	0.538099
C25	C	0.890402	-0.286422	0.543489
C26	C	0.897038	-0.225781	0.428692
C27	C	0.803135	-0.222932	0.423297
C28	C	1.274068	-0.384395	0.507955
C29	C	1.274080	-0.434330	0.507967
C30	C	1.335143	-0.744176	0.453910
C31	C	1.335252	-0.931853	0.453951
O32	O	1.387043	-0.956286	0.407948
N33	N	1.274410	-0.955128	0.508088
C34	C	1.213541	-0.931481	0.562223
O35	O	1.161800	-0.955585	0.608278
C36	C	1.213437	-0.743805	0.562186
C37	C	1.274276	-0.720532	0.508038
C38	C	1.395978	-0.720903	0.399768
C39	C	1.395947	-0.673987	0.399754
C40	C	1.335081	-0.650343	0.453883
C41	C	1.274245	-0.673615	0.508025
C42	C	1.152572	-0.720159	0.616325
C43	C	1.152553	-0.673237	0.616312
C44	C	1.213393	-0.649964	0.562165
C45	C	1.213348	-0.603055	0.562140
N46	N	1.274189	-0.579780	0.508003
C47	C	1.335056	-0.603424	0.453875
C48	C	1.213598	-1.030014	0.562237
C49	C	1.213623	-1.076933	0.562245
C50	C	1.335336	-1.077302	0.453975
C51	C	1.335306	-1.030382	0.453962
C52	C	1.274440	-1.006739	0.508100
C53	C	1.334986	-0.504895	0.453850
C54	C	1.334947	-0.457974	0.453839
C55	C	1.213238	-0.457609	0.562112
C56	C	1.213273	-0.504526	0.562121
C57	C	1.274154	-0.528168	0.507987
O58	O	1.161590	-0.578594	0.608127
O59	O	1.386803	-0.579313	0.407842
C60	C	1.335174	-0.791093	0.453923
C61	C	1.274339	-0.814366	0.508065
C62	C	1.213472	-0.790722	0.562194
C63	C	1.274363	-0.861284	0.508074
C64	C	1.335230	-0.884928	0.453945
C65	C	1.396072	-0.861654	0.399808
C66	C	1.396041	-0.814737	0.399794
C67	C	1.152630	-0.813996	0.616331
C68	C	1.152666	-0.860913	0.616339
C69	C	1.213532	-0.884557	0.562211
C70	C	1.508750	-0.274826	0.521542
C71	C	1.608690	-0.277872	0.527309
C72	C	1.260738	-0.273993	0.742533
C73	C	1.254989	-0.276684	0.842474
C74	C	1.274411	-0.150508	0.508085
C75	C	1.274490	-0.100577	0.508117
C76	C	1.287717	-0.261358	0.274401
C77	C	1.293639	-0.258546	0.174471
C78	C	1.359279	-0.227777	1.036946
C79	C	1.353881	-0.230304	1.130849
C80	C	1.238790	-0.284262	1.124184
C81	C	1.244189	-0.281735	1.030281
C82	C	1.304436	-0.253492	0.986666
C83	C	1.309839	-0.250968	0.892761
C84	C	1.194744	-0.304924	0.886097
C85	C	1.189345	-0.307450	0.980000
H86	H	0.611401	-0.333141	0.631953
Br87	Br	1.441054	-0.189455	0.977750
Br88	Br	1.157023	-0.322584	1.183391
H89	H	1.102990	-0.653989	0.660401
H90	H	1.140292	-0.330444	1.015524
Br91	Br	1.391606	-0.212641	0.833570
H92	H	1.163735	-0.523476	0.606215
Br93	Br	0.743916	-0.179848	0.341742
Br94	Br	1.120322	-0.339832	0.817855
Br95	Br	1.417519	-0.426392	0.380346
H96	H	0.925924	-0.312271	0.592424
Br97	Br	0.599736	-0.205888	0.391064
Br98	Br	1.428311	-0.195401	1.199086
Br99	Br	0.805446	-0.355551	0.674351
H100	H	1.384563	-0.524139	0.409771
Br101	Br	1.478532	-0.642410	0.326278
Br102	Br	0.965264	-0.186572	0.354436
Br103	Br	1.130986	-0.997934	0.635717
H104	H	1.445548	-0.740149	0.355689
H105	H	1.103066	-0.794749	0.660410
H106	H	1.384896	-1.096561	0.409901
Br107	Br	1.417876	-0.998802	0.380473
H108	H	1.164073	-1.095877	0.606329
H109	H	1.103026	-0.739099	0.660413
Br110	Br	1.130640	-0.425512	0.635573
H111	H	1.445629	-0.880912	0.355732
Br112	Br	1.478615	-0.783160	0.326307
H113	H	1.103115	-0.879858	0.660431
