data_functionalizedCrystal
_audit_creation_method	'MofGen! by Chris Wilmer'
_symmetry_space_group_name_H-M	'P1'
_symmetry_Int_Tables_number	1
_symmetry_cell_setting	triclinic
loop_
_symmetry_equiv_pos_as_xyz
  x,y,z
_cell_length_a	14.519709
_cell_length_b	10.654545
_cell_length_c	12.996460
_cell_angle_alpha	89.994208
_cell_angle_beta	89.998766
_cell_angle_gamma	84.081612
loop_
_atom_site_label
_atom_site_type_symbol
_atom_site_fract_x
_atom_site_fract_y
_atom_site_fract_z
O1	O	0.129506	1.666603	-0.085559
O2	O	0.141852	1.301005	-0.085564
O3	O	0.001491	1.493498	-0.085552
O4	O	0.269867	1.474111	-0.085571
O5	O	0.001499	1.493473	0.085582
O6	O	0.141860	1.300981	0.085570
O7	O	0.129514	1.666578	0.085575
Cu8	Cu	0.135688	1.483777	0.101198
Cu9	Cu	0.135678	1.483807	-0.101187
O10	O	0.269875	1.474086	0.085563
C11	C	0.140950	1.254204	0.000003
C12	C	0.138241	1.114786	0.000001
C13	C	0.136970	1.049280	0.093287
C14	C	0.134409	0.918286	0.093287
C15	C	0.134394	0.918313	-0.093292
C16	C	0.136948	1.049307	-0.093291
C17	C	-0.032870	1.492582	0.000015
C18	C	-0.135265	1.489874	0.000016
C19	C	-0.510212	1.479907	-0.000011
C20	C	-0.405890	1.482675	-0.000003
C21	C	-0.322742	1.484890	0.000003
C22	C	-0.218413	1.487659	0.000009
C23	C	0.304236	1.475002	-0.000006
C24	C	0.406631	1.477710	-0.000014
C25	C	0.130416	1.713380	0.000006
C26	C	0.133125	1.852798	0.000001
N27	N	0.135694	1.483766	0.243545
N28	N	0.135665	1.483828	-0.243534
C29	C	0.135696	1.483772	0.336651
C30	C	0.135690	1.483783	0.453457
C31	C	0.135680	1.483799	0.546555
C32	C	0.135675	1.483812	0.663367
H33	H	0.138022	1.102590	0.169252
C34	C	0.132997	0.846283	-0.195908
H35	H	0.134116	0.904062	-0.251466
H36	H	0.185690	0.785729	-0.199781
H37	H	0.078313	0.804638	-0.199792
C38	C	0.133017	0.846233	0.195902
H39	H	0.134159	0.903994	0.251459
H40	H	0.078336	0.804595	0.199791
H41	H	0.185712	0.785670	0.199770
C42	C	0.138350	1.121368	-0.195911
H43	H	0.137228	1.063609	-0.251472
H44	H	0.085662	1.181932	-0.199782
H45	H	0.193038	1.163004	-0.199789
