data_functionalizedCrystal
_audit_creation_method	'MofGen! by Chris Wilmer'
_symmetry_space_group_name_H-M	'P1'
_symmetry_Int_Tables_number	1
_symmetry_cell_setting	triclinic
loop_
_symmetry_equiv_pos_as_xyz
  x,y,z
_cell_length_a	6.394989
_cell_length_b	19.288867
_cell_length_c	17.766277
_cell_angle_alpha	89.992126
_cell_angle_beta	90.003244
_cell_angle_gamma	95.182610
loop_
_atom_site_label
_atom_site_type_symbol
_atom_site_fract_x
_atom_site_fract_y
_atom_site_fract_z
O1	O	-0.260566	0.923904	-0.062563
O2	O	-0.295709	0.721988	-0.062570
O3	O	0.025954	0.825812	-0.062567
O4	O	-0.582229	0.820080	-0.062566
O5	O	0.025970	0.825793	0.062622
O6	O	-0.295693	0.721969	0.062619
O7	O	-0.260550	0.923885	0.062625
Cu8	Cu	-0.278120	0.822925	0.074053
Cu9	Cu	-0.278139	0.822948	-0.073997
O10	O	-0.582212	0.820061	0.062623
C11	C	-0.294569	0.696091	0.000024
C12	C	-0.291173	0.618954	0.000021
C13	C	-0.266716	0.063159	-0.068211
C14	C	-0.269895	0.135638	-0.068214
C15	C	-0.271486	0.171872	0.000027
C16	C	-0.269843	0.135623	0.068275
C17	C	-0.266643	0.063147	0.068275
C18	C	-0.398875	0.282439	0.052308
C19	C	-0.402088	0.354914	0.052304
C20	C	-0.281346	0.395414	0.000027
C21	C	-0.157418	0.363430	-0.052259
C22	C	-0.154218	0.290953	-0.052258
C23	C	-0.274954	0.250461	0.000033
C24	C	-0.286420	0.510245	-0.068220
C25	C	-0.289586	0.582725	-0.068220
C26	C	-0.289555	0.582708	0.068270
C27	C	-0.286368	0.510230	0.068268
C28	C	-0.284811	0.474002	0.000021
C29	C	0.103772	0.824669	0.000025
C30	C	0.339975	0.821206	0.000024
C31	C	-0.261690	0.949782	0.000030
C32	C	-0.265086	1.026919	0.000028
N33	N	-0.278105	0.822915	0.178183
N34	N	-0.278137	0.822964	-0.178127
C35	C	-0.135743	0.868904	0.217571
C36	C	-0.135733	0.868908	0.296373
C37	C	-0.278122	0.822930	0.335784
C38	C	-0.420495	0.776932	0.296386
C39	C	-0.420487	0.776924	0.217586
C40	C	-0.468423	0.815495	0.460622
C41	C	-0.468434	0.815507	0.539421
C42	C	-0.278147	0.822948	0.578830
C43	C	-0.087840	0.830392	0.539431
C44	C	-0.087832	0.830385	0.460631
C45	C	-0.278146	0.822932	0.421229
C46	C	-0.135762	0.868944	0.703664
C47	C	-0.135749	0.868943	0.782467
C48	C	-0.420530	0.776970	0.782479
C49	C	-0.420524	0.776968	0.703677
C50	C	-0.278142	0.822959	0.664274
H51	H	-0.290842	0.612209	0.123833
H52	H	-0.265440	0.033668	-0.123783
C53	C	-0.574888	0.726935	0.825217
C54	C	-0.541496	0.658391	0.806080
C55	C	-0.683630	0.612276	0.845446
H56	H	-0.714316	0.735600	0.812328
H57	H	-0.554495	0.733476	0.877797
H58	H	-0.561905	0.651853	0.753511
H59	H	-0.402096	0.649704	0.818970
H60	H	-0.663238	0.618818	0.898026
H61	H	-0.823049	0.620948	0.832554
H62	H	-0.660980	0.565765	0.832472
H63	H	-0.503049	0.380948	0.094862
C64	C	-0.530208	0.238589	0.109105
C65	C	-0.639477	0.282107	0.154875
C66	C	-0.760494	0.241737	0.207197
H67	H	-0.440979	0.213366	0.139414
H68	H	-0.627442	0.206911	0.083237
H69	H	-0.542255	0.313772	0.180741
H70	H	-0.728744	0.307329	0.124587
H71	H	-0.857729	0.210059	0.181329
H72	H	-0.671250	0.216516	0.237500
H73	H	-0.834663	0.271257	0.238253
C74	C	0.019174	0.918802	0.339058
C75	C	0.224338	0.905760	0.319891
C76	C	0.367092	0.951712	0.359189
H77	H	-0.000941	0.912262	0.391642
H78	H	-0.003028	0.965364	0.326119
H79	H	0.246531	0.859209	0.332834
H80	H	0.244519	0.912304	0.267313
H81	H	0.344890	0.998274	0.346250
H82	H	0.346958	0.945168	0.411771
H83	H	0.506311	0.942873	0.346184
H84	H	-0.623392	0.809450	0.571493
C85	C	-0.575181	0.726933	0.339035
C86	C	-0.699824	0.686641	0.287669
C87	C	-0.842320	0.640564	0.326928
H88	H	-0.662145	0.752597	0.369767
H89	H	-0.500316	0.697334	0.369769
H90	H	-0.774684	0.716237	0.256948
H91	H	-0.612918	0.660963	0.256935
H92	H	-0.767454	0.610965	0.357663
H93	H	-0.929268	0.666233	0.357660
H94	H	-0.926893	0.613216	0.292083
C95	C	-0.271893	0.174859	0.142421
C96	C	-0.450717	0.150967	0.183606
C97	C	-0.452649	0.187087	0.251920
H98	H	-0.274145	0.223221	0.132755
H99	H	-0.149651	0.167194	0.170497
H100	H	-0.572928	0.158638	0.155536
H101	H	-0.448503	0.102610	0.193292
H102	H	-0.330406	0.179422	0.279997
H103	H	-0.454895	0.235448	0.242247
H104	H	-0.573968	0.170877	0.279876
H105	H	-0.536417	0.739473	0.185515
H106	H	0.067110	0.836451	0.571516
C107	C	0.019069	0.918897	0.661014
C108	C	0.143804	0.959157	0.712380
C109	C	0.286476	1.005174	0.673121
H110	H	-0.055594	0.948527	0.630263
H111	H	0.105936	0.893168	0.630298
H112	H	0.056949	0.984885	0.743083
H113	H	0.218513	0.929546	0.743132
H114	H	0.373342	0.979445	0.642405
H115	H	0.211795	1.034799	0.642371
H116	H	0.371138	1.032492	0.707966
C117	C	-0.264563	0.023897	0.142425
C118	C	-0.085707	0.047775	0.183600
C119	C	-0.083737	0.011640	0.251914
H120	H	-0.262329	-0.024464	0.132760
H121	H	-0.386783	0.031559	0.170508
H122	H	0.036483	0.040107	0.155523
H123	H	-0.087902	0.096131	0.193285
H124	H	-0.205958	0.019303	0.279998
H125	H	-0.081509	-0.036718	0.242242
H126	H	0.037603	0.027841	0.279863
C127	C	-0.574784	0.726963	0.660865
C128	C	-0.463856	0.683461	0.615653
C129	C	-0.605894	0.637379	0.576211
H130	H	-0.661583	0.752626	0.630056
H131	H	-0.659565	0.699539	0.695595
H132	H	-0.379112	0.710881	0.580927
H133	H	-0.377066	0.657782	0.646444
H134	H	-0.690675	0.609955	0.610941
H135	H	-0.692685	0.663048	0.545406
H136	H	-0.530651	0.607853	0.545535
H137	H	-0.271235	0.165151	-0.123784
H138	H	-0.019809	0.906391	0.814538
H139	H	-0.290898	0.612231	-0.123791
C140	C	-0.026589	0.407343	-0.109138
C141	C	-0.089670	0.387519	-0.182076
C142	C	0.030775	0.427964	-0.234491
H143	H	0.117536	0.400479	-0.102660
H144	H	-0.046254	0.455095	-0.101702
H145	H	-0.069986	0.339779	-0.189509
H146	H	-0.233776	0.394385	-0.188579
H147	H	0.011110	0.475716	-0.227055
H148	H	0.174894	0.421098	-0.228005
H149	H	-0.012021	0.414524	-0.283985
H150	H	-0.053308	0.264915	-0.094830
H151	H	-0.285146	0.480747	-0.123791
H152	H	-0.019802	0.906351	0.185492
C153	C	-0.284739	0.470999	0.142437
C154	C	-0.286867	0.518239	0.202200
C155	C	-0.285389	0.482124	0.270538
H156	H	-0.161757	0.446952	0.145380
H157	H	-0.405310	0.438507	0.145315
H158	H	-0.166308	0.550717	0.199323
H159	H	-0.409840	0.542287	0.199282
H160	H	-0.405960	0.449632	0.273417
H161	H	-0.162405	0.458079	0.273474
H162	H	-0.286852	0.514170	0.311096
H163	H	0.067121	0.836444	0.428555
H164	H	-0.623387	0.809423	0.428541
