data_functionalizedCrystal
_audit_creation_method	'MofGen! by Chris Wilmer'
_symmetry_space_group_name_H-M	'P1'
_symmetry_Int_Tables_number	1
_symmetry_cell_setting	triclinic
loop_
_symmetry_equiv_pos_as_xyz
  x,y,z
_cell_length_a	18.215407
_cell_length_b	12.645330
_cell_length_c	12.645323
_cell_angle_alpha	89.975130
_cell_angle_beta	89.977371
_cell_angle_gamma	90.018140
loop_
_atom_site_label
_atom_site_type_symbol
_atom_site_fract_x
_atom_site_fract_y
_atom_site_fract_z
Zn1	Zn	1.125129	-0.422018	-0.599445
Zn2	Zn	1.625129	0.077982	-0.099445
Zn3	Zn	1.125047	-0.599306	-0.422185
Zn4	Zn	1.625047	-0.099306	0.077815
Zn5	Zn	1.002056	-0.422059	-0.422189
Zn6	Zn	1.502056	0.077941	0.077811
Zn7	Zn	1.002043	-0.599242	-0.599401
Zn8	Zn	1.502043	-0.099242	-0.099401
O9	O	1.063569	-0.510656	-0.510805
O10	O	1.563569	-0.010656	-0.010805
O11	O	1.228102	-0.445546	-0.575948
O12	O	1.728102	0.054454	-0.075948
O13	O	1.108703	-0.575838	-0.273838
O14	O	1.608703	-0.075838	0.226162
O15	O	1.018421	-0.273706	-0.445723
O16	O	1.518421	0.226294	0.054277
O17	O	1.228042	-0.575799	-0.445716
O18	O	1.728042	-0.075799	0.054284
O19	O	1.108843	-0.273676	-0.575952
O20	O	1.608843	0.226324	-0.075952
O21	O	1.018342	-0.445615	-0.273842
O22	O	1.518342	0.054385	0.226158
O23	O	0.899070	-0.445552	-0.445680
O24	O	1.399070	0.054448	0.054320
O25	O	1.018400	-0.575689	-0.747754
O26	O	1.518400	-0.075689	-0.247754
O27	O	0.899060	-0.575728	-0.575876
O28	O	1.399060	-0.075728	-0.075876
O29	O	1.108830	-0.445483	-0.747786
O30	O	1.608830	0.054517	-0.247786
O31	O	1.108690	-0.747645	-0.445673
O32	O	1.608690	-0.247645	0.054327
O33	O	1.018320	-0.747597	-0.575872
O34	O	1.518320	-0.247597	-0.075872
C35	C	0.872362	-0.510638	-0.510775
C36	C	1.372362	-0.010638	-0.010775
C37	C	0.790563	-0.510656	-0.510787
C38	C	1.290563	-0.010656	-0.010787
C39	C	0.602384	-0.578545	-0.578495
C40	C	1.102384	-0.078545	-0.078495
C41	C	0.525525	-0.578548	-0.578508
C42	C	1.025525	-0.078548	-0.078508
C43	C	0.525505	-0.442787	-0.443138
C44	C	1.025505	0.057213	0.056862
C45	C	0.602363	-0.442779	-0.443131
C46	C	1.102363	0.057221	0.056869
C47	C	0.640800	-0.510664	-0.510808
C48	C	1.140800	-0.010664	-0.010808
C49	C	0.487084	-0.510675	-0.510828
C50	C	0.987084	-0.010675	-0.010828
C51	C	0.403750	-0.510678	-0.510842
C52	C	0.903750	-0.010678	-0.010842
C53	C	0.724139	-0.510660	-0.510796
C54	C	1.224139	-0.010660	-0.010796
C55	C	1.063515	-0.786086	-0.510790
C56	C	1.563515	-0.286086	-0.010790
C57	C	1.063559	-0.903916	-0.510819
C58	C	1.563559	-0.403916	-0.010819
C59	C	1.006942	-1.071494	-0.592980
C60	C	1.506942	-0.571494	-0.092980
C61	C	1.006652	-0.948935	-0.592716
C62	C	1.506652	-0.448935	-0.092716
C63	C	1.042563	-0.948510	-0.399097
C64	C	1.542563	-0.448510	0.100903
C65	C	1.042217	-1.071109	-0.399596
C66	C	1.542217	-0.571109	0.100404
C67	C	1.141520	-1.071004	-0.539474
C68	C	1.641520	-0.571004	-0.039474
C69	C	1.141042	-0.948398	-0.541917
C70	C	1.641042	-0.448398	-0.041917
C71	C	1.255522	-0.510675	-0.510836
C72	C	1.755522	-0.010675	-0.010836
C73	C	1.337320	-0.510683	-0.510849
C74	C	1.837320	-0.010683	-0.010849
C75	C	1.063623	-0.510574	-0.787310
C76	C	1.563623	-0.010574	-0.287310
C77	C	1.063646	-0.510539	-0.905141
C78	C	1.563646	-0.010539	-0.405141
C79	C	1.063643	-0.234151	-0.510843
C80	C	1.563643	0.265849	-0.010843
C81	C	1.063674	-0.116321	-0.510859
C82	C	1.563674	0.383679	-0.010859
C83	C	1.006580	-0.592065	-1.072684
C84	C	1.506580	-0.092065	-0.572684
C85	C	1.006730	-0.592469	-0.950124
C86	C	1.506730	-0.092469	-0.450124
C87	C	1.141189	-0.540857	-0.949660
C88	C	1.641189	-0.040857	-0.449660
C89	C	1.140876	-0.541368	-1.072259
C90	C	1.640876	-0.041368	-0.572259
C91	C	1.043902	-0.398240	-1.072338
C92	C	1.543902	0.101760	-0.572338
C93	C	1.042172	-0.398913	-0.949732
C94	C	1.542172	0.101087	-0.449732
C95	C	1.063557	-0.510661	-0.235375
C96	C	1.563557	-0.010661	0.264625
C97	C	1.063676	-0.510398	-0.117546
C98	C	1.563676	-0.010398	0.382454
H99	H	1.019789	-0.918781	-0.675557
H100	H	1.519789	-0.418781	-0.175557
Cl101	Cl	1.101695	-0.300001	-0.902473
Cl102	Cl	1.601695	0.199999	-0.402473
Cl103	Cl	0.958119	-0.355574	-1.120046
Cl104	Cl	1.458119	0.144426	-0.620046
Cl105	Cl	0.650703	-0.663881	-0.663578
Cl106	Cl	1.150703	-0.163881	-0.163578
Cl107	Cl	1.208743	-0.453460	-1.118085
Cl108	Cl	1.708743	0.046540	-0.618085
H109	H	1.156876	-0.919247	-0.624139
H110	H	1.656876	-0.419247	-0.124139
Cl111	Cl	1.027032	-1.116907	-0.721305
Cl112	Cl	1.527032	-0.616907	-0.221305
H113	H	0.985311	-1.099801	-0.375356
H114	H	1.485311	-0.599801	0.124644
Cl115	Cl	1.167514	-0.666117	-0.902284
Cl116	Cl	1.667514	-0.166117	-0.402284
Cl117	Cl	1.206781	-1.115780	-0.447147
Cl118	Cl	1.706781	-0.615780	0.052853
Cl119	Cl	0.477179	-0.357453	-0.358061
Cl120	Cl	0.977179	0.142547	0.141939
Cl121	Cl	0.954063	-0.363614	-0.904820
Cl122	Cl	1.454063	0.136386	-0.404820
H123	H	0.633642	-0.387496	-0.388012
H124	H	1.133642	0.112504	0.111988
H125	H	0.949591	-1.102396	-0.574265
H126	H	1.449591	-0.602396	-0.074265
H127	H	0.494250	-0.633822	-0.633627
H128	H	0.994250	-0.133822	-0.133627
Cl129	Cl	0.917549	-0.903792	-0.563452
Cl130	Cl	1.417549	-0.403792	-0.063452
H131	H	1.085488	-0.337394	-1.101352
H132	H	1.585488	0.162606	-0.601352
H133	H	1.081745	-1.100765	-0.336323
H134	H	1.581745	-0.600765	0.163677
Cl135	Cl	1.208633	-0.451927	-0.904682
Cl136	Cl	1.708633	0.048073	-0.404682
H137	H	1.019508	-0.674693	-1.103503
H138	H	1.519508	-0.174693	-0.603503
Cl139	Cl	1.104334	-0.903495	-0.302043
Cl140	Cl	1.604334	-0.403495	0.197957
H141	H	0.986250	-0.917900	-0.374419
H142	H	1.486250	-0.417900	0.125581
Cl143	Cl	1.171091	-1.118621	-0.663117
Cl144	Cl	1.671091	-0.618621	-0.163117
H145	H	0.949229	-0.573497	-0.920022
H146	H	1.449229	-0.073497	-0.420022
Cl147	Cl	1.209743	-0.901069	-0.456303
Cl148	Cl	1.709743	-0.401069	0.043697
H149	H	1.019784	-0.675617	-0.920810
H150	H	1.519784	-0.175617	-0.420810
Cl151	Cl	1.166752	-0.667954	-1.116436
Cl152	Cl	1.666752	-0.167954	-0.616436
Cl153	Cl	0.917535	-0.563054	-1.118178
Cl154	Cl	1.417535	-0.063054	-0.618178
