data_functionalizedCrystal
_audit_creation_method	'MofGen! by Chris Wilmer'
_symmetry_space_group_name_H-M	'P1'
_symmetry_Int_Tables_number	1
_symmetry_cell_setting	triclinic
loop_
_symmetry_equiv_pos_as_xyz
  x,y,z
_cell_length_a	18.215407
_cell_length_b	16.120531
_cell_length_c	18.215398
_cell_angle_alpha	87.131202
_cell_angle_beta	89.980536
_cell_angle_gamma	87.067235
loop_
_atom_site_label
_atom_site_type_symbol
_atom_site_fract_x
_atom_site_fract_y
_atom_site_fract_z
Zn1	Zn	1.110174	0.331928	-0.430943
Zn2	Zn	1.443508	0.665261	-0.097610
Zn3	Zn	1.776841	0.998595	0.235724
Zn4	Zn	1.103827	0.471344	-0.314104
Zn5	Zn	1.437161	0.804677	0.019229
Zn6	Zn	1.770494	1.138010	0.352562
Zn7	Zn	0.987107	0.331949	-0.307891
Zn8	Zn	1.320440	0.665282	0.025442
Zn9	Zn	1.653773	0.998616	0.358775
Zn10	Zn	0.980818	0.471303	-0.437127
Zn11	Zn	1.314152	0.804637	-0.103794
Zn12	Zn	1.647485	1.137970	0.229539
O13	O	1.045482	0.401631	-0.372516
O14	O	1.378815	0.734964	-0.039183
O15	O	1.712148	1.068298	0.294150
O16	O	1.212316	0.350430	-0.415456
O17	O	1.545649	0.683763	-0.082123
O18	O	1.878983	1.017096	0.251211
O19	O	1.088319	0.452878	-0.210297
O20	O	1.421653	0.786212	0.123036
O21	O	1.754986	1.119545	0.456370
O22	O	1.008720	0.215280	-0.319026
O23	O	1.342053	0.548613	0.014307
O24	O	1.675386	0.881947	0.347641
O25	O	1.207653	0.452858	-0.329615
O26	O	1.540986	0.786191	0.003718
O27	O	1.874320	1.119525	0.337052
O28	O	1.099137	0.215265	-0.409431
O29	O	1.432470	0.548598	-0.076098
O30	O	1.765804	0.881931	0.257235
O31	O	1.002565	0.350466	-0.205732
O32	O	1.335899	0.683799	0.127601
O33	O	1.669232	1.017132	0.460934
O34	O	0.883289	0.350427	-0.325023
O35	O	1.216622	0.683760	0.008311
O36	O	1.549955	1.017093	0.341644
O37	O	0.998002	0.452789	-0.539290
O38	O	1.331335	0.786123	-0.205957
O39	O	1.664669	1.119456	0.127376
O40	O	0.878669	0.452810	-0.419972
O41	O	1.212002	0.786143	-0.086639
O42	O	1.545335	1.119476	0.246695
O43	O	1.093039	0.350391	-0.534746
O44	O	1.426373	0.683724	-0.201413
O45	O	1.759706	1.017057	0.131920
O46	O	1.082222	0.588005	-0.335612
O47	O	1.415555	0.921338	-0.002279
O48	O	1.748889	1.254671	0.331055
O49	O	0.991848	0.587975	-0.425997
O50	O	1.325181	0.921308	-0.092663
O51	O	1.658514	1.254642	0.240670
C52	C	0.854276	0.401617	-0.372495
C53	C	1.187609	0.734950	-0.039161
C54	C	1.520943	1.068283	0.294172
C55	C	0.772476	0.401631	-0.372504
C56	C	1.105810	0.734964	-0.039170
C57	C	1.439143	1.068297	0.294163
C58	C	1.035684	0.618240	-0.382166
C59	C	1.369017	0.951573	-0.048832
C60	C	1.702350	1.284907	0.284501
C61	C	1.031559	0.710906	-0.386318
C62	C	1.364893	1.044240	-0.052985
C63	C	1.698226	1.377573	0.280349
C64	C	0.581892	0.455025	-0.421889
C65	C	0.915226	0.788359	-0.088555
C66	C	1.248559	1.121692	0.244778
C67	C	0.505033	0.455028	-0.421898
C68	C	0.838367	0.788361	-0.088564
C69	C	1.171700	1.121695	0.244769
C70	C	0.509822	0.348252	-0.323161
C71	C	0.843155	0.681585	0.010172
C72	C	1.176489	1.014918	0.343505
C73	C	0.586680	0.348246	-0.323156
C74	C	0.920013	0.681579	0.010177
C75	C	1.253346	1.014912	0.343511
C76	C	0.622713	0.401637	-0.372519
C77	C	0.956046	0.734971	-0.039185
C78	C	1.289379	1.068304	0.294148
C79	C	0.468996	0.401646	-0.372533
C80	C	0.802329	0.734979	-0.039200
C81	C	1.135663	1.068313	0.294133
C82	C	0.385662	0.401648	-0.372543
C83	C	0.718996	0.734982	-0.039210
C84	C	1.052329	1.068315	0.294124
C85	C	0.706052	0.401634	-0.372510
C86	C	1.039385	0.734967	-0.039177
C87	C	1.372718	1.068301	0.294156
C88	C	1.024034	0.880569	-0.393915
C89	C	1.357367	1.213902	-0.060581
C90	C	1.690700	1.547235	0.272752
C91	C	1.066957	0.921853	-0.351077
C92	C	1.400290	1.255186	-0.017743
C93	C	1.733624	1.588520	0.315590
C94	C	1.062770	1.016259	-0.355303
C95	C	1.396103	1.349592	-0.021970
C96	C	1.729436	1.682926	0.311363
C97	C	1.028220	0.786154	-0.389689
C98	C	1.361553	1.119487	-0.056356
C99	C	1.694887	1.452821	0.276978
C100	C	1.237434	0.401646	-0.372539
C101	C	1.570767	0.734979	-0.039205
C102	C	1.904100	1.068313	0.294128
C103	C	1.319232	0.401652	-0.372548
C104	C	1.652566	0.734986	-0.039215
C105	C	1.985899	1.068319	0.294118
C106	C	1.045527	0.401583	-0.564467
C107	C	1.378861	0.734917	-0.231134
C108	C	1.712194	1.068250	0.102199
C109	C	1.045547	0.401563	-0.646265
C110	C	1.378880	0.734896	-0.312932
C111	C	1.712213	1.068229	0.020401
C112	C	1.055312	1.184176	-0.362832
C113	C	1.388645	1.517510	-0.029499
C114	C	1.721978	1.850843	0.303834
C115	C	1.059434	1.091510	-0.358671
C116	C	1.392767	1.424843	-0.025338
C117	C	1.726100	1.758177	0.307996
C118	C	1.090237	0.454786	-0.913700
C119	C	1.423571	0.788119	-0.580366
C120	C	1.756904	1.121453	-0.247033
C121	C	1.090225	0.454815	-0.836842
C122	C	1.423558	0.788148	-0.503509
C123	C	1.756891	1.121482	-0.170176
C124	C	1.000919	0.348179	-0.832073
C125	C	1.334253	0.681512	-0.498739
C126	C	1.667586	1.014845	-0.165406
C127	C	1.000928	0.348154	-0.908929
C128	C	1.334262	0.681488	-0.575596
C129	C	1.667595	1.014821	-0.242262
C130	C	1.045592	0.401457	-0.949740
C131	C	1.378925	0.734790	-0.616407
C132	C	1.712258	1.068124	-0.283074
C133	C	1.045570	0.401510	-0.796027
C134	C	1.378903	0.734843	-0.462693
C135	C	1.712237	1.068177	-0.129360
C136	C	1.045556	0.401541	-0.712694
C137	C	1.378889	0.734874	-0.379361
C138	C	1.712223	1.068208	-0.046028
C139	C	1.045605	0.401427	-1.033078
C140	C	1.378938	0.734761	-0.699745
C141	C	1.712271	1.068094	-0.366411
C142	C	1.045481	0.401619	-0.181310
C143	C	1.378814	0.734952	0.152024
C144	C	1.712148	1.068285	0.485357
C145	C	1.045615	0.401404	-0.099502
C146	C	1.378948	0.734738	0.233832
C147	C	1.712281	1.068071	0.567165
H148	H	0.471801	0.498501	-0.462101
H149	H	0.805134	0.831834	-0.128767
H150	H	1.138467	1.165168	0.204566
H151	H	1.106849	0.886297	-0.311227
H152	H	1.440182	1.219630	0.022106
H153	H	1.773516	1.552963	0.355440
N154	N	0.955298	0.293723	-0.790398
N155	N	1.288631	0.627056	-0.457064
N156	N	1.621965	0.960389	-0.123731
N157	N	0.887141	0.299242	-0.799212
N158	N	1.220474	0.632575	-0.465879
N159	N	1.553808	0.965908	-0.132546
H160	H	0.854921	0.260777	-0.769782
H161	H	1.188254	0.594110	-0.436449
H162	H	1.521588	0.927443	-0.103116
H163	H	0.984144	0.916123	-0.433760
H164	H	1.317477	1.249456	-0.100427
H165	H	1.650811	1.582789	0.232906
H166	H	1.126604	0.498189	-0.946926
H167	H	1.459937	0.831523	-0.613593
H168	H	1.793271	1.164856	-0.280260
N169	N	1.135830	0.509299	-0.800040
N170	N	1.469163	0.842633	-0.466706
N171	N	1.802496	1.175966	-0.133373
N172	N	1.175698	0.556887	-0.836490
N173	N	1.509031	0.890220	-0.503157
N174	N	1.842365	1.223554	-0.169824
H175	H	1.207908	0.595371	-0.810500
H176	H	1.541241	0.928704	-0.477166
H177	H	1.874574	1.262037	-0.143833
N178	N	0.955323	0.293663	-0.945735
N179	N	1.288656	0.626997	-0.612401
N180	N	1.621989	0.960330	-0.279068
N181	N	0.963685	0.216737	-0.933727
N182	N	1.297019	0.550070	-0.600393
N183	N	1.630352	0.883403	-0.267060
H184	H	0.931476	0.178254	-0.959720
H185	H	1.264809	0.511588	-0.626386
H186	H	1.598143	0.844921	-0.293053
N187	N	0.473002	0.293722	-0.272746
N188	N	0.806336	0.627055	0.060587
N189	N	1.139669	0.960388	0.393921
N190	N	0.404380	0.293734	-0.272756
N191	N	0.737713	0.627067	0.060577
N192	N	1.071046	0.960400	0.393911
H193	H	0.378375	0.255222	-0.237148
H194	H	0.711709	0.588555	0.096185
H195	H	1.045042	0.921888	0.429518
H196	H	0.619917	0.304765	-0.282953
H197	H	0.953250	0.638099	0.050380
H198	H	1.286584	0.971432	0.383714
N199	N	0.618688	0.509568	-0.472313
N200	N	0.952021	0.842901	-0.138980
N201	N	1.285355	1.176234	0.194354
N202	N	0.582228	0.557232	-0.516389
N203	N	0.915562	0.890565	-0.183056
N204	N	1.248895	1.223898	0.150278
H205	H	0.608213	0.595754	-0.552004
H206	H	0.941546	0.929087	-0.218671
H207	H	1.274880	1.262420	0.114662
