data_functionalizedCrystal
_audit_creation_method	'MofGen! by Chris Wilmer'
_symmetry_space_group_name_H-M	'P1'
_symmetry_Int_Tables_number	1
_symmetry_cell_setting	triclinic
loop_
_symmetry_equiv_pos_as_xyz
  x,y,z
_cell_length_a	16.120490
_cell_length_b	25.639240
_cell_length_c	16.120297
_cell_angle_alpha	87.134364
_cell_angle_beta	90.129683
_cell_angle_gamma	92.863992
loop_
_atom_site_label
_atom_site_type_symbol
_atom_site_fract_x
_atom_site_fract_y
_atom_site_fract_z
Zn1	Zn	1.247299	0.264923	-0.534483
Zn2	Zn	1.747299	0.764923	-0.034483
Zn3	Zn	1.254203	0.348155	-0.395409
Zn4	Zn	1.754203	0.848155	0.104591
Zn5	Zn	1.115293	0.256084	-0.388406
Zn6	Zn	1.615293	0.756084	0.111594
Zn7	Zn	1.108159	0.347668	-0.527382
Zn8	Zn	1.608159	0.847668	-0.027382
O9	O	1.181238	0.304208	-0.461420
O10	O	1.681238	0.804208	0.038580
O11	O	1.364579	0.279867	-0.521937
O12	O	1.864579	0.779867	-0.021937
O13	O	1.241652	0.332446	-0.278115
O14	O	1.741652	0.832446	0.221885
O15	O	1.132900	0.184096	-0.407824
O16	O	1.632900	0.684096	0.092176
O17	O	1.369652	0.341017	-0.419760
O18	O	1.869652	0.841017	0.080240
O19	O	1.229884	0.190590	-0.515147
O20	O	1.729884	0.690590	-0.015147
O21	O	1.139595	0.264802	-0.272970
O22	O	1.639595	0.764802	0.227030
O23	O	0.997982	0.264330	-0.400939
O24	O	1.497982	0.764330	0.099061
O25	O	1.120741	0.340188	-0.644689
O26	O	1.620741	0.840188	-0.144689
O27	O	0.992741	0.331616	-0.503044
O28	O	1.492741	0.831616	-0.003044
O29	O	1.222966	0.279395	-0.649906
O30	O	1.722966	0.779395	-0.149906
O31	O	1.234734	0.421251	-0.412875
O32	O	1.734734	0.921251	0.087125
O33	O	1.127436	0.420894	-0.509835
O34	O	1.627436	0.920894	-0.009835
C35	C	0.965189	0.296962	-0.450461
C36	C	1.465189	0.796962	0.049539
C37	C	0.872761	0.293875	-0.445793
C38	C	1.372761	0.793875	0.054207
C39	C	0.659785	0.320214	-0.485638
C40	C	1.159785	0.820214	0.014362
C41	C	0.703540	0.288244	-0.437268
C42	C	1.203540	0.788244	0.062732
C43	C	0.797703	0.291378	-0.442013
C44	C	1.297703	0.791378	0.057987
C45	C	0.565613	0.317081	-0.480894
C46	C	1.065613	0.817081	0.019106
C47	C	1.181081	0.440043	-0.461363
C48	C	1.681081	0.940043	0.038637
C49	C	1.181089	0.498158	-0.461371
C50	C	1.681089	0.998158	0.038629
C51	C	1.125303	0.749180	-0.511859
C52	C	1.625303	1.249180	-0.011859
C53	C	1.125279	0.694575	-0.511852
C54	C	1.625279	1.194575	-0.011852
O55	O	1.077744	0.666189	-0.554761
O56	O	1.577744	1.166189	-0.054761
N57	N	1.181170	0.667435	-0.461408
N58	N	1.681170	1.167435	0.038592
C59	C	1.237092	0.694904	-0.410975
C60	C	1.737092	1.194904	0.089025
O61	O	1.284630	0.666806	-0.368068
O62	O	1.784630	1.166806	0.131932
C63	C	1.237119	0.749509	-0.410987
C64	C	1.737119	1.249509	0.089013
C65	C	1.181220	0.776645	-0.461428
C66	C	1.681220	1.276645	0.038572
C67	C	1.069409	0.776317	-0.562296
C68	C	1.569409	1.276317	-0.062296
C69	C	1.069431	0.830918	-0.562302
C70	C	1.569431	1.330918	-0.062302
C71	C	1.125348	0.858383	-0.511871
C72	C	1.625348	1.358383	-0.011871
C73	C	1.181242	0.831247	-0.461434
C74	C	1.681242	1.331247	0.038566
C75	C	1.293045	0.776977	-0.360559
C76	C	1.793045	1.276977	0.139441
C77	C	1.293068	0.831585	-0.360576
C78	C	1.793068	1.331585	0.139424
C79	C	1.237168	0.858722	-0.411017
C80	C	1.737168	1.358722	0.088983
C81	C	1.237182	0.913313	-0.411009
C82	C	1.737182	1.413313	0.088991
N83	N	1.181292	0.940453	-0.461452
N84	N	1.681292	1.440453	0.038548
C85	C	1.125375	0.912988	-0.511884
C86	C	1.625375	1.412988	-0.011884
C87	C	1.237033	0.580231	-0.410953
C88	C	1.737033	1.080231	0.089047
C89	C	1.237003	0.525627	-0.410936
C90	C	1.737003	1.025627	0.089064
C91	C	1.125191	0.525302	-0.511814
C92	C	1.625191	1.025302	-0.011814
C93	C	1.125218	0.579906	-0.511827
C94	C	1.625218	1.079906	-0.011827
C95	C	1.181143	0.607371	-0.461397
C96	C	1.681143	1.107371	0.038603
C97	C	1.125426	1.027655	-0.511892
C98	C	1.625426	1.527655	-0.011892
C99	C	1.125451	1.082261	-0.511891
C100	C	1.625451	1.582261	-0.011891
C101	C	1.237266	1.082582	-0.411016
C102	C	1.737266	1.582582	0.088984
C103	C	1.237238	1.027980	-0.411014
C104	C	1.737238	1.527980	0.088986
C105	C	1.181315	1.000518	-0.461458
C106	C	1.681315	1.500518	0.038542
O107	O	1.284695	0.941734	-0.368124
O108	O	1.784695	1.441734	0.131876
O109	O	1.077853	0.941093	-0.554791
O110	O	1.577853	1.441093	-0.054791
C111	C	1.398131	0.311482	-0.472422
C112	C	1.898131	0.811482	0.027578
C113	C	1.490558	0.314582	-0.477110
C114	C	1.990558	0.814582	0.022890
C115	C	1.170288	0.310723	-0.678313
C116	C	1.670288	0.810723	-0.178313
C117	C	1.165621	0.313500	-0.770740
C118	C	1.665621	0.813500	-0.270740
C119	C	1.181386	1.167841	-0.461479
C120	C	1.681386	1.667841	0.038521
C121	C	1.181368	1.109726	-0.461460
C122	C	1.681368	1.609726	0.038540
C123	C	1.157070	0.318557	-0.939964
C124	C	1.657070	0.818557	-0.439964
C125	C	1.205570	0.289707	-0.983736
C126	C	1.705570	0.789707	-0.483736
C127	C	1.200813	0.292521	-1.077898
C128	C	1.700813	0.792521	-0.577898
C129	C	1.161827	0.315744	-0.845794
C130	C	1.661827	0.815744	-0.345794
C131	C	1.192195	0.297681	-0.245373
C132	C	1.692195	0.797681	0.254627
C133	C	1.197022	0.294763	-0.152955
C134	C	1.697022	0.794763	0.347045
H135	H	1.079889	1.005301	-0.552970
H136	H	1.579889	1.505301	-0.052970
N137	N	0.701488	0.357512	-0.542045
N138	N	1.201488	0.857512	-0.042045
N139	N	0.660409	0.387578	-0.587520
N140	N	1.160409	0.887578	-0.087520
H141	H	0.689869	0.413922	-0.627355
H142	H	1.189869	0.913922	-0.127355
H143	H	1.282789	1.104953	-0.369953
H144	H	1.782789	1.604953	0.130047
H145	H	1.111979	0.345367	-0.973205
H146	H	1.611979	0.845367	-0.473205
H147	H	0.670281	0.258520	-0.392295
H148	H	1.170281	0.758520	0.107705
H149	H	1.250665	0.262895	-0.950493
H150	H	1.750665	0.762895	-0.450493
H151	H	1.079929	1.104353	-0.552968
H152	H	1.579929	1.604353	-0.052968
H153	H	1.023911	0.853008	-0.603375
H154	H	1.523911	1.353008	-0.103375
H155	H	1.079703	0.601998	-0.552905
H156	H	1.579703	1.101998	-0.052905
N157	N	1.012284	0.748276	-0.613824
N158	N	1.512284	1.248276	-0.113824
N159	N	0.962390	0.772522	-0.658851
N160	N	1.462390	1.272522	-0.158851
H161	H	0.922038	0.752722	-0.695243
H162	H	1.422038	1.252722	-0.195243
N163	N	1.068081	0.497233	-0.563330
N164	N	1.568081	0.997233	-0.063330
N165	N	1.068077	0.448480	-0.563312
N166	N	1.568077	0.948480	-0.063312
H167	H	1.027747	0.428655	-0.599694
H168	H	1.527747	0.928655	-0.099694
H169	H	1.282513	0.503536	-0.369853
H170	H	1.782513	1.003536	0.130147
H171	H	1.282573	0.602589	-0.369880
H172	H	1.782573	1.102589	0.130120
H173	H	1.338613	0.853944	-0.319512
H174	H	1.838613	1.353944	0.180488
N175	N	1.350151	0.749275	-0.309027
N176	N	1.850151	1.249275	0.190973
N177	N	1.400071	0.773815	-0.264013
N178	N	1.900071	1.273815	0.235987
H179	H	1.440406	0.754251	-0.227616
H180	H	1.940406	1.254251	0.272384
N181	N	1.294330	1.000265	-0.359473
N182	N	1.794330	1.500265	0.140527
N183	N	1.344247	1.024796	-0.314444
N184	N	1.844247	1.524796	0.185556
H185	H	1.384574	1.005227	-0.278046
H186	H	1.884574	1.505227	0.221954
