data_functionalizedCrystal
_audit_creation_method	'MofGen! by Chris Wilmer'
_symmetry_space_group_name_H-M	'P1'
_symmetry_Int_Tables_number	1
_symmetry_cell_setting	triclinic
loop_
_symmetry_equiv_pos_as_xyz
  x,y,z
_cell_length_a	19.121241
_cell_length_b	19.121063
_cell_length_c	17.077404
_cell_angle_alpha	87.575628
_cell_angle_beta	92.450284
_cell_angle_gamma	95.003121
loop_
_atom_site_label
_atom_site_type_symbol
_atom_site_fract_x
_atom_site_fract_y
_atom_site_fract_z
Zn1	Zn	1.063635	-0.234460	0.505805
Zn2	Zn	1.563635	0.265540	1.005805
Zn3	Zn	1.058550	-0.352102	0.379896
Zn4	Zn	1.558550	0.147898	0.879896
Zn5	Zn	0.945997	-0.239458	0.369172
Zn6	Zn	1.445997	0.260542	0.869172
Zn7	Zn	0.940910	-0.357099	0.505738
Zn8	Zn	1.440910	0.142901	1.005738
O9	O	1.002273	-0.295780	0.440153
O10	O	1.502273	0.204220	0.940153
O11	O	1.161425	-0.245882	0.493619
O12	O	1.661425	0.254118	0.993619
O13	O	1.043620	-0.337159	0.268626
O14	O	1.543620	0.162841	0.768626
O15	O	0.965858	-0.140328	0.382837
O16	O	1.465858	0.359672	0.882837
O17	O	1.157689	-0.332313	0.401114
O18	O	1.657689	0.167687	0.901114
O19	O	1.052287	-0.136656	0.483221
O20	O	1.552287	0.363344	0.983221
O21	O	0.960927	-0.254400	0.260748
O22	O	1.460927	0.245600	0.760748
O23	O	0.846857	-0.259246	0.382772
O24	O	1.346857	0.240754	0.882772
O25	O	0.957190	-0.340831	0.615594
O26	O	1.457190	0.159169	1.115594
O27	O	0.843120	-0.345677	0.483107
O28	O	1.343120	0.154323	0.983107
O29	O	1.047355	-0.250728	0.615643
O30	O	1.547355	0.249272	1.115643
O31	O	1.038688	-0.451231	0.401049
O32	O	1.538688	0.048769	0.901049
O33	O	0.952259	-0.454903	0.493505
O34	O	1.452259	0.045097	0.993505
C35	C	0.819458	-0.303547	0.431769
C36	C	1.319458	0.196453	0.931769
C37	C	0.741248	-0.306887	0.428202
C38	C	1.241248	0.193113	0.928202
C39	C	0.706448	-0.263527	0.474768
C40	C	1.206448	0.236473	0.974768
C41	C	0.632961	-0.266662	0.471409
C42	C	1.132961	0.233338	0.971409
C43	C	0.594277	-0.313160	0.421488
C44	C	1.094277	0.186840	0.921488
C45	C	0.629082	-0.356522	0.374916
C46	C	1.129082	0.143478	0.874916
C47	C	0.702567	-0.353383	0.378271
C48	C	1.202567	0.146617	0.878271
C49	C	0.372302	-0.324882	0.408940
C50	C	0.872302	0.175118	0.908940
C51	C	0.298812	-0.328019	0.405590
C52	C	0.798812	0.171981	0.905590
C53	C	0.302696	-0.238158	0.502083
C54	C	0.802696	0.261842	1.002083
C55	C	0.376182	-0.235027	0.505437
C56	C	0.876182	0.264973	1.005437
C57	C	0.410981	-0.278385	0.458862
C58	C	0.910981	0.221615	0.958862
C59	C	0.519162	-0.316367	0.418055
C60	C	1.019162	0.183633	0.918055
C61	C	0.486095	-0.275174	0.462291
C62	C	0.986095	0.224826	0.962291
C63	C	0.994389	-0.478598	0.448451
C64	C	1.494389	0.021402	0.948451
C65	C	0.991081	-0.556806	0.452031
C66	C	1.491081	-0.056806	0.952031
C67	C	1.034561	-0.591611	0.405619
C68	C	1.534561	-0.091611	0.905619
C69	C	1.031453	-0.665096	0.408990
C70	C	1.531453	-0.165096	0.908990
C71	C	0.984862	-0.703773	0.458769
C72	C	1.484862	-0.203773	0.958769
C73	C	0.941380	-0.668963	0.505187
C74	C	1.441380	-0.168963	1.005187
C75	C	0.944492	-0.595479	0.501819
C76	C	1.444492	-0.095479	1.001819
C77	C	0.973218	-0.925742	0.471347
C78	C	1.473218	-0.425742	0.971347
C79	C	0.970108	-0.999230	0.474710
C80	C	1.470108	-0.499230	0.974710
C81	C	1.060182	-0.995358	0.378513
C82	C	1.560182	-0.495358	0.878513
C83	C	1.063286	-0.921874	0.375147
C84	C	1.563286	-0.421874	0.875147
C85	C	1.019808	-0.887069	0.421567
C86	C	1.519808	-0.387069	0.921567
C87	C	0.981683	-0.778886	0.462215
C88	C	1.481683	-0.278886	0.962215
C89	C	1.022991	-0.811958	0.418125
C90	C	1.522991	-0.311958	0.918125
C91	C	1.185802	-0.287982	0.448570
C92	C	1.685802	0.212018	0.948570
C93	C	1.264011	-0.284660	0.452157
C94	C	1.764011	0.215340	0.952157
C95	C	1.002272	-0.295780	0.644897
C96	C	1.502272	0.204220	1.144897
C97	C	1.002272	-0.295780	0.732147
C98	C	1.502272	0.204220	1.232147
C99	C	1.010207	-0.112247	0.431840
C100	C	1.510207	0.387753	0.931840
C101	C	1.013588	-0.034036	0.428297
C102	C	1.513588	0.465964	0.928297
C103	C	0.959220	-0.252692	0.769035
C104	C	1.459220	0.247308	1.269035
C105	C	0.959217	-0.252698	0.851015
C106	C	1.459217	0.247302	1.351015
C107	C	1.002270	-0.295788	0.896107
C108	C	1.502270	0.204212	1.396107
C109	C	1.045323	-0.338881	0.859213
C110	C	1.545323	0.161119	1.359213
C111	C	1.045322	-0.338878	0.777234
C112	C	1.545322	0.161122	1.277234
C113	C	1.045323	-0.338882	1.030084
C114	C	1.545323	0.161118	1.530084
C115	C	1.045325	-0.338884	1.112068
C116	C	1.545325	0.161116	1.612068
C117	C	0.959218	-0.252702	1.103864
C118	C	1.459218	0.247298	1.603864
C119	C	0.959217	-0.252700	1.021885
C120	C	1.459217	0.247300	1.521885
C121	C	1.002272	-0.295791	0.984998
C122	C	1.502272	0.204209	1.484998
C123	C	1.002269	-0.295796	1.236206
C124	C	1.502269	0.204204	1.736206
C125	C	1.002274	-0.295797	1.148956
C126	C	1.502274	0.204203	1.648956
H127	H	1.072497	-0.560125	0.365079
H128	H	1.572497	-0.060125	0.865079
O129	O	1.108514	-0.884386	0.326688
O130	O	1.608514	-0.384386	0.826688
C131	C	1.092424	-0.903025	0.248558
C132	C	1.592424	-0.403025	0.748558
H133	H	1.063113	-0.957551	0.248110
H134	H	1.563113	-0.457551	0.748110
H135	H	1.143128	-0.903353	0.215853
H136	H	1.643128	-0.403353	0.715853
H137	H	1.058021	-0.863244	0.218531
H138	H	1.558021	-0.363244	0.718531
O139	O	0.902288	-0.561741	0.547018
O140	O	1.402288	-0.061741	1.047018
C141	C	0.916867	-0.578990	0.626791
C142	C	1.416867	-0.078990	1.126791
H143	H	0.941653	-0.631172	0.632123
H144	H	1.441653	-0.131172	1.132123
H145	H	0.865955	-0.583690	0.659734
H146	H	1.365955	-0.083690	1.159734
H147	H	0.954782	-0.536056	0.653021
H148	H	1.454782	-0.036056	1.153021
O149	O	0.261161	-0.373093	0.357043
O150	O	0.761161	0.126907	0.857043
C151	C	0.220383	-0.334773	0.302647
C152	C	0.720383	0.165227	0.802647
H153	H	0.211670	-0.281960	0.327514
H154	H	0.711670	0.218040	0.827514
H155	H	0.167474	-0.365626	0.291016
H156	H	0.667474	0.134374	0.791016
H157	H	0.249028	-0.325746	0.245426
H158	H	0.749028	0.174254	0.745426
O159	O	0.896028	-0.706458	0.553498
O160	O	1.396028	-0.206458	1.053498
C161	C	0.826667	-0.691561	0.532234
C162	C	1.326667	-0.191561	1.032234
H163	H	0.827490	-0.638281	0.499546
H164	H	1.327490	-0.138281	0.999546
H165	H	0.795183	-0.690393	0.587295
H166	H	1.295183	-0.190393	1.087295
H167	H	0.801242	-0.733960	0.492668
H168	H	1.301242	-0.233960	0.992668
H169	H	1.066859	-0.693431	0.371195
H170	H	1.566859	-0.193431	0.871195
H171	H	0.487656	-0.354226	0.377409
H172	H	0.987656	0.145774	0.877409
H173	H	0.924165	-0.217599	0.732326
H174	H	1.424165	0.282401	1.232326
H175	H	0.924157	-0.217615	0.881045
H176	H	1.424157	0.282385	1.381045
O177	O	0.917333	-0.210821	0.978199
O178	O	1.417333	0.289179	1.478199
C179	C	0.879344	-0.172775	1.028334
C180	C	1.379344	0.327225	1.528334
H181	H	0.875658	-0.201699	1.087965
H182	H	1.375658	0.298301	1.587965
H183	H	0.824232	-0.167623	1.001762
H184	H	1.324232	0.332377	1.501762
H185	H	0.907423	-0.118241	1.035814
H186	H	1.407423	0.381759	1.535814
H187	H	1.060928	-0.780464	0.377598
H188	H	1.560928	-0.280464	0.877598
H189	H	0.924162	-0.217615	1.133902
H190	H	1.424162	0.282385	1.633902
O191	O	0.599187	-0.224617	0.516764
O192	O	1.099187	0.275383	1.016764
C193	C	0.616504	-0.239330	0.596493
C194	C	1.116504	0.260670	1.096493
H195	H	0.634283	-0.294688	0.603824
H196	H	1.134283	0.205312	1.103824
H197	H	0.568443	-0.235384	0.632808
H198	H	1.068443	0.264616	1.132808
H199	H	0.660787	-0.199817	0.617318
H200	H	1.160787	0.300183	1.117318
O201	O	0.936516	-0.816534	0.510610
O202	O	1.436516	-0.316534	1.010610
C203	C	0.974744	-0.857270	0.565139
C204	C	1.474744	-0.357270	1.065139
H205	H	1.027628	-0.865966	0.540455
H206	H	1.527628	-0.365966	1.040455
H207	H	0.943893	-0.910187	0.576678
H208	H	1.443893	-0.410187	1.076678
H209	H	0.983625	-0.828598	0.622375
H210	H	1.483625	-0.328598	1.122375
H211	H	1.095581	-1.023704	0.340722
H212	H	1.595581	-0.523704	0.840722
H213	H	1.080383	-0.373972	1.148780
H214	H	1.580383	0.126028	1.648780
O215	O	1.087208	-0.380764	0.994375
O216	O	1.587208	0.119236	1.494375
C217	C	1.125196	-0.418810	1.051751
C218	C	1.625196	0.081190	1.551751
H219	H	1.128882	-0.389886	1.108995
H220	H	1.628882	0.110114	1.608995
H221	H	1.180308	-0.423964	1.030944
H222	H	1.680308	0.076036	1.530944
H223	H	1.097116	-0.473344	1.061709
H224	H	1.597116	0.026656	1.561709
H225	H	0.597579	-0.394378	0.334265
H226	H	1.097579	0.105622	0.834265
H227	H	0.730901	-0.388690	0.340351
H228	H	1.230901	0.111310	0.840351
H229	H	1.080374	-0.373969	0.895933
H230	H	1.580374	0.126031	1.395933
H231	H	0.274354	-0.202858	0.540000
H232	H	0.774354	0.297142	1.040000
O233	O	0.924928	-1.036770	0.523186
O234	O	1.424928	-0.536770	1.023186
C235	C	0.941005	-1.018114	0.601313
C236	C	1.441005	-0.518114	1.101313
H237	H	0.998071	-0.995470	0.606973
H238	H	1.498071	-0.495470	1.106973
H239	H	0.932877	-1.066693	0.642018
H240	H	1.432877	-0.566693	1.142018
H241	H	0.905069	-0.977094	0.618124
H242	H	1.405069	-0.477094	1.118124
H243	H	1.080385	-0.373958	0.747202
H244	H	1.580385	0.126042	1.247202
H245	H	0.737940	-0.225665	0.515422
H246	H	1.237940	0.274335	1.015422
O247	O	0.413653	-0.189790	0.553941
O248	O	0.913653	0.310210	1.053941
C249	C	0.367178	-0.152201	0.594335
C250	C	0.867178	0.347799	1.094335
H251	H	0.314895	-0.151961	0.559686
H252	H	0.814895	0.348039	1.059686
H253	H	0.390794	-0.095865	0.601255
H254	H	0.890794	0.404135	1.101255
H255	H	0.358264	-0.178379	0.654725
H256	H	0.858264	0.321621	1.154725
H257	H	0.400626	-0.360188	0.371017
H258	H	0.900626	0.139812	0.871017
H259	H	0.517595	-0.237313	0.502934
H260	H	1.017595	0.262687	1.002934
H261	H	0.937814	-0.897410	0.509143
H262	H	1.437814	-0.397410	1.009143
