data_functionalizedCrystal
_audit_creation_method	'MofGen! by Chris Wilmer'
_symmetry_space_group_name_H-M	'P1'
_symmetry_Int_Tables_number	1
_symmetry_cell_setting	triclinic
loop_
_symmetry_equiv_pos_as_xyz
  x,y,z
_cell_length_a	10.654562
_cell_length_b	14.853567
_cell_length_c	9.130313
_cell_angle_alpha	89.999024
_cell_angle_beta	90.007569
_cell_angle_gamma	84.062517
loop_
_atom_site_label
_atom_site_type_symbol
_atom_site_fract_x
_atom_site_fract_y
_atom_site_fract_z
O1	O	1.666517	0.126678	0.121882
O2	O	1.300915	0.138730	0.121863
O3	O	1.493482	0.001527	0.121877
O4	O	1.473950	0.263881	0.121867
O5	O	1.493463	0.001528	-0.121722
O6	O	1.300897	0.138731	-0.121736
O7	O	1.666498	0.126679	-0.121717
Cu8	Cu	1.483696	0.132705	-0.143969
Cu9	Cu	1.483718	0.132704	0.144115
O10	O	1.473932	0.263882	-0.121731
C11	C	1.254117	0.137843	0.000061
C12	C	1.114703	0.135188	0.000054
C13	C	1.049175	0.133951	-0.132720
C14	C	0.918178	0.131463	-0.132696
C15	C	0.918248	0.131456	0.132889
C16	C	1.049244	0.133936	0.132863
C17	C	1.114634	0.135202	-0.265529
C18	C	1.049105	0.133966	-0.398314
C19	C	0.918109	0.131478	-0.398290
C20	C	0.852641	0.130228	-0.265480
C21	C	1.492588	-0.032066	0.000082
C22	C	1.489936	-0.132164	0.000095
C23	C	1.364336	-0.545375	0.000060
C24	C	1.593110	-0.565423	0.000072
C25	C	1.595603	-0.471376	0.000081
C26	C	1.482462	-0.414324	0.000077
C27	C	1.366826	-0.451318	0.000064
C28	C	1.711237	-0.434374	0.000079
C29	C	1.713735	-0.340322	0.000086
C30	C	1.600592	-0.283267	0.000093
C31	C	1.484952	-0.320268	0.000082
C32	C	1.371810	-0.263215	0.000078
C33	C	1.256169	-0.300213	0.000077
C34	C	1.253683	-0.394264	0.000071
C35	C	1.603077	-0.189217	0.000099
C36	C	1.374300	-0.169159	0.000082
C37	C	1.713296	0.127566	0.000088
C38	C	1.852711	0.130220	0.000105
C39	C	1.474826	0.297475	0.000067
C40	C	1.477478	0.397573	0.000064
N41	N	1.483690	0.132705	-0.346592
C42	C	1.398410	0.193432	-0.423288
C43	C	1.398435	0.193430	-0.576625
C44	C	1.569022	0.071967	-0.576556
C45	C	1.569003	0.071974	-0.423222
C46	C	1.313097	0.254163	-0.346658
C47	C	1.227809	0.314893	-0.423354
C48	C	1.227834	0.314892	-0.576691
C49	C	1.313146	0.254159	-0.653331
N50	N	1.483734	0.132697	0.346738
H51	H	0.864933	0.130440	0.241016
C52	C	1.338533	0.339284	-0.126999
C53	C	1.313076	0.254167	-0.178109
H54	H	1.338528	0.339281	-0.022945
H55	H	1.275531	0.384131	-0.161704
H56	H	1.418819	0.352156	-0.161670
H57	H	1.232785	0.241298	-0.143447
H58	H	1.376081	0.209306	-0.143389
H59	H	1.102597	0.134949	0.240980
C60	C	1.249879	0.137786	-0.516281
C61	C	1.121063	0.135338	-0.544293
H62	H	1.294297	0.138638	-0.606406
H63	H	1.280833	0.085716	-0.461736
H64	H	1.261869	0.190677	-0.461722
H65	H	1.109073	0.082444	-0.598843
H66	H	1.090100	0.187414	-0.598861
H67	H	1.158358	0.364345	-0.360945
C68	C	1.147911	-0.158789	0.000072
C69	C	1.249928	-0.106450	0.000076
H70	H	1.071131	-0.120073	0.000060
H71	H	1.151707	-0.195887	0.085017
H72	H	1.151699	-0.195892	-0.084880
H73	H	1.246145	-0.069351	0.085034
H74	H	1.246130	-0.069336	-0.084878
C75	C	1.316268	0.061385	-0.193281
C76	C	1.258628	0.137926	-0.265562
H77	H	1.405163	0.063070	-0.193296
H78	H	1.296092	0.008358	-0.242330
H79	H	1.286654	0.060828	-0.095187
H80	H	1.288235	0.138479	-0.363661
H81	H	1.278814	0.190967	-0.216517
H82	H	1.164049	-0.253749	0.000063
H83	H	1.697230	-0.159097	0.000090
H84	H	1.158398	0.364347	-0.639135
C85	C	1.148291	-0.529534	0.000028
C86	C	1.126579	-0.434935	0.000048
H87	H	1.069822	-0.554643	0.000001
H88	H	1.194874	-0.549066	0.084976
H89	H	1.194885	-0.549048	-0.084922
H90	H	1.079993	-0.415420	0.085004
H91	H	1.079976	-0.415395	-0.084908
H92	H	1.313167	0.254169	-0.778189
C93	C	1.905474	-0.480427	0.125307
C94	C	1.835594	-0.497087	0.000084
H95	H	1.982253	-0.519145	0.125304
H96	H	1.858073	-0.491721	0.210238
H97	H	1.923507	-0.419119	0.125287
H98	H	1.817554	-0.558394	0.000109
H99	H	1.883006	-0.485800	-0.084870
H100	H	1.270184	-0.575503	0.000065
C101	C	1.787329	-0.611465	-0.125143
C102	C	1.717472	-0.628131	0.000074
H103	H	1.864105	-0.650186	-0.125140
H104	H	1.805358	-0.550165	-0.125122
H105	H	1.739905	-0.622758	-0.210087
H106	H	1.764892	-0.616832	0.085019
H107	H	1.699445	-0.689447	0.000067
H108	H	1.807897	-0.310206	0.000089
H109	H	1.638479	0.022520	-0.638967
C110	C	1.737612	-0.048096	-0.438543
C111	C	1.662738	0.005219	-0.338906
H112	H	1.795477	-0.089310	-0.386486
H113	H	1.782852	-0.010269	-0.498336
H114	H	1.685284	-0.080880	-0.498365
H115	H	1.715066	0.038008	-0.279091
H116	H	1.617494	-0.032613	-0.279088
H117	H	0.864761	0.130464	-0.506409
H118	H	0.745975	0.128201	-0.265471
