data_functionalizedCrystal
_audit_creation_method	'MofGen! by Chris Wilmer'
_symmetry_space_group_name_H-M	'P1'
_symmetry_Int_Tables_number	1
_symmetry_cell_setting	triclinic
loop_
_symmetry_equiv_pos_as_xyz
  x,y,z
_cell_length_a	10.489716
_cell_length_b	10.489741
_cell_length_c	8.965430
_cell_angle_alpha	90.000707
_cell_angle_beta	89.996523
_cell_angle_gamma	84.534155
loop_
_atom_site_label
_atom_site_type_symbol
_atom_site_fract_x
_atom_site_fract_y
_atom_site_fract_z
O1	O	1.694072	0.179809	-0.124026
O2	O	1.322872	0.196735	-0.124032
O3	O	1.516918	0.002673	-0.124020
O4	O	1.500025	0.373871	-0.124038
O5	O	1.516902	0.002686	0.124059
O6	O	1.322856	0.196748	0.124047
O7	O	1.694055	0.179822	0.124052
Cu8	Cu	1.508454	0.188286	0.146701
Cu9	Cu	1.508473	0.188271	-0.146681
O10	O	1.500009	0.373884	0.124041
C11	C	1.275332	0.195470	0.000007
C12	C	1.133701	0.191665	0.000005
C13	C	1.515634	-0.044852	0.000018
C14	C	1.511817	-0.186481	0.000016
C15	C	1.036027	0.310669	-0.000005
C16	C	0.958673	0.247791	0.122321
C17	C	0.958695	0.247750	-0.122265
C18	C	1.058212	0.128837	0.122431
C19	C	1.058240	0.128813	-0.122265
C20	C	0.980935	0.065848	0.000091
C21	C	1.388351	-0.254610	0.000003
C22	C	1.446667	-0.346731	0.122319
C23	C	1.446712	-0.346719	-0.122267
C24	C	1.570184	-0.276737	0.122433
C25	C	1.570212	-0.276714	-0.122263
C26	C	1.628618	-0.368808	0.000083
C27	C	1.741596	0.181087	0.000010
C28	C	1.883227	0.184892	0.000002
C29	C	1.501293	0.421409	-0.000001
C30	C	1.505110	0.563038	-0.000008
N31	N	1.508450	0.188296	0.353050
N32	N	1.508488	0.188251	-0.353030
C33	C	1.418682	0.278013	0.450351
C34	C	1.534179	0.303814	0.549765
C35	C	1.393000	0.162507	0.549764
C36	C	1.624006	0.214155	0.450275
C37	C	1.482751	0.072797	0.450266
C38	C	1.598331	0.098549	0.549635
H39	H	1.060696	0.414185	0.000105
F40	F	1.378410	-0.387219	-0.257423
F41	F	1.638448	-0.236147	-0.257433
F42	F	1.319550	0.377270	0.393364
H43	H	1.555942	0.401469	0.593469
H44	H	1.721677	0.236065	0.406758
F45	F	1.697684	-0.000649	0.606265
H46	H	1.286838	-0.204950	0.000125
H47	H	0.915183	0.298033	0.225731
H48	H	1.101521	0.078634	0.225950
H49	H	1.295351	0.140714	0.593468
H50	H	1.460952	-0.024828	0.406527
H51	H	0.956505	-0.037744	0.000166
H52	H	1.101743	0.078609	-0.225680
H53	H	0.915219	0.298006	-0.225667
H54	H	1.730222	-0.418241	0.000153
H55	H	1.394419	-0.377733	0.225728
H56	H	1.622373	-0.245904	0.225958
