data_functionalizedCrystal
_audit_creation_method	'MofGen! by Chris Wilmer'
_symmetry_space_group_name_H-M	'P1'
_symmetry_Int_Tables_number	1
_symmetry_cell_setting	triclinic
loop_
_symmetry_equiv_pos_as_xyz
  x,y,z
_cell_length_a	15.944493
_cell_length_b	15.944551
_cell_length_c	8.965430
_cell_angle_alpha	89.999468
_cell_angle_beta	89.996758
_cell_angle_gamma	83.486891
loop_
_atom_site_label
_atom_site_type_symbol
_atom_site_fract_x
_atom_site_fract_y
_atom_site_fract_z
O1	O	1.114554	0.108094	-0.124023
O2	O	0.869998	0.121501	-0.124031
O3	O	0.998955	-0.007479	-0.124013
O4	O	0.985598	0.237074	-0.124040
O5	O	0.998944	-0.007470	0.124066
O6	O	0.869987	0.121510	0.124048
O7	O	1.114543	0.108102	0.124056
Cu8	Cu	0.992264	0.114807	0.146704
Cu9	Cu	0.992277	0.114797	-0.146678
O10	O	0.985587	0.237082	0.124039
C11	C	0.838698	0.120957	0.000008
C12	C	0.745449	0.119314	0.000006
C13	C	0.509689	0.195235	-0.000004
C14	C	0.459126	0.154298	0.122323
C15	C	0.574728	0.116270	0.000009
C16	C	0.459141	0.154271	-0.122263
C17	C	0.409819	0.113336	0.000005
C18	C	0.525393	0.075355	0.122437
C19	C	0.525411	0.075339	-0.122260
C20	C	0.474880	0.034345	0.000097
C21	C	0.669728	0.117963	0.000012
C22	C	0.314821	0.111637	0.000013
C23	C	0.998395	-0.038768	0.000027
C24	C	0.996732	-0.132014	0.000027
C25	C	0.912826	-0.346853	0.000004
C26	C	0.951784	-0.407874	0.122323
C27	C	0.993725	-0.302739	0.000016
C28	C	0.951813	-0.407866	-0.122263
C29	C	0.990814	-0.467651	-0.000002
C30	C	1.032705	-0.362532	0.122436
C31	C	1.032724	-0.362518	-0.122260
C32	C	1.071741	-0.423521	0.000089
C33	C	0.995399	-0.207737	0.000027
C34	C	0.989146	-0.562652	-0.000002
C35	C	1.145844	0.108646	0.000014
C36	C	1.239092	0.110289	0.000007
C37	C	0.986147	0.268372	-0.000004
C38	C	0.987809	0.361617	-0.000015
N39	N	0.992261	0.114813	0.353053
N40	N	0.992287	0.114783	-0.353027
C41	C	0.932605	0.174443	0.450351
C42	C	1.008511	0.190730	0.549765
C43	C	0.916387	0.098533	0.549766
C44	C	1.068206	0.131138	0.450278
C45	C	0.976032	0.038909	0.450271
C46	C	1.051993	0.055164	0.549640
H47	H	0.554216	0.042031	0.225957
H48	H	1.066916	-0.342398	-0.225674
H49	H	0.917590	-0.427940	-0.225681
C50	C	0.864515	0.242622	0.391436
C51	C	0.868706	0.336071	0.430749
C52	C	0.800621	0.404250	0.371831
C53	C	0.728346	0.378981	0.273600
C54	C	0.724153	0.285528	0.234281
C55	C	0.792237	0.217348	0.293199
H56	H	0.922210	0.354780	0.503470
H57	H	0.803725	0.473431	0.400938
H58	H	0.677946	0.429452	0.229986
H59	H	0.670648	0.266819	0.161560
H60	H	0.789133	0.148168	0.264092
H61	H	0.459415	-0.033726	0.000175
C62	C	0.420021	0.199348	0.262021
C63	C	0.429788	0.293138	0.288883
C64	C	0.390687	0.338193	0.428576
C65	C	0.341821	0.289460	0.541406
C66	C	0.332052	0.195665	0.514547
C67	C	0.371153	0.150610	0.374855
H68	H	0.465964	0.329218	0.205357
H69	H	0.397919	0.407627	0.448458
H70	H	0.312876	0.322813	0.644815
H71	H	0.295876	0.159585	0.598074
H72	H	0.363921	0.081176	0.354973
C73	C	1.120230	-0.012981	0.608182
C74	C	1.213634	-0.008784	0.568524
C75	C	1.281872	-0.076925	0.627068
C76	C	1.256707	-0.149262	0.725271
C77	C	1.163299	-0.153462	0.764934
C78	C	1.095060	-0.085321	0.706389
H79	H	1.232267	0.044767	0.495823
H80	H	1.351020	-0.073815	0.597707
H81	H	1.307222	-0.199704	0.768609
H82	H	1.144666	-0.207013	0.837634
H83	H	1.025913	-0.088431	0.735751
C84	C	0.564538	0.030333	-0.261970
C85	C	0.614726	0.078701	-0.373308
C86	C	0.653854	0.033708	-0.513037
C87	C	0.642794	-0.059653	-0.541428
C88	C	0.592604	-0.108026	-0.430086
C89	C	0.553476	-0.063033	-0.290358
H90	H	0.622915	0.147817	-0.352294
H91	H	0.691008	0.069517	-0.595459
H92	H	0.671758	-0.092960	-0.644863
H93	H	0.584414	-0.177143	-0.451100
H94	H	0.516322	-0.098843	-0.207936
C95	C	1.027071	0.277429	0.608819
C96	C	0.962362	0.329503	0.709325
C97	C	0.980910	0.416206	0.768372
C98	C	1.064165	0.450834	0.726914
C99	C	1.128879	0.398760	0.626402
C100	C	1.110331	0.312057	0.567355
H101	H	0.900727	0.303870	0.740020
H102	H	0.933004	0.454754	0.842778
H103	H	1.077895	0.515017	0.770624
H104	H	1.190514	0.424393	0.595708
H105	H	1.158237	0.273508	0.492950
H106	H	0.525313	0.263254	0.000103
H107	H	0.430207	0.187631	-0.225666
H108	H	1.132396	0.144972	0.406761
H109	H	0.962263	-0.025249	0.406534
H110	H	0.917562	-0.427972	0.225732
H111	H	1.066889	-0.342545	0.225961
H112	H	0.845675	-0.313532	0.000124
H113	H	1.138950	-0.456694	0.000160
H114	H	0.852211	0.084776	0.593471
