data_functionalizedCrystal
_audit_creation_method	'MofGen! by Chris Wilmer'
_symmetry_space_group_name_H-M	'P1'
_symmetry_Int_Tables_number	1
_symmetry_cell_setting	triclinic
loop_
_symmetry_equiv_pos_as_xyz
  x,y,z
_cell_length_a	19.121063
_cell_length_b	19.121308
_cell_length_c	12.759393
_cell_angle_alpha	87.583449
_cell_angle_beta	92.404035
_cell_angle_gamma	90.071047
loop_
_atom_site_label
_atom_site_type_symbol
_atom_site_fract_x
_atom_site_fract_y
_atom_site_fract_z
Zn1	Zn	-0.324739	-1.059831	-0.547101
Zn2	Zn	0.175261	-0.559831	-0.047101
Zn3	Zn	-0.441988	-1.054730	-0.379207
Zn4	Zn	0.058012	-0.554730	0.120793
Zn5	Zn	-0.319778	-0.942591	-0.378596
Zn6	Zn	0.180222	-0.442591	0.121404
Zn7	Zn	-0.436943	-0.937561	-0.561995
Zn8	Zn	0.063057	-0.437561	-0.061995
O9	O	-0.380862	-0.998678	-0.466725
O10	O	0.119138	-0.498678	0.033275
O11	O	-0.344480	-1.157255	-0.518851
O12	O	0.155520	-0.657255	-0.018851
O13	O	-0.425812	-1.039825	-0.232109
O14	O	0.074188	-0.539825	0.267891
O15	O	-0.222332	-0.962383	-0.394460
O16	O	0.277668	-0.462383	0.105540
O17	O	-0.430623	-1.153508	-0.395501
O18	O	0.069377	-0.653508	0.104499
O19	O	-0.225977	-1.048518	-0.518259
O20	O	0.274023	-0.548518	-0.018259
O21	O	-0.336024	-0.957437	-0.231660
O22	O	0.163976	-0.457437	0.268340
O23	O	-0.331132	-0.843823	-0.408902
O24	O	0.168868	-0.343823	0.091098
O25	O	-0.422024	-0.953810	-0.707036
O26	O	0.077976	-0.453810	-0.207036
O27	O	-0.417213	-0.840128	-0.543644
O28	O	0.082787	-0.340128	-0.043644
O29	O	-0.339588	-1.043641	-0.696093
O30	O	0.160412	-0.543641	-0.196093
O31	O	-0.539423	-1.034948	-0.409943
O32	O	-0.039423	-0.534948	0.090057
O33	O	-0.535716	-0.948864	-0.544236
O34	O	-0.035716	-0.448864	-0.044236
C35	C	-0.373088	-0.816539	-0.477824
C36	C	0.126912	-0.316539	0.022176
C37	C	-0.369778	-0.738618	-0.482598
C38	C	0.130222	-0.238618	0.017402
C39	C	-0.348761	-0.298013	-0.512873
C40	C	0.151239	0.201987	-0.012873
C41	C	-0.351883	-0.371227	-0.508382
C42	C	0.148117	0.128773	-0.008382
C43	C	-0.398221	-0.405878	-0.441801
C44	C	0.101779	0.094122	0.058199
C45	C	-0.441443	-0.367309	-0.379714
C46	C	0.058557	0.132691	0.120286
C47	C	-0.438324	-0.294096	-0.384211
C48	C	0.061676	0.205904	0.115789
C49	C	-0.409882	-0.626836	-0.425009
C50	C	0.090118	-0.126836	0.074991
C51	C	-0.412996	-0.700055	-0.420514
C52	C	0.087004	-0.200055	0.079486
C53	C	-0.323437	-0.703968	-0.549184
C54	C	0.176563	-0.203968	-0.049184
C55	C	-0.320319	-0.630753	-0.553670
C56	C	0.179681	-0.130753	-0.053670
C57	C	-0.363544	-0.592191	-0.491588
C58	C	0.136456	-0.092191	0.008412
C59	C	-0.401412	-0.480715	-0.437206
C60	C	0.098588	0.019285	0.062794
C61	C	-0.360356	-0.517355	-0.496189
C62	C	0.139644	-0.017355	0.003811
C63	C	-0.563007	-0.990826	-0.478794
C64	C	-0.063007	-0.490826	0.021206
C65	C	-0.640933	-0.987531	-0.483988
C66	C	-0.140933	-0.487531	0.016012
C67	C	-0.679450	-1.030837	-0.416563
C68	C	-0.179450	-0.530837	0.083437
C69	C	-0.752669	-1.027742	-0.421454
C70	C	-0.252669	-0.527742	0.078546
C71	C	-0.787369	-0.981337	-0.493766
C72	C	-0.287369	-0.481337	0.006234
C73	C	-0.748847	-0.938029	-0.561199
C74	C	-0.248847	-0.438029	-0.061199
C75	C	-0.675629	-0.941128	-0.556312
C76	C	-0.175629	-0.441128	-0.056312
C77	C	-1.008344	-0.969739	-0.512022
C78	C	-0.508344	-0.469739	-0.012022
C79	C	-1.081567	-0.966642	-0.516902
C80	C	-0.581567	-0.466642	-0.016902
C81	C	-1.085384	-1.056356	-0.377157
C82	C	-0.585384	-0.556356	0.122843
C83	C	-1.012165	-1.059448	-0.372272
C84	C	-0.512165	-0.559448	0.127728
C85	C	-0.973649	-1.016143	-0.439709
C86	C	-0.473649	-0.516143	0.060291
C87	C	-0.862211	-0.978171	-0.498766
C88	C	-0.362211	-0.478171	0.001234
C89	C	-0.898809	-1.019313	-0.434714
C90	C	-0.398809	-0.519313	0.065286
C91	C	-0.198006	-1.006581	-0.454630
C92	C	0.301994	-0.506581	0.045370
C93	C	-0.120084	-1.009948	-0.449476
C94	C	0.379916	-0.509948	0.050524
C95	C	-0.380797	-0.998734	-0.740750
C96	C	0.119203	-0.498734	-0.240750
C97	C	-0.380769	-0.998757	-0.857524
C98	C	0.119231	-0.498757	-0.357524
C99	C	-0.388664	-0.181529	-0.455571
C100	C	0.111336	0.318471	0.044429
C101	C	-0.391979	-0.259450	-0.450789
C102	C	0.108021	0.240550	0.049211
C103	C	-0.337838	-1.045536	-0.906689
C104	C	0.162162	-0.545536	-0.406689
C105	C	-0.337808	-1.045549	-1.016410
C106	C	0.162192	-0.545549	-0.516410
C107	C	-0.423647	-0.952003	-1.027792
C108	C	0.076353	-0.452003	-0.527792
C109	C	-0.423673	-0.951987	-0.918073
C110	C	0.076327	-0.451987	-0.418073
C111	C	-0.256164	-1.074193	-1.159367
C112	C	0.243836	-0.574193	-0.659367
C113	C	-0.213239	-1.120982	-1.208535
C114	C	0.286761	-0.620982	-0.708535
C115	C	-0.205405	-1.189846	-1.168054
C116	C	0.294595	-0.689846	-0.668054
C117	C	-0.240507	-1.211934	-1.078406
C118	C	0.259493	-0.711934	-0.578406
C119	C	-0.283437	-1.165148	-1.029243
C120	C	0.216563	-0.665148	-0.529243
C121	C	-0.291257	-1.096275	-1.069722
C122	C	0.208743	-0.596275	-0.569722
C123	C	-0.505318	-0.923350	-0.775114
C124	C	-0.005318	-0.423350	-0.275114
C125	C	-0.548253	-0.876567	-0.725949
C126	C	-0.048253	-0.376567	-0.225949
C127	C	-0.556094	-0.807702	-0.766429
C128	C	-0.056094	-0.307702	-0.266429
C129	C	-0.521004	-0.785616	-0.856081
C130	C	-0.021004	-0.285616	-0.356081
C131	C	-0.478070	-0.832399	-0.905246
C132	C	0.021930	-0.332399	-0.405246
C133	C	-0.470228	-0.901264	-0.864759
C134	C	0.029772	-0.401264	-0.364759
C135	C	-0.380878	-0.998666	-0.193759
C136	C	0.119122	-0.498666	0.306241
C137	C	-0.380714	-0.998786	-0.076965
C138	C	0.119286	-0.498786	0.423035
H139	H	-0.445077	-0.595448	-0.374454
H140	H	0.054923	-0.095448	0.125546
F141	F	-0.277439	-0.745013	-0.615255
F142	F	0.222561	-0.245013	-0.115255
F143	F	-0.484327	-0.253055	-0.318140
F144	F	0.015673	0.246945	0.181860
H145	H	-0.302901	-1.083618	-0.857393
H146	H	0.197099	-0.583618	-0.357393
F147	F	-0.264489	-1.000897	-1.202448
F148	F	0.235511	-0.500897	-0.702448
H149	H	-0.439137	-0.508935	-0.382991
H150	H	0.060863	-0.008935	0.117009
F151	F	-0.320794	-1.188651	-0.933840
F152	F	0.179206	-0.688651	-0.433840
F153	F	-0.440723	-0.808891	-1.000663
F154	F	0.059277	-0.308891	-0.500663
F155	F	-0.299438	-0.261142	-0.583733
F156	F	0.200562	0.238858	-0.083733
F157	F	-0.462328	-0.736930	-0.349662
F158	F	0.037672	-0.236930	0.150338
H159	H	-1.109818	-0.928862	-0.575805
H160	H	-0.609818	-0.428862	-0.075805
H161	H	-0.870554	-1.057099	-0.375841
H162	H	-0.370554	-0.557099	0.124159
F163	F	-0.975240	-1.108846	-0.295319
F164	F	-0.475240	-0.608846	0.204681
H165	H	-0.184659	-1.102992	-1.281528
H166	H	0.315341	-0.602992	-0.781528
H167	H	-0.527391	-0.729541	-0.889044
H168	H	-0.027391	-0.229541	-0.389044
F169	F	-0.642526	-1.080223	-0.339591
F170	F	-0.142526	-0.580223	0.160409
F171	F	-0.793659	-1.073836	-0.349693
F172	F	-0.293659	-0.573836	0.150307
F173	F	-0.469308	-0.902232	-1.092242
F174	F	0.030692	-0.402232	-0.592242
H175	H	-1.116752	-1.091613	-0.322256
H176	H	-0.616752	-0.591613	0.177744
F177	F	-0.601802	-0.757917	-0.714112
F178	F	-0.101802	-0.257917	-0.214112
F179	F	-0.585605	-0.900077	-0.630539
F180	F	-0.085605	-0.400077	-0.130539
F181	F	-0.899148	-0.928784	-0.575723
F182	F	-0.399148	-0.428784	-0.075723
H183	H	-0.976990	-0.934477	-0.566929
H184	H	-0.476990	-0.434477	-0.066929
F185	F	-0.305888	-0.412266	-0.574466
F186	F	0.194112	0.087734	-0.074466
H187	H	-0.170454	-1.227942	-1.208095
H188	H	0.329546	-0.727942	-0.708095
H189	H	-0.498933	-0.979424	-0.742141
H190	H	0.001067	-0.479424	-0.242141
F191	F	-0.271003	-0.593881	-0.624539
F192	F	0.228997	-0.093881	-0.124539
F193	F	-0.232176	-1.285232	-1.035338
F194	F	0.267824	-0.785232	-0.535338
H195	H	-0.777106	-0.900248	-0.620082
H196	H	-0.277106	-0.400248	-0.120082
F197	F	-0.490762	-0.404189	-0.308858
F198	F	0.009238	0.095811	0.191142
H199	H	-0.322631	-0.489140	-0.550403
H200	H	0.177369	0.010860	-0.050403
H201	H	-0.644269	-0.905865	-0.611218
H202	H	-0.144269	-0.405865	-0.111218
