data_functionalizedCrystal
_audit_creation_method	'MofGen! by Chris Wilmer'
_symmetry_space_group_name_H-M	'P1'
_symmetry_Int_Tables_number	1
_symmetry_cell_setting	triclinic
loop_
_symmetry_equiv_pos_as_xyz
  x,y,z
_cell_length_a	9.798715
_cell_length_b	10.723024
_cell_length_c	10.723024
_cell_angle_alpha	95.532131
_cell_angle_beta	90.001978
_cell_angle_gamma	89.996609
loop_
_atom_site_label
_atom_site_type_symbol
_atom_site_fract_x
_atom_site_fract_y
_atom_site_fract_z
O1	O	0.113478	-1.657187	0.175024
O2	O	0.613478	-1.157187	0.675024
O3	O	0.113483	-1.294035	0.191778
O4	O	0.613483	-0.794035	0.691778
O5	O	0.113475	-1.483988	0.001825
O6	O	0.613475	-0.983988	0.501825
O7	O	0.113486	-1.467234	0.364977
O8	O	0.613486	-0.967234	0.864977
O9	O	-0.113507	-1.483974	0.001824
O10	O	0.386493	-0.983974	0.501824
O11	O	-0.113499	-1.294021	0.191777
O12	O	0.386501	-0.794021	0.691777
O13	O	-0.113504	-1.657173	0.175024
O14	O	0.386496	-1.157173	0.675024
Zn15	Zn	-0.149540	-1.475595	0.183401
Zn16	Zn	0.350460	-0.975595	0.683401
Zn17	Zn	0.149519	-1.475613	0.183401
Zn18	Zn	0.649519	-0.975613	0.683401
O19	O	-0.113496	-1.467220	0.364977
O20	O	0.386504	-0.967220	0.864977
C21	C	-0.000008	-1.247528	0.190558
C22	C	0.499992	-0.747528	0.690558
C23	C	-0.000006	-1.108974	0.186911
C24	C	0.499994	-0.608974	0.686911
N25	N	-0.353640	-1.475591	0.183399
N26	N	0.146360	-0.975591	0.683399
C27	C	-0.000014	-1.482762	-0.044675
C28	C	0.499986	-0.982762	0.455325
C29	C	-0.000009	-1.479114	-0.183229
C30	C	0.499991	-0.979114	0.316771
C31	C	-0.421420	-1.555347	0.103292
C32	C	0.078580	-1.055347	0.603292
C33	C	-0.578582	-1.555367	0.103288
C34	C	-0.078582	-1.055367	0.603288
N35	N	0.353619	-1.475627	0.183393
N36	N	0.853619	-0.975627	0.683393
C37	C	-0.000010	-1.703680	0.176243
C38	C	0.499990	-1.203680	0.676243
C39	C	-0.000003	-1.842234	0.179891
C40	C	0.499997	-1.342234	0.679891
C41	C	-0.000002	-1.033991	0.293198
C42	C	0.499998	-0.533991	0.793198
C43	C	-0.000001	-0.890788	0.289431
C44	C	0.499999	-0.390788	0.789431
C45	C	-0.000009	-1.585401	-0.258212
C46	C	0.499991	-1.085401	0.241788
C47	C	-0.000004	-1.581634	-0.401415
C48	C	0.499996	-1.081634	0.098585
C49	C	-0.000004	-1.468447	0.411477
C50	C	0.499996	-0.968447	0.911477
C51	C	0.000000	-1.472094	0.550031
C52	C	0.500000	-0.972094	1.050031
H53	H	-0.363100	-1.623611	0.034707
H54	H	0.136900	-1.123611	0.534707
F55	F	-0.000013	-1.700570	-0.485629
F56	F	0.499987	-1.200570	0.014371
H57	H	0.000001	-1.385328	-0.225051
H58	H	0.500001	-0.885328	0.274949
F59	F	0.000014	-0.806574	0.408367
F60	F	0.500014	-0.306574	0.908367
F61	F	-0.000003	-1.088649	0.415788
F62	F	0.499997	-0.588649	0.915788
F63	F	-0.000019	-1.054316	0.064321
F64	F	0.499981	-0.554316	0.564321
F65	F	-0.654766	-1.644626	0.013647
F66	F	-0.154766	-1.144626	0.513647
F67	F	-0.000010	-1.353153	-0.365762
F68	F	0.499990	-0.853153	0.134238
H69	H	0.000002	-0.906659	0.088896
H70	H	0.500002	-0.406659	0.588896
F71	F	-0.000002	-1.707991	-0.203554
F72	F	0.499998	-1.207991	0.296446
F73	F	-0.570207	-1.386376	0.273048
F74	F	-0.070207	-0.886376	0.773048
F75	F	-0.429865	-1.386351	0.273035
F76	F	0.070135	-0.886351	0.773035
