data_functionalizedCrystal
_audit_creation_method	'MofGen! by Chris Wilmer'
_symmetry_space_group_name_H-M	'P1'
_symmetry_Int_Tables_number	1
_symmetry_cell_setting	triclinic
loop_
_symmetry_equiv_pos_as_xyz
  x,y,z
_cell_length_a	15.944551
_cell_length_b	14.044220
_cell_length_c	13.101039
_cell_angle_alpha	93.659868
_cell_angle_beta	93.361595
_cell_angle_gamma	91.656192
loop_
_atom_site_label
_atom_site_type_symbol
_atom_site_fract_x
_atom_site_fract_y
_atom_site_fract_z
O1	O	0.198266	-1.262927	-0.085109
O2	O	0.698266	-0.762927	0.414891
O3	O	0.190957	-0.986959	-0.085135
O4	O	0.690957	-0.486959	0.414865
O5	O	0.072901	-1.132479	-0.085112
O6	O	0.572901	-0.632479	0.414888
O7	O	0.316322	-1.117408	-0.085132
O8	O	0.816322	-0.617408	0.414868
O9	O	0.081387	-1.122038	0.085316
O10	O	0.581387	-0.622038	0.585316
O11	O	0.199443	-0.976518	0.085293
O12	O	0.699443	-0.476518	0.585293
O13	O	0.206752	-1.252486	0.085319
O14	O	0.706752	-0.752486	0.585319
Zn15	Zn	0.204444	-1.112845	0.112365
Zn16	Zn	0.704444	-0.612845	0.612365
Zn17	Zn	0.193264	-1.126601	-0.112181
Zn18	Zn	0.693264	-0.626601	0.387819
O19	O	0.324807	-1.106967	0.085296
O20	O	0.824807	-0.606967	0.585296
C21	C	0.192001	-0.946424	0.000076
C22	C	0.692001	-0.446424	0.500076
C23	C	0.182459	-0.841198	0.000066
C24	C	0.682459	-0.341198	0.500066
C25	C	0.045803	-1.126633	0.000102
C26	C	0.545803	-0.626633	0.500102
C27	C	-0.047583	-1.124757	0.000102
C28	C	0.452417	-0.624757	0.500102
N29	N	0.212075	-1.103463	0.265612
N30	N	0.712075	-0.603463	0.765612
C31	C	-0.269531	-1.030074	0.000079
C32	C	0.230469	-0.530074	0.500079
C33	C	-0.323071	-1.068894	0.084115
C34	C	0.176929	-0.568894	0.584115
C35	C	-0.218563	-1.121364	0.000094
C36	C	0.281437	-0.621364	0.500094
C37	C	-0.331419	-1.079209	-0.083914
C38	C	0.168581	-0.579209	0.416086
C39	C	-0.383723	-1.118080	0.000082
C40	C	0.116277	-0.618080	0.500082
C41	C	-0.270871	-1.160204	0.084199
C42	C	0.229129	-0.660204	0.584199
C43	C	-0.279217	-1.170512	-0.083905
C44	C	0.220783	-0.670512	0.416095
C45	C	-0.332734	-1.209397	0.000151
C46	C	0.167266	-0.709397	0.500151
C47	C	-0.123419	-1.123253	0.000102
C48	C	0.376581	-0.623253	0.500102
C49	C	-0.478865	-1.116197	0.000081
C50	C	0.021135	-0.616197	0.500081
C51	C	0.351905	-1.112813	0.000079
C52	C	0.851905	-0.612813	0.500079
C53	C	0.445291	-1.114689	0.000072
C54	C	0.945291	-0.614689	0.500072
C55	C	0.205707	-1.293021	0.000106
C56	C	0.705707	-0.793021	0.500106
C57	C	0.215249	-1.398248	0.000108
C58	C	0.715249	-0.898248	0.500108
C59	C	0.165017	-0.648535	0.000088
C60	C	0.665017	-0.148535	0.500088
C61	C	0.232688	-0.590906	0.000087
C62	C	0.732688	-0.090906	0.500087
C63	C	0.222982	-0.483701	0.000099
C64	C	0.722982	0.016299	0.500099
C65	C	0.174721	-0.755749	0.000076
C66	C	0.674721	-0.255749	0.500076
N67	N	0.185628	-1.135990	-0.265429
N68	N	0.685628	-0.635990	0.234571
C69	C	0.222464	-1.090699	0.474653
C70	C	0.722464	-0.590699	0.974653
C71	C	0.175242	-1.148750	0.525537
C72	C	0.675242	-0.648750	1.025537
C73	C	0.181022	-1.141649	0.641855
C74	C	0.681022	-0.641649	1.141855
C75	C	0.216684	-1.097800	0.358325
C76	C	0.716684	-0.597800	0.858325
H77	H	-0.342534	-1.025929	0.155153
H78	H	0.157466	-0.525929	0.655153
C79	C	-0.252839	-1.228472	-0.179869
C80	C	0.247161	-0.728472	0.320131
H81	H	-0.221247	-1.281181	-0.159683
H82	H	0.278753	-0.781181	0.340317
H83	H	-0.219422	-1.188905	-0.218708
H84	H	0.280578	-0.688905	0.281292
H85	H	-0.301565	-1.251089	-0.220419
H86	H	0.198435	-0.751089	0.279581
H87	H	0.130473	-1.203784	0.481744
H88	H	0.630473	-0.703784	0.981744
H89	H	-0.244450	-1.194427	0.155322
H90	H	0.255550	-0.694427	0.655322
C91	C	0.282947	-1.016368	0.533806
C92	C	0.782947	-0.516368	1.033806
H93	H	0.278951	-1.021296	0.605356
H94	H	0.778951	-0.521296	1.105356
H95	H	0.268302	-0.954127	0.516294
H96	H	0.768302	-0.454127	1.016294
H97	H	0.338910	-1.027841	0.516281
H98	H	0.838910	-0.527841	1.016281
H99	H	-0.357926	-1.044938	-0.154965
H100	H	0.142074	-0.544938	0.345035
C101	C	-0.232187	-0.927707	0.000180
C102	C	0.267813	-0.427707	0.500180
H103	H	-0.247051	-0.891762	0.059959
H104	H	0.252949	-0.391762	0.559959
H105	H	-0.253754	-0.898571	-0.058911
H106	H	0.246246	-0.398571	0.441089
H107	H	-0.172709	-0.929640	-0.000422
H108	H	0.327291	-0.429640	0.499578
H109	H	-0.360212	-1.285236	0.000205
H110	H	0.139788	-0.785236	0.500205
H111	H	0.297911	-0.622082	0.000076
H112	H	0.797911	-0.122082	0.500076
H113	H	0.099799	-0.617361	0.000099
H114	H	0.599799	-0.117361	0.500099
