data_functionalizedCrystal
_audit_creation_method	'MofGen! by Chris Wilmer'
_symmetry_space_group_name_H-M	'P1'
_symmetry_Int_Tables_number	1
_symmetry_cell_setting	triclinic
loop_
_symmetry_equiv_pos_as_xyz
  x,y,z
_cell_length_a	12.759401
_cell_length_b	12.759394
_cell_length_c	12.759393
_cell_angle_alpha	89.967655
_cell_angle_beta	89.980163
_cell_angle_gamma	90.016362
loop_
_atom_site_label
_atom_site_type_symbol
_atom_site_fract_x
_atom_site_fract_y
_atom_site_fract_z
Zn1	Zn	1.606254	-0.418161	-0.594015
Zn2	Zn	1.606148	-0.593880	-0.418333
Zn3	Zn	1.430556	-0.418221	-0.418350
Zn4	Zn	1.430544	-0.593804	-0.593970
O5	O	1.518376	-0.506016	-0.506167
O6	O	1.753261	-0.441478	-0.570722
O7	O	1.582816	-0.570636	-0.271314
O8	O	1.453912	-0.271192	-0.441678
O9	O	1.753183	-0.570578	-0.441649
O10	O	1.582997	-0.271148	-0.570739
O11	O	1.453809	-0.441579	-0.271327
O12	O	1.283533	-0.441505	-0.441635
O13	O	1.453892	-0.570447	-0.740997
O14	O	1.283525	-0.570505	-0.570662
O15	O	1.582985	-0.441404	-0.741030
O16	O	1.582804	-0.740891	-0.441605
O17	O	1.453789	-0.740835	-0.570645
C18	C	1.245408	-0.506004	-0.506146
C19	C	1.128632	-0.506023	-0.506162
C20	C	1.073793	-0.573296	-0.573241
C21	C	0.964068	-0.573300	-0.573262
C22	C	0.964032	-0.438756	-0.439116
C23	C	1.073754	-0.438747	-0.439101
C24	C	1.518312	-0.778984	-0.506142
C25	C	1.518382	-0.895761	-0.506166
C26	C	1.652826	-0.895766	-0.371897
C27	C	1.720076	-0.950630	-0.304775
C28	C	1.720137	-1.060351	-0.304804
C29	C	1.652944	-1.115212	-0.371964
C30	C	1.585695	-1.060348	-0.439086
C31	C	1.585638	-0.950624	-0.439048
C32	C	1.451257	-1.060343	-0.573358
C33	C	1.451189	-0.950621	-0.573326
C34	C	1.384064	-1.115203	-0.640518
C35	C	1.316807	-1.060340	-0.707636
C36	C	1.316748	-0.950612	-0.707604
C37	C	1.383939	-0.895758	-0.640448
C38	C	1.792409	-0.506030	-0.506188
C39	C	1.909185	-0.506036	-0.506198
C40	C	1.518449	-0.505910	-0.780200
C41	C	1.518480	-0.505865	-0.896977
C42	C	1.518467	-0.231983	-0.506215
C43	C	1.518507	-0.115206	-0.506236
C44	C	1.451331	-0.438653	-0.951845
C45	C	1.451355	-0.438621	-1.061569
C46	C	1.585688	-0.573015	-1.061548
C47	C	1.585657	-0.573052	-0.951825
C48	C	1.518363	-0.506046	-0.233200
C49	C	1.518535	-0.505796	-0.116423
H50	H	1.118405	-0.383960	-0.384478
H51	H	1.652769	-0.806425	-0.371854
H52	H	1.262109	-1.105016	-0.762317
H53	H	0.919423	-0.628078	-0.627885
H54	H	1.774786	-0.905953	-0.250096
H55	H	1.774903	-1.105021	-0.250152
C56	C	0.903664	-0.364770	-0.365344
H57	H	0.830463	-0.374418	-0.374950
H58	H	0.921664	-0.294195	-0.380834
H59	H	0.921613	-0.380073	-0.294722
C60	C	1.653018	-1.235902	-0.372000
H61	H	1.702691	-1.260719	-0.322405
H62	H	1.671166	-1.260649	-0.439821
H63	H	1.585239	-1.260796	-0.353775
H64	H	1.384123	-1.204544	-0.640541
C65	C	1.242775	-0.890270	-0.781442
H66	H	1.202767	-0.938661	-0.821436
H67	H	1.282920	-0.847393	-0.827236
H68	H	1.196983	-0.847543	-0.741202
H69	H	1.396630	-0.383945	-0.907191
C70	C	1.383876	-0.775067	-0.640417
H71	H	1.334200	-0.750246	-0.690006
H72	H	1.451655	-0.750180	-0.658628
H73	H	1.365718	-0.750317	-0.572594
C74	C	1.377495	-0.364683	-1.121920
H75	H	1.337491	-0.324671	-1.073536
H76	H	1.331712	-0.404850	-1.164710
H77	H	1.417722	-0.318893	-1.164735
C78	C	1.659593	-0.646902	-1.121879
H79	H	1.699576	-0.686941	-1.073484
H80	H	1.705394	-0.606695	-1.164690
H81	H	1.619400	-0.692668	-1.164672
C82	C	1.134154	-0.647286	-0.647014
H83	H	1.085775	-0.687344	-0.686973
H84	H	1.176930	-0.693014	-0.606744
H85	H	1.176985	-0.607138	-0.692858
C86	C	1.659527	-0.646987	-0.891466
H87	H	1.699550	-0.686985	-0.939845
H88	H	1.619308	-0.692773	-0.848650
H89	H	1.705309	-0.606807	-0.848677
