data_functionalizedCrystal
_audit_creation_method	'MofGen! by Chris Wilmer'
_symmetry_space_group_name_H-M	'P1'
_symmetry_Int_Tables_number	1
_symmetry_cell_setting	triclinic
loop_
_symmetry_equiv_pos_as_xyz
  x,y,z
_cell_length_a	6.817900
_cell_length_b	11.102291
_cell_length_c	17.329378
_cell_angle_alpha	90.444598
_cell_angle_beta	103.025558
_cell_angle_gamma	108.605753
loop_
_atom_site_label
_atom_site_type_symbol
_atom_site_fract_x
_atom_site_fract_y
_atom_site_fract_z
V1	V	-4.032529	-0.149862	-0.245030
O2	O	-3.993065	0.033932	-0.240365
O3	O	-4.009847	-0.322860	-0.243354
O4	O	-3.974855	-0.135828	-0.351895
O5	O	-4.028300	-0.154395	-0.131072
V6	V	-4.514027	-0.129264	-0.231399
O7	O	-4.298232	-0.195046	-0.274929
O8	O	-4.698522	-0.084081	-0.201500
O9	O	-4.313502	0.043734	-0.233075
O10	O	-4.670888	-0.313059	-0.236064
O11	O	-4.635653	-0.124732	-0.345356
O12	O	-4.348494	-0.143298	-0.124534
C13	C	-3.861405	-0.365400	-0.239489
C14	C	-3.924085	-0.506753	-0.238832
C15	C	-4.049367	-0.716495	-0.309877
C16	C	-3.990493	-0.583679	-0.310493
C17	C	-3.916571	-0.562648	-0.166549
C18	C	-3.975459	-0.695462	-0.165934
C19	C	-4.115754	-0.793414	-0.381543
C20	C	-4.123275	-0.737528	-0.453825
C21	C	-4.064401	-0.604713	-0.454442
C22	C	-3.998006	-0.527784	-0.382775
C23	C	-3.816767	-0.126820	-0.377943
C24	C	-3.851066	-0.116491	-0.465306
C25	C	-3.923725	-0.226833	-0.517572
C26	C	-3.955959	-0.217125	-0.599659
C27	C	-3.915520	-0.097073	-0.629478
C28	C	-3.842861	0.013278	-0.577205
C29	C	-3.810642	0.003568	-0.495120
C30	C	-4.009986	-0.061993	-0.876760
C31	C	-4.042206	-0.052292	-0.958852
C32	C	-4.155306	-0.282696	-0.981301
C33	C	-4.123068	-0.292394	-0.899213
C34	C	-4.050423	-0.182044	-0.846947
C35	C	-3.948462	-0.087147	-0.713383
C36	C	-4.017497	-0.191972	-0.763044
C37	C	-4.125288	0.086267	-0.236938
C38	C	-4.041846	0.227618	-0.237600
C39	C	-4.169925	-0.152311	-0.098482
C40	C	-4.114864	-0.162634	-0.011118
H41	H	-3.950090	-0.419638	-0.383283
C42	C	-3.730706	0.124954	-0.437626
N43	N	-3.670502	0.216386	-0.394322
H44	H	-3.809950	0.111026	-0.601490
C45	C	-4.235235	-0.404073	-1.038799
N46	N	-4.295451	-0.495500	-1.082108
C47	C	-3.997732	0.079780	-0.991649
N48	N	-3.964239	0.179251	-1.016353
C49	C	-4.072675	-0.543241	-0.533953
N50	N	-4.078894	-0.496944	-0.593843
C51	C	-3.903950	0.044909	-0.746191
N52	N	-3.870419	0.144374	-0.770905
C53	C	-4.196305	-0.822151	-0.532654
N54	N	-4.251306	-0.885889	-0.592029
H55	H	-3.950836	0.027862	-0.834215
H56	H	-3.862506	-0.500003	-0.108202
C57	C	-4.180526	-0.939515	-0.380872
N58	N	-4.229311	-1.049558	-0.380365
C59	C	-3.968218	-0.358901	-0.484781
N60	N	-4.001743	-0.458379	-0.460085
C61	C	-4.035826	-0.338510	-0.657148
N62	N	-4.095963	-0.429942	-0.700449
H63	H	-4.050430	-0.289718	-0.738762
C64	C	-4.167578	-0.424461	-0.866420
N65	N	-4.201104	-0.523937	-0.841720
H66	H	-3.969330	-0.740965	-0.107080
