data_functionalizedCrystal
_audit_creation_method	'MofGen! by Chris Wilmer'
_symmetry_space_group_name_H-M	'P1'
_symmetry_Int_Tables_number	1
_symmetry_cell_setting	triclinic
loop_
_symmetry_equiv_pos_as_xyz
  x,y,z
_cell_length_a	23.532407
_cell_length_b	23.532357
_cell_length_c	22.010155
_cell_angle_alpha	89.998697
_cell_angle_beta	89.994271
_cell_angle_gamma	82.838519
loop_
_atom_site_label
_atom_site_type_symbol
_atom_site_fract_x
_atom_site_fract_y
_atom_site_fract_z
O1	O	0.755251	0.069129	-0.050494
O2	O	0.589386	0.079132	-0.050505
O3	O	0.677335	-0.008803	-0.050487
O4	O	0.667302	0.157064	-0.050512
O5	O	0.677319	-0.008790	0.050564
O6	O	0.589370	0.079146	0.050546
O7	O	0.755235	0.069142	0.050556
Cu8	Cu	0.672301	0.074145	0.059778
Cu9	Cu	0.672320	0.074129	-0.059726
O10	O	0.667286	0.157078	0.050538
C11	C	0.568162	0.078884	0.000019
C12	C	0.504945	0.078118	0.000016
C13	C	0.238788	0.022922	0.000041
C14	C	0.298188	0.023633	0.000041
O15	O	0.334940	-0.020154	0.000068
N16	N	0.320805	0.075911	0.000028
C17	C	0.284018	0.127480	0.000023
O18	O	0.308710	0.172012	0.000013
C19	C	0.224619	0.126768	0.000027
C20	C	0.202006	0.074487	0.000033
C21	C	0.216174	-0.029355	0.000048
C22	C	0.156778	-0.030066	0.000047
C23	C	0.119996	0.021499	0.000039
C24	C	0.142610	0.073776	0.000032
C25	C	0.187833	0.178337	0.000026
C26	C	0.128431	0.177620	0.000031
C27	C	0.105818	0.125339	0.000037
C28	C	0.046431	0.124630	0.000024
N29	N	0.023815	0.072353	0.000036
C30	C	0.060597	0.020787	0.000044
C31	C	0.408760	0.128971	0.000014
C32	C	0.468158	0.129684	0.000005
C33	C	0.482324	0.025837	0.000024
C34	C	0.422925	0.025125	0.000029
C35	C	0.386143	0.076694	0.000026
C36	C	-0.064140	0.019297	0.000041
C37	C	-0.123542	0.018591	0.000038
C38	C	-0.137702	0.122438	0.000022
C39	C	-0.078306	0.123145	0.000022
C40	C	-0.041525	0.071570	0.000034
O41	O	0.009644	0.168394	-0.000001
O42	O	0.035897	-0.023737	0.000062
C43	C	0.677076	-0.030013	0.000041
C44	C	0.676322	-0.093232	0.000046
C45	C	0.671594	-0.485250	-0.055069
C46	C	0.670876	-0.544650	-0.055073
O47	O	0.670494	-0.575372	-0.101919
N48	N	0.670512	-0.574354	0.000009
C49	C	0.670859	-0.544654	0.055098
O50	O	0.670483	-0.575374	0.101949
C51	C	0.671572	-0.485255	0.055101
C52	C	0.671942	-0.455555	0.000015
C53	C	0.671963	-0.455550	-0.110150
C54	C	0.672681	-0.396155	-0.110147
C55	C	0.673030	-0.366460	-0.055062
C56	C	0.672661	-0.396160	0.000019
C57	C	0.671915	-0.455556	0.110189
C58	C	0.672628	-0.396153	0.110187
C59	C	0.672998	-0.366453	0.055102
C60	C	0.673728	-0.307070	0.055107
N61	N	0.674092	-0.277366	0.000025
C62	C	0.673743	-0.307061	-0.055059
C63	C	0.669361	-0.669396	0.055087
C64	C	0.668652	-0.728794	0.055085
C65	C	0.668668	-0.728785	-0.055086
C66	C	0.669381	-0.669386	-0.055083
C67	C	0.669725	-0.639692	0.000006
C68	C	0.675252	-0.182327	-0.055047
C69	C	0.675973	-0.122926	-0.055038
C70	C	0.675954	-0.122940	0.055132
C71	C	0.675236	-0.182336	0.055124
C72	C	0.674883	-0.212027	0.000029
O73	O	0.674109	-0.276309	0.101929
O74	O	0.674112	-0.276333	-0.101902
C75	C	0.776459	0.069390	0.000031
C76	C	0.839676	0.070156	0.000030
C77	C	0.667545	0.178288	0.000010
C78	C	0.668300	0.241506	0.000000
N79	N	0.672292	0.074156	0.143830
N80	N	0.672334	0.074114	-0.143779
C81	C	0.711266	0.035197	0.563618
C82	C	0.711269	0.035193	0.627225
O83	O	0.744383	0.002077	0.660123
N84	N	0.672320	0.074118	0.659037
C85	C	0.633362	0.113044	0.627238
O86	O	0.600233	0.146152	0.660138
C87	C	0.633357	0.113045	0.563632
C88	C	0.672312	0.074122	0.531823
C89	C	0.750218	-0.003723	0.531809
C90	C	0.750216	-0.003718	0.468205
C91	C	0.711262	0.035207	0.436411
C92	C	0.672310	0.074127	0.468220
C93	C	0.594397	0.151969	0.531834
C94	C	0.594395	0.151966	0.468224
C95	C	0.633350	0.113043	0.436415
C96	C	0.633354	0.113057	0.372822
N97	N	0.672303	0.074133	0.341010
C98	C	0.711257	0.035207	0.372805
C99	C	0.633374	0.113039	0.760816
C100	C	0.633382	0.113042	0.824422
C101	C	0.711288	0.035190	0.824404
C102	C	0.711283	0.035190	0.760797
C103	C	0.672323	0.074115	0.729004
C104	C	0.711250	0.035221	0.239233
C105	C	0.711246	0.035231	0.175625
C106	C	0.633338	0.113080	0.175648
C107	C	0.633344	0.113073	0.239251
C108	C	0.672302	0.074138	0.271042
O109	O	0.600255	0.146155	0.339884
O110	O	0.744376	0.002101	0.339898
H111	H	-0.141950	-0.023984	0.000041
H112	H	0.601666	0.144742	0.850316
H113	H	0.742973	0.003516	0.265111
Br114	Br	-0.014233	-0.050698	0.000057
Br115	Br	0.498840	0.200640	-0.000019
H116	H	0.743006	0.003494	0.850302
H117	H	0.669642	-0.645222	0.099950
Br118	Br	0.668163	-0.769096	0.129847
Br119	Br	0.674773	-0.222613	-0.129819
Br120	Br	0.803083	-0.056547	0.425043
H121	H	0.138372	-0.072639	0.000054
Br122	Br	0.580499	0.165874	0.717674
H123	H	0.378815	0.170968	0.000007
Br124	Br	0.676429	-0.082629	0.129886
Br125	Br	0.764120	-0.017595	0.132458
Br126	Br	0.541526	0.204795	0.574990
Br127	Br	0.580475	0.165907	0.132488
Br128	Br	0.541515	0.204794	0.425080
H129	H	0.601628	0.144773	0.265150
H130	H	0.246117	-0.071348	0.000056
H131	H	0.671615	-0.479728	0.155045
Br132	Br	0.532254	-0.044146	0.000032
Br133	Br	0.673094	-0.355857	0.184954
Br134	Br	0.674747	-0.222646	0.129883
H135	H	0.404518	-0.017447	0.000034
H136	H	0.098485	0.219615	0.000032
Br137	Br	0.218507	0.249294	0.000016
Br138	Br	0.764153	-0.017636	0.717635
Br139	Br	-0.047615	0.194098	0.000004
Br140	Br	0.676479	-0.082623	-0.129802
Br141	Br	-0.187632	0.192416	0.000007
H142	H	0.672981	-0.371978	-0.155003
H143	H	0.669681	-0.645208	-0.099938
Br144	Br	0.668191	-0.769096	-0.129844
Br145	Br	0.671489	-0.495839	-0.184918
Br146	Br	0.803090	-0.056558	0.574947
