data_functionalizedCrystal
_audit_creation_method	'MofGen! by Chris Wilmer'
_symmetry_space_group_name_H-M	'P1'
_symmetry_Int_Tables_number	1
_symmetry_cell_setting	triclinic
loop_
_symmetry_equiv_pos_as_xyz
  x,y,z
_cell_length_a	14.044220
_cell_length_b	8.559649
_cell_length_c	7.681481
_cell_angle_alpha	85.086760
_cell_angle_beta	83.732834
_cell_angle_gamma	98.516229
loop_
_atom_site_label
_atom_site_type_symbol
_atom_site_fract_x
_atom_site_fract_y
_atom_site_fract_z
O1	O	-0.021858	-2.101908	-0.146399
O2	O	0.026593	-1.643608	-0.146411
O3	O	-0.135117	-1.865881	-0.146388
O4	O	0.139853	-1.879635	-0.146422
O5	O	-0.155061	-1.893233	0.146473
O6	O	0.006649	-1.670961	0.146449
O7	O	-0.041802	-2.129260	0.146461
Zn8	Zn	-0.020743	-1.904453	0.192953
Zn9	Zn	0.005534	-1.868415	-0.192903
O10	O	0.119909	-1.906988	0.146438
C11	C	0.020293	-1.598278	0.000018
C12	C	0.031222	-1.422455	0.000014
C13	C	-0.179966	-1.873534	0.000043
C14	C	-0.283884	-1.855571	0.000045
N15	N	-0.038678	-1.929059	0.456290
C16	C	-0.474153	-1.822727	0.000018
C17	C	-0.541060	-1.950133	0.000016
C18	C	-0.646933	-1.931858	0.000002
C19	C	-0.368270	-1.840999	0.000033
C20	C	0.164757	-1.899334	0.000003
C21	C	0.268676	-1.917296	-0.000010
C22	C	-0.035501	-2.174590	0.000029
C23	C	-0.046430	-2.350412	0.000021
N24	N	0.023461	-1.843820	-0.456240
H25	H	-0.518821	-2.072922	-0.000099
H26	H	-0.496383	-1.699936	0.000011
H27	H	0.106070	-1.349615	-0.000005
H28	H	-0.121272	-1.423241	0.000022
H29	H	0.086886	-1.756808	0.468554
H30	H	-0.102101	-2.016090	0.531505
