data_functionalizedCrystal
_audit_creation_method	'MofGen! by Chris Wilmer'
_symmetry_space_group_name_H-M	'P1'
_symmetry_Int_Tables_number	1
_symmetry_cell_setting	triclinic
loop_
_symmetry_equiv_pos_as_xyz
  x,y,z
_cell_length_a	10.967819
_cell_length_b	14.421503
_cell_length_c	11.026607
_cell_angle_alpha	89.992800
_cell_angle_beta	96.381100
_cell_angle_gamma	102.137020
loop_
_atom_site_label
_atom_site_type_symbol
_atom_site_fract_x
_atom_site_fract_y
_atom_site_fract_z
O1	O	1.694052	0.347818	0.170479
O2	O	1.334411	0.290349	0.186806
O3	O	1.484425	0.314317	0.001742
O4	O	1.544038	0.323849	0.355543
O5	O	1.484399	0.160089	0.001769
O6	O	1.334385	0.136121	0.186834
O7	O	1.694026	0.193590	0.170506
Cu8	Cu	1.514203	0.150773	0.178672
Cu9	Cu	1.514234	0.333165	0.178640
O10	O	1.544012	0.169622	0.355571
C11	C	1.287641	0.205763	0.185633
C12	C	1.148315	0.183500	0.182081
N13	N	1.514191	0.022490	0.178695
C14	C	0.942220	0.230476	0.176825
C15	C	1.086220	0.253481	0.180487
C16	C	1.444800	-0.238250	0.264229
C17	C	1.563069	-0.281154	0.288766
C18	C	1.514215	-0.166667	0.178666
C19	C	1.395982	-0.307852	0.154158
C20	C	1.514229	-0.349387	0.178641
C21	C	1.632553	-0.208199	0.203257
C22	C	1.465381	-0.234906	0.068602
C23	C	1.583721	-0.277770	0.093092
C24	C	1.514206	-0.061408	0.178683
C25	C	1.514250	-0.454642	0.178622
C26	C	1.740797	0.278177	0.171680
C27	C	1.880122	0.300447	0.175231
C28	C	1.473414	0.235447	-0.043547
C29	C	1.440630	0.230211	-0.178533
N30	N	1.514254	0.461450	0.178608
C31	C	1.531153	0.244678	-0.251587
C32	C	1.497271	0.239267	-0.391103
C33	C	1.555023	0.248494	0.400859
C34	C	1.587807	0.253736	0.535846
H35	H	0.888778	0.153540	0.175485
F36	F	1.660558	-0.300695	-0.001504
H37	H	1.424035	-0.214320	-0.024437
F38	F	1.617075	-0.308039	0.410410
H39	H	1.633737	0.261064	-0.210843
F40	F	1.368190	-0.215067	0.358881
F41	F	1.763314	-0.151946	0.230478
H42	H	1.295988	-0.351001	0.133442
F43	F	1.078476	0.082931	0.180329
H44	H	1.394681	0.222880	-0.431841
H45	H	1.690398	0.270199	-0.423418
F46	F	1.156063	0.354049	0.182256
F47	F	0.949970	0.401010	0.177000
F48	F	1.306543	0.208793	-0.231782
