data_functionalizedCrystal
_audit_creation_method	'MofGen! by Chris Wilmer'
_symmetry_space_group_name_H-M	'P1'
_symmetry_Int_Tables_number	1
_symmetry_cell_setting	triclinic
loop_
_symmetry_equiv_pos_as_xyz
  x,y,z
_cell_length_a	12.837943
_cell_length_b	23.532407
_cell_length_c	11.892095
_cell_angle_alpha	93.859970
_cell_angle_beta	85.689438
_cell_angle_gamma	88.838809
loop_
_atom_site_label
_atom_site_type_symbol
_atom_site_fract_x
_atom_site_fract_y
_atom_site_fract_z
O1	O	1.380592	0.144688	-0.094007
O2	O	1.078862	0.137379	-0.094012
O3	O	1.238824	0.058625	-0.093989
O4	O	1.220630	0.223442	-0.094030
O5	O	1.225487	0.065180	0.094017
O6	O	1.065525	0.143934	0.093993
O7	O	1.367255	0.151243	0.093999
Zn8	Zn	1.214272	0.148629	0.123846
Zn9	Zn	1.231845	0.139993	-0.123859
O10	O	1.207293	0.229998	0.093975
C11	C	1.033599	0.138187	-0.000010
C12	C	0.918597	0.130823	-0.000011
C13	C	0.676728	0.219356	-0.000017
C14	C	0.568673	0.212439	-0.000017
C15	C	0.594431	0.110073	-0.000004
C16	C	0.702485	0.116990	-0.000003
C17	C	0.743630	0.171633	-0.000012
C18	C	0.851687	0.178549	-0.000020
C19	C	0.877442	0.076184	0.000002
C20	C	0.769387	0.069267	0.000002
C21	C	1.231692	0.040660	0.000017
C22	C	1.230298	-0.022637	0.000026
C23	C	1.316227	-0.416812	-0.000035
C24	C	1.314934	-0.476287	-0.000043
O25	O	1.394590	-0.508463	-0.000084
N26	N	1.219835	-0.504370	-0.000044
C27	C	1.126025	-0.472975	-0.000048
O28	O	1.045018	-0.502322	-0.000051
C29	C	1.127321	-0.413501	-0.000047
C30	C	1.222424	-0.385421	-0.000035
C31	C	1.411324	-0.388732	-0.000024
C32	C	1.412617	-0.329261	-0.000013
C33	C	1.318813	-0.297871	-0.000013
C34	C	1.223717	-0.325951	-0.000024
C35	C	1.033512	-0.382108	-0.000059
C36	C	1.034816	-0.322631	-0.000060
C37	C	1.129920	-0.294551	-0.000047
C38	C	1.131207	-0.235089	-0.000014
N39	N	1.226306	-0.207006	-0.000013
C40	C	1.320109	-0.238397	-0.000013
C41	C	1.123312	-0.597873	-0.000051
C42	C	1.122015	-0.657345	-0.000043
C43	C	1.310925	-0.660653	-0.000041
C44	C	1.312220	-0.601180	-0.000040
C45	C	1.218411	-0.569790	-0.000050
C46	C	1.322817	-0.113504	0.000011
C47	C	1.324101	-0.054028	0.000026
C48	C	1.135193	-0.050725	0.000018
C49	C	1.133908	-0.110196	0.000008
C50	C	1.227729	-0.141584	0.000001
O51	O	1.051594	-0.202877	0.000022
O52	O	1.401104	-0.209042	-0.000025
C53	C	1.412519	0.150435	-0.000006
C54	C	1.527521	0.157799	-0.000012
C55	C	1.214425	0.247962	-0.000033
C56	C	1.215820	0.311259	-0.000049
N57	N	1.202287	0.154524	0.292898
N58	N	1.243838	0.134094	-0.292912
C59	C	1.327236	0.093046	0.529565
C60	C	1.318866	0.097171	0.647905
C61	C	1.177173	0.166894	0.647922
C62	C	1.185543	0.162770	0.529582
C63	C	1.260578	0.125845	0.470407
C64	C	1.268952	0.121724	0.352064
C65	C	1.127255	0.191444	0.352084
C66	C	1.118885	0.195569	0.470424
H67	H	0.514204	0.251300	-0.000019
C68	C	0.965105	0.242351	-0.096682
C69	C	0.896914	0.238612	-0.000032
H70	H	0.993016	0.279433	-0.096689
H71	H	1.020413	0.214924	-0.096671
H72	H	0.928123	0.235239	-0.162234
H73	H	0.933897	0.245720	0.065521
H74	H	0.841597	0.266046	-0.000032
H75	H	0.560905	0.065588	0.000097
C76	C	1.430130	-0.539585	-0.096685
C77	C	1.416758	-0.570315	-0.000038
H78	H	1.494668	-0.520531	-0.096680
H79	H	1.430349	-0.565001	-0.162232
H80	H	1.374448	-0.512376	-0.096676
H81	H	1.472436	-0.597527	-0.000052
H82	H	1.416548	-0.544897	0.065526
C83	C	1.029723	-0.178520	-0.096651
C84	C	1.029373	-0.141068	0.000005
H85	H	0.965189	-0.197580	-0.096655
H86	H	1.038798	-0.157663	-0.162192
H87	H	1.085410	-0.205725	-0.096645
H88	H	0.973691	-0.113861	-0.000005
H89	H	1.020287	-0.161927	0.065563
C90	C	1.450574	0.097147	0.780959
C91	C	1.392140	0.061118	0.712934
H92	H	1.495805	0.074886	0.821108
H93	H	1.490860	0.121257	0.734779
H94	H	1.404681	0.119724	0.833137
H95	H	1.438032	0.038543	0.660750
H96	H	1.351850	0.036998	0.759118
C97	C	0.615184	0.013210	0.000003
C98	C	0.724155	0.009205	0.000005
H99	H	0.587265	-0.023871	-0.000004
H100	H	0.587542	0.035384	0.065561
H101	H	0.596843	0.030826	-0.065563
H102	H	0.742496	-0.008407	0.065576
H103	H	0.751807	-0.012978	-0.065560
C104	C	1.598172	-0.386012	-0.000001
C105	C	1.514444	-0.423230	-0.000013
H106	H	1.661837	-0.407307	0.000020
H107	H	1.599398	-0.365032	-0.065562
H108	H	1.590072	-0.360461	0.065562
H109	H	1.522540	-0.448778	-0.065581
H110	H	1.513220	-0.444219	0.065555
C111	C	1.054518	0.041329	0.000001
C112	C	0.950985	0.023722	0.000007
H113	H	1.099918	0.008942	0.000006
H114	H	1.071575	0.061206	-0.065558
H115	H	1.062279	0.065775	0.065566
H116	H	0.943222	-0.000721	-0.065563
H117	H	0.933923	0.003836	0.065573
H118	H	1.072980	0.218153	0.303904
H119	H	1.330052	0.091659	0.303885
H120	H	1.401549	-0.031168	0.000039
C121	C	1.509676	-0.110783	0.000030
C122	C	1.425945	-0.148000	0.000013
H123	H	1.573339	-0.132080	0.000044
H124	H	1.510900	-0.089800	-0.065526
H125	H	1.501579	-0.085236	0.065598
H126	H	1.434037	-0.173545	-0.065560
H127	H	1.424721	-0.168993	0.065575
H128	H	1.490060	-0.306404	-0.000007
H129	H	1.388340	0.062984	0.481384
C130	C	1.112712	0.263376	0.684361
C131	C	1.094684	0.207474	0.712970
H132	H	1.061778	0.288426	0.724513
H133	H	1.180404	0.274007	0.703756
H134	H	1.108164	0.265609	0.605413
H135	H	1.099240	0.205240	0.791918
H136	H	1.026975	0.196840	0.693583
H137	H	1.387304	-0.686223	-0.000045
C138	C	0.948334	-0.053415	-0.000003
C139	C	1.032088	-0.016213	0.000010
H140	H	0.884682	-0.032107	-0.000009
H141	H	0.956412	-0.078961	-0.065560
H142	H	0.947099	-0.074400	0.065564
H143	H	1.033328	0.004769	-0.065562
H144	H	1.024008	0.009343	0.065573
H145	H	1.044571	-0.680202	-0.000034
C146	C	1.022002	-0.532440	-0.096693
C147	C	1.020185	-0.563373	-0.000046
H148	H	0.958333	-0.511146	-0.096692
H149	H	1.078808	-0.507201	-0.096683
H150	H	1.030079	-0.557996	-0.162247
H151	H	1.012116	-0.537815	0.065509
H152	H	0.963363	-0.588614	-0.000045
H153	H	1.057790	0.225631	0.518618
H154	H	0.956069	-0.404960	-0.000076
H155	H	0.958423	-0.297076	-0.000069
C156	C	0.640419	0.319845	-0.000041
C157	C	0.721962	0.279417	-0.000032
H158	H	0.668346	0.356925	-0.000044
H159	H	0.603463	0.312733	-0.065599
H160	H	0.594157	0.317302	0.065525
H161	H	0.768220	0.281958	-0.065603
H162	H	0.758935	0.286531	0.065532
