data_functionalizedCrystal
_audit_creation_method	'MofGen! by Chris Wilmer'
_symmetry_space_group_name_H-M	'P1'
_symmetry_Int_Tables_number	1
_symmetry_cell_setting	triclinic
loop_
_symmetry_equiv_pos_as_xyz
  x,y,z
_cell_length_a	19.120904
_cell_length_b	12.827893
_cell_length_c	12.827892
_cell_angle_alpha	90.015362
_cell_angle_beta	87.582710
_cell_angle_gamma	87.575240
loop_
_atom_site_label
_atom_site_type_symbol
_atom_site_fract_x
_atom_site_fract_y
_atom_site_fract_z
Zn1	Zn	-0.397100	-1.572422	0.441262
Zn2	Zn	-0.279660	-1.579783	0.608563
Zn3	Zn	-0.279669	-1.405130	0.433837
Zn4	Zn	-0.397073	-1.397650	0.615960
O5	O	-0.338375	-1.488746	0.524906
O6	O	-0.381528	-1.719634	0.463467
O7	O	-0.181378	-1.562826	0.579183
O8	O	-0.295261	-1.427371	0.288587
O9	O	-0.295246	-1.725042	0.586382
O10	O	-0.381537	-1.550280	0.294042
O11	O	-0.181385	-1.434508	0.450813
O12	O	-0.295235	-1.257902	0.457985
O13	O	-0.495359	-1.414624	0.598989
O14	O	-0.381492	-1.252407	0.591789
O15	O	-0.495379	-1.543028	0.470639
O16	O	-0.295220	-1.555573	0.755780
O17	O	-0.381483	-1.421761	0.761214
C18	C	-0.338362	-1.217237	0.524885
C19	C	-0.338373	-1.101083	0.524902
C20	C	-0.521565	-1.477170	0.536467
C21	C	-0.599630	-1.472237	0.541394
C22	C	-0.338363	-1.488682	0.796415
C23	C	-0.338381	-1.488748	0.912569
C24	C	-0.636316	-1.536769	0.476887
C25	C	-0.709666	-1.532121	0.481512
C26	C	-0.746329	-1.462946	0.550650
C27	C	-0.709637	-1.398407	0.615160
C28	C	-0.636288	-1.403050	0.610529
C29	C	-0.967794	-1.445577	0.567972
C30	C	-1.041147	-1.440941	0.572600
C31	C	-1.041171	-1.574655	0.438950
C32	C	-0.967821	-1.579296	0.434329
C33	C	-0.931136	-1.514753	0.498835
C34	C	-0.821304	-1.458196	0.555382
C35	C	-0.856162	-1.519499	0.494098
C36	C	-0.155898	-1.500337	0.513314
C37	C	-0.077834	-1.505473	0.508093
C38	C	-0.338389	-1.761316	0.524928
C39	C	-0.338395	-1.877468	0.524937
C40	C	-0.380989	-1.046611	0.591208
C41	C	-0.381002	-0.926560	0.591227
C42	C	-0.338403	-1.488839	0.252337
C43	C	-0.338415	-1.488878	0.136185
C44	C	-0.295743	-1.555035	0.961633
C45	C	-0.295761	-1.555105	1.081685
H46	H	-0.606471	-1.593103	0.420590
H47	H	-1.071048	-1.627200	0.386432
H48	H	-0.301905	-0.924296	0.468171
H49	H	-0.259255	-1.611853	1.123889
H50	H	-0.374901	-1.432054	0.959441
H51	H	-0.739533	-1.584673	0.428986
H52	H	-0.937976	-1.635629	0.378032
H53	H	-0.374918	-1.432120	1.093988
H54	H	-0.259228	-1.611738	0.914764
H55	H	-1.070996	-1.384607	0.628904
H56	H	-0.937934	-1.393037	0.620512
H57	H	-0.739494	-1.342079	0.671450
H58	H	-0.606419	-1.350491	0.663047
H59	H	-0.826308	-1.575817	0.437801
H60	H	-0.417485	-0.879726	0.647997
H61	H	-0.851163	-1.401878	0.611679
H62	H	-0.417468	-1.088853	0.647957
H63	H	-0.301899	-1.058841	0.468146
