data_functionalizedCrystal
_audit_creation_method	'MofGen! by Chris Wilmer'
_symmetry_space_group_name_H-M	'P1'
_symmetry_Int_Tables_number	1
_symmetry_cell_setting	triclinic
loop_
_symmetry_equiv_pos_as_xyz
  x,y,z
_cell_length_a	29.839134
_cell_length_b	29.839131
_cell_length_c	29.839125
_cell_angle_alpha	90.025363
_cell_angle_beta	90.024313
_cell_angle_gamma	90.027971
loop_
_atom_site_label
_atom_site_type_symbol
_atom_site_fract_x
_atom_site_fract_y
_atom_site_fract_z
Zn1	Zn	0.686739	-0.179003	0.254129
Zn2	Zn	0.936739	0.070997	0.504129
Zn3	Zn	1.186739	0.320997	0.754129
Zn4	Zn	1.436739	0.570997	1.004129
Zn5	Zn	0.686679	-0.254115	0.178989
Zn6	Zn	0.936679	-0.004115	0.428989
Zn7	Zn	1.186679	0.245885	0.678989
Zn8	Zn	1.436679	0.495885	0.928989
Zn9	Zn	0.611622	-0.178991	0.178996
Zn10	Zn	0.861622	0.071009	0.428996
Zn11	Zn	1.111622	0.321009	0.678996
Zn12	Zn	1.361622	0.571009	0.928996
Zn13	Zn	0.611578	-0.254097	0.254074
Zn14	Zn	0.861578	-0.004097	0.504074
Zn15	Zn	1.111578	0.245903	0.754074
Zn16	Zn	1.361578	0.495903	1.004074
O17	O	0.649154	-0.216552	0.216547
O18	O	0.899154	0.033448	0.466547
O19	O	1.149154	0.283448	0.716547
O20	O	1.399154	0.533448	0.966547
O21	O	0.749598	-0.188980	0.244182
O22	O	0.999598	0.061020	0.494182
O23	O	1.249598	0.311020	0.744182
O24	O	1.499598	0.561020	0.994182
O25	O	0.676716	-0.244152	0.116123
O26	O	0.926716	0.005848	0.366123
O27	O	1.176716	0.255848	0.616123
O28	O	1.426716	0.505848	0.866123
O29	O	0.621630	-0.116125	0.188988
O30	O	0.871630	0.133875	0.438988
O31	O	1.121630	0.383875	0.688988
O32	O	1.371630	0.633875	0.938988
O33	O	0.749554	-0.244164	0.188977
O34	O	0.999554	0.005836	0.438977
O35	O	1.249554	0.255836	0.688977
O36	O	1.499554	0.505836	0.938977
O37	O	0.676818	-0.116134	0.244188
O38	O	0.926818	0.133866	0.494188
O39	O	1.176818	0.383866	0.744188
O40	O	1.426818	0.633866	0.994188
O41	O	0.621572	-0.188958	0.116128
O42	O	0.871572	0.061042	0.366128
O43	O	1.121572	0.311042	0.616128
O44	O	1.371572	0.561042	0.866128
O45	O	0.548749	-0.188941	0.188935
O46	O	0.798749	0.061059	0.438935
O47	O	1.048749	0.311059	0.688935
O48	O	1.298749	0.561059	0.938935
O49	O	0.621554	-0.244134	0.316949
O50	O	0.871554	0.005866	0.566949
O51	O	1.121554	0.255866	0.816949
O52	O	1.371554	0.505866	1.066949
O53	O	0.548716	-0.244122	0.244095
O54	O	0.798716	0.005878	0.494095
O55	O	1.048716	0.255878	0.744095
O56	O	1.298716	0.505878	0.994095
O57	O	0.676775	-0.188962	0.316989
O58	O	0.926775	0.061038	0.566989
O59	O	1.176775	0.311038	0.816989
O60	O	1.426775	0.561038	1.066989
O61	O	0.676673	-0.316980	0.188924
O62	O	0.926673	-0.066980	0.438924
O63	O	1.176673	0.183020	0.688924
O64	O	1.426673	0.433020	0.938924
O65	O	0.621497	-0.316967	0.244088
O66	O	0.871497	-0.066967	0.494088
O67	O	1.121497	0.183033	0.744088
O68	O	1.371497	0.433033	0.994088
C69	C	0.532432	-0.216528	0.216510
C70	C	0.782432	0.033472	0.466510
C71	C	1.032432	0.283472	0.716510
C72	C	1.282432	0.533472	0.966510
C73	C	0.482497	-0.216529	0.216505
C74	C	0.732497	0.033471	0.466505
C75	C	0.982497	0.283471	0.716505
C76	C	1.232497	0.533471	0.966505
C77	C	0.125915	-0.187777	0.187884
C78	C	0.375915	0.062223	0.437884
C79	C	0.625915	0.312223	0.687884
C80	C	0.875915	0.562223	0.937884
C81	C	0.313588	-0.187764	0.187857
C82	C	0.563588	0.062236	0.437857
C83	C	0.813588	0.312236	0.687857
C84	C	1.063588	0.562236	0.937857
O85	O	0.337856	-0.163279	0.163480
O86	O	0.587856	0.086721	0.413480
O87	O	0.837856	0.336721	0.663480
O88	O	1.087856	0.586721	0.913480
N89	N	0.337052	-0.216536	0.216527
N90	N	0.587052	0.033464	0.466527
N91	N	0.837052	0.283464	0.716527
N92	N	1.087052	0.533464	0.966527
C93	C	0.313596	-0.245312	0.245209
C94	C	0.563596	0.004688	0.495209
C95	C	0.813596	0.254688	0.745209
C96	C	1.063596	0.504688	0.995209
O97	O	0.337860	-0.269781	0.269598
O98	O	0.587860	-0.019781	0.519598
O99	O	0.837860	0.230219	0.769598
O100	O	1.087860	0.480219	1.019598
C101	C	0.125923	-0.245322	0.245238
C102	C	0.375923	0.004678	0.495238
C103	C	0.625923	0.254678	0.745238
C104	C	0.875923	0.504678	0.995238
C105	C	0.102461	-0.216551	0.216562
C106	C	0.352461	0.033449	0.466562
C107	C	0.602461	0.283449	0.716562
C108	C	0.852461	0.533449	0.966562
C109	C	0.102452	-0.159007	0.159211
C110	C	0.352452	0.090993	0.409211
C111	C	0.602452	0.340993	0.659211
C112	C	0.852452	0.590993	0.909211
C113	C	0.055537	-0.159013	0.159216
C114	C	0.305537	0.090987	0.409216
C115	C	0.555537	0.340987	0.659216
C116	C	0.805537	0.590987	0.909216
C117	C	0.032084	-0.187787	0.187895
C118	C	0.282084	0.062213	0.437895
C119	C	0.532084	0.312213	0.687895
C120	C	0.782084	0.562213	0.937895
C121	C	0.055546	-0.216556	0.216568
C122	C	0.305546	0.033444	0.466568
C123	C	0.555546	0.283444	0.716568
C124	C	0.805546	0.533444	0.966568
C125	C	0.102468	-0.274095	0.273922
C126	C	0.352468	-0.024095	0.523922
C127	C	0.602468	0.225905	0.773922
C128	C	0.852468	0.475905	1.023922
C129	C	0.055547	-0.274094	0.273927
C130	C	0.305547	-0.024094	0.523927
C131	C	0.555547	0.225906	0.773927
C132	C	0.805547	0.475906	1.023927
C133	C	0.032085	-0.245323	0.245251
C134	C	0.282085	0.004677	0.495251
C135	C	0.532085	0.254677	0.745251
C136	C	0.782085	0.504677	0.995251
C137	C	-0.014823	-0.245336	0.245251
C138	C	0.235177	0.004664	0.495251
C139	C	0.485177	0.254664	0.745251
C140	C	0.735177	0.504664	0.995251
N141	N	-0.038287	-0.216563	0.216581
N142	N	0.211713	0.033437	0.466581
N143	N	0.461713	0.283437	0.716581
N144	N	0.711713	0.533437	0.966581
C145	C	-0.014834	-0.187789	0.187902
C146	C	0.235166	0.062211	0.437902
C147	C	0.485166	0.312211	0.687902
C148	C	0.735166	0.562211	0.937902
C149	C	0.412126	-0.245305	0.245191
C150	C	0.662126	0.004695	0.495191
C151	C	0.912126	0.254695	0.745191
C152	C	1.162126	0.504695	0.995191
C153	C	0.459044	-0.245303	0.245183
C154	C	0.709044	0.004697	0.495183
C155	C	0.959044	0.254697	0.745183
C156	C	1.209044	0.504697	0.995183
C157	C	0.459033	-0.187755	0.187831
C158	C	0.709033	0.062245	0.437831
C159	C	0.959033	0.312245	0.687831
C160	C	1.209033	0.562245	0.937831
C161	C	0.412114	-0.187759	0.187837
C162	C	0.662114	0.062241	0.437837
C163	C	0.912114	0.312241	0.687837
C164	C	1.162114	0.562241	0.937837
C165	C	0.388662	-0.216533	0.216520
C166	C	0.638662	0.033467	0.466520
C167	C	0.888662	0.283467	0.716520
C168	C	1.138662	0.533467	0.966520
C169	C	-0.113360	-0.187802	0.187916
C170	C	0.136640	0.062198	0.437916
C171	C	0.386640	0.312198	0.687916
C172	C	0.636640	0.562198	0.937916
C173	C	-0.160280	-0.187811	0.187922
C174	C	0.089720	0.062189	0.437922
C175	C	0.339720	0.312189	0.687922
C176	C	0.589720	0.562189	0.937922
C177	C	-0.160264	-0.245358	0.245275
C178	C	0.089736	0.004642	0.495275
C179	C	0.339736	0.254642	0.745275
C180	C	0.589736	0.504642	0.995275
C181	C	-0.113349	-0.245351	0.245267
C182	C	0.136651	0.004649	0.495267
C183	C	0.386651	0.254649	0.745267
C184	C	0.636651	0.504649	0.995267
C185	C	-0.089898	-0.216569	0.216586
C186	C	0.160102	0.033431	0.466586
C187	C	0.410102	0.283431	0.716586
C188	C	0.660102	0.533431	0.966586
O189	O	-0.039120	-0.269804	0.269618
O190	O	0.210880	-0.019804	0.519618
O191	O	0.460880	0.230196	0.769618
O192	O	0.710880	0.480196	1.019618
O193	O	-0.039107	-0.163316	0.163524
O194	O	0.210893	0.086684	0.413524
O195	O	0.460893	0.336684	0.663524
O196	O	0.710893	0.586684	0.913524
C197	C	0.172830	-0.187771	0.187878
C198	C	0.422830	0.062229	0.437878
C199	C	0.672830	0.312229	0.687878
C200	C	0.922830	0.562229	0.937878
C201	C	0.196292	-0.216541	0.216552
C202	C	0.446292	0.033459	0.466552
C203	C	0.696292	0.283459	0.716552
C204	C	0.946292	0.533459	0.966552
C205	C	0.172839	-0.245315	0.245230
C206	C	0.422839	0.004685	0.495230
C207	C	0.672839	0.254685	0.745230
C208	C	0.922839	0.504685	0.995230
C209	C	0.243210	-0.216539	0.216544
C210	C	0.493210	0.033461	0.466544
C211	C	0.743210	0.283461	0.716544
C212	C	0.993210	0.533461	0.966544
C213	C	0.266663	-0.187764	0.187865
C214	C	0.516663	0.062236	0.437865
C215	C	0.766663	0.312236	0.687865
C216	C	1.016663	0.562236	0.937865
C217	C	0.243199	-0.158992	0.159195
C218	C	0.493199	0.091008	0.409195
C219	C	0.743199	0.341008	0.659195
C220	C	0.993199	0.591008	0.909195
C221	C	0.196283	-0.158997	0.159200
C222	C	0.446283	0.091003	0.409200
C223	C	0.696283	0.341003	0.659200
C224	C	0.946283	0.591003	0.909200
C225	C	0.196304	-0.274087	0.273901
C226	C	0.446304	-0.024087	0.523901
C227	C	0.696304	0.225913	0.773901
C228	C	0.946304	0.475913	1.023901
C229	C	0.243219	-0.274080	0.273892
C230	C	0.493219	-0.024080	0.523892
C231	C	0.743219	0.225920	0.773892
C232	C	0.993219	0.475920	1.023892
C233	C	0.266672	-0.245306	0.245214
C234	C	0.516672	0.004694	0.495214
C235	C	0.766672	0.254694	0.745214
C236	C	1.016672	0.504694	0.995214
C237	C	0.649086	-0.333274	0.216509
C238	C	0.899086	-0.083274	0.466509
C239	C	1.149086	0.166726	0.716509
C240	C	1.399086	0.416726	0.966509
C241	C	0.649098	-0.383209	0.216508
C242	C	0.899098	-0.133209	0.466508
C243	C	1.149098	0.116791	0.716508
C244	C	1.399098	0.366791	0.966508
C245	C	0.677885	-0.692822	0.245331
C246	C	0.927885	-0.442822	0.495331
C247	C	1.177885	-0.192822	0.745331
C248	C	1.427885	0.057178	0.995331
C249	C	0.677933	-0.880495	0.245358
C250	C	0.927933	-0.630495	0.495358
C251	C	1.177933	-0.380495	0.745358
C252	C	1.427933	-0.130495	0.995358
O253	O	0.702342	-0.904734	0.269836
O254	O	0.952342	-0.654734	0.519836
O255	O	1.202342	-0.404734	0.769836
O256	O	1.452342	-0.154734	1.019836
N257	N	0.649231	-0.903994	0.216597
N258	N	0.899231	-0.653994	0.466597
N259	N	1.149231	-0.403994	0.716597
N260	N	1.399231	-0.153994	0.966597
C261	C	0.620512	-0.880571	0.187829
C262	C	0.870512	-0.630571	0.437829
C263	C	1.120512	-0.380571	0.687829
C264	C	1.370512	-0.130571	0.937829
O265	O	0.596096	-0.904865	0.163370
O266	O	0.846096	-0.654865	0.413370
O267	O	1.096096	-0.404865	0.663370
O268	O	1.346096	-0.154865	0.913370
C269	C	0.620461	-0.692899	0.187805
C270	C	0.870461	-0.442899	0.437805
C271	C	1.120461	-0.192899	0.687805
C272	C	1.370461	0.057101	0.937805
C273	C	0.649169	-0.669403	0.216564
C274	C	0.899169	-0.419403	0.466564
C275	C	1.149169	-0.169403	0.716564
C276	C	1.399169	0.080597	0.966564
C277	C	0.706590	-0.669326	0.274088
C278	C	0.956590	-0.419326	0.524088
C279	C	1.206590	-0.169326	0.774088
C280	C	1.456590	0.080674	1.024088
C281	C	0.706579	-0.622410	0.274079
C282	C	0.956579	-0.372410	0.524079
C283	C	1.206579	-0.122410	0.774079
C284	C	1.456579	0.127590	1.024079
C285	C	0.677863	-0.598991	0.245313
C286	C	0.927863	-0.348991	0.495313
C287	C	1.177863	-0.098991	0.745313
C288	C	1.427863	0.151009	0.995313
C289	C	0.649158	-0.622487	0.216556
C290	C	0.899158	-0.372487	0.466556
C291	C	1.149158	-0.122487	0.716556
C292	C	1.399158	0.127513	0.966556
C293	C	0.591740	-0.669477	0.159040
C294	C	0.841740	-0.419477	0.409040
C295	C	1.091740	-0.169477	0.659040
C296	C	1.341740	0.080523	0.909040
C297	C	0.591729	-0.622556	0.159037
C298	C	0.841729	-0.372556	0.409037
C299	C	1.091729	-0.122556	0.659037
C300	C	1.341729	0.127444	0.909037
C301	C	0.620437	-0.599060	0.187797
C302	C	0.870437	-0.349060	0.437797
C303	C	1.120437	-0.099060	0.687797
C304	C	1.370437	0.150940	0.937797
C305	C	0.620431	-0.552153	0.187781
C306	C	0.870431	-0.302153	0.437781
C307	C	1.120431	-0.052153	0.687781
C308	C	1.370431	0.197847	0.937781
N309	N	0.649134	-0.528654	0.216541
N310	N	0.899134	-0.278654	0.466541
N311	N	1.149134	-0.028654	0.716541
N312	N	1.399134	0.221346	0.966541
C313	C	0.677850	-0.552073	0.245308
C314	C	0.927850	-0.302073	0.495308
C315	C	1.177850	-0.052073	0.745308
C316	C	1.427850	0.197927	0.995308
C317	C	0.620541	-0.979102	0.187844
C318	C	0.870541	-0.729102	0.437844
C319	C	1.120541	-0.479102	0.687844
C320	C	1.370541	-0.229102	0.937844
C321	C	0.620554	-1.026020	0.187849
C322	C	0.870554	-0.776020	0.437849
C323	C	1.120554	-0.526020	0.687849
C324	C	1.370554	-0.276020	0.937849
C325	C	0.677975	-1.025940	0.245378
C326	C	0.927975	-0.775940	0.495378
C327	C	1.177975	-0.525940	0.745378
C328	C	1.427975	-0.275940	0.995378
C329	C	0.677964	-0.979022	0.245370
C330	C	0.927964	-0.729022	0.495370
C331	C	1.177964	-0.479022	0.745370
C332	C	1.427964	-0.229022	0.995370
C333	C	0.649244	-0.955603	0.216604
C334	C	0.899244	-0.705603	0.466604
C335	C	1.149244	-0.455603	0.716604
C336	C	1.399244	-0.205603	0.966604
C337	C	0.677826	-0.453547	0.245287
C338	C	0.927826	-0.203547	0.495287
C339	C	1.177826	0.046453	0.745287
C340	C	1.427826	0.296453	0.995287
C341	C	0.677814	-0.406628	0.245274
C342	C	0.927814	-0.156628	0.495274
C343	C	1.177814	0.093372	0.745274
C344	C	1.427814	0.343372	0.995274
C345	C	0.620391	-0.406711	0.187747
C346	C	0.870391	-0.156711	0.437747
C347	C	1.120391	0.093289	0.687747
C348	C	1.370391	0.343289	0.937747
C349	C	0.620404	-0.453627	0.187758
C350	C	0.870404	-0.203627	0.437758
C351	C	1.120404	0.046373	0.687758
C352	C	1.370404	0.296373	0.937758
C353	C	0.649123	-0.477044	0.216531
C354	C	0.899123	-0.227044	0.466531
C355	C	1.149123	0.022956	0.716531
C356	C	1.399123	0.272956	0.966531
O357	O	0.596032	-0.527885	0.163319
O358	O	0.846032	-0.277885	0.413319
O359	O	1.096032	-0.027885	0.663319
O360	O	1.346032	0.222115	0.913319
O361	O	0.702255	-0.527772	0.269770
O362	O	0.952255	-0.277772	0.519770
O363	O	1.202255	-0.027772	0.769770
O364	O	1.452255	0.222228	1.019770
C365	C	0.677895	-0.739737	0.245339
C366	C	0.927895	-0.489737	0.495339
C367	C	1.177895	-0.239737	0.745339
C368	C	1.427895	0.010263	0.995339
C369	C	0.649190	-0.763234	0.216582
C370	C	0.899190	-0.513234	0.466582
C371	C	1.149190	-0.263234	0.716582
C372	C	1.399190	-0.013234	0.966582
C373	C	0.620474	-0.739815	0.187816
C374	C	0.870474	-0.489815	0.437816
C375	C	1.120474	-0.239815	0.687816
C376	C	1.370474	0.010185	0.937816
C377	C	0.649203	-0.810152	0.216587
C378	C	0.899203	-0.560152	0.466587
C379	C	1.149203	-0.310152	0.716587
C380	C	1.399203	-0.060152	0.966587
C381	C	0.677919	-0.833571	0.245354
C382	C	0.927919	-0.583571	0.495354
C383	C	1.177919	-0.333571	0.745354
C384	C	1.427919	-0.083571	0.995354
C385	C	0.706622	-0.810072	0.274115
C386	C	0.956622	-0.560072	0.524115
C387	C	1.206622	-0.310072	0.774115
C388	C	1.456622	-0.060072	1.024115
C389	C	0.706611	-0.763157	0.274106
C390	C	0.956611	-0.513157	0.524106
C391	C	1.206611	-0.263157	0.774106
C392	C	1.456611	-0.013157	1.024106
C393	C	0.591772	-0.763313	0.159055
C394	C	0.841772	-0.513313	0.409055
C395	C	1.091772	-0.263313	0.659055
C396	C	1.341772	-0.013313	0.909055
C397	C	0.591785	-0.810229	0.159066
C398	C	0.841785	-0.560229	0.409066
C399	C	1.091785	-0.310229	0.659066
C400	C	1.341785	-0.060229	0.909066
C401	C	0.620501	-0.833648	0.187832
C402	C	0.870501	-0.583648	0.437832
C403	C	1.120501	-0.333648	0.687832
C404	C	1.370501	-0.083648	0.937832
C405	C	0.766333	-0.216575	0.216585
C406	C	1.016333	0.033425	0.466585
C407	C	1.266333	0.283425	0.716585
C408	C	1.516333	0.533425	0.966585
C409	C	0.816267	-0.216586	0.216601
C410	C	1.066267	0.033414	0.466601
C411	C	1.316267	0.283414	0.716601
C412	C	1.566267	0.533414	0.966601
C413	C	0.649167	-0.216548	0.333725
C414	C	0.899167	0.033452	0.583725
C415	C	1.149167	0.283452	0.833725
C416	C	1.399167	0.533452	1.083725
C417	C	0.649172	-0.216546	0.383660
C418	C	0.899172	0.033454	0.633660
C419	C	1.149172	0.283454	0.883660
C420	C	1.399172	0.533454	1.133660
C421	C	0.649235	-0.099373	0.216595
C422	C	0.899235	0.150627	0.466595
C423	C	1.149235	0.400627	0.716595
C424	C	1.399235	0.650627	0.966595
C425	C	0.649270	-0.049439	0.216615
C426	C	0.899270	0.200561	0.466615
C427	C	1.149270	0.450561	0.716615
C428	C	1.399270	0.700561	0.966615
C429	C	0.649168	-0.216523	0.099825
C430	C	0.899168	0.033477	0.349825
C431	C	1.149168	0.283477	0.599825
C432	C	1.399168	0.533477	0.849825
C433	C	0.649250	-0.216398	0.049890
C434	C	0.899250	0.033602	0.299890
C435	C	1.149250	0.283602	0.549890
C436	C	1.399250	0.533602	0.799890
C437	C	0.677955	-0.187743	0.693327
C438	C	0.927955	0.062257	0.943327
C439	C	1.177955	0.312257	1.193327
C440	C	1.427955	0.562257	1.443327
C441	C	0.677978	-0.187705	0.881000
C442	C	0.927978	0.062295	1.131000
C443	C	1.177978	0.312295	1.381000
C444	C	1.427978	0.562295	1.631000
O445	O	0.702417	-0.163258	0.905286
O446	O	0.952417	0.086742	1.155286
O447	O	1.202417	0.336742	1.405286
O448	O	1.452417	0.586742	1.655286
N449	N	0.649231	-0.216426	0.904445
N450	N	0.899231	0.033574	1.154445
N451	N	1.149231	0.283574	1.404445
N452	N	1.399231	0.533574	1.654445
C453	C	0.620475	-0.245156	0.880969
C454	C	0.870475	0.004844	1.130969
C455	C	1.120475	0.254844	1.380969
C456	C	1.370475	0.504844	1.630969
O457	O	0.596022	-0.269581	0.905216
O458	O	0.846022	-0.019581	1.155216
O459	O	1.096022	0.230419	1.405216
O460	O	1.346022	0.480419	1.655216
C461	C	0.620451	-0.245192	0.693296
C462	C	0.870451	0.004808	0.943296
C463	C	1.120451	0.254808	1.193296
C464	C	1.370451	0.504808	1.443296
C465	C	0.649202	-0.216472	0.669854
C466	C	0.899202	0.033528	0.919854
C467	C	1.149202	0.283528	1.169854
C468	C	1.399202	0.533528	1.419854
C469	C	0.706704	-0.159025	0.669885
C470	C	0.956704	0.090975	0.919885
C471	C	1.206704	0.340975	1.169885
C472	C	1.456704	0.590975	1.419885
C473	C	0.706700	-0.159037	0.622970
C474	C	0.956700	0.090963	0.872970
C475	C	1.206700	0.340963	1.122970
C476	C	1.456700	0.590963	1.372970
C477	C	0.677947	-0.187766	0.599496
C478	C	0.927947	0.062234	0.849496
C479	C	1.177947	0.312234	1.099496
C480	C	1.427947	0.562234	1.349496
C481	C	0.649198	-0.216484	0.622939
C482	C	0.899198	0.033516	0.872939
C483	C	1.149198	0.283516	1.122939
C484	C	1.399198	0.533516	1.372939
C485	C	0.591693	-0.273920	0.669821
C486	C	0.841693	-0.023920	0.919821
C487	C	1.091693	0.226080	1.169821
C488	C	1.341693	0.476080	1.419821
C489	C	0.591689	-0.273925	0.622900
C490	C	0.841689	-0.023925	0.872900
C491	C	1.091689	0.226075	1.122900
C492	C	1.341689	0.476075	1.372900
C493	C	0.620440	-0.245206	0.599458
C494	C	0.870440	0.004794	0.849458
C495	C	1.120440	0.254794	1.099458
C496	C	1.370440	0.504794	1.349458
C497	C	0.620441	-0.245225	0.552550
C498	C	0.870441	0.004775	0.802550
C499	C	1.120441	0.254775	1.052550
C500	C	1.370441	0.504775	1.302550
N501	N	0.649188	-0.216504	0.529105
N502	N	0.899188	0.033496	0.779105
N503	N	1.149188	0.283496	1.029105
N504	N	1.399188	0.533496	1.279105
C505	C	0.677941	-0.187774	0.552578
C506	C	0.927941	0.062226	0.802578
C507	C	1.177941	0.312226	1.052578
C508	C	1.427941	0.562226	1.302578
C509	C	0.620491	-0.245136	0.979499
C510	C	0.870491	0.004864	1.229499
C511	C	1.120491	0.254864	1.479499
C512	C	1.370491	0.504864	1.729499
C513	C	0.620497	-0.245128	1.026417
C514	C	0.870497	0.004872	1.276417
C515	C	1.120497	0.254872	1.526417
C516	C	1.370497	0.504872	1.776417
C517	C	0.677999	-0.187675	1.026446
C518	C	0.927999	0.062325	1.276446
C519	C	1.177999	0.312325	1.526446
C520	C	1.427999	0.562325	1.776446
C521	C	0.677994	-0.187686	0.979527
C522	C	0.927994	0.062314	1.229527
C523	C	1.177994	0.312314	1.479527
C524	C	1.427994	0.562314	1.729527
C525	C	0.649237	-0.216415	0.956055
C526	C	0.899237	0.033585	1.206055
C527	C	1.149237	0.283585	1.456055
C528	C	1.399237	0.533585	1.706055
C529	C	0.677930	-0.187801	0.454053
C530	C	0.927930	0.062199	0.704053
C531	C	1.177930	0.312199	0.954053
C532	C	1.427930	0.562199	1.204053
C533	C	0.677925	-0.187817	0.407133
C534	C	0.927925	0.062183	0.657133
C535	C	1.177925	0.312183	0.907133
C536	C	1.427925	0.562183	1.157133
C537	C	0.620421	-0.245267	0.407109
C538	C	0.870421	0.004733	0.657109
C539	C	1.120421	0.254733	0.907109
C540	C	1.370421	0.504733	1.157109
C541	C	0.620428	-0.245253	0.454024
C542	C	0.870428	0.004747	0.704024
C543	C	1.120428	0.254747	0.954024
C544	C	1.370428	0.504747	1.204024
C545	C	0.649184	-0.216517	0.477495
C546	C	0.899184	0.033483	0.727495
C547	C	1.149184	0.283483	0.977495
C548	C	1.399184	0.533483	1.227495
O549	O	0.596011	-0.269655	0.528236
O550	O	0.846011	-0.019655	0.778236
O551	O	1.096011	0.230345	1.028236
O552	O	1.346011	0.480345	1.278236
O553	O	0.702383	-0.163346	0.528323
O554	O	0.952383	0.086654	0.778323
O555	O	1.202383	0.336654	1.028323
O556	O	1.452383	0.586654	1.278323
C557	C	0.677959	-0.187731	0.740243
C558	C	0.927959	0.062269	0.990243
C559	C	1.177959	0.312269	1.240243
C560	C	1.427959	0.562269	1.490243
C561	C	0.649211	-0.216449	0.763685
C562	C	0.899211	0.033551	1.013685
C563	C	1.149211	0.283551	1.263685
C564	C	1.399211	0.533551	1.513685
C565	C	0.620458	-0.245178	0.740212
C566	C	0.870458	0.004822	0.990212
C567	C	1.120458	0.254822	1.240212
C568	C	1.370458	0.504822	1.490212
C569	C	0.649217	-0.216441	0.810603
C570	C	0.899217	0.033559	1.060603
C571	C	1.149217	0.283559	1.310603
C572	C	1.399217	0.533559	1.560603
C573	C	0.677970	-0.187711	0.834076
C574	C	0.927970	0.062289	1.084076
C575	C	1.177970	0.312289	1.334076
C576	C	1.427970	0.562289	1.584076
C577	C	0.706717	-0.158990	0.810631
C578	C	0.956717	0.091010	1.060631
C579	C	1.206717	0.341010	1.310631
C580	C	1.456717	0.591010	1.560631
C581	C	0.706712	-0.159002	0.763716
C582	C	0.956712	0.090998	1.013716
C583	C	1.206712	0.340998	1.263716
C584	C	1.456712	0.590998	1.513716
C585	C	0.591711	-0.273899	0.763657
C586	C	0.841711	-0.023899	1.013657
C587	C	1.091711	0.226101	1.263657
C588	C	1.341711	0.476101	1.513657
C589	C	0.591718	-0.273886	0.810572
C590	C	0.841718	-0.023886	1.060572
C591	C	1.091718	0.226114	1.310572
C592	C	1.341718	0.476114	1.560572
C593	C	0.620471	-0.245156	0.834045
C594	C	0.870471	0.004844	1.084045
C595	C	1.120471	0.254844	1.334045
C596	C	1.370471	0.504844	1.584045
H597	H	-0.179368	-0.268787	0.268623
H598	H	0.070632	-0.018787	0.518623
H599	H	0.320632	0.231213	0.768623
H600	H	0.570632	0.481213	1.018623
H601	H	0.568297	-0.297295	0.744550
H602	H	0.818297	-0.047295	0.994550
H603	H	1.068297	0.202705	1.244550
H604	H	1.318297	0.452705	1.494550
H605	H	0.262303	-0.135564	0.135842
H606	H	0.512303	0.114436	0.385842
H607	H	0.762303	0.364436	0.635842
H608	H	1.012303	0.614436	0.885842
H609	H	0.729974	-0.688389	0.297516
H610	H	0.979974	-0.438389	0.547516
H611	H	1.229974	-0.188389	0.797516
H612	H	1.479974	0.061611	1.047516
H613	H	0.262318	-0.297513	0.297243
H614	H	0.512318	-0.047513	0.547243
H615	H	0.762318	0.202487	0.797243
H616	H	1.012318	0.452487	1.047243
O617	O	0.708928	-0.953679	0.276387
O618	O	0.958928	-0.703679	0.526387
O619	O	1.208928	-0.453679	0.776387
O620	O	1.458928	-0.203679	1.026387
H621	H	0.728897	-0.977851	0.296389
H622	H	0.978897	-0.727851	0.546389
H623	H	1.228897	-0.477851	0.796389
H624	H	1.478897	-0.227851	1.046389
H625	H	0.568306	-0.297277	0.829655
H626	H	0.818306	-0.047277	1.079655
H627	H	1.068306	0.202723	1.329655
H628	H	1.318306	0.452723	1.579655
H629	H	0.729988	-0.744029	0.297525
H630	H	0.979988	-0.494029	0.547525
H631	H	1.229988	-0.244029	0.797525
H632	H	1.479988	0.005971	1.047525
O633	O	0.589564	-0.953845	0.156814
O634	O	0.839564	-0.703845	0.406814
O635	O	1.089564	-0.453845	0.656814
O636	O	1.339564	-0.203845	0.906814
H637	H	0.609682	-0.932465	0.133980
H638	H	0.859682	-0.682465	0.383980
H639	H	1.109682	-0.432465	0.633980
H640	H	1.359682	-0.182465	0.883980
O641	O	0.171010	-0.305185	0.304772
O642	O	0.421010	-0.055185	0.554772
O643	O	0.671010	0.194815	0.804772
O644	O	0.921010	0.444815	1.054772
H645	H	0.195213	-0.325213	0.324681
H646	H	0.445213	-0.075213	0.574681
H647	H	0.695213	0.174787	0.824681
H648	H	0.945213	0.424787	1.074681
O649	O	0.386833	-0.276405	0.276065
O650	O	0.636833	-0.026405	0.526065
O651	O	0.886833	0.223595	0.776065
O652	O	1.136833	0.473595	1.026065
H653	H	0.411036	-0.296435	0.295972
H654	H	0.661036	-0.046435	0.545972
H655	H	0.911036	0.203565	0.795972
H656	H	1.161036	0.453565	1.045972
O657	O	-0.185588	-0.156784	0.156988
O658	O	0.064412	0.093216	0.406988
O659	O	0.314412	0.343216	0.656988
O660	O	0.564412	0.593216	0.906988
H661	H	-0.206950	-0.133961	0.177138
H662	H	0.043050	0.116039	0.427138
H663	H	0.293050	0.366039	0.677138
H664	H	0.543050	0.616039	0.927138
H665	H	0.478143	-0.268737	0.268529
H666	H	0.728143	-0.018737	0.518529
H667	H	0.978143	0.231263	0.768529
H668	H	1.228143	0.481263	1.018529
O669	O	-0.088069	-0.156767	0.156975
O670	O	0.161931	0.093233	0.406975
O671	O	0.411931	0.343233	0.656975
O672	O	0.661931	0.593233	0.906975
H673	H	-0.112272	-0.136770	0.137035
H674	H	0.137728	0.113230	0.387035
H675	H	0.387728	0.363230	0.637035
H676	H	0.637728	0.613230	0.887035
O677	O	0.709002	-0.156708	0.954243
O678	O	0.959002	0.093292	1.204243
O679	O	1.209002	0.343292	1.454243
O680	O	1.459002	0.593292	1.704243
H681	H	0.728993	-0.136730	0.978453
H682	H	0.978993	0.113270	1.228453
H683	H	1.228993	0.363270	1.478453
H684	H	1.478993	0.613270	1.728453
H685	H	0.730005	-0.829148	0.297536
H686	H	0.980005	-0.579148	0.547536
H687	H	1.230005	-0.329148	0.797536
H688	H	1.480005	-0.079148	1.047536
O689	O	0.708783	-0.381284	0.276289
O690	O	0.958783	-0.131284	0.526289
O691	O	1.208783	0.118716	0.776289
O692	O	1.458783	0.368716	1.026289
H693	H	0.728751	-0.405454	0.296294
H694	H	0.978751	-0.155454	0.546294
H695	H	1.228751	0.094546	0.796294
H696	H	1.478751	0.344546	1.046294
H697	H	0.121563	-0.297524	0.297272
H698	H	0.371563	-0.047524	0.547272
H699	H	0.621563	0.202476	0.797272
H700	H	0.871563	0.452476	1.047272
O701	O	0.560755	-0.597297	0.128007
O702	O	0.810755	-0.347297	0.378007
O703	O	1.060755	-0.097297	0.628007
O704	O	1.310755	0.152703	0.878007
H705	H	0.540801	-0.621521	0.108009
H706	H	0.790801	-0.371521	0.358009
H707	H	1.040801	-0.121521	0.608009
H708	H	1.290801	0.128479	0.858009
O709	O	0.589443	-0.478974	0.156739
O710	O	0.839443	-0.228974	0.406739
O711	O	1.089443	0.021026	0.656739
O712	O	1.339443	0.271026	0.906739
H713	H	0.569472	-0.454805	0.136736
H714	H	0.819472	-0.204805	0.386736
H715	H	1.069472	0.045195	0.636736
H716	H	1.319472	0.295195	0.886736
O717	O	0.589418	-0.381448	0.156722
O718	O	0.839418	-0.131448	0.406722
O719	O	1.089418	0.118552	0.656722
O720	O	1.339418	0.368552	0.906722
H721	H	0.594232	-0.344877	0.161554
H722	H	0.844232	-0.094877	0.411554
H723	H	1.094232	0.155123	0.661554
H724	H	1.344232	0.405123	0.911554
H725	H	0.730125	-0.135615	0.744633
H726	H	0.980125	0.114385	0.994633
H727	H	1.230125	0.364385	1.244633
H728	H	1.480125	0.614385	1.494633
O729	O	0.708803	-0.478801	0.276317
O730	O	0.958803	-0.228801	0.526317
O731	O	1.208803	0.021199	0.776317
O732	O	1.458803	0.271199	1.026317
H733	H	0.728762	-0.454575	0.296307
H734	H	0.978762	-0.204575	0.546307
H735	H	1.228762	0.045425	0.796307
H736	H	1.478762	0.295425	1.046307
O737	O	0.560819	-0.835570	0.128045
O738	O	0.810819	-0.585570	0.378045
O739	O	1.060819	-0.335570	0.628045
O740	O	1.310819	-0.085570	0.878045
H741	H	0.540848	-0.811398	0.108046
H742	H	0.790848	-0.561398	0.358046
H743	H	1.040848	-0.311398	0.608046
H744	H	1.290848	-0.061398	0.858046
H745	H	0.036454	-0.297524	0.297286
H746	H	0.286454	-0.047524	0.547286
H747	H	0.536454	0.202476	0.797286
H748	H	0.786454	0.452476	1.047286
O749	O	-0.088038	-0.276382	0.276194
O750	O	0.161962	-0.026382	0.526194
O751	O	0.411962	0.223618	0.776194
O752	O	0.661962	0.473618	1.026194
H753	H	-0.112231	-0.296390	0.296138
H754	H	0.137769	-0.046390	0.546138
H755	H	0.387769	0.203610	0.796138
H756	H	0.637769	0.453610	1.046138
H757	H	0.729954	-0.603282	0.297499
H758	H	0.979954	-0.353282	0.547499
H759	H	1.229954	-0.103282	0.797499
H760	H	1.479954	0.146718	1.047499
O761	O	0.708944	-1.051203	0.276411
O762	O	0.958944	-0.801203	0.526411
O763	O	1.208944	-0.551203	0.776411
O764	O	1.458944	-0.301203	1.026411
H765	H	0.704124	-1.087774	0.271584
H766	H	0.954124	-0.837774	0.521584
H767	H	1.204124	-0.587774	0.771584
H768	H	1.454124	-0.337774	1.021584
O769	O	0.589594	-1.051361	0.156827
O770	O	0.839594	-0.801361	0.406827
O771	O	1.089594	-0.551361	0.656827
O772	O	1.339594	-0.301361	0.906827
H773	H	0.569622	-1.027189	0.136829
H774	H	0.819622	-0.777189	0.386829
H775	H	1.069622	-0.527189	0.636829
H776	H	1.319622	-0.277189	0.886829
O777	O	0.737715	-0.128033	0.695200
O778	O	0.987715	0.121967	0.945200
O779	O	1.237715	0.371967	1.195200
O780	O	1.487715	0.621967	1.445200
H781	H	0.760560	-0.148138	0.716580
H782	H	1.010560	0.101862	0.966580
H783	H	1.260560	0.351862	1.216580
H784	H	1.510560	0.601862	1.466580
H785	H	0.701339	-0.164429	0.388048
H786	H	0.951339	0.085571	0.638048
H787	H	1.201339	0.335571	0.888048
H788	H	1.451339	0.585571	1.138048
H789	H	0.177185	-0.135568	0.135850
H790	H	0.427185	0.114432	0.385850
H791	H	0.677185	0.364432	0.635850
H792	H	0.927185	0.614432	0.885850
O793	O	0.560773	-0.694814	0.128024
O794	O	0.810773	-0.444814	0.378024
O795	O	1.060773	-0.194814	0.628024
O796	O	1.310773	0.055186	0.878024
H797	H	0.540801	-0.670639	0.108028
H798	H	0.790801	-0.420639	0.358028
H799	H	1.040801	-0.170639	0.608028
H800	H	1.290801	0.079361	0.858028
O801	O	0.560805	-0.738056	0.128020
O802	O	0.810805	-0.488056	0.378020
O803	O	1.060805	-0.238056	0.628020
O804	O	1.310805	0.011944	0.878020
H805	H	0.540854	-0.762283	0.108021
H806	H	0.790854	-0.512283	0.358021
H807	H	1.040854	-0.262283	0.608021
H808	H	1.290854	-0.012283	0.858021
O809	O	0.708948	-0.156812	0.479365
O810	O	0.958948	0.093188	0.729365
O811	O	1.208948	0.343188	0.979365
O812	O	1.458948	0.593188	1.229365
H813	H	0.728939	-0.136850	0.455175
H814	H	0.978939	0.113150	0.705175
H815	H	1.228939	0.363150	0.955175
H816	H	1.478939	0.613150	1.205175
O817	O	0.737708	-0.128058	0.597687
O818	O	0.987708	0.121942	0.847687
O819	O	1.237708	0.371942	1.097687
O820	O	1.487708	0.621942	1.347687
H821	H	0.757697	-0.108079	0.621898
H822	H	1.007697	0.141921	0.871898
H823	H	1.257697	0.391921	1.121898
H824	H	1.507697	0.641921	1.371898
H825	H	0.701411	-0.164283	1.045566
H826	H	0.951411	0.085717	1.295566
H827	H	1.201411	0.335717	1.545566
H828	H	1.451411	0.585717	1.795566
O829	O	0.589488	-0.276105	1.051700
O830	O	0.839488	-0.026105	1.301700
O831	O	1.089488	0.223895	1.551700
O832	O	1.339488	0.473895	1.801700
H833	H	0.569491	-0.296077	1.027491
H834	H	0.819491	-0.046077	1.277491
H835	H	1.069491	0.203923	1.527491
H836	H	1.319491	0.453923	1.777491
H837	H	0.597073	-0.268533	0.960392
H838	H	0.847073	-0.018533	1.210392
H839	H	1.097073	0.231467	1.460392
H840	H	1.347073	0.481467	1.710392
H841	H	0.568280	-0.297306	0.688899
H842	H	0.818280	-0.047306	0.938899
H843	H	1.068280	0.202694	1.188899
H844	H	1.318280	0.452694	1.438899
H845	H	0.568265	-0.297315	0.603791
H846	H	0.818265	-0.047315	0.853791
H847	H	1.068265	0.202685	1.103791
H848	H	1.318265	0.452685	1.353791
O849	O	0.589420	-0.276229	0.479313
O850	O	0.839420	-0.026229	0.729313
O851	O	1.089420	0.223771	0.979313
O852	O	1.339420	0.473771	1.229313
H853	H	0.569424	-0.296207	0.455106
H854	H	0.819424	-0.046207	0.705106
H855	H	1.069424	0.203793	0.955106
H856	H	1.319424	0.453793	1.205106
H857	H	0.597013	-0.268659	0.387988
H858	H	0.847013	-0.018659	0.637988
H859	H	1.097013	0.231341	0.887988
H860	H	1.347013	0.481341	1.137988
O861	O	0.737719	-0.127997	0.835959
O862	O	0.987719	0.122003	1.085959
O863	O	1.237719	0.372003	1.335959
O864	O	1.487719	0.622003	1.585959
H865	H	0.760560	-0.148100	0.857346
H866	H	1.010560	0.101900	1.107346
H867	H	1.260560	0.351900	1.357346
H868	H	1.510560	0.601900	1.607346
O869	O	0.030233	-0.127978	0.128291
O870	O	0.280233	0.122022	0.378291
O871	O	0.530233	0.372022	0.628291
O872	O	0.780233	0.622022	0.878291
H873	H	0.039258	-0.092731	0.136069
H874	H	0.289258	0.157269	0.386069
H875	H	0.539258	0.407269	0.636069
H876	H	0.789258	0.657269	0.886069
O877	O	0.127740	-0.127976	0.128267
O878	O	0.377740	0.122024	0.378267
O879	O	0.627740	0.372024	0.628267
O880	O	0.877740	0.622024	0.878267
H881	H	0.118750	-0.092728	0.136032
H882	H	0.368750	0.157272	0.386032
H883	H	0.618750	0.407272	0.636032
H884	H	0.868750	0.657272	0.886032
O885	O	0.386809	-0.156724	0.156913
O886	O	0.636809	0.093276	0.406913
O887	O	0.886809	0.343276	0.656913
O888	O	1.136809	0.593276	0.906913
H889	H	0.411005	-0.136715	0.136974
H890	H	0.661005	0.113285	0.386974
H891	H	0.911005	0.363285	0.636974
H892	H	1.161005	0.613285	0.886974
O893	O	0.484332	-0.156714	0.156902
O894	O	0.734332	0.093286	0.406902
O895	O	0.984332	0.343286	0.656902
O896	O	1.234332	0.593286	0.906902
H897	H	0.520898	-0.161547	0.161720
H898	H	0.770898	0.088453	0.411720
H899	H	1.020898	0.338453	0.661720
H900	H	1.270898	0.588453	0.911720
