data_functionalizedCrystal
_audit_creation_method	'MofGen! by Chris Wilmer'
_symmetry_space_group_name_H-M	'P1'
_symmetry_Int_Tables_number	1
_symmetry_cell_setting	triclinic
loop_
_symmetry_equiv_pos_as_xyz
  x,y,z
_cell_length_a	10.654541
_cell_length_b	14.519709
_cell_length_c	9.730217
_cell_angle_alpha	89.995799
_cell_angle_beta	89.999932
_cell_angle_gamma	84.082037
loop_
_atom_site_label
_atom_site_type_symbol
_atom_site_fract_x
_atom_site_fract_y
_atom_site_fract_z
O1	O	1.666593	0.129520	-0.114251
O2	O	1.300995	0.141863	-0.114263
O3	O	1.493488	0.001504	-0.114245
O4	O	1.474101	0.269880	-0.114270
O5	O	1.493482	0.001502	0.114335
O6	O	1.300990	0.141862	0.114317
O7	O	1.666587	0.129519	0.114329
Zn8	Zn	1.483787	0.135690	0.150615
Zn9	Zn	1.483795	0.135692	-0.150549
O10	O	1.474095	0.269879	0.114310
C11	C	1.254203	0.140957	0.000025
C12	C	1.114786	0.138247	0.000021
C13	C	1.085201	0.306085	-0.000012
C14	C	1.004912	0.388727	-0.000034
C15	C	0.873919	0.386175	-0.000035
C16	C	0.823213	0.300972	-0.000010
C17	C	0.903502	0.218330	0.000012
C18	C	1.034496	0.220891	0.000009
C19	C	0.933086	0.050493	0.000055
C20	C	1.064080	0.053043	0.000046
C21	C	0.882380	-0.034710	0.000080
C22	C	0.962669	-0.117354	0.000092
C23	C	1.093670	-0.114798	0.000091
C24	C	1.144369	-0.029599	0.000068
C25	C	1.492581	-0.032862	0.000046
C26	C	1.489874	-0.135257	0.000046
C27	C	1.479906	-0.510204	0.000010
C28	C	1.482674	-0.405882	0.000021
C29	C	1.484890	-0.322734	0.000030
C30	C	1.487658	-0.218405	0.000037
C31	C	1.713380	0.130425	0.000037
C32	C	1.852797	0.133135	0.000033
C33	C	1.475002	0.304244	0.000017
C34	C	1.477709	0.406639	0.000007
N35	N	1.483791	0.135689	0.356151
N36	N	1.483801	0.135686	-0.356086
C37	C	1.654312	0.011436	0.356159
C38	C	1.739581	-0.050687	0.428102
C39	C	1.739594	-0.050688	0.571982
C40	C	1.654326	0.011440	0.643921
C41	C	1.569057	0.073564	0.571978
C42	C	1.569056	0.073559	0.428095
C43	C	1.398532	0.197810	0.571971
C44	C	1.398523	0.197816	0.428091
C45	C	1.313264	0.259938	0.643910
C46	C	1.227999	0.322067	0.571967
C47	C	1.227991	0.322066	0.428078
C48	C	1.313254	0.259940	0.356147
H49	H	0.716550	0.298901	0.000005
O50	O	1.054231	0.471467	-0.000301
C51	C	1.129147	0.477950	-0.118667
H52	H	1.098065	0.429555	-0.201401
H53	H	1.232397	0.457341	-0.091896
C54	C	1.151667	0.637688	-0.070753
C55	C	1.113484	0.578253	-0.172372
H56	H	1.142012	0.699559	-0.103878
H57	H	1.101199	0.633319	0.008996
H58	H	1.237707	0.620502	-0.048453
H59	H	1.027443	0.595432	-0.194658
H60	H	1.163937	0.582627	-0.252126
O61	O	0.796099	0.466538	-0.000120
C62	C	0.868934	0.542288	-0.000102
H63	H	0.966651	0.519511	-0.043366
H64	H	0.878309	0.568372	0.109553
C65	C	0.683813	0.648542	-0.036628
C66	C	0.803828	0.620568	-0.089777
H67	H	0.643652	0.696831	-0.091939
H68	H	0.634742	0.597508	-0.036635
H69	H	0.691642	0.670272	0.054750
H70	H	0.795997	0.598828	-0.181147
H71	H	0.852897	0.671600	-0.089788
H72	H	0.775717	-0.036782	0.000086
O73	O	1.822265	-0.111033	0.358035
C74	C	1.754948	-0.168417	0.274798
H75	H	1.656729	-0.132401	0.253276
H76	H	1.746349	-0.236668	0.330201
C77	C	1.946341	-0.231788	0.164542
C78	C	1.825710	-0.187550	0.138098
H79	H	1.989992	-0.243595	0.080221
H80	H	1.991695	-0.193131	0.220623
H81	H	1.939158	-0.288659	0.210714
H82	H	1.832895	-0.130675	0.091943
H83	H	1.780358	-0.226198	0.082006
H84	H	1.191861	0.308172	-0.000042
H85	H	1.251028	-0.027510	0.000051
O86	O	1.822536	-0.111072	0.641662
C87	C	1.897764	-0.165929	0.547324
H88	H	1.899269	-0.128111	0.444753
H89	H	1.856839	-0.234718	0.532033
C90	C	2.031343	-0.230462	0.729462
C91	C	2.033200	-0.184011	0.603487
H92	H	2.114885	-0.241620	0.764107
H93	H	1.980658	-0.193507	0.793021
H94	H	1.997233	-0.287782	0.716703
H95	H	2.067295	-0.126688	0.616251
H96	H	2.083894	-0.220957	0.539931
O97	O	1.654339	0.011264	0.783685
C98	C	1.628603	-0.076450	0.831759
H99	H	1.654223	-0.130607	0.748845
H100	H	1.523959	-0.074739	0.857289
C101	C	1.675772	-0.034900	1.063622
C102	C	1.707249	-0.101418	0.961790
H103	H	1.724280	-0.050301	1.143835
H104	H	1.693107	0.024196	1.031236
H105	H	1.588568	-0.033480	1.084881
H106	H	1.794448	-0.102828	0.940521
H107	H	1.689931	-0.160515	0.994176
O108	O	1.313263	0.260109	0.783674
C109	C	1.338993	0.347826	0.831724
H110	H	1.313362	0.401982	0.748799
H111	H	1.443637	0.346121	0.857247
C112	C	1.291842	0.306274	1.063601
C113	C	1.260352	0.372791	0.961755
H114	H	1.243338	0.321674	1.143814
H115	H	1.274512	0.247177	1.031231
H116	H	1.379047	0.304861	1.084854
H117	H	1.173152	0.374196	0.940492
H118	H	1.277665	0.431890	0.994125
H119	H	0.921373	-0.186720	0.000111
H120	H	1.158550	0.372650	0.369509
H121	H	1.313260	0.259936	0.238993
O122	O	1.145053	0.382441	0.641633
C123	C	1.069815	0.437295	0.547287
H124	H	1.068319	0.399481	0.444722
H125	H	1.110726	0.506091	0.531990
C126	C	0.936224	0.501806	0.729417
C127	C	0.934378	0.455359	0.603447
H128	H	0.852681	0.512953	0.764059
H129	H	0.986915	0.464853	0.792981
H130	H	0.970322	0.559130	0.716651
H131	H	0.900295	0.398031	0.616217
H132	H	0.883677	0.492303	0.539886
H133	H	1.159035	-0.182096	0.000114
H134	H	1.654321	0.011438	0.239004
