data_functionalizedCrystal
_audit_creation_method	'MofGen! by Chris Wilmer'
_symmetry_space_group_name_H-M	'P1'
_symmetry_Int_Tables_number	1
_symmetry_cell_setting	triclinic
loop_
_symmetry_equiv_pos_as_xyz
  x,y,z
_cell_length_a	14.395555
_cell_length_b	14.395555
_cell_length_c	20.016444
_cell_angle_alpha	60.000516
_cell_angle_beta	90.001603
_cell_angle_gamma	59.998346
loop_
_atom_site_label
_atom_site_type_symbol
_atom_site_fract_x
_atom_site_fract_y
_atom_site_fract_z
Zr1	Zr	0.894804	1.016876	-0.087688
O2	O	0.746461	1.210680	-0.194363
O3	O	0.940288	0.823073	-0.054987
O4	O	0.940266	1.016885	-0.194367
O5	O	0.746491	1.016860	0.054962
O6	O	1.093133	1.016892	-0.194369
O7	O	0.746483	1.016867	-0.054984
O8	O	1.093173	0.670197	0.054955
O9	O	0.746451	1.363555	-0.194363
O10	O	1.073759	0.902792	-0.041042
O11	O	0.959682	0.902781	0.041011
O12	O	0.959656	1.130970	-0.123091
O13	O	0.845579	1.130960	-0.041038
Zr14	Zr	1.138623	1.016875	0.087657
Zr15	Zr	1.138610	1.016887	-0.087693
Zr16	Zr	0.894817	1.016864	0.087661
Zr17	Zr	0.894789	1.260694	-0.087688
Zr18	Zr	1.138638	0.773057	0.087657
O19	O	1.093139	1.210679	0.054956
O20	O	1.093121	1.210695	-0.194369
O21	O	0.746479	1.210663	0.054962
O22	O	1.286966	0.823072	0.194332
O23	O	1.286948	0.823089	-0.054993
O24	O	0.940306	0.823056	0.194338
O25	O	1.286936	1.016892	-0.054993
O26	O	1.093161	1.016866	0.194335
O27	O	0.940294	1.016859	0.194338
O28	O	1.286944	1.016884	0.054952
O29	O	0.940244	1.363564	-0.194366
O30	O	1.093183	0.670188	0.194335
O31	O	1.286976	0.670197	0.194332
O32	O	1.286966	0.670206	0.054952
O33	O	0.746461	1.363546	-0.054983
O34	O	0.940254	1.363554	-0.054986
O35	O	1.073771	0.902781	0.123059
O36	O	1.187848	0.902792	0.041007
O37	O	1.073745	1.130970	-0.041042
O38	O	0.959668	1.130960	0.041011
C39	C	1.016732	0.711896	-0.000016
C40	C	1.016739	0.608389	-0.000016
C41	C	1.078913	0.485909	-0.044757
C42	C	0.971654	0.624034	-0.077186
C43	C	1.123979	0.471675	0.032376
C44	C	0.909365	0.562187	-0.032489
C45	C	1.061767	0.409754	0.077116
C46	C	0.954444	0.547870	0.044705
C47	C	0.711750	1.016862	-0.000010
C48	C	0.608248	1.016857	-0.000009
C49	C	0.609873	0.892444	0.044726
C50	C	0.516856	0.954635	0.077153
C51	C	0.516837	0.954672	-0.032411
C52	C	0.516594	1.079049	0.032463
C53	C	0.516589	1.079067	-0.077144
C54	C	0.423554	1.141349	-0.044737
C55	C	1.321677	1.016890	-0.000021
C56	C	1.425179	1.016894	-0.000023
C57	C	1.016697	1.016890	-0.219351
C58	C	1.016692	1.016895	-0.293792
C59	C	1.016695	1.321855	-0.000015
C60	C	1.016688	1.425363	-0.000015
C61	C	0.957151	1.135987	-0.507877
C62	C	0.957160	1.135981	-0.577818
C63	C	1.076283	0.897755	-0.492146
C64	C	1.076280	0.897762	-0.422207
C65	C	1.016707	1.016882	-0.430075
C66	C	1.016720	1.016870	-0.569956
C67	C	1.016730	1.016863	-0.645789
C68	C	1.016698	1.016889	-0.354238
C69	C	1.016730	1.016861	0.219320
C70	C	1.016735	1.016856	0.293761
C71	C	1.321696	0.711910	-0.000021
C72	C	1.425204	0.608407	-0.000023
C73	C	1.016749	0.711882	0.219320
C74	C	1.016760	0.608369	0.293760
C75	C	1.321712	0.711895	0.219315
C76	C	1.425226	0.608388	0.293753
C77	C	0.711715	1.321856	-0.219346
C78	C	0.608201	1.425364	-0.293784
C79	C	0.711731	1.321842	-0.000010
C80	C	0.608223	1.425344	-0.000008
C81	C	1.016678	1.321870	-0.219351
C82	C	1.016667	1.425382	-0.293791
C83	C	1.076319	0.559759	0.371554
C84	C	1.076326	0.462512	0.441506
C85	C	1.016780	0.413870	0.433661
C86	C	0.957214	0.462491	0.355859
C87	C	0.957201	0.559743	0.285909
C88	C	1.533394	0.559785	0.285880
C89	C	1.630666	0.462542	0.355816
C90	C	1.619766	0.413897	0.433625
C91	C	1.511586	0.462510	0.441497
C92	C	1.414317	0.559757	0.371561
C93	C	0.500033	1.473978	-0.285911
C94	C	0.402761	1.571251	-0.355847
C95	C	0.413661	1.619901	-0.433656
C96	C	0.521841	1.571283	-0.441528
C97	C	0.619110	1.474018	-0.371593
C98	C	1.076224	1.473993	-0.285921
C99	C	1.076235	1.571241	-0.355859
C100	C	1.016681	1.619883	-0.433666
C101	C	0.957122	1.571262	-0.441536
C102	C	0.957118	1.474010	-0.371598
C103	C	1.548000	0.547852	0.044688
C104	C	1.578871	0.409738	0.077090
C105	C	1.578760	0.562155	-0.032474
C106	C	1.454711	0.471593	0.032424
C107	C	1.454603	0.624085	-0.077183
C108	C	1.485401	0.485980	-0.044800
H109	H	0.818610	0.599592	-0.059963
C110	C	0.891691	0.613195	0.200340
H111	H	0.856242	0.570283	0.205694
H112	H	0.835325	0.705014	0.171264
H113	H	0.943099	0.597238	0.171277
H114	H	1.124784	0.800767	-0.358853
C115	C	0.883292	0.584428	0.095804
H116	H	0.807130	0.617286	0.072670
H117	H	0.914637	0.508677	0.150361
H118	H	0.884196	0.649906	0.095888
H119	H	1.459744	0.458964	-0.082639
H120	H	1.573442	0.574922	0.082581
H121	H	1.124720	1.434403	-0.222572
H122	H	0.908635	1.610882	-0.504896
H123	H	0.515938	0.902051	0.142380
H124	H	1.632419	0.318093	0.142307
C125	C	0.533821	1.624789	-0.527118
H126	H	0.612173	1.581915	-0.521800
H127	H	0.498342	1.608850	-0.556174
H128	H	0.498351	1.716614	-0.556182
H129	H	1.124734	1.610817	-0.349435
C130	C	1.650994	0.612460	-0.069509
H131	H	1.657694	0.612068	-0.116599
H132	H	1.615335	0.699426	-0.084511
H133	H	1.724535	0.556896	-0.030259
H134	H	1.016693	1.699072	-0.490607
C135	C	1.499606	0.408995	0.527087
H136	H	1.421254	0.451870	0.521769
H137	H	1.535089	0.317174	0.556149
H138	H	1.535072	0.424948	0.556145
C139	C	0.306658	1.726872	-0.510578
H140	H	0.240680	1.748838	-0.494738
H141	H	0.306624	1.802768	-0.542230
H142	H	0.306648	1.694982	-0.542214
H143	H	1.124809	0.599352	0.377957
C144	C	0.891723	0.408975	0.347236
H145	H	0.856239	0.451853	0.290887
H146	H	0.943143	0.317155	0.372750
H147	H	0.835369	0.424920	0.372744
H148	H	1.698978	0.334712	0.490564
C149	C	0.891585	1.420564	-0.380266
H150	H	0.856111	1.463479	-0.436624
H151	H	0.942972	1.328745	-0.354767
H152	H	0.835218	1.436526	-0.354769
C153	C	1.141863	0.409036	0.527077
H154	H	1.177338	0.451921	0.521724
H155	H	1.090476	0.424978	0.556151
H156	H	1.198229	0.317211	0.556142
C157	C	1.382686	0.421019	0.069567
H158	H	1.316938	0.487491	0.069401
H159	H	1.360283	0.399132	0.038028
H160	H	1.426406	0.345240	0.124203
C161	C	0.283776	1.624711	-0.347178
H162	H	0.227399	1.689619	-0.399969
H163	H	0.275258	1.554885	-0.318120
H164	H	0.275262	1.662635	-0.318105
C165	C	1.016810	0.306887	0.510610
H166	H	1.060823	0.284900	0.558063
H167	H	0.940943	0.338748	0.510627
H168	H	1.048713	0.230994	0.510622
C169	C	1.545406	0.613281	0.200299
H170	H	1.623765	0.570407	0.205638
H171	H	1.509952	0.597339	0.171231
H172	H	1.509933	0.705107	0.171237
H173	H	0.491136	1.434373	-0.222561
C174	C	1.749651	0.409044	0.347147
H175	H	1.806028	0.344161	0.399938
H176	H	1.758148	0.371105	0.318090
H177	H	1.758186	0.478860	0.318073
C178	C	0.738091	1.420501	-0.380259
H179	H	0.794469	1.355599	-0.327469
H180	H	0.746569	1.382583	-0.409327
H181	H	0.746643	1.490306	-0.409323
H182	H	1.401059	0.715752	-0.142385
C183	C	1.295338	0.613195	0.380232
H184	H	1.302789	0.570280	0.436590
H185	H	1.254896	0.705015	0.354733
H186	H	1.254935	0.597229	0.354738
C187	C	1.113287	0.285950	0.165212
H188	H	1.189543	0.253022	0.188156
H189	H	1.069881	0.307520	0.197223
H190	H	1.112248	0.220906	0.164604
H191	H	1.131426	0.458801	-0.082638
C192	C	0.920172	0.747804	-0.165300
H193	H	0.964452	0.726521	-0.197020
H194	H	0.844399	0.779804	-0.188621
H195	H	0.919929	0.813438	-0.164619
H196	H	1.214692	0.434460	0.059771
H197	H	0.689638	0.787242	0.082608
H198	H	1.124784	0.800773	-0.485750
C199	C	0.517706	1.150017	0.069583
H200	H	0.583942	1.149530	0.069388
H201	H	0.451956	1.238163	0.038047
H202	H	0.517931	1.106116	0.124228
C203	C	0.315964	1.283576	-0.095841
H204	H	0.272384	1.298082	-0.139991
H205	H	0.271812	1.297569	-0.062306
H206	H	0.337327	1.342822	-0.116766
C207	C	0.517910	1.150033	-0.165236
H208	H	0.518910	1.105693	-0.188182
H209	H	0.451844	1.237966	-0.197251
H210	H	0.583818	1.150189	-0.164617
H211	H	0.515928	0.902069	-0.059811
H212	H	0.908643	1.232982	-0.514288
H213	H	0.908665	1.232969	-0.641165
