data_functionalizedCrystal
_audit_creation_method	'MofGen! by Chris Wilmer'
_symmetry_space_group_name_H-M	'P1'
_symmetry_Int_Tables_number	1
_symmetry_cell_setting	triclinic
loop_
_symmetry_equiv_pos_as_xyz
  x,y,z
_cell_length_a	25.639239
_cell_length_b	25.639242
_cell_length_c	25.639233
_cell_angle_alpha	89.977834
_cell_angle_beta	90.018747
_cell_angle_gamma	89.965787
loop_
_atom_site_label
_atom_site_type_symbol
_atom_site_fract_x
_atom_site_fract_y
_atom_site_fract_z
Zn1	Zn	-0.208277	-0.799225	0.295742
Zn2	Zn	0.041723	-0.549225	0.545742
Zn3	Zn	0.291723	-0.299225	0.795742
Zn4	Zn	0.541723	-0.049225	1.045742
Zn5	Zn	-0.295696	-0.799149	0.208307
Zn6	Zn	-0.045696	-0.549149	0.458307
Zn7	Zn	0.204304	-0.299149	0.708307
Zn8	Zn	0.454304	-0.049149	0.958307
Zn9	Zn	-0.208269	-0.711801	0.208306
Zn10	Zn	0.041731	-0.461801	0.458306
Zn11	Zn	0.291731	-0.211801	0.708306
Zn12	Zn	0.541731	0.038199	0.958306
Zn13	Zn	-0.295676	-0.711746	0.295696
Zn14	Zn	-0.045676	-0.461746	0.545696
Zn15	Zn	0.204324	-0.211746	0.795696
Zn16	Zn	0.454324	0.038254	1.045696
O17	O	-0.251979	-0.755480	0.252013
O18	O	-0.001979	-0.505480	0.502013
O19	O	0.248021	-0.255480	0.752013
O20	O	0.498021	-0.005480	1.002013
O21	O	-0.219884	-0.872380	0.284163
O22	O	0.030116	-0.622380	0.534163
O23	O	0.280116	-0.372380	0.784163
O24	O	0.530116	-0.122380	1.034163
O25	O	-0.284103	-0.787553	0.135141
O26	O	-0.034103	-0.537553	0.385141
O27	O	0.215897	-0.287553	0.635141
O28	O	0.465897	-0.037553	0.885141
O29	O	-0.135105	-0.723453	0.219924
O30	O	0.114895	-0.473453	0.469924
O31	O	0.364895	-0.223453	0.719924
O32	O	0.614895	0.026547	0.969924
O33	O	-0.284111	-0.872324	0.219924
O34	O	-0.034111	-0.622324	0.469924
O35	O	0.215889	-0.372324	0.719924
O36	O	0.465889	-0.122324	0.969924
O37	O	-0.135111	-0.787683	0.284163
O38	O	0.114889	-0.537683	0.534163
O39	O	0.364889	-0.287683	0.784163
O40	O	0.614889	-0.037683	1.034163
O41	O	-0.219871	-0.723379	0.135141
O42	O	0.030129	-0.473379	0.385141
O43	O	0.280129	-0.223379	0.635141
O44	O	0.530129	0.026621	0.885141
O45	O	-0.219853	-0.638629	0.219880
O46	O	0.030147	-0.388629	0.469880
O47	O	0.280147	-0.138629	0.719880
O48	O	0.530147	0.111371	0.969880
O49	O	-0.284078	-0.723360	0.368868
O50	O	-0.034078	-0.473360	0.618868
O51	O	0.215922	-0.223360	0.868868
O52	O	0.465922	0.026640	1.118868
O53	O	-0.284070	-0.638589	0.284085
O54	O	-0.034070	-0.388589	0.534085
O55	O	0.215930	-0.138589	0.784085
O56	O	0.465930	0.111411	1.034085
O57	O	-0.219866	-0.787630	0.368901
O58	O	0.030134	-0.537630	0.618901
O59	O	0.280134	-0.287630	0.868901
O60	O	0.530134	-0.037630	1.118901
O61	O	-0.368858	-0.787499	0.219880
O62	O	-0.118858	-0.537499	0.469880
O63	O	0.131142	-0.287499	0.719880
O64	O	0.381142	-0.037499	0.969880
O65	O	-0.368844	-0.723286	0.284085
O66	O	-0.118844	-0.473286	0.534085
O67	O	0.131156	-0.223286	0.784085
O68	O	0.381156	0.026714	1.034085
C69	C	-0.387822	-0.755392	0.251989
C70	C	-0.137822	-0.505392	0.501989
C71	C	0.112178	-0.255392	0.751989
C72	C	0.362178	-0.005392	1.001989
C73	C	-0.445936	-0.755403	0.251996
C74	C	-0.195936	-0.505403	0.501996
C75	C	0.054064	-0.255403	0.751996
C76	C	0.304064	-0.005403	1.001996
C77	C	-0.251959	-0.619638	0.251977
C78	C	-0.001959	-0.369638	0.501977
C79	C	0.248041	-0.119638	0.751977
C80	C	0.498041	0.130362	1.001977
C81	C	-0.251963	-0.561524	0.251975
C82	C	-0.001963	-0.311524	0.501975
C83	C	0.248037	-0.061524	0.751975
C84	C	0.498037	0.188476	1.001975
C85	C	-0.251970	-0.755497	0.388386
C86	C	-0.001970	-0.505497	0.638386
C87	C	0.248030	-0.255497	0.888386
C88	C	0.498030	-0.005497	1.138386
C89	C	-0.251966	-0.755504	0.446500
C90	C	-0.001966	-0.505504	0.696500
C91	C	0.248034	-0.255504	0.946500
C92	C	0.498034	-0.005504	1.196500
C93	C	-0.806294	-0.789004	0.218638
C94	C	-0.556294	-0.539004	0.468638
C95	C	-0.306294	-0.289004	0.718638
C96	C	-0.056294	-0.039004	0.968638
C97	C	-0.860898	-0.789024	0.218645
C98	C	-0.610898	-0.539024	0.468645
C99	C	-0.360898	-0.289024	0.718645
C100	C	-0.110898	-0.039024	0.968645
O101	O	-0.889131	-0.817502	0.190257
O102	O	-0.639131	-0.567502	0.440257
O103	O	-0.389131	-0.317502	0.690257
O104	O	-0.139131	-0.067502	0.940257
N105	N	-0.888218	-0.755572	0.252048
N106	N	-0.638218	-0.505572	0.502048
N107	N	-0.388218	-0.255572	0.752048
N108	N	-0.138218	-0.005572	1.002048
C109	C	-0.860932	-0.722102	0.285449
C110	C	-0.610932	-0.472102	0.535449
C111	C	-0.360932	-0.222102	0.785449
C112	C	-0.110932	0.027898	1.035449
O113	O	-0.889184	-0.693651	0.313861
O114	O	-0.639184	-0.443651	0.563861
O115	O	-0.389184	-0.193651	0.813861
O116	O	-0.139184	0.056349	1.063861
C117	C	-0.806328	-0.722085	0.285444
C118	C	-0.556328	-0.472085	0.535444
C119	C	-0.306328	-0.222085	0.785444
C120	C	-0.056328	0.027915	1.035444
C121	C	-0.779011	-0.755535	0.252036
C122	C	-0.529011	-0.505535	0.502036
C123	C	-0.279011	-0.255535	0.752036
C124	C	-0.029011	-0.005535	1.002036
C125	C	-0.778976	-0.822452	0.185233
C126	C	-0.528976	-0.572452	0.435233
C127	C	-0.278976	-0.322452	0.685233
C128	C	-0.028976	-0.072452	0.935233
C129	C	-0.724376	-0.822431	0.185226
C130	C	-0.474376	-0.572431	0.435226
C131	C	-0.224376	-0.322431	0.685226
C132	C	0.025624	-0.072431	0.935226
C133	C	-0.697093	-0.788962	0.218623
C134	C	-0.447093	-0.538962	0.468623
C135	C	-0.197093	-0.288962	0.718623
C136	C	0.052907	-0.038962	0.968623
C137	C	-0.724410	-0.755514	0.252028
C138	C	-0.474410	-0.505514	0.502028
C139	C	-0.224410	-0.255514	0.752028
C140	C	0.025590	-0.005514	1.002028
C141	C	-0.779042	-0.688617	0.318847
C142	C	-0.529042	-0.438617	0.568847
C143	C	-0.279042	-0.188617	0.818847
C144	C	-0.029042	0.061383	1.068847
C145	C	-0.724435	-0.688603	0.318840
C146	C	-0.474435	-0.438603	0.568840
C147	C	-0.224435	-0.188603	0.818840
C148	C	0.025565	0.061397	1.068840
C149	C	-0.697118	-0.722053	0.285432
C150	C	-0.447118	-0.472053	0.535432
C151	C	-0.197118	-0.222053	0.785432
C152	C	0.052882	0.027947	1.035432
C153	C	-0.642527	-0.722024	0.285418
C154	C	-0.392527	-0.472024	0.535418
C155	C	-0.142527	-0.222024	0.785418
C156	C	0.107473	0.027976	1.035418
N157	N	-0.615206	-0.755475	0.252016
N158	N	-0.365206	-0.505475	0.502016
N159	N	-0.115206	-0.255475	0.752016
N160	N	0.134794	-0.005475	1.002016
C161	C	-0.642490	-0.788944	0.218618
C162	C	-0.392490	-0.538944	0.468618
C163	C	-0.142490	-0.288944	0.718618
C164	C	0.107510	-0.038944	0.968618
C165	C	-0.975602	-0.722141	0.285457
C166	C	-0.725602	-0.472141	0.535457
C167	C	-0.475602	-0.222141	0.785457
C168	C	-0.225602	0.027859	1.035457
C169	C	-1.030204	-0.722155	0.285459
C170	C	-0.780204	-0.472155	0.535459
C171	C	-0.530204	-0.222155	0.785459
C172	C	-0.280204	0.027845	1.035459
C173	C	-1.030167	-0.789078	0.218656
C174	C	-0.780167	-0.539078	0.468656
C175	C	-0.530167	-0.289078	0.718656
C176	C	-0.280167	-0.039078	0.968656
C177	C	-0.975564	-0.789061	0.218652
C178	C	-0.725564	-0.539061	0.468652
C179	C	-0.475564	-0.289061	0.718652
C180	C	-0.225564	-0.039061	0.968652
C181	C	-0.948282	-0.755593	0.252055
C182	C	-0.698282	-0.505593	0.502055
C183	C	-0.448282	-0.255593	0.752055
C184	C	-0.198282	-0.005593	1.002055
C185	C	-0.527824	-0.788897	0.218605
C186	C	-0.277824	-0.538897	0.468605
C187	C	-0.027824	-0.288897	0.718605
C188	C	0.222176	-0.038897	0.968605
C189	C	-0.473219	-0.788872	0.218599
C190	C	-0.223219	-0.538872	0.468599
C191	C	0.026781	-0.288872	0.718599
C192	C	0.276781	-0.038872	0.968599
C193	C	-0.473261	-0.721951	0.285403
C194	C	-0.223261	-0.471951	0.535403
C195	C	0.026739	-0.221951	0.785403
C196	C	0.276739	0.028049	1.035403
C197	C	-0.527862	-0.721974	0.285408
C198	C	-0.277862	-0.471974	0.535408
C199	C	-0.027862	-0.221974	0.785408
C200	C	0.222138	0.028026	1.035408
C201	C	-0.555142	-0.755452	0.252007
C202	C	-0.305142	-0.505452	0.502007
C203	C	-0.055142	-0.255452	0.752007
C204	C	0.194858	-0.005452	1.002007
O205	O	-0.614260	-0.693562	0.313793
O206	O	-0.364260	-0.443562	0.563793
O207	O	-0.114260	-0.193562	0.813793
O208	O	0.135740	0.056438	1.063793
O209	O	-0.614231	-0.817396	0.190216
O210	O	-0.364231	-0.567396	0.440216
O211	O	-0.114231	-0.317396	0.690216
O212	O	0.135769	-0.067396	0.940216
C213	C	-0.115606	-0.755583	0.252048
C214	C	0.134394	-0.505583	0.502048
C215	C	0.384394	-0.255583	0.752048
C216	C	0.634394	-0.005583	1.002048
C217	C	-0.057492	-0.755627	0.252064
C218	C	0.192508	-0.505627	0.502064
C219	C	0.442508	-0.255627	0.752064
C220	C	0.692508	-0.005627	1.002064
C221	C	-0.252000	-0.891853	0.252049
C222	C	-0.002000	-0.641853	0.502049
C223	C	0.248000	-0.391853	0.752049
C224	C	0.498000	-0.141853	1.002049
C225	C	-0.252009	-0.949967	0.252064
C226	C	-0.002009	-0.699967	0.502064
C227	C	0.247991	-0.449967	0.752064
C228	C	0.497991	-0.199967	1.002064
C229	C	-0.285473	-0.201149	0.285413
C230	C	-0.035473	0.048851	0.535413
C231	C	0.214527	0.298851	0.785413
C232	C	0.464527	0.548851	1.035413
C233	C	-0.285477	-0.146544	0.285421
C234	C	-0.035477	0.103456	0.535421
C235	C	0.214523	0.353456	0.785421
C236	C	0.464523	0.603456	1.035421
O237	O	-0.313943	-0.118297	0.313821
O238	O	-0.063943	0.131703	0.563821
O239	O	0.186057	0.381703	0.813821
O240	O	0.436057	0.631703	1.063821
N241	N	-0.251994	-0.119241	0.252047
N242	N	-0.001994	0.130759	0.502047
N243	N	0.248006	0.380759	0.752047
N244	N	0.498006	0.630759	1.002047
C245	C	-0.218502	-0.146545	0.218666
C246	C	0.031498	0.103455	0.468666
C247	C	0.281498	0.353455	0.718666
C248	C	0.531498	0.603455	0.968666
O249	O	-0.190022	-0.118308	0.190280
O250	O	0.059978	0.131692	0.440280
O251	O	0.309978	0.381692	0.690280
O252	O	0.559978	0.631692	0.940280
C253	C	-0.218496	-0.201149	0.218661
C254	C	0.031504	0.048851	0.468661
C255	C	0.281504	0.298851	0.718661
C256	C	0.531504	0.548851	0.968661
C257	C	-0.251985	-0.228449	0.252034
C258	C	-0.001985	0.021551	0.502034
C259	C	0.248015	0.271551	0.752034
C260	C	0.498015	0.521551	1.002034
C261	C	-0.318959	-0.228449	0.318783
C262	C	-0.068959	0.021551	0.568783
C263	C	0.181041	0.271551	0.818783
C264	C	0.431041	0.521551	1.068783
C265	C	-0.318956	-0.283049	0.318774
C266	C	-0.068956	-0.033049	0.568774
C267	C	0.181044	0.216951	0.818774
C268	C	0.431044	0.466951	1.068774
C269	C	-0.285468	-0.310350	0.285395
C270	C	-0.035468	-0.060350	0.535395
C271	C	0.214532	0.189650	0.785395
C272	C	0.464532	0.439650	1.035395
C273	C	-0.251983	-0.283049	0.252024
C274	C	-0.001983	-0.033049	0.502024
C275	C	0.248017	0.216951	0.752024
C276	C	0.498017	0.466951	1.002024
C277	C	-0.185002	-0.228452	0.185283
C278	C	0.064998	0.021548	0.435283
C279	C	0.314998	0.271548	0.685283
C280	C	0.564998	0.521548	0.935283
C281	C	-0.185000	-0.283059	0.185281
C282	C	0.065000	-0.033059	0.435281
C283	C	0.315000	0.216941	0.685281
C284	C	0.565000	0.466941	0.935281
C285	C	-0.218488	-0.310359	0.218654
C286	C	0.031512	-0.060359	0.468654
C287	C	0.281512	0.189641	0.718654
C288	C	0.531512	0.439641	0.968654
C289	C	-0.218492	-0.364950	0.218636
C290	C	0.031508	-0.114950	0.468636
C291	C	0.281508	0.135050	0.718636
C292	C	0.531508	0.385050	0.968636
N293	N	-0.251974	-0.392253	0.252010
N294	N	-0.001974	-0.142253	0.502010
N295	N	0.248026	0.107747	0.752010
N296	N	0.498026	0.357747	1.002010
C297	C	-0.285463	-0.364953	0.285389
C298	C	-0.035463	-0.114953	0.535389
C299	C	0.214537	0.135047	0.785389
C300	C	0.464537	0.385047	1.035389
C301	C	-0.218515	-0.031875	0.218680
C302	C	0.031485	0.218125	0.468680
C303	C	0.281485	0.468125	0.718680
C304	C	0.531485	0.718125	0.968680
C305	C	-0.218523	0.022728	0.218683
C306	C	0.031477	0.272728	0.468683
C307	C	0.281477	0.522728	0.718683
C308	C	0.531477	0.772728	0.968683
C309	C	-0.285497	0.022725	0.285438
C310	C	-0.035497	0.272725	0.535438
C311	C	0.214503	0.522725	0.785438
C312	C	0.464503	0.772725	1.035438
C313	C	-0.285492	-0.031878	0.285433
C314	C	-0.035492	0.218122	0.535433
C315	C	0.214508	0.468122	0.785433
C316	C	0.464508	0.718122	1.035433
C317	C	-0.251998	-0.059178	0.252054
C318	C	-0.001998	0.190822	0.502054
C319	C	0.248002	0.440822	0.752054
C320	C	0.498002	0.690822	1.002054
C321	C	-0.285455	-0.479618	0.285368
C322	C	-0.035455	-0.229618	0.535368
C323	C	0.214545	0.020382	0.785368
C324	C	0.464545	0.270382	1.035368
C325	C	-0.285451	-0.534223	0.285354
C326	C	-0.035451	-0.284223	0.535354
C327	C	0.214549	-0.034223	0.785354
C328	C	0.464549	0.215777	1.035354
C329	C	-0.218475	-0.534216	0.218601
C330	C	0.031525	-0.284216	0.468601
C331	C	0.281525	-0.034216	0.718601
C332	C	0.531525	0.215784	0.968601
C333	C	-0.218481	-0.479615	0.218612
C334	C	0.031519	-0.229615	0.468612
C335	C	0.281519	0.020385	0.718612
C336	C	0.531519	0.270385	0.968612
C337	C	-0.251972	-0.452318	0.252000
C338	C	-0.001972	-0.202318	0.502000
C339	C	0.248028	0.047682	0.752000
C340	C	0.498028	0.297682	1.002000
O341	O	-0.190038	-0.393232	0.190252
O342	O	0.059962	-0.143232	0.440252
O343	O	0.309962	0.106768	0.690252
O344	O	0.559962	0.356768	0.940252
O345	O	-0.313933	-0.393197	0.313776
O346	O	-0.063933	-0.143197	0.563776
O347	O	0.186067	0.106803	0.813776
O348	O	0.436067	0.356803	1.063776
C349	C	-0.251951	-0.755494	0.116170
C350	C	-0.001951	-0.505494	0.366170
C351	C	0.248049	-0.255494	0.616170
C352	C	0.498049	-0.005494	0.866170
C353	C	-0.251807	-0.755588	0.058057
C354	C	-0.001807	-0.505588	0.308057
C355	C	0.248193	-0.255588	0.558057
C356	C	0.498193	-0.005588	0.808057
C357	C	-0.218432	-0.789012	0.806886
C358	C	0.031568	-0.539012	1.056886
C359	C	0.281568	-0.289012	1.306886
C360	C	0.531568	-0.039012	1.556886
C361	C	-0.218417	-0.789019	0.861491
C362	C	0.031583	-0.539019	1.111491
C363	C	0.281583	-0.289019	1.361491
C364	C	0.531583	-0.039019	1.611491
O365	O	-0.189967	-0.817466	0.889747
O366	O	0.060033	-0.567466	1.139747
O367	O	0.310033	-0.317466	1.389747
O368	O	0.560033	-0.067466	1.639747
N369	N	-0.251844	-0.755562	0.888783
N370	N	-0.001844	-0.505562	1.138783
N371	N	0.248156	-0.255562	1.388783
N372	N	0.498156	-0.005562	1.638783
C373	C	-0.285283	-0.722093	0.861468
C374	C	-0.035283	-0.472093	1.111468
C375	C	0.214717	-0.222093	1.361468
C376	C	0.464717	0.027907	1.611468
O377	O	-0.313713	-0.693636	0.889695
O378	O	-0.063713	-0.443636	1.139695
O379	O	0.186287	-0.193636	1.389695
O380	O	0.436287	0.056364	1.639695
C381	C	-0.285294	-0.722084	0.806864
C382	C	-0.035294	-0.472084	1.056864
C383	C	0.214706	-0.222084	1.306864
C384	C	0.464706	0.027916	1.556864
C385	C	-0.251870	-0.755547	0.779575
C386	C	-0.001870	-0.505547	1.029575
C387	C	0.248130	-0.255547	1.279575
C388	C	0.498130	-0.005547	1.529575
C389	C	-0.185009	-0.822472	0.779597
C390	C	0.064991	-0.572472	1.029597
C391	C	0.314991	-0.322472	1.279597
C392	C	0.564991	-0.072472	1.529597
C393	C	-0.185025	-0.822466	0.724997
C394	C	0.064975	-0.572466	0.974997
C395	C	0.314975	-0.322466	1.224997
C396	C	0.564975	-0.072466	1.474997
C397	C	-0.218462	-0.789000	0.697685
C398	C	0.031538	-0.539000	0.947685
C399	C	0.281538	-0.289000	1.197685
C400	C	0.531538	-0.039000	1.447685
C401	C	-0.251885	-0.755541	0.724974
C402	C	-0.001885	-0.505541	0.974974
C403	C	0.248115	-0.255541	1.224974
C404	C	0.498115	-0.005541	1.474974
C405	C	-0.318731	-0.688613	0.779550
C406	C	-0.068731	-0.438613	1.029550
C407	C	0.181269	-0.188613	1.279550
C408	C	0.431269	0.061387	1.529550
C409	C	-0.318739	-0.688607	0.724943
C410	C	-0.068739	-0.438607	0.974943
C411	C	0.181261	-0.188607	1.224943
C412	C	0.431261	0.061393	1.474943
C413	C	-0.285314	-0.722069	0.697654
C414	C	-0.035314	-0.472069	0.947654
C415	C	0.214686	-0.222069	1.197654
C416	C	0.464686	0.027931	1.447654
C417	C	-0.285338	-0.722070	0.643063
C418	C	-0.035338	-0.472070	0.893063
C419	C	0.214662	-0.222070	1.143063
C420	C	0.464662	0.027930	1.393063
N421	N	-0.251912	-0.755526	0.615771
N422	N	-0.001912	-0.505526	0.865771
N423	N	0.248088	-0.255526	1.115771
N424	N	0.498088	-0.005526	1.365771
C425	C	-0.218474	-0.788992	0.643082
C426	C	0.031526	-0.538992	0.893082
C427	C	0.281526	-0.288992	1.143082
C428	C	0.531526	-0.038992	1.393082
C429	C	-0.285256	-0.722113	0.976138
C430	C	-0.035256	-0.472113	1.226138
C431	C	0.214744	-0.222113	1.476138
C432	C	0.464744	0.027887	1.726138
C433	C	-0.285247	-0.722124	1.030741
C434	C	-0.035247	-0.472124	1.280741
C435	C	0.214753	-0.222124	1.530741
C436	C	0.464753	0.027876	1.780741
C437	C	-0.218381	-0.789049	1.030760
C438	C	0.031619	-0.539049	1.280760
C439	C	0.281619	-0.289049	1.530760
C440	C	0.531619	-0.039049	1.780760
C441	C	-0.218392	-0.789041	0.976157
C442	C	0.031608	-0.539041	1.226157
C443	C	0.281608	-0.289041	1.476157
C444	C	0.531608	-0.039041	1.726157
C445	C	-0.251829	-0.755570	0.948846
C446	C	-0.001829	-0.505570	1.198846
C447	C	0.248171	-0.255570	1.448846
C448	C	0.498171	-0.005570	1.698846
C449	C	-0.218509	-0.788977	0.528417
C450	C	0.031491	-0.538977	0.778417
C451	C	0.281491	-0.288977	1.028417
C452	C	0.531491	-0.038977	1.278417
C453	C	-0.218529	-0.788970	0.473811
C454	C	0.031471	-0.538970	0.723811
C455	C	0.281471	-0.288970	0.973811
C456	C	0.531471	-0.038970	1.223811
C457	C	-0.285393	-0.722043	0.473797
C458	C	-0.035393	-0.472043	0.723797
C459	C	0.214607	-0.222043	0.973797
C460	C	0.464607	0.027957	1.223797
C461	C	-0.285375	-0.722052	0.528397
C462	C	-0.035375	-0.472052	0.778397
C463	C	0.214625	-0.222052	1.028397
C464	C	0.464625	0.027948	1.278397
C465	C	-0.251929	-0.755521	0.555706
C466	C	-0.001929	-0.505521	0.805706
C467	C	0.248071	-0.255521	1.055706
C468	C	0.498071	-0.005521	1.305706
O469	O	-0.313773	-0.693635	0.614771
O470	O	-0.063773	-0.443635	0.864771
O471	O	0.186227	-0.193635	1.114771
O472	O	0.436227	0.056365	1.364771
O473	O	-0.190044	-0.817439	0.614847
O474	O	0.059956	-0.567439	0.864847
O475	O	0.309956	-0.317439	1.114847
O476	O	0.559956	-0.067439	1.364847
H477	H	-0.550030	-0.816159	0.191408
H478	H	-0.300030	-0.566159	0.441408
H479	H	-0.050030	-0.316159	0.691408
H480	H	0.199970	-0.066159	0.941408
O481	O	-0.148879	-0.199018	0.149288
O482	O	0.101121	0.050982	0.399288
O483	O	0.351121	0.300982	0.649288
O484	O	0.601121	0.550982	0.899288
H485	H	-0.154503	-0.156461	0.154891
H486	H	0.095497	0.093539	0.404891
H487	H	0.345497	0.343539	0.654891
H488	H	0.595497	0.593539	0.904891
O489	O	-0.148943	-0.858568	0.809054
O490	O	0.101057	-0.608568	1.059054
O491	O	0.351057	-0.358568	1.309054
O492	O	0.601057	-0.108568	1.559054
H493	H	-0.157925	-0.899593	0.798581
H494	H	0.092075	-0.649593	1.048581
H495	H	0.342075	-0.399593	1.298581
H496	H	0.592075	-0.149593	1.548581
H497	H	-0.191211	-0.556454	0.191422
H498	H	0.058789	-0.306454	0.441422
H499	H	0.308789	-0.056454	0.691422
H500	H	0.558789	0.193546	0.941422
H501	H	-0.702137	-0.849670	0.158024
H502	H	-0.452137	-0.599670	0.408024
H503	H	-0.202137	-0.349670	0.658024
H504	H	0.047863	-0.099670	0.908024
H505	H	-0.550105	-0.694738	0.312613
H506	H	-0.300105	-0.444738	0.562613
H507	H	-0.050105	-0.194738	0.812613
H508	H	0.199895	0.055262	1.062613
O509	O	-0.321598	-0.450202	0.321375
O510	O	-0.071598	-0.200202	0.571375
O511	O	0.178402	0.049798	0.821375
O512	O	0.428402	0.299798	1.071375
H513	H	-0.298263	-0.425351	0.348043
H514	H	-0.048263	-0.175351	0.598043
H515	H	0.201737	0.074649	0.848043
H516	H	0.451737	0.324649	1.098043
H517	H	-0.191174	-0.816288	0.953941
H518	H	0.058826	-0.566288	1.203941
H519	H	0.308826	-0.316288	1.453941
H520	H	0.558826	-0.066288	1.703941
H521	H	-0.191153	-0.816298	1.053007
H522	H	0.058847	-0.566298	1.303007
H523	H	0.308847	-0.316298	1.553007
H524	H	0.558847	-0.066298	1.803007
O525	O	-0.808399	-0.858550	0.149205
O526	O	-0.558399	-0.608550	0.399205
O527	O	-0.308399	-0.358550	0.649205
O528	O	-0.058399	-0.108550	0.899205
H529	H	-0.780222	-0.881798	0.125977
H530	H	-0.530222	-0.631798	0.375977
H531	H	-0.280222	-0.381798	0.625977
H532	H	-0.030222	-0.131798	0.875977
H533	H	-0.312471	-0.694881	1.052955
H534	H	-0.062471	-0.444881	1.302955
H535	H	0.187529	-0.194881	1.552955
H536	H	0.437529	0.055119	1.802955
O537	O	-0.321565	-0.563669	0.321358
O538	O	-0.071565	-0.313669	0.571358
O539	O	0.178435	-0.063669	0.821358
O540	O	0.428435	0.186331	1.071358
H541	H	-0.348135	-0.588518	0.297911
H542	H	-0.098135	-0.338518	0.547911
H543	H	0.151865	-0.088518	0.797911
H544	H	0.401865	0.161482	1.047911
O545	O	-0.355112	-0.199042	0.354785
O546	O	-0.105112	0.050958	0.604785
O547	O	0.144888	0.300958	0.854785
O548	O	0.394888	0.550958	1.104785
H549	H	-0.331793	-0.174185	0.381461
H550	H	-0.081793	0.075815	0.631461
H551	H	0.168207	0.325815	0.881461
H552	H	0.418207	0.575815	1.131461
H553	H	-0.157721	-0.305283	0.158103
H554	H	0.092279	-0.055283	0.408103
H555	H	0.342279	0.194717	0.658103
H556	H	0.592279	0.444717	0.908103
O557	O	-0.355068	-0.312492	0.354776
O558	O	-0.105068	-0.062492	0.604776
O559	O	0.144932	0.187508	0.854776
O560	O	0.394932	0.437508	1.104776
H561	H	-0.378347	-0.284328	0.377990
H562	H	-0.128347	-0.034328	0.627990
H563	H	0.121653	0.215672	0.877990
H564	H	0.371653	0.465672	1.127990
O565	O	-0.946101	-0.825144	0.182625
O566	O	-0.696101	-0.575144	0.432625
O567	O	-0.446101	-0.325144	0.682625
O568	O	-0.196101	-0.075144	0.932625
H569	H	-0.974251	-0.848421	0.159407
H570	H	-0.724251	-0.598421	0.409407
H571	H	-0.474251	-0.348421	0.659407
H572	H	-0.224251	-0.098421	0.909407
O573	O	-0.321605	-0.061323	0.321432
O574	O	-0.071605	0.188677	0.571432
O575	O	0.178395	0.438677	0.821432
O576	O	0.428395	0.688677	1.071432
H577	H	-0.344888	-0.033161	0.344644
H578	H	-0.094888	0.216839	0.594644
H579	H	0.155112	0.466839	0.844644
H580	H	0.405112	0.716839	1.094644
H581	H	-0.345963	-0.661345	0.702710
H582	H	-0.095963	-0.411345	0.952710
H583	H	0.154037	-0.161345	1.202710
H584	H	0.404037	0.088655	1.452710
O585	O	-0.321674	0.052144	0.321411
O586	O	-0.071674	0.302144	0.571411
O587	O	0.178326	0.552144	0.821411
O588	O	0.428326	0.802144	1.071411
H589	H	-0.312813	0.041644	0.362472
H590	H	-0.062813	0.291644	0.612472
H591	H	0.187187	0.541644	0.862472
H592	H	0.437187	0.791644	1.112472
H593	H	-0.191213	-0.457387	0.191436
H594	H	0.058787	-0.207387	0.441436
H595	H	0.308787	0.042613	0.691436
H596	H	0.558787	0.292613	0.941436
O597	O	-1.059598	-0.825189	0.182642
O598	O	-0.809598	-0.575189	0.432642
O599	O	-0.559598	-0.325189	0.682642
O600	O	-0.309598	-0.075189	0.932642
H601	H	-1.102156	-0.819585	0.188267
H602	H	-0.852156	-0.569585	0.438267
H603	H	-0.602156	-0.319585	0.688267
H604	H	-0.352156	-0.069585	0.938267
H605	H	-0.312597	-0.694809	0.550617
H606	H	-0.062597	-0.444809	0.800617
H607	H	0.187403	-0.194809	1.050617
H608	H	0.437403	0.055191	1.300617
O609	O	-1.059667	-0.686074	0.321488
O610	O	-0.809667	-0.436074	0.571488
O611	O	-0.559667	-0.186074	0.821488
O612	O	-0.309667	0.063926	1.071488
H613	H	-1.031516	-0.662802	0.344711
H614	H	-0.781516	-0.412802	0.594711
H615	H	-0.531516	-0.162802	0.844711
H616	H	-0.281516	0.087198	1.094711
H617	H	-0.312619	-0.694798	0.451550
H618	H	-0.062619	-0.444798	0.701550
H619	H	0.187381	-0.194798	0.951550
H620	H	0.437381	0.055202	1.201550
O621	O	-0.321315	-0.686003	0.946682
O622	O	-0.071315	-0.436003	1.196682
O623	O	0.178685	-0.186003	1.446682
O624	O	0.428685	0.063997	1.696682
H625	H	-0.344552	-0.662741	0.974838
H626	H	-0.094552	-0.412741	1.224838
H627	H	0.155448	-0.162741	1.474838
H628	H	0.405448	0.087259	1.724838
O629	O	-0.443830	-0.685855	0.321427
O630	O	-0.193830	-0.435855	0.571427
O631	O	0.056170	-0.185855	0.821427
O632	O	0.306170	0.064145	1.071427
H633	H	-0.401272	-0.691468	0.315811
H634	H	-0.151272	-0.441468	0.565811
H635	H	0.098728	-0.191468	0.815811
H636	H	0.348728	0.058532	1.065811
H637	H	-0.191272	-0.816229	0.550645
H638	H	0.058728	-0.566229	0.800645
H639	H	0.308728	-0.316229	1.050645
H640	H	0.558728	-0.066229	1.300645
H641	H	-0.191258	0.044951	0.191502
H642	H	0.058742	0.294951	0.441502
H643	H	0.308742	0.544951	0.691502
H644	H	0.558742	0.794951	0.941502
H645	H	-0.191241	-0.054099	0.191496
H646	H	0.058759	0.195901	0.441496
H647	H	0.308759	0.445901	0.691496
H648	H	0.558759	0.695901	0.941496
O649	O	-0.182476	-0.825062	0.444377
O650	O	0.067524	-0.575062	0.694377
O651	O	0.317524	-0.325062	0.944377
O652	O	0.567524	-0.075062	1.194377
H653	H	-0.159219	-0.848329	0.472545
H654	H	0.090781	-0.598329	0.722545
H655	H	0.340781	-0.348329	0.972545
H656	H	0.590781	-0.098329	1.222545
O657	O	-0.946177	-0.686028	0.321473
O658	O	-0.696177	-0.436028	0.571473
O659	O	-0.446177	-0.186028	0.821473
O660	O	-0.196177	0.063972	1.071473
H661	H	-0.974352	-0.662767	0.344692
H662	H	-0.724352	-0.412767	0.594692
H663	H	-0.474352	-0.162767	0.844692
H664	H	-0.224352	0.087233	1.094692
H665	H	-0.157806	-0.849714	0.702783
H666	H	0.092194	-0.599714	0.952783
H667	H	0.342194	-0.349714	1.202783
H668	H	0.592194	-0.099714	1.452783
O669	O	-0.354775	-0.652514	0.808976
O670	O	-0.104775	-0.402514	1.058976
O671	O	0.145225	-0.152514	1.308976
O672	O	0.395225	0.097486	1.558976
H673	H	-0.378018	-0.629239	0.780803
H674	H	-0.128018	-0.379239	1.030803
H675	H	0.121982	-0.129239	1.280803
H676	H	0.371982	0.120761	1.530803
H677	H	-0.450979	-0.816111	0.191392
H678	H	-0.200979	-0.566111	0.441392
H679	H	0.049021	-0.316111	0.691392
H680	H	0.299021	-0.066111	0.941392
H681	H	-0.702225	-0.661350	0.346042
H682	H	-0.452225	-0.411350	0.596042
H683	H	-0.202225	-0.161350	0.846042
H684	H	0.047775	0.088650	1.096042
O685	O	-0.808499	-0.652542	0.354884
O686	O	-0.558499	-0.402542	0.604884
O687	O	-0.308499	-0.152542	0.854884
O688	O	-0.058499	0.097458	1.104884
H689	H	-0.780345	-0.629275	0.378108
H690	H	-0.530345	-0.379275	0.628108
H691	H	-0.280345	-0.129275	0.878108
H692	H	-0.030345	0.120725	1.128108
