data_functionalizedCrystal
_audit_creation_method	'MofGen! by Chris Wilmer'
_symmetry_space_group_name_H-M	'P1'
_symmetry_Int_Tables_number	1
_symmetry_cell_setting	triclinic
loop_
_symmetry_equiv_pos_as_xyz
  x,y,z
_cell_length_a	14.519709
_cell_length_b	9.198806
_cell_length_c	10.723024
_cell_angle_alpha	89.997988
_cell_angle_beta	84.074007
_cell_angle_gamma	90.001670
loop_
_atom_site_label
_atom_site_type_symbol
_atom_site_fract_x
_atom_site_fract_y
_atom_site_fract_z
O1	O	1.224702	-0.120699	0.163572
O2	O	1.724702	0.379301	0.663572
O3	O	0.956324	-0.120743	0.182835
O4	O	1.456324	0.379257	0.682835
O5	O	1.096704	-0.120715	-0.008431
O6	O	1.596704	0.379285	0.491569
O7	O	1.084323	-0.120728	0.354837
O8	O	1.584323	0.379272	0.854837
O9	O	1.096693	0.121070	-0.008431
O10	O	1.596693	0.621070	0.491569
O11	O	0.956313	0.121042	0.182834
O12	O	1.456313	0.621042	0.682834
O13	O	1.224691	0.121086	0.163571
O14	O	1.724691	0.621086	0.663571
Cu15	Cu	1.090501	0.143141	0.173203
Cu16	Cu	1.590501	0.643141	0.673203
Cu17	Cu	1.090514	-0.142798	0.173203
Cu18	Cu	1.590514	0.357202	0.673203
O19	O	1.084311	0.121057	0.354837
O20	O	1.584311	0.621057	0.854837
C21	C	0.921954	0.000144	0.181937
C22	C	1.421954	0.500144	0.681937
C23	C	0.819559	0.000127	0.179246
C24	C	1.319559	0.500127	0.679246
N25	N	1.090498	0.344255	0.173201
N26	N	1.590498	0.844255	0.673201
N27	N	1.090524	-0.343912	0.173194
N28	N	1.590524	0.156088	0.673194
C29	C	0.444613	0.000193	0.169343
C30	C	0.944613	0.500193	0.669343
C31	C	0.548935	0.000174	0.172093
C32	C	1.048935	0.500174	0.672093
C33	C	0.632082	0.000159	0.174294
C34	C	1.132082	0.500159	0.674294
C35	C	0.736411	0.000143	0.177045
C36	C	1.236411	0.500143	0.677045
C37	C	1.259061	0.000196	0.164469
C38	C	1.759061	0.500196	0.664469
C39	C	1.361456	0.000203	0.167159
C40	C	1.861456	0.500203	0.667159
C41	C	1.095797	0.000176	-0.054922
C42	C	1.595797	0.500176	0.445078
C43	C	1.093101	0.000170	-0.193451
C44	C	1.593101	0.500170	0.306549
C45	C	1.149440	0.416464	0.092543
C46	C	1.649440	0.916464	0.592543
C47	C	1.149454	0.583876	0.092538
C48	C	1.649454	1.083876	0.592538
C49	C	1.171651	0.000181	-0.269169
C50	C	1.671651	0.500181	0.230831
C51	C	1.168866	0.000175	-0.412346
C52	C	1.668866	0.500175	0.087654
C53	C	1.085218	0.000164	0.401328
C54	C	1.585218	0.500164	0.901328
C55	C	1.087914	0.000160	0.539857
C56	C	1.587914	0.500160	1.039857
H57	H	1.199889	0.354348	0.023486
H58	H	1.699889	0.854348	0.523486
H59	H	1.040043	0.406373	0.242249
H60	H	1.540043	0.906373	0.742249
H61	H	1.199920	0.645972	0.023488
H62	H	1.699920	1.145972	0.523488
H63	H	1.240961	0.000201	-0.227995
H64	H	1.740961	0.500201	0.272005
H65	H	1.040063	0.594001	0.242258
H66	H	1.540063	1.094001	0.742258
H67	H	1.236110	0.000191	-0.477407
H68	H	1.736110	0.500191	0.022593
H69	H	1.020666	0.000160	-0.395089
H70	H	1.520666	0.500160	0.104911
H71	H	1.023791	0.000149	-0.234625
H72	H	1.523791	0.500149	0.265375
