data_functionalizedCrystal
_audit_creation_method	'MofGen! by Chris Wilmer'
_symmetry_space_group_name_H-M	'P1'
_symmetry_Int_Tables_number	1
_symmetry_cell_setting	triclinic
loop_
_symmetry_equiv_pos_as_xyz
  x,y,z
_cell_length_a	19.805407
_cell_length_b	19.805405
_cell_length_c	17.077396
_cell_angle_alpha	89.971037
_cell_angle_beta	89.981228
_cell_angle_gamma	90.024042
loop_
_atom_site_label
_atom_site_type_symbol
_atom_site_fract_x
_atom_site_fract_y
_atom_site_fract_z
Zn1	Zn	1.034741	-0.269512	-0.443825
Zn2	Zn	1.284741	-0.019512	-0.193825
Zn3	Zn	1.534741	0.230488	0.056175
Zn4	Zn	1.784741	0.480488	0.306175
Zn5	Zn	1.034653	-0.382705	-0.312558
Zn6	Zn	1.284653	-0.132705	-0.062558
Zn7	Zn	1.534653	0.117295	0.187442
Zn8	Zn	1.784653	0.367295	0.437442
Zn9	Zn	0.921553	-0.269530	-0.312574
Zn10	Zn	1.171553	-0.019530	-0.062574
Zn11	Zn	1.421553	0.230470	0.187426
Zn12	Zn	1.671553	0.480470	0.437426
Zn13	Zn	0.921518	-0.382659	-0.443783
Zn14	Zn	1.171518	-0.132659	-0.193783
Zn15	Zn	1.421518	0.117341	0.056217
Zn16	Zn	1.671518	0.367341	0.306217
O17	O	0.978116	-0.326101	-0.378185
O18	O	1.228116	-0.076101	-0.128185
O19	O	1.478116	0.173899	0.121815
O20	O	1.728116	0.423899	0.371815
O21	O	1.129446	-0.284539	-0.426422
O22	O	1.379446	-0.034539	-0.176422
O23	O	1.629446	0.215461	0.073578
O24	O	1.879446	0.465461	0.323578
O25	O	1.019628	-0.367719	-0.202713
O26	O	1.269628	-0.117719	0.047287
O27	O	1.519628	0.132281	0.297287
O28	O	1.769628	0.382281	0.547287
O29	O	0.936619	-0.174811	-0.330010
O30	O	1.186619	0.075189	-0.080010
O31	O	1.436619	0.325189	0.169990
O32	O	1.686619	0.575189	0.419990
O33	O	1.129381	-0.367701	-0.329981
O34	O	1.379381	-0.117701	-0.079981
O35	O	1.629381	0.132299	0.170019
O36	O	1.879381	0.382299	0.420019
O37	O	1.019778	-0.174797	-0.426439
O38	O	1.269778	0.075203	-0.176439
O39	O	1.519778	0.325203	0.073561
O40	O	1.769778	0.575203	0.323561
O41	O	0.936534	-0.284569	-0.202725
O42	O	1.186534	-0.034569	0.047275
O43	O	1.436534	0.215431	0.297275
O44	O	1.686534	0.465431	0.547275
O45	O	0.826832	-0.284525	-0.329969
O46	O	1.076832	-0.034525	-0.079969
O47	O	1.326832	0.215475	0.170031
O48	O	1.576832	0.465475	0.420031
O49	O	0.936559	-0.367623	-0.553635
O50	O	1.186559	-0.117623	-0.303635
O51	O	1.436559	0.132377	-0.053635
O52	O	1.686559	0.382377	0.196365
O53	O	0.826806	-0.367640	-0.426367
O54	O	1.076806	-0.117640	-0.176367
O55	O	1.326806	0.132360	0.073633
O56	O	1.576806	0.382360	0.323633
O57	O	1.019743	-0.284494	-0.553666
O58	O	1.269743	-0.034494	-0.303666
O59	O	1.519743	0.215506	-0.053666
O60	O	1.769743	0.465506	0.196334
O61	O	1.019594	-0.477415	-0.329940
O62	O	1.269594	-0.227415	-0.079940
O63	O	1.519594	0.022585	0.170060
O64	O	1.769594	0.272585	0.420060
O65	O	0.936474	-0.477381	-0.426351
O66	O	1.186474	-0.227381	-0.176351
O67	O	1.436474	0.022619	0.073649
O68	O	1.686474	0.272619	0.323649
C69	C	0.802260	-0.326080	-0.378166
C70	C	1.052260	-0.076080	-0.128166
C71	C	1.302260	0.173920	0.121834
C72	C	1.552260	0.423920	0.371834
C73	C	0.727028	-0.326087	-0.378176
C74	C	0.977028	-0.076087	-0.128176
C75	C	1.227028	0.173913	0.121824
C76	C	1.477028	0.423913	0.371824
C77	C	0.691718	-0.282861	-0.428470
C78	C	0.941718	-0.032861	-0.178470
C79	C	1.191718	0.217139	0.071530
C80	C	1.441718	0.467139	0.321530
C81	C	0.621030	-0.282865	-0.428473
C82	C	0.871030	-0.032865	-0.178473
C83	C	1.121030	0.217135	0.071527
C84	C	1.371030	0.467135	0.321527
C85	C	0.585653	-0.326098	-0.378186
C86	C	0.835653	-0.076098	-0.128186
C87	C	1.085653	0.173902	0.121814
C88	C	1.335653	0.423902	0.371814
C89	C	0.620968	-0.369326	-0.327887
C90	C	0.870968	-0.119326	-0.077887
C91	C	1.120968	0.130674	0.172113
C92	C	1.370968	0.380674	0.422113
C93	C	0.691655	-0.369319	-0.327880
C94	C	0.941655	-0.119319	-0.077880
C95	C	1.191655	0.130681	0.172120
C96	C	1.441655	0.380681	0.422120
C97	C	0.335894	-0.369357	-0.327911
C98	C	0.585894	-0.119357	-0.077911
C99	C	0.835894	0.130643	0.172089
C100	C	1.085894	0.380643	0.422089
C101	C	0.265202	-0.369362	-0.327923
C102	C	0.515202	-0.119362	-0.077923
C103	C	0.765202	0.130638	0.172077
C104	C	1.015202	0.380638	0.422077
C105	C	0.265269	-0.282903	-0.428503
C106	C	0.515269	-0.032903	-0.178503
C107	C	0.765269	0.217097	0.071497
C108	C	1.015269	0.467097	0.321497
C109	C	0.335957	-0.282895	-0.428497
C110	C	0.585957	-0.032895	-0.178497
C111	C	0.835957	0.217105	0.071503
C112	C	1.085957	0.467105	0.321503
C113	C	0.371265	-0.326120	-0.378195
C114	C	0.621265	-0.076120	-0.128195
C115	C	0.871265	0.173880	0.121805
C116	C	1.121265	0.423880	0.371805
C117	C	0.447914	-0.326115	-0.378192
C118	C	0.697914	-0.076115	-0.128192
C119	C	0.947914	0.173885	0.121808
C120	C	1.197914	0.423885	0.371808
C121	C	0.509006	-0.326107	-0.378193
C122	C	0.759006	-0.076107	-0.128193
C123	C	1.009006	0.173893	0.121807
C124	C	1.259006	0.423893	0.371807
C125	C	0.978039	-0.501957	-0.378157
C126	C	1.228039	-0.251957	-0.128157
C127	C	1.478039	-0.001957	0.121843
C128	C	1.728039	0.248043	0.371843
C129	C	0.978068	-0.577189	-0.378171
C130	C	1.228068	-0.327189	-0.128171
C131	C	1.478068	-0.077189	0.121829
C132	C	1.728068	0.172811	0.371829
C133	C	1.021343	-0.612468	-0.428421
C134	C	1.271343	-0.362468	-0.178421
C135	C	1.521343	-0.112468	0.071579
C136	C	1.771343	0.137532	0.321579
C137	C	1.021367	-0.683157	-0.428435
C138	C	1.271367	-0.433157	-0.178435
C139	C	1.521367	-0.183157	0.071565
C140	C	1.771367	0.066843	0.321565
C141	C	0.978120	-0.718565	-0.378195
C142	C	1.228120	-0.468565	-0.128195
C143	C	1.478120	-0.218565	0.121805
C144	C	1.728120	0.031435	0.371805
C145	C	0.934840	-0.683281	-0.327943
C146	C	1.184840	-0.433281	-0.077943
C147	C	1.434840	-0.183281	0.172057
C148	C	1.684840	0.066719	0.422057
C149	C	0.934813	-0.612594	-0.327933
C150	C	1.184813	-0.362594	-0.077933
C151	C	1.434813	-0.112594	0.172067
C152	C	1.684813	0.137406	0.422067
C153	C	0.934949	-0.968354	-0.327983
C154	C	1.184949	-0.718354	-0.077983
C155	C	1.434949	-0.468354	0.172017
C156	C	1.684949	-0.218354	0.422017
C157	C	0.934981	-1.039046	-0.327996
C158	C	1.184981	-0.789046	-0.077996
C159	C	1.434981	-0.539046	0.172004
C160	C	1.684981	-0.289046	0.422004
C161	C	1.021503	-1.038917	-0.428486
C162	C	1.271503	-0.788917	-0.178486
C163	C	1.521503	-0.538917	0.071514
C164	C	1.771503	-0.288917	0.321514
C165	C	1.021476	-0.968230	-0.428475
C166	C	1.271476	-0.718230	-0.178475
C167	C	1.521476	-0.468230	0.071525
C168	C	1.771476	-0.218230	0.321525
C169	C	0.978194	-0.932952	-0.378227
C170	C	1.228194	-0.682952	-0.128227
C171	C	1.478194	-0.432952	0.121773
C172	C	1.728194	-0.182952	0.371773
C173	C	0.978167	-0.856304	-0.378212
C174	C	1.228167	-0.606304	-0.128212
C175	C	1.478167	-0.356304	0.121788
C176	C	1.728167	-0.106304	0.371788
C177	C	0.978150	-0.795212	-0.378205
C178	C	1.228150	-0.545212	-0.128205
C179	C	1.478150	-0.295212	0.121795
C180	C	1.728150	-0.045212	0.371795
C181	C	1.154659	-0.326123	-0.378205
C182	C	1.404659	-0.076123	-0.128205
C183	C	1.654659	0.173877	0.121795
C184	C	1.904659	0.423877	0.371795
C185	C	1.229891	-0.326132	-0.378213
C186	C	1.479891	-0.076132	-0.128213
C187	C	1.729891	0.173868	0.121787
C188	C	1.979891	0.423868	0.371787
C189	C	0.978157	-0.326051	-0.582929
C190	C	1.228157	-0.076051	-0.332929
C191	C	1.478157	0.173949	-0.082929
C192	C	1.728157	0.423949	0.167071
C193	C	0.978175	-0.326030	-0.670179
C194	C	1.228175	-0.076030	-0.420179
C195	C	1.478175	0.173970	-0.170179
C196	C	1.728175	0.423970	0.079821
C197	C	0.978212	-0.149558	-0.378231
C198	C	1.228212	0.100442	-0.128231
C199	C	1.478212	0.350442	0.121769
C200	C	1.728212	0.600442	0.371769
C201	C	0.978253	-0.074326	-0.378250
C202	C	1.228253	0.175674	-0.128250
C203	C	1.478253	0.425674	0.121750
C204	C	1.728253	0.675674	0.371750
C205	C	1.021490	-0.282741	-0.711187
C206	C	1.271490	-0.032741	-0.461187
C207	C	1.521490	0.217259	-0.211187
C208	C	1.771490	0.467259	0.038813
C209	C	1.021498	-0.282719	-0.793167
C210	C	1.271498	-0.032719	-0.543167
C211	C	1.521498	0.217281	-0.293167
C212	C	1.771498	0.467281	-0.043167
C213	C	0.978194	-0.325989	-0.834139
C214	C	1.228194	-0.075989	-0.584139
C215	C	1.478194	0.174011	-0.334139
C216	C	1.728194	0.424011	-0.084139
C217	C	0.934874	-0.369280	-0.793125
C218	C	1.184874	-0.119280	-0.543125
C219	C	1.434874	0.130720	-0.293125
C220	C	1.684874	0.380720	-0.043125
C221	C	0.934863	-0.369298	-0.711146
C222	C	1.184863	-0.119298	-0.461146
C223	C	1.434863	0.130702	-0.211146
C224	C	1.684863	0.380702	0.038854
C225	C	0.934901	-0.369239	-0.963996
C226	C	1.184901	-0.119239	-0.713996
C227	C	1.434901	0.130761	-0.463996
C228	C	1.684901	0.380761	-0.213996
C229	C	0.934913	-0.369221	-1.045980
C230	C	1.184913	-0.119221	-0.795980
C231	C	1.434913	0.130779	-0.545980
C232	C	1.684913	0.380779	-0.295980
C233	C	1.021537	-0.282660	-1.046016
C234	C	1.271537	-0.032660	-0.796016
C235	C	1.521537	0.217340	-0.546016
C236	C	1.771537	0.467340	-0.296016
C237	C	1.021526	-0.282678	-0.964037
C238	C	1.271526	-0.032678	-0.714037
C239	C	1.521526	0.217322	-0.464037
C240	C	1.771526	0.467322	-0.214037
C241	C	0.978206	-0.325970	-0.923030
C242	C	1.228206	-0.075970	-0.673030
C243	C	1.478206	0.174030	-0.423030
C244	C	1.728206	0.424030	-0.173030
C245	C	0.978114	-0.326102	-0.174237
C246	C	1.228114	-0.076102	0.075763
C247	C	1.478114	0.173898	0.325763
C248	C	1.728114	0.423898	0.575763
C249	C	0.978228	-0.325933	-0.086988
C250	C	1.228228	-0.075933	0.163012
C251	C	1.478228	0.174067	0.413012
C252	C	1.728228	0.424067	0.663012
H253	H	0.592158	-0.404524	-0.286939
H254	H	0.842158	-0.154524	-0.036939
H255	H	1.092158	0.095476	0.213061
H256	H	1.342158	0.345476	0.463061
H257	H	0.720517	-0.247657	-0.469421
H258	H	0.970517	0.002343	-0.219421
H259	H	1.220517	0.252343	0.030579
H260	H	1.470517	0.502343	0.280579
Cl261	Cl	0.880464	-0.423611	-1.097487
Cl262	Cl	1.130464	-0.173611	-0.847487
Cl263	Cl	1.380464	0.076389	-0.597487
Cl264	Cl	1.630464	0.326389	-0.347487
H265	H	1.056611	-0.711878	-0.469348
H266	H	1.306611	-0.461878	-0.219348
H267	H	1.556611	-0.211878	0.030652
H268	H	1.806611	0.038122	0.280652
Cl269	Cl	0.576643	-0.228523	-0.491704
Cl270	Cl	0.826643	0.021477	-0.241704
Cl271	Cl	1.076643	0.271477	0.008296
Cl272	Cl	1.326643	0.521477	0.258296
Cl273	Cl	1.075937	-0.228345	-0.659688
Cl274	Cl	1.325937	0.021655	-0.409688
Cl275	Cl	1.575937	0.271655	-0.159688
Cl276	Cl	1.825937	0.521655	0.090312
H277	H	0.236513	-0.247704	-0.469458
H278	H	0.486513	0.002296	-0.219458
H279	H	0.736513	0.252296	0.030542
H280	H	0.986513	0.502296	0.280542
H281	H	1.056695	-0.939403	-0.469383
H282	H	1.306695	-0.689403	-0.219383
H283	H	1.556695	-0.439403	0.030617
H284	H	1.806695	-0.189403	0.280617
H285	H	0.899612	-0.404508	-0.826491
H286	H	1.149612	-0.154508	-0.576491
H287	H	1.399612	0.095492	-0.326491
H288	H	1.649612	0.345492	-0.076491
H289	H	0.236400	-0.404570	-0.286970
H290	H	0.486400	-0.154570	-0.036970
H291	H	0.736400	0.095430	0.213030
H292	H	0.986400	0.345430	0.463030
Cl293	Cl	0.380273	-0.423683	-0.264658
Cl294	Cl	0.630273	-0.173683	-0.014658
Cl295	Cl	0.880273	0.076317	0.235342
Cl296	Cl	1.130273	0.326317	0.485342
H297	H	1.056808	-0.247409	-1.079409
H298	H	1.306808	0.002591	-0.829409
H299	H	1.556808	0.252591	-0.579409
H300	H	1.806808	0.502591	-0.329409
H301	H	1.056563	-0.583644	-0.469328
H302	H	1.306563	-0.333644	-0.219328
H303	H	1.556563	-0.083644	0.030672
H304	H	1.806563	0.166356	0.280672
H305	H	1.056743	-1.067649	-0.469403
H306	H	1.306743	-0.817649	-0.219403
H307	H	1.556743	-0.567649	0.030597
H308	H	1.806743	-0.317649	0.280597
Cl309	Cl	0.380427	-0.228545	-0.491721
Cl310	Cl	0.630427	0.021455	-0.241721
Cl311	Cl	0.880427	0.271455	0.008279
Cl312	Cl	1.130427	0.521455	0.258279
H313	H	0.899584	-0.404541	-0.677759
H314	H	1.149584	-0.154541	-0.427759
H315	H	1.399584	0.095459	-0.177759
H316	H	1.649584	0.345459	0.072241
Cl317	Cl	1.075970	-0.228285	-0.912531
Cl318	Cl	1.325970	0.021715	-0.662531
Cl319	Cl	1.575970	0.271715	-0.412531
Cl320	Cl	1.825970	0.521715	-0.162531
H321	H	0.720403	-0.404517	-0.286926
H322	H	0.970403	-0.154517	-0.036926
H323	H	1.220403	0.095483	0.213074
H324	H	1.470403	0.345483	0.463074
H325	H	0.899761	-1.067873	-0.287083
H326	H	1.149761	-0.817873	-0.037083
H327	H	1.399761	-0.567873	0.212917
H328	H	1.649761	-0.317873	0.462917
H329	H	0.899709	-0.939636	-0.287067
H330	H	1.149709	-0.689636	-0.037067
H331	H	1.399709	-0.439636	0.212933
H332	H	1.649709	-0.189636	0.462933
Cl333	Cl	0.880440	-0.423663	-0.912445
Cl334	Cl	1.130440	-0.173663	-0.662445
Cl335	Cl	1.380440	0.076337	-0.412445
Cl336	Cl	1.630440	0.326337	-0.162445
H337	H	1.056772	-0.247470	-0.826552
H338	H	1.306772	0.002530	-0.576552
H339	H	1.556772	0.252530	-0.326552
H340	H	1.806772	0.502530	-0.076552
H341	H	0.899625	-0.712116	-0.287040
H342	H	1.149625	-0.462116	-0.037040
H343	H	1.399625	-0.212116	0.212960
H344	H	1.649625	0.037884	0.462960
H345	H	0.899573	-0.583870	-0.287015
H346	H	1.149573	-0.333870	-0.037015
H347	H	1.399573	-0.083870	0.212985
H348	H	1.649573	0.166130	0.462985
