data_functionalizedCrystal
_audit_creation_method	'MofGen! by Chris Wilmer'
_symmetry_space_group_name_H-M	'P1'
_symmetry_Int_Tables_number	1
_symmetry_cell_setting	triclinic
loop_
_symmetry_equiv_pos_as_xyz
  x,y,z
_cell_length_a	21.606444
_cell_length_b	20.875641
_cell_length_c	21.606444
_cell_angle_alpha	89.997916
_cell_angle_beta	59.990220
_cell_angle_gamma	57.592734
loop_
_atom_site_label
_atom_site_type_symbol
_atom_site_fract_x
_atom_site_fract_y
_atom_site_fract_z
Zr1	Zr	0.632082	0.641480	-0.058626
O2	O	0.768745	0.535158	-0.161237
O3	O	0.500643	0.674073	-0.027155
O4	O	0.629776	0.674075	-0.156298
O5	O	0.639609	0.535156	0.069759
O6	O	0.622016	0.783655	-0.152418
O7	O	0.639612	0.535157	-0.032094
O8	O	0.391020	0.783652	0.078595
O9	O	0.870605	0.535159	-0.161254
O10	O	0.546980	0.769753	-0.010856
O11	O	0.552770	0.687974	0.062261
O12	O	0.704808	0.687976	-0.089788
O13	O	0.710597	0.606197	-0.016672
Zr14	Zr	0.619702	0.816247	0.110005
Zr15	Zr	0.619705	0.816248	-0.052439
Zr16	Zr	0.632079	0.641479	0.103818
Zr17	Zr	0.794538	0.641481	-0.058653
Zr18	Zr	0.457247	0.816246	0.110032
O19	O	0.751141	0.783654	0.078534
O20	O	0.751146	0.783656	-0.152440
O21	O	0.768739	0.535157	0.069737
O22	O	0.483039	0.922569	0.212617
O23	O	0.483045	0.922571	-0.018358
O24	O	0.500638	0.674072	0.203819
O25	O	0.612175	0.922572	-0.018379
O26	O	0.622008	0.783653	0.207677
O27	O	0.629768	0.674072	0.203798
O28	O	0.612173	0.922571	0.083474
O29	O	0.860767	0.674076	-0.156336
O30	O	0.391017	0.783651	0.207716
O31	O	0.381179	0.922569	0.212634
O32	O	0.381182	0.922569	0.083512
O33	O	0.870602	0.535158	-0.032133
O34	O	0.860764	0.674075	-0.027215
O35	O	0.546977	0.769752	0.141168
O36	O	0.541187	0.851531	0.068051
O37	O	0.699014	0.769754	-0.010881
O38	O	0.704804	0.687975	0.062235
C39	C	0.422685	0.728863	0.025724
C40	C	0.353719	0.728862	0.025735
C41	C	0.641374	0.510256	0.017951
C42	C	0.646628	0.436062	0.015324
C43	C	0.381731	0.668492	-0.032530
C44	C	0.316941	0.668494	-0.032545
C45	C	0.224141	0.728864	0.025708
C46	C	0.196129	0.789240	0.083976
C47	C	0.260918	0.789241	0.083988
C48	C	-0.065157	0.789240	0.083928
C49	C	-0.129946	0.789233	0.083913
C50	C	-0.009134	0.668493	-0.032605
C51	C	0.055655	0.668493	-0.032593
C52	C	0.027637	0.728872	0.025673
C53	C	0.097890	0.728870	0.025688
C54	C	0.153889	0.728863	0.025696
C55	C	0.566714	0.443890	0.055288
C56	C	0.571657	0.374175	0.052818
C57	C	0.656514	0.296632	0.010380
C58	C	0.736433	0.288805	-0.029585
C59	C	0.731490	0.358520	-0.027111
C60	C	0.680132	0.083553	-0.001435
C61	C	0.685070	0.013837	-0.003908
C62	C	0.520292	0.099212	0.078497
C63	C	0.515357	0.168924	0.080964
C64	C	0.595276	0.161092	0.041002
N65	N	0.661568	0.225370	0.007852
N66	N	0.590221	0.232352	0.043534
C67	C	0.829099	0.728865	0.025656
C68	C	0.898065	0.728865	0.025644
C69	C	0.625897	0.728865	-0.177503
C70	C	0.625898	0.728866	-0.246465
C71	C	0.610410	0.947472	0.033429
C72	C	0.605156	1.021665	0.036055
C73	C	0.621625	0.789234	-0.276726
C74	C	0.621618	0.789237	-0.341519
C75	C	0.625892	0.728866	-0.376053
C76	C	0.630164	0.668495	-0.345786
C77	C	0.630163	0.668496	-0.280991
C78	C	0.630163	0.668488	-0.607096
C79	C	0.630166	0.668489	-0.671897
C80	C	0.621618	0.789228	-0.667624
C81	C	0.621618	0.789230	-0.602829
C82	C	0.625885	0.728861	-0.572565
C83	C	0.625890	0.728860	-0.502309
C84	C	0.625894	0.728863	-0.446311
C85	C	0.625887	0.728862	0.228882
C86	C	0.625886	0.728862	0.297844
C87	C	0.407204	0.947471	0.033463
C88	C	0.332983	1.021664	0.036101
C89	C	0.422681	0.728861	0.228916
C90	C	0.353713	0.728860	0.297890
C91	C	0.407199	0.947469	0.236655
C92	C	0.332977	1.021662	0.308255
C93	C	0.844585	0.510258	-0.185276
C94	C	0.918808	0.436065	-0.256876
C95	C	0.844580	0.510257	0.017917
C96	C	0.918801	0.436064	0.015279
C97	C	0.829103	0.728866	-0.177537
C98	C	0.898071	0.728867	-0.246510
C99	C	0.301152	1.013818	-0.003856
C100	C	0.231423	1.083524	-0.001392
C101	C	0.193522	1.161074	0.041033
C102	C	0.225359	1.168918	0.080990
C103	C	0.295091	1.099213	0.078522
C104	C	0.318300	0.771547	0.371476
C105	C	0.253507	0.771543	0.436289
C106	C	0.224122	0.728857	0.427516
C107	C	0.259541	0.686165	0.353922
C108	C	0.324338	0.686164	0.289110
C109	C	0.295098	1.099199	0.303713
C110	C	0.225367	1.168918	0.370983
C111	C	0.193511	1.161098	0.442794
C112	C	0.231396	1.083553	0.447334
C113	C	0.301131	1.013836	0.380065
C114	C	0.956694	0.358529	-0.252334
C115	C	1.026445	0.288810	-0.319604
C116	C	1.058305	0.296630	-0.391414
C117	C	1.020415	0.374175	-0.395954
C118	C	0.950670	0.443892	-0.328686
C119	C	0.950639	0.443909	0.055228
C120	C	1.020386	0.374203	0.052747
C121	C	1.058289	0.296653	0.010320
C122	C	1.026449	0.288809	-0.029635
C123	C	0.956708	0.358514	-0.027157
C124	C	0.927435	0.771562	-0.237712
C125	C	0.992228	0.771579	-0.302513
C126	C	1.027661	0.728895	-0.376111
C127	C	0.998291	0.686199	-0.384908
C128	C	0.933494	0.686188	-0.320108
H129	H	0.457292	0.619323	-0.079959
H130	H	0.136741	1.217826	0.043037
H131	H	0.205449	1.077197	0.505811
H132	H	1.027151	0.651448	-0.444841
H133	H	0.909594	0.651417	-0.327282
H134	H	0.618143	0.838386	-0.574716
H135	H	0.618140	0.838386	-0.692269
H136	H	0.194527	1.232052	0.367273
H137	H	1.080423	0.728911	-0.428870
H138	H	0.321025	1.105582	0.245248
H139	H	0.331963	0.950704	0.383774
H140	H	-0.087980	0.838404	0.131371
H141	H	1.115096	0.239855	-0.446183
H142	H	0.171360	0.728864	0.480296
H143	H	0.446257	0.232060	0.115507
H144	H	0.120565	0.838398	0.131403
H145	H	0.633640	0.619332	-0.582462
H146	H	0.339757	0.619334	-0.079990
H147	H	1.057320	0.225658	-0.064178
H148	H	1.115076	0.239901	0.008309
H149	H	0.930788	0.352115	-0.059687
H150	H	0.238104	0.838401	0.131433
H151	H	0.898595	0.806320	-0.177790
H152	H	0.136728	1.217872	0.497563
H153	H	1.057284	0.225676	-0.315892
H154	H	1.016134	0.806346	-0.295335
H155	H	0.455226	0.105580	0.111032
H156	H	0.131216	0.619331	-0.080026
H157	H	0.506583	0.380556	0.085362
H158	H	0.013673	0.619332	-0.080050
H159	H	0.618150	0.838391	-0.248615
H160	H	1.046364	0.380532	-0.454431
H161	H	-0.205512	0.838397	0.131352
H162	H	0.342218	0.806308	0.378634
H163	H	0.618138	0.838394	-0.366156
H164	H	0.633638	0.619342	-0.373904
H165	H	0.930758	0.352146	-0.193868
H166	H	0.332010	0.950679	-0.038412
H167	H	0.497615	0.507026	0.089849
H168	H	0.205510	1.077122	-0.033931
H169	H	0.194490	1.232069	0.115531
H170	H	0.320999	1.105613	0.111064
H171	H	1.046298	0.380606	0.085286
H172	H	0.919823	0.507024	-0.332393
H173	H	0.919783	0.507048	0.089782
H174	H	0.633645	0.619327	-0.700013
H175	H	0.235606	0.651410	0.346789
H176	H	0.745208	0.077165	-0.033988
H177	H	0.754174	-0.049304	-0.038470
H178	H	0.805526	0.225663	-0.064135
H179	H	0.633642	0.619339	-0.256352
H180	H	0.353162	0.651406	0.229195
H181	H	0.796564	0.352140	-0.059644
H182	H	0.224676	0.806311	0.496206
