data_functionalizedCrystal
_audit_creation_method	'MofGen! by Chris Wilmer'
_symmetry_space_group_name_H-M	'P1'
_symmetry_Int_Tables_number	1
_symmetry_cell_setting	triclinic
loop_
_symmetry_equiv_pos_as_xyz
  x,y,z
_cell_length_a	6.817900
_cell_length_b	11.102183
_cell_length_c	17.110486
_cell_angle_alpha	95.183856
_cell_angle_beta	99.060439
_cell_angle_gamma	108.603876
loop_
_atom_site_label
_atom_site_type_symbol
_atom_site_fract_x
_atom_site_fract_y
_atom_site_fract_z
V1	V	-4.002954	-0.175460	-0.246719
O2	O	-3.964064	0.008821	-0.242024
O3	O	-3.980463	-0.348282	-0.245030
O4	O	-3.932385	-0.172590	-0.354322
O5	O	-4.012474	-0.168087	-0.131975
V6	V	-4.486097	-0.153438	-0.232995
O7	O	-4.265045	-0.223767	-0.276824
O8	O	-4.674202	-0.105131	-0.202890
O9	O	-4.285381	0.019384	-0.234683
O10	O	-4.642384	-0.337719	-0.237690
O11	O	-4.593973	-0.160811	-0.347738
O12	O	-4.333459	-0.156308	-0.125391
C13	C	-3.832484	-0.390418	-0.241138
C14	C	-3.895234	-0.531702	-0.240474
C15	C	-3.838655	-0.495646	-0.095540
C16	C	-3.839842	-0.543993	-0.022763
C17	C	-3.898808	-0.676742	-0.022144
C18	C	-3.956597	-0.761149	-0.094309
C19	C	-3.955411	-0.712803	-0.167085
C20	C	-3.896435	-0.580048	-0.167697
C21	C	-4.012004	-0.748858	-0.312018
C22	C	-3.953024	-0.616109	-0.312639
C23	C	-4.069793	-0.833265	-0.384183
C24	C	-4.068593	-0.784918	-0.456961
C25	C	-4.009620	-0.652160	-0.457577
C26	C	-3.951838	-0.567762	-0.385415
C27	C	-3.771155	-0.166304	-0.380549
C28	C	-3.794913	-0.165101	-0.468515
C29	C	-3.988312	-0.170879	-0.513873
C30	C	-4.010622	-0.169748	-0.596527
C31	C	-3.839536	-0.162848	-0.633821
C32	C	-3.646119	-0.157066	-0.588457
C33	C	-3.623807	-0.158188	-0.505804
C34	C	-3.897783	-0.159135	-0.883176
C35	C	-3.920113	-0.158017	-0.965835
C36	C	-4.284615	-0.170697	-0.973899
C37	C	-4.262288	-0.171826	-0.891245
C38	C	-4.068872	-0.166037	-0.845887
C39	C	-3.862338	-0.161696	-0.718307
C40	C	-4.046068	-0.167180	-0.761403
C41	C	-4.096703	0.061513	-0.238574
C42	C	-4.013190	0.202795	-0.239242
C43	C	-4.158032	-0.162599	-0.099160
C44	C	-4.113512	-0.163795	-0.011193
H45	H	-3.790580	-0.387551	-0.096035
H46	H	-4.442087	-0.175408	-1.010838
C47	C	-3.776923	-0.452139	0.055502
C48	C	-3.724970	-0.325531	0.039391
C49	C	-3.666980	-0.240886	0.111469
H50	H	-3.891440	-0.470449	0.082918
H51	H	-3.658273	-0.462280	0.087906
H52	H	-3.843608	-0.315396	0.007000
H53	H	-3.610441	-0.307181	0.011986
H54	H	-3.548330	-0.251027	0.143873
H55	H	-3.781506	-0.259208	0.138880
H56	H	-3.631705	-0.154973	0.100547
H57	H	-4.168102	-0.174445	-0.633453
H58	H	-4.117817	-0.941355	-0.383674
H59	H	-3.899778	-0.716105	0.037116
C60	C	-4.131303	-0.876762	-0.535217
C61	C	-4.183167	-1.003363	-0.519097
C62	C	-4.240917	-1.088008	-0.591167
H63	H	-4.249924	-0.866710	-0.567676
H64	H	-4.016647	-0.858364	-0.562577
H65	H	-4.297812	-1.021755	-0.491750
H66	H	-4.064576	-1.013456	-0.486650
H67	H	-4.126261	-1.069610	-0.618527
H68	H	-4.359533	-1.077944	-0.623621
H69	H	-4.276095	-1.173915	-0.580240
H70	H	-4.401609	-0.177443	-0.860886
H71	H	-4.004633	-0.869240	-0.093799
C72	C	-4.008371	-0.599921	-0.536674
C73	C	-4.071556	-0.702256	-0.599732
C74	C	-4.070407	-0.654188	-0.672608
H75	H	-4.103156	-0.553037	-0.542562
H76	H	-3.869921	-0.544792	-0.537452
H77	H	-4.209985	-0.757363	-0.598956
H78	H	-3.976791	-0.749150	-0.593872
H79	H	-3.931957	-0.599059	-0.673386
H80	H	-4.165192	-0.607304	-0.678488
H81	H	-4.113258	-0.723613	-0.715401
H82	H	-3.780781	-0.152395	-0.996197
H83	H	-3.740317	-0.154466	-0.846260
C84	C	-3.887781	-0.423671	-0.386248
C85	C	-3.899063	-0.399388	-0.465424
C86	C	-3.840049	-0.266664	-0.466218
H87	H	-3.980514	-0.390972	-0.362196
H88	H	-3.747331	-0.382809	-0.357138
H89	H	-4.039492	-0.440233	-0.494522
H90	H	-3.806329	-0.432055	-0.489491
H91	H	-3.699599	-0.225803	-0.437109
H92	H	-3.932789	-0.233978	-0.442163
H93	H	-3.847677	-0.250170	-0.519938
C94	C	-3.414045	-0.152134	-0.456481
C95	C	-3.442690	-0.262224	-0.419441
C96	C	-3.249504	-0.256681	-0.373992
H97	H	-3.315191	-0.147930	-0.490443
H98	H	-3.362438	-0.077901	-0.416801
H99	H	-3.494268	-0.336436	-0.459116
H100	H	-3.541509	-0.266450	-0.385466
H101	H	-3.197897	-0.182449	-0.334311
H102	H	-3.150665	-0.252474	-0.407959
H103	H	-3.268917	-0.331369	-0.348849
H104	H	-4.127638	-0.176506	-0.483515
H105	H	-3.506815	-0.151440	-0.618828
H106	H	-4.185362	-0.172794	-0.731033
H107	H	-3.723045	-0.156083	-0.748682
