data_functionalizedCrystal
_audit_creation_method	'MofGen! by Chris Wilmer'
_symmetry_space_group_name_H-M	'P1'
_symmetry_Int_Tables_number	1
_symmetry_cell_setting	triclinic
loop_
_symmetry_equiv_pos_as_xyz
  x,y,z
_cell_length_a	16.992694
_cell_length_b	16.992695
_cell_length_c	15.455322
_cell_angle_alpha	92.854257
_cell_angle_beta	92.858183
_cell_angle_gamma	89.331778
loop_
_atom_site_label
_atom_site_type_symbol
_atom_site_fract_x
_atom_site_fract_y
_atom_site_fract_z
O1	O	-1.054080	0.163695	-0.072002
O2	O	-0.554080	0.663695	0.427998
O3	O	-0.825681	0.161863	-0.072028
O4	O	-0.325681	0.661863	0.427972
O5	O	-0.938965	0.048579	-0.072022
O6	O	-0.438965	0.548579	0.427978
O7	O	-0.940796	0.276979	-0.072007
O8	O	-0.440796	0.776979	0.427993
O9	O	-0.932484	0.055029	0.072239
O10	O	-0.432484	0.555029	0.572239
O11	O	-0.819200	0.168313	0.072234
O12	O	-0.319200	0.668313	0.572234
O13	O	-1.047599	0.170145	0.072260
O14	O	-0.547599	0.670145	0.572260
Cu15	Cu	-0.932808	0.169818	0.085419
Cu16	Cu	-0.432808	0.669818	0.585419
Cu17	Cu	-0.940472	0.162190	-0.085187
Cu18	Cu	-0.440472	0.662190	0.414813
O19	O	-0.934315	0.283429	0.072255
O20	O	-0.434315	0.783429	0.572255
C21	C	-0.793081	0.162732	0.000100
C22	C	-0.293081	0.662732	0.500100
C23	C	-0.705596	0.155703	0.000089
C24	C	-0.205596	0.655703	0.500089
C25	C	-0.933369	0.022443	0.000104
C26	C	-0.433369	0.522443	0.500104
C27	C	-0.926341	-0.065042	0.000092
C28	C	-0.426341	0.434958	0.500092
C29	C	-1.080200	0.169276	0.000131
C30	C	-0.580200	0.669276	0.500131
C31	C	-1.167684	0.176305	0.000135
C32	C	-0.667684	0.676305	0.500135
N33	N	-0.927423	0.175183	0.205415
N34	N	-0.427423	0.675183	0.705415
C35	C	-0.659605	0.223521	0.000095
C36	C	-0.159605	0.723521	0.500095
C37	C	-0.577404	0.216912	0.000106
C38	C	-0.077404	0.716912	0.500106
C39	C	-0.541196	0.142485	0.000106
C40	C	-0.041196	0.642485	0.500106
C41	C	-0.587193	0.074662	0.000104
C42	C	-0.087193	0.574662	0.500104
C43	C	-0.669392	0.081271	0.000098
C44	C	-0.169392	0.581271	0.500098
C45	C	-0.295880	0.115091	0.000128
C46	C	0.204120	0.615091	0.500128
C47	C	-0.213675	0.108487	0.000130
C48	C	0.286325	0.608487	0.500130
C49	C	-0.203892	0.250738	0.000134
C50	C	0.296108	0.750738	0.500134
C51	C	-0.286094	0.257341	0.000124
C52	C	0.213906	0.757341	0.500124
C53	C	-0.332083	0.189518	0.000126
C54	C	0.167917	0.689518	0.500126
N55	N	-0.457173	0.135728	0.000115
N56	N	0.042827	0.635728	0.500115
N57	N	-0.416104	0.196276	0.000123
N58	N	0.083896	0.696276	0.500123
C59	C	-0.939911	0.309565	0.000126
C60	C	-0.439911	0.809565	0.500126
C61	C	-0.946939	0.397050	0.000132
C62	C	-0.446939	0.897050	0.500132
C63	C	-0.879122	0.443040	0.000124
C64	C	-0.379122	0.943040	0.500124
C65	C	-0.885731	0.525240	0.000114
C66	C	-0.385731	1.025240	0.500114
C67	C	-0.960159	0.561449	0.000118
C68	C	-0.460159	1.061449	0.500118
C69	C	-1.027981	0.515452	0.000124
C70	C	-0.527981	1.015452	0.500124
C71	C	-1.021372	0.433253	0.000128
C72	C	-0.521372	0.933253	0.500128
C73	C	-0.987554	0.806762	0.000102
C74	C	-0.487554	1.306762	0.500102
C75	C	-0.994159	0.888968	0.000100
C76	C	-0.494159	1.388968	0.500100
C77	C	-0.851908	0.898750	0.000089
C78	C	-0.351908	1.398750	0.500089
C79	C	-0.845304	0.816549	0.000098
C80	C	-0.345304	1.316549	0.500098
C81	C	-0.913127	0.770560	0.000099
C82	C	-0.413127	1.270560	0.500099
N83	N	-0.966916	0.645471	0.000111
N84	N	-0.466916	1.145471	0.500111
N85	N	-0.906369	0.686539	0.000101
N86	N	-0.406369	1.186539	0.500101
C87	C	-0.975569	0.127076	0.250811
C88	C	-0.475569	0.627076	0.750811
C89	C	-0.971504	0.131141	0.341619
C90	C	-0.471504	0.631141	0.841619
C91	C	-0.919297	0.183318	0.387028
C92	C	-0.419297	0.683318	0.887028
C93	C	-0.871146	0.231427	0.341626
C94	C	-0.371146	0.731427	0.841626
C95	C	-0.875207	0.227357	0.250820
C96	C	-0.375207	0.727357	0.750820
C97	C	-0.901767	0.200862	0.658609
C98	C	-0.401767	0.700862	1.158609
C99	C	-0.897711	0.204930	0.749421
C100	C	-0.397711	0.704930	1.249421
C101	C	-0.998069	0.104643	0.749408
C102	C	-0.498069	0.604643	1.249408
C103	C	-1.002129	0.100581	0.658600
C104	C	-0.502129	0.600581	1.158600
C105	C	-0.953974	0.148687	0.613206
C106	C	-0.453974	0.648687	1.113206
N107	N	-0.915143	0.187476	0.479848
N108	N	-0.415143	0.687476	0.979848
N109	N	-0.958125	0.144525	0.520387
N110	N	-0.458125	0.644525	1.020387
N111	N	-0.945857	0.156823	0.794818
N112	N	-0.445857	0.656823	1.294818
H113	H	-0.689080	0.284128	0.000094
H114	H	-0.189080	0.784128	0.500094
O115	O	-1.066400	0.924270	0.000140
O116	O	-0.566400	1.424270	0.500140
C117	C	-1.057687	1.006682	0.000120
C118	C	-0.557687	1.506682	0.500120
H119	H	-0.996238	1.023331	0.027429
H120	H	-0.496238	1.523331	0.527429
H121	H	-1.103740	1.036674	0.042005
H122	H	-0.603740	1.536674	0.542005
H123	H	-1.066037	1.026680	-0.069089
H124	H	-0.566037	1.526680	0.430911
O125	O	-0.714160	0.015445	-0.000026
O126	O	-0.214160	0.515445	0.499974
C127	C	-0.765333	0.011659	-0.074753
C128	C	-0.265333	0.511659	0.425247
H129	H	-0.774513	0.073288	-0.099661
H130	H	-0.274513	0.573288	0.400339
H131	H	-0.824455	-0.013042	-0.057953
H132	H	-0.324455	0.486958	0.442047
H133	H	-0.738414	-0.028328	-0.127071
H134	H	-0.238414	0.471672	0.372929
H135	H	-0.818515	0.413566	0.000131
H136	H	-0.318515	0.913566	0.500131
O137	O	-1.100242	0.550709	0.000011
O138	O	-0.600242	1.050709	0.500011
C139	C	-1.111683	0.594602	-0.074714
C140	C	-0.611683	1.094602	0.425286
H141	H	-1.052039	0.610047	-0.099630
H142	H	-0.552039	1.110047	0.400370
H143	H	-1.145677	0.651087	-0.057909
H144	H	-0.645677	1.151087	0.442091
H145	H	-1.146585	0.558166	-0.127029
H146	H	-0.646585	1.058166	0.372971
O147	O	-0.159098	0.316539	0.000178
O148	O	0.340902	0.816539	0.500178
C149	C	-0.078783	0.294750	0.000161
C150	C	0.421217	0.794750	0.500161
H151	H	-0.070538	0.233943	0.027468
H152	H	0.429462	0.733943	0.527468
H153	H	-0.042544	0.339535	0.042050
H154	H	0.457456	0.839535	0.542050
H155	H	-0.058323	0.293153	-0.069047
H156	H	0.441677	0.793153	0.430953
H157	H	-1.076596	0.395808	0.000131
H158	H	-0.576596	0.895808	0.500131
H159	H	-1.018085	0.084592	0.213844
H160	H	-0.518085	0.584592	0.713844
H161	H	-0.539961	0.272137	0.000109
H162	H	-0.039961	0.772137	0.500109
O163	O	-0.321393	0.329577	0.000057
O164	O	0.178607	0.829577	0.500057
C165	C	-0.403807	0.320868	0.000054
C166	C	0.096193	0.820868	0.500054
H167	H	-0.420453	0.259411	-0.027231
H168	H	0.079547	0.759411	0.472769
H169	H	-0.433789	0.366907	-0.041865
H170	H	0.066211	0.866907	0.458135
H171	H	-0.423820	0.329243	0.069253
H172	H	0.076180	0.829243	0.569253
O173	O	-0.772946	0.781504	0.000056
O174	O	-0.272946	1.281504	0.500056
C175	C	-0.714503	0.839725	0.000071
C176	C	-0.214503	1.339725	0.500071
H177	H	-0.741288	0.895660	-0.027246
H178	H	-0.241288	1.395660	0.472754
H179	H	-0.664727	0.817518	-0.041810
H180	H	-0.164727	1.317518	0.458190
H181	H	-0.690233	0.853075	0.069280
H182	H	-0.190233	1.353075	0.569280
H183	H	-0.830507	0.562683	0.000105
H184	H	-0.330507	1.062683	0.500105
O185	O	-1.053512	0.762214	0.000152
O186	O	-0.553512	1.262214	0.500152
C187	C	-1.120619	0.811802	0.000139
C188	C	-0.620619	1.311802	0.500139
H189	H	-1.103247	0.873054	0.027444
H190	H	-0.603247	1.373054	0.527444
H191	H	-1.166571	0.786510	0.042032
H192	H	-0.666571	1.286510	0.542032
H193	H	-1.146303	0.815939	-0.069067
H194	H	-0.646303	1.315939	0.430933
H195	H	-1.010708	0.091968	0.378580
H196	H	-0.510708	0.591968	0.878580
H197	H	-1.044640	0.058095	0.621630
H198	H	-0.544640	0.558095	1.121630
H199	H	-0.184197	0.047876	0.000129
H200	H	0.315803	0.547876	0.500129
O201	O	-1.044797	0.057795	0.793412
O202	O	-0.544797	0.557795	1.293412
C203	C	-1.028093	-0.021933	0.771243
C204	C	-0.528093	0.478067	1.271243
H205	H	-1.000708	-0.026704	0.705314
H206	H	-0.500708	0.473296	1.205314
H207	H	-1.084971	-0.057104	0.768133
H208	H	-0.584971	0.442896	1.268133
H209	H	-0.985094	-0.046461	0.822353
H210	H	-0.485094	0.453539	1.322353
H211	H	-0.855195	0.247422	0.786390
H212	H	-0.355195	0.747422	1.286390
O213	O	-0.854965	0.247675	0.614655
O214	O	-0.354965	0.747675	1.114655
C215	C	-0.808006	0.294586	0.674210
C216	C	-0.308006	0.794586	1.174210
H217	H	-0.837445	0.300415	0.738933
H218	H	-0.337445	0.800415	1.238933
H219	H	-0.801104	0.355518	0.647973
H220	H	-0.301104	0.855518	1.147973
H221	H	-0.747497	0.265760	0.683881
H222	H	-0.247497	0.765760	1.183881
H223	H	-0.828634	0.273907	0.378603
H224	H	-0.328634	0.773907	0.878603
O225	O	-0.828524	0.274205	0.206757
O226	O	-0.328524	0.774205	0.706757
C227	C	-0.845191	0.353936	0.228954
C228	C	-0.345191	0.853936	0.728954
H229	H	-0.907123	0.359427	0.253907
H230	H	-0.407123	0.859427	0.753907
H231	H	-0.841279	0.390192	0.169234
H232	H	-0.341279	0.890192	0.669234
H233	H	-0.800650	0.376660	0.281667
H234	H	-0.300650	0.876660	0.781667
O235	O	-0.340433	0.049129	0.000087
O236	O	0.159567	0.549129	0.500087
C237	C	-0.290844	-0.017976	0.000108
C238	C	0.209156	0.482024	0.500108
H239	H	-0.232040	-0.003054	-0.027204
H240	H	0.267960	0.496946	0.472796
H241	H	-0.319890	-0.067687	-0.041776
H242	H	0.180110	0.432313	0.458224
H243	H	-0.280502	-0.037450	0.069317
H244	H	0.219498	0.462550	0.569317
H245	H	-0.557705	0.014061	0.000116
H246	H	-0.057705	0.514061	0.500116
H247	H	-0.796690	0.936204	0.000088
H248	H	-0.296690	1.436204	0.500088
