data_functionalizedCrystal
_audit_creation_method	'MofGen! by Chris Wilmer'
_symmetry_space_group_name_H-M	'P1'
_symmetry_Int_Tables_number	1
_symmetry_cell_setting	triclinic
loop_
_symmetry_equiv_pos_as_xyz
  x,y,z
_cell_length_a	19.188929
_cell_length_b	17.699097
_cell_length_c	16.776229
_cell_angle_alpha	89.989262
_cell_angle_beta	90.028440
_cell_angle_gamma	96.783395
loop_
_atom_site_label
_atom_site_type_symbol
_atom_site_fract_x
_atom_site_fract_y
_atom_site_fract_z
O1	O	-0.088338	1.003956	-0.066393
O2	O	-0.099816	0.783564	-0.066385
O3	O	0.007571	0.900120	-0.066340
O4	O	-0.195725	0.887400	-0.066438
O5	O	0.007578	0.900104	0.066237
O6	O	-0.099809	0.783548	0.066192
O7	O	-0.088332	1.003940	0.066184
Zn8	Zn	-0.094070	0.893742	0.087237
Zn9	Zn	-0.094078	0.893762	-0.087438
O10	O	-0.195719	0.887384	0.066139
C11	C	-0.099400	0.755360	-0.000095
C12	C	-0.098161	0.671344	-0.000089
C13	C	-0.090573	0.155644	-0.072385
C14	C	-0.091732	0.234587	-0.072382
C15	C	-0.092309	0.274043	-0.000111
C16	C	-0.091720	0.234554	0.072160
C17	C	-0.090556	0.155614	0.072156
C18	C	-0.096413	0.552912	0.072179
C19	C	-0.097579	0.631858	0.072178
C20	C	-0.097589	0.631885	-0.072359
C21	C	-0.096425	0.552944	-0.072363
C22	C	-0.095833	0.513463	-0.000092
C23	C	-0.094575	0.427865	-0.000096
C24	C	-0.093572	0.359639	-0.000106
C25	C	-0.221734	0.887804	-0.000162
C26	C	-0.299240	0.889041	-0.000200
C27	C	-0.344084	0.820649	-0.000182
C28	C	-0.416909	0.821811	-0.000164
C29	C	-0.444887	0.891368	-0.000148
C30	C	-0.400033	0.959768	-0.000171
C31	C	-0.327209	0.958604	-0.000197
N32	N	-0.552915	0.944530	0.045019
N33	N	-0.622095	0.945631	0.045045
C34	C	-0.664299	0.894878	-0.000072
N35	N	-0.634712	0.842971	-0.045206
N36	N	-0.565526	0.841868	-0.045229
C37	C	-0.523851	0.892637	-0.000121
C38	C	-0.788110	0.827742	-0.000035
C39	C	-0.860936	0.828906	-0.000022
C40	C	-0.844058	0.966865	-0.000022
C41	C	-0.771233	0.965699	-0.000043
C42	C	-0.743264	0.896135	-0.000046
C43	C	0.033586	0.899700	-0.000041
C44	C	0.111092	0.898464	-0.000008
C45	C	-0.088748	1.032144	-0.000108
C46	C	-0.089987	1.116160	-0.000119
N47	N	-0.094063	0.893734	0.206448
N48	N	-0.094079	0.893777	-0.206649
C49	C	-0.046532	0.945360	0.248185
C50	C	-0.046531	0.945364	0.331638
C51	C	-0.094066	0.893745	0.373351
C52	C	-0.141600	0.842113	0.331608
C53	C	-0.141596	0.842106	0.248158
C54	C	-0.141613	0.842140	0.668155
C55	C	-0.141615	0.842153	0.751612
C56	C	-0.046548	0.945399	0.751635
C57	C	-0.046545	0.945392	0.668185
C58	C	-0.094076	0.893757	0.626449
C59	C	-0.094075	0.893752	0.535961
C60	C	-0.094071	0.893753	0.463838
H61	H	-0.095959	0.520822	-0.131213
H62	H	-0.422817	1.016402	-0.000173
N63	N	-0.722864	1.039468	-0.000048
H64	H	-0.692241	1.042050	0.049088
H65	H	-0.692352	1.042025	-0.049237
N66	N	0.004734	1.001041	0.203197
H67	H	0.034846	1.033745	0.242304
H68	H	0.035571	0.972169	0.168600
N69	N	-0.098204	0.674418	0.150130
H70	H	-0.097651	0.637429	0.195914
H71	H	-0.055423	0.713452	0.153295
N72	N	-0.092344	0.277104	0.150113
H73	H	-0.049565	0.316137	0.153359
H74	H	-0.136121	0.303526	0.153268
N75	N	-0.098225	0.674469	-0.150312
H76	H	-0.099047	0.730465	-0.139347
H77	H	-0.054759	0.666952	-0.181853
H78	H	-0.095920	0.520778	0.131027
N79	N	-0.089951	0.113085	-0.150332
H80	H	-0.133418	0.120553	-0.181950
H81	H	-0.046861	0.133129	-0.181841
N82	N	0.004729	1.001056	0.376652
H83	H	-0.002482	0.993228	0.435847
H84	H	0.054253	0.992485	0.362097
N85	N	0.004720	1.001090	0.796653
H86	H	0.035606	0.972283	0.831303
H87	H	0.034781	1.033778	0.757513
H88	H	-0.290696	1.014299	-0.000213
N89	N	0.004721	1.001070	0.623193
H90	H	0.034834	1.033776	0.662297
H91	H	0.035557	0.972195	0.588597
H92	H	-0.090086	0.123466	0.131003
N93	N	-0.909311	0.755140	-0.000004
H94	H	-0.900358	0.724783	-0.049151
H95	H	-0.900273	0.724840	0.049174
H96	H	-0.866836	1.023500	-0.000067
N97	N	-0.192882	0.786471	0.796606
H98	H	-0.222990	0.753756	0.757505
H99	H	-0.166181	0.753115	0.831257
H100	H	-0.180316	0.800099	0.634181
H101	H	-0.180301	0.800080	0.365576
N102	N	-0.465287	0.748042	-0.000113
H103	H	-0.515664	0.759337	-0.000088
H104	H	-0.456290	0.717703	-0.049255
H105	H	-0.765336	0.771098	-0.000033
N106	N	-0.192862	0.786418	0.203143
H107	H	-0.242409	0.794965	0.217629
H108	H	-0.185586	0.794270	0.143962
N109	N	-0.092356	0.277175	-0.150326
H110	H	-0.091816	0.240200	-0.196109
H111	H	-0.136101	0.303656	-0.153496
N112	N	-0.313917	0.745623	-0.000177
H113	H	-0.353381	0.702473	-0.000160
H114	H	-0.284102	0.742132	-0.049333
