data_functionalizedCrystal
_audit_creation_method	'MofGen! by Chris Wilmer'
_symmetry_space_group_name_H-M	'P1'
_symmetry_Int_Tables_number	1
_symmetry_cell_setting	triclinic
loop_
_symmetry_equiv_pos_as_xyz
  x,y,z
_cell_length_a	12.759395
_cell_length_b	19.120786
_cell_length_c	12.759387
_cell_angle_alpha	92.476434
_cell_angle_beta	90.020509
_cell_angle_gamma	92.466757
loop_
_atom_site_label
_atom_site_type_symbol
_atom_site_fract_x
_atom_site_fract_y
_atom_site_fract_z
Zn1	Zn	1.588349	-0.279566	0.576121
Zn2	Zn	1.580710	-0.397042	0.392927
Zn3	Zn	1.412645	-0.279604	0.400456
Zn4	Zn	1.405113	-0.396992	0.568569
O5	O	1.496704	-0.338301	0.484518
O6	O	1.734357	-0.295154	0.551830
O7	O	1.558371	-0.381500	0.246902
O8	O	1.442302	-0.181308	0.430070
O9	O	1.728744	-0.381463	0.417238
O10	O	1.571391	-0.181280	0.559130
O11	O	1.434894	-0.295220	0.252433
O12	O	1.264625	-0.295171	0.422747
O13	O	1.429465	-0.381378	0.716595
O14	O	1.259092	-0.381415	0.546259
O15	O	1.564088	-0.295106	0.722143
O16	O	1.551068	-0.495326	0.409915
O17	O	1.422057	-0.495289	0.538958
C18	C	1.223738	-0.338292	0.484501
C19	C	1.106960	-0.338306	0.484517
C20	C	1.101227	-0.428257	0.612904
C21	C	1.043500	-0.473238	0.677100
C22	C	0.933777	-0.473246	0.677112
C23	C	0.881781	-0.428267	0.612924
C24	C	0.939508	-0.383286	0.548728
C25	C	1.049233	-0.383284	0.548720
C26	C	0.945241	-0.293333	0.420348
C27	C	1.054963	-0.293327	0.420329
C28	C	0.893245	-0.248354	0.356160
C29	C	0.950972	-0.203375	0.291957
C30	C	1.060701	-0.203369	0.291946
C31	C	1.112691	-0.248346	0.356133
C32	C	1.484945	-0.520793	0.472823
C33	C	1.480010	-0.598864	0.467855
C34	C	1.544852	-0.635467	0.532770
C35	C	1.540211	-0.708823	0.528104
C36	C	1.470733	-0.745575	0.458516
C37	C	1.405884	-0.708967	0.393598
C38	C	1.410521	-0.635612	0.398270
C39	C	1.453369	-0.967062	0.441049
C40	C	1.448740	-1.040422	0.436380
C41	C	1.583066	-1.040273	0.570888
C42	C	1.587700	-0.966917	0.575549
C43	C	1.522848	-0.930316	0.510635
C44	C	1.465990	-0.820557	0.453743
C45	C	1.527587	-0.855335	0.515415
C46	C	1.770737	-0.338310	0.484537
C47	C	1.887514	-0.338314	0.484544
C48	C	1.496788	-0.338232	0.758556
C49	C	1.496824	-0.338203	0.875335
C50	C	1.508539	-0.155096	0.496282
C51	C	1.513582	-0.077025	0.501295
C52	C	1.496685	-0.338319	0.211550
C53	C	1.496865	-0.338150	0.094784
C54	C	1.637015	-0.248374	0.881132
C55	C	1.707126	-0.203448	0.938892
C56	C	1.707154	-0.203423	1.048615
C57	C	1.637060	-0.248326	1.100581
C58	C	1.566949	-0.293251	1.042821
C59	C	1.566932	-0.293273	0.933095
C60	C	1.426754	-0.383075	1.037024
C61	C	1.426730	-0.383106	0.927301
C62	C	1.356661	-0.427978	1.088990
C63	C	1.286553	-0.472908	1.031229
C64	C	1.286530	-0.472932	0.921500
C65	C	1.356619	-0.428031	0.869541
H66	H	0.886776	-0.509870	0.729392
C67	C	1.339194	-0.595346	0.326862
C68	C	1.344285	-0.514659	0.332004
C69	C	1.272951	-0.474394	0.260598
C70	C	1.196526	-0.514816	0.184052
C71	C	1.191433	-0.595507	0.178907
C72	C	1.262767	-0.635773	0.250312
H73	H	1.400862	-0.484732	0.388671
H74	H	1.276722	-0.414660	0.264407
H75	H	1.143721	-0.485009	0.131193
H76	H	1.134856	-0.625434	0.122240
H77	H	1.258995	-0.695506	0.246504
H78	H	1.593020	-0.738622	0.580957
C79	C	0.893777	-0.153903	0.221357
C80	C	0.773086	-0.153907	0.221377
C81	C	0.715886	-0.104434	0.150775
C82	C	0.779376	-0.054958	0.080153
C83	C	0.900074	-0.054953	0.080131
C84	C	0.957274	-0.104425	0.150733
H85	H	0.726081	-0.190533	0.273658
H86	H	0.626538	-0.104439	0.150791
H87	H	0.737034	-0.018336	0.027889
H88	H	0.947079	-0.018327	0.027850
H89	H	1.046622	-0.104421	0.150716
H90	H	1.637080	-0.248295	1.189924
H91	H	1.190568	-0.428259	0.612892
C92	C	1.784232	-0.154060	0.881729
C93	C	1.784216	-0.154087	0.761037
C94	C	1.861320	-0.104699	0.703879
C95	C	1.938441	-0.055283	0.767413
C96	C	1.938459	-0.055255	0.888112
C97	C	1.861355	-0.104643	0.945270
H98	H	1.727124	-0.190669	0.714000
H99	H	1.861306	-0.104720	0.614530
H100	H	1.995518	-0.018723	0.725101
H101	H	1.995551	-0.018673	0.935149
H102	H	1.861369	-0.104622	1.034619
H103	H	0.792439	-0.428272	0.612949
C104	C	1.372309	-1.080855	0.359833
C105	C	1.414698	-1.131295	0.274177
C106	C	1.338276	-1.171730	0.197634
C107	C	1.219465	-1.161725	0.206746
C108	C	1.177071	-1.111283	0.292405
C109	C	1.253493	-1.070848	0.368949
H110	H	1.502654	-1.138704	0.267429
H111	H	1.369659	-1.209071	0.134223
H112	H	1.162893	-1.191658	0.150084
H113	H	1.089115	-1.103875	0.299154
H114	H	1.222109	-1.033507	0.432359
H115	H	0.803903	-0.248361	0.356179
H116	H	1.635863	-1.070082	0.623738
C117	C	1.209404	-0.522352	0.857967
C118	C	1.132311	-0.571738	0.915131
C119	C	1.055184	-0.621158	0.851604
C120	C	1.055150	-0.621192	0.730911
C121	C	1.132246	-0.571804	0.673740
C122	C	1.209373	-0.522383	0.737268
H123	H	1.132334	-0.571715	1.004481
H124	H	0.998113	-0.657719	0.893926
H125	H	0.998056	-0.657776	0.683884
H126	H	1.132224	-0.571827	0.584391
H127	H	1.266445	-0.485823	0.694946
C128	C	1.382053	-0.926802	0.369632
C129	C	1.302726	-0.876397	0.418280
C130	C	1.231413	-0.836131	0.346854
C131	C	1.239428	-0.846270	0.226782
C132	C	1.318759	-0.896677	0.178128
C133	C	1.390071	-0.936943	0.249553
H134	H	1.296790	-0.868889	0.507170
H135	H	1.172687	-0.798816	0.382872
H136	H	1.186638	-0.816462	0.173908
H137	H	1.324695	-0.904185	0.089237
H138	H	1.448797	-0.974258	0.213535
H139	H	1.085847	-0.509858	0.729362
H140	H	1.356611	-0.428049	0.780198
H141	H	1.644275	-0.936995	0.632213
C142	C	1.621281	-0.595044	0.609318
C143	C	1.692601	-0.635309	0.680728
C144	C	1.769030	-0.594888	0.757280
C145	C	1.774138	-0.514201	0.762423
C146	C	1.702816	-0.473930	0.691011
C147	C	1.626387	-0.514352	0.614459
H148	H	1.688821	-0.695043	0.676923
H149	H	1.821827	-0.624700	0.810144
H150	H	1.830716	-0.484279	0.819091
H151	H	1.706596	-0.414197	0.694815
H152	H	1.573589	-0.484540	0.561595
H153	H	1.764238	-0.166837	1.095644
H154	H	1.107697	-0.166735	0.239678
H155	H	1.356684	-0.427952	1.178333
H156	H	1.202032	-0.248347	0.356127
H157	H	1.229483	-0.509461	1.073549
H158	H	1.349310	-0.738896	0.336942
H159	H	1.584151	-0.825410	0.572077
H160	H	1.409424	-0.850488	0.397081
H161	H	1.637010	-0.248396	0.791789
