data_functionalizedCrystal
_audit_creation_method	'MofGen! by Chris Wilmer'
_symmetry_space_group_name_H-M	'P1'
_symmetry_Int_Tables_number	1
_symmetry_cell_setting	triclinic
loop_
_symmetry_equiv_pos_as_xyz
  x,y,z
_cell_length_a	20.919309
_cell_length_b	19.851628
_cell_length_c	20.919309
_cell_angle_alpha	62.594119
_cell_angle_beta	90.173912
_cell_angle_gamma	57.436910
loop_
_atom_site_label
_atom_site_type_symbol
_atom_site_fract_x
_atom_site_fract_y
_atom_site_fract_z
Zr1	Zr	0.644006	0.679897	-0.056713
O2	O	0.541766	0.820438	-0.158937
O3	O	0.675357	0.539357	-0.025377
O4	O	0.680548	0.668943	-0.153735
O5	O	0.532471	0.699493	0.070672
O6	O	0.790012	0.660302	-0.149630
O7	O	0.536575	0.690852	-0.030579
O8	O	0.780726	0.428497	0.079978
O9	O	0.541757	0.931298	-0.158936
O10	O	0.770409	0.590715	-0.008949
O11	O	0.685654	0.603612	0.063551
O12	O	0.691766	0.756182	-0.087574
O13	O	0.607012	0.769080	-0.015074
Zr14	Zr	0.812043	0.679897	0.111316
Zr15	Zr	0.818589	0.666116	-0.050168
Zr16	Zr	0.637461	0.693678	0.104771
Zr17	Zr	0.643992	0.856707	-0.056713
Zr18	Zr	0.812058	0.503087	0.111316
O19	O	0.780693	0.820437	0.079980
O20	O	0.790000	0.800842	-0.149630
O21	O	0.532459	0.840032	0.070673
O22	O	0.914283	0.539357	0.213540
O23	O	0.923590	0.519762	-0.016070
O24	O	0.666049	0.558952	0.204233
O25	O	0.923579	0.660301	-0.016069
O26	O	0.775502	0.690851	0.208337
O27	O	0.666038	0.699492	0.204233
O28	O	0.919475	0.668942	0.085182
O29	O	0.680527	0.920343	-0.153733
O30	O	0.775523	0.439451	0.208336
O31	O	0.914292	0.428496	0.213539
O32	O	0.919495	0.417542	0.085181
O33	O	0.536554	0.942252	-0.030578
O34	O	0.675324	0.931297	-0.025375
O35	O	0.764283	0.603612	0.142177
O36	O	0.849038	0.590714	0.069677
O37	O	0.770395	0.756182	-0.008948
O38	O	0.685641	0.769080	0.063552
C39	C	0.728043	0.458736	0.027300
C40	C	0.728049	0.383675	0.027300
C41	C	0.774241	0.150404	-0.012231
C42	C	0.698641	0.254082	-0.044978
C43	C	0.728015	0.113530	0.027301
C44	C	0.803622	0.143604	0.060012
C45	C	0.728035	0.246260	0.027300
C46	C	0.652371	0.216264	-0.005489
C47	C	0.757407	0.105732	0.099543
C48	C	0.681760	0.209408	0.066811
C49	C	0.728004	0.037068	0.027300
C50	C	0.728038	0.322726	0.027299
C51	C	0.509649	0.697136	0.019114
C52	C	0.435534	0.702987	0.016335
C53	C	0.441763	0.619365	0.056067
C54	C	0.372122	0.624868	0.053454
C55	C	0.296252	0.713993	0.011105
C56	C	0.290024	0.797622	-0.028628
C57	C	0.359665	0.792118	-0.026011
C58	C	0.083929	0.734932	0.001152
C59	C	0.014286	0.740429	-0.001464
C60	C	0.096389	0.567675	0.080620
C61	C	0.166027	0.562179	0.083230
C62	C	0.159793	0.645807	0.043500
C63	C	0.225066	0.719620	0.008431
C64	C	0.230978	0.640180	0.046179
C65	C	0.946401	0.662658	0.035489
C66	C	1.020516	0.656808	0.038268
C67	C	0.736212	0.662659	-0.174691
C68	C	0.738991	0.656809	-0.243245
C69	C	0.728006	0.901059	0.027302
C70	C	0.728000	0.976119	0.027303
C71	C	0.699247	0.740430	-0.316493
C72	C	0.701869	0.734927	-0.380904
C73	C	0.744230	0.645801	-0.372065
C74	C	0.783979	0.562173	-0.298809
C75	C	0.781361	0.567677	-0.234400
C76	C	0.754190	0.624861	-0.564487
C77	C	0.756802	0.619364	-0.628904
C78	C	0.674693	0.792118	-0.710994
C79	C	0.672076	0.797615	-0.646580
C80	C	0.711828	0.713986	-0.573330
C81	C	0.746908	0.640174	-0.437903
C82	C	0.709154	0.719614	-0.507494
C83	C	0.719837	0.697135	0.229293
C84	C	0.717058	0.702986	0.297848
C85	C	0.946419	0.441497	0.035488
C86	C	1.020540	0.360586	0.038267
C87	C	0.719855	0.475974	0.229292
C88	C	0.717083	0.406764	0.297846
C89	C	0.938232	0.458735	0.237480
C90	C	1.009574	0.383674	0.308813
C91	C	0.517818	0.901059	-0.182877
C92	C	0.446476	0.976120	-0.254210
C93	C	0.509630	0.918297	0.019115
C94	C	0.435509	0.999208	0.016336
C95	C	0.736194	0.883820	-0.174690
C96	C	0.738967	0.953030	-0.243243
C97	C	1.014305	0.322589	-0.001477
C98	C	1.083944	0.246573	0.001118
C99	C	1.159816	0.208552	0.043462
C100	C	1.166050	0.246556	0.083207
C101	C	1.096412	0.322575	0.080607
C102	C	0.756824	0.374263	0.371088
C103	C	0.754216	0.309243	0.435508
C104	C	0.711870	0.276721	0.426684
C105	C	0.672124	0.309229	0.353434
C106	C	0.674728	0.374253	0.289016
C107	C	1.087325	0.341692	0.304467
C108	C	1.154366	0.271174	0.371486
C109	C	1.143653	0.242634	0.442849
C110	C	1.065894	0.284623	0.447193
C111	C	0.998855	0.355145	0.380175
C112	C	0.368724	1.018110	-0.249865
C113	C	0.301684	1.088651	-0.316883
C114	C	0.312396	1.117194	-0.388246
C115	C	0.390156	1.075200	-0.392590
C116	C	0.457195	1.004666	-0.325572
C117	C	0.441745	1.037212	0.056073
C118	C	0.372107	1.113245	0.053460
C119	C	0.296234	1.151269	0.011114
C120	C	0.290001	1.113262	-0.028628
C121	C	0.359638	1.037234	-0.026019
C122	C	0.781319	0.985531	-0.234395
C123	C	0.783940	1.050551	-0.298802
C124	C	0.744203	1.083074	-0.372057
C125	C	0.701849	1.050566	-0.380904
C126	C	0.699234	0.985542	-0.316497
H127	H	0.642625	0.234980	0.100231
H128	H	0.637584	0.870190	-0.653786
Br129	Br	0.221405	1.212922	-0.479194
H130	H	1.096063	0.364918	0.246366
Br131	Br	1.269027	0.194942	0.140673
Br132	Br	1.259887	0.214200	0.365573
H133	H	0.818428	1.077013	-0.291584
Br134	Br	0.839282	0.107719	-0.068018
H135	H	0.673786	0.317544	-0.106074
Br136	Br	0.562713	0.947682	-0.331483
H137	H	0.664747	0.813006	-0.323699
Br138	Br	0.122096	0.840573	-0.049040
Br139	Br	0.910177	0.093678	0.106123
H140	H	0.377198	1.144178	0.085826
H141	H	1.216513	0.146652	0.045574
H142	H	1.198247	0.185209	0.497414
H143	H	0.588413	0.246356	-0.033228
Br144	Br	0.201733	1.254451	0.007581
H145	H	0.228216	1.144232	-0.063105
H146	H	0.354587	0.860213	-0.058355
H147	H	0.813678	0.959062	-0.174753
Br148	Br	0.814303	0.418380	0.383085
H149	H	0.642369	0.400706	0.229381
Br150	Br	0.620747	0.905607	-0.810406
H151	H	0.664742	0.959087	-0.323713
Br152	Br	0.747760	1.171323	-0.459459
Br153	Br	0.187057	0.918580	-0.086096
Br154	Br	1.104889	0.374128	0.134555
H155	H	0.398869	1.098450	-0.450702
H156	H	0.782281	0.042250	0.160626
H157	H	0.935548	0.389319	0.383724
Br158	Br	0.544726	0.498402	0.113538
H159	H	0.377201	0.556774	0.085809
H160	H	0.786585	0.282783	0.495145
H161	H	0.669497	1.077056	-0.440556
Br162	Br	0.614659	0.265082	0.341472
H163	H	0.227801	0.489602	0.117701
Br164	Br	1.051369	0.245880	0.544050
Br165	Br	0.647929	0.848419	-0.480313
Br166	Br	0.544706	0.985628	0.113547
Br167	Br	0.354163	0.979387	-0.153023
H168	H	0.791297	0.546784	-0.621699
Br169	Br	0.351161	0.985663	-0.079949
H170	H	0.101455	0.499590	0.112966
Br171	Br	0.804391	0.519221	-0.425914
H172	H	-0.047492	0.813010	-0.035954
Br173	Br	0.196163	1.145626	-0.310970
Br174	Br	0.911344	0.374175	-0.058952
H175	H	0.786559	0.556765	-0.504852
H176	H	0.292754	0.567615	0.080663
Br177	Br	0.841473	0.441215	-0.286812
Br178	Br	0.835314	0.454185	-0.134988
H179	H	0.078843	0.803027	-0.031212
Br180	Br	1.075465	0.195011	-0.052824
H181	H	0.674667	0.792179	-0.514687
H182	H	0.709756	0.223775	0.479144
