data_functionalizedCrystal
_audit_creation_method	'MofGen! by Chris Wilmer'
_symmetry_space_group_name_H-M	'P1'
_symmetry_Int_Tables_number	1
_symmetry_cell_setting	triclinic
loop_
_symmetry_equiv_pos_as_xyz
  x,y,z
_cell_length_a	9.065215
_cell_length_b	15.995292
_cell_length_c	8.140239
_cell_angle_alpha	89.999675
_cell_angle_beta	89.997810
_cell_angle_gamma	84.241657
loop_
_atom_site_label
_atom_site_type_symbol
_atom_site_fract_x
_atom_site_fract_y
_atom_site_fract_z
O1	O	1.957465	0.122762	-0.136581
O2	O	2.457465	0.622762	0.363419
O3	O	1.527938	0.132835	-0.136588
O4	O	2.027938	0.632835	0.363412
O5	O	1.754488	0.005996	-0.136587
O6	O	2.254488	0.505996	0.363413
O7	O	1.730915	0.249600	-0.136582
O8	O	2.230915	0.749600	0.363418
O9	O	1.754475	0.005995	0.136640
O10	O	2.254475	0.505995	0.636640
O11	O	1.527926	0.132833	0.136640
O12	O	2.027926	0.632833	0.636640
O13	O	1.957452	0.122760	0.136646
O14	O	2.457452	0.622760	0.636646
Zn15	Zn	1.742687	0.127796	0.180023
Zn16	Zn	2.242687	0.627796	0.680023
Zn17	Zn	1.742703	0.127798	-0.179965
Zn18	Zn	2.242703	0.627798	0.320035
O19	O	1.730903	0.249598	0.136645
O20	O	2.230903	0.749598	0.636645
C21	C	1.472969	0.131866	0.000025
C22	C	1.972969	0.631866	0.500025
C23	C	1.309195	0.128973	0.000022
C24	C	1.809195	0.628973	0.500022
C25	C	1.753522	-0.025207	0.000023
C26	C	2.253522	0.474793	0.500023
C27	C	1.750646	-0.118182	0.000010
C28	C	2.250646	0.381818	0.500010
C29	C	1.740072	-0.456001	0.000025
C30	C	2.240072	0.043999	0.500025
C31	C	1.903589	-0.431449	0.000638
C32	C	2.403589	0.068551	0.500638
C33	C	1.906697	-0.334750	0.000016
C34	C	2.406697	0.165250	0.500016
C35	C	1.745319	-0.288405	0.000019
C36	C	2.245319	0.211595	0.500019
C37	C	1.663575	-0.318124	-0.156003
C38	C	2.163575	0.181876	0.343997
C39	C	1.661606	-0.414930	-0.156128
C40	C	2.161606	0.085070	0.343872
C41	C	1.658253	-0.414814	0.154582
C42	C	2.158253	0.085186	0.654582
C43	C	1.664313	-0.318276	0.156638
C44	C	2.164313	0.181724	0.656638
C45	C	1.748275	-0.193686	0.000010
C46	C	2.248275	0.306314	0.500010
C47	C	1.737110	-0.550719	0.000023
C48	C	2.237110	-0.050719	0.500023
C49	C	2.012422	0.123728	0.000030
C50	C	2.512422	0.623728	0.500030
C51	C	2.176196	0.126621	0.000022
C52	C	2.676196	0.626621	0.500022
C53	C	1.731869	0.280802	0.000032
C54	C	2.231869	0.780802	0.500032
C55	C	1.734745	0.373777	0.000034
C56	C	2.234745	0.873777	0.500034
N57	N	1.742687	0.127795	0.425706
N58	N	2.242687	0.627795	0.925706
N59	N	1.742716	0.127794	-0.425648
N60	N	2.242716	0.627794	0.074352
H61	H	1.966611	-0.458969	0.112528
H62	H	2.466611	0.041031	0.612528
N63	N	1.987016	-0.310255	0.140297
N64	N	2.487016	0.189745	0.640297
N65	N	2.003066	-0.234476	0.163831
N66	N	2.503066	0.265524	0.663831
H67	H	2.059798	-0.217179	0.262907
H68	H	2.559798	0.282821	0.762907
N69	N	1.738944	-0.294387	0.301437
N70	N	2.238944	0.205613	0.801437
N71	N	1.671397	-0.246987	0.404647
N72	N	2.171397	0.253013	0.904647
H73	H	1.724105	-0.230105	0.506907
H74	H	2.224105	0.269895	1.006907
N75	N	1.516543	-0.278034	0.168421
N76	N	2.016543	0.221966	0.668421
N77	N	1.408868	-0.321109	0.168818
N78	N	1.908868	0.178891	0.668818
H79	H	1.304503	-0.292681	0.177117
H80	H	1.804503	0.207319	0.677117
H81	H	1.718229	-0.441317	-0.272759
H82	H	2.218229	0.058683	0.227241
H83	H	1.537892	-0.429717	0.155635
H84	H	2.037892	0.070283	0.655635
H85	H	1.720350	-0.297633	-0.272116
H86	H	2.220350	0.202367	0.227884
N87	N	1.514615	-0.279258	-0.163316
N88	N	2.014615	0.220742	0.336684
N89	N	1.473073	-0.234183	-0.283384
N90	N	1.973073	0.265817	0.216616
H91	H	1.367870	-0.206730	-0.288548
H92	H	1.867870	0.293270	0.211452
H93	H	1.966271	-0.459991	-0.110623
H94	H	2.466271	0.040009	0.389377
H95	H	1.971105	-0.315857	-0.112020
H96	H	2.471105	0.184143	0.387980
H97	H	1.541715	-0.430389	-0.163195
H98	H	2.041715	0.069611	0.336805
N99	N	1.722507	-0.449786	0.302926
N100	N	2.222507	0.050214	0.802926
N101	N	1.829395	-0.505498	0.296534
N102	N	2.329395	-0.005498	0.796534
H103	H	1.874789	-0.530201	0.401294
H104	H	2.374789	-0.030201	0.901294
