data_functionalizedCrystal
_audit_creation_method	'MofGen! by Chris Wilmer'
_symmetry_space_group_name_H-M	'P1'
_symmetry_Int_Tables_number	1
_symmetry_cell_setting	triclinic
loop_
_symmetry_equiv_pos_as_xyz
  x,y,z
_cell_length_a	6.817900
_cell_length_b	9.109307
_cell_length_c	13.212919
_cell_angle_alpha	93.779823
_cell_angle_beta	106.298290
_cell_angle_gamma	111.764999
loop_
_atom_site_label
_atom_site_type_symbol
_atom_site_fract_x
_atom_site_fract_y
_atom_site_fract_z
V1	V	-4.086626	-0.175104	-0.341217
O2	O	-4.015595	0.057106	-0.314213
O3	O	-4.092942	-0.394031	-0.358609
O4	O	-4.039146	-0.151046	-0.481035
O5	O	-4.069764	-0.187562	-0.190939
V6	V	-4.563044	-0.149853	-0.320847
O7	O	-4.363468	-0.230493	-0.385902
O8	O	-4.736399	-0.094464	-0.276162
O9	O	-4.333521	0.069074	-0.303455
O10	O	-4.751472	-0.382063	-0.347852
O11	O	-4.697303	-0.137395	-0.471125
O12	O	-4.387318	-0.173912	-0.181029
C13	C	-3.951225	-0.448068	-0.358316
C14	C	-4.037682	-0.626907	-0.373468
C15	C	-3.882600	-0.138114	-0.514481
C16	C	-3.925426	-0.119893	-0.628912
C17	C	-4.160579	-0.375787	-0.899769
C18	C	-4.200821	-0.358674	-1.007288
C19	C	-4.046169	-0.068555	-0.951474
C20	C	-4.005927	-0.085668	-0.843954
C21	C	-4.063133	-0.239289	-0.818106
C22	C	-4.022874	-0.256400	-0.710584
C23	C	-3.868238	0.033717	-0.654772
C24	C	-3.908481	0.050830	-0.762292
C25	C	-4.138583	0.123102	-0.303746
C26	C	-4.031364	0.301940	-0.288601
C27	C	-4.207207	-0.186849	-0.147578
C28	C	-4.143618	-0.205063	-0.033146
H29	H	-3.959855	-0.622161	-0.204330
H30	H	-4.069445	-0.381486	-0.689541
C31	C	-4.134286	-0.729437	-0.487319
H32	H	-4.181624	-0.840219	-0.482933
H33	H	-4.258282	-0.710461	-0.528397
H34	H	-4.022514	-0.700900	-0.520859
H35	H	-4.207134	-0.500870	-0.878723
C36	C	-4.308005	-0.508821	-1.097114
H37	H	-4.336294	-0.602756	-1.066315
H38	H	-4.444749	-0.512808	-1.144034
H39	H	-4.209070	-0.503543	-1.136399
C40	C	-3.983266	0.100408	-0.979922
H41	H	-4.021186	0.091044	-1.055653
H42	H	-4.062725	0.152577	-0.954649
H43	H	-3.827052	0.161839	-0.947026
H44	H	-3.861920	0.175903	-0.783353
C45	C	-3.761094	0.183869	-0.564942
H46	H	-3.745342	0.151679	-0.497204
H47	H	-3.618088	0.250930	-0.567271
H48	H	-3.853798	0.241615	-0.574924
