data_functionalizedCrystal
_audit_creation_method	'MofGen! by Chris Wilmer'
_symmetry_space_group_name_H-M	'P1'
_symmetry_Int_Tables_number	1
_symmetry_cell_setting	triclinic
loop_
_symmetry_equiv_pos_as_xyz
  x,y,z
_cell_length_a	16.959455
_cell_length_b	16.959454
_cell_length_c	18.215399
_cell_angle_alpha	89.973895
_cell_angle_beta	89.982045
_cell_angle_gamma	90.019023
loop_
_atom_site_label
_atom_site_type_symbol
_atom_site_fract_x
_atom_site_fract_y
_atom_site_fract_z
Zn1	Zn	1.208393	-0.314693	-0.416160
Zn2	Zn	1.541727	0.018640	-0.082826
Zn3	Zn	1.875060	0.351974	0.250507
Zn4	Zn	1.208313	-0.446884	-0.293103
Zn5	Zn	1.541646	-0.113551	0.040231
Zn6	Zn	1.874980	0.219783	0.373564
Zn7	Zn	1.076219	-0.314721	-0.293105
Zn8	Zn	1.409552	0.018612	0.040229
Zn9	Zn	1.742886	0.351946	0.373562
Zn10	Zn	1.076187	-0.446831	-0.416125
Zn11	Zn	1.409520	-0.113498	-0.082792
Zn12	Zn	1.742853	0.219836	0.250542
O13	O	1.142278	-0.380782	-0.354623
O14	O	1.475611	-0.047449	-0.021290
O15	O	1.808945	0.285884	0.312044
O16	O	1.318994	-0.332239	-0.399850
O17	O	1.652327	0.001094	-0.066516
O18	O	1.985660	0.334428	0.266817
O19	O	1.190770	-0.429386	-0.190119
O20	O	1.524104	-0.096053	0.143215
O21	O	1.857437	0.237280	0.476548
O22	O	1.093799	-0.204106	-0.309444
O23	O	1.427133	0.129227	0.023890
O24	O	1.760466	0.462560	0.357223
O25	O	1.318935	-0.429359	-0.309440
O26	O	1.652268	-0.096026	0.023893
O27	O	1.985601	0.237308	0.357227
O28	O	1.190907	-0.204086	-0.399852
O29	O	1.524241	0.129247	-0.066518
O30	O	1.857574	0.462581	0.266815
O31	O	1.093722	-0.332287	-0.190120
O32	O	1.427055	0.001047	0.143213
O33	O	1.760388	0.334380	0.476546
O34	O	0.965604	-0.332235	-0.309410
O35	O	1.298937	0.001098	0.023923
O36	O	1.632271	0.334431	0.357257
O37	O	1.093744	-0.429269	-0.519114
O38	O	1.427077	-0.095935	-0.185781
O39	O	1.760411	0.237398	0.147553
O40	O	0.965580	-0.429296	-0.399793
O41	O	1.298913	-0.095963	-0.066459
O42	O	1.632247	0.237371	0.266874
O43	O	1.190876	-0.332188	-0.519140
O44	O	1.524209	0.001146	-0.185806
O45	O	1.857543	0.334479	0.147527
O46	O	1.190739	-0.557488	-0.309406
O47	O	1.524072	-0.224155	0.023927
O48	O	1.857406	0.109179	0.357260
O49	O	1.093666	-0.557449	-0.399791
O50	O	1.427000	-0.224116	-0.066457
O51	O	1.760333	0.109218	0.266876
C52	C	0.936912	-0.380763	-0.354598
C53	C	1.270245	-0.047430	-0.021265
C54	C	1.603578	0.285903	0.312068
C55	C	0.849055	-0.380774	-0.354605
C56	C	1.182388	-0.047441	-0.021272
C57	C	1.515722	0.285892	0.312062
C58	C	1.142212	-0.586149	-0.354611
C59	C	1.475545	-0.252815	-0.021277
C60	C	1.808878	0.080518	0.312056
C61	C	1.142256	-0.674005	-0.354630
C62	C	1.475589	-0.340672	-0.021296
C63	C	1.808922	-0.007338	0.312037
C64	C	0.807770	-0.330167	-0.307622
C65	C	1.141103	0.003166	0.025711
C66	C	1.474437	0.336500	0.359044
C67	C	0.807787	-0.431387	-0.401599
C68	C	1.141120	-0.098054	-0.068265
C69	C	1.474453	0.235279	0.265068
C70	C	0.725241	-0.431396	-0.401609
C71	C	1.058574	-0.098063	-0.068276
C72	C	1.391907	0.235270	0.265057
C73	C	0.683956	-0.380789	-0.354627
C74	C	1.017289	-0.047456	-0.021293
C75	C	1.350622	0.285877	0.312040
C76	C	0.725217	-0.330173	-0.307633
C77	C	1.058550	0.003160	0.025700
C78	C	1.391883	0.336494	0.359033
C79	C	0.683974	-0.482006	-0.448607
C80	C	1.017307	-0.148673	-0.115274
C81	C	1.350640	0.184661	0.218059
C82	C	0.601423	-0.482017	-0.448620
C83	C	0.934756	-0.148683	-0.115287
C84	C	1.268089	0.184650	0.218046
C85	C	0.560136	-0.431413	-0.401634
C86	C	0.893470	-0.098079	-0.068300
C87	C	1.226803	0.235254	0.265033
C88	C	0.601402	-0.380795	-0.354638
C89	C	0.934736	-0.047462	-0.021304
C90	C	1.268069	0.285872	0.312029
C91	C	0.560117	-0.330188	-0.307655
C92	C	0.893450	0.003145	0.025678
C93	C	1.226784	0.336479	0.359012
C94	C	0.601382	-0.279574	-0.260655
C95	C	0.934715	0.053760	0.072679
C96	C	1.268048	0.387093	0.406012
C97	C	0.683930	-0.279569	-0.260646
C98	C	1.017263	0.053764	0.072687
C99	C	1.350597	0.387097	0.406020
C100	C	0.477588	-0.431417	-0.401642
C101	C	0.810921	-0.098084	-0.068309
C102	C	1.144254	0.235249	0.265025
C103	C	0.477564	-0.330194	-0.307666
C104	C	0.810897	0.003139	0.025667
C105	C	1.144230	0.336473	0.359001
C106	C	1.091806	-1.045490	-0.401681
C107	C	1.425139	-0.712157	-0.068348
C108	C	1.758472	-0.378824	0.264986
C109	C	1.192971	-1.045471	-0.307640
C110	C	1.526304	-0.712138	0.025693
C111	C	1.859637	-0.378804	0.359027
C112	C	1.192943	-0.962925	-0.307633
C113	C	1.526276	-0.629592	0.025700
C114	C	1.859610	-0.296258	0.359033
C115	C	1.142345	-0.921658	-0.354650
C116	C	1.475678	-0.588325	-0.021317
C117	C	1.809012	-0.254991	0.312016
C118	C	1.091775	-0.962937	-0.401674
C119	C	1.425108	-0.629603	-0.068341
C120	C	1.758441	-0.296270	0.264993
C121	C	1.243507	-0.921640	-0.260605
C122	C	1.576840	-0.588307	0.072728
C123	C	1.910173	-0.254973	0.406062
C124	C	1.243481	-0.839089	-0.260596
C125	C	1.576814	-0.505756	0.072737
C126	C	1.910147	-0.172423	0.406071
C127	C	1.192886	-0.797821	-0.307617
C128	C	1.526219	-0.464487	0.025716
C129	C	1.859553	-0.131154	0.359049
C130	C	1.142314	-0.839105	-0.354643
C131	C	1.475648	-0.505771	-0.021310
C132	C	1.808981	-0.172438	0.312023
C133	C	1.091716	-0.797837	-0.401661
C134	C	1.425050	-0.464504	-0.068327
C135	C	1.758383	-0.131171	0.265006
C136	C	1.041148	-0.839120	-0.448691
C137	C	1.374481	-0.505786	-0.115358
C138	C	1.707815	-0.172453	0.217976
C139	C	1.041180	-0.921668	-0.448695
C140	C	1.374513	-0.588335	-0.115362
C141	C	1.707847	-0.255002	0.217971
C142	C	1.192854	-0.715272	-0.307613
C143	C	1.526187	-0.381939	0.025721
C144	C	1.859520	-0.048606	0.359054
C145	C	1.091685	-0.715284	-0.401654
C146	C	1.425019	-0.381951	-0.068320
C147	C	1.758352	-0.048617	0.265013
C148	C	1.348446	-0.380802	-0.354649
C149	C	1.681780	-0.047468	-0.021315
C150	C	2.015113	0.285865	0.312018
C151	C	1.436303	-0.380810	-0.354659
C152	C	1.769636	-0.047477	-0.021326
C153	C	2.102969	0.285857	0.312007
C154	C	1.142315	-0.380719	-0.546576
C155	C	1.475649	-0.047386	-0.213243
C156	C	1.808982	0.285948	0.120091
C157	C	1.142331	-0.380692	-0.628375
C158	C	1.475665	-0.047359	-0.295042
C159	C	1.808998	0.285974	0.038292
C160	C	1.142366	-0.174614	-0.354652
C161	C	1.475699	0.158719	-0.021318
C162	C	1.809033	0.492053	0.312015
C163	C	1.142404	-0.086757	-0.354664
C164	C	1.475737	0.246576	-0.021331
C165	C	1.809070	0.579909	0.312003
C166	C	1.091841	-0.330098	-0.816571
C167	C	1.425174	0.003235	-0.483237
C168	C	1.758507	0.336568	-0.149904
C169	C	1.091854	-0.330082	-0.893430
C170	C	1.425188	0.003251	-0.560096
C171	C	1.758521	0.336584	-0.226763
C172	C	1.192916	-0.431192	-0.893417
C173	C	1.526250	-0.097858	-0.560084
C174	C	1.859583	0.235475	-0.226751
C175	C	1.192898	-0.431211	-0.816560
C176	C	1.526231	-0.097878	-0.483227
C177	C	1.859565	0.235456	-0.149893
C178	C	1.142361	-0.380660	-0.778139
C179	C	1.475695	-0.047327	-0.444805
C180	C	1.809028	0.286007	-0.111472
C181	C	1.142393	-0.380625	-0.931855
C182	C	1.475727	-0.047291	-0.598521
C183	C	1.809060	0.286042	-0.265188
C184	C	1.142409	-0.380608	-1.015188
C185	C	1.475742	-0.047274	-0.681855
C186	C	1.809075	0.286059	-0.348522
C187	C	1.142345	-0.380678	-0.694800
C188	C	1.475678	-0.047344	-0.361466
C189	C	1.809012	0.285989	-0.028133
C190	C	1.142286	-0.380788	-0.163417
C191	C	1.475620	-0.047455	0.169916
C192	C	1.808953	0.285879	0.503250
C193	C	1.142424	-0.380592	-0.081618
C194	C	1.475757	-0.047259	0.251715
C195	C	1.809090	0.286074	0.585048
H196	H	0.443955	-0.288984	-0.269405
H197	H	0.777288	0.044349	0.063928
H198	H	1.110622	0.377683	0.397261
H199	H	1.050690	-0.288936	-0.785290
H200	H	1.384024	0.044397	-0.451957
H201	H	1.717357	0.377730	-0.118624
H202	H	1.234022	-0.681664	-0.269318
H203	H	1.567355	-0.348331	0.064016
H204	H	1.900689	-0.014997	0.397349
H205	H	1.234040	-0.472388	-0.785268
H206	H	1.567374	-0.139054	-0.451934
H207	H	1.900707	0.194279	-0.118601
Cl208	Cl	1.028241	-1.097385	-0.460805
Cl209	Cl	1.361574	-0.764052	-0.127472
Cl210	Cl	1.694907	-0.430719	0.205861
H211	H	0.717594	-0.523205	-0.486860
H212	H	1.050927	-0.189872	-0.153527
H213	H	1.384261	0.143461	0.179807
H214	H	1.050714	-0.288911	-0.924718
H215	H	1.384048	0.044423	-0.591384
H216	H	1.717381	0.377756	-0.258051
Cl217	Cl	1.256447	-0.494736	-0.941723
Cl218	Cl	1.589780	-0.161403	-0.608390
Cl219	Cl	1.923114	0.171931	-0.275057
H220	H	0.841406	-0.472586	-0.439853
H221	H	1.174739	-0.139253	-0.106519
H222	H	1.508072	0.194081	0.226814
Cl223	Cl	0.977538	-0.787232	-0.507792
Cl224	Cl	1.310871	-0.453898	-0.174459
Cl225	Cl	1.644205	-0.120565	0.158874
H226	H	0.717535	-0.238361	-0.222382
H227	H	1.050868	0.094972	0.110951
H228	H	1.384202	0.428305	0.444285
Cl229	Cl	0.859642	-0.266543	-0.248538
Cl230	Cl	1.192976	0.066790	0.084796
Cl231	Cl	1.526309	0.400124	0.418129
Cl232	Cl	0.549555	-0.545648	-0.507702
Cl233	Cl	0.882888	-0.212314	-0.174369
Cl234	Cl	1.216222	0.121019	0.158965
Cl235	Cl	0.549471	-0.215950	-0.201599
Cl236	Cl	0.882804	0.117383	0.131734
Cl237	Cl	1.216137	0.450717	0.465068
H238	H	0.443994	-0.472622	-0.439913
H239	H	0.777327	-0.139288	-0.106580
H240	H	1.110661	0.194045	0.226753
H241	H	1.050485	-0.681689	-0.439944
H242	H	1.383818	-0.348356	-0.106610
H243	H	1.717152	-0.015023	0.226723
Cl244	Cl	1.307116	-0.973522	-0.201507
Cl245	Cl	1.640449	-0.640188	0.131827
Cl246	Cl	1.973783	-0.306855	0.465160
Cl247	Cl	0.977613	-0.973570	-0.507812
Cl248	Cl	1.310946	-0.640237	-0.174479
Cl249	Cl	1.644280	-0.306904	0.158855
Cl250	Cl	1.307058	-0.787199	-0.201480
Cl251	Cl	1.640391	-0.453866	0.131854
Cl252	Cl	1.973724	-0.120532	0.465187
Cl253	Cl	1.256576	-1.097350	-0.248537
Cl254	Cl	1.589910	-0.764017	0.084796
Cl255	Cl	1.923243	-0.430684	0.418130
