data_functionalizedCrystal
_audit_creation_method	'MofGen! by Chris Wilmer'
_symmetry_space_group_name_H-M	'P1'
_symmetry_Int_Tables_number	1
_symmetry_cell_setting	triclinic
loop_
_symmetry_equiv_pos_as_xyz
  x,y,z
_cell_length_a	8.559649
_cell_length_b	9.798715
_cell_length_c	8.559649
_cell_angle_alpha	89.999058
_cell_angle_beta	69.778664
_cell_angle_gamma	89.996248
loop_
_atom_site_label
_atom_site_type_symbol
_atom_site_fract_x
_atom_site_fract_y
_atom_site_fract_z
O1	O	2.126882	-0.113470	-0.055040
O2	O	1.651397	-0.113475	0.028741
O3	O	1.931030	-0.113470	-0.250892
O4	O	1.847249	-0.113474	0.224593
O5	O	1.931008	0.113512	-0.250887
O6	O	1.651375	0.113507	0.028746
O7	O	2.126860	0.113513	-0.055035
Zn8	Zn	1.889114	0.149548	-0.013144
Zn9	Zn	1.889143	-0.149511	-0.013150
O10	O	1.847227	0.113508	0.224598
C11	C	1.591077	0.000015	0.035093
C12	C	1.411378	0.000013	0.053992
N13	N	1.889107	0.353648	-0.013142
C14	C	2.006576	0.421427	-0.131008
C15	C	2.006601	0.578589	-0.131015
C16	C	2.187180	0.000019	-0.061387
C17	C	2.366879	0.000012	-0.080286
C18	C	1.937369	0.000018	-0.311198
C19	C	1.956268	0.000011	-0.490898
N20	N	1.889151	0.646390	-0.013152
C21	C	1.840889	0.000016	0.284904
C22	C	1.821990	0.000015	0.464604
H23	H	1.466258	0.000007	-0.209705
Br24	Br	1.245737	-0.000008	0.269719
H25	H	2.085696	0.000023	-0.590286
H26	H	2.107124	0.363106	-0.231920
Br27	Br	2.174246	0.675730	-0.299204
Br28	Br	1.721492	0.450844	0.155039
Br29	Br	1.606272	0.000021	-0.369763
H30	H	1.788580	0.588112	0.087769
