data_functionalizedCrystal
_audit_creation_method	'MofGen! by Chris Wilmer'
_symmetry_space_group_name_H-M	'P1'
_symmetry_Int_Tables_number	1
_symmetry_cell_setting	triclinic
loop_
_symmetry_equiv_pos_as_xyz
  x,y,z
_cell_length_a	13.033409
_cell_length_b	13.031981
_cell_length_c	13.032268
_cell_angle_alpha	89.068348
_cell_angle_beta	105.162573
_cell_angle_gamma	90.920217
loop_
_atom_site_label
_atom_site_type_symbol
_atom_site_fract_x
_atom_site_fract_y
_atom_site_fract_z
Zn1	Zn	1.474940	-0.644045	-0.321287
Zn2	Zn	1.480419	-0.794830	-0.126685
Zn3	Zn	1.324196	-0.605824	-0.170605
Zn4	Zn	1.280341	-0.794792	-0.326840
O5	O	1.389974	-0.709873	-0.236354
O6	O	1.622488	-0.680058	-0.274768
O7	O	1.480342	-0.753778	0.014316
O8	O	1.360253	-0.468707	-0.206650
O9	O	1.626513	-0.790839	-0.131794
O10	O	1.471004	-0.496787	-0.317355
O11	O	1.365565	-0.614916	-0.017952
O12	O	1.171557	-0.614880	-0.212035
O13	O	1.285509	-0.790775	-0.472930
O14	O	1.139338	-0.753713	-0.326820
O15	O	1.428480	-0.680022	-0.468850
O16	O	1.437818	-0.937012	-0.137179
O17	O	1.290821	-0.936984	-0.284233
C18	C	1.117378	-0.680146	-0.274796
C19	C	1.000755	-0.667455	-0.291264
C20	C	0.830236	-0.703389	-0.244799
C21	C	0.950773	-0.716508	-0.227773
C22	C	1.360181	-0.973871	-0.206561
C23	C	1.347526	-1.086825	-0.193837
C24	C	1.396631	-1.150997	-0.243008
C25	C	1.383553	-1.267741	-0.229858
C26	C	1.663634	-0.739716	-0.197762
C27	C	1.780251	-0.752434	-0.181317
C28	C	1.351491	-0.739657	-0.510025
C29	C	1.335092	-0.752350	-0.626647
C30	C	1.419909	-0.444849	-0.266282
C31	C	1.432666	-0.331911	-0.279036
C32	C	1.398521	-0.703210	-0.676622
C33	C	1.381573	-0.716327	-0.797158
C34	C	1.428376	-0.680137	0.036252
C35	C	1.445010	-0.667181	0.152870
H36	H	1.448351	-1.119509	-0.294845
O37	O	1.524637	-0.605305	-0.791655
C38	C	1.481147	-0.526298	-0.744140
H39	H	1.399874	-0.551714	-0.734983
H40	H	1.472215	-0.454311	-0.796457
C41	C	1.655315	-0.471688	-0.645179
C42	C	1.555497	-0.502908	-0.633925
H43	H	1.701179	-0.457255	-0.577195
H44	H	1.684616	-0.524913	-0.677193
H45	H	1.647857	-0.411702	-0.688781
H46	H	1.562955	-0.562899	-0.590335
H47	H	1.526199	-0.449692	-0.601900
O48	O	1.321680	-1.305242	-0.168156
C49	C	1.216754	-1.270517	-0.208618
H50	H	1.202858	-1.249776	-0.296464
H51	H	1.204128	-1.199910	-0.163078
C52	C	1.155029	-1.381458	-0.087771
C53	C	1.137960	-1.355991	-0.195668
H54	H	1.106424	-1.434180	-0.079780
H55	H	1.225720	-1.404850	-0.060508
H56	H	1.144509	-1.322611	-0.049834
H57	H	1.148493	-1.414834	-0.233601
H58	H	1.067268	-1.332611	-0.222937
O59	O	1.301897	-0.778107	-0.852709
C60	C	1.302703	-0.777440	-0.960692
H61	H	1.385355	-0.754592	-0.967892
H62	H	1.242236	-0.719909	-1.006681
C63	C	1.172102	-0.913353	-0.997957
C64	C	1.273620	-0.885299	-1.006798
H65	H	1.154158	-0.979884	-1.026400
H66	H	1.171555	-0.913801	-0.925207
H67	H	1.121725	-0.865402	-1.036280
H68	H	1.323997	-0.933242	-0.968464
H69	H	1.274174	-0.884862	-1.079543
H70	H	0.783791	-0.651691	-0.311757
H71	H	1.295797	-1.118315	-0.142012
H72	H	1.484388	-1.300427	-0.330876
O73	O	1.478153	-0.641359	-0.621126
C74	C	1.434683	-0.562353	-0.573592
H75	H	1.353398	-0.587751	-0.564453
H76	H	1.425780	-0.490351	-0.625885
C77	C	1.608862	-0.507809	-0.474596
C78	C	1.509030	-0.539007	-0.463363
H79	H	1.654724	-0.493404	-0.406604
H80	H	1.638150	-0.561034	-0.506623
H81	H	1.601428	-0.447812	-0.518178
H82	H	1.516463	-0.599011	-0.419793
H83	H	1.479745	-0.485791	-0.431326
H84	H	0.997211	-0.768219	-0.160819
O85	O	1.255471	-0.814260	-0.682063
C86	C	1.298944	-0.893233	-0.729638
H87	H	1.385491	-0.904940	-0.684187
H88	H	1.294515	-0.871182	-0.815688
C89	C	1.129209	-0.979094	-0.782588
C90	C	1.235504	-0.993478	-0.726758
H91	H	1.090075	-1.040929	-0.780816
H92	H	1.099919	-0.925886	-0.750539
H93	H	1.125533	-0.960715	-0.854291
H94	H	1.239180	-1.011844	-0.655054
H95	H	1.264794	-1.046692	-0.758795
O96	O	0.835569	-0.814270	-0.101541
C97	C	0.794230	-0.915163	-0.116596
H98	H	0.751678	-0.926279	-0.204046
H99	H	0.735620	-0.928645	-0.066220
C100	C	0.937990	-0.978493	0.024446
C101	C	0.885735	-0.992148	-0.082963
H102	H	0.994433	-1.025982	0.045197
H103	H	0.965840	-0.910519	0.034593
H104	H	0.889138	-0.989726	0.066413
H105	H	0.934584	-0.980903	-0.124929
H106	H	0.857895	-1.060122	-0.093116
H107	H	0.954316	-0.615753	-0.358226
