data_functionalizedCrystal
_audit_creation_method	'MofGen! by Chris Wilmer'
_symmetry_space_group_name_H-M	'P1'
_symmetry_Int_Tables_number	1
_symmetry_cell_setting	triclinic
loop_
_symmetry_equiv_pos_as_xyz
  x,y,z
_cell_length_a	13.635800
_cell_length_b	10.992421
_cell_length_c	11.102300
_cell_angle_alpha	88.113316
_cell_angle_beta	71.394150
_cell_angle_gamma	108.764763
loop_
_atom_site_label
_atom_site_type_symbol
_atom_site_fract_x
_atom_site_fract_y
_atom_site_fract_z
V1	V	-2.056180	-0.177760	0.396239
O2	O	-2.035261	0.008542	0.388714
O3	O	-2.044976	-0.352469	0.393511
O4	O	-2.044564	-0.175026	0.569060
O5	O	-2.035676	-0.170129	0.211950
V6	V	-2.294679	-0.155476	0.374198
O7	O	-2.193965	-0.226642	0.444586
O8	O	-2.381993	-0.106595	0.325851
O9	O	-2.194280	0.019232	0.376926
O10	O	-2.374296	-0.341779	0.381723
O11	O	-2.373881	-0.163108	0.558487
O12	O	-2.194692	-0.158211	0.201377
V13	V	-1.556180	-0.177760	0.396239
O14	O	-1.535261	0.008542	0.388714
O15	O	-1.544976	-0.352469	0.393511
O16	O	-1.544564	-0.175026	0.569060
O17	O	-1.535676	-0.170129	0.211950
V18	V	-1.794679	-0.155476	0.374198
O19	O	-1.693965	-0.226642	0.444586
O20	O	-1.881993	-0.106595	0.325851
O21	O	-1.694280	0.019232	0.376926
O22	O	-1.874296	-0.341779	0.381723
O23	O	-1.873881	-0.163108	0.558487
O24	O	-1.694692	-0.158211	0.201377
C25	C	-1.970230	-0.395060	0.387256
C26	C	-2.001797	-0.537886	0.386178
C27	C	-1.935650	-0.733173	0.377487
C28	C	-1.902607	-0.584529	0.378104
C29	C	-2.037384	-0.576522	0.267659
C30	C	-2.069505	-0.725065	0.266404
C31	C	-2.134678	-0.763646	0.509361
C32	C	-2.100145	-0.615133	0.511932
C33	C	-1.969704	-0.168711	0.611184
C34	C	-2.000935	-0.167632	0.752467
C35	C	-2.100696	0.061816	0.383178
C36	C	-2.058750	0.204641	0.384264
C37	C	-2.101222	-0.164530	0.159246
C38	C	-2.059610	-0.165603	0.017963
C39	C	-1.470230	-0.395060	0.387256
C40	C	-1.501797	-0.537886	0.386178
C41	C	-1.469704	-0.168711	0.611184
C42	C	-1.500935	-0.167632	0.752467
C43	C	-2.107627	-0.173541	0.825315
C44	C	-2.136965	-0.172522	0.958063
C45	C	-1.952907	-0.159689	0.945104
C46	C	-1.923569	-0.160699	0.812357
C47	C	-1.600696	0.061816	0.383178
C48	C	-1.558750	0.204641	0.384264
C49	C	-1.601222	-0.164530	0.159246
C50	C	-1.559610	-0.165603	0.017963
C51	C	-1.608646	-0.611531	0.392011
C52	C	-1.638303	-0.745733	0.391008
C53	C	-1.454249	-0.732633	0.378333
C54	C	-1.424596	-0.598435	0.379345
C55	C	-1.607627	-0.173541	0.825315
C56	C	-1.636965	-0.172522	0.958063
C57	C	-1.452907	-0.159689	0.945104
C58	C	-1.423569	-0.160699	0.812357
H59	H	-1.873844	-0.558765	0.462790
H60	H	-1.725308	-0.805689	0.395761
C61	C	-1.867890	-0.152369	1.011029
H62	H	-1.800165	-0.149072	0.948638
H63	H	-1.895076	-0.227079	1.074063
H64	H	-1.855985	-0.076508	1.051050
H65	H	-1.967311	-0.522284	0.174559
H66	H	-2.223841	-0.177333	1.017371
H67	H	-2.170625	-0.179184	0.776556
C68	C	-1.806202	-0.154203	0.732219
H69	H	-1.764333	-0.149948	0.786900
H70	H	-1.771513	-0.079061	0.668561
H71	H	-1.810360	-0.229611	0.691771
H72	H	-1.671509	-0.562236	0.397573
H73	H	-2.224588	-0.804763	0.515573
C74	C	-1.369334	-0.799238	0.370801
H75	H	-1.402292	-0.889708	0.371020
H76	H	-1.345935	-0.786293	0.442816
H77	H	-1.307389	-0.762812	0.293896
H78	H	-1.922538	-0.779594	0.461648
C79	C	-1.307055	-0.517420	0.372923
H80	H	-1.265319	-0.572695	0.368689
H81	H	-1.310937	-0.476531	0.447508
H82	H	-1.272389	-0.453061	0.298588
C83	C	-1.367819	-0.152081	1.010990
H84	H	-1.400575	-0.152341	1.100486
H85	H	-1.305776	-0.074343	0.974975
H86	H	-1.344627	-0.224894	0.998173
C87	C	-1.306202	-0.154203	0.732219
H88	H	-1.264333	-0.149948	0.786900
H89	H	-1.271513	-0.079061	0.668561
H90	H	-1.310360	-0.229611	0.691771
H91	H	-1.877968	-0.753733	0.287271
H92	H	-1.828482	-0.532087	0.287814
H93	H	-1.670625	-0.179184	0.776556
H94	H	-2.014329	-0.742580	0.172302
H95	H	-2.075436	-0.591237	0.599618
H96	H	-2.110197	-0.546286	0.269026
C97	C	-2.188521	-0.780300	0.266140
H98	H	-2.217041	-0.711938	0.266788
H99	H	-2.233379	-0.843524	0.340289
H100	H	-2.188558	-0.819491	0.191149
C101	C	-2.130069	-0.830483	0.630511
H102	H	-2.081792	-0.878362	0.605928
H103	H	-2.201991	-0.887780	0.681216
H104	H	-2.103534	-0.766510	0.679117
H105	H	-2.175005	-0.584926	0.525169
H106	H	-1.723841	-0.177333	1.017371
