data_functionalizedCrystal
_audit_creation_method	'MofGen! by Chris Wilmer'
_symmetry_space_group_name_H-M	'P1'
_symmetry_Int_Tables_number	1
_symmetry_cell_setting	triclinic
loop_
_symmetry_equiv_pos_as_xyz
  x,y,z
_cell_length_a	25.639243
_cell_length_b	25.639239
_cell_length_c	25.639233
_cell_angle_alpha	89.980699
_cell_angle_beta	89.984038
_cell_angle_gamma	90.042008
loop_
_atom_site_label
_atom_site_type_symbol
_atom_site_fract_x
_atom_site_fract_y
_atom_site_fract_z
Zn1	Zn	0.799223	-0.208176	-0.295654
Zn2	Zn	1.132556	0.125157	0.037680
Zn3	Zn	1.465890	0.458490	0.371013
Zn4	Zn	0.799145	-0.295595	-0.208217
Zn5	Zn	1.132479	0.037738	0.125116
Zn6	Zn	1.465812	0.371071	0.458449
Zn7	Zn	0.711799	-0.208180	-0.208227
Zn8	Zn	1.045133	0.125154	0.125106
Zn9	Zn	1.378466	0.458487	0.458439
Zn10	Zn	0.711743	-0.295587	-0.295617
Zn11	Zn	1.045077	0.037747	0.037717
Zn12	Zn	1.378410	0.371080	0.371050
O13	O	0.755478	-0.251885	-0.251929
O14	O	1.088811	0.081449	0.081405
O15	O	1.422144	0.414782	0.414738
O16	O	0.872378	-0.219775	-0.284066
O17	O	1.205711	0.113559	0.049267
O18	O	1.539044	0.446892	0.382600
O19	O	0.787550	-0.284004	-0.135053
O20	O	1.120883	0.049329	0.198280
O21	O	1.454216	0.382662	0.531613
O22	O	0.723452	-0.135014	-0.219844
O23	O	1.056785	0.198319	0.113489
O24	O	1.390119	0.531653	0.446822
O25	O	0.872321	-0.284001	-0.219827
O26	O	1.205654	0.049332	0.113506
O27	O	1.538988	0.382666	0.446839
O28	O	0.787682	-0.135012	-0.284076
O29	O	1.121015	0.198322	0.049257
O30	O	1.454348	0.531655	0.382591
O31	O	0.723377	-0.219781	-0.135061
O32	O	1.056710	0.113553	0.198273
O33	O	1.390043	0.446886	0.531606
O34	O	0.638627	-0.219772	-0.219808
O35	O	0.971960	0.113561	0.113525
O36	O	1.305293	0.446894	0.446858
O37	O	0.723357	-0.283987	-0.368787
O38	O	1.056690	0.049347	-0.035453
O39	O	1.390023	0.382680	0.297880
O40	O	0.638586	-0.283990	-0.284013
O41	O	0.971919	0.049343	0.049320
O42	O	1.305252	0.382677	0.382654
O43	O	0.787628	-0.219767	-0.368814
O44	O	1.120961	0.113567	-0.035481
O45	O	1.454294	0.446900	0.297853
O46	O	0.787496	-0.368759	-0.219791
O47	O	1.120829	-0.035426	0.113542
O48	O	1.454162	0.297907	0.446875
O49	O	0.723282	-0.368753	-0.284003
O50	O	1.056615	-0.035420	0.049330
O51	O	1.389948	0.297914	0.382664
C52	C	0.619635	-0.251881	-0.251908
C53	C	0.952969	0.081452	0.081425
C54	C	1.286302	0.414786	0.414759
C55	C	0.561521	-0.251892	-0.251911
C56	C	0.894854	0.081441	0.081422
C57	C	1.228188	0.414775	0.414755
C58	C	0.201182	-0.218495	-0.285434
C59	C	0.534515	0.114839	0.047900
C60	C	0.867849	0.448172	0.381233
C61	C	0.146578	-0.218494	-0.285437
C62	C	0.479911	0.114839	0.047896
C63	C	0.813244	0.448173	0.381230
O64	O	0.118361	-0.190088	-0.313913
O65	O	0.451695	0.143245	0.019420
O66	O	0.785028	0.476578	0.352754
N67	N	0.119239	-0.251883	-0.251943
N68	N	0.452572	0.081450	0.081390
N69	N	0.785905	0.414784	0.414724
C70	C	0.146507	-0.285271	-0.218440
C71	C	0.479840	0.048062	0.114893
C72	C	0.813173	0.381396	0.448227
O73	O	0.118239	-0.313670	-0.189951
O74	O	0.451572	0.019663	0.143383
O75	O	0.784905	0.352996	0.476716
C76	C	0.201110	-0.285268	-0.218434
C77	C	0.534443	0.048065	0.114899
C78	C	0.867777	0.381398	0.448232
C79	C	0.228446	-0.251881	-0.251934
C80	C	0.561780	0.081452	0.081399
C81	C	0.895113	0.414786	0.414732
C82	C	0.228518	-0.185109	-0.318931
C83	C	0.561852	0.148224	0.014403
C84	C	0.895185	0.481557	0.347736
C85	C	0.283119	-0.185111	-0.318928
C86	C	0.616452	0.148223	0.014405
C87	C	0.949786	0.481556	0.347739
C88	C	0.310383	-0.218497	-0.285428
C89	C	0.643717	0.114836	0.047905
C90	C	0.977050	0.448170	0.381238
C91	C	0.283047	-0.251882	-0.251932
C92	C	0.616380	0.081451	0.081402
C93	C	0.949714	0.414785	0.414735
C94	C	0.228377	-0.318653	-0.184929
C95	C	0.561710	0.014680	0.148404
C96	C	0.895044	0.348014	0.481738
C97	C	0.282984	-0.318647	-0.184926
C98	C	0.616317	0.014686	0.148407
C99	C	0.949651	0.348019	0.481741
C100	C	0.310320	-0.285260	-0.218426
C101	C	0.643654	0.048073	0.114907
C102	C	0.976987	0.381407	0.448241
C103	C	0.364912	-0.285270	-0.218429
C104	C	0.698245	0.048064	0.114904
C105	C	1.031578	0.381397	0.448237
N106	N	0.392251	-0.251881	-0.251923
N107	N	0.725584	0.081453	0.081410
N108	N	1.058917	0.414786	0.414743
C109	C	0.364987	-0.218494	-0.285423
C110	C	0.698320	0.114839	0.047910
C111	C	1.031653	0.448172	0.381244
C112	C	0.031836	-0.285273	-0.218453
C113	C	0.365169	0.048060	0.114880
C114	C	0.698503	0.381394	0.448213
C115	C	-0.022766	-0.285279	-0.218461
C116	C	0.310567	0.048055	0.114872
C117	C	0.643900	0.381388	0.448206
C118	C	-0.022691	-0.218501	-0.285458
C119	C	0.310642	0.114832	0.047876
C120	C	0.643975	0.448166	0.381209
C121	C	0.031912	-0.218499	-0.285452
C122	C	0.365245	0.114835	0.047881
C123	C	0.698579	0.448168	0.381214
C124	C	0.059175	-0.251884	-0.251947
C125	C	0.392509	0.081449	0.081386
C126	C	0.725842	0.414783	0.414719
C127	C	0.479652	-0.218500	-0.285415
C128	C	0.812985	0.114833	0.047918
C129	C	1.146318	0.448167	0.381252
C130	C	0.534257	-0.218506	-0.285411
C131	C	0.867590	0.114828	0.047922
C132	C	1.200924	0.448161	0.381256
C133	C	0.534177	-0.285281	-0.218413
C134	C	0.867511	0.048052	0.114921
C135	C	1.200844	0.381386	0.448254
C136	C	0.479577	-0.285278	-0.218418
C137	C	0.812910	0.048056	0.114915
C138	C	1.146243	0.381389	0.448248
C139	C	0.452315	-0.251883	-0.251921
C140	C	0.785649	0.081451	0.081412
C141	C	1.118982	0.414784	0.414745
O142	O	0.393163	-0.313659	-0.189966
O143	O	0.726496	0.019674	0.143367
O144	O	1.059829	0.353007	0.476700
O145	O	0.393261	-0.190095	-0.313903
O146	O	0.726595	0.143238	0.019431
O147	O	1.059928	0.476572	0.352764
C148	C	0.755388	-0.387727	-0.251903
C149	C	1.088722	-0.054394	0.081430
C150	C	1.422055	0.278940	0.414763
C151	C	0.755398	-0.445841	-0.251910
C152	C	1.088731	-0.112508	0.081423
C153	C	1.422065	0.220825	0.414757
C154	C	0.722035	-0.697044	-0.285353
C155	C	1.055369	-0.363710	0.047980
C156	C	1.388702	-0.030377	0.381313
C157	C	0.722016	-0.642440	-0.285347
C158	C	1.055349	-0.309106	0.047986
C159	C	1.388683	0.024227	0.381320
O160	O	0.693564	-0.614211	-0.313764
O161	O	1.026897	-0.280877	0.019569
O162	O	1.360230	0.052456	0.352902
N163	N	0.755464	-0.615115	-0.251937
N164	N	1.088797	-0.281782	0.081396
N165	N	1.422130	0.051552	0.414729
C166	C	0.788937	-0.642398	-0.218535
C167	C	1.122270	-0.309064	0.114798
C168	C	1.455604	0.024269	0.448131
O169	O	0.817386	-0.614142	-0.190118
O170	O	1.150719	-0.280809	0.143216
O171	O	1.484052	0.052525	0.476549
C172	C	0.788959	-0.697001	-0.218545
C173	C	1.122292	-0.363668	0.114789
C174	C	1.455625	-0.030334	0.448122
C175	C	0.755505	-0.724323	-0.251953
C176	C	1.088838	-0.390989	0.081381
C177	C	1.422171	-0.057656	0.414714
C178	C	0.688584	-0.724366	-0.318759
C179	C	1.021918	-0.391032	0.014574
C180	C	1.355251	-0.057699	0.347908
C181	C	0.688603	-0.778966	-0.318764
C182	C	1.021937	-0.445633	0.014569
C183	C	1.355270	-0.112299	0.347902
C184	C	0.722073	-0.806245	-0.285364
C185	C	1.055406	-0.472912	0.047970
C186	C	1.388740	-0.139578	0.381303
C187	C	0.755524	-0.778923	-0.251958
C188	C	1.088857	-0.445590	0.081375
C189	C	1.422190	-0.112257	0.414709
C190	C	0.822434	-0.724283	-0.185145
C191	C	1.155767	-0.390949	0.148188
C192	C	1.489101	-0.057616	0.481521
C193	C	0.822453	-0.778890	-0.185158
C194	C	1.155786	-0.445556	0.148176
C195	C	1.489120	-0.112223	0.481509
C196	C	0.788999	-0.806211	-0.218566
C197	C	1.122333	-0.472878	0.114767
C198	C	1.455666	-0.139545	0.448101
C199	C	0.789012	-0.860803	-0.218563
C200	C	1.122345	-0.527469	0.114771
C201	C	1.455679	-0.194136	0.448104
N202	N	0.755564	-0.888127	-0.251972
N203	N	1.088897	-0.554794	0.081361
N204	N	1.422231	-0.221460	0.414694
C205	C	0.722094	-0.860848	-0.285373
C206	C	1.055428	-0.527515	0.047961
C207	C	1.388761	-0.194182	0.381294
C208	C	0.788890	-0.527727	-0.218519
C209	C	1.122223	-0.194394	0.114814
C210	C	1.455556	0.138940	0.448147
C211	C	0.788866	-0.473125	-0.218507
C212	C	1.122199	-0.139791	0.114826
C213	C	1.455533	0.193542	0.448159
C214	C	0.721945	-0.473170	-0.285320
C215	C	1.055279	-0.139837	0.048013
C216	C	1.388612	0.193496	0.381347
C217	C	0.721967	-0.527774	-0.285329
C218	C	1.055300	-0.194440	0.048004
C219	C	1.388634	0.138893	0.381338
C220	C	0.755442	-0.555052	-0.251929
C221	C	1.088775	-0.221718	0.081404
C222	C	1.422108	0.111615	0.414737
C223	C	0.722136	-0.975513	-0.285381
C224	C	1.055470	-0.642180	0.047952
C225	C	1.388803	-0.308847	0.381286
C226	C	0.722156	-1.030119	-0.285382
C227	C	1.055490	-0.696785	0.047952
C228	C	1.388823	-0.363452	0.381285
C229	C	0.789079	-1.030068	-0.218571
C230	C	1.122412	-0.696735	0.114762
C231	C	1.455745	-0.363402	0.448095
C232	C	0.789057	-0.975468	-0.218568
C233	C	1.122390	-0.642134	0.114765
C234	C	1.455723	-0.308801	0.448098
C235	C	0.755584	-0.948191	-0.251977
C236	C	1.088917	-0.614858	0.081356
C237	C	1.422250	-0.281525	0.414689
O238	O	0.817451	-0.889066	-0.190162
O239	O	1.150784	-0.555733	0.143172
O240	O	1.484118	-0.222399	0.476505
O241	O	0.693655	-0.889110	-0.313791
O242	O	1.026989	-0.555777	0.019543
O243	O	1.360322	-0.222444	0.352876
C244	C	0.891851	-0.251888	-0.251950
C245	C	1.225184	0.081445	0.081384
C246	C	1.558517	0.414778	0.414717
C247	C	0.949965	-0.251890	-0.251959
C248	C	1.283298	0.081443	0.081375
C249	C	1.616631	0.414776	0.414708
C250	C	0.755495	-0.251875	-0.388302
C251	C	1.088828	0.081458	-0.054968
C252	C	1.422161	0.414791	0.278365
C253	C	0.755502	-0.251871	-0.446416
C254	C	1.088835	0.081462	-0.113082
C255	C	1.422168	0.414795	0.220251
C256	C	0.755582	-0.115512	-0.251965
C257	C	1.088915	0.217822	0.081368
C258	C	1.422248	0.551155	0.414701
C259	C	0.755626	-0.057397	-0.251981
C260	C	1.088959	0.275936	0.081352
C261	C	1.422293	0.609269	0.414685
C262	C	0.789010	-0.218333	-0.806799
C263	C	1.122343	0.115001	-0.473466
C264	C	1.455677	0.448334	-0.140132
C265	C	0.789016	-0.218318	-0.861403
C266	C	1.122350	0.115015	-0.528070
C267	C	1.455683	0.448348	-0.194737
O268	O	0.817464	-0.189864	-0.889657
O269	O	1.150797	0.143469	-0.556323
O270	O	1.484131	0.476803	-0.222990
N271	N	0.755559	-0.251749	-0.888698
N272	N	1.088893	0.081584	-0.555365
N273	N	1.422226	0.414918	-0.222032
C274	C	0.722090	-0.285192	-0.861387
C275	C	1.055423	0.048141	-0.528053
C276	C	1.388757	0.381474	-0.194720
O277	O	0.693632	-0.313626	-0.889617
O278	O	1.026966	0.019707	-0.556284
O279	O	1.360299	0.353041	-0.222951
C280	C	0.722081	-0.285204	-0.806783
C281	C	1.055415	0.048130	-0.473450
C282	C	1.388748	0.381463	-0.140117
C283	C	0.755544	-0.251775	-0.779491
C284	C	1.088878	0.081559	-0.446157
C285	C	1.422211	0.414892	-0.112824
C286	C	0.822470	-0.184906	-0.779506
C287	C	1.155803	0.148427	-0.446173
C288	C	1.489137	0.481761	-0.112840
C289	C	0.822464	-0.184921	-0.724906
C290	C	1.155797	0.148412	-0.391572
C291	C	1.489131	0.481745	-0.058239
C292	C	0.788998	-0.218363	-0.697598
C293	C	1.122332	0.114970	-0.364264
C294	C	1.455665	0.448303	-0.030931
C295	C	0.755538	-0.251790	-0.724890
C296	C	1.088872	0.081543	-0.391557
C297	C	1.422205	0.414877	-0.058224
C298	C	0.688610	-0.318644	-0.779472
C299	C	1.021943	0.014689	-0.446139
C300	C	1.355276	0.348022	-0.112806
C301	C	0.688603	-0.318653	-0.724865
C302	C	1.021937	0.014681	-0.391532
C303	C	1.355270	0.348014	-0.058199
C304	C	0.722066	-0.285224	-0.697573
C305	C	1.055400	0.048110	-0.364240
C306	C	1.388733	0.381443	-0.030906
C307	C	0.722067	-0.285247	-0.642982
C308	C	1.055400	0.048086	-0.309648
C309	C	1.388733	0.381419	0.023685
N310	N	0.755524	-0.251817	-0.615686
N311	N	1.088857	0.081517	-0.282353
N312	N	1.422190	0.414850	0.050980
C313	C	0.788990	-0.218375	-0.642994
C314	C	1.122323	0.114959	-0.309661
C315	C	1.455656	0.448292	0.023672
C316	C	0.722110	-0.285165	-0.976057
C317	C	1.055444	0.048168	-0.642724
C318	C	1.388777	0.381501	-0.309391
C319	C	0.722121	-0.285157	-1.030660
C320	C	1.055454	0.048177	-0.697326
C321	C	1.388788	0.381510	-0.363993
C322	C	0.789047	-0.218282	-1.030672
C323	C	1.122380	0.115051	-0.697339
C324	C	1.455714	0.448385	-0.364006
C325	C	0.789038	-0.218293	-0.976069
C326	C	1.122372	0.115040	-0.642736
C327	C	1.455705	0.448373	-0.309402
C328	C	0.755567	-0.251735	-0.948762
C329	C	1.088901	0.081599	-0.615429
C330	C	1.422234	0.414932	-0.282095
C331	C	0.788975	-0.218410	-0.528329
C332	C	1.122308	0.114924	-0.194996
C333	C	1.455642	0.448257	0.138337
C334	C	0.788968	-0.218429	-0.473724
C335	C	1.122301	0.114904	-0.140391
C336	C	1.455634	0.448237	0.192943
C337	C	0.722040	-0.285302	-0.473716
C338	C	1.055373	0.048031	-0.140382
C339	C	1.388707	0.381364	0.192951
C340	C	0.722049	-0.285285	-0.528316
C341	C	1.055382	0.048049	-0.194983
C342	C	1.388716	0.381382	0.138350
C343	C	0.755518	-0.251834	-0.555622
C344	C	1.088852	0.081499	-0.222288
C345	C	1.422185	0.414833	0.111045
O346	O	0.693632	-0.313686	-0.614693
O347	O	1.026965	0.019648	-0.281360
O348	O	1.360299	0.352981	0.051973
O349	O	0.817437	-0.189941	-0.614757
O350	O	1.150771	0.143392	-0.281424
O351	O	1.484104	0.476726	0.051910
C352	C	0.755491	-0.251856	-0.116086
C353	C	1.088824	0.081477	0.217247
C354	C	1.422158	0.414811	0.550580
C355	C	0.755585	-0.251713	-0.057972
C356	C	1.088919	0.081621	0.275361
C357	C	1.422252	0.414954	0.608694
H358	H	0.206129	-0.345840	-0.157649
H359	H	0.539462	-0.012507	0.175684
H360	H	0.872796	0.320827	0.509018
H361	H	0.305179	-0.345834	-0.157641
H362	H	0.638512	-0.012500	0.175692
H363	H	0.971846	0.320833	0.509026
H364	H	0.849712	-0.157699	-0.702689
H365	H	1.183045	0.175634	-0.369356
H366	H	1.516379	0.508968	-0.036022
O367	O	0.309589	-0.152623	-0.351481
O368	O	0.642922	0.180710	-0.018148
O369	O	0.976255	0.514044	0.315185
C370	C	0.273807	-0.123167	-0.381052
C371	C	0.607140	0.210167	-0.047719
C372	C	0.940473	0.543500	0.285614
H373	H	0.234878	-0.121335	-0.359640
H374	H	0.568212	0.211998	-0.026307
H375	H	0.901545	0.545331	0.307026
H376	H	0.289607	-0.081977	-0.386699
H377	H	0.622940	0.251357	-0.053366
H378	H	0.956273	0.584690	0.279968
H379	H	0.268000	-0.142368	-0.420729
H380	H	0.601334	0.190966	-0.087396
H381	H	0.934667	0.524299	0.245938
O382	O	0.689510	-0.446643	-0.317826
O383	O	1.022843	-0.113310	0.015508
O384	O	1.356176	0.220024	0.348841
C385	C	0.719248	-0.415001	-0.351606
C386	C	1.052581	-0.081668	-0.018273
C387	C	1.385914	0.251666	0.315060
H388	H	0.760429	-0.431413	-0.354876
H389	H	1.093762	-0.098080	-0.021543
H390	H	1.427096	0.235253	0.311791
H391	H	0.700313	-0.414378	-0.391826
H392	H	1.033646	-0.081045	-0.058493
H393	H	1.366980	0.252288	0.274840
H394	H	0.721048	-0.373625	-0.335434
H395	H	1.054381	-0.040292	-0.002101
H396	H	1.387714	0.293042	0.331233
O397	O	0.560868	-0.186045	-0.317881
O398	O	0.894202	0.147288	0.015452
O399	O	1.227535	0.480622	0.348786
C400	C	0.592459	-0.152222	-0.288175
C401	C	0.925792	0.181111	0.045158
C402	C	1.259126	0.514445	0.378492
H403	H	0.600615	-0.170603	-0.248519
H404	H	0.933949	0.162730	0.084815
H405	H	1.267282	0.496064	0.418148
H406	H	0.630867	-0.145246	-0.309485
H407	H	0.964200	0.188088	0.023849
H408	H	1.297534	0.521421	0.357182
H409	H	0.571441	-0.113468	-0.282501
H410	H	0.904775	0.219866	0.050833
H411	H	1.238108	0.553199	0.384166
O412	O	0.821477	-0.185733	-1.057227
O413	O	1.154811	0.147600	-0.723893
O414	O	1.488144	0.480934	-0.390560
C415	C	0.791732	-0.151969	-1.088817
C416	C	1.125065	0.181365	-0.755484
C417	C	1.458399	0.514698	-0.422150
H418	H	0.750555	-0.148748	-1.072352
H419	H	1.083888	0.184585	-0.739018
H420	H	1.417221	0.517919	-0.405685
H421	H	0.810667	-0.111729	-1.089445
H422	H	1.144000	0.221604	-0.756112
H423	H	1.477333	0.554938	-0.422779
H424	H	0.789922	-0.168125	-1.130198
H425	H	1.123256	0.165209	-0.796864
H426	H	1.456589	0.498542	-0.463531
O427	O	0.058294	-0.317787	-0.185966
O428	O	0.391628	0.015546	0.147367
O429	O	0.724961	0.348879	0.480701
C430	C	0.044904	-0.369911	-0.197296
C431	C	0.378237	-0.036578	0.136038
C432	C	0.711570	0.296755	0.469371
H433	H	0.029910	-0.372608	-0.239062
H434	H	0.363243	-0.039275	0.094271
H435	H	0.696577	0.294058	0.427604
H436	H	0.080789	-0.395739	-0.192740
H437	H	0.414123	-0.062406	0.140593
H438	H	0.747456	0.270927	0.473926
H439	H	0.013185	-0.383536	-0.169246
H440	H	0.346518	-0.050203	0.164087
H441	H	0.679851	0.283131	0.497421
H442	H	0.816286	-0.191071	-0.953851
H443	H	1.149619	0.142262	-0.620518
H444	H	1.482953	0.475595	-0.287185
O445	O	0.453100	-0.317731	-0.185833
O446	O	0.786433	0.015603	0.147500
O447	O	1.119766	0.348936	0.480834
C448	C	0.488876	-0.347211	-0.156278
C449	C	0.822209	-0.013877	0.177055
C450	C	1.155543	0.319456	0.510388
H451	H	0.527815	-0.325794	-0.154507
H452	H	0.861148	0.007539	0.178827
H453	H	1.194482	0.340873	0.512160
H454	H	0.473084	-0.352728	-0.115074
H455	H	0.806418	-0.019395	0.218260
H456	H	1.139751	0.313938	0.551593
H457	H	0.494658	-0.386947	-0.175354
H458	H	0.827991	-0.053614	0.157979
H459	H	1.161324	0.279719	0.491312
O460	O	0.202015	-0.152622	-0.351402
O461	O	0.535349	0.180712	-0.018069
O462	O	0.868682	0.514045	0.315264
C463	C	0.170430	-0.118811	-0.321711
C464	C	0.503763	0.214522	0.011622
C465	C	0.837097	0.547855	0.344955
H466	H	0.186864	-0.115516	-0.280534
H467	H	0.520197	0.217818	0.052800
H468	H	0.853530	0.551151	0.386133
H469	H	0.169853	-0.078605	-0.340700
H470	H	0.503186	0.254728	-0.007367
H471	H	0.836519	0.588062	0.325966
H472	H	0.129033	-0.134972	-0.319891
H473	H	0.462367	0.198361	0.013442
H474	H	0.795700	0.531695	0.346775
O475	O	0.656081	-0.351046	-0.806037
O476	O	0.989415	-0.017713	-0.472704
O477	O	1.322748	0.315621	-0.139370
C478	C	0.622329	-0.321274	-0.837612
C479	C	0.955662	0.012060	-0.504279
C480	C	1.288996	0.345393	-0.170946
H481	H	0.640799	-0.281650	-0.845803
H482	H	0.974132	0.051684	-0.512470
H483	H	1.307466	0.385017	-0.179136
H484	H	0.615311	-0.342565	-0.876004
H485	H	0.948644	-0.009232	-0.542671
H486	H	1.281978	0.324102	-0.209338
H487	H	0.583584	-0.315532	-0.816563
H488	H	0.916918	0.017801	-0.483230
H489	H	1.250251	0.351134	-0.149897
O490	O	0.689570	-0.317651	-1.057087
O491	O	1.022903	0.015683	-0.723754
O492	O	1.356237	0.349016	-0.390421
C493	C	0.660044	-0.347178	-1.021269
C494	C	0.993377	-0.013845	-0.687936
C495	C	1.326711	0.319488	-0.354602
H496	H	0.658249	-0.325770	-0.982348
H497	H	0.991582	0.007564	-0.649015
H498	H	1.324916	0.340897	-0.315682
H499	H	0.618846	-0.352752	-1.037034
H500	H	0.952179	-0.019419	-0.703701
H501	H	1.285513	0.313915	-0.370367
H502	H	0.679161	-0.386889	-1.015460
H503	H	1.012494	-0.053555	-0.682127
H504	H	1.345827	0.279778	-0.348794
O505	O	0.689593	-0.948966	-0.317760
O506	O	1.022927	-0.615633	0.015573
O507	O	1.356260	-0.282299	0.348906
C508	C	0.655821	-0.917442	-0.287959
C509	C	0.989155	-0.584109	0.045374
C510	C	1.322488	-0.250776	0.378708
H511	H	0.674287	-0.909251	-0.248355
H512	H	1.007620	-0.575918	0.084978
H513	H	1.340953	-0.242584	0.418311
H514	H	0.648779	-0.879047	-0.309250
H515	H	0.982112	-0.545714	0.024084
H516	H	1.315445	-0.212381	0.357417
H517	H	0.617090	-0.938536	-0.282174
H518	H	0.950424	-0.605203	0.051159
H519	H	1.283757	-0.271870	0.384493
O520	O	0.560748	-0.317661	-0.185888
O521	O	0.894081	0.015673	0.147445
O522	O	1.227415	0.349006	0.480778
C523	C	0.614803	-0.310505	-0.193081
C524	C	0.948136	0.022828	0.140253
C525	C	1.281470	0.356162	0.473586
H526	H	0.622290	-0.270182	-0.210283
H527	H	0.955623	0.063151	0.123050
H528	H	1.288956	0.396484	0.456384
H529	H	0.635542	-0.313985	-0.153911
H530	H	0.968876	0.019348	0.179423
H531	H	1.302209	0.352681	0.512756
H532	H	0.630287	-0.341560	-0.220863
H533	H	0.963621	-0.008227	0.112470
H534	H	1.296954	0.325106	0.445804
O535	O	0.689642	-1.056577	-0.317887
O536	O	1.022976	-0.723244	0.015447
O537	O	1.356309	-0.389911	0.348780
C538	C	0.660091	-1.020787	-0.347357
C539	C	0.993424	-0.687454	-0.014023
C540	C	1.326757	-0.354120	0.319310
H541	H	0.681493	-0.981841	-0.349181
H542	H	1.014827	-0.648507	-0.015848
H543	H	1.348160	-0.315174	0.317486
H544	H	0.654491	-1.036549	-0.388548
H545	H	0.987824	-0.703216	-0.055215
H546	H	1.321157	-0.369882	0.278119
H547	H	0.620393	-1.015030	-0.328172
H548	H	0.953726	-0.681697	0.005162
H549	H	1.287059	-0.348363	0.338495
O550	O	0.656093	-0.805422	-0.351270
O551	O	0.989426	-0.472088	-0.017937
O552	O	1.322760	-0.138755	0.315397
C553	C	0.626544	-0.769626	-0.380737
C554	C	0.959877	-0.436293	-0.047403
C555	C	1.293210	-0.102960	0.285930
H556	H	0.647947	-0.730681	-0.382555
H557	H	0.981281	-0.397347	-0.049221
H558	H	1.314614	-0.064014	0.284112
H559	H	0.620945	-0.785383	-0.421931
H560	H	0.954278	-0.452050	-0.088597
H561	H	1.287612	-0.118716	0.244736
H562	H	0.586845	-0.763871	-0.361553
H563	H	0.920178	-0.430538	-0.028220
H564	H	1.253511	-0.097205	0.305114
O565	O	0.656143	-0.697849	-0.351262
O566	O	0.989476	-0.364515	-0.017928
O567	O	1.322809	-0.031182	0.315405
C568	C	0.685864	-0.666202	-0.385053
C569	C	1.019197	-0.332868	-0.051720
C570	C	1.352530	0.000465	0.281614
H571	H	0.727050	-0.682601	-0.388327
H572	H	1.060383	-0.349267	-0.054994
H573	H	1.393717	-0.015934	0.278340
H574	H	0.666922	-0.665592	-0.425270
H575	H	1.000255	-0.332259	-0.091936
H576	H	1.333588	0.001074	0.241397
H577	H	0.687653	-0.624823	-0.368887
H578	H	1.020986	-0.291489	-0.035554
H579	H	1.354319	0.041844	0.297779
O580	O	0.855046	-0.805326	-0.152737
O581	O	1.188379	-0.471993	0.180597
O582	O	1.521712	-0.138659	0.513930
C583	C	0.907141	-0.791925	-0.164227
C584	C	1.240474	-0.458592	0.169107
C585	C	1.573808	-0.125259	0.502440
H586	H	0.908190	-0.752272	-0.184327
H587	H	1.241523	-0.418938	0.149007
H588	H	1.574856	-0.085605	0.482340
H589	H	0.930614	-0.790041	-0.126517
H590	H	1.263947	-0.456708	0.206816
H591	H	1.597280	-0.123374	0.540149
H592	H	0.924745	-0.822626	-0.191126
H593	H	1.258079	-0.489293	0.142208
H594	H	1.591412	-0.155960	0.475541
H595	H	0.661341	-0.345880	-0.702635
H596	H	0.994674	-0.012546	-0.369301
H597	H	1.328008	0.320787	-0.035968
O598	O	0.689499	-0.317777	-0.554751
O599	O	1.022832	0.015556	-0.221417
O600	O	1.356165	0.348889	0.111916
C601	C	0.659972	-0.347309	-0.518936
C602	C	0.993306	-0.013976	-0.185603
C603	C	1.326639	0.319358	0.147731
H604	H	0.658177	-0.325905	-0.480013
H605	H	0.991510	0.007428	-0.146680
H606	H	1.324844	0.340761	0.186654
H607	H	0.618774	-0.352881	-0.534702
H608	H	0.952107	-0.019547	-0.201369
H609	H	1.285441	0.313786	0.131965
H610	H	0.679089	-0.387020	-0.513132
H611	H	1.012422	-0.053687	-0.179799
H612	H	1.345755	0.279647	0.153534
O613	O	0.821421	-0.554142	-0.186018
O614	O	1.154754	-0.220809	0.147316
O615	O	1.488087	0.112525	0.480649
C616	C	0.850943	-0.518311	-0.156540
C617	C	1.184277	-0.184977	0.176794
C618	C	1.517610	0.148356	0.510127
H619	H	0.829510	-0.479414	-0.154709
H620	H	1.162844	-0.146081	0.178624
H621	H	1.496177	0.187253	0.511958
H622	H	0.856554	-0.534096	-0.115351
H623	H	1.189887	-0.200762	0.217982
H624	H	1.523220	0.132571	0.551316
H625	H	0.890638	-0.512448	-0.175722
H626	H	1.223971	-0.179115	0.157612
H627	H	1.557304	0.154218	0.490945
O628	O	0.821284	-0.446565	-0.185994
O629	O	1.154617	-0.113231	0.147339
O630	O	1.487950	0.220102	0.480672
C631	C	0.791532	-0.415018	-0.152199
C632	C	1.124865	-0.081684	0.181134
C633	C	1.458198	0.251649	0.514467
H634	H	0.750359	-0.431515	-0.148934
H635	H	1.083692	-0.098182	0.184399
H636	H	1.417026	0.235151	0.517733
H637	H	0.810469	-0.414401	-0.111980
H638	H	1.143802	-0.081068	0.221353
H639	H	1.477135	0.252266	0.554687
H640	H	0.789709	-0.373628	-0.168355
H641	H	1.123043	-0.040295	0.164978
H642	H	1.456376	0.293039	0.498312
O643	O	0.689457	-0.554231	-0.317834
O644	O	1.022790	-0.220898	0.015500
O645	O	1.356123	0.112436	0.348833
C646	C	0.659903	-0.518438	-0.347299
C647	C	0.993236	-0.185105	-0.013965
C648	C	1.326570	0.148229	0.319368
H649	H	0.681304	-0.479491	-0.349118
H650	H	1.014637	-0.146157	-0.015785
H651	H	1.347970	0.187176	0.317549
H652	H	0.654304	-0.534195	-0.388492
H653	H	0.987637	-0.200862	-0.055159
H654	H	1.320970	0.132472	0.278174
H655	H	0.620205	-0.512686	-0.328113
H656	H	0.953538	-0.179353	0.005220
H657	H	1.286871	0.153981	0.338554
H658	H	0.816327	-1.052289	-0.191376
H659	H	1.149660	-0.718955	0.141958
H660	H	1.482994	-0.385622	0.475291
H661	H	0.849675	-0.702045	-0.157942
H662	H	1.183009	-0.368712	0.175391
H663	H	1.516342	-0.035378	0.508725
H664	H	-0.044900	-0.191315	-0.312733
H665	H	0.288434	0.142019	0.020600
H666	H	0.621767	0.475352	0.353933
O667	O	0.689673	-0.317684	-0.949475
O668	O	1.023007	0.015649	-0.616141
O669	O	1.356340	0.348983	-0.282808
C670	C	0.719412	-0.351471	-0.917902
C671	C	1.052745	-0.018137	-0.584568
C672	C	1.386078	0.315196	-0.251235
H673	H	0.759045	-0.333031	-0.909724
H674	H	1.092378	0.000302	-0.576391
H675	H	1.425712	0.333636	-0.243058
H676	H	0.698102	-0.358492	-0.879503
H677	H	1.031435	-0.025158	-0.546169
H678	H	1.364769	0.308175	-0.212836
H679	H	0.725134	-0.390210	-0.938945
H680	H	1.058468	-0.056876	-0.605612
H681	H	1.391801	0.276457	-0.272279
O682	O	0.689609	-0.317811	-0.447121
O683	O	1.022942	0.015522	-0.113787
O684	O	1.356275	0.348856	0.219546
C685	C	0.719352	-0.351592	-0.415547
C686	C	1.052685	-0.018259	-0.082213
C687	C	1.386019	0.315074	0.251120
H688	H	0.758991	-0.333156	-0.407387
H689	H	1.092324	0.000178	-0.074054
H690	H	1.425657	0.333511	0.259279
H691	H	0.698054	-0.358599	-0.377139
H692	H	1.031387	-0.025266	-0.043806
H693	H	1.364720	0.308068	0.289527
H694	H	0.725063	-0.390338	-0.436581
H695	H	1.058397	-0.057005	-0.103248
H696	H	1.391730	0.276328	0.230086
O697	O	0.821596	-0.949005	-0.186094
O698	O	1.154929	-0.615672	0.147240
O699	O	1.488263	-0.282338	0.480573
C700	C	0.851127	-0.984794	-0.156602
C701	C	1.184460	-0.651461	0.176732
C702	C	1.517794	-0.318127	0.510065
H703	H	0.852937	-1.023706	-0.178023
H704	H	1.186270	-0.690373	0.155311
H705	H	1.519603	-0.357039	0.488644
H706	H	0.892320	-0.968977	-0.151058
H707	H	1.225653	-0.635644	0.182275
H708	H	1.558987	-0.302311	0.515608
H709	H	0.832006	-0.990638	-0.116877
H710	H	1.165339	-0.657305	0.216457
H711	H	1.498672	-0.323972	0.549790
O712	O	0.821537	-0.185902	-0.554768
O713	O	1.154871	0.147432	-0.221435
O714	O	1.488204	0.480765	0.111899
C715	C	0.851056	-0.156397	-0.518961
C716	C	1.184389	0.176937	-0.185628
C717	C	1.517723	0.510270	0.147706
H718	H	0.852838	-0.177827	-0.480038
H719	H	1.186172	0.155507	-0.146705
H720	H	1.519505	0.488840	0.186628
H721	H	0.892259	-0.150817	-0.534738
H722	H	1.225592	0.182516	-0.201405
H723	H	1.558926	0.515849	0.131929
H724	H	0.831941	-0.116688	-0.513152
H725	H	1.165274	0.216646	-0.179818
H726	H	1.498608	0.549979	0.153515
O727	O	0.058407	-0.186090	-0.318064
O728	O	0.391740	0.147243	0.015269
O729	O	0.725074	0.480576	0.348603
C730	C	0.045085	-0.197606	-0.370154
C731	C	0.378418	0.135728	-0.036821
C732	C	0.711751	0.469061	0.296513
H733	H	0.005427	-0.217712	-0.371203
H734	H	0.338761	0.115621	-0.037869
H735	H	0.672094	0.448955	0.295464
H736	H	0.043246	-0.159907	-0.393668
H737	H	0.376580	0.173426	-0.060335
H738	H	0.709913	0.506759	0.272999
H739	H	0.075806	-0.224509	-0.387713
H740	H	0.409139	0.108825	-0.054380
H741	H	0.742473	0.442158	0.278954
O742	O	0.453256	-0.186047	-0.318011
O743	O	0.786589	0.147286	0.015322
O744	O	1.119922	0.480620	0.348655
C745	C	0.489101	-0.156576	-0.347564
C746	C	0.822435	0.176757	-0.014230
C747	C	1.155768	0.510090	0.319103
H748	H	0.528007	-0.177999	-0.349324
H749	H	0.861341	0.155335	-0.015991
H750	H	1.194674	0.488668	0.317342
H751	H	0.473350	-0.151063	-0.388772
H752	H	0.806683	0.182271	-0.055439
H753	H	1.140016	0.515604	0.277894
H754	H	0.494932	-0.116837	-0.328493
H755	H	0.828266	0.216496	0.004841
H756	H	1.161599	0.549829	0.338174
H757	H	-0.045019	-0.312472	-0.191188
H758	H	0.288314	0.020861	0.142145
H759	H	0.621648	0.354195	0.475479
O760	O	0.821398	-0.185922	-0.447158
O761	O	1.154732	0.147411	-0.113825
O762	O	1.488065	0.480744	0.219509
C763	C	0.791649	-0.152151	-0.415585
C764	C	1.124982	0.181182	-0.082251
C765	C	1.458316	0.514515	0.251082
H766	H	0.752015	-0.170598	-0.407391
H767	H	1.085348	0.162736	-0.074057
H768	H	1.418682	0.496069	0.259276
H769	H	0.812948	-0.145145	-0.377194
H770	H	1.146281	0.188188	-0.043861
H771	H	1.479615	0.521522	0.289473
H772	H	0.785929	-0.113404	-0.436637
H773	H	1.119262	0.219929	-0.103303
H774	H	1.452595	0.553263	0.230030
H775	H	0.849722	-0.157671	-0.801735
H776	H	1.183055	0.175663	-0.468401
H777	H	1.516389	0.508996	-0.135068
