data_functionalizedCrystal
_audit_creation_method	'MofGen! by Chris Wilmer'
_symmetry_space_group_name_H-M	'P1'
_symmetry_Int_Tables_number	1
_symmetry_cell_setting	triclinic
loop_
_symmetry_equiv_pos_as_xyz
  x,y,z
_cell_length_a	8.497374
_cell_length_b	13.032721
_cell_length_c	13.032831
_cell_angle_alpha	89.097115
_cell_angle_beta	82.827283
_cell_angle_gamma	82.830905
loop_
_atom_site_label
_atom_site_type_symbol
_atom_site_fract_x
_atom_site_fract_y
_atom_site_fract_z
Zn1	Zn	1.299749	-0.609635	-1.519982
Zn2	Zn	1.064703	-0.781567	-1.498071
Zn3	Zn	0.998870	-0.587743	-1.348061
Zn4	Zn	1.291326	-0.759681	-1.326132
O5	O	1.163662	-0.684657	-1.423062
O6	O	1.299646	-0.650764	-1.660983
O7	O	0.835209	-0.755853	-1.478179
O8	O	1.014756	-0.446737	-1.389213
O9	O	1.126959	-0.777081	-1.644885
O10	O	1.235810	-0.462821	-1.515523
O11	O	0.786842	-0.613452	-1.367967
O12	O	1.006589	-0.592230	-1.201245
O13	O	1.513205	-0.739780	-1.351839
O14	O	1.221455	-0.718552	-1.185134
O15	O	1.519393	-0.629542	-1.494260
O16	O	1.118792	-0.922574	-1.456916
O17	O	1.285291	-0.906494	-1.330593
C18	C	1.208312	-0.951852	-1.389026
C19	C	1.227486	-1.066171	-1.374559
C20	C	1.105965	-0.650641	-1.155876
C21	C	1.081324	-0.636114	-1.041569
C22	C	1.153738	-1.125067	-1.430666
C23	C	1.173554	-1.243222	-1.415716
C24	C	1.575141	-0.684657	-1.423054
C25	C	1.753788	-0.684668	-1.423055
C26	C	1.221586	-0.718806	-1.691291
C27	C	1.246269	-0.733358	-1.805594
C28	C	1.118879	-0.416421	-1.457259
C29	C	1.099795	-0.302116	-1.471831
C30	C	1.176523	-0.692239	-0.982652
C31	C	1.151057	-0.677225	-0.864510
H32	H	1.251375	-1.280269	-1.356612
O33	O	1.320444	-1.110493	-1.304175
C34	C	1.445399	-1.179987	-1.354875
H35	H	1.409346	-1.205841	-1.430839
H36	H	1.557857	-1.140036	-1.371305
C37	C	1.522965	-1.243186	-1.192147
C38	C	1.478678	-1.274947	-1.285443
H39	H	1.543500	-1.301760	-1.149317
H40	H	1.438785	-1.196364	-1.157989
H41	H	1.616676	-1.209892	-1.205853
H42	H	1.384959	-1.308228	-1.271737
H43	H	1.562845	-1.321777	-1.319598
O44	O	1.061111	-1.080942	-1.501319
C45	C	1.122155	-1.120082	-1.600516
H46	H	1.254221	-1.150300	-1.601929
H47	H	1.053792	-1.185788	-1.619617
C48	C	0.940576	-0.996147	-1.679428
C49	C	1.102786	-1.033252	-1.681165
H50	H	0.928622	-0.942589	-1.729178
H51	H	0.899444	-0.969779	-1.612597
H52	H	0.883625	-1.050910	-1.695342
H53	H	1.159729	-0.978493	-1.665238
H54	H	1.143926	-1.059609	-1.747996
H55	H	1.276884	-0.751400	-1.019674
H56	H	1.050699	-0.618052	-0.827493
H57	H	1.021987	-1.265071	-1.530944
H58	H	1.346641	-0.792522	-0.842611
H59	H	0.980973	-0.576944	-1.004548
