data_functionalizedCrystal
_audit_creation_method	'MofGen! by Chris Wilmer'
_symmetry_space_group_name_H-M	'P1'
_symmetry_Int_Tables_number	1
_symmetry_cell_setting	triclinic
loop_
_symmetry_equiv_pos_as_xyz
  x,y,z
_cell_length_a	23.532407
_cell_length_b	15.712078
_cell_length_c	14.185569
_cell_angle_alpha	107.180033
_cell_angle_beta	103.061349
_cell_angle_gamma	78.785053
loop_
_atom_site_label
_atom_site_type_symbol
_atom_site_fract_x
_atom_site_fract_y
_atom_site_fract_z
O1	O	0.768624	-0.124464	-0.083633
O2	O	0.605978	-0.139609	-0.083589
O3	O	0.665664	-0.006392	-0.083600
O4	O	0.708938	-0.257681	-0.083622
O5	O	0.683297	0.032957	0.083231
O6	O	0.623611	-0.100259	0.083242
O7	O	0.786256	-0.085115	0.083199
Cu8	Cu	0.706544	-0.089094	0.098454
Cu9	Cu	0.685691	-0.135629	-0.098844
O10	O	0.726571	-0.218332	0.083210
C11	C	0.593497	-0.119547	-0.000167
C12	C	0.530036	-0.118382	-0.000150
C13	C	0.798737	-0.105177	-0.000225
C14	C	0.862198	-0.106343	-0.000249
C15	C	0.667411	0.045426	-0.000183
C16	C	0.646339	0.141201	-0.000180
C17	C	1.146101	-0.189952	-0.000196
C18	C	1.086471	-0.188876	-0.000203
O19	O	1.063795	-0.255206	-0.000177
N20	N	1.047052	-0.109678	-0.000208
C21	C	1.067266	-0.031549	-0.000194
O22	O	1.028262	0.035914	-0.000198
C23	C	1.126896	-0.032624	-0.000180
C24	C	1.166311	-0.111830	-0.000186
C25	C	1.185516	-0.269151	-0.000201
C26	C	1.245141	-0.270227	-0.000196
C27	C	1.265351	-0.192105	-0.000186
C28	C	1.225936	-0.112906	-0.000181
C29	C	1.147109	0.045506	-0.000160
C30	C	1.206744	0.044424	-0.000145
C31	C	1.246159	-0.034782	-0.000151
C32	C	1.305772	-0.035860	-0.000165
N33	N	1.345191	-0.115058	-0.000161
C34	C	1.324980	-0.193180	-0.000172
C35	C	0.942042	-0.029296	-0.000223
C36	C	0.882413	-0.028221	-0.000244
C37	C	0.901622	-0.185549	-0.000251
C38	C	0.961251	-0.186624	-0.000237
C39	C	0.981461	-0.108494	-0.000218
C40	C	1.450197	-0.195435	-0.000161
C41	C	1.509826	-0.196505	-0.000160
C42	C	1.490612	-0.039177	-0.000148
C43	C	1.430987	-0.038107	-0.000154
C44	C	1.410783	-0.116242	-0.000158
O45	O	1.328491	0.030436	-0.000187
O46	O	1.363992	-0.260629	-0.000155
C47	C	0.724824	-0.270150	-0.000209
C48	C	0.745895	-0.365926	-0.000219
N49	N	0.721214	-0.056363	0.237222
C50	C	0.825244	0.509819	-0.000238
C51	C	0.805431	0.599812	-0.000233
C52	C	0.706150	0.578350	-0.000206
C53	C	0.725956	0.488354	-0.000207
C54	C	0.785504	0.454096	-0.000224
C55	C	0.686215	0.432632	-0.000193
C56	C	0.706019	0.342643	-0.000199
C57	C	0.765564	0.308377	-0.000219
C58	C	0.805307	0.364108	-0.000230
C59	C	0.626667	0.466890	-0.000183
C60	C	0.586927	0.411167	-0.000169
C61	C	0.606731	0.321178	-0.000168
C62	C	0.666276	0.286912	-0.000188
C63	C	0.566987	0.265447	-0.000157
C64	C	0.586791	0.175459	-0.000163
C65	C	0.686079	0.196923	-0.000194
N66	N	0.671024	-0.168353	-0.237612
C67	C	0.627913	-0.264479	0.604889
C68	C	0.639031	-0.239691	0.709909
C69	C	0.691908	-0.121771	0.709860
C70	C	0.680792	-0.146546	0.604838
C71	C	0.648795	-0.217901	0.552361
C72	C	0.701674	-0.099968	0.552310
C73	C	0.690561	-0.124744	0.447298
C74	C	0.658567	-0.196098	0.394813
C75	C	0.637682	-0.242677	0.447349
C76	C	0.733674	-0.028618	0.604789
C77	C	0.754556	0.017960	0.552261
C78	C	0.743440	-0.006811	0.447247
C79	C	0.711445	-0.078165	0.394762
C80	C	0.764324	0.039767	0.394711
C81	C	0.753211	0.014991	0.289699
C82	C	0.700333	-0.102941	0.289750
H83	H	1.541917	-0.261006	-0.000166
H84	H	0.611622	-0.300775	0.404620
H85	H	0.853798	0.336216	-0.000234
H86	H	0.958490	0.034329	-0.000216
H87	H	1.277229	-0.334725	-0.000201
Br88	Br	0.506113	0.457665	-0.000158
H89	H	0.734570	0.169031	-0.000198
H90	H	1.433754	-0.259059	-0.000161
H91	H	1.223194	0.108049	-0.000129
Br92	Br	0.735335	-0.024939	0.781085
H93	H	0.742723	-0.008451	0.690297
H94	H	1.398892	0.026385	-0.000164
Br95	Br	0.781556	0.078201	0.218408
Br96	Br	0.584478	-0.361308	0.533665
Br97	Br	0.532857	0.099828	-0.000148
Br98	Br	0.792442	0.186246	-0.000236
H99	H	0.873735	0.481927	-0.000242
Br100	Br	0.610691	-0.302920	0.781190
H101	H	0.657666	0.606255	-0.000196
Br102	Br	1.014738	-0.294120	-0.000245
Br103	Br	0.859371	0.675433	-0.000263
H104	H	0.780610	0.076056	0.595000
Br105	Br	0.599799	0.589040	-0.000087
Br106	Br	0.486173	0.311946	-0.000159
H107	H	0.674272	-0.161040	0.247021
Br108	Br	1.093629	0.153001	-0.000174
H109	H	1.507078	0.024427	-0.000143
H110	H	1.169069	-0.332771	-0.000206
H111	H	0.885157	-0.249159	-0.000255
Br112	Br	0.828924	0.079269	-0.000266
Br113	Br	0.643490	-0.229730	0.252294
Br114	Br	0.807757	0.136592	0.465940
