data_functionalizedCrystal
_audit_creation_method	'MofGen! by Chris Wilmer'
_symmetry_space_group_name_H-M	'P1'
_symmetry_Int_Tables_number	1
_symmetry_cell_setting	triclinic
loop_
_symmetry_equiv_pos_as_xyz
  x,y,z
_cell_length_a	10.268362
_cell_length_b	17.699083
_cell_length_c	17.699083
_cell_angle_alpha	83.283015
_cell_angle_beta	89.993826
_cell_angle_gamma	90.001444
loop_
_atom_site_label
_atom_site_type_symbol
_atom_site_fract_x
_atom_site_fract_y
_atom_site_fract_z
O1	O	0.108120	-1.004076	-0.095712
O2	O	0.608120	-0.504076	0.404288
O3	O	0.108163	-0.783697	-0.108164
O4	O	0.608163	-0.283697	0.391836
O5	O	0.108129	-0.900113	0.008251
O6	O	0.608129	-0.400113	0.508251
O7	O	0.108154	-0.887660	-0.212127
O8	O	0.608154	-0.387660	0.287873
O9	O	-0.108472	-0.900103	0.008256
O10	O	0.391528	-0.400103	0.508256
O11	O	-0.108437	-0.783687	-0.108160
O12	O	0.391563	-0.283687	0.391840
O13	O	-0.108480	-1.004066	-0.095707
O14	O	0.391520	-0.504066	0.404293
Cu15	Cu	-0.128236	-0.893876	-0.101933
Cu16	Cu	0.371764	-0.393876	0.398067
Cu17	Cu	0.127919	-0.893888	-0.101938
Cu18	Cu	0.627919	-0.393888	0.398062
O19	O	-0.108446	-0.887650	-0.212122
O20	O	0.391554	-0.387650	0.287878
C21	C	-0.000132	-0.755495	-0.107716
C22	C	0.499868	-0.255495	0.392284
C23	C	-0.000116	-0.671477	-0.106377
C24	C	0.499884	-0.171477	0.393623
N25	N	-0.308402	-0.893873	-0.101928
N26	N	0.191598	-0.393873	0.398072
C27	C	-0.000171	-0.899662	0.036451
C28	C	0.499829	-0.399662	0.536451
C29	C	-0.000172	-0.898323	0.120469
C30	C	0.499828	-0.398323	0.620469
C31	C	-0.574073	-0.893884	-0.101937
C32	C	-0.074073	-0.393884	0.398063
C33	C	-0.426235	-0.893875	-0.101934
C34	C	0.073765	-0.393875	0.398066
N35	N	0.308085	-0.893896	-0.101937
N36	N	0.808085	-0.393896	0.398063
C37	C	-0.000183	-1.032268	-0.096156
C38	C	0.499817	-0.532268	0.403844
C39	C	-0.000190	-1.116286	-0.097494
C40	C	0.499810	-0.616286	0.402506
C41	C	-0.000108	-0.622856	-0.174710
C42	C	0.499892	-0.122856	0.325290
C43	C	-0.000125	-0.543913	-0.173448
C44	C	0.499875	-0.043913	0.326552
C45	C	-0.000140	-0.513592	-0.103852
C46	C	0.499860	-0.013592	0.396148
C47	C	-0.000152	-0.562219	-0.035513
C48	C	0.499848	-0.062219	0.464487
C49	C	-0.000144	-0.641161	-0.036776
C50	C	0.499856	-0.141161	0.463224
C51	C	-0.000184	-0.243856	-0.030418
C52	C	0.499816	0.256144	0.469582
C53	C	-0.000188	-0.164908	-0.029160
C54	C	0.499812	0.335092	0.470840
C55	C	-0.000166	-0.146608	-0.167090
C56	C	0.499834	0.353392	0.332910
C57	C	-0.000158	-0.225550	-0.168353
C58	C	0.499842	0.274450	0.331647
C59	C	-0.000176	-0.274170	-0.100015
C60	C	0.499824	0.225830	0.399985
C61	C	-0.000160	-0.359769	-0.101384
C62	C	0.499840	0.140231	0.398616
C63	C	-0.000147	-0.427995	-0.102481
C64	C	0.499853	0.072005	0.397519
C65	C	-0.000143	-0.888102	-0.240322
C66	C	0.499857	-0.388102	0.259678
C67	C	-0.000134	-0.889440	-0.324340
C68	C	0.499866	-0.389440	0.175660
C69	C	-0.000187	-0.966656	0.169090
C70	C	0.499813	-0.466656	0.669090
C71	C	-0.000175	-0.965394	0.248033
C72	C	0.499825	-0.465394	0.748033
C73	C	-0.000157	-0.895798	0.278354
C74	C	0.499843	-0.395798	0.778354
C75	C	-0.000138	-0.827459	0.229727
C76	C	0.499862	-0.327459	0.729727
C77	C	-0.000141	-0.828722	0.150785
C78	C	0.499859	-0.328722	0.650785
C79	C	-0.000127	-0.822364	0.548090
C80	C	0.499873	-0.322364	1.048090
C81	C	-0.000128	-0.821106	0.627038
C82	C	0.499872	-0.321106	1.127038
C83	C	-0.000161	-0.959036	0.645338
C84	C	0.499839	-0.459036	1.145338
C85	C	-0.000163	-0.960299	0.566396
C86	C	0.499837	-0.460299	1.066396
C87	C	-0.000138	-0.891961	0.517776
C88	C	0.499862	-0.391961	1.017776
C89	C	-0.000148	-0.893330	0.432177
C90	C	0.499852	-0.393330	0.932177
C91	C	-0.000156	-0.894427	0.363951
C92	C	0.499844	-0.394427	0.863951
H93	H	-0.000095	-0.647537	-0.231384
H94	H	0.499905	-0.147537	0.268616
C95	C	-0.000196	-0.297328	0.044751
C96	C	0.499804	0.202672	0.544751
H97	H	-0.000192	-0.267962	0.086379
H98	H	0.499808	0.232038	0.586379
H99	H	-0.075728	-0.328507	0.047130
H100	H	0.424272	0.171493	0.547130
H101	H	0.075349	-0.328501	0.047126
H102	H	0.575349	0.171499	0.547126
C103	C	-0.000168	-1.034208	0.698822
C104	C	0.499832	-0.534208	1.198822
H105	H	-0.000148	-1.023492	0.750180
H106	H	0.499852	-0.523492	1.250180
H107	H	-0.075708	-1.062749	0.689652
H108	H	0.424292	-0.562749	1.189652
H109	H	0.075368	-1.062753	0.689636
H110	H	0.575368	-0.562753	1.189636
H111	H	-0.000116	-0.764429	0.651721
H112	H	0.499884	-0.264429	1.151721
H113	H	-0.000183	-0.537526	0.021154
H114	H	0.499817	-0.037526	0.521154
H115	H	-0.000202	-0.140225	0.027517
H116	H	0.499798	0.359775	0.527517
C117	C	-0.000139	-0.694644	0.038390
C118	C	0.499861	-0.194644	0.538390
H119	H	-0.000135	-0.665282	0.080021
H120	H	0.499865	-0.165282	0.580021
H121	H	-0.075668	-0.725826	0.040769
H122	H	0.424332	-0.225826	0.540769
H123	H	0.075409	-0.725813	0.040760
H124	H	0.575409	-0.225813	0.540760
H125	H	-0.000106	-0.766718	0.508512
H126	H	0.499894	-0.266718	1.008512
H127	H	-0.000128	-0.773078	0.111198
H128	H	0.499872	-0.273078	0.611198
C129	C	-0.000154	-0.093127	-0.242264
C130	C	0.499846	0.406873	0.257736
H131	H	-0.000127	-0.122493	-0.283892
H132	H	0.499873	0.377507	0.216108
H133	H	-0.075689	-0.061954	-0.244644
H134	H	0.424311	0.438046	0.255356
H135	H	0.075388	-0.061950	-0.244636
H136	H	0.575388	0.438050	0.255364
C137	C	-0.000206	-1.043214	0.135744
C138	C	0.499794	-0.543214	0.635744
H139	H	-0.000201	-1.083729	0.176010
H140	H	0.499799	-0.583729	0.676010
H141	H	-0.075740	-1.046572	0.105334
H142	H	0.424260	-0.546572	0.605334
H143	H	0.075336	-1.046576	0.105325
H144	H	0.575336	-0.546576	0.605325
H145	H	-0.000116	-0.770792	0.254420
H146	H	0.499884	-0.270792	0.754420
H147	H	-0.000184	-1.016971	0.541714
H148	H	0.499816	-0.516971	1.041714
C149	C	-0.000113	-0.490433	-0.248615
C150	C	0.499887	0.009567	0.251385
H151	H	-0.000086	-0.519797	-0.290244
H152	H	0.499914	-0.019797	0.209756
H153	H	-0.075650	-0.459262	-0.250992
H154	H	0.424350	0.040738	0.249008
H155	H	0.075427	-0.459254	-0.250988
H156	H	0.575427	0.040746	0.249012
C157	C	-0.000147	-0.258899	-0.244909
C158	C	0.499853	0.241101	0.255091
H159	H	-0.000158	-0.218635	-0.285426
H160	H	0.499842	0.281365	0.214574
H161	H	0.075387	-0.289312	-0.248272
H162	H	0.575387	0.210688	0.251728
H163	H	-0.075690	-0.289315	-0.248262
H164	H	0.424310	0.210685	0.251738
C165	C	-0.000205	-1.040561	0.301513
C166	C	0.499795	-0.540561	0.801513
H167	H	-0.000235	-1.082190	0.272149
H168	H	0.499765	-0.582190	0.772149
H169	H	0.075327	-1.042947	0.332685
H170	H	0.575327	-0.542947	0.832685
H171	H	-0.075749	-1.042926	0.332691
H172	H	0.424251	-0.542926	0.832691
