data_functionalizedCrystal
_audit_creation_method	'MofGen! by Chris Wilmer'
_symmetry_space_group_name_H-M	'P1'
_symmetry_Int_Tables_number	1
_symmetry_cell_setting	triclinic
loop_
_symmetry_equiv_pos_as_xyz
  x,y,z
_cell_length_a	23.532355
_cell_length_b	16.992695
_cell_length_c	15.455313
_cell_angle_alpha	87.152573
_cell_angle_beta	87.341931
_cell_angle_gamma	93.252139
loop_
_atom_site_label
_atom_site_type_symbol
_atom_site_fract_x
_atom_site_fract_y
_atom_site_fract_z
O1	O	0.762326	-0.091511	-0.072013
O2	O	1.262326	0.408489	0.427987
O3	O	0.597145	-0.105320	-0.072041
O4	O	1.097145	0.394680	0.427959
O5	O	0.679073	0.015722	-0.072020
O6	O	1.179073	0.515722	0.427980
O7	O	0.680398	-0.212552	-0.072033
O8	O	1.180398	0.287448	0.427967
O9	O	0.674387	0.008828	0.072241
O10	O	1.174387	0.508828	0.572241
O11	O	0.592458	-0.112213	0.072220
O12	O	1.092458	0.387787	0.572220
O13	O	0.757640	-0.098405	0.072248
O14	O	1.257640	0.401595	0.572248
Cu15	Cu	0.674621	-0.105938	0.085406
Cu16	Cu	1.174621	0.394062	0.585406
Cu17	Cu	0.680163	-0.097786	-0.085199
Cu18	Cu	1.180163	0.402214	0.414801
O19	O	0.675712	-0.219446	0.072227
O20	O	1.175712	0.280554	0.572227
C21	C	0.573568	-0.108421	0.000086
C22	C	1.073568	0.391579	0.500086
C23	C	0.510298	-0.107383	0.000076
C24	C	1.010298	0.392617	0.500076
C25	C	0.115405	-0.104621	0.078749
C26	C	0.615405	0.395379	0.578749
C27	C	0.055957	-0.103634	0.078753
C28	C	0.555957	0.396366	0.578753
O29	O	0.023039	-0.106292	0.145629
O30	O	0.523039	0.393708	0.645629
N31	N	0.028778	-0.099387	0.000117
N32	N	0.528778	0.400613	0.500117
C33	C	0.061052	-0.096119	-0.078528
C34	C	0.561052	0.403881	0.421472
O35	O	0.032476	-0.092415	-0.145414
O36	O	0.532476	0.407585	0.354586
C37	C	0.120500	-0.097100	-0.078531
C38	C	0.620500	0.402900	0.421469
C39	C	0.147675	-0.101356	0.000111
C40	C	0.647675	0.398644	0.500111
C41	C	0.142580	-0.108875	0.157384
C42	C	0.642580	0.391125	0.657384
C43	C	0.202024	-0.109864	0.157381
C44	C	0.702024	0.390136	0.657381
C45	C	0.234294	-0.106598	0.078742
C46	C	0.734294	0.393402	0.578742
C47	C	0.207119	-0.102344	0.000107
C48	C	0.707119	0.397656	0.500107
C49	C	0.152773	-0.093827	-0.157175
C50	C	0.652773	0.406173	0.342825
C51	C	0.212224	-0.094808	-0.157171
C52	C	0.712224	0.405192	0.342829
C53	C	0.239399	-0.099063	-0.078529
C54	C	0.739399	0.400937	0.421471
C55	C	0.298833	-0.100067	-0.078536
C56	C	0.798833	0.399933	0.421464
N57	N	0.326011	-0.104314	0.000101
N58	N	0.826011	0.395686	0.500101
C59	C	0.293742	-0.107580	0.078739
C60	C	0.793742	0.392420	0.578739
C61	C	-0.063792	-0.094056	-0.078517
C62	C	0.436208	0.405944	0.421483
C63	C	-0.123239	-0.093080	-0.078516
C64	C	0.376761	0.406920	0.421484
C65	C	-0.128330	-0.100594	0.078766
C66	C	0.371670	0.399406	0.578766
C67	C	-0.068883	-0.101575	0.078764
C68	C	0.431117	0.398425	0.578764
C69	C	-0.036614	-0.098303	0.000119
C70	C	0.463386	0.401697	0.500119
C71	C	0.418579	-0.109657	0.078726
C72	C	0.918579	0.390343	0.578726
C73	C	0.478029	-0.110648	0.078715
C74	C	0.978029	0.389352	0.578715
C75	C	0.483115	-0.103130	-0.078566
C76	C	0.983115	0.396870	0.421434
C77	C	0.423671	-0.102143	-0.078556
C78	C	0.923671	0.397857	0.421444
C79	C	0.391404	-0.105404	0.000097
C80	C	0.891404	0.394596	0.500097
O81	O	0.331787	-0.097408	-0.145378
O82	O	0.831787	0.402592	0.354622
O83	O	0.322326	-0.111273	0.145614
O84	O	0.822326	0.388727	0.645614
C85	C	0.675026	0.041474	0.000110
C86	C	1.175026	0.541474	0.500110
C87	C	0.669943	0.128477	0.000109
C88	C	1.169943	0.628477	0.500109
C89	C	0.781217	-0.095303	0.000119
C90	C	1.281217	0.404697	0.500119
C91	C	0.844487	-0.096341	0.000124
C92	C	1.344487	0.403659	0.500124
C93	C	0.679758	-0.245198	0.000095
C94	C	1.179758	0.254802	0.500095
C95	C	0.684842	-0.332201	0.000091
C96	C	1.184842	0.167799	0.500091
N97	N	0.670727	-0.111672	0.205401
N98	N	1.170727	0.388328	0.705401
C99	C	0.718990	0.179112	0.000118
C100	C	1.218990	0.679112	0.500118
C101	C	0.714210	0.260860	0.000109
C102	C	1.214210	0.760860	0.500109
C103	C	0.660383	0.291972	0.000097
C104	C	1.160383	0.791972	0.500097
C105	C	0.611333	0.241331	0.000086
C106	C	1.111333	0.741331	0.500086
C107	C	0.616113	0.159585	0.000088
C108	C	1.116113	0.659585	0.500088
C109	C	0.640572	0.535411	0.000082
C110	C	1.140572	1.035411	0.500082
C111	C	0.635795	0.617164	0.000082
C112	C	1.135795	1.117164	0.500082
C113	C	0.738673	0.636688	0.000104
C114	C	1.238673	1.136688	0.500104
C115	C	0.743448	0.554938	0.000112
C116	C	1.243448	1.054938	0.500112
C117	C	0.694398	0.504305	0.000096
C118	C	1.194398	1.004305	0.500096
N119	N	0.655497	0.375532	0.000091
N120	N	1.155497	0.875532	0.500091
N121	N	0.699285	0.420747	0.000096
N122	N	1.199285	0.920747	0.500096
N123	N	0.684061	-0.092047	-0.205193
N124	N	1.184061	0.407953	0.294807
C125	C	0.705547	-0.060268	0.250804
C126	C	1.205547	0.439732	0.750804
C127	C	0.702608	-0.064611	0.341611
C128	C	1.202608	0.435389	0.841611
C129	C	0.664851	-0.120362	0.387014
C130	C	1.164851	0.379638	0.887014
C131	C	0.630028	-0.171768	0.341604
C132	C	1.130028	0.328232	0.841604
C133	C	0.632965	-0.167421	0.250799
C134	C	1.132965	0.332579	0.750799
C135	C	0.652175	-0.139105	0.658592
C136	C	1.152175	0.360895	1.158592
C137	C	0.649242	-0.143450	0.749404
C138	C	1.149242	0.356550	1.249404
C139	C	0.721821	-0.036292	0.749404
C140	C	1.221821	0.463708	1.249404
C141	C	0.724757	-0.031952	0.658597
C142	C	1.224757	0.468048	1.158597
C143	C	0.689931	-0.083356	0.613196
C144	C	1.189931	0.416644	1.113196
N145	N	0.661847	-0.124804	0.479833
N146	N	1.161847	0.375196	0.979833
N147	N	0.692933	-0.078909	0.520378
N148	N	1.192933	0.421091	1.020378
H149	H	-0.145360	-0.089627	-0.142553
H150	H	0.354640	0.410373	0.357447
H151	H	0.730960	-0.022753	0.378578
H152	H	1.230960	0.477247	0.878578
H153	H	0.599283	-0.217159	0.378576
H154	H	1.099283	0.282841	0.878576
H155	H	0.755501	0.013445	0.621632
H156	H	1.255501	0.513445	1.121632
H157	H	0.736295	-0.014872	0.213843
H158	H	1.236295	0.485128	0.713843
H159	H	0.778607	0.677922	0.000115
H160	H	1.278607	1.177922	0.500115
H161	H	0.623819	-0.180962	0.621633
H162	H	1.123819	0.319038	1.121633
H163	H	0.787279	0.529614	0.000122
H164	H	1.287279	1.029614	0.500122
H165	H	-0.046761	-0.105041	0.142800
H166	H	0.453239	0.394959	0.642800
H167	H	0.750174	0.005559	0.786378
H168	H	1.250174	0.505559	1.286378
H169	H	0.604610	-0.209278	0.213833
H170	H	1.104610	0.290722	0.713833
H171	H	0.224145	-0.113324	0.221419
H172	H	0.724145	0.386676	0.721419
H173	H	0.591960	0.642491	0.000086
H174	H	1.091960	1.142491	0.500086
H175	H	0.500151	-0.114116	0.142757
H176	H	1.000151	0.385884	0.642757
H177	H	0.600631	0.494195	0.000069
H178	H	1.100631	0.994195	0.500069
H179	H	0.754149	0.302084	0.000118
H180	H	1.254149	0.802084	0.500118
H181	H	0.392314	-0.112319	0.142772
H182	H	0.892314	0.387681	0.642772
H183	H	0.401543	-0.098690	-0.142592
H184	H	0.901543	0.401310	0.357408
H185	H	-0.037522	-0.091398	-0.142563
H186	H	0.462478	0.408602	0.357437
H187	H	-0.154615	-0.103251	0.142798
H188	H	0.345385	0.396749	0.642798
H189	H	0.567506	0.266669	0.000070
H190	H	1.067506	0.766669	0.500070
H191	H	0.130658	-0.090360	-0.221213
H192	H	0.630658	0.409640	0.278787
H193	H	0.238495	-0.092144	-0.221214
H194	H	0.738495	0.407856	0.278786
H195	H	0.762821	0.153787	0.000133
H196	H	1.262821	0.653787	0.500133
H197	H	0.576174	0.118358	0.000081
H198	H	1.076174	0.618358	0.500081
H199	H	0.116312	-0.111533	0.221425
H200	H	0.616312	0.388467	0.721425
H201	H	0.509400	-0.100475	-0.142592
H202	H	1.009400	0.399525	0.357408
H203	H	0.618494	-0.188853	0.786366
H204	H	1.118494	0.311147	1.286366
