data_functionalizedCrystal
_audit_creation_method	'MofGen! by Chris Wilmer'
_symmetry_space_group_name_H-M	'P1'
_symmetry_Int_Tables_number	1
_symmetry_cell_setting	triclinic
loop_
_symmetry_equiv_pos_as_xyz
  x,y,z
_cell_length_a	14.853567
_cell_length_b	14.519709
_cell_length_c	13.930277
_cell_angle_alpha	89.994503
_cell_angle_beta	89.995755
_cell_angle_gamma	83.657538
loop_
_atom_site_label
_atom_site_type_symbol
_atom_site_fract_x
_atom_site_fract_y
_atom_site_fract_z
O1	O	1.196415	0.120405	-0.079767
O2	O	0.933961	0.134748	-0.079783
O3	O	1.072147	-0.006665	-0.079766
O4	O	1.058230	0.261817	-0.079784
O5	O	1.072128	-0.006668	0.079896
O6	O	0.933942	0.134745	0.079878
O7	O	1.196396	0.120402	0.079895
Zn8	Zn	1.065166	0.127573	0.105236
Zn9	Zn	1.065191	0.127577	-0.105125
O10	O	1.058210	0.261814	0.079878
C11	C	0.900363	0.134096	0.000045
C12	C	0.800278	0.132149	0.000039
C13	C	0.387709	0.039914	0.000067
C14	C	0.366493	0.207916	0.000055
C15	C	0.460527	0.209747	0.000052
C16	C	0.518157	0.126660	0.000055
C17	C	0.481752	0.041743	0.000061
C18	C	0.496939	0.294663	0.000035
C19	C	0.590979	0.296498	0.000031
C20	C	0.648610	0.213410	0.000041
C21	C	0.612200	0.128489	0.000049
C22	C	0.669830	0.045403	0.000052
C23	C	0.633422	-0.039520	0.000066
C24	C	0.539383	-0.041345	0.000071
C25	C	0.742649	0.215235	0.000036
C26	C	0.763873	0.047231	0.000046
C27	C	1.071488	-0.041026	0.000065
C28	C	1.069545	-0.143407	0.000065
C29	C	1.062390	-0.518299	0.000040
C30	C	1.064377	-0.413992	0.000047
C31	C	1.065967	-0.330856	0.000054
C32	C	1.067955	-0.226543	0.000059
C33	C	1.229994	0.121053	0.000064
C34	C	1.330079	0.123001	0.000064
C35	C	1.058869	0.296175	0.000044
C36	C	1.060812	0.398556	0.000038
N37	N	1.065155	0.127569	0.248803
N38	N	1.065209	0.127573	-0.248691
C39	C	1.004000	0.190170	0.701064
C40	C	1.126407	0.064977	0.701049
C41	C	1.126396	0.064974	0.600553
C42	C	1.065188	0.127571	0.550308
C43	C	1.003989	0.190171	0.600559
C44	C	1.187599	0.002381	0.550295
C45	C	1.187592	0.002376	0.449793
C46	C	1.126378	0.064970	0.399546
C47	C	1.065177	0.127571	0.449803
C48	C	1.003968	0.190168	0.399558
C49	C	0.942762	0.252767	0.449814
C50	C	0.942776	0.252764	0.550312
C51	C	1.126364	0.064972	0.299047
C52	C	1.003957	0.190169	0.299053
H53	H	0.509731	-0.110484	0.000105
H54	H	0.810790	-0.020429	0.000052
H55	H	0.772288	0.284378	0.000026
O56	O	0.883430	0.313612	0.400895
C57	C	0.864439	0.439561	0.287458
C58	C	0.931727	0.370695	0.342785
H59	H	0.903460	0.485744	0.240478
H60	H	0.819357	0.399707	0.240348
H61	H	0.820675	0.484260	0.340651
H62	H	0.975550	0.325979	0.289661
H63	H	0.976746	0.410606	0.389909
O64	O	0.883418	0.313538	0.599278
C65	C	0.829163	0.368988	0.754113
C66	C	0.896444	0.300126	0.698775
H67	H	0.839659	0.358156	0.834565
H68	H	0.841026	0.442897	0.734412
H69	H	0.756944	0.356849	0.734318
H70	H	0.968689	0.312181	0.718539
H71	H	0.884503	0.226241	0.718480
H72	H	0.319566	0.275561	0.000044
H73	H	0.954164	0.241134	0.741984
O74	O	0.626455	0.378926	0.000141
C75	C	0.720278	0.478516	0.082855
C76	C	0.680173	0.385128	0.082843
H77	H	0.763702	0.483569	0.149723
H78	H	0.763834	0.483574	0.016077
H79	H	0.662926	0.537575	0.082800
H80	H	0.737467	0.326016	0.082931
H81	H	0.636593	0.380151	0.149615
O82	O	1.185816	0.004044	0.749753
C83	C	1.238328	-0.156222	0.780571
C84	C	1.171015	-0.087310	0.725330
H85	H	1.226372	-0.230097	0.760861
H86	H	1.310574	-0.144161	0.760785
H87	H	1.227829	-0.145417	0.861026
H88	H	1.181431	-0.098074	0.644862
H89	H	1.098793	-0.099389	0.745196
O90	O	1.247003	-0.058553	0.599003
C91	C	1.299508	-0.218821	0.629822
C92	C	1.232205	-0.149906	0.574572
H93	H	1.287555	-0.292695	0.610106
H94	H	1.371758	-0.206759	0.610050
H95	H	1.288997	-0.208018	0.710276
H96	H	1.242633	-0.160667	0.494106
H97	H	1.159979	-0.161985	0.594424
H98	H	0.450011	0.362307	0.000023
H99	H	1.237428	-0.048595	0.408882
O100	O	1.185723	0.004056	0.250262
C101	C	1.238356	-0.156192	0.219528
C102	C	1.171065	-0.087308	0.274827
H103	H	1.226541	-0.230075	0.239384
H104	H	1.227825	-0.145509	0.139060
H105	H	1.310573	-0.143979	0.239254
H106	H	1.098822	-0.099479	0.255182
H107	H	1.181675	-0.098008	0.355282
O108	O	0.689535	-0.120142	0.000109
C109	C	0.843818	-0.191764	0.000034
C110	C	0.780369	-0.100395	0.000009
H111	H	0.917270	-0.175830	-0.000067
H112	H	0.830640	-0.233561	0.066875
H113	H	0.830507	-0.233550	-0.066762
H114	H	0.793643	-0.058534	0.066759
H115	H	0.793561	-0.058668	-0.066876
H116	H	0.358060	-0.029228	0.000082
H117	H	0.954110	0.241140	0.258150
