data_functionalizedCrystal
_audit_creation_method	'MofGen! by Chris Wilmer'
_symmetry_space_group_name_H-M	'P1'
_symmetry_Int_Tables_number	1
_symmetry_cell_setting	triclinic
loop_
_symmetry_equiv_pos_as_xyz
  x,y,z
_cell_length_a	18.760487
_cell_length_b	17.052862
_cell_length_c	17.052862
_cell_angle_alpha	61.493325
_cell_angle_beta	90.033923
_cell_angle_gamma	70.288255
loop_
_atom_site_label
_atom_site_type_symbol
_atom_site_fract_x
_atom_site_fract_y
_atom_site_fract_z
Zr1	Zr	0.826075	0.816831	-0.199988
O2	O	0.747361	0.944711	-0.328161
O3	O	0.832875	0.666110	-0.145793
O4	O	0.871068	0.783920	-0.306584
O5	O	0.698753	0.860826	-0.057488
O6	O	0.988365	0.783941	-0.306516
O7	O	0.709167	0.826901	-0.167370
O8	O	0.920043	0.573201	-0.018891
O9	O	0.767075	1.071566	-0.345113
O10	O	0.944250	0.736578	-0.140634
O11	O	0.848941	0.761881	-0.058681
O12	O	0.893909	0.900587	-0.247992
O13	O	0.798600	0.925889	-0.166039
Zr14	Zr	0.996540	0.870970	-0.024631
Zr15	Zr	1.013149	0.816864	-0.199880
Zr16	Zr	0.809466	0.870937	-0.024739
Zr17	Zr	0.857517	1.019150	-0.227026
Zr18	Zr	0.965099	0.668650	0.002407
O19	O	0.989741	1.021690	-0.078826
O20	O	1.013357	0.944758	-0.328007
O21	O	0.723745	1.021644	-0.078980
O22	O	1.075254	0.743090	0.103542
O23	O	1.098870	0.666157	-0.145639
O24	O	0.809259	0.743043	0.103388
O25	O	1.123862	0.826974	-0.167131
O26	O	0.951547	0.903881	0.081965
O27	O	0.834251	0.903860	0.081897
O28	O	1.113448	0.860899	-0.057249
O29	O	0.915774	1.071593	-0.345028
O30	O	0.906841	0.616208	0.120409
O31	O	1.055540	0.616234	0.120495
O32	O	1.068742	0.573227	-0.018805
O33	O	0.753873	1.114574	-0.205814
O34	O	0.902572	1.114600	-0.205728
O35	O	0.928706	0.787214	0.023373
O36	O	1.024015	0.761912	-0.058580
O37	O	0.973674	0.925920	-0.165938
O38	O	0.878366	0.951222	-0.083985
C39	C	0.871979	0.590829	-0.078489
C40	C	0.858631	0.504939	-0.067011
C41	C	1.020006	0.210004	-0.205783
C42	C	1.032546	0.290704	-0.216573
C43	C	0.989069	0.344267	-0.179184
C44	C	0.933049	0.317121	-0.131002
C45	C	0.920504	0.236417	-0.120216
C46	C	0.889566	0.370680	-0.093617
C47	C	0.833547	0.343534	-0.045435
C48	C	0.821005	0.262837	-0.034651
C49	C	0.864482	0.209275	-0.072041
C50	C	0.902111	0.451384	-0.104402
C51	C	0.802609	0.477797	-0.018836
C52	C	0.790070	0.397096	-0.008046
C53	C	0.677306	0.843859	-0.112444
C54	C	0.597888	0.843845	-0.112490
C55	C	0.235764	0.929559	-0.168207
C56	C	0.288325	0.758331	-0.056124
C57	C	0.362953	0.758308	-0.056194
C58	C	0.373990	0.843911	-0.112273
C59	C	0.310399	0.929538	-0.168281
C60	C	0.426551	0.672681	-0.000194
C61	C	0.501185	0.672654	-0.000262
C62	C	0.512222	0.758260	-0.056337
C63	C	0.448625	0.843890	-0.112346
C64	C	0.459662	0.929493	-0.168425
C65	C	0.396065	1.015126	-0.224430
C66	C	0.321436	1.015143	-0.224355
C67	C	0.586851	0.758242	-0.056412
C68	C	0.534297	0.929472	-0.168498
C69	C	1.145309	0.843942	-0.112175
C70	C	1.224727	0.843956	-0.112129
C71	C	0.932083	0.776221	-0.331519
C72	C	0.939134	0.753252	-0.405917
C73	C	0.950636	1.096972	-0.146130
C74	C	0.963984	1.182862	-0.157608
C75	C	0.853889	1.030955	-0.839795
C76	C	0.847259	1.052539	-0.769896
C77	C	0.870228	0.977719	-0.678899
C78	C	0.899826	0.881311	-0.657805
C79	C	0.906450	0.859725	-0.727710
C80	C	0.922789	0.806489	-0.566814
C81	C	0.952388	0.710081	-0.545720
C82	C	0.959011	0.688499	-0.615620
C83	C	0.936043	0.763319	-0.706617
C84	C	0.916165	0.828076	-0.496909
C85	C	0.968727	0.656846	-0.384824
C86	C	0.975356	0.635262	-0.454722
C87	C	0.890532	0.911579	0.106900
C88	C	0.883481	0.934549	0.181298
C89	C	1.105981	0.590870	-0.078354
C90	C	1.172051	0.504994	-0.066830
C91	C	0.851204	0.658508	0.140720
C92	C	0.830805	0.595588	0.226596
C93	C	1.085205	0.658549	0.140855
C94	C	1.144224	0.595643	0.226777
C95	C	0.737410	1.029251	-0.365474
C96	C	0.678391	1.092158	-0.451396
C97	C	0.716635	1.096930	-0.146264
C98	C	0.650565	1.182806	-0.157788
C99	C	0.971412	1.029293	-0.365339
C100	C	0.991810	1.092213	-0.451215
C101	C	1.161442	0.451440	-0.104257
C102	C	1.223518	0.370757	-0.093447
C103	C	1.296201	0.343625	-0.045204
C104	C	1.306809	0.397188	-0.007777
C105	C	1.244735	0.477874	-0.018593
C106	C	0.862861	0.579266	0.309763
C107	C	0.843692	0.520159	0.390458
C108	C	0.792471	0.477369	0.387984
C109	C	0.760411	0.493697	0.304808
C110	C	0.779576	0.552808	0.224115
C111	C	1.221699	0.552894	0.224348
C112	C	1.277163	0.493796	0.305072
C113	C	1.255151	0.477443	0.388225
C114	C	1.177669	0.520199	0.390652
C115	C	1.122207	0.579302	0.309927
C116	C	0.600918	1.134917	-0.448968
C117	C	0.545458	1.194040	-0.529696
C118	C	0.567471	1.210397	-0.612849
C119	C	0.644952	1.167635	-0.615275
C120	C	0.700411	1.108519	-0.534549
C121	C	0.661175	1.236367	-0.120370
C122	C	0.599105	1.317067	-0.131202
C123	C	0.526422	1.344200	-0.179448
C124	C	0.515813	1.290635	-0.216871
C125	C	0.577885	1.209941	-0.206044
C126	C	1.043034	1.134985	-0.448712
C127	C	1.062216	1.194097	-0.529393
C128	C	1.030169	1.210441	-0.612578
C129	C	0.978942	1.167661	-0.615078
C130	C	0.959765	1.108545	-0.534397
H131	H	0.854279	0.143557	-0.063253
H132	H	1.253382	0.521470	0.011891
H133	H	0.552961	0.602926	0.045340
H134	H	0.869806	0.506873	0.458175
H135	H	0.753471	0.566087	0.156401
H136	H	0.952853	1.180978	-0.682818
H137	H	0.718705	0.458849	0.302808
F138	F	0.668368	1.185051	-0.703781
H139	H	0.775384	0.240744	0.004573
H140	H	1.300319	0.429316	0.453949
F141	F	1.245143	0.570291	0.135858
H142	H	0.582980	1.121602	-0.381267
H143	H	1.365996	0.375085	0.031502
F144	F	1.002416	0.430155	-0.190667
F145	F	0.508437	1.273316	-0.698759
F146	F	0.829437	1.110572	-0.936638
H147	H	0.763492	1.073702	-0.536536
H148	H	0.638627	0.688523	-0.010806
H149	H	0.543273	0.999184	-0.214156
H150	H	0.569234	1.166333	-0.236514
F151	F	1.359619	0.448297	0.302471
H152	H	0.918052	1.073726	-0.536448
H153	H	1.159757	0.506875	0.458366
H154	H	1.059124	0.614101	0.311918
H155	H	0.941441	0.745751	-0.763539
F156	F	0.463002	1.239538	-0.527095
H157	H	0.720351	1.214284	-0.081079
H158	H	0.607757	1.360669	-0.100722
H159	H	0.279333	0.688636	-0.010471
F160	F	0.961730	0.480265	-0.155679
F161	F	0.815739	1.155140	-0.792349
H162	H	0.892064	0.906572	-0.514092
F163	F	0.407821	1.106227	-0.284113
H164	H	0.475886	1.409909	-0.188258
H165	H	0.417558	0.602987	0.045462
H166	H	1.069135	1.121690	-0.380987
H167	H	0.983105	0.609997	-0.598439
F168	F	1.006854	0.532660	-0.432285
F169	F	0.863173	1.000694	-0.604508
F170	F	0.438453	1.319523	-0.268214
H171	H	0.269651	1.084861	-0.269951
H172	H	1.103926	1.228924	-0.527340
F173	F	0.730454	0.368193	0.043235
H174	H	0.904569	0.614101	0.311794
F175	F	0.993169	0.577212	-0.287979
F176	F	1.050584	1.273362	-0.698440
H177	H	0.776872	0.429239	0.453697
H178	H	1.078156	0.312804	-0.255804
H179	H	0.183981	0.999280	-0.213803
H180	H	1.055397	0.166393	-0.236227
F181	F	1.084093	0.480301	-0.155608
H182	H	1.214866	0.327154	-0.123927
F183	F	0.756331	0.534802	0.020955
F184	F	1.362259	0.257748	-0.033699
