data_functionalizedCrystal
_audit_creation_method	'MofGen! by Chris Wilmer'
_symmetry_space_group_name_H-M	'P1'
_symmetry_Int_Tables_number	1
_symmetry_cell_setting	triclinic
loop_
_symmetry_equiv_pos_as_xyz
  x,y,z
_cell_length_a	21.395362
_cell_length_b	13.032721
_cell_length_c	21.395355
_cell_angle_alpha	82.834036
_cell_angle_beta	90.043940
_cell_angle_gamma	97.222741
loop_
_atom_site_label
_atom_site_type_symbol
_atom_site_fract_x
_atom_site_fract_y
_atom_site_fract_z
Zn1	Zn	0.926247	-0.415745	0.386233
Zn2	Zn	1.426247	0.084255	0.886233
Zn3	Zn	0.912862	-0.590486	0.294757
Zn4	Zn	1.412862	-0.090486	0.794757
Zn5	Zn	0.821458	-0.415794	0.281438
Zn6	Zn	1.321458	0.084206	0.781438
Zn7	Zn	0.808142	-0.590507	0.399463
Zn8	Zn	1.308142	-0.090507	0.899463
O9	O	0.867177	-0.503133	0.340473
O10	O	1.367177	-0.003133	0.840473
O11	O	1.012151	-0.438895	0.374135
O12	O	1.512151	0.061105	0.874135
O13	O	0.900708	-0.567324	0.205313
O14	O	1.400708	-0.067324	0.705313
O15	O	0.846533	-0.269539	0.284228
O16	O	1.346533	0.230461	0.784228
O17	O	1.002318	-0.567277	0.306928
O18	O	1.502318	-0.067277	0.806928
O19	O	0.923520	-0.269504	0.361220
O20	O	1.423520	0.230496	0.861220
O21	O	0.833554	-0.438978	0.195527
O22	O	1.333554	0.061022	0.695527
O23	O	0.732011	-0.438999	0.297057
O24	O	1.232011	0.061001	0.797057
O25	O	0.823837	-0.567313	0.485385
O26	O	1.323837	-0.067313	0.985385
O27	O	0.722228	-0.567361	0.383770
O28	O	1.222228	-0.067361	0.883770
O29	O	0.910608	-0.438916	0.475665
O30	O	1.410608	0.061084	0.975665
O31	O	0.887796	-0.736737	0.319757
O32	O	1.387796	-0.236737	0.819757
O33	O	0.810859	-0.736753	0.396685
O34	O	1.310859	-0.236753	0.896685
C35	C	0.704385	-0.503188	0.340404
C36	C	1.204385	-0.003188	0.840404
C37	C	0.634740	-0.503237	0.340392
C38	C	1.134740	-0.003237	0.840392
C39	C	0.596943	-0.570163	0.385490
C40	C	1.096943	-0.070163	0.885490
C41	C	0.531509	-0.570138	0.385516
C42	C	1.031509	-0.070138	0.885516
C43	C	0.503875	-0.503197	0.340433
C44	C	1.003875	-0.003197	0.840433
C45	C	0.541681	-0.436257	0.295331
C46	C	1.041681	0.063743	0.795331
C47	C	0.607114	-0.436278	0.295311
C48	C	1.107114	0.063722	0.795311
C49	C	0.400790	-0.494778	0.283387
C50	C	0.900790	0.005222	0.783387
C51	C	0.335358	-0.494765	0.283407
C52	C	0.835358	0.005235	0.783407
C53	C	0.302059	-0.503129	0.340497
C54	C	0.802059	-0.003129	0.840497
C55	C	0.334199	-0.511527	0.397570
C56	C	0.834199	-0.011527	0.897570
C57	C	0.399631	-0.511547	0.397549
C58	C	0.899631	-0.011547	0.897549
C59	C	0.432925	-0.503167	0.340451
C60	C	0.932925	-0.003167	0.840451
C61	C	0.193311	-0.570031	0.385627
C62	C	0.693311	-0.070031	0.885627
C63	C	0.127877	-0.569998	0.385654
C64	C	0.627877	-0.069998	0.885654
C65	C	0.138050	-0.436123	0.295464
C66	C	0.638050	0.063877	0.795464
C67	C	0.203483	-0.436150	0.295443
C68	C	0.703483	0.063850	0.795443
C69	C	0.231110	-0.503110	0.340524
C70	C	0.731110	-0.003110	0.840524
C71	C	0.846447	-0.774665	0.361116
C72	C	1.346447	-0.274665	0.861116
C73	C	0.837636	-0.890828	0.369968
C74	C	1.337636	-0.390828	0.869968
C75	C	0.871809	-0.942574	0.335881
C76	C	1.371809	-0.442574	0.835881
C77	C	0.862703	-1.062634	0.345029
C78	C	1.362703	-0.562634	0.845029
C79	C	1.030605	-0.503078	0.340542
C80	C	1.530605	-0.003078	0.840542
C81	C	1.100248	-0.503055	0.340571
C82	C	1.600248	-0.003055	0.840571
C83	C	0.867231	-0.503112	0.503894
C84	C	1.367231	-0.003112	1.003894
C85	C	0.867254	-0.503103	0.573535
C86	C	1.367254	-0.003103	1.073535
C87	C	0.888005	-0.230541	0.319763
C88	C	1.388005	0.269459	0.819763
C89	C	0.896880	-0.114378	0.310937
C90	C	1.396880	0.385622	0.810937
C91	C	0.867165	-0.503079	0.177681
C92	C	1.367165	-0.003079	0.677681
C93	C	0.867286	-0.502793	0.108018
C94	C	1.367286	-0.002793	0.608018
C95	C	0.912434	-0.436244	0.601188
C96	C	1.412434	0.063756	1.101188
C97	C	0.912436	-0.436199	0.666620
C98	C	1.412436	0.063801	1.166620
C99	C	0.867264	-0.503032	0.704398
C100	C	1.367264	-0.003032	1.204398
C101	C	0.822076	-0.569895	0.676738
C102	C	1.322076	-0.069895	1.176738
C103	C	0.822070	-0.569931	0.611306
C104	C	1.322070	-0.069931	1.111306
C105	C	0.855132	-0.597135	0.815225
C106	C	1.355132	-0.097135	1.315225
C107	C	0.855142	-0.597102	0.880656
C108	C	1.355142	-0.097102	1.380656
C109	C	0.867276	-0.502921	0.906210
C110	C	1.367276	-0.002921	1.406210
C111	C	0.879414	-0.408772	0.866327
C112	C	1.379414	0.091228	1.366327
C113	C	0.879409	-0.408807	0.800895
C114	C	1.379409	0.091193	1.300895
C115	C	0.867264	-0.503000	0.775348
C116	C	1.367264	-0.003000	1.275348
C117	C	0.912462	-0.436008	1.004811
C118	C	1.412462	0.063992	1.504811
C119	C	0.912460	-0.435961	1.070245
C120	C	1.412460	0.064039	1.570245
C121	C	0.822102	-0.569667	1.080362
C122	C	1.322102	-0.069667	1.580362
C123	C	0.822101	-0.569704	1.014930
C124	C	1.322101	-0.069704	1.514930
C125	C	0.867284	-0.502876	0.977158
C126	C	1.367284	-0.002876	1.477158
H127	H	0.500729	-0.624637	0.422242
H128	H	1.000729	-0.124637	0.922242
H129	H	0.907809	-0.897995	0.299927
H130	H	1.407809	-0.397995	0.799927
H131	H	0.801641	-0.935409	0.405926
H132	H	1.301641	-0.435409	0.905926
N133	N	0.773377	-0.641743	1.121103
N134	N	1.273377	-0.141743	1.621103
H135	H	0.795140	-0.690151	1.151957
H136	H	1.295140	-0.190151	1.651957
H137	H	0.744768	-0.684039	1.093611
H138	H	1.244768	-0.184039	1.593611
H139	H	0.785276	-0.624375	0.588793
H140	H	1.285276	-0.124375	1.088793
H141	H	0.619432	-0.624686	0.422199
H142	H	1.119432	-0.124686	0.922199
N143	N	0.815015	-1.121680	0.392657
N144	N	1.315015	-0.621680	0.892657
H145	H	0.771673	-1.102832	0.381442
H146	H	1.271673	-0.602832	0.881442
H147	H	0.826206	-1.102667	0.435982
H148	H	1.326206	-0.602667	0.935982
N149	N	0.842049	-0.698644	0.923668
N150	N	1.342049	-0.198644	1.423668
H151	H	0.843898	-0.684333	0.968996
H152	H	1.343898	-0.184333	1.468996
H153	H	0.874709	-0.745365	0.915811
H154	H	1.374709	-0.245365	1.415811
N155	N	0.944572	-1.055344	0.263309
N156	N	1.444572	-0.555344	0.763309
H157	H	0.944320	-0.977946	0.263524
H158	H	1.444320	-0.477946	0.763524
H159	H	0.933407	-1.074421	0.219992
H160	H	1.433407	-0.574421	0.719992
N161	N	0.436700	-0.485760	0.221807
N162	N	0.936700	0.014240	0.721807
H163	H	0.483028	-0.487043	0.230452
H164	H	0.983028	0.012957	0.730452
H165	H	0.430426	-0.418071	0.195439
H166	H	0.930426	0.081929	0.695439
N167	N	0.961164	-0.364166	0.560449
N168	N	1.461164	0.135834	1.060449
H169	H	0.989785	-0.321803	0.587899
H170	H	1.489785	0.178197	1.087899
H171	H	0.939354	-0.315821	0.529601
H172	H	1.439354	0.184179	1.029601
H173	H	0.785294	-0.624308	0.707501
H174	H	1.285294	-0.124308	1.207501
H175	H	0.949226	-0.381748	0.689138
H176	H	1.449226	0.118252	1.189138
N177	N	0.298304	-0.520614	0.459162
N178	N	0.798304	-0.020614	0.959162
H179	H	0.314346	-0.460284	0.482692
H180	H	0.814346	0.039716	0.982692
H181	H	0.304563	-0.588360	0.485474
H182	H	0.804563	-0.088360	0.985474
N183	N	0.773362	-0.641801	0.985098
N184	N	1.273362	-0.141801	1.485098
H185	H	0.744741	-0.684127	1.018957
H186	H	1.244741	-0.184127	1.518957
H187	H	0.795156	-0.690179	0.961643
H188	H	1.295156	-0.190179	1.461643
H189	H	0.845085	-0.673809	0.794423
H190	H	1.345085	-0.173809	1.294423
H191	H	0.889291	-0.332148	0.768424
H192	H	1.389291	0.167852	1.268424
H193	H	0.889296	-0.332081	0.887131
H194	H	1.389296	0.167919	1.387131
H195	H	0.425797	-0.518383	0.444020
H196	H	0.925797	-0.018383	0.944020
N197	N	0.961190	-0.363930	0.964066
N198	N	1.461190	0.136070	1.464066
H199	H	0.989810	-0.321561	0.991515
H200	H	1.489810	0.178439	1.491515
H201	H	0.939379	-0.315592	0.933216
H202	H	1.439379	0.184408	1.433216
N203	N	0.511880	-0.364068	0.246699
N204	N	1.011880	0.135932	0.746699
H205	H	0.464692	-0.374218	0.253551
H206	H	0.964692	0.125782	0.753551
H207	H	0.522035	-0.380243	0.203165
H208	H	1.022035	0.119757	0.703165
N209	N	0.223115	-0.642243	0.434249
N210	N	0.723115	-0.142243	0.934249
H211	H	0.189239	-0.684632	0.462826
H212	H	0.689239	-0.184632	0.962826
H213	H	0.253553	-0.599783	0.460046
H214	H	0.753553	-0.099783	0.960046
H215	H	0.949251	-0.381510	1.092757
H216	H	1.449251	0.118490	1.592757
N217	N	0.244256	-0.363959	0.246804
N218	N	0.744256	0.136041	0.746804
H219	H	0.216824	-0.321543	0.218249
H220	H	0.716824	0.178457	0.718249
H221	H	0.268122	-0.406426	0.220984
H222	H	0.768122	0.093574	0.720984
N223	N	0.647887	-0.364082	0.246671
N224	N	1.147887	0.135918	0.746671
H225	H	0.620455	-0.321664	0.218117
H226	H	1.120455	0.178336	0.718117
H227	H	0.671750	-0.406554	0.220851
H228	H	1.171750	0.093446	0.720851
H229	H	0.115552	-0.381613	0.258760
H230	H	0.615552	0.118387	0.758760
N231	N	0.087106	-0.642190	0.434296
N232	N	0.587106	-0.142190	0.934296
H233	H	0.114538	-0.684613	0.462846
H234	H	0.614538	-0.184613	0.962846
H235	H	0.056229	-0.690474	0.412416
H236	H	0.556229	-0.190474	0.912416
H237	H	0.309195	-0.487933	0.236936
H238	H	0.809195	0.012067	0.736936
