data_functionalizedCrystal
_audit_creation_method	'MofGen! by Chris Wilmer'
_symmetry_space_group_name_H-M	'P1'
_symmetry_Int_Tables_number	1
_symmetry_cell_setting	triclinic
loop_
_symmetry_equiv_pos_as_xyz
  x,y,z
_cell_length_a	10.654545
_cell_length_b	10.540510
_cell_length_c	9.730223
_cell_angle_alpha	89.998073
_cell_angle_beta	89.997167
_cell_angle_gamma	84.498195
loop_
_atom_site_label
_atom_site_type_symbol
_atom_site_fract_x
_atom_site_fract_y
_atom_site_fract_z
O1	O	1.667886	0.178275	-0.114268
O2	O	1.302411	0.195269	-0.114273
O3	O	1.493506	0.002060	-0.114270
O4	O	1.476791	0.371484	-0.114271
O5	O	1.493494	0.002055	0.114310
O6	O	1.302399	0.195264	0.114307
O7	O	1.667874	0.178270	0.114312
Zn8	Zn	1.485134	0.186766	0.150601
Zn9	Zn	1.485151	0.186773	-0.150562
O10	O	1.476779	0.371479	0.114309
C11	C	1.255607	0.194020	0.000016
C12	C	1.116162	0.190290	0.000014
C13	C	1.050650	0.188532	0.124614
C14	C	0.919630	0.185006	0.124614
C15	C	0.919644	0.185004	-0.124597
C16	C	1.050663	0.188520	-0.124595
C17	C	1.492254	-0.045246	0.000017
C18	C	1.488528	-0.186194	0.000009
C19	C	1.621281	-0.403700	0.000534
C20	C	1.625256	-0.257105	0.000012
C21	C	1.418543	-0.230923	-0.130520
C22	C	1.415537	-0.377683	-0.130622
C23	C	1.412675	-0.377497	0.129316
C24	C	1.419160	-0.231158	0.131034
C25	C	1.714678	0.179519	0.000020
C26	C	1.854123	0.183249	0.000013
C27	C	1.478031	0.418785	0.000019
C28	C	1.481757	0.559733	0.000018
N29	N	1.485132	0.186761	0.356138
N30	N	1.485163	0.186769	-0.356099
C31	C	1.569778	0.101244	0.428065
C32	C	1.569791	0.101245	0.571948
C33	C	1.400507	0.272289	0.571964
C34	C	1.400490	0.272281	0.428083
H35	H	0.866296	0.183575	0.226075
H36	H	1.638716	0.031608	0.630507
H37	H	1.104005	0.189948	-0.226065
O38	O	1.309177	0.364523	0.350507
H39	H	1.247657	0.310494	0.284992
H40	H	1.674247	-0.447223	-0.092543
H41	H	1.331595	0.341920	0.630556
O42	O	1.486592	-0.193279	0.258956
H43	H	1.569165	-0.142632	0.229357
O44	O	1.286930	-0.166120	0.141476
H45	H	1.240703	-0.199991	0.235009
H46	H	1.103976	0.189973	0.226079
H47	H	1.467156	-0.200083	-0.227657
O48	O	0.848999	0.183113	-0.258994
H49	H	0.746884	0.180388	-0.238065
O50	O	1.697815	-0.218252	0.123928
H51	H	1.730377	-0.304241	0.184766
H52	H	1.313272	-0.400640	-0.136537
O53	O	1.691838	-0.459261	0.124550
H54	H	1.628226	-0.513548	0.187139
H55	H	1.317887	-0.183497	-0.135375
H56	H	1.680343	-0.228718	-0.093716
H57	H	1.456120	-0.419697	0.228257
H58	H	1.463374	-0.417914	-0.228193
H59	H	1.310018	-0.399608	0.130194
H60	H	1.638698	0.031606	0.369490
