data_functionalizedCrystal
_audit_creation_method	'MofGen! by Chris Wilmer'
_symmetry_space_group_name_H-M	'P1'
_symmetry_Int_Tables_number	1
_symmetry_cell_setting	triclinic
loop_
_symmetry_equiv_pos_as_xyz
  x,y,z
_cell_length_a	10.654562
_cell_length_b	10.723023
_cell_length_c	9.730223
_cell_angle_alpha	89.999649
_cell_angle_beta	89.996961
_cell_angle_gamma	84.478826
loop_
_atom_site_label
_atom_site_type_symbol
_atom_site_fract_x
_atom_site_fract_y
_atom_site_fract_z
O1	O	1.667798	0.175345	-0.114377
O2	O	1.302319	0.192027	-0.114360
O3	O	1.493489	0.002112	-0.114363
O4	O	1.476627	0.365261	-0.114374
O5	O	1.493487	0.002116	0.114217
O6	O	1.302317	0.192032	0.114220
O7	O	1.667796	0.175350	0.114203
Zn8	Zn	1.485056	0.183692	0.150504
Zn9	Zn	1.485059	0.183685	-0.150660
O10	O	1.476625	0.365266	0.114206
C11	C	1.255520	0.190802	-0.000068
C12	C	1.116078	0.187127	-0.000061
C13	C	1.050547	0.185416	0.124527
C14	C	0.919525	0.181973	0.124504
C15	C	0.919577	0.181958	-0.124706
C16	C	1.050598	0.185392	-0.124682
C17	C	1.050515	0.185429	0.268407
C18	C	0.919493	0.181986	0.268384
C19	C	1.492261	-0.044386	-0.000075
C20	C	1.488591	-0.182941	-0.000079
C21	C	1.486955	-0.244709	-0.118492
C22	C	1.483161	-0.387913	-0.118499
C23	C	1.714594	0.176576	-0.000092
C24	C	1.854036	0.180250	-0.000108
C25	C	1.477853	0.411763	-0.000085
C26	C	1.481524	0.550318	-0.000090
N27	N	1.485063	0.183695	0.356040
N28	N	1.485061	0.183672	-0.356197
C29	C	1.569735	0.099629	0.427964
C30	C	1.569732	0.099614	0.571847
C31	C	1.400380	0.267742	0.571869
C32	C	1.400378	0.267750	0.427988
C33	C	1.667513	0.002566	0.427953
C34	C	1.667509	0.002550	0.571836
H35	H	0.889918	0.090977	0.313033
H36	H	0.866247	0.180546	-0.226168
C37	C	1.486655	-0.253545	0.135243
C38	C	1.488868	-0.168803	0.244489
C39	C	1.487069	-0.233793	0.369171
H40	H	1.558398	-0.313220	0.140540
H41	H	1.412169	-0.295425	0.140427
H42	H	1.563346	-0.126944	0.239308
H43	H	1.417131	-0.109127	0.239237
H44	H	1.412584	-0.275673	0.374355
H45	H	1.558814	-0.293465	0.374454
H46	H	1.488559	-0.176304	0.443309
H47	H	1.331421	0.336192	0.369429
C48	C	0.857977	0.297099	0.342002
C49	C	0.951333	0.370952	0.387055
C50	C	0.894712	0.477007	0.454855
H51	H	0.811563	0.271759	0.418778
H52	H	0.802665	0.344299	0.280638
H53	H	1.006623	0.323761	0.448416
H54	H	0.997753	0.396325	0.310306
H55	H	0.839401	0.524207	0.393491
H56	H	0.848299	0.451655	0.531625
H57	H	0.958044	0.527135	0.485421
C58	C	1.488665	-0.173681	-0.253561
C59	C	1.382811	-0.085801	-0.260726
C60	C	1.384363	-0.020336	-0.385124
H61	H	1.487094	-0.230844	-0.327978
H62	H	1.563091	-0.131700	-0.258656
H63	H	1.308404	-0.127780	-0.255645
H64	H	1.384359	-0.028612	-0.186338
H65	H	1.458789	0.021646	-0.390218
H66	H	1.382795	-0.077508	-0.459530
H67	H	1.312549	0.039306	-0.389996
C68	C	1.308241	0.358854	0.649917
C69	C	1.184663	0.337443	0.614945
C70	C	1.099749	0.421341	0.686828
H71	H	1.322416	0.442325	0.626408
H72	H	1.320281	0.346799	0.745922
H73	H	1.172628	0.349508	0.518962
H74	H	1.170447	0.253988	0.638459
H75	H	1.111789	0.409286	0.782832
H76	H	1.113936	0.504807	0.663312
H77	H	1.015892	0.406817	0.663119
H78	H	1.764017	0.023936	0.610882
H79	H	1.482936	-0.396571	0.101293
H80	H	1.096787	0.099189	0.323662
C81	C	1.789204	0.043060	0.368692
C82	C	1.869819	0.069891	0.476097
C83	C	1.981936	0.107185	0.421557
H84	H	1.770847	0.115762	0.313768
H85	H	1.828946	-0.022563	0.313777
H86	H	1.830085	0.135509	0.530989
H87	H	1.888211	-0.002793	0.531031
H88	H	2.021678	0.041563	0.366642
H89	H	1.963567	0.179885	0.366633
H90	H	2.036652	0.125384	0.494422
C91	C	1.481334	-0.458511	-0.253828
C92	C	1.483600	-0.373765	-0.363065
C93	C	1.481924	-0.438757	-0.487754
H94	H	1.406892	-0.500423	-0.259114
H95	H	1.553122	-0.518164	-0.259033
H96	H	1.411818	-0.314135	-0.357862
H97	H	1.558036	-0.331850	-0.357824
H98	H	1.553713	-0.498409	-0.492959
H99	H	1.407482	-0.480666	-0.493026
H100	H	1.483473	-0.381268	-0.561886
H101	H	1.637011	-0.088092	0.616456
H102	H	1.080075	0.276442	0.313048
H103	H	1.103951	0.186766	-0.226133
H104	H	1.646085	-0.093353	0.388903
