data_functionalizedCrystal
_audit_creation_method	'MofGen! by Chris Wilmer'
_symmetry_space_group_name_H-M	'P1'
_symmetry_Int_Tables_number	1
_symmetry_cell_setting	triclinic
loop_
_symmetry_equiv_pos_as_xyz
  x,y,z
_cell_length_a	10.654562
_cell_length_b	9.730223
_cell_length_c	10.654550
_cell_angle_alpha	89.999807
_cell_angle_beta	95.512497
_cell_angle_gamma	90.003039
loop_
_atom_site_label
_atom_site_type_symbol
_atom_site_fract_x
_atom_site_fract_y
_atom_site_fract_z
O1	O	1.667825	0.114377	-0.176469
O2	O	1.302348	0.114359	-0.193259
O3	O	1.493489	0.114363	-0.002125
O4	O	1.476683	0.114373	-0.367603
O5	O	1.493487	-0.114217	-0.002130
O6	O	1.302346	-0.114221	-0.193264
O7	O	1.667822	-0.114203	-0.176474
Zn8	Zn	1.485084	-0.150504	-0.184870
Zn9	Zn	1.485087	0.150660	-0.184863
O10	O	1.476681	-0.114207	-0.367608
C11	C	1.255549	0.000067	-0.192025
C12	C	1.116107	0.000060	-0.188327
N13	N	1.485091	-0.356040	-0.184873
C14	C	1.569750	-0.427965	-0.100268
C15	C	1.569747	-0.571848	-0.100253
C16	C	1.400421	-0.571869	-0.269459
C17	C	1.400419	-0.427989	-0.269467
C18	C	1.654422	-0.356016	-0.015674
C19	C	1.739089	-0.427940	0.068937
C20	C	1.739086	-0.571823	0.068952
C21	C	1.654415	-0.643782	-0.015644
C22	C	1.050575	-0.124528	-0.186604
C23	C	0.919553	-0.124505	-0.183139
C24	C	0.919605	0.124705	-0.183125
C25	C	1.050626	0.124681	-0.186581
C26	C	1.116056	-0.249149	-0.188351
C27	C	1.050524	-0.373747	-0.186630
C28	C	0.919501	-0.373724	-0.183165
C29	C	0.854011	-0.249103	-0.181421
C30	C	1.714621	0.000092	-0.177708
C31	C	1.854064	0.000108	-0.181406
C32	C	1.492254	0.000075	0.044671
C33	C	1.488563	0.000079	0.184114
N34	N	1.485089	0.356196	-0.184850
C35	C	1.477916	0.000084	-0.414403
C36	C	1.481608	0.000088	-0.553847
C37	C	1.601103	0.000081	0.263595
C38	C	1.597627	0.000090	0.394615
C39	C	1.369059	0.000091	0.366662
C40	C	1.372537	0.000092	0.235644
C41	C	1.717129	0.000068	0.212064
C42	C	1.829680	0.000068	0.291546
C43	C	1.826203	0.000077	0.422567
C44	C	1.710176	0.000087	0.474106
H45	H	1.654435	-0.238859	-0.015682
N46	N	1.954817	0.000059	0.235967
H47	H	1.939946	0.000046	0.140906
H48	H	2.004102	-0.084681	0.264981
N49	N	1.720889	0.000068	0.070752
H50	H	1.676865	0.084805	0.033705
H51	H	1.676871	-0.084721	0.033810
H52	H	1.654411	-0.760941	-0.015616
N53	N	1.257369	-0.249172	-0.192095
H54	H	1.288910	-0.347020	-0.192940
H55	H	1.298338	-0.200203	-0.115203
N56	N	1.121312	0.259059	-0.188434
H57	H	1.089037	0.313546	-0.265547
H58	H	1.214232	0.240018	-0.190834
H59	H	1.280896	0.000089	0.170928
H60	H	1.707355	0.000110	0.580794
N61	N	1.830381	-0.350339	0.160202
H62	H	1.817535	-0.248276	0.147361
H63	H	1.919604	-0.375478	0.144881
N64	N	1.309118	-0.350398	-0.360721
H65	H	1.253101	-0.290706	-0.312204
H66	H	1.255570	-0.417892	-0.414296
N67	N	1.830409	-0.649403	0.160194
H68	H	1.884050	-0.581987	0.213772
H69	H	1.886331	-0.709090	0.111572
H70	H	1.274595	0.000097	0.408637
N71	N	1.309103	-0.649474	-0.360696
H72	H	1.321953	-0.751536	-0.347854
H73	H	1.324378	-0.624330	-0.449931
N74	N	1.121151	-0.508154	-0.188498
H75	H	1.214096	-0.489267	-0.190957
H76	H	1.088740	-0.562557	-0.265614
H77	H	0.866150	-0.475178	-0.181753
N78	N	0.712696	-0.249082	-0.177670
H79	H	0.671643	-0.200150	-0.254547
H80	H	0.690759	-0.200184	-0.099066
H81	H	0.866272	0.226166	-0.181708
N82	N	1.947587	0.000089	0.508297
H83	H	2.021611	0.000081	0.455767
H84	H	1.951115	-0.084647	0.563268
