data_functionalizedCrystal
_audit_creation_method	'MofGen! by Chris Wilmer'
_symmetry_space_group_name_H-M	'P1'
_symmetry_Int_Tables_number	1
_symmetry_cell_setting	triclinic
loop_
_symmetry_equiv_pos_as_xyz
  x,y,z
_cell_length_a	10.723024
_cell_length_b	14.853567
_cell_length_c	9.798715
_cell_angle_alpha	90.000647
_cell_angle_beta	89.996609
_cell_angle_gamma	84.051400
loop_
_atom_site_label
_atom_site_type_symbol
_atom_site_fract_x
_atom_site_fract_y
_atom_site_fract_z
O1	O	1.655908	0.126445	-0.113470
O2	O	1.292633	0.138549	-0.113473
O3	O	1.483974	0.001318	-0.113475
O4	O	1.464567	0.263675	-0.113467
O5	O	1.483960	0.001318	0.113507
O6	O	1.292619	0.138548	0.113509
O7	O	1.655894	0.126445	0.113513
Zn8	Zn	1.474254	0.132497	0.149549
Zn9	Zn	1.474273	0.132497	-0.149510
O10	O	1.464553	0.263675	0.113515
C11	C	1.246136	0.137668	0.000017
C12	C	1.107608	0.135032	0.000016
C13	C	1.031849	0.211819	0.000017
C14	C	0.888673	0.209097	0.000015
C15	C	1.483088	-0.032275	0.000012
C16	C	1.480453	-0.132373	-0.000000
C17	C	1.355653	-0.545565	0.000025
C18	C	1.582971	-0.565646	0.000027
C19	C	1.585448	-0.471599	0.000019
C20	C	1.473027	-0.414531	0.000016
C21	C	1.358127	-0.451510	0.000021
C22	C	1.700345	-0.434614	0.000028
C23	C	1.702828	-0.340562	0.000021
C24	C	1.590405	-0.283491	0.000008
C25	C	1.475501	-0.320475	0.000012
C26	C	1.363079	-0.263407	0.000009
C27	C	1.248174	-0.300389	0.000003
C28	C	1.245704	-0.394440	0.000008
C29	C	1.592874	-0.189441	0.000003
C30	C	1.365554	-0.169351	0.000005
C31	C	1.702392	0.127326	0.000019
C32	C	1.840919	0.129961	0.000012
C33	C	1.465439	0.297269	0.000025
C34	C	1.468075	0.397366	0.000028
N35	N	1.474251	0.132496	0.353649
N36	N	1.474287	0.132491	-0.353609
C37	C	1.554592	0.074623	0.421425
C38	C	1.554612	0.074619	0.578588
H39	H	1.156641	-0.253912	0.000010
N40	N	1.121777	-0.434322	0.000014
H41	H	1.115688	-0.472904	-0.084121
H42	H	1.115760	-0.472844	0.084220
H43	H	1.623400	0.025075	0.636872
N44	N	1.383148	0.198121	0.430898
H45	H	1.431121	0.238208	0.490178
H46	H	1.329549	0.236681	0.363990
H47	H	1.405504	0.182044	0.588115
N48	N	1.821583	-0.496173	0.000028
H49	H	1.871713	-0.484200	-0.084112
H50	H	1.871602	-0.484176	0.084228
N51	N	0.927139	0.042882	0.000017
H52	H	0.910988	0.006567	0.084160
H53	H	0.910963	0.006634	-0.084180
N54	N	1.086321	0.301574	0.000029
H55	H	1.180880	0.290796	0.000030
H56	H	1.057204	0.336989	-0.084116
N57	N	0.802457	0.296178	0.000005
H58	H	0.712398	0.281890	0.000001
H59	H	0.818701	0.332456	0.084151
H60	H	1.066471	0.067277	-0.000021
N61	N	1.244297	-0.107801	-0.000010
H62	H	1.171137	-0.145502	-0.000014
H63	H	1.240361	-0.068341	0.084136
N64	N	1.231724	-0.585445	0.000011
H65	H	1.247208	-0.653685	0.000010
H66	H	1.182519	-0.564619	0.084156
N67	N	1.704212	-0.627201	0.000046
H68	H	1.708255	-0.666677	-0.084090
H69	H	1.777310	-0.589444	0.000095
N70	N	1.826753	-0.300676	0.000028
H71	H	1.897594	-0.351101	0.000033
H72	H	1.832737	-0.262097	-0.084122
H73	H	1.623357	0.025074	0.363101
N74	N	1.716790	-0.149551	0.000024
H75	H	1.787633	-0.199974	0.000035
H76	H	1.722782	-0.110970	-0.084123
