data_functionalizedCrystal
_audit_creation_method	'MofGen! by Chris Wilmer'
_symmetry_space_group_name_H-M	'P1'
_symmetry_Int_Tables_number	1
_symmetry_cell_setting	triclinic
loop_
_symmetry_equiv_pos_as_xyz
  x,y,z
_cell_length_a	15.944551
_cell_length_b	17.038272
_cell_length_c	14.421503
_cell_angle_alpha	90.004327
_cell_angle_beta	89.996859
_cell_angle_gamma	87.305147
loop_
_atom_site_label
_atom_site_type_symbol
_atom_site_fract_x
_atom_site_fract_y
_atom_site_fract_z
O1	O	1.121728	0.100827	-0.077015
O2	O	0.878066	0.113259	-0.077039
O3	O	0.998449	-0.006773	-0.077020
O4	O	1.001345	0.220859	-0.077034
O5	O	0.998429	-0.006755	0.077204
O6	O	0.878046	0.113277	0.077185
O7	O	1.121708	0.100845	0.077208
Cu8	Cu	0.999875	0.107062	0.091278
Cu9	Cu	0.999899	0.107041	-0.091109
O10	O	1.001325	0.220877	0.077189
C11	C	0.846725	0.112752	0.000070
C12	C	0.753369	0.111205	0.000062
C13	C	0.532936	0.033105	0.000085
C14	C	0.474515	0.069363	-0.075958
C15	C	0.582443	0.108405	0.000073
C16	C	0.474519	0.069398	0.076094
C17	C	0.417337	0.105696	0.000088
C18	C	0.525252	0.144684	-0.076033
C19	C	0.525261	0.144709	0.076088
C20	C	0.466862	0.181022	0.000027
C21	C	0.677557	0.109964	0.000063
C22	C	0.322225	0.104143	0.000090
C23	C	0.995805	-0.035893	0.000092
C24	C	0.987945	-0.122688	0.000091
C25	C	1.060103	-0.172781	0.000098
C26	C	1.052713	-0.254334	0.000089
C27	C	0.973165	-0.285792	0.000078
C28	C	0.901002	-0.235693	0.000068
C29	C	0.908393	-0.154142	0.000071
C30	C	0.947056	-0.531558	0.000063
C31	C	0.939671	-0.613115	0.000063
C32	C	1.091383	-0.631751	0.000083
C33	C	1.098766	-0.550197	0.000091
C34	C	1.026603	-0.500105	0.000075
C35	C	0.965610	-0.369152	0.000071
C36	C	1.034159	-0.416747	0.000076
C37	C	1.153049	0.101352	0.000097
C38	C	1.246405	0.102899	0.000100
C39	C	1.003969	0.249997	0.000076
C40	C	1.011829	0.336792	0.000071
N41	N	0.999865	0.107077	0.219560
N42	N	0.999916	0.107021	-0.219390
C43	C	0.944187	0.162555	0.469205
C44	C	1.021171	0.177734	0.531013
C45	C	0.999884	0.107058	0.408721
C46	C	0.922921	0.091897	0.531006
C47	C	0.999895	0.107042	0.591442
C48	C	1.076908	0.122272	0.469169
C49	C	0.978606	0.036405	0.469156
C50	C	1.055642	0.051554	0.530937
C51	C	0.999876	0.107070	0.303460
C52	C	0.999912	0.107030	0.696701
H53	H	0.438170	0.243580	-0.000020
O54	O	0.823683	-0.266155	0.000178
C55	C	0.691760	-0.275205	0.080086
C56	C	0.779293	-0.240643	0.080063
H57	H	0.655852	-0.254605	0.144675
H58	H	0.655762	-0.254555	0.015582
H59	H	0.698890	-0.342095	0.080042
H60	H	0.772240	-0.173752	0.080139
H61	H	0.815259	-0.261354	0.144561
O62	O	1.137313	-0.142096	0.000149
C63	C	1.215939	-0.024726	0.000101
C64	C	1.128446	-0.059368	0.000070
H65	H	1.208800	0.042164	0.000017
H66	H	1.251902	-0.045297	0.064660
H67	H	1.251894	-0.045407	-0.064424
H68	H	1.092422	-0.038703	0.064551
H69	H	1.092547	-0.038801	-0.064532
O70	O	0.551958	0.182567	0.152874
C71	C	0.556508	0.185709	0.319841
C72	C	0.526237	0.142758	0.232949
H73	H	0.535709	0.153551	0.384604
H74	H	0.627924	0.186993	0.318793
H75	H	0.528248	0.248425	0.320448
H76	H	0.554435	0.080024	0.232285
H77	H	0.454817	0.141538	0.234031
H78	H	1.098927	-0.391130	0.000064
H79	H	1.163543	-0.524590	0.000100
H80	H	0.452149	0.037543	0.140380
H81	H	1.150134	-0.672544	0.000093
O82	O	0.845310	0.076642	0.563565
C83	C	0.758589	0.058764	0.698065
C84	C	0.846519	0.076056	0.661323
H85	H	0.759541	0.058268	0.777106
H86	H	0.711154	0.106153	0.672771
H87	H	0.739989	-0.000993	0.671506
H88	H	0.865198	0.135790	0.687866
H89	H	0.893902	0.028620	0.686609
H90	H	1.111472	-0.295117	0.000097
H91	H	0.874891	-0.638725	0.000069
O92	O	1.042517	0.249058	0.563392
C93	C	1.007986	0.388201	0.568629
C94	C	0.983712	0.307472	0.531921
H95	H	0.960465	0.435452	0.543183
H96	H	1.008345	0.387378	0.647673
H97	H	1.073163	0.401541	0.542151
H98	H	0.918529	0.294082	0.558330
H99	H	0.983411	0.308335	0.452878
O100	O	0.876874	-0.483017	0.000101
C101	C	0.725617	-0.473147	0.000044
C102	C	0.805033	-0.528213	0.000018
H103	H	0.667514	-0.509666	-0.000043
H104	H	0.725218	-0.434513	0.064603
H105	H	0.725333	-0.434487	-0.064481
H106	H	0.805370	-0.566922	0.064500
H107	H	0.805402	-0.566794	-0.064584
O108	O	0.447773	0.031492	-0.152721
C109	C	0.365275	0.040243	-0.292648
C110	C	0.395504	0.083235	-0.205766
H111	H	0.322996	0.082053	-0.335549
H112	H	0.421809	0.019332	-0.335980
H113	H	0.328593	-0.012510	-0.270697
H114	H	0.432172	0.136018	-0.227635
H115	H	0.338936	0.104088	-0.162455
H116	H	1.102803	0.004613	0.557872
O117	O	0.567322	-0.041469	-0.000165
C118	C	0.580505	-0.165407	-0.080591
C119	C	0.541520	-0.080972	-0.080427
H120	H	0.559645	-0.197375	-0.145466
H121	H	0.651884	-0.163573	-0.079991
H122	H	0.558800	-0.197800	-0.016389
H123	H	0.563159	-0.048530	-0.144618
H124	H	0.470145	-0.082862	-0.080979
O125	O	0.838360	-0.105400	0.000188
C126	C	0.758616	-0.002535	0.080101
C127	C	0.837975	-0.057676	0.080079
H128	H	0.758270	0.036052	0.144696
H129	H	0.758287	0.036159	0.015602
H130	H	0.700505	-0.039043	0.080049
H131	H	0.896129	-0.021230	0.080164
H132	H	0.838231	-0.096373	0.144572
H133	H	0.900842	-0.394774	0.000065
O134	O	0.888072	0.218524	0.436701
C135	C	0.824729	0.280840	0.302253
C136	C	0.888287	0.217413	0.338940
H137	H	0.824895	0.279974	0.223210
H138	H	0.759255	0.268522	0.328679
H139	H	0.843029	0.341024	0.327721
H140	H	0.870065	0.157203	0.313487
H141	H	0.953744	0.229799	0.312522
H142	H	0.547520	0.176502	-0.140391
O143	O	1.154513	0.137725	0.436754
C144	C	1.241565	0.155083	0.302402
C145	C	1.153648	0.137556	0.338989
H146	H	1.240900	0.154936	0.223356
H147	H	1.259775	0.215139	0.328389
H148	H	1.289129	0.108090	0.328388
H149	H	1.106025	0.184500	0.313019
H150	H	1.135509	0.077477	0.313010
O151	O	0.956952	-0.034812	0.436751
C152	C	0.851330	-0.131326	0.431484
C153	C	0.875751	-0.050654	0.468228
H154	H	0.785685	-0.144167	0.456934
H155	H	0.852082	-0.130816	0.352439
H156	H	0.898181	-0.178748	0.457930
H157	H	0.828923	-0.003188	0.441851
H158	H	0.875025	-0.051231	0.547271
