data_functionalizedCrystal
_audit_creation_method	'MofGen! by Chris Wilmer'
_symmetry_space_group_name_H-M	'P1'
_symmetry_Int_Tables_number	1
_symmetry_cell_setting	triclinic
loop_
_symmetry_equiv_pos_as_xyz
  x,y,z
_cell_length_a	21.395364
_cell_length_b	12.759400
_cell_length_c	21.395063
_cell_angle_alpha	89.644615
_cell_angle_beta	89.932770
_cell_angle_gamma	90.029636
loop_
_atom_site_label
_atom_site_type_symbol
_atom_site_fract_x
_atom_site_fract_y
_atom_site_fract_z
Zn1	Zn	0.958194	-0.414427	-0.354294
Zn2	Zn	1.458194	0.085573	0.145706
Zn3	Zn	0.958047	-0.591139	-0.249521
Zn4	Zn	1.458047	-0.091139	0.250479
Zn5	Zn	0.853331	-0.415521	-0.249527
Zn6	Zn	1.353331	0.084479	0.250473
Zn7	Zn	0.853407	-0.590111	-0.354265
Zn8	Zn	1.353407	-0.090111	0.145735
O9	O	0.905745	-0.502800	-0.301902
O10	O	1.405745	-0.002800	0.198098
O11	O	1.045852	-0.437841	-0.340405
O12	O	1.545852	0.062159	0.159595
O13	O	0.944063	-0.568731	-0.161841
O14	O	1.444063	-0.068731	0.338159
O15	O	0.867270	-0.268354	-0.263439
O16	O	1.367270	0.231646	0.236561
O17	O	1.045745	-0.567671	-0.263429
O18	O	1.545745	-0.067671	0.236571
O19	O	0.944313	-0.267551	-0.340411
O20	O	1.444313	0.232449	0.159589
O21	O	0.867128	-0.439705	-0.161845
O22	O	1.367128	0.060295	0.338155
O23	O	0.765663	-0.438708	-0.263411
O24	O	1.265663	0.061292	0.236589
O25	O	0.867401	-0.565918	-0.441950
O26	O	1.367401	-0.065918	0.058050
O27	O	0.765719	-0.566978	-0.340362
O28	O	1.265719	-0.066978	0.159638
O29	O	0.944387	-0.436844	-0.441971
O30	O	1.444387	0.063156	0.058029
O31	O	0.944137	-0.738024	-0.263401
O32	O	1.444137	-0.238024	0.236599
O33	O	0.867259	-0.737269	-0.340356
O34	O	1.367259	-0.237269	0.159644
C35	C	0.742957	-0.502851	-0.301884
C36	C	1.242957	-0.002851	0.198116
C37	C	0.673316	-0.502898	-0.301891
C38	C	1.173316	-0.002898	0.198109
C39	C	0.640681	-0.435405	-0.342035
C40	C	1.140681	0.064595	0.157965
C41	C	0.575246	-0.435377	-0.342037
C42	C	1.075246	0.064623	0.157963
C43	C	0.542448	-0.502861	-0.301903
C44	C	1.042448	-0.002861	0.198097
C45	C	0.575090	-0.570358	-0.261752
C46	C	1.075090	-0.070358	0.238248
C47	C	0.640524	-0.570377	-0.261746
C48	C	1.140524	-0.070377	0.238254
C49	C	0.438735	-0.597526	-0.296870
C50	C	0.938735	-0.097526	0.203130
C51	C	0.373302	-0.597509	-0.296880
C52	C	0.873302	-0.097509	0.203120
C53	C	0.340627	-0.502803	-0.301917
C54	C	0.840627	-0.002803	0.198083
C55	C	0.373392	-0.408111	-0.306957
C56	C	0.873392	0.091889	0.193043
C57	C	0.438827	-0.408129	-0.306951
C58	C	0.938827	0.091871	0.193049
C59	C	0.471495	-0.502848	-0.301904
C60	C	0.971495	-0.002848	0.198096
C61	C	0.237040	-0.435274	-0.342065
C62	C	0.737040	0.064726	0.157935
C63	C	0.171603	-0.435244	-0.342063
C64	C	0.671603	0.064756	0.157937
C65	C	0.171449	-0.570235	-0.261781
C66	C	0.671449	-0.070235	0.238219
C67	C	0.236884	-0.570255	-0.261779
C68	C	0.736884	-0.070255	0.238221
C69	C	0.269676	-0.502776	-0.301925
C70	C	0.769676	-0.002776	0.198075
C71	C	0.905708	-0.775767	-0.301889
C72	C	1.405708	-0.275767	0.198111
C73	C	0.905749	-0.892543	-0.301904
C74	C	1.405749	-0.392543	0.198096
C75	C	0.945824	-0.947764	-0.261878
C76	C	1.445824	-0.447764	0.238122
C77	C	0.945863	-1.057487	-0.261897
C78	C	1.445863	-0.557487	0.238103
C79	C	0.865745	-1.056761	-0.341970
C80	C	1.365745	-0.556761	0.158030
C81	C	0.865711	-0.947040	-0.341954
C82	C	1.365711	-0.447040	0.158046
C83	C	0.985863	-0.893267	-0.221828
C84	C	1.485863	-0.393267	0.278172
C85	C	1.025940	-0.948488	-0.181798
C86	C	1.525940	-0.448488	0.318202
C87	C	1.025979	-1.058211	-0.181818
C88	C	1.525979	-0.558211	0.318182
C89	C	0.985940	-1.112715	-0.221867
C90	C	1.485940	-0.612715	0.278133
C91	C	1.069168	-0.502749	-0.301920
C92	C	1.569168	-0.002749	0.198080
C93	C	1.138809	-0.502727	-0.301927
C94	C	1.638809	-0.002727	0.198073
C95	C	0.905919	-0.501145	-0.465330
C96	C	1.405919	-0.001145	0.034670
C97	C	0.905993	-0.500439	-0.534974
C98	C	1.405993	-0.000439	-0.034974
C99	C	0.905799	-0.228766	-0.301929
C100	C	1.405799	0.271234	0.198071
C101	C	0.905822	-0.111989	-0.301940
C102	C	1.405822	0.388011	0.198060
C103	C	0.905607	-0.504372	-0.139109
C104	C	1.405607	-0.004372	0.360891
C105	C	0.905654	-0.504781	-0.069465
C106	C	1.405654	-0.004781	0.430535
C107	C	0.945459	-0.436823	-0.037271
C108	C	1.445459	0.063177	0.462729
C109	C	0.945505	-0.436294	0.028162
C110	C	1.445505	0.063706	0.528162
C111	C	0.905735	-0.503714	0.061399
C112	C	1.405735	-0.003714	0.561399
C113	C	0.865927	-0.571686	0.029197
C114	C	1.365927	-0.071686	0.529197
C115	C	0.865887	-0.572220	-0.036235
C116	C	1.365887	-0.072220	0.463765
C117	C	0.849384	-0.511868	0.165223
C118	C	1.349384	-0.011868	0.665223
C119	C	0.849423	-0.511327	0.230654
C120	C	1.349423	-0.011327	0.730654
C121	C	0.905859	-0.502074	0.263214
C122	C	1.405859	-0.002074	0.763214
C123	C	0.962257	-0.493340	0.230335
C124	C	1.462257	0.006660	0.730335
C125	C	0.962217	-0.493874	0.164902
C126	C	1.462217	0.006126	0.664902
C127	C	0.905774	-0.503143	0.132350
C128	C	1.405774	-0.003143	0.632350
C129	C	0.945717	-0.433539	0.366359
C130	C	1.445717	0.066461	0.866359
C131	C	0.945763	-0.433018	0.431794
C132	C	1.445763	0.066982	0.931794
C133	C	0.866180	-0.568404	0.432827
C134	C	1.366180	-0.068404	0.932827
C135	C	0.866138	-0.568930	0.367394
C136	C	1.366138	-0.068930	0.867394
C137	C	0.905906	-0.501492	0.334163
C138	C	1.405906	-0.001492	0.834163
H139	H	0.145033	-0.380277	-0.374751
H140	H	0.645033	0.119723	0.125249
H141	H	0.985979	-1.202060	-0.221884
H142	H	1.485979	-0.702060	0.278116
O143	O	0.988703	-0.359718	0.466517
O144	O	1.488703	0.140282	0.966517
H145	H	0.982058	-0.370685	0.517600
H146	H	1.482058	0.129315	1.017600
O147	O	0.337968	-0.699639	-0.291448
O148	O	0.837968	-0.199639	0.208552
H149	H	0.286979	-0.683719	-0.292307
H150	H	0.786979	-0.183719	0.207693
O151	O	0.822949	-0.645517	-0.070963
O152	O	1.322949	-0.145517	0.429037
H153	H	0.790862	-0.599131	-0.101024
H154	H	1.290862	-0.099131	0.398976
O155	O	0.823272	-0.641088	0.468680
O156	O	1.323272	-0.141088	0.968680
H157	H	0.774022	-0.623762	0.456088
H158	H	1.274022	-0.123762	0.956088
H159	H	1.058543	-0.904105	-0.149195
H160	H	1.558543	-0.404105	0.350805
O161	O	0.988439	-0.362986	0.062892
O162	O	1.488439	0.137014	0.562892
H163	H	1.020535	-0.409361	0.092950
H164	H	1.520535	0.090639	0.592950
H165	H	0.548382	-0.625303	-0.229074
H166	H	1.048382	-0.125303	0.270926
H167	H	0.548670	-0.380411	-0.374726
H168	H	1.048670	0.119589	0.125274
H169	H	0.985834	-0.803925	-0.221806
H170	H	1.485834	-0.303925	0.278194
H171	H	1.008138	-0.486765	0.138134
H172	H	1.508138	0.013235	0.638134
O173	O	0.823026	-0.644400	0.065040
O174	O	1.323026	-0.144400	0.565040
H175	H	0.829736	-0.632603	0.115948
H176	H	1.329736	-0.132603	0.615948
H177	H	1.058617	-1.103169	-0.149228
H178	H	1.558617	-0.603169	0.350772
H179	H	0.465502	-0.331028	-0.311053
H180	H	0.965502	0.168972	0.188947
H181	H	0.803501	-0.518438	0.257420
H182	H	1.303501	-0.018438	0.757420
O183	O	0.676051	-0.362609	-0.385321
O184	O	1.176051	0.137391	0.114679
H185	H	0.642360	-0.315661	-0.413229
H186	H	1.142360	0.184339	0.086771
H187	H	0.346790	-0.330992	-0.311059
H188	H	0.846790	0.169008	0.188941
H189	H	1.008212	-0.485802	0.256843
H190	H	1.508212	0.014198	0.756843
O191	O	0.822488	-0.887471	-0.385124
O192	O	1.322488	-0.387471	0.114876
H193	H	0.790592	-0.837834	-0.357042
H194	H	1.290592	-0.337834	0.142958
O195	O	0.823196	-0.642213	0.332663
O196	O	1.323196	-0.142213	0.832663
H197	H	0.795543	-0.688999	0.366765
H198	H	1.295543	-0.188999	0.866765
O199	O	0.988614	-0.360821	0.330510
O200	O	1.488614	0.139179	0.830510
H201	H	1.016310	-0.313487	0.363893
H202	H	1.516310	0.186513	0.863893
O203	O	0.788511	-0.521841	0.130106
O204	O	1.288511	-0.021841	0.630106
H205	H	0.749302	-0.527804	0.163960
H206	H	1.249302	-0.027804	0.663960
H207	H	0.263740	-0.380322	-0.374750
H208	H	0.763740	0.119678	0.125250
O209	O	0.822553	-1.115549	-0.385152
O210	O	1.322553	-0.615549	0.114848
H211	H	0.850616	-1.165157	-0.417060
H212	H	1.350616	-0.665157	0.082940
O213	O	0.136084	-0.643024	-0.218491
O214	O	0.636084	-0.143024	0.281509
H215	H	0.085100	-0.631678	-0.225240
H216	H	0.585100	-0.131678	0.274760
O217	O	0.272090	-0.643055	-0.218484
O218	O	0.772090	-0.143055	0.281516
H219	H	0.238292	-0.689981	-0.190578
H220	H	0.738292	-0.189981	0.309422
H221	H	0.465334	-0.674652	-0.292767
H222	H	0.965334	-0.174652	0.207233
H223	H	0.667095	-0.625339	-0.229056
H224	H	1.167095	-0.125339	0.270944
O225	O	0.988357	-0.364101	-0.073114
O226	O	1.488357	0.135899	0.426886
H227	H	1.016048	-0.316763	-0.039730
H228	H	1.516048	0.183237	0.460270
