data_functionalizedCrystal
_audit_creation_method	'MofGen! by Chris Wilmer'
_symmetry_space_group_name_H-M	'P1'
_symmetry_Int_Tables_number	1
_symmetry_cell_setting	triclinic
loop_
_symmetry_equiv_pos_as_xyz
  x,y,z
_cell_length_a	16.120490
_cell_length_b	17.077402
_cell_length_c	17.077395
_cell_angle_alpha	89.971476
_cell_angle_beta	87.088701
_cell_angle_gamma	87.115173
loop_
_atom_site_label
_atom_site_type_symbol
_atom_site_fract_x
_atom_site_fract_y
_atom_site_fract_z
Zn1	Zn	1.274519	-0.373517	-0.504583
Zn2	Zn	1.774519	0.126483	-0.004583
Zn3	Zn	1.274430	-0.504785	-0.373310
Zn4	Zn	1.774430	-0.004785	0.126690
Zn5	Zn	1.135111	-0.366869	-0.366686
Zn6	Zn	1.635111	0.133131	0.133314
Zn7	Zn	1.135068	-0.498071	-0.497891
Zn8	Zn	1.635068	0.001929	0.002109
O9	O	1.204782	-0.435811	-0.435618
O10	O	1.704782	0.064189	0.064382
O11	O	1.391173	-0.396522	-0.492742
O12	O	1.891173	0.103478	0.007258
O13	O	1.255929	-0.486518	-0.262583
O14	O	1.755929	0.013482	0.237417
O15	O	1.153659	-0.257907	-0.385007
O16	O	1.653659	0.242093	0.114993
O17	O	1.391107	-0.492964	-0.396296
O18	O	1.891107	0.007036	0.103704
O19	O	1.256082	-0.262791	-0.486320
O20	O	1.756082	0.237209	0.013680
O21	O	1.153573	-0.385192	-0.257717
O22	O	1.653573	0.114808	0.242283
O23	O	1.018440	-0.378681	-0.378518
O24	O	1.518440	0.121319	0.121482
O25	O	1.153586	-0.481521	-0.608627
O26	O	1.653586	0.018479	-0.108627
O27	O	1.018408	-0.475075	-0.474914
O28	O	1.518408	0.024925	0.025086
O29	O	1.256040	-0.390012	-0.613543
O30	O	1.756040	0.109988	-0.113543
O31	O	1.255887	-0.613739	-0.389807
O32	O	1.755887	-0.113739	0.110193
O33	O	1.153499	-0.608806	-0.481336
O34	O	1.653499	-0.108806	0.018664
C35	C	0.988173	-0.425429	-0.425272
C36	C	1.488173	0.074571	0.074728
C37	C	0.895507	-0.421006	-0.420864
C38	C	1.395507	0.078994	0.079136
C39	C	0.684564	-0.458745	-0.458481
C40	C	1.184564	0.041255	0.041519
C41	C	0.725851	-0.412939	-0.412816
C42	C	1.225851	0.087061	0.087184
C43	C	0.820257	-0.417429	-0.417296
C44	C	1.320257	0.082571	0.082704
C45	C	0.590150	-0.454256	-0.454003
C46	C	1.090150	0.045744	0.045997
C47	C	1.204701	-0.639755	-0.435582
C48	C	1.704701	-0.139755	0.064418
C49	C	1.204743	-0.727006	-0.435597
C50	C	1.704743	-0.227006	0.064403
C51	C	1.258111	-0.770542	-0.387994
C52	C	1.758111	-0.270542	0.112006
C53	C	1.258152	-0.852524	-0.388016
C54	C	1.758152	-0.352524	0.111984
C55	C	1.204820	-0.890969	-0.435638
C56	C	1.704820	-0.390969	0.064362
C57	C	1.151449	-0.847428	-0.483246
C58	C	1.651449	-0.347428	0.016754
C59	C	1.151414	-0.765448	-0.483227
C60	C	1.651414	-0.265448	0.016773
C61	C	1.151527	-1.018302	-0.483279
C62	C	1.651527	-0.518302	0.016721
C63	C	1.151561	-1.100288	-0.483297
C64	C	1.651561	-0.600288	0.016703
C65	C	1.258265	-1.105378	-0.388068
C66	C	1.758265	-0.605378	0.111932
C67	C	1.258229	-1.023398	-0.388050
C68	C	1.758229	-0.523398	0.111950
C69	C	1.204858	-0.979862	-0.435657
C70	C	1.704858	-0.479862	0.064343
C71	C	1.422236	-0.446234	-0.446004
C72	C	1.922236	0.053766	0.053996
C73	C	1.514902	-0.450675	-0.450431
C74	C	2.014902	0.049325	0.049569
C75	C	1.204885	-0.231071	-0.435671
C76	C	1.704885	0.268929	0.064329
C77	C	1.204929	-0.143823	-0.435694
C78	C	1.704929	0.356177	0.064306
C79	C	1.204818	-0.435759	-0.640364
C80	C	1.704818	0.064241	-0.140364
C81	C	1.204833	-0.435737	-0.727614
C82	C	1.704833	0.064263	-0.227614
C83	C	1.258273	-0.387986	-1.105995
C84	C	1.758273	0.112014	-0.605995
C85	C	1.258256	-0.388013	-1.024013
C86	C	1.758256	0.111987	-0.524013
C87	C	1.204902	-0.435666	-0.980467
C88	C	1.704902	0.064334	-0.480467
C89	C	1.151567	-0.483301	-1.018906
C90	C	1.651567	0.016699	-0.518906
C91	C	1.151588	-0.483278	-1.100886
C92	C	1.651588	0.016722	-0.600886
C93	C	1.151523	-0.483345	-0.848033
C94	C	1.651523	0.016655	-0.348033
C95	C	1.151500	-0.483367	-0.766048
C96	C	1.651500	0.016633	-0.266048
C97	C	1.258191	-0.388079	-0.771161
C98	C	1.758191	0.111921	-0.271161
C99	C	1.258213	-0.388056	-0.853141
C100	C	1.758213	0.111944	-0.353141
C101	C	1.204877	-0.435691	-0.891574
C102	C	1.704877	0.064309	-0.391574
C103	C	1.204794	-0.435808	-0.231670
C104	C	1.704794	0.064192	0.268330
C105	C	1.204940	-0.435616	-0.144428
C106	C	1.704940	0.064384	0.355572
H107	H	0.720116	-0.501331	-0.500935
H108	H	1.220116	-0.001331	-0.000935
H109	H	1.108035	-0.522151	-0.730593
H110	H	1.608035	-0.022151	-0.230593
C111	C	1.316867	-0.335686	-0.728883
C112	C	1.816867	0.164314	-0.228883
N113	N	1.361059	-0.296223	-0.697036
N114	N	1.861059	0.203777	-0.197036
C115	C	0.677821	-0.355410	-0.355450
C116	C	1.177821	0.144590	0.144550
N117	N	0.641641	-0.312084	-0.312240
N118	N	1.141641	0.187916	0.187760
H119	H	1.301652	-0.992096	-0.349269
H120	H	1.801652	-0.492096	0.150731
H121	H	1.301725	-1.140829	-0.349307
H122	H	1.801725	-0.640829	0.150693
C123	C	1.092848	-0.535744	-0.890308
C124	C	1.592848	-0.035744	-0.390308
N125	N	1.048652	-0.575206	-0.922149
N126	N	1.548652	-0.075206	-0.422149
H127	H	1.108149	-1.131589	-0.522090
H128	H	1.608149	-0.631589	-0.022090
H129	H	1.108029	-0.878737	-0.522023
H130	H	1.608029	-0.378737	-0.022023
C131	C	1.316919	-0.335608	-0.981740
C132	C	1.816919	0.164392	-0.481740
N133	N	1.361104	-0.296133	-0.949901
N134	N	1.861104	0.203867	-0.449901
C135	C	1.316780	-0.728259	-0.335605
C136	C	1.816780	-0.228259	0.164395
N137	N	1.360973	-0.696415	-0.296145
N138	N	1.860973	-0.196415	0.203855
H139	H	1.301609	-0.887967	-0.349253
H140	H	1.801609	-0.387967	0.150747
C141	C	1.092808	-0.970414	-0.535643
C142	C	1.592808	-0.470414	-0.035643
N143	N	1.048576	-0.934345	-0.575077
N144	N	1.548576	-0.434345	-0.075077
C145	C	1.092705	-0.717559	-0.535595
C146	C	1.592705	-0.217559	-0.035595
N147	N	1.048486	-0.681491	-0.575042
N148	N	1.548486	-0.181491	-0.075042
H149	H	1.301715	-0.349176	-1.141445
H150	H	1.801715	0.150824	-0.641445
C151	C	1.092916	-0.535673	-1.143162
C152	C	1.592916	-0.035673	-0.643162
N153	N	1.048724	-0.575140	-1.175003
N154	N	1.548724	-0.075140	-0.675003
H155	H	1.301655	-0.349249	-0.888595
H156	H	1.801655	0.150751	-0.388595
H157	H	1.108128	-0.522105	-0.983443
H158	H	1.608128	-0.022105	-0.483443
