data_functionalizedCrystal
_audit_creation_method	'MofGen! by Chris Wilmer'
_symmetry_space_group_name_H-M	'P1'
_symmetry_Int_Tables_number	1
_symmetry_cell_setting	triclinic
loop_
_symmetry_equiv_pos_as_xyz
  x,y,z
_cell_length_a	12.759400
_cell_length_b	12.759401
_cell_length_c	10.686551
_cell_angle_alpha	85.604852
_cell_angle_beta	85.594162
_cell_angle_gamma	90.013799
loop_
_atom_site_label
_atom_site_type_symbol
_atom_site_fract_x
_atom_site_fract_y
_atom_site_fract_z
Zn1	Zn	-0.372642	1.651855	-0.713448
Zn2	Zn	-0.561843	1.638263	-0.502445
Zn3	Zn	-0.386175	1.462672	-0.502464
Zn4	Zn	-0.548280	1.476142	-0.713397
O5	O	-0.467235	1.557233	-0.607939
O6	O	-0.397752	1.797074	-0.685471
O7	O	-0.549880	1.603645	-0.325867
O8	O	-0.237357	1.487818	-0.530481
O9	O	-0.536758	1.787088	-0.530449
O10	O	-0.227414	1.626810	-0.685489
O11	O	-0.420818	1.474639	-0.325880
O12	O	-0.407666	1.317437	-0.530432
O13	O	-0.513641	1.510776	-0.889985
O14	O	-0.526764	1.327334	-0.685403
O15	O	-0.384601	1.639872	-0.890022
O16	O	-0.707067	1.616707	-0.530400
O17	O	-0.697102	1.497597	-0.685385
C18	C	-0.467212	1.284264	-0.607915
C19	C	-0.467226	1.167489	-0.607934
C20	C	-0.405114	1.107452	-0.527389
C21	C	-0.405137	0.997729	-0.527405
C22	C	-0.529388	1.008090	-0.688523
C23	C	-0.529369	1.117810	-0.688499
C24	C	-0.342970	1.157131	-0.446824
C25	C	-0.280852	1.097094	-0.366273
C26	C	-0.280876	0.987371	-0.366289
C27	C	-0.343018	0.937685	-0.446856
C28	C	-0.740204	1.557169	-0.607912
C29	C	-0.856979	1.557241	-0.607943
C30	C	-0.916989	1.619341	-0.527332
C31	C	-1.026710	1.619408	-0.527370
C32	C	-1.016402	1.495265	-0.688636
C33	C	-0.906682	1.495205	-0.688603
C34	C	-0.867286	1.681377	-0.446672
C35	C	-0.927296	1.743482	-0.366053
C36	C	-1.037018	1.743549	-0.366092
C37	C	-1.086729	1.681511	-0.446750
C38	C	-0.193198	1.557328	-0.607993
C39	C	-0.076420	1.557368	-0.608016
C40	C	-0.446098	1.578343	-0.937069
C41	C	-0.437091	1.587338	-1.077325
C42	C	-0.467258	1.831268	-0.607963
C43	C	-0.467269	1.948045	-0.607974
C44	C	-0.488213	1.536266	-0.280088
C45	C	-0.496925	1.527474	-0.139833
H46	H	-0.230304	0.938491	-0.300693
H47	H	-0.579945	1.166694	-0.754088
O48	O	-1.205073	1.681578	-0.446789
H49	H	-1.232290	1.762462	-0.472375
O50	O	-0.343101	0.819338	-0.446852
H51	H	-0.315908	0.796505	-0.542073
O52	O	-0.573901	1.450447	-1.068614
H53	H	-0.631176	1.493627	-1.008547
H54	H	-0.378975	1.645481	-1.131116
H55	H	-0.230265	1.137555	-0.300672
O56	O	-0.342954	1.275473	-0.446795
H57	H	-0.262092	1.306062	-0.472455
O58	O	-0.596435	0.954544	-0.775422
H59	H	-0.545406	0.908699	-0.839768
O60	O	-0.748943	1.681308	-0.446639
H61	H	-0.724460	1.734883	-0.377018
O62	O	-0.873688	1.810413	-0.279082
H63	H	-0.787311	1.799934	-0.292594
H64	H	-1.085875	1.794125	-0.300457
H65	H	-1.056885	1.444756	-0.754303
H66	H	-0.857820	1.444638	-0.754245
