data_functionalizedCrystal
_audit_creation_method	'MofGen! by Chris Wilmer'
_symmetry_space_group_name_H-M	'P1'
_symmetry_Int_Tables_number	1
_symmetry_cell_setting	triclinic
loop_
_symmetry_equiv_pos_as_xyz
  x,y,z
_cell_length_a	17.699104
_cell_length_b	16.776229
_cell_length_c	17.699083
_cell_angle_alpha	90.000273
_cell_angle_beta	83.287266
_cell_angle_gamma	89.995647
loop_
_atom_site_label
_atom_site_type_symbol
_atom_site_fract_x
_atom_site_fract_y
_atom_site_fract_z
O1	O	0.095709	-0.066178	1.004085
O2	O	0.108161	-0.066204	0.783707
O3	O	-0.008253	-0.066183	0.900114
O4	O	0.212123	-0.066199	0.887678
O5	O	-0.008254	0.066393	0.900101
O6	O	0.108161	0.066372	0.783694
O7	O	0.095708	0.066398	1.004071
Zn8	Zn	0.101934	0.087435	0.893881
Zn9	Zn	0.101935	-0.087241	0.893898
O10	O	0.212123	0.066377	0.887665
C11	C	-0.036450	0.000105	0.899659
C12	C	-0.120467	0.000105	0.898314
C13	C	0.107715	0.000081	0.755503
C14	C	0.106376	0.000071	0.671485
C15	C	-0.645338	0.000090	0.959058
C16	C	-0.566395	0.000097	0.960317
C17	C	-0.517777	0.000091	0.891982
C18	C	-0.548107	0.000085	0.822383
C19	C	-0.627049	0.000084	0.821125
C20	C	-0.229741	0.000092	0.827456
C21	C	-0.150794	0.000092	0.828720
C22	C	-0.169086	0.000106	0.966648
C23	C	-0.248029	0.000104	0.965390
C24	C	-0.278352	0.000103	0.895792
C25	C	-0.363951	0.000097	0.894427
C26	C	-0.432179	0.000091	0.893345
N27	N	0.101934	0.206646	0.893874
C28	C	0.240319	0.000087	0.888120
C29	C	0.324337	0.000082	0.889464
N30	N	0.101930	-0.206452	0.893910
C31	C	0.147782	0.248362	0.939693
C32	C	0.147779	0.331814	0.939701
C33	C	0.101931	0.373549	0.893887
C34	C	0.056078	0.331827	0.848066
C35	C	0.056077	0.248376	0.848062
C36	C	0.056079	0.668374	0.848082
C37	C	0.056085	0.751831	0.848087
C38	C	0.147781	0.751812	0.939720
C39	C	0.147780	0.668361	0.939716
C40	C	0.101924	0.626647	0.893899
C41	C	0.101926	0.536158	0.893892
C42	C	0.101932	0.464036	0.893889
C43	C	0.174709	0.000066	0.622869
C44	C	0.173446	0.000076	0.543926
C45	C	0.103851	0.000086	0.513600
C46	C	0.035513	0.000093	0.562222
C47	C	0.036776	0.000088	0.641164
C48	C	0.030418	0.000113	0.243859
C49	C	0.029160	0.000115	0.164911
C50	C	0.167088	0.000101	0.146621
C51	C	0.168351	0.000097	0.225563
C52	C	0.100014	0.000108	0.274178
C53	C	0.101383	0.000098	0.359777
C54	C	0.102480	0.000090	0.428002
C55	C	0.096155	0.000112	1.032275
C56	C	0.097493	0.000116	1.116293
H57	H	-0.684918	0.000088	1.014705
H58	H	0.185117	0.785786	0.977029
H59	H	0.018744	0.365814	0.810767
H60	H	-0.111210	0.000088	0.773070
H61	H	0.185112	0.365775	0.977012
H62	H	-0.508516	0.000085	0.766743
H63	H	0.018748	0.785809	0.810778
F64	F	-0.262003	0.000085	0.753383
F65	F	-0.136808	0.000111	1.040722
H66	H	0.231382	0.000058	0.647554
H67	H	0.185121	0.214387	0.976996
H68	H	-0.541708	0.000104	1.016987
H69	H	0.229090	0.000072	0.504346
F70	F	-0.299767	0.000108	1.038122
F71	F	-0.659322	0.000079	0.747054
H72	H	0.185117	0.634385	0.977020
H73	H	0.018740	0.634420	0.810775
F74	F	0.242424	0.000082	0.257833
H75	H	0.018743	0.214412	0.810752
H76	H	0.222732	0.000096	0.107028
H77	H	-0.027517	0.000124	0.140223
F78	F	-0.042314	0.000125	0.295589
F79	F	-0.038557	0.000108	0.529945
H80	H	-0.018868	0.000091	0.680747
