data_functionalizedCrystal
_audit_creation_method	'MofGen! by Chris Wilmer'
_symmetry_space_group_name_H-M	'P1'
_symmetry_Int_Tables_number	1
_symmetry_cell_setting	triclinic
loop_
_symmetry_equiv_pos_as_xyz
  x,y,z
_cell_length_a	12.759401
_cell_length_b	12.827892
_cell_length_c	12.759393
_cell_angle_alpha	89.970218
_cell_angle_beta	89.979062
_cell_angle_gamma	90.016917
loop_
_atom_site_label
_atom_site_type_symbol
_atom_site_fract_x
_atom_site_fract_y
_atom_site_fract_z
Zn1	Zn	1.606261	-0.415940	-0.594025
Zn2	Zn	1.939595	-0.082607	-0.260692
Zn3	Zn	2.272928	0.250727	0.072641
Zn4	Zn	1.606150	-0.590717	-0.418348
Zn5	Zn	1.939484	-0.257384	-0.085014
Zn6	Zn	2.272817	0.075949	0.248319
Zn7	Zn	1.430560	-0.415996	-0.418361
Zn8	Zn	1.763893	-0.082662	-0.085027
Zn9	Zn	2.097227	0.250671	0.248306
Zn10	Zn	1.430550	-0.590644	-0.593985
Zn11	Zn	1.763883	-0.257311	-0.260652
Zn12	Zn	2.097216	0.076022	0.072682
O13	O	1.518380	-0.503324	-0.506180
O14	O	1.851714	-0.169991	-0.172846
O15	O	2.185047	0.163342	0.160487
O16	O	1.753268	-0.439132	-0.570733
O17	O	2.086601	-0.105798	-0.237400
O18	O	2.419934	0.227535	0.095934
O19	O	1.582816	-0.567594	-0.271328
O20	O	1.916149	-0.234261	0.062005
O21	O	2.249482	0.099073	0.395338
O22	O	1.453918	-0.269752	-0.441685
O23	O	1.787251	0.063581	-0.108352
O24	O	2.120585	0.396915	0.224982
O25	O	1.753186	-0.567540	-0.441663
O26	O	2.086519	-0.234207	-0.108330
O27	O	2.419853	0.099127	0.225003
O28	O	1.583005	-0.269711	-0.570745
O29	O	1.916338	0.063622	-0.237412
O30	O	2.249672	0.396955	0.095921
O31	O	1.453810	-0.439227	-0.271338
O32	O	1.787144	-0.105893	0.061996
O33	O	2.120477	0.227440	0.395329
O34	O	1.283538	-0.439156	-0.441646
O35	O	1.616871	-0.105822	-0.108313
O36	O	1.950204	0.227511	0.225021
O37	O	1.453900	-0.567416	-0.741011
O38	O	1.787234	-0.234082	-0.407678
O39	O	2.120567	0.099251	-0.074345
O40	O	1.283530	-0.567469	-0.570676
O41	O	1.616863	-0.234136	-0.237343
O42	O	1.950197	0.099197	0.095990
O43	O	1.582995	-0.439061	-0.741041
O44	O	1.916328	-0.105728	-0.407708
O45	O	2.249662	0.227606	-0.074374
O46	O	1.582806	-0.736944	-0.441624
O47	O	1.916139	-0.403610	-0.108291
O48	O	2.249472	-0.070277	0.225043
O49	O	1.453793	-0.736890	-0.570664
O50	O	1.787126	-0.403557	-0.237331
O51	O	2.120460	-0.070223	0.096003
C52	C	1.245413	-0.503312	-0.506159
C53	C	1.578746	-0.169978	-0.172825
C54	C	1.912080	0.163355	0.160508
C55	C	1.128636	-0.503331	-0.506175
C56	C	1.461970	-0.169998	-0.172841
C57	C	1.795303	0.163335	0.160492
C58	C	1.073798	-0.570246	-0.573255
C59	C	1.407131	-0.236912	-0.239922
C60	C	1.740465	0.096421	0.093412
C61	C	0.964074	-0.570250	-0.573276
C62	C	1.297407	-0.236916	-0.239943
C63	C	1.630741	0.096417	0.093391
C64	C	0.964036	-0.436422	-0.439127
C65	C	1.297370	-0.103088	-0.105794
C66	C	1.630703	0.230245	0.227540
C67	C	1.073758	-0.436413	-0.439112
C68	C	1.407092	-0.103080	-0.105779
C69	C	1.740425	0.230253	0.227554
C70	C	1.518315	-0.774834	-0.506161
C71	C	1.851648	-0.441501	-0.172828
C72	C	2.184981	-0.108168	0.160506
C73	C	1.518383	-0.890987	-0.506188
C74	C	1.851716	-0.557654	-0.172855
C75	C	2.185049	-0.224321	0.160478
C76	C	1.582298	-0.942764	-0.442406
C77	C	1.915631	-0.609431	-0.109073
C78	C	2.248965	-0.276097	0.224261
C79	C	1.582370	-1.062814	-0.442433
C80	C	1.915703	-0.729481	-0.109099
C81	C	2.249037	-0.396148	0.224234
C82	C	1.792414	-0.503338	-0.506201
C83	C	2.125747	-0.170005	-0.172868
C84	C	2.459080	0.163329	0.160466
C85	C	1.909190	-0.503344	-0.506210
C86	C	2.242524	-0.170010	-0.172877
C87	C	2.575857	0.163323	0.160456
C88	C	1.518459	-0.503224	-0.780213
C89	C	1.851792	-0.169891	-0.446880
C90	C	2.185126	0.163443	-0.113546
C91	C	1.518492	-0.503181	-0.896990
C92	C	1.851826	-0.169848	-0.563656
C93	C	2.185159	0.163485	-0.230323
C94	C	1.518475	-0.230754	-0.506221
C95	C	1.851808	0.102579	-0.172888
C96	C	2.185142	0.435913	0.160445
C97	C	1.518515	-0.114601	-0.506239
C98	C	1.851849	0.218732	-0.172906
C99	C	2.185182	0.552066	0.160428
C100	C	1.585717	-0.436336	-0.951869
C101	C	1.919050	-0.103003	-0.618536
C102	C	2.252384	0.230330	-0.285202
C103	C	1.585735	-0.436291	-1.061593
C104	C	1.919068	-0.102958	-0.728260
C105	C	2.252401	0.230375	-0.394926
C106	C	1.451301	-0.569945	-1.061549
C107	C	1.784634	-0.236612	-0.728216
C108	C	2.117967	0.096722	-0.394883
C109	C	1.451278	-0.569984	-0.951827
C110	C	1.784612	-0.236651	-0.618494
C111	C	2.117945	0.096683	-0.285160
C112	C	1.518363	-0.503349	-0.233212
C113	C	1.851696	-0.170015	0.100121
C114	C	2.185029	0.163318	0.433454
C115	C	1.518533	-0.503097	-0.116436
C116	C	1.851866	-0.169764	0.216897
C117	C	2.185199	0.163569	0.550231
H118	H	0.919341	-0.381941	-0.384525
H119	H	1.252675	-0.048608	-0.051192
H120	H	1.586008	0.284726	0.282141
Br121	Br	1.360029	-0.660699	-0.877341
Br122	Br	1.693362	-0.327366	-0.544008
Br123	Br	2.026695	0.005967	-0.210674
H124	H	1.637087	-1.107341	-0.387824
H125	H	1.970421	-0.774008	-0.054490
H126	H	2.303754	-0.440674	0.278843
Br127	Br	1.148272	-0.661060	-0.664270
Br128	Br	1.481606	-0.327727	-0.330937
Br129	Br	1.814939	0.005607	0.002396
Br130	Br	1.360090	-0.660605	-1.135978
Br131	Br	1.693423	-0.327272	-0.802644
Br132	Br	2.026756	0.006061	-0.469311
Br133	Br	1.427270	-0.965227	-0.597250
Br134	Br	1.760603	-0.631894	-0.263916
Br135	Br	2.093937	-0.298560	0.069417
H136	H	1.640444	-0.381938	-0.907224
H137	H	1.973778	-0.048605	-0.573890
H138	H	2.307111	0.284728	-0.240557
H139	H	1.640474	-0.381858	-1.106271
H140	H	1.973807	-0.048524	-0.772937
H141	H	2.307141	0.284809	-0.439604
H142	H	1.118409	-0.381917	-0.384487
H143	H	1.451742	-0.048583	-0.051154
H144	H	1.785076	0.284750	0.282180
H145	H	0.919429	-0.624737	-0.627901
H146	H	1.252763	-0.291404	-0.294568
H147	H	1.586096	0.041930	0.038766
H148	H	1.636970	-0.898218	-0.387783
H149	H	1.970304	-0.564884	-0.054450
H150	H	2.303637	-0.231551	0.278883
H151	H	1.463788	-1.070082	-0.560844
H152	H	1.797121	-0.736749	-0.227511
H153	H	2.130454	-0.403415	0.105822
