data_functionalizedCrystal
_audit_creation_method	'MofGen! by Chris Wilmer'
_symmetry_space_group_name_H-M	'P1'
_symmetry_Int_Tables_number	1
_symmetry_cell_setting	triclinic
loop_
_symmetry_equiv_pos_as_xyz
  x,y,z
_cell_length_a	16.959454
_cell_length_b	19.077236
_cell_length_c	19.076919
_cell_angle_alpha	89.887323
_cell_angle_beta	92.275489
_cell_angle_gamma	92.313014
loop_
_atom_site_label
_atom_site_type_symbol
_atom_site_fract_x
_atom_site_fract_y
_atom_site_fract_z
Zn1	Zn	-0.286928	1.058310	-0.440559
Zn2	Zn	-0.413600	1.062959	-0.323060
Zn3	Zn	-0.286514	0.945526	-0.318339
Zn4	Zn	-0.424146	0.940779	-0.435799
O5	O	-0.352797	1.001893	-0.379439
O6	O	-0.299492	1.157260	-0.428941
O7	O	-0.392155	1.051313	-0.224103
O8	O	-0.175957	0.960528	-0.334568
O9	O	-0.392557	1.160675	-0.342615
O10	O	-0.176261	1.043390	-0.424363
O11	O	-0.298785	0.965036	-0.220634
O12	O	-0.309011	0.846563	-0.329953
O13	O	-0.410530	0.952437	-0.534762
O14	O	-0.410128	0.843075	-0.416250
O15	O	-0.309717	1.038787	-0.538259
O16	O	-0.525611	1.046710	-0.337999
O17	O	-0.533359	0.956945	-0.420828
C18	C	-0.360669	0.819322	-0.372073
C19	C	-0.364057	0.741216	-0.368938
C20	C	-0.317278	0.702742	-0.412479
C21	C	-0.320457	0.629354	-0.409528
C22	C	-0.370420	0.594441	-0.363038
C23	C	-0.417201	0.632921	-0.319492
C24	C	-0.414017	0.706308	-0.322441
C25	C	-0.385124	0.375149	-0.349389
C26	C	-0.388306	0.301757	-0.346446
C27	C	-0.291561	0.298195	-0.436481
C28	C	-0.288385	0.371583	-0.439428
C29	C	-0.335163	0.410056	-0.395880
N30	N	-0.373672	0.519427	-0.360021
N31	N	-0.331906	0.485070	-0.398893
C32	C	-0.558165	1.001835	-0.379425
C33	C	-0.646021	1.001873	-0.379445
C34	C	-1.021556	0.955218	-0.422566
C35	C	-1.013429	1.048761	-0.336392
C36	C	-0.930884	1.048737	-0.336385
C37	C	-0.893671	1.001952	-0.379468
C38	C	-0.939004	0.955191	-0.422558
C39	C	-0.885546	1.095492	-0.293290
C40	C	-0.802995	1.095470	-0.293280
C41	C	-0.765781	1.048687	-0.336367
C42	C	-0.811119	1.001925	-0.379460
C43	C	-0.773906	0.955139	-0.422543
C44	C	-0.819242	0.908380	-0.465641
C45	C	-0.901790	0.908408	-0.465646
C46	C	-0.683234	1.048659	-0.336362
C47	C	-0.691353	0.955112	-0.422536
C48	C	-0.146627	1.001970	-0.379470
C49	C	-0.058769	1.002003	-0.379483
C50	C	-0.361346	0.994564	-0.562719
C51	C	-0.364989	0.991441	-0.640822
C52	C	-0.344894	1.185177	-0.386835
C53	C	-0.341527	1.263282	-0.389987
C54	C	-0.314215	1.034929	-0.679337
C55	C	-0.317636	1.031986	-0.752723
C56	C	-0.371834	0.985558	-0.787592
C57	C	-0.422611	0.942065	-0.749072
C58	C	-0.419186	0.945005	-0.675688
C59	C	-0.387702	0.971941	-1.006873
C60	C	-0.391125	0.969005	-1.080262
C61	C	-0.286148	1.058926	-1.083908
C62	C	-0.282732	1.061865	-1.010522
C63	C	-0.333505	1.018369	-0.972008
N64	N	-0.375334	0.982550	-0.862604
N65	N	-0.330001	1.021374	-0.896997
C66	C	-0.344222	1.009234	-0.196874
C67	C	-0.340351	1.012494	-0.118777
H68	H	-0.452109	0.737633	-0.286984
H69	H	-0.276595	0.731162	-0.450338
N70	N	-0.651226	0.904645	-0.469005
H71	H	-0.617087	0.873234	-0.439105
H72	H	-0.617272	0.931908	-0.502732
H73	H	-0.244811	1.094337	-1.115274
N74	N	-0.241097	0.256703	-0.483440
H75	H	-0.255244	0.267474	-0.534142
H76	H	-0.250710	0.204930	-0.474461
N77	N	-0.481052	0.891972	-0.786677
H78	H	-0.475515	0.896705	-0.839010
H79	H	-0.536440	0.903388	-0.774287
N80	N	-0.634330	1.099082	-0.289886
H81	H	-0.646844	1.090218	-0.239233
H82	H	-0.647015	1.148826	-0.302921
N83	N	-0.449587	0.918929	-1.117875
H84	H	-0.481232	0.891820	-1.082341
H85	H	-0.420233	0.885207	-1.147017
H86	H	-0.938710	0.870339	-0.500732
H87	H	-0.460524	0.909585	-0.644329
H88	H	-0.428996	0.273333	-0.308588
N89	N	-0.435573	0.416640	-0.302420
H90	H	-0.467707	0.383385	-0.272524
H91	H	-0.472214	0.445949	-0.332185
H92	H	-0.457877	0.604489	-0.281636
N93	N	-0.779103	0.857913	-0.512101
H94	H	-0.719931	0.864991	-0.505550
H95	H	-0.795370	0.866804	-0.562738
H96	H	-1.058473	0.917149	-0.457657
N97	N	-1.053561	1.099209	-0.289914
H98	H	-1.112734	1.092127	-0.296454
H99	H	-1.037440	1.148946	-0.302909
H100	H	-0.282366	0.598031	-0.444985
N101	N	-0.925679	1.145937	-0.246809
H102	H	-0.984852	1.138857	-0.253354
H103	H	-0.909555	1.195675	-0.259797
N104	N	-0.234470	0.409222	-0.489560
H105	H	-0.195142	0.440804	-0.462273
H106	H	-0.266882	0.438336	-0.523297
N107	N	-0.754100	1.145906	-0.246807
H108	H	-0.790201	1.175549	-0.219517
H109	H	-0.719755	1.177244	-0.276752
N110	N	-0.255762	1.085011	-0.641730
H111	H	-0.224116	1.112112	-0.677268
H112	H	-0.218994	1.057642	-0.610131
N113	N	-0.262858	1.078877	-0.794264
H114	H	-0.228003	1.108734	-0.761039
H115	H	-0.295039	1.110166	-0.826030
H116	H	-0.238599	1.099674	-0.982136
N117	N	-0.442437	0.925007	-0.965337
H118	H	-0.477283	0.895144	-0.998564
H119	H	-0.476374	0.954790	-0.936023
