data_functionalizedCrystal
_audit_creation_method	'MofGen! by Chris Wilmer'
_symmetry_space_group_name_H-M	'P1'
_symmetry_Int_Tables_number	1
_symmetry_cell_setting	triclinic
loop_
_symmetry_equiv_pos_as_xyz
  x,y,z
_cell_length_a	16.992694
_cell_length_b	16.974885
_cell_length_c	16.053802
_cell_angle_alpha	96.211606
_cell_angle_beta	87.249047
_cell_angle_gamma	87.024242
loop_
_atom_site_label
_atom_site_type_symbol
_atom_site_fract_x
_atom_site_fract_y
_atom_site_fract_z
O1	O	1.042985	0.165033	-0.058179
O2	O	1.542985	0.665033	0.441821
O3	O	0.814709	0.163187	-0.058328
O4	O	1.314709	0.663187	0.441672
O5	O	0.935581	0.049061	-0.066017
O6	O	1.435581	0.549061	0.433983
O7	O	0.922112	0.279158	-0.050489
O8	O	1.422112	0.779158	0.449511
O9	O	0.928928	0.055315	0.073263
O10	O	1.428928	0.555315	0.573263
O11	O	0.808056	0.169441	0.080952
O12	O	1.308056	0.669441	0.580952
O13	O	1.036332	0.171287	0.081102
O14	O	1.536332	0.671287	0.581102
Zn15	Zn	0.921137	0.171357	0.103141
Zn16	Zn	1.421137	0.671357	0.603141
Zn17	Zn	0.929903	0.163117	-0.080367
Zn18	Zn	1.429903	0.663117	0.419633
O19	O	0.915459	0.285412	0.088791
O20	O	1.415459	0.785412	0.588791
C21	C	0.782180	0.163940	0.011149
C22	C	1.282180	0.663940	0.511149
C23	C	0.695167	0.156859	0.010661
C24	C	1.195167	0.656859	0.510661
C25	C	0.644633	0.225181	0.015273
C26	C	1.144633	0.725181	0.515273
C27	C	0.562874	0.218523	0.014835
C28	C	1.062874	0.718523	0.514835
C29	C	0.531651	0.143543	0.009780
C30	C	1.031651	0.643543	0.509780
C31	C	0.582192	0.075216	0.005171
C32	C	1.082192	0.575216	0.505171
C33	C	0.663948	0.081874	0.005615
C34	C	1.163948	0.581874	0.505615
C35	C	0.288171	0.115946	0.007940
C36	C	0.788171	0.615946	0.507940
C37	C	0.206408	0.109292	0.007494
C38	C	0.706408	0.609292	0.507494
C39	C	0.187096	0.252600	0.017160
C40	C	0.687096	0.752600	0.517160
C41	C	0.268855	0.259252	0.017598
C42	C	0.768855	0.759252	0.517598
C43	C	0.319388	0.190925	0.012993
C44	C	0.819388	0.690925	0.512993
N45	N	0.448081	0.136736	0.009330
N46	N	0.948081	0.636736	0.509330
N47	N	0.402956	0.197733	0.013450
N48	N	0.902956	0.697733	0.513450
C49	C	0.931866	0.022610	0.001625
C50	C	1.431866	0.522610	0.501625
C51	C	0.930698	-0.065525	-0.004329
C52	C	1.430698	0.434475	0.495671
C53	C	0.926521	-0.103529	0.068792
C54	C	1.426521	0.396471	0.568792
C55	C	0.925429	-0.186342	0.063191
C56	C	1.425429	0.313658	0.563191
C57	C	0.928508	-0.231149	-0.015533
C58	C	1.428508	0.268851	0.484467
C59	C	0.932688	-0.193139	-0.088659
C60	C	1.432688	0.306861	0.411341
C61	C	0.933786	-0.110328	-0.083057
C62	C	1.433786	0.389672	0.416943
C63	C	0.925620	-0.479182	-0.040429
C64	C	1.425620	0.020818	0.459571
C65	C	0.924520	-0.561998	-0.046026
C66	C	1.424520	-0.061998	0.453974
C67	C	0.917262	-0.555195	0.105825
C68	C	1.417262	-0.055195	0.605825
C69	C	0.918355	-0.472383	0.111420
C70	C	1.418355	0.027617	0.611420
C71	C	0.922539	-0.434381	0.038294
C72	C	1.422539	0.065619	0.538294
N73	N	0.927390	-0.315796	-0.021260
N74	N	1.427390	0.184204	0.478740
N75	N	0.923663	-0.349735	0.044022
N76	N	1.423663	0.150265	0.544022
C77	C	1.068861	0.170533	0.011623
C78	C	1.568861	0.670533	0.511623
C79	C	1.155874	0.177614	0.012105
C80	C	1.655874	0.677614	0.512105
C81	C	0.919175	0.311863	0.021147
C82	C	1.419175	0.811863	0.521147
C83	C	0.920343	0.399998	0.027095
C84	C	1.420343	0.899998	0.527095
N85	N	0.915161	0.176980	0.228380
N86	N	1.415161	0.676980	0.728380
N87	N	0.935886	0.157487	-0.205607
N88	N	1.435886	0.657487	0.294393
C89	C	0.966611	0.128439	0.268803
C90	C	1.466611	0.628439	0.768803
C91	C	0.962437	0.132381	0.356476
C92	C	1.462437	0.632381	0.856476
C93	C	0.906817	0.184868	0.403723
C94	C	1.406817	0.684868	0.903723
C95	C	0.855362	0.233411	0.363294
C96	C	1.355362	0.733411	0.863294
C97	C	0.859532	0.229465	0.275623
C98	C	1.359532	0.729465	0.775623
C99	C	0.888601	0.202084	0.666293
C100	C	1.388601	0.702084	1.166293
C101	C	0.884436	0.206028	0.753970
C102	C	1.384436	0.706028	1.253970
C103	C	0.991511	0.104996	0.747146
C104	C	1.491511	0.604996	1.247146
C105	C	0.995680	0.101058	0.659473
C106	C	1.495680	0.601058	1.159473
C107	C	0.944222	0.149598	0.619051
C108	C	1.444222	0.649598	1.119051
N109	N	0.902551	0.188900	0.493339
N110	N	1.402551	0.688900	0.993339
N111	N	0.948484	0.145561	0.529437
N112	N	1.448484	0.645561	1.029437
H113	H	0.180991	0.048231	0.003376
H114	H	0.680991	0.548231	0.503376
Cl115	Cl	0.683875	0.319446	0.021623
Cl116	Cl	1.183875	0.819446	0.521623
Cl117	Cl	1.036541	0.062455	0.209416
Cl118	Cl	1.536541	0.562455	0.709416
Cl119	Cl	0.785434	0.299392	0.422689
Cl120	Cl	1.285434	0.799392	0.922689
Cl121	Cl	0.912005	-0.602974	0.197749
Cl122	Cl	1.412005	-0.102974	0.697749
Cl123	Cl	0.499349	0.304418	0.020627
Cl124	Cl	0.999349	0.804418	0.520627
Cl125	Cl	1.027118	0.071356	0.407295
Cl126	Cl	1.527118	0.571356	0.907295
H127	H	0.935200	-0.229628	-0.152757
H128	H	1.435200	0.270372	0.347243
Cl129	Cl	0.922646	-0.047208	0.167764
Cl130	Cl	1.422646	0.452792	0.667764
Cl131	Cl	1.065604	0.035075	0.600076
Cl132	Cl	1.565604	0.535075	1.100076
Cl133	Cl	0.308101	0.353517	0.023948
Cl134	Cl	0.808101	0.853517	0.523948
Cl135	Cl	0.542940	-0.019046	-0.001179
Cl136	Cl	1.042940	0.480954	0.498821
H137	H	0.922031	-0.217281	0.122734
H138	H	1.422031	0.282719	0.622734
H139	H	0.929025	-0.448251	-0.099974
H140	H	1.429025	0.051749	0.400026
H141	H	0.927020	-0.598477	-0.110135
H142	H	1.427020	-0.098477	0.389865
Cl143	Cl	0.939041	-0.062552	-0.174984
Cl144	Cl	1.439041	0.437448	0.325016
Cl145	Cl	0.727477	-0.004020	-0.000179
Cl146	Cl	1.227477	0.495980	0.499821
Cl147	Cl	0.914463	-0.416059	0.210391
Cl148	Cl	1.414463	0.083941	0.710391
Cl149	Cl	1.056195	0.043975	0.797966
Cl150	Cl	1.556195	0.543975	1.297966
Cl151	Cl	0.351688	0.030048	0.002150
Cl152	Cl	0.851688	0.530048	0.502150
H153	H	0.145944	0.308228	0.020910
H154	H	0.645944	0.808228	0.520910
Cl155	Cl	0.814507	0.272020	0.813362
Cl156	Cl	1.314507	0.772020	1.313362
H157	H	0.846703	0.241608	0.633388
H158	H	1.346703	0.741608	1.133388
Cl159	Cl	0.794846	0.290488	0.224806
Cl160	Cl	1.294846	0.790488	0.724806
