data_functionalizedCrystal
_audit_creation_method	'MofGen! by Chris Wilmer'
_symmetry_space_group_name_H-M	'P1'
_symmetry_Int_Tables_number	1
_symmetry_cell_setting	triclinic
loop_
_symmetry_equiv_pos_as_xyz
  x,y,z
_cell_length_a	6.817900
_cell_length_b	12.200863
_cell_length_c	9.514088
_cell_angle_alpha	89.402400
_cell_angle_beta	118.843545
_cell_angle_gamma	107.143441
loop_
_atom_site_label
_atom_site_type_symbol
_atom_site_fract_x
_atom_site_fract_y
_atom_site_fract_z
V1	V	-4.236300	-0.160747	-0.500908
V2	V	-3.736300	0.339253	-0.000908
O3	O	-4.200703	0.005632	-0.491205
O4	O	-3.700703	0.505632	0.008795
O5	O	-4.204774	-0.316721	-0.497644
O6	O	-3.704774	0.183279	0.002356
O7	O	-4.270895	-0.159192	-0.719298
O8	O	-3.770895	0.340808	-0.219298
O9	O	-4.134123	-0.152987	-0.268017
O10	O	-3.634123	0.347013	0.231983
V11	V	-4.706987	-0.140737	-0.473033
V12	V	-4.206987	0.359263	0.026967
O13	O	-4.525715	-0.204639	-0.562055
O14	O	-4.025715	0.295361	-0.062055
O15	O	-4.867769	-0.096845	-0.411886
O16	O	-4.367769	0.403155	0.088114
O17	O	-4.515306	0.015237	-0.476297
O18	O	-4.015306	0.515237	0.023703
O19	O	-4.859981	-0.307116	-0.482736
O20	O	-4.359981	0.192884	0.017264
O21	O	-4.926560	-0.148497	-0.705925
O22	O	-4.426560	0.351503	-0.205925
O23	O	-4.449184	-0.142292	-0.254643
O24	O	-3.949184	0.357708	0.245357
C25	C	-4.051195	-0.354716	-0.489784
C26	C	-3.551195	0.145284	0.010216
C27	C	-4.107259	-0.482233	-0.488570
C28	C	-3.607259	0.017767	0.011430
C29	C	-4.135537	-0.153771	-0.772523
C30	C	-3.635537	0.346229	-0.272523
C31	C	-4.245218	-0.153532	-0.951059
C32	C	-3.745218	0.346468	-0.451059
C33	C	-4.209872	-0.715701	-0.486362
C34	C	-3.709872	-0.215701	0.013638
C35	C	-4.152762	-0.585782	-0.487591
C36	C	-3.652762	-0.085782	0.012409
C37	C	-4.332226	0.053225	-0.484153
C38	C	-3.832226	0.553225	0.015847
C39	C	-4.255404	0.180741	-0.485377
C40	C	-3.755404	0.680741	0.014623
C41	C	-4.247882	-0.147717	-0.201410
C42	C	-3.747882	0.352283	0.298590
C43	C	-4.117438	-0.147950	-0.022872
C44	C	-3.617438	0.352050	0.477128
H45	H	-4.438541	-0.158130	-1.026171
H46	H	-3.938541	0.341870	-0.526171
H47	H	-3.924138	-0.143365	-0.947772
H48	H	-3.424138	0.356635	-0.447772
