data_functionalizedCrystal
_audit_creation_method	'MofGen! by Chris Wilmer'
_symmetry_space_group_name_H-M	'P1'
_symmetry_Int_Tables_number	1
_symmetry_cell_setting	triclinic
loop_
_symmetry_equiv_pos_as_xyz
  x,y,z
_cell_length_a	16.109301
_cell_length_b	10.540510
_cell_length_c	15.186229
_cell_angle_alpha	89.998730
_cell_angle_beta	89.999362
_cell_angle_gamma	83.987396
loop_
_atom_site_label
_atom_site_type_symbol
_atom_site_fract_x
_atom_site_fract_y
_atom_site_fract_z
O1	O	1.104117	0.163161	-0.073168
O2	O	0.862178	0.183466	-0.073181
O3	O	0.988680	-0.011474	-0.073174
O4	O	0.977615	0.358101	-0.073175
O5	O	0.988671	-0.011477	0.073283
O6	O	0.862169	0.183463	0.073276
O7	O	1.104108	0.163158	0.073289
Zn8	Zn	0.983137	0.173310	0.096536
Zn9	Zn	0.983149	0.173314	-0.096428
O10	O	0.977606	0.358099	0.073282
C11	C	0.831194	0.182642	0.000045
C12	C	0.738883	0.180176	0.000040
C13	C	0.987851	-0.058767	0.000053
C14	C	0.985384	-0.199682	0.000047
C15	C	0.517276	0.290116	0.000050
C16	C	0.430541	0.287789	0.000056
C17	C	0.449017	0.056499	0.000053
C18	C	0.535750	0.058828	0.000053
C19	C	0.569877	0.175640	0.000048
C20	C	0.396409	0.170985	0.000053
C21	C	0.302368	0.168461	0.000059
C22	C	0.663924	0.178164	0.000043
C23	C	1.073265	-0.418390	0.000388
C24	C	1.075896	-0.271832	0.000053
C25	C	0.939056	-0.243779	-0.083588
C26	C	0.937065	-0.390511	-0.083653
C27	C	0.935170	-0.390296	0.082896
C28	C	0.939464	-0.244016	0.083997
C29	C	1.135093	0.163982	0.000060
C30	C	1.227403	0.166448	0.000060
C31	C	0.978435	0.405392	0.000053
C32	C	0.980902	0.546307	0.000053
N33	N	0.983136	0.173307	0.228228
N34	N	0.983157	0.173307	-0.228121
C35	C	1.039170	0.087017	0.453955
C36	C	1.039173	0.087014	0.546144
C37	C	0.927116	0.259602	0.546147
C38	C	0.927110	0.259598	0.453959
C39	C	0.983142	0.173307	0.407865
C40	C	0.983151	0.173308	0.592243
C41	C	0.983153	0.173305	0.692199
C42	C	0.983139	0.173307	0.307903
H43	H	0.545058	0.385232	0.000052
N44	N	0.866696	0.352675	0.595871
H45	H	0.876797	0.442771	0.579821
H46	H	0.807629	0.337922	0.579818
N47	N	0.866670	0.352662	0.404240
H48	H	0.831178	0.407332	0.447427
H49	H	0.898820	0.408792	0.365981
H50	H	0.387716	0.381008	0.000059
H51	H	1.084794	0.016751	0.416427
N52	N	0.412206	-0.069483	0.000041
H53	H	0.458692	-0.141651	0.000041
H54	H	0.376619	-0.075495	0.054332
H55	H	0.869367	-0.412541	-0.087446
N56	N	1.099615	-0.006038	0.595856
H57	H	1.135111	-0.060693	0.552664
H58	H	1.136648	0.042599	0.634094
N59	N	0.845159	-0.418371	0.083651
H60	H	0.816094	-0.377406	0.137016
H61	H	0.816459	-0.382862	0.028462
N62	N	1.119704	-0.476665	-0.078613
H63	H	1.139962	-0.406845	-0.115961
H64	H	1.169052	-0.536374	-0.058128
N65	N	0.592492	-0.064649	0.000061
H66	H	0.557714	-0.139002	0.000060
H67	H	0.628885	-0.068720	-0.054229
N68	N	1.124196	-0.234900	-0.079499
H69	H	1.095894	-0.261629	-0.134824
H70	H	1.126104	-0.139435	-0.079976
N71	N	1.123889	-0.233631	0.079478
H72	H	1.143524	-0.312065	0.115021
H73	H	1.173724	-0.190506	0.059457
N74	N	1.119976	-0.474617	0.079838
H75	H	1.081723	-0.523526	0.116387
H76	H	1.169594	-0.534153	0.059823
H77	H	0.872422	-0.195440	-0.086701
H78	H	0.873382	-0.194008	0.089043
N79	N	0.979025	-0.444393	-0.166450
H80	H	0.948298	-0.405934	-0.219653
H81	H	1.038734	-0.423268	-0.167767
N82	N	0.981678	-0.203524	-0.166033
H83	H	1.030987	-0.156735	-0.149399
H84	H	1.001572	-0.281550	-0.201866
H85	H	0.963930	-0.432889	0.146291
H86	H	0.973174	-0.215886	0.145869
