data_functionalizedCrystal
_audit_creation_method	'MofGen! by Chris Wilmer'
_symmetry_space_group_name_H-M	'P1'
_symmetry_Int_Tables_number	1
_symmetry_cell_setting	triclinic
loop_
_symmetry_equiv_pos_as_xyz
  x,y,z
_cell_length_a	12.759401
_cell_length_b	21.295416
_cell_length_c	21.295411
_cell_angle_alpha	90.019171
_cell_angle_beta	89.978649
_cell_angle_gamma	89.969508
loop_
_atom_site_label
_atom_site_type_symbol
_atom_site_fract_x
_atom_site_fract_y
_atom_site_fract_z
Zn1	Zn	1.606171	0.250678	-0.355868
Zn2	Zn	1.606008	0.355930	-0.250598
Zn3	Zn	1.430464	0.250679	-0.250619
Zn4	Zn	1.430413	0.355914	-0.355836
O5	O	1.518264	0.303300	-0.303230
O6	O	1.753170	0.264647	-0.341909
O7	O	1.582675	0.341975	-0.162512
O8	O	1.453861	0.162590	-0.264603
O9	O	1.753051	0.341975	-0.264567
O10	O	1.582952	0.162589	-0.341929
O11	O	1.453704	0.264648	-0.162527
O12	O	1.283436	0.264632	-0.264572
O13	O	1.453775	0.341947	-0.443930
O14	O	1.283399	0.341948	-0.341874
O15	O	1.582903	0.264631	-0.443953
O16	O	1.582626	0.444017	-0.264536
O17	O	1.453617	0.444005	-0.341854
C18	C	1.245297	0.303289	-0.303222
C19	C	1.128520	0.303299	-0.303233
C20	C	1.518127	0.466852	-0.303203
C21	C	1.518165	0.536820	-0.303212
C22	C	1.073666	0.343622	-0.343418
C23	C	0.963942	0.343629	-0.343425
C24	C	0.963936	0.262990	-0.263057
C25	C	1.073658	0.262980	-0.263054
C26	C	1.128529	0.383941	-0.383597
C27	C	1.073675	0.424267	-0.423785
C28	C	0.963951	0.424275	-0.423792
C29	C	0.909081	0.383957	-0.383611
C30	C	1.585400	0.569672	-0.262995
C31	C	1.585449	0.635414	-0.263012
C32	C	1.518245	0.668303	-0.303239
C33	C	1.451006	0.635443	-0.343464
C34	C	1.450966	0.569701	-0.343450
N35	N	1.426339	0.771569	-0.308040
N36	N	1.426380	0.834021	-0.308049
C37	C	1.518364	0.866377	-0.303284
N38	N	1.610307	0.833923	-0.298497
N39	N	1.610265	0.771466	-0.298484
C40	C	1.518282	0.739588	-0.303259
C41	C	1.585658	0.970515	-0.263083
C42	C	1.585710	1.036258	-0.263105
C43	C	1.451257	1.036285	-0.343553
C44	C	1.451215	0.970543	-0.343535
C45	C	1.518414	0.937661	-0.303297
C46	C	1.792297	0.303312	-0.303239
C47	C	1.909074	0.303318	-0.303243
C48	C	1.518351	0.303287	-0.467421
C49	C	1.518389	0.303281	-0.537389
C50	C	1.518432	1.139110	-0.303283
C51	C	1.518506	1.069142	-0.303333
C52	C	1.585623	0.263021	-0.570269
C53	C	1.585621	0.262994	-0.636012
C54	C	1.518397	0.303238	-0.668871
C55	C	1.451149	0.343501	-0.635983
C56	C	1.451145	0.343523	-0.570242
N57	N	1.510291	0.358306	-0.772089
N58	N	1.510301	0.358283	-0.834541
C59	C	1.518403	0.303174	-0.866946
N60	N	1.526516	0.248087	-0.834541
N61	N	1.526511	0.248110	-0.772084
C62	C	1.518393	0.303219	-0.740157
C63	C	1.585639	0.262881	-0.971112
C64	C	1.585631	0.262853	-1.036856
C65	C	1.451164	0.343366	-1.036826
C66	C	1.451168	0.343388	-0.971084
C67	C	1.518411	0.303147	-0.938231
C68	C	1.518238	0.303268	-0.139679
C69	C	1.518404	0.303096	-0.069711
H70	H	1.118357	0.457089	-0.456502
O71	O	1.132825	0.219489	-0.219710
H72	H	1.218338	0.226251	-0.226465
H73	H	0.919252	0.230166	-0.230343
O74	O	1.378765	1.071750	-0.386938
H75	H	1.425777	1.101663	-0.418993
H76	H	1.640369	0.230206	-0.662788
H77	H	0.819736	0.383961	-0.383625
H78	H	1.217872	0.383940	-0.383595
O79	O	1.378519	0.670909	-0.386853
H80	H	1.296066	0.658333	-0.376015
O81	O	1.658143	0.219614	-0.534838
H82	H	1.646854	0.226395	-0.483599
H83	H	1.396412	0.376266	-0.662742
H84	H	1.396425	0.376176	-0.944313
H85	H	1.396461	0.943793	-0.376280
O86	O	1.378603	0.386934	-0.534772
H87	H	1.331847	0.414911	-0.568663
O88	O	1.658153	0.219478	-0.935668
H89	H	1.640176	0.170066	-0.948274
O90	O	0.904781	0.467833	-0.467067
H91	H	0.961367	0.495893	-0.494975
H92	H	1.640120	0.542902	-0.230233
O93	O	1.658169	0.935047	-0.219705
H94	H	1.646844	0.883813	-0.226450
H95	H	1.640204	0.662168	-0.230263
O96	O	1.658153	0.219428	-1.072325
H97	H	1.704914	0.191456	-1.038432
O98	O	1.378426	0.534262	-0.386816
H99	H	1.331693	0.568173	-0.414788
H100	H	1.640467	1.063005	-0.230357
O101	O	1.378653	0.386774	-1.072257
H102	H	1.389953	0.379998	-1.123496
