data_functionalizedCrystal
_audit_creation_method	'MofGen! by Chris Wilmer'
_symmetry_space_group_name_H-M	'P1'
_symmetry_Int_Tables_number	1
_symmetry_cell_setting	triclinic
loop_
_symmetry_equiv_pos_as_xyz
  x,y,z
_cell_length_a	19.805407
_cell_length_b	17.640280
_cell_length_c	19.805399
_cell_angle_alpha	78.776890
_cell_angle_beta	89.980427
_cell_angle_gamma	78.800112
loop_
_atom_site_label
_atom_site_type_symbol
_atom_site_fract_x
_atom_site_fract_y
_atom_site_fract_z
Zn1	Zn	1.089281	-0.314680	-0.328317
Zn2	Zn	1.422614	0.018654	0.005016
Zn3	Zn	1.755947	0.351987	0.338349
Zn4	Zn	1.112106	-0.446853	-0.192279
Zn5	Zn	1.445439	-0.113520	0.141055
Zn6	Zn	1.778772	0.219813	0.474388
Zn7	Zn	0.976099	-0.314701	-0.215138
Zn8	Zn	1.309432	0.018632	0.118195
Zn9	Zn	1.642766	0.351965	0.451529
Zn10	Zn	0.998962	-0.446811	-0.305433
Zn11	Zn	1.332295	-0.113478	0.027901
Zn12	Zn	1.665628	0.219855	0.361234
O13	O	1.044112	-0.380761	-0.260292
O14	O	1.377445	-0.047428	0.073042
O15	O	1.710778	0.285905	0.406375
O16	O	1.187026	-0.332221	-0.310282
O17	O	1.520360	0.001112	0.023051
O18	O	1.853693	0.334446	0.356385
O19	O	1.094048	-0.429350	-0.100590
O20	O	1.427382	-0.096017	0.232744
O21	O	1.760715	0.237317	0.566077
O22	O	0.971992	-0.204095	-0.249296
O23	O	1.305326	0.129239	0.084038
O24	O	1.638659	0.462572	0.417371
O25	O	1.203796	-0.429329	-0.210335
O26	O	1.537129	-0.095995	0.122998
O27	O	1.870463	0.237338	0.456332
O28	O	1.055146	-0.204079	-0.332448
O29	O	1.388480	0.129255	0.000885
O30	O	1.721813	0.462588	0.334219
O31	O	0.994125	-0.332258	-0.117385
O32	O	1.327458	0.001075	0.215949
O33	O	1.660791	0.334408	0.549282
O34	O	0.884414	-0.332218	-0.227105
O35	O	1.217747	0.001116	0.106228
O36	O	1.551080	0.334449	0.439561
O37	O	1.010958	-0.429257	-0.403190
O38	O	1.344292	-0.095924	-0.069856
O39	O	1.677625	0.237410	0.263477
O40	O	0.901211	-0.429278	-0.293444
O41	O	1.234544	-0.095945	0.039889
O42	O	1.567878	0.237388	0.373222
O43	O	1.077315	-0.332180	-0.420003
O44	O	1.410649	0.001153	-0.086670
O45	O	1.743982	0.334486	0.246664
O46	O	1.116217	-0.557452	-0.188145
O47	O	1.449551	-0.224118	0.145189
O48	O	1.782884	0.109215	0.478522
O49	O	1.033091	-0.557421	-0.271278
O50	O	1.366424	-0.224087	0.062055
O51	O	1.699758	0.109246	0.395388
C52	C	0.868253	-0.380746	-0.260272
C53	C	1.201586	-0.047413	0.073061
C54	C	1.534920	0.285920	0.406394
C55	C	0.793023	-0.380759	-0.260277
C56	C	1.126357	-0.047426	0.073056
C57	C	1.459690	0.285908	0.406390
C58	C	0.766456	-0.431374	-0.294736
C59	C	1.099790	-0.098041	0.038597
C60	C	1.433123	0.235292	0.371930
C61	C	0.695768	-0.431376	-0.294746
C62	C	1.029101	-0.098042	0.038588
C63	C	1.362435	0.235291	0.371921
C64	C	0.651649	-0.380765	-0.260291
C65	C	0.984982	-0.047432	0.073042
C66	C	1.318315	0.285902	0.406376
C67	C	0.678220	-0.330144	-0.225831
C68	C	1.011553	0.003189	0.107503
C69	C	1.344886	0.336523	0.440836
C70	C	0.748906	-0.330139	-0.225826
C71	C	1.082239	0.003194	0.107508
C72	C	1.415573	0.336528	0.440841
C73	C	0.393149	-0.330161	-0.225850
C74	C	0.726483	0.003172	0.107483
C75	C	1.059816	0.336505	0.440817
C76	C	0.322459	-0.330172	-0.225856
C77	C	0.655792	0.003162	0.107478
C78	C	0.989126	0.336495	0.440811
C79	C	0.340012	-0.431398	-0.294770
C80	C	0.673345	-0.098065	0.038563
C81	C	1.006678	0.235269	0.371897
C82	C	0.410698	-0.431393	-0.294765
C83	C	0.744031	-0.098060	0.038568
C84	C	1.077365	0.235273	0.371902
C85	C	0.437262	-0.380770	-0.260308
C86	C	0.770596	-0.047436	0.073025
C87	C	1.103929	0.285897	0.406359
C88	C	0.513910	-0.380768	-0.260299
C89	C	0.847244	-0.047434	0.073034
C90	C	1.180577	0.285899	0.406367
C91	C	0.575003	-0.380770	-0.260295
C92	C	0.908336	-0.047437	0.073038
C93	C	1.241669	0.285896	0.406372
C94	C	1.079630	-0.586114	-0.224762
C95	C	1.412964	-0.252781	0.108571
C96	C	1.746297	0.080552	0.441904
C97	C	1.094887	-0.673965	-0.209586
C98	C	1.428221	-0.340632	0.123748
C99	C	1.761554	-0.007299	0.457081
C100	C	0.928484	-0.962953	-0.375835
C101	C	1.261817	-0.629620	-0.042502
C102	C	1.595151	-0.296286	0.290831
C103	C	0.942822	-1.045502	-0.361553
C104	C	1.276155	-0.712169	-0.028219
C105	C	1.609488	-0.378836	0.305114
C106	C	1.029435	-1.045469	-0.275073
C107	C	1.362768	-0.712136	0.058260
C108	C	1.696101	-0.378802	0.391594
C109	C	1.015107	-0.962918	-0.289351
C110	C	1.348440	-0.629585	0.043983
C111	C	1.681774	-0.296251	0.377316
C112	C	0.964630	-0.921667	-0.339732
C113	C	1.297964	-0.588333	-0.006399
C114	C	1.631297	-0.255000	0.326935
C115	C	1.051253	-0.921632	-0.253247
C116	C	1.384586	-0.588298	0.080086
C117	C	1.717920	-0.254965	0.413419
C118	C	1.036924	-0.839088	-0.267522
C119	C	1.370257	-0.505754	0.065812
C120	C	1.703590	-0.172421	0.399145
C121	C	0.986448	-0.797831	-0.317899
C122	C	1.319781	-0.464497	0.015434
C123	C	1.653114	-0.131164	0.348768
C124	C	0.950301	-0.839123	-0.354006
C125	C	1.283634	-0.505789	-0.020673
C126	C	1.616967	-0.172456	0.312660
C127	C	1.101726	-0.962885	-0.202863
C128	C	1.435059	-0.629551	0.130470
C129	C	1.768393	-0.296218	0.463804
C130	C	1.137872	-0.921598	-0.166760
C131	C	1.471206	-0.588265	0.166574
C132	C	1.804539	-0.254931	0.499907
C133	C	1.123546	-0.839053	-0.181037
C134	C	1.456880	-0.505720	0.152296
C135	C	1.790213	-0.172386	0.485630
C136	C	1.073071	-0.797796	-0.231415
C137	C	1.406404	-0.464462	0.101919
C138	C	1.739737	-0.131129	0.435252
C139	C	1.159693	-0.797761	-0.144930
C140	C	1.493027	-0.464427	0.188403
C141	C	1.826360	-0.131094	0.521737
C142	C	1.145364	-0.715217	-0.159204
C143	C	1.478697	-0.381884	0.174129
C144	C	1.812031	-0.048550	0.507462
C145	C	1.058741	-0.715252	-0.245689
C146	C	1.392074	-0.381918	0.087645
C147	C	1.725408	-0.048585	0.420978
C148	C	1.220657	-0.380777	-0.260311
C149	C	1.553990	-0.047444	0.073022
C150	C	1.887324	0.285890	0.406355
C151	C	1.295890	-0.380784	-0.260320
C152	C	1.629224	-0.047451	0.073014
C153	C	1.962557	0.285883	0.406347
C154	C	1.044141	-0.380712	-0.436843
C155	C	1.377474	-0.047378	-0.103510
C156	C	1.710808	0.285955	0.229824
C157	C	1.044154	-0.380690	-0.512079
C158	C	1.377487	-0.047357	-0.178745
C159	C	1.710820	0.285976	0.154588
C160	C	1.008473	-0.174606	-0.295974
C161	C	1.341806	0.158727	0.037359
C162	C	1.675139	0.492060	0.370692
C163	C	0.993286	-0.086756	-0.311180
C164	C	1.326619	0.246578	0.022153
C165	C	1.659952	0.579911	0.355486
C166	C	1.078706	-0.330140	-0.556179
C167	C	1.412039	0.003193	-0.222846
C168	C	1.745373	0.336527	0.110488
C169	C	1.078709	-0.330117	-0.626872
C170	C	1.412042	0.003216	-0.293538
C171	C	1.745376	0.336550	0.039795
C172	C	1.044163	-0.380649	-0.653462
C173	C	1.377497	-0.047316	-0.320128
C174	C	1.710830	0.286018	0.013205
C175	C	1.009606	-0.431202	-0.609356
C176	C	1.342940	-0.097868	-0.276023
C177	C	1.676273	0.235465	0.057311
C178	C	1.009600	-0.431220	-0.538666
C179	C	1.342933	-0.097887	-0.205332
C180	C	1.676266	0.235447	0.128001
C181	C	1.009632	-0.431128	-0.894442
C182	C	1.342965	-0.097795	-0.561109
C183	C	1.676298	0.235539	-0.227775
C184	C	1.009643	-0.431107	-0.965138
C185	C	1.342976	-0.097774	-0.631804
C186	C	1.676309	0.235559	-0.298471
C187	C	1.078741	-0.330025	-0.982648
C188	C	1.412075	0.003308	-0.649315
C189	C	1.745408	0.336642	-0.315981
C190	C	1.078735	-0.330043	-0.911958
C191	C	1.412068	0.003290	-0.578624
C192	C	1.745401	0.336623	-0.245291
C193	C	1.044175	-0.380593	-0.867859
C194	C	1.377508	-0.047259	-0.534525
C195	C	1.710841	0.286074	-0.201192
C196	C	1.044171	-0.380616	-0.791206
C197	C	1.377504	-0.047283	-0.457873
C198	C	1.710838	0.286051	-0.124540
C199	C	1.044171	-0.380631	-0.730112
C200	C	1.377504	-0.047297	-0.396779
C201	C	1.710837	0.286036	-0.063445
C202	C	1.044112	-0.380754	-0.084437
C203	C	1.377445	-0.047421	0.248896
C204	C	1.710778	0.285913	0.582230
C205	C	1.044192	-0.380553	-0.009240
C206	C	1.377525	-0.047219	0.324093
C207	C	1.710858	0.286114	0.657426
H208	H	0.446618	-0.472609	-0.322819
H209	H	0.779951	-0.139275	0.010514
H210	H	1.113284	0.194058	0.343848
H211	H	1.070531	-1.079067	-0.234051
H212	H	1.403864	-0.745734	0.099283
H213	H	1.737198	-0.412401	0.432616
C214	C	1.116721	-0.274516	-0.675379
C215	C	1.450054	0.058818	-0.342045
C216	C	1.783388	0.392151	-0.008712
H217	H	1.137302	-0.244431	-0.649417
H218	H	1.470635	0.088902	-0.316083
H219	H	1.803968	0.422235	0.017250
H220	H	1.084881	-0.240065	-0.708912
H221	H	1.418215	0.093269	-0.375578
H222	H	1.751548	0.426602	-0.042245
H223	H	1.151443	-0.304753	-0.697725
H224	H	1.484777	0.028580	-0.364392
H225	H	1.818110	0.361913	-0.031058
H226	H	1.017643	-0.681663	-0.286719
H227	H	1.350976	-0.348330	0.046614
H228	H	1.684310	-0.014997	0.379947
C229	C	0.970681	-0.707034	-0.333605
C230	C	1.304015	-0.373701	-0.000272
C231	C	1.637348	-0.040367	0.333062
H232	H	0.935440	-0.688381	-0.368777
H233	H	1.268773	-0.355048	-0.035443
H234	H	1.602106	-0.021714	0.297890
H235	H	1.011101	-0.688313	-0.348588
H236	H	1.344435	-0.354980	-0.015255
H237	H	1.677768	-0.021646	0.318078
H238	H	0.955762	-0.688393	-0.293137
H239	H	1.289095	-0.355060	0.040196
H240	H	1.622429	-0.021726	0.373530
H241	H	0.981455	-0.472375	-0.502760
H242	H	1.314788	-0.139042	-0.169427
H243	H	1.648122	0.194291	0.163906
H244	H	1.106840	-0.288993	-0.534535
H245	H	1.440173	0.044340	-0.201202
H246	H	1.773507	0.377673	0.132131
H247	H	0.909202	-0.805534	-0.395037
H248	H	1.242536	-0.472201	-0.061703
H249	H	1.575869	-0.138868	0.271630
H250	H	1.106868	-0.288898	-0.890312
H251	H	1.440201	0.044436	-0.556979
H252	H	1.773535	0.377769	-0.223645
H253	H	1.174797	-0.681601	-0.129804
H254	H	1.508131	-0.348268	0.203529
H255	H	1.841464	-0.014934	0.536862
H256	H	1.106879	-0.288863	-1.018563
H257	H	1.440212	0.044471	-0.685230
H258	H	1.773545	0.377804	-0.351896
C259	C	0.971641	-0.486693	-0.994389
C260	C	1.304974	-0.153359	-0.661056
C261	C	1.638307	0.179974	-0.327722
H262	H	0.976603	-0.479447	-1.042804
H263	H	1.309936	-0.146114	-0.709471
H264	H	1.643270	0.187220	-0.376138
H265	H	0.924161	-0.475124	-0.984803
H266	H	1.257494	-0.141791	-0.651470
H267	H	1.590828	0.191543	-0.318137
H268	H	0.990728	-0.539805	-0.973611
H269	H	1.324062	-0.206472	-0.640278
H270	H	1.657395	0.126861	-0.306945
H271	H	0.981503	-0.472300	-0.858543
H272	H	1.314836	-0.138967	-0.525209
H273	H	1.648170	0.194367	-0.191876
C274	C	0.310788	-0.487076	-0.332681
C275	C	0.644121	-0.153743	0.000652
C276	C	0.977454	0.179591	0.333986
H277	H	0.262370	-0.479827	-0.327758
H278	H	0.595703	-0.146494	0.005575
H279	H	0.929037	0.186840	0.338909
H280	H	0.331551	-0.540165	-0.313514
H281	H	0.664884	-0.206832	0.019819
H282	H	0.998218	0.126502	0.353152
H283	H	0.320405	-0.475573	-0.380165
H284	H	0.653738	-0.142240	-0.046832
H285	H	0.987072	0.191094	0.286501
H286	H	0.674141	-0.472593	-0.322805
H287	H	1.007475	-0.139260	0.010528
H288	H	1.340808	0.194074	0.343861
C289	C	0.814981	-0.487046	-0.332638
C290	C	1.148315	-0.153713	0.000695
C291	C	1.481648	0.179621	0.334028
H292	H	0.789031	-0.517185	-0.353168
H293	H	1.122365	-0.183852	-0.019835
H294	H	1.455698	0.149482	0.313499
H295	H	0.848497	-0.521444	-0.300748
H296	H	1.181830	-0.188110	0.032585
H297	H	1.515164	0.145223	0.365919
H298	H	0.837343	-0.456848	-0.367397
H299	H	1.170677	-0.123515	-0.034063
H300	H	1.504010	0.209818	0.299270
C301	C	0.273927	-0.274491	-0.187960
C302	C	0.607261	0.058842	0.145373
C303	C	0.940594	0.392176	0.478706
H304	H	0.299870	-0.244334	-0.167444
H305	H	0.633204	0.088999	0.165889
H306	H	0.966537	0.422332	0.499223
H307	H	0.251562	-0.304679	-0.153204
H308	H	0.584895	0.028655	0.180129
H309	H	0.918228	0.361988	0.513463
H310	H	0.240414	-0.240098	-0.219863
H311	H	0.573747	0.093235	0.113470
H312	H	0.907081	0.426569	0.446804
H313	H	1.113393	-1.030097	-0.191244
H314	H	1.446726	-0.696764	0.142089
H315	H	1.780060	-0.363430	0.475422
H316	H	0.414770	-0.288946	-0.197787
H317	H	0.748103	0.044387	0.135547
H318	H	1.081437	0.377720	0.468880
H319	H	0.981475	-0.472343	-0.631011
H320	H	1.314809	-0.139010	-0.297678
H321	H	1.648142	0.194324	0.035655
C322	C	0.629691	-0.274476	-0.187929
C323	C	0.963024	0.058858	0.145405
C324	C	1.296358	0.392191	0.478738
H325	H	0.583788	-0.281733	-0.192859
H326	H	0.917122	0.051600	0.140474
H327	H	1.250455	0.384933	0.473807
H328	H	0.632093	-0.221384	-0.207090
H329	H	0.965426	0.111950	0.126243
H330	H	1.298760	0.445283	0.459576
H331	H	0.643249	-0.285980	-0.140442
H332	H	0.976583	0.047353	0.192891
H333	H	1.309916	0.380686	0.526224
H334	H	1.200787	-0.831360	-0.103905
H335	H	1.534120	-0.498027	0.229428
H336	H	1.867453	-0.164693	0.562762
H337	H	0.770534	-0.288918	-0.197770
H338	H	1.103868	0.044415	0.135564
H339	H	1.437201	0.377748	0.468897
H340	H	0.887386	-0.929364	-0.416866
H341	H	1.220719	-0.596031	-0.083533
H342	H	1.554052	-0.262698	0.249801
H343	H	0.913391	-1.079115	-0.390964
H344	H	1.246725	-0.745781	-0.057631
H345	H	1.580058	-0.412448	0.275702
H346	H	1.178968	-0.955196	-0.125737
H347	H	1.512302	-0.621863	0.207596
H348	H	1.845635	-0.288530	0.540929
