data_functionalizedCrystal
_audit_creation_method	'MofGen! by Chris Wilmer'
_symmetry_space_group_name_H-M	'P1'
_symmetry_Int_Tables_number	1
_symmetry_cell_setting	triclinic
loop_
_symmetry_equiv_pos_as_xyz
  x,y,z
_cell_length_a	17.077404
_cell_length_b	17.637651
_cell_length_c	17.077396
_cell_angle_alpha	101.244719
_cell_angle_beta	90.019501
_cell_angle_gamma	101.218991
loop_
_atom_site_label
_atom_site_type_symbol
_atom_site_fract_x
_atom_site_fract_y
_atom_site_fract_z
Zn1	Zn	1.136911	-0.314758	0.380585
Zn2	Zn	1.110293	-0.446980	0.222746
Zn3	Zn	1.005637	-0.314786	0.249327
Zn4	Zn	0.979095	-0.446933	0.353979
O5	O	1.057984	-0.380865	0.301659
O6	O	1.243225	-0.332306	0.359658
O7	O	1.096378	-0.429476	0.116419
O8	O	1.045299	-0.204143	0.288998
O9	O	1.223669	-0.429449	0.243694
O10	O	1.141745	-0.204122	0.385433
O11	O	1.019488	-0.332353	0.135948
O12	O	0.892271	-0.332308	0.263199
O13	O	1.000061	-0.429369	0.467362
O14	O	0.872771	-0.429396	0.340087
O15	O	1.116008	-0.332260	0.486909
O16	O	1.070641	-0.557614	0.217895
O17	O	0.974251	-0.557579	0.314312
C18	C	0.854039	-0.380850	0.301641
C19	C	0.766787	-0.380863	0.301647
C20	C	0.715648	-0.431493	0.341587
C21	C	0.633667	-0.431495	0.341599
C22	C	0.602826	-0.380870	0.301667
C23	C	0.653971	-0.330234	0.261726
C24	C	0.735951	-0.330229	0.261719
C25	C	0.483098	-0.330250	0.261742
C26	C	0.401113	-0.330256	0.261748
C27	C	0.380814	-0.431516	0.341622
C28	C	0.462794	-0.431511	0.341615
C29	C	0.513934	-0.380876	0.301673
C30	C	1.016699	-0.586284	0.260349
C31	C	0.999109	-0.674163	0.242703
C32	C	1.192124	-0.962840	0.435965
C33	C	1.175571	-1.045416	0.419370
C34	C	1.075208	-1.045545	0.318856
C35	C	1.091756	-0.962967	0.335440
C36	C	1.150214	-0.921621	0.393996
C37	C	1.049846	-0.921748	0.293470
C38	C	1.066390	-0.839177	0.310056
C39	C	1.124843	-0.797826	0.368611
C40	C	1.166758	-0.839051	0.410582
C41	C	0.991384	-0.963095	0.234919
C42	C	0.949474	-0.921876	0.192949
C43	C	0.966021	-0.839304	0.209531
C44	C	1.024475	-0.797953	0.268086
C45	C	0.924107	-0.798080	0.167561
C46	C	0.940651	-0.715509	0.184147
C47	C	1.041019	-0.715382	0.284672
C48	C	1.262725	-0.380880	0.301679
C49	C	1.349974	-0.380886	0.301687
C50	C	1.058043	-0.380806	0.506416
C51	C	1.058068	-0.380782	0.593670
C52	C	1.099452	-0.174643	0.343148
C53	C	1.117123	-0.086764	0.360828
C54	C	1.057982	-0.380866	0.097711
C55	C	1.058153	-0.380668	0.010502
C56	C	1.118444	-0.330213	0.644841
C57	C	1.118459	-0.330187	0.726827
C58	C	1.058100	-0.380733	0.757640
C59	C	0.997718	-0.431304	0.706463
C60	C	0.997701	-0.431326	0.624479
C61	C	0.997759	-0.431257	0.877343
C62	C	0.997777	-0.431236	0.959331
C63	C	1.118518	-0.330117	0.979690
C64	C	1.118500	-0.330139	0.897706
C65	C	1.058119	-0.380711	0.846535
H66	H	0.777589	-0.288997	0.229202
H67	H	1.167681	-0.288938	1.021358
C68	C	1.143043	-0.706995	0.386855
N69	N	1.156752	-0.638581	0.400595
C70	C	1.231064	-0.793566	0.474998
N71	N	1.279495	-0.759306	0.523517
H72	H	0.948581	-0.472426	0.835683
C73	C	0.931317	-0.486899	0.740361
N74	N	0.881301	-0.528774	0.765893
H75	H	0.948530	-0.472496	0.582818
C76	C	0.496716	-0.487205	0.385537
N77	N	0.522267	-0.529154	0.418622
C78	C	1.184879	-0.274558	0.783111
N79	N	1.234909	-0.232657	0.825505
C80	C	0.324559	-0.487211	0.385563
N81	N	0.282185	-0.529160	0.418656
C82	C	0.367190	-0.274563	0.217824
N83	N	0.341640	-0.232614	0.184740
C84	C	1.256430	-0.917355	0.500381
N85	N	1.304861	-0.883096	0.548900
C86	C	0.749565	-0.487186	0.385516
N87	N	0.775109	-0.529133	0.418608
C88	C	1.221680	-1.090754	0.465544
N89	N	1.256407	-1.124902	0.500324
C90	C	0.931375	-0.486835	0.993224
N91	N	0.881360	-0.528713	1.018753
C92	C	1.010955	-1.091034	0.254396
N93	N	0.962578	-1.125296	0.205825
H94	H	0.524736	-0.289011	0.229226
H95	H	0.592032	-0.472724	0.374121
C96	C	0.885221	-0.967366	0.128490
N97	N	0.836844	-1.001628	0.079919
C98	C	0.620044	-0.274544	0.217803
N99	N	0.594490	-0.232599	0.184716
H100	H	0.977908	-1.030329	0.221424
C101	C	0.859845	-0.843571	0.103111
N102	N	0.811458	-0.877835	0.054550
H103	H	0.906522	-0.681948	0.149971
H104	H	1.088628	-0.681717	0.332349
H105	H	1.167598	-0.289054	0.619760
H106	H	1.167653	-0.288984	0.872621
