data_functionalizedCrystal
_audit_creation_method	'MofGen! by Chris Wilmer'
_symmetry_space_group_name_H-M	'P1'
_symmetry_Int_Tables_number	1
_symmetry_cell_setting	triclinic
loop_
_symmetry_equiv_pos_as_xyz
  x,y,z
_cell_length_a	19.805407
_cell_length_b	12.645330
_cell_length_c	19.805399
_cell_angle_alpha	89.979178
_cell_angle_beta	90.019573
_cell_angle_gamma	89.973813
loop_
_atom_site_label
_atom_site_type_symbol
_atom_site_fract_x
_atom_site_fract_y
_atom_site_fract_z
Zn1	Zn	1.034737	0.422064	0.382751
Zn2	Zn	1.534737	0.922064	0.882751
Zn3	Zn	1.034652	0.599342	0.269577
Zn4	Zn	1.534652	1.099342	0.769577
Zn5	Zn	0.921551	0.422093	0.269576
Zn6	Zn	1.421551	0.922093	0.769576
Zn7	Zn	0.921515	0.599286	0.382723
Zn8	Zn	1.421515	1.099286	0.882723
O9	O	0.978114	0.510696	0.326157
O10	O	1.478114	1.010696	0.826157
O11	O	1.129442	0.445592	0.367751
O12	O	1.629442	0.945592	0.867751
O13	O	1.019629	0.575866	0.174860
O14	O	1.519629	1.075866	0.674860
O15	O	0.936616	0.273742	0.284601
O16	O	1.436616	0.773742	0.784601
O17	O	1.129380	0.575837	0.284601
O18	O	1.629380	1.075837	0.784601
O19	O	1.019773	0.273721	0.367750
O20	O	1.519773	0.773721	0.867750
O21	O	0.936534	0.445641	0.174859
O22	O	1.436534	0.945641	0.674859
O23	O	0.826830	0.445587	0.284573
O24	O	1.326830	0.945587	0.784573
O25	O	0.936555	0.575741	0.477444
O26	O	1.436555	1.075741	0.977444
O27	O	0.826804	0.575769	0.367702
O28	O	1.326804	1.075769	0.867702
O29	O	1.019738	0.445537	0.477464
O30	O	1.519738	0.945537	0.977464
O31	O	1.019594	0.747682	0.284574
O32	O	1.519594	1.247682	0.784574
O33	O	0.936473	0.747641	0.367703
O34	O	1.436473	1.247641	0.867703
C35	C	0.802258	0.510676	0.326135
C36	C	1.302258	1.010676	0.826135
C37	C	0.727026	0.510693	0.326142
C38	C	1.227026	1.010693	0.826142
C39	C	0.691686	0.578581	0.369357
C40	C	1.191686	1.078581	0.869357
C41	C	0.620997	0.578583	0.369366
C42	C	1.120997	1.078583	0.869366
C43	C	0.585650	0.510701	0.326157
C44	C	1.085650	1.010701	0.826157
C45	C	0.620995	0.442805	0.282940
C46	C	1.120995	0.942805	0.782940
C47	C	0.691683	0.442799	0.282934
C48	C	1.191683	0.942799	0.782934
C49	C	0.335922	0.442829	0.282962
C50	C	0.835922	0.942829	0.782962
C51	C	0.265230	0.442843	0.282970
C52	C	0.765230	0.942843	0.782970
C53	C	0.265237	0.578613	0.369394
C54	C	0.765237	1.078613	0.869394
C55	C	0.335924	0.578606	0.369389
C56	C	0.835924	1.078606	0.869389
C57	C	0.371263	0.510707	0.326174
C58	C	0.871263	1.010707	0.826174
C59	C	0.447911	0.510705	0.326166
C60	C	0.947911	1.010705	0.826166
C61	C	0.509003	0.510708	0.326162
C62	C	1.009003	1.010708	0.826162
C63	C	0.978038	0.786126	0.326150
C64	C	1.478038	1.286126	0.826150
C65	C	0.978068	0.903956	0.326170
C66	C	1.478068	1.403956	0.826170
C67	C	0.925976	1.071538	0.378629
C68	C	1.425976	1.571538	0.878629
C69	C	0.925722	0.948979	0.378459
C70	C	1.425722	1.448979	0.878459
C71	C	0.958758	0.948544	0.254838
C72	C	1.458758	1.448544	0.754838
C73	C	0.958428	1.071142	0.255158
C74	C	1.458428	1.571142	0.755158
C75	C	1.049753	1.071047	0.344468
C76	C	1.549753	1.571047	0.844468
C77	C	1.049325	0.948440	0.346027
C78	C	1.549325	1.448440	0.846027
C79	C	1.154657	0.510717	0.326179
C80	C	1.654657	1.010717	0.826179
C81	C	1.229889	0.510726	0.326189
C82	C	1.729889	1.010726	0.826189
C83	C	0.978152	0.510630	0.502700
C84	C	1.478152	1.010630	1.002700
C85	C	0.978168	0.510601	0.577932
C86	C	1.478168	1.010601	1.077932
C87	C	0.978184	1.234191	0.326181
C88	C	1.478184	1.734191	0.826181
C89	C	0.978154	1.116361	0.326198
C90	C	1.478154	1.616361	0.826198
C91	C	0.978115	0.510686	0.150301
C92	C	1.478115	1.010686	0.650301
C93	C	0.978230	0.510416	0.075069
C94	C	1.478230	1.010416	0.575069
C95	C	1.021483	0.442800	0.613288
C96	C	1.521483	0.942800	1.113288
C97	C	1.021489	0.442770	0.683976
C98	C	1.521489	0.942770	1.183976
C99	C	0.978185	0.510546	0.719307
C100	C	1.478185	1.010546	1.219307
C101	C	0.934866	0.578349	0.683946
C102	C	1.434866	1.078349	1.183946
C103	C	0.934856	0.578374	0.613259
C104	C	1.434856	1.078374	1.113259
C105	C	0.934904	0.578251	0.969020
C106	C	1.434904	1.078251	1.469020
C107	C	0.934918	0.578223	1.039712
C108	C	1.434918	1.078223	1.539712
C109	C	1.021538	0.442646	1.039737
C110	C	1.521538	0.942646	1.539737
C111	C	1.021528	0.442671	0.969050
C112	C	1.521528	0.942671	1.469050
C113	C	0.978206	0.510470	0.933695
C114	C	1.478206	1.010470	1.433695
C115	C	0.978198	0.510501	0.857046
C116	C	1.478198	1.010501	1.357046
C117	C	0.978196	0.510521	0.795954
C118	C	1.478196	1.010521	1.295954
H119	H	0.592226	0.633865	0.404556
H120	H	1.092226	1.133865	0.904556
C121	C	1.007533	1.111214	0.200584
C122	C	1.507533	1.611214	0.700584
H123	H	1.007668	1.186342	0.200413
H124	H	1.507668	1.686342	0.700413
H125	H	0.993502	1.086025	0.157635
H126	H	1.493502	1.586025	0.657635
H127	H	1.051729	1.086004	0.210046
H128	H	1.551729	1.586004	0.710046
C129	C	1.069160	0.368118	0.930186
C130	C	1.569160	0.868118	1.430186
H131	H	1.062954	0.377849	0.883023
H132	H	1.562954	0.877849	1.383023
H133	H	1.059280	0.296886	0.941775
H134	H	1.559280	0.796886	1.441775
H135	H	1.114637	0.383639	0.941777
H136	H	1.614637	0.883639	1.441777
C137	C	0.854027	0.909476	0.362097
C138	C	1.354027	1.409476	0.862097
H139	H	0.824945	0.968356	0.355522
H140	H	1.324945	1.468356	0.855522
H141	H	0.837765	0.867753	0.398515
H142	H	1.337765	1.367753	0.898515
H143	H	0.855137	0.867960	0.322145
H144	H	1.355137	1.367960	0.822145
C145	C	0.226362	0.653291	0.416937
C146	C	0.726362	1.153291	0.916937
H147	H	0.179201	0.643568	0.410760
H148	H	0.679201	1.143568	0.910760
H149	H	0.237924	0.724496	0.406954
H150	H	0.737924	1.224496	0.906954
H151	H	0.237973	0.637862	0.462431
H152	H	0.737973	1.137862	0.962431
C153	C	0.730564	0.653257	0.416882
C154	C	1.230564	1.153257	0.916882
H155	H	0.777725	0.643541	0.410685
H156	H	1.277725	1.143541	0.910685
H157	H	0.719005	0.637844	0.462378
H158	H	1.219005	1.137844	0.962378
H159	H	0.718954	0.724466	0.406893
H160	H	1.218954	1.224466	0.906893
H161	H	0.720456	0.387512	0.247748
H162	H	1.220456	0.887512	0.747748
H163	H	0.899604	0.633530	0.712719
H164	H	1.399604	1.133530	1.212719
H165	H	0.873228	1.102438	0.366679
H166	H	1.373228	1.602438	0.866679
C167	C	0.887723	1.109906	0.234256
C168	C	1.387723	1.609906	0.734256
H169	H	0.859470	1.050727	0.225653
H170	H	1.359470	1.550727	0.725653
H171	H	0.891189	1.151778	0.194578
H172	H	1.391189	1.651778	0.694578
H173	H	0.868883	1.151113	0.269653
H174	H	1.368883	1.651113	0.769653
H175	H	0.364687	0.387549	0.247769
H176	H	0.864687	0.887549	0.747769
H177	H	0.236453	0.387559	0.247783
H178	H	0.736453	0.887559	0.747783
H179	H	1.056762	0.387562	0.712760
H180	H	1.556762	0.887562	1.212760
H181	H	0.899639	0.633472	0.940242
H182	H	1.399639	1.133472	1.440242
H183	H	0.995562	0.919382	0.214704
H184	H	1.495562	1.419382	0.714704
H185	H	0.592210	0.387530	0.247761
H186	H	1.092210	0.887530	0.747761
C187	C	1.069186	0.368060	1.078629
C188	C	1.569186	0.868060	1.578629
H189	H	1.062988	0.377741	1.125788
H190	H	1.562988	0.877741	1.625788
H191	H	1.114656	0.383588	1.067052
H192	H	1.614656	0.883588	1.567052
H193	H	1.059302	0.296831	1.067046
H194	H	1.559302	0.796831	1.567046
H195	H	0.899578	0.633574	0.584473
H196	H	1.399578	1.133574	1.084473
H197	H	0.899652	0.633416	1.068477
H198	H	1.399652	1.133416	1.568477
C199	C	1.069007	0.909054	0.416938
C200	C	1.569007	1.409054	0.916938
H201	H	1.033951	0.865676	0.434375
H202	H	1.533951	1.365676	0.934375
H203	H	1.075612	0.967935	0.445967
H204	H	1.575612	1.467935	0.945967
H205	H	1.109597	0.869226	0.414217
H206	H	1.609597	1.369226	0.914217
C207	C	0.374802	0.653272	0.416921
C208	C	0.874802	1.153272	0.916921
H209	H	0.343630	0.693698	0.442665
H210	H	0.843630	1.193698	0.942665
H211	H	0.402357	0.699406	0.390981
H212	H	0.902357	1.199406	0.890981
H213	H	0.402397	0.612766	0.446455
H214	H	0.902397	1.112766	0.946455
C215	C	0.888793	0.907209	0.233552
C216	C	1.388793	1.407209	0.733552
H217	H	0.871257	0.862792	0.268035
H218	H	1.371257	1.362792	0.768035
H219	H	0.892839	0.868080	0.192819
H220	H	1.392839	1.368080	0.692819
H221	H	0.859112	0.965266	0.226685
H222	H	1.359112	1.465266	0.726685
H223	H	1.056748	0.387612	0.584526
H224	H	1.556748	0.887612	1.084526
C225	C	1.073541	1.112711	0.413543
C226	C	1.573541	1.612711	0.913543
H227	H	1.040024	1.158135	0.431888
H228	H	1.540024	1.658135	0.931888
H229	H	1.114492	1.150837	0.408066
H230	H	1.614492	1.650837	0.908066
H231	H	1.080767	1.054857	0.443298
H232	H	1.580767	1.554857	0.943298
H233	H	0.937803	0.918829	0.431351
H234	H	1.437803	1.418829	0.931351
H235	H	1.090253	0.917787	0.310619
H236	H	1.590253	1.417787	0.810619
C237	C	0.942131	1.111275	0.450319
C238	C	1.442131	1.611275	0.950319
H239	H	0.910067	1.083329	0.481202
H240	H	1.410067	1.583329	0.981202
H241	H	0.940161	1.186322	0.451124
H242	H	1.440161	1.686322	0.951124
H243	H	0.986133	1.088671	0.462867
H244	H	1.486133	1.588671	0.962867
C245	C	1.102254	1.110096	0.292836
C246	C	1.602254	1.610096	0.792836
H247	H	1.080683	1.153816	0.260306
H248	H	1.580683	1.653816	0.760306
H249	H	1.122202	1.051073	0.270878
H250	H	1.622202	1.551073	0.770878
H251	H	1.136254	1.149484	0.315457
H252	H	1.636254	1.649484	0.815457
