data_functionalizedCrystal
_audit_creation_method	'MofGen! by Chris Wilmer'
_symmetry_space_group_name_H-M	'P1'
_symmetry_Int_Tables_number	1
_symmetry_cell_setting	triclinic
loop_
_symmetry_equiv_pos_as_xyz
  x,y,z
_cell_length_a	13.339070
_cell_length_b	19.288865
_cell_length_c	12.376593
_cell_angle_alpha	77.286575
_cell_angle_beta	80.995146
_cell_angle_gamma	99.382771
loop_
_atom_site_label
_atom_site_type_symbol
_atom_site_fract_x
_atom_site_fract_y
_atom_site_fract_z
O1	O	-1.357945	-0.363132	0.094101
O2	O	-1.063623	-0.317464	0.094087
O3	O	-1.219284	-0.240821	0.094072
O4	O	-1.202284	-0.439775	0.094116
O5	O	-1.184810	-0.210401	-0.093944
O6	O	-1.029149	-0.287044	-0.093929
O7	O	-1.323470	-0.332711	-0.093916
Zn8	Zn	-1.170836	-0.305047	-0.123774
Zn9	Zn	-1.216258	-0.345128	0.123946
O10	O	-1.167809	-0.409354	-0.093900
C11	C	-1.008732	-0.294540	0.000077
C12	C	-0.896533	-0.271546	0.000071
C13	C	-1.201499	-0.199627	0.000061
C14	C	-1.199855	-0.122202	0.000050
C15	C	-1.378362	-0.355636	0.000097
C16	C	-1.490562	-0.378631	0.000111
C17	C	-0.530936	-0.450335	0.000128
C18	C	-0.636352	-0.471942	0.000138
C19	C	-0.701403	-0.421845	0.000121
C20	C	-0.661027	-0.350137	0.000095
C21	C	-0.555602	-0.328530	0.000094
C22	C	-0.726069	-0.300040	0.000087
C23	C	-0.685693	-0.228332	0.000061
C24	C	-0.580278	-0.206728	0.000060
C25	C	-0.515228	-0.256826	0.000077
C26	C	-0.831493	-0.321647	0.000087
C27	C	-0.856159	-0.199842	0.000053
C28	C	-0.750743	-0.178235	0.000044
C29	C	-1.185595	-0.450548	0.000114
C30	C	-1.187241	-0.527975	0.000131
N31	N	-1.139844	-0.277694	-0.292836
C32	C	-1.291191	-0.095304	0.000049
C33	C	-1.289651	-0.022559	0.000067
C34	C	-1.196765	0.023289	0.000063
C35	C	-1.105418	-0.003617	0.000071
C36	C	-1.106963	-0.076363	0.000065
C37	C	-1.111670	0.156462	-0.065798
C38	C	-1.110128	0.229207	-0.065799
C39	C	-1.191997	0.247661	0.000088
C40	C	-1.275423	0.193361	0.065961
C41	C	-1.276968	0.120615	0.065955
C42	C	-1.195080	0.102171	0.000071
C43	C	-1.281670	0.353436	0.000108
C44	C	-1.280127	0.426182	0.000133
C45	C	-1.095890	0.445125	0.000126
C46	C	-1.097437	0.372378	0.000112
C47	C	-1.190329	0.326539	0.000098
C48	C	-1.319207	-0.435985	-0.647798
C49	C	-1.340888	-0.455135	-0.529456
C50	C	-1.290630	-0.410776	-0.470295
C51	C	-1.218684	-0.347264	-0.529489
C52	C	-1.196994	-0.328116	-0.647843
C53	C	-1.168417	-0.302907	-0.470340
C54	C	-1.096472	-0.239395	-0.529533
C55	C	-1.074786	-0.220249	-0.647876
C56	C	-1.125045	-0.264608	-0.707036
C57	C	-1.190107	-0.322056	-0.351985
C58	C	-1.067895	-0.214187	-0.352030
C59	C	-1.046213	-0.195037	-0.470372
N60	N	-1.247257	-0.372477	0.293008
H61	H	-0.787237	-0.439442	0.000131
C62	C	-1.388711	0.006780	-0.000119
C63	C	-1.375445	0.063664	-0.096835
C64	C	-1.466671	0.090712	-0.097040
H65	H	-1.444326	-0.030859	-0.000186
H66	H	-1.403968	0.024195	0.065412
H67	H	-1.360201	0.046248	-0.162350
H68	H	-1.319847	0.101317	-0.096789
H69	H	-1.481928	0.108127	-0.031508
H70	H	-1.522279	0.053068	-0.097103
H71	H	-1.457679	0.129315	-0.162654
H72	H	-0.669220	-0.530327	0.000167
H73	H	-1.344895	0.076407	0.119593
H74	H	-0.909124	-0.159049	0.000044
H75	H	-1.016196	-0.168538	-0.696068
C76	C	-1.373642	-0.484246	-0.711967
C77	C	-1.350690	-0.553446	-0.683192
C78	C	-1.400811	-0.597925	-0.742293
H79	H	-1.446430	-0.487937	-0.692615
H80	H	-1.350404	-0.463790	-0.790939
H81	H	-1.373934	-0.573897	-0.604238
H82	H	-1.277911	-0.549777	-0.702547
H83	H	-1.377573	-0.577469	-0.821264
H84	H	-1.473596	-0.601610	-0.722936
H85	H	-1.385237	-0.644880	-0.722785
C86	C	-0.968091	-0.126133	-0.534848
C87	C	-0.959781	-0.118897	-0.651152
C88	C	-0.887816	-0.055438	-0.710580
H89	H	-0.990582	-0.085350	-0.515640
H90	H	-0.902408	-0.128784	-0.515487
H91	H	-1.025450	-0.116240	-0.670505
H92	H	-0.937277	-0.159664	-0.670394
H93	H	-0.822132	-0.058089	-0.691220
H94	H	-0.910314	-0.014660	-0.691363
H95	H	-0.882161	-0.050523	-0.789498
C96	C	-0.460403	-0.504789	0.000387
C97	C	-0.496330	-0.562426	0.097144
C98	C	-0.431371	-0.612601	0.097431
H99	H	-0.460533	-0.522832	-0.065093
H100	H	-0.391836	-0.481685	0.000448
H101	H	-0.564879	-0.585527	0.097072
H102	H	-0.496196	-0.544405	0.162640
H103	H	-0.362804	-0.589497	0.097493
H104	H	-0.431505	-0.630638	0.031947
H105	H	-0.455732	-0.651710	0.163085
C106	C	-0.536616	-0.128882	0.000217
C107	C	-0.587462	-0.113039	0.096922
C108	C	-0.547281	-0.041331	0.097098
H109	H	-0.464531	-0.123098	0.000279
H110	H	-0.546972	-0.096766	-0.065322
H111	H	-0.577097	-0.145146	0.162444
H112	H	-0.659544	-0.118807	0.096881
H113	H	-0.557637	-0.009215	0.031559
H114	H	-0.475197	-0.035554	0.097156
H115	H	-0.581780	-0.030571	0.162705
H116	H	-0.429388	-0.239237	0.000069
H117	H	-0.717856	-0.119851	0.000032
H118	H	-1.366831	-0.132624	0.000041
C119	C	-1.364188	0.213408	0.137665
C120	C	-1.325841	0.247849	0.215644
C121	C	-1.407580	0.266321	0.281721
H122	H	-1.395745	0.245314	0.090317
H123	H	-1.414088	0.170663	0.176960
H124	H	-1.275959	0.290588	0.176352
H125	H	-1.294293	0.215956	0.263017
H126	H	-1.457480	0.223576	0.321016
H127	H	-1.439132	0.298225	0.234364
H128	H	-1.381575	0.289685	0.334644
H129	H	-1.023060	0.350480	0.000107
C130	C	-1.004675	0.046212	0.000242
C131	C	-1.016154	0.072883	0.096959
C132	C	-0.923374	0.118793	0.097153
H133	H	-0.950419	0.019851	0.000300
H134	H	-0.988216	0.085634	-0.065289
H135	H	-1.032599	0.033467	0.162473
H136	H	-1.070391	0.099256	0.096921
H137	H	-0.906915	0.158216	0.031622
H138	H	-0.869125	0.092427	0.097208
H139	H	-0.931152	0.136901	0.162768
C140	C	-1.007671	-0.105423	0.000001
C141	C	-0.925988	-0.049701	-0.000021
C142	C	-0.834501	-0.076442	-0.000097
H143	H	-1.016320	-0.144011	0.065543
H144	H	-0.992362	-0.122763	-0.065596
H145	H	-0.941294	-0.032371	0.065570
H146	H	-0.917306	-0.011109	-0.065558
H147	H	-0.819192	-0.093782	-0.065695
H148	H	-0.843161	-0.115030	0.065446
H149	H	-0.779067	-0.038638	-0.000123
H150	H	-0.864356	-0.380030	0.000104
H151	H	-1.357309	0.316111	0.000102
C152	C	-1.013129	-0.166067	-0.287878
C153	C	-0.905920	-0.160899	-0.316661
C154	C	-0.855437	-0.116591	-0.257571
H155	H	-1.028447	-0.119034	-0.307233
H156	H	-1.036280	-0.186560	-0.208905
H157	H	-0.882777	-0.140405	-0.395616
H158	H	-0.890572	-0.207920	-0.297303
H159	H	-0.878588	-0.137083	-0.178598
H160	H	-0.870763	-0.069561	-0.276931
H161	H	-0.782692	-0.113084	-0.277084
C162	C	-0.994947	0.494770	0.000180
C163	C	-0.915289	0.455636	0.000201
C164	C	-0.822288	0.501346	0.000271
H165	H	-0.978350	0.534174	-0.065363
H166	H	-1.002487	0.512911	0.065776
H167	H	-0.907748	0.437507	-0.065389
H168	H	-0.931851	0.416235	0.065739
H169	H	-0.829829	0.519486	0.065867
H170	H	-0.805702	0.540748	-0.065274
H171	H	-0.768231	0.474798	0.000295
H172	H	-1.354509	0.448078	0.000138
C173	C	-1.019439	0.288048	-0.137349
C174	C	-0.948051	0.256317	-0.195016
C175	C	-0.864488	0.310496	-0.260929
H176	H	-1.043925	0.321438	-0.190406
H177	H	-0.986678	0.312929	-0.089876
H178	H	-0.980807	0.231449	-0.242485
H179	H	-0.923536	0.222932	-0.141987
H180	H	-0.831727	0.335376	-0.213456
H181	H	-0.888984	0.343883	-0.313979
H182	H	-0.816037	0.288974	-0.300056
H183	H	-1.044998	0.141447	-0.119457
C184	C	-1.268124	-0.391084	-0.287872
C185	C	-1.234654	-0.450970	-0.316677
C186	C	-1.306509	-0.514572	-0.257651
H187	H	-1.273907	-0.396245	-0.208898
H188	H	-1.333791	-0.388448	-0.307286
H189	H	-1.169005	-0.453606	-0.297255
H190	H	-1.228877	-0.445833	-0.395640
H191	H	-1.372176	-0.511936	-0.277065
H192	H	-1.312287	-0.519726	-0.178680
H193	H	-1.283814	-0.555212	-0.277194
C194	C	-1.418826	-0.524156	-0.465139
C195	C	-1.369762	-0.570316	-0.397228
C196	C	-1.441524	-0.633914	-0.337977
H197	H	-1.473969	-0.512279	-0.418871
H198	H	-1.445634	-0.547873	-0.517290
H199	H	-1.342971	-0.546604	-0.345084
H200	H	-1.314625	-0.582214	-0.443468
H201	H	-1.468332	-0.657631	-0.390127
H202	H	-1.496663	-0.622029	-0.291715
H203	H	-1.408242	-0.665244	-0.291900
H204	H	-1.308287	-0.426372	-0.373935
H205	H	-1.107397	-0.249018	-0.803401
