data_functionalizedCrystal
_audit_creation_method	'MofGen! by Chris Wilmer'
_symmetry_space_group_name_H-M	'P1'
_symmetry_Int_Tables_number	1
_symmetry_cell_setting	triclinic
loop_
_symmetry_equiv_pos_as_xyz
  x,y,z
_cell_length_a	14.044202
_cell_length_b	8.559649
_cell_length_c	7.088929
_cell_angle_alpha	95.325015
_cell_angle_beta	96.800065
_cell_angle_gamma	98.514317
loop_
_atom_site_label
_atom_site_type_symbol
_atom_site_fract_x
_atom_site_fract_y
_atom_site_fract_z
O1	O	0.021003	2.100734	-0.158950
O2	O	0.521003	2.600734	0.341050
O3	O	-0.027448	1.642436	-0.158975
O4	O	0.472552	2.142436	0.341025
O5	O	0.134264	1.864704	-0.158911
O6	O	0.634264	2.364704	0.341089
O7	O	-0.140710	1.878467	-0.159014
O8	O	0.359290	2.378467	0.340986
O9	O	0.155919	1.894401	0.159073
O10	O	0.655919	2.394401	0.659073
O11	O	-0.005794	1.672134	0.159009
O12	O	0.494206	2.172134	0.659009
O13	O	0.042658	2.130432	0.159033
O14	O	0.542658	2.630432	0.659033
Cu15	Cu	0.020409	1.903995	0.188055
Cu16	Cu	0.520409	2.403995	0.688055
Cu17	Cu	-0.005200	1.868874	-0.187997
Cu18	Cu	0.494800	2.368874	0.312003
O19	O	-0.119055	1.908165	0.158969
O20	O	0.380945	2.408165	0.658969
C21	C	0.179968	1.873529	0.000090
C22	C	0.679968	2.373529	0.500090
C23	C	0.283888	1.855562	0.000116
C24	C	0.783888	2.355562	0.500116
C25	C	-0.020293	1.598279	0.000014
C26	C	0.479707	2.098279	0.500014
C27	C	-0.031222	1.422456	0.000008
C28	C	0.468778	1.922456	0.500008
C29	C	0.541056	1.950139	0.000072
C30	C	1.041056	2.450139	0.500072
C31	C	0.474152	1.822731	0.000073
C32	C	0.974152	2.322731	0.500073
C33	C	0.368280	1.841002	0.000097
C34	C	0.868280	2.341002	0.500097
C35	C	0.646939	1.931870	0.000048
C36	C	1.146939	2.431870	0.500048
C37	C	0.835242	1.899338	-0.000010
C38	C	1.335242	2.399338	0.499990
C39	C	0.731326	1.917301	0.000029
C40	C	1.231326	2.417301	0.500029
C41	C	0.035502	2.174589	0.000040
C42	C	0.535502	2.674589	0.500040
C43	C	0.046431	2.350410	0.000034
C44	C	0.546431	2.850410	0.500034
N45	N	0.038423	1.928708	0.452551
N46	N	0.538423	2.428708	0.952551
N47	N	-0.023205	1.844172	-0.452492
N48	N	0.476795	2.344172	0.047508
H49	H	0.496388	1.699932	0.000059
H50	H	0.996388	2.199932	0.500059
Cl51	Cl	-0.121811	1.708899	0.421416
Cl52	Cl	0.378189	2.208899	0.921416
H53	H	0.518822	2.072929	0.000095
H54	H	1.018822	2.572929	0.500095
Cl55	Cl	0.161987	1.462846	0.000066
Cl56	Cl	0.661987	1.962846	0.500066
Cl57	Cl	-0.146786	1.310012	-0.000055
Cl58	Cl	0.353214	1.810012	0.499945
Cl59	Cl	0.137025	2.064005	0.578649
Cl60	Cl	0.637025	2.564005	1.078649
