data_functionalizedCrystal
_audit_creation_method	'MofGen! by Chris Wilmer'
_symmetry_space_group_name_H-M	'P1'
_symmetry_Int_Tables_number	1
_symmetry_cell_setting	triclinic
loop_
_symmetry_equiv_pos_as_xyz
  x,y,z
_cell_length_a	17.038272
_cell_length_b	13.101039
_cell_length_c	14.044220
_cell_angle_alpha	86.332523
_cell_angle_beta	87.849783
_cell_angle_gamma	86.404528
loop_
_atom_site_label
_atom_site_type_symbol
_atom_site_fract_x
_atom_site_fract_y
_atom_site_fract_z
O1	O	1.055801	-0.085089	-0.202095
O2	O	1.555801	0.414911	0.297905
O3	O	0.827941	-0.085119	-0.198806
O4	O	1.327941	0.414881	0.301194
O5	O	0.938450	-0.085095	-0.062191
O6	O	1.438450	0.414905	0.437809
O7	O	0.945292	-0.085114	-0.338710
O8	O	1.445292	0.414886	0.161290
O9	O	0.930523	0.085333	-0.072010
O10	O	1.430523	0.585333	0.427990
O11	O	0.820014	0.085309	-0.208625
O12	O	1.320014	0.585309	0.291375
O13	O	1.047873	0.085339	-0.211914
O14	O	1.547873	0.585339	0.288086
Zn15	Zn	0.932685	0.112383	-0.211829
Zn16	Zn	1.432685	0.612383	0.288171
Zn17	Zn	0.943130	-0.112163	-0.198891
Zn18	Zn	1.443130	0.387837	0.301109
O19	O	0.937364	0.085314	-0.348530
O20	O	1.437364	0.585314	0.151470
C21	C	0.794640	0.000091	-0.200726
C22	C	1.294640	0.500091	0.299274
C23	C	0.707224	0.000080	-0.191806
C24	C	1.207224	0.500080	0.308194
N25	N	0.925562	0.265630	-0.220658
N26	N	1.425562	0.765630	0.279342
N27	N	0.950258	-0.265410	-0.190055
N28	N	1.450258	0.234590	0.309945
C29	C	0.662839	0.000075	-0.273694
C30	C	1.162839	0.500075	0.226306
C31	C	0.580701	0.000090	-0.265309
C32	C	1.080701	0.500090	0.234691
C33	C	0.542950	0.000102	-0.175034
C34	C	1.042950	0.500102	0.324966
C35	C	0.587341	0.000110	-0.093140
C36	C	1.087341	0.500110	0.406860
C37	C	0.669477	0.000102	-0.101527
C38	C	1.169477	0.500102	0.398473
C39	C	0.295118	0.000131	-0.145406
C40	C	0.795118	0.500131	0.354594
C41	C	0.212976	0.000136	-0.137025
C42	C	0.712976	0.500136	0.362975
C43	C	0.206341	0.000117	-0.309195
C44	C	0.706341	0.500117	0.190805
C45	C	0.288480	0.000104	-0.317573
C46	C	0.788480	0.500104	0.182427
C47	C	0.332863	0.000117	-0.235680
C48	C	0.832863	0.500117	0.264320
C49	C	0.458992	0.000114	-0.166461
C50	C	0.958992	0.500114	0.333539
C51	C	0.416819	0.000113	-0.244254
C52	C	0.916819	0.500113	0.255746
C53	C	1.081174	0.000126	-0.209994
C54	C	1.581174	0.500126	0.290006
C55	C	1.168591	0.000131	-0.218913
C56	C	1.668591	0.500131	0.281087
C57	C	0.931492	0.000119	-0.031544
C58	C	1.431492	0.500119	0.468456
C59	C	0.922561	0.000119	0.074402
C60	C	1.422561	0.500119	0.574402
C61	C	0.915872	0.474670	-0.232680
C62	C	1.415872	0.974670	0.267320
C63	C	0.959946	0.525556	-0.178037
C64	C	1.459946	1.025556	0.321963
C65	C	0.954554	0.641873	-0.184725
C66	C	1.454554	1.141873	0.315275
C67	C	0.921263	0.358342	-0.225992
C68	C	1.421263	0.858342	0.274008
C69	C	0.944322	0.000098	-0.379176
C70	C	1.444322	0.500098	0.120824
C71	C	0.953254	0.000091	-0.485121
C72	C	1.453254	0.500091	0.014879
C73	C	0.906233	0.000103	0.268381
C74	C	1.406233	0.500103	0.768381
C75	C	0.969578	0.000108	0.320905
C76	C	1.469578	0.500108	0.820905
C77	C	0.960493	0.000098	0.428842
C78	C	1.460493	0.500098	0.928842
C79	C	0.915317	0.000112	0.160434
C80	C	1.415317	0.500112	0.660434
H81	H	0.693569	0.000064	-0.347205
H82	H	1.193569	0.500064	0.152795
F83	F	1.014815	0.468319	-0.110628
F84	F	1.514815	0.968319	0.389372
H85	H	0.874092	0.518458	-0.284482
H86	H	1.374092	1.018458	0.215518
F87	F	1.049381	0.000126	0.273729
F88	F	1.549381	0.500126	0.773729
H89	H	0.845184	0.000092	0.304474
H90	H	1.345184	0.500092	0.804474
F91	F	0.716715	0.000111	-0.014370
F92	F	1.216715	0.500111	0.485630
F93	F	0.159100	0.000105	-0.396346
F94	F	0.659100	0.500105	0.103654
H95	H	0.544566	0.000084	-0.331991
H96	H	1.044566	0.500084	0.168009
H97	H	0.319211	0.000082	-0.391084
H98	H	0.819211	0.500082	0.108916
H99	H	0.331245	0.000143	-0.078722
H100	H	0.831245	0.500143	0.421278
F101	F	0.172800	0.000167	-0.040940
F102	F	0.672800	0.500167	0.459060
H103	H	0.447559	0.000108	-0.317756
H104	H	0.947559	0.500108	0.182244
F105	F	0.547162	0.000130	0.002937
F106	F	1.047162	0.500130	0.502937
H107	H	0.428245	0.000153	-0.092960
H108	H	0.928245	0.500153	0.407040
