data_functionalizedCrystal
_audit_creation_method	'MofGen! by Chris Wilmer'
_symmetry_space_group_name_H-M	'P1'
_symmetry_Int_Tables_number	1
_symmetry_cell_setting	triclinic
loop_
_symmetry_equiv_pos_as_xyz
  x,y,z
_cell_length_a	13.897449
_cell_length_b	16.120484
_cell_length_c	13.897441
_cell_angle_alpha	87.134365
_cell_angle_beta	90.023394
_cell_angle_gamma	92.926462
loop_
_atom_site_label
_atom_site_type_symbol
_atom_site_fract_x
_atom_site_fract_y
_atom_site_fract_z
Zn1	Zn	1.455182	-0.331862	0.564892
Zn2	Zn	1.955182	0.168138	1.064892
Zn3	Zn	1.446874	-0.471293	0.411762
Zn4	Zn	1.946874	0.028707	0.911762
Zn5	Zn	1.293868	-0.331900	0.403605
Zn6	Zn	1.793868	0.168100	0.903605
Zn7	Zn	1.285654	-0.471237	0.573004
Zn8	Zn	1.785654	0.028763	1.073004
O9	O	1.370394	-0.401573	0.488315
O10	O	1.870394	0.098427	0.988315
O11	O	1.589061	-0.350365	0.544598
O12	O	2.089061	0.149635	1.044598
O13	O	1.426538	-0.452842	0.275700
O14	O	1.926538	0.047158	0.775700
O15	O	1.322182	-0.215230	0.418191
O16	O	1.822182	0.284770	0.918191
O17	O	1.582957	-0.452805	0.432094
O18	O	2.082957	0.047195	0.932094
O19	O	1.440698	-0.215201	0.536688
O20	O	1.940698	0.284799	1.036688
O21	O	1.314126	-0.350431	0.269708
O22	O	1.814126	0.149569	0.769708
O23	O	1.157798	-0.350376	0.426057
O24	O	1.657798	0.149624	0.926057
O25	O	1.308181	-0.452709	0.706907
O26	O	1.808181	0.047291	1.206907
O27	O	1.151762	-0.452747	0.550514
O28	O	1.651762	0.047253	1.050514
O29	O	1.432732	-0.350311	0.700947
O30	O	1.932732	0.149689	1.200947
O31	O	1.418573	-0.587951	0.439959
O32	O	1.918573	-0.087951	0.939959
O33	O	1.300125	-0.587910	0.558423
O34	O	1.800125	-0.087910	1.058423
C35	C	1.119781	-0.401560	0.488281
C36	C	1.619781	0.098440	0.988281
C37	C	1.012566	-0.401575	0.488290
C38	C	1.512566	0.098425	0.988290
C39	C	0.925496	-0.401578	0.488307
C40	C	1.425496	0.098422	0.988307
C41	C	0.816263	-0.401584	0.488336
C42	C	1.316263	0.098416	0.988336
C43	C	1.357583	-0.618181	0.500977
C44	C	1.857583	-0.118181	1.000977
C45	C	1.352190	-0.710847	0.506427
C46	C	1.852190	-0.210847	1.006427
C47	C	1.342350	-0.880508	0.516395
C48	C	1.842350	-0.380508	1.016395
C49	C	1.398612	-0.921798	0.460252
C50	C	1.898612	-0.421798	0.960252
C51	C	1.393137	-1.016203	0.465798
C52	C	1.893137	-0.516203	0.965798
C53	C	1.347823	-0.786094	0.510850
C54	C	1.847823	-0.286094	1.010850
C55	C	1.621987	-0.401587	0.488351
C56	C	2.121987	0.098413	0.988351
C57	C	1.729200	-0.401592	0.488366
C58	C	2.229200	0.098408	0.988366
C59	C	1.370467	-0.401499	0.739904
C60	C	1.870467	0.098501	1.239904
C61	C	1.370498	-0.401468	0.847116
C62	C	1.870498	0.098532	1.347116
C63	C	1.383283	-0.184120	0.475625
C64	C	1.883283	0.315880	0.975625
C65	C	1.388775	-0.091454	0.470217
C66	C	1.888775	0.408546	0.970217
C67	C	1.370381	-0.401586	0.237702
C68	C	1.870381	0.098414	0.737702
C69	C	1.370551	-0.401383	0.130477
C70	C	1.870551	0.098617	0.630477
C71	C	1.370528	-0.401412	1.043408
C72	C	1.870528	0.098588	1.543408
C73	C	1.370508	-0.401445	0.934178
C74	C	1.870508	0.098555	1.434178
H75	H	1.450891	-0.886246	0.408020
H76	H	1.950891	-0.386246	0.908020
H77	H	1.290074	-0.916057	0.568622
H78	H	1.790074	-0.416057	1.068622
