data_functionalizedCrystal
_audit_creation_method	'MofGen! by Chris Wilmer'
_symmetry_space_group_name_H-M	'P1'
_symmetry_Int_Tables_number	1
_symmetry_cell_setting	triclinic
loop_
_symmetry_equiv_pos_as_xyz
  x,y,z
_cell_length_a	14.519709
_cell_length_b	11.792241
_cell_length_c	10.868271
_cell_angle_alpha	90.000107
_cell_angle_beta	89.993918
_cell_angle_gamma	96.063220
loop_
_atom_site_label
_atom_site_type_symbol
_atom_site_fract_x
_atom_site_fract_y
_atom_site_fract_z
O1	O	0.126404	-1.506208	-0.102206
O2	O	0.376404	-1.256208	0.147794
O3	O	0.626404	-1.006208	0.397794
O4	O	0.876404	-0.756208	0.647794
O5	O	0.139432	-1.175794	-0.102235
O6	O	0.389432	-0.925794	0.147765
O7	O	0.639432	-0.675794	0.397765
O8	O	0.889432	-0.425794	0.647765
O9	O	-0.001288	-1.349761	-0.102208
O10	O	0.248712	-1.099761	0.147792
O11	O	0.498712	-0.849761	0.397792
O12	O	0.748712	-0.599761	0.647792
O13	O	0.267124	-1.332241	-0.102232
O14	O	0.517124	-1.082241	0.147768
O15	O	0.767124	-0.832241	0.397768
O16	O	1.017124	-0.582241	0.647768
O17	O	-0.001294	-1.349747	0.102436
O18	O	0.248706	-1.099747	0.352436
O19	O	0.498706	-0.849747	0.602436
O20	O	0.748706	-0.599747	0.852436
O21	O	0.139426	-1.175780	0.102410
O22	O	0.389426	-0.925780	0.352410
O23	O	0.639426	-0.675780	0.602410
O24	O	0.889426	-0.425780	0.852410
O25	O	0.126399	-1.506193	0.102439
O26	O	0.376399	-1.256193	0.352439
O27	O	0.626399	-1.006193	0.602439
O28	O	0.876399	-0.756193	0.852439
Zn29	Zn	0.132912	-1.340984	0.134916
Zn30	Zn	0.382912	-1.090984	0.384916
Zn31	Zn	0.632912	-0.840984	0.634916
Zn32	Zn	0.882912	-0.590984	0.884916
Zn33	Zn	0.132919	-1.341003	-0.134712
Zn34	Zn	0.382919	-1.091003	0.115288
Zn35	Zn	0.632919	-0.841003	0.365288
Zn36	Zn	0.882919	-0.591003	0.615288
O37	O	0.267119	-1.332226	0.102413
O38	O	0.517119	-1.082226	0.352413
O39	O	0.767119	-0.832226	0.602413
O40	O	1.017119	-0.582226	0.852413
C41	C	0.138611	-1.133501	0.000084
C42	C	0.388611	-0.883501	0.250084
C43	C	0.638611	-0.633501	0.500084
C44	C	0.888611	-0.383501	0.750084
C45	C	0.136161	-1.007501	0.000073
C46	C	0.386161	-0.757501	0.250073
C47	C	0.636161	-0.507501	0.500073
C48	C	0.886161	-0.257501	0.750073
C49	C	-0.035654	-1.348938	0.000114
C50	C	0.214346	-1.098938	0.250114
C51	C	0.464346	-0.848938	0.500114
C52	C	0.714346	-0.598938	0.750114
C53	C	-0.138044	-1.346491	0.000115
C54	C	0.111956	-1.096491	0.250115
C55	C	0.361956	-0.846491	0.500115
C56	C	0.611956	-0.596491	0.750115
C57	C	0.127220	-1.548487	0.000118
C58	C	0.377220	-1.298487	0.250118
C59	C	0.627220	-1.048487	0.500118
C60	C	0.877220	-0.798487	0.750118
C61	C	0.129669	-1.674487	0.000120
C62	C	0.379669	-1.424487	0.250120
C63	C	0.629669	-1.174487	0.500120
C64	C	0.879669	-0.924487	0.750120
C65	C	-0.512973	-1.337483	0.000082
C66	C	-0.262973	-1.087483	0.250082
C67	C	-0.012973	-0.837483	0.500082
C68	C	0.237027	-0.587483	0.750082
C69	C	-0.408656	-1.339984	0.000091
C70	C	-0.158656	-1.089984	0.250091
C71	C	0.091344	-0.839984	0.500091
C72	C	0.341344	-0.589984	0.750091
C73	C	-0.325512	-1.341987	0.000099
C74	C	-0.075512	-1.091987	0.250099
C75	C	0.174488	-0.841987	0.500099
C76	C	0.424488	-0.591987	0.750099
C77	C	-0.221188	-1.344489	0.000107
C78	C	0.028812	-1.094489	0.250107
C79	C	0.278812	-0.844489	0.500107
C80	C	0.528812	-0.594489	0.750107
C81	C	0.301484	-1.333050	0.000087
C82	C	0.551484	-1.083050	0.250087
C83	C	0.801484	-0.833050	0.500087
C84	C	1.051484	-0.583050	0.750087
C85	C	0.403875	-1.335497	0.000079
C86	C	0.653875	-1.085497	0.250079
C87	C	0.903875	-0.835497	0.500079
C88	C	1.153875	-0.585497	0.750079
N89	N	0.132906	-1.340980	0.318930
N90	N	0.382906	-1.090980	0.568930
N91	N	0.632906	-0.840980	0.818930
N92	N	0.882906	-0.590980	1.068930
C93	C	0.131657	-0.776813	0.000109
C94	C	0.381657	-0.526813	0.250109
C95	C	0.631657	-0.276813	0.500109
C96	C	0.881657	-0.026813	0.750109
C97	C	0.134160	-0.905185	0.000090
C98	C	0.384160	-0.655185	0.250090
C99	C	0.634160	-0.405185	0.500090
C100	C	0.884160	-0.155185	0.750090
N101	N	0.132917	-1.341017	-0.318726
N102	N	0.382917	-1.091017	-0.068726
N103	N	0.632917	-0.841017	0.181274
N104	N	0.882917	-0.591017	0.431274
C105	C	0.132917	-1.340997	0.569936
C106	C	0.382917	-1.090997	0.819936
C107	C	0.632917	-0.840997	1.069936
C108	C	0.882917	-0.590997	1.319936
C109	C	0.132914	-1.340984	0.430259
C110	C	0.382914	-1.090984	0.680259
C111	C	0.632914	-0.840984	0.930259
C112	C	0.882914	-0.590984	1.180259
