data_functionalizedCrystal
_audit_creation_method	'MofGen! by Chris Wilmer'
_symmetry_space_group_name_H-M	'P1'
_symmetry_Int_Tables_number	1
_symmetry_cell_setting	triclinic
loop_
_symmetry_equiv_pos_as_xyz
  x,y,z
_cell_length_a	18.215407
_cell_length_b	13.032721
_cell_length_c	18.215399
_cell_angle_alpha	97.151969
_cell_angle_beta	89.983176
_cell_angle_gamma	97.205008
loop_
_atom_site_label
_atom_site_type_symbol
_atom_site_fract_x
_atom_site_fract_y
_atom_site_fract_z
Zn1	Zn	1.087859	-0.416014	-0.453318
Zn2	Zn	1.587859	0.083986	0.046682
Zn3	Zn	1.072150	-0.590784	-0.345880
Zn4	Zn	1.572150	-0.090784	0.154120
Zn5	Zn	0.964795	-0.416056	-0.330269
Zn6	Zn	1.464795	0.083944	0.169731
Zn7	Zn	0.949140	-0.590718	-0.468899
Zn8	Zn	1.449140	-0.090718	0.031101
O9	O	1.018486	-0.503393	-0.399592
O10	O	1.518486	-0.003393	0.100408
O11	O	1.188759	-0.439208	-0.439079
O12	O	1.688759	0.060792	0.060921
O13	O	1.057887	-0.567650	-0.240829
O14	O	1.557887	-0.067650	0.259171
O15	O	0.994246	-0.269811	-0.333537
O16	O	1.494246	0.230189	0.166463
O17	O	1.177218	-0.567610	-0.360145
O18	O	1.677218	-0.067610	0.139855
O19	O	1.084661	-0.269781	-0.423941
O20	O	1.584661	0.230219	0.076059
O21	O	0.979013	-0.439278	-0.229360
O22	O	1.479013	0.060722	0.270640
O23	O	0.859735	-0.439215	-0.348646
O24	O	1.359735	0.060785	0.151354
O25	O	0.967564	-0.567499	-0.569813
O26	O	1.467564	-0.067499	-0.069813
O27	O	0.848233	-0.567539	-0.450497
O28	O	1.348233	-0.067539	0.049503
O29	O	1.069481	-0.439144	-0.558365
O30	O	1.569481	0.060856	-0.058365
O31	O	1.042707	-0.737014	-0.375254
O32	O	1.542707	-0.237014	0.124746
O33	O	0.952331	-0.736966	-0.465635
O34	O	1.452331	-0.236966	0.034365
C35	C	0.827281	-0.503375	-0.399569
C36	C	1.327281	-0.003375	0.100431
C37	C	0.745481	-0.503393	-0.399579
C38	C	1.245481	-0.003393	0.100421
C39	C	0.551308	-0.570316	-0.452563
C40	C	1.051308	-0.070316	0.047437
C41	C	0.474449	-0.570319	-0.452573
C42	C	0.974449	-0.070319	0.047427
C43	C	0.486415	-0.436489	-0.346638
C44	C	0.986415	0.063511	0.153362
C45	C	0.563273	-0.436481	-0.346632
C46	C	1.063273	0.063519	0.153368
C47	C	0.595717	-0.503401	-0.399594
C48	C	1.095717	-0.003401	0.100406
C49	C	0.442000	-0.503412	-0.399609
C50	C	0.942000	-0.003412	0.100391
C51	C	0.358666	-0.503415	-0.399619
C52	C	0.858666	-0.003415	0.100381
C53	C	0.679056	-0.503396	-0.399586
C54	C	1.179056	-0.003396	0.100414
C55	C	0.994136	-0.774908	-0.423845
C56	C	1.494136	-0.274908	0.076155
C57	C	0.983786	-0.891063	-0.434246
C58	C	1.483786	-0.391063	0.065754
C59	C	1.023927	-0.942838	-0.394197
C60	C	1.523927	-0.442838	0.105803
C61	C	1.013231	-1.062890	-0.404945
C62	C	1.513231	-0.562890	0.095055
C63	C	1.210437	-0.503412	-0.399615
C64	C	1.710437	-0.003412	0.100385
C65	C	1.292235	-0.503420	-0.399625
C66	C	1.792235	-0.003420	0.100375
C67	C	1.018528	-0.503309	-0.591537
C68	C	1.518528	-0.003309	-0.091537
C69	C	1.018546	-0.503274	-0.673333
C70	C	1.518546	-0.003274	-0.173333
C71	C	1.042952	-0.230818	-0.375260
C72	C	1.542952	0.269182	0.124740
C73	C	1.053377	-0.114662	-0.364891
C74	C	1.553377	0.385338	0.135109
C75	C	0.977521	-0.436385	-0.855552
C76	C	1.477521	0.063615	-0.355552
C77	C	0.977535	-0.436364	-0.932409
C78	C	1.477535	0.063636	-0.432409
C79	C	1.059671	-0.570038	-0.944341
C80	C	1.559671	-0.070038	-0.444341
C81	C	1.059652	-0.570063	-0.867486
C82	C	1.559652	-0.070063	-0.367486
C83	C	1.018578	-0.503231	-0.823093
C84	C	1.518578	-0.003231	-0.323093
C85	C	1.018612	-0.503185	-0.976805
C86	C	1.518612	-0.003185	-0.476805
C87	C	1.018628	-0.503162	-1.060136
C88	C	1.518628	-0.003162	-0.560136
C89	C	1.018561	-0.503255	-0.739756
C90	C	1.518561	-0.003255	-0.239756
C91	C	1.018493	-0.503401	-0.208386
C92	C	1.518493	-0.003401	0.291614
C93	C	1.018644	-0.503142	-0.126565
C94	C	1.518644	-0.003142	0.373435
H95	H	0.599432	-0.381984	-0.303498
H96	H	1.099432	0.118016	0.196502
H97	H	1.095668	-1.070116	-0.322646
H98	H	1.595668	-0.570116	0.177354
O99	O	0.933247	-0.944088	-0.484599
O100	O	1.433247	-0.444088	0.015401
C101	C	0.862249	-0.917622	-0.466083
C102	C	1.362249	-0.417622	0.033917
H103	H	0.867749	-0.838377	-0.430746
H104	H	1.367749	-0.338377	0.069254
H105	H	0.829538	-0.913989	-0.518843
H106	H	1.329538	-0.413989	-0.018843
H107	H	0.832048	-0.979099	-0.433690
H108	H	1.332048	-0.479099	0.066310
H109	H	1.093087	-0.624501	-0.841058
H110	H	1.593087	-0.124501	-0.341058
H111	H	0.944076	-0.381967	-0.819409
H112	H	1.444076	0.118033	-0.319409
O113	O	0.937639	-0.371329	-0.963816
O114	O	1.437639	0.128671	-0.463816
C115	C	0.901369	-0.312372	-0.908152
C116	C	1.401369	0.187628	-0.408152
H117	H	0.931826	-0.308773	-0.853048
H118	H	1.431826	0.191227	-0.353048
H119	H	0.900914	-0.230027	-0.923012
H120	H	1.400914	0.269973	-0.423012
H121	H	0.842041	-0.350638	-0.903385
H122	H	1.342041	0.149362	-0.403385
O123	O	1.099557	-0.634852	-0.987571
O124	O	1.599557	-0.134852	-0.487571
C125	C	1.090758	-0.620514	-1.062367
C126	C	1.590758	-0.120514	-0.562367
H127	H	1.073896	-0.539861	-1.065667
H128	H	1.573896	-0.039861	-0.565667
H129	H	1.145253	-0.627596	-1.092213
H130	H	1.645253	-0.127596	-0.592213
H131	H	1.046010	-0.682491	-1.089705
H132	H	1.546010	-0.182491	-0.589705
H133	H	0.438294	-0.624807	-0.495706
H134	H	0.938294	-0.124807	0.004294
O135	O	0.582709	-0.635344	-0.504085
O136	O	1.082709	-0.135344	-0.004085
C137	C	0.527026	-0.694422	-0.550828
C138	C	1.027026	-0.194422	-0.050828
H139	H	0.476078	-0.651626	-0.549602
H140	H	0.976078	-0.151626	-0.049602
H141	H	0.548244	-0.705662	-0.609803
H142	H	1.048244	-0.205662	-0.109803
H143	H	0.511730	-0.773747	-0.530879
H144	H	1.011730	-0.273747	-0.030879
O145	O	0.962689	-1.115912	-0.455301
O146	O	1.462689	-0.615912	0.044699
C147	C	0.891691	-1.089446	-0.436786
C148	C	1.391691	-0.589446	0.063214
H149	H	0.897191	-1.010200	-0.401448
H150	H	1.397191	-0.510200	0.098552
H151	H	0.858980	-1.085812	-0.489545
H152	H	1.358980	-0.585812	0.010455
H153	H	0.861490	-1.150923	-0.404392
H154	H	1.361490	-0.650923	0.095608
H155	H	1.066215	-0.898288	-0.351955
H156	H	1.566215	-0.398288	0.148045
O157	O	0.454944	-0.371342	-0.295254
O158	O	0.954944	0.128658	0.204746
C159	C	0.483081	-0.267215	-0.302140
C160	C	0.983081	0.232785	0.197860
H161	H	0.504691	-0.262037	-0.360475
H162	H	1.004691	0.237963	0.139525
H163	H	0.437165	-0.215579	-0.291246
H164	H	0.937165	0.284421	0.208754
H165	H	0.530137	-0.239828	-0.260268
H166	H	1.030137	0.260172	0.239732
