data_functionalizedCrystal
_audit_creation_method	'MofGen! by Chris Wilmer'
_symmetry_space_group_name_H-M	'P1'
_symmetry_Int_Tables_number	1
_symmetry_cell_setting	triclinic
loop_
_symmetry_equiv_pos_as_xyz
  x,y,z
_cell_length_a	23.532407
_cell_length_b	11.792241
_cell_length_c	10.868271
_cell_angle_alpha	89.998441
_cell_angle_beta	89.998984
_cell_angle_gamma	96.478953
loop_
_atom_site_label
_atom_site_type_symbol
_atom_site_fract_x
_atom_site_fract_y
_atom_site_fract_z
O1	O	0.756076	-0.137765	0.102169
O2	O	1.006076	0.112235	0.352169
O3	O	1.256076	0.362235	0.602169
O4	O	1.506076	0.612235	0.852169
O5	O	0.590331	-0.157700	0.102205
O6	O	0.840331	0.092300	0.352205
O7	O	1.090331	0.342300	0.602205
O8	O	1.340331	0.592300	0.852205
O9	O	0.677226	0.017533	0.102178
O10	O	0.927226	0.267533	0.352178
O11	O	1.177226	0.517533	0.602178
O12	O	1.427226	0.767533	0.852178
O13	O	0.669181	-0.312998	0.102197
O14	O	0.919181	-0.062998	0.352197
O15	O	1.169181	0.187002	0.602197
O16	O	1.419181	0.437002	0.852197
O17	O	0.677218	0.017527	-0.102467
O18	O	0.927218	0.267527	0.147533
O19	O	1.177218	0.517527	0.397533
O20	O	1.427218	0.767527	0.647533
O21	O	0.590323	-0.157705	-0.102439
O22	O	0.840323	0.092295	0.147561
O23	O	1.090323	0.342295	0.397561
O24	O	1.340323	0.592295	0.647561
O25	O	0.756068	-0.137771	-0.102475
O26	O	1.006068	0.112229	0.147525
O27	O	1.256068	0.362229	0.397525
O28	O	1.506068	0.612229	0.647525
Zn29	Zn	0.673194	-0.147739	-0.134949
Zn30	Zn	0.923194	0.102261	0.115051
Zn31	Zn	1.173194	0.352261	0.365051
Zn32	Zn	1.423194	0.602261	0.615051
Zn33	Zn	0.673205	-0.147732	0.134679
Zn34	Zn	0.923205	0.102268	0.384679
Zn35	Zn	1.173205	0.352268	0.634679
Zn36	Zn	1.423205	0.602268	0.884679
O37	O	0.669173	-0.313003	-0.102448
O38	O	0.919173	-0.063003	0.147552
O39	O	1.169173	0.186997	0.397552
O40	O	1.419173	0.436997	0.647552
C41	C	0.569108	-0.157195	-0.000112
C42	C	0.819108	0.092805	0.249888
C43	C	1.069108	0.342805	0.499888
C44	C	1.319108	0.592805	0.749888
C45	C	0.505882	-0.155669	-0.000099
C46	C	0.755882	0.094331	0.249901
C47	C	1.005882	0.344331	0.499901
C48	C	1.255882	0.594331	0.749901
N49	N	0.673191	-0.147744	-0.318963
N50	N	0.923191	0.102256	-0.068963
N51	N	1.173191	0.352256	0.181037
N52	N	1.423191	0.602256	0.431037
C53	C	0.676716	0.059809	-0.000144
C54	C	0.926716	0.309809	0.249856
C55	C	1.176716	0.559809	0.499856
C56	C	1.426716	0.809809	0.749856
C57	C	0.675204	0.185787	-0.000142
C58	C	0.925204	0.435787	0.249858
C59	C	1.175204	0.685787	0.499858
C60	C	1.425204	0.935787	0.749858
C61	C	0.107337	-0.249795	-0.000149
C62	C	0.357337	0.000205	0.249851
C63	C	0.607337	0.250205	0.499851
C64	C	0.857337	0.500205	0.749851
C65	C	0.047928	-0.248377	-0.000157
C66	C	0.297928	0.001623	0.249843
C67	C	0.547928	0.251623	0.499843
C68	C	0.797928	0.501623	0.749843
O69	O	0.011701	-0.335633	-0.000196
O70	O	0.261701	-0.085633	0.249804
O71	O	0.511701	0.164367	0.499804
O72	O	0.761701	0.414367	0.749804
N73	N	0.024684	-0.144202	-0.000161
N74	N	0.274684	0.105798	0.249839
N75	N	0.524684	0.355798	0.499839
N76	N	0.774684	0.605798	0.749839
C77	C	0.060853	-0.041437	-0.000169
C78	C	0.310853	0.208563	0.249831
C79	C	0.560853	0.458563	0.499831
C80	C	0.810853	0.708563	0.749831
O81	O	0.035627	0.047303	-0.000175
O82	O	0.285627	0.297303	0.249825
O83	O	0.535627	0.547303	0.499825
O84	O	0.785627	0.797303	0.749825
C85	C	0.120260	-0.042856	-0.000171
C86	C	0.370260	0.207144	0.249829
C87	C	0.620260	0.457144	0.499829
C88	C	0.870260	0.707144	0.749829
C89	C	0.143501	-0.147038	-0.000154
C90	C	0.393501	0.102962	0.249846
C91	C	0.643501	0.352962	0.499846
C92	C	0.893501	0.602962	0.749846
C93	C	0.130577	-0.353969	-0.000134
C94	C	0.380577	-0.103969	0.249866
C95	C	0.630577	0.146031	0.499866
C96	C	0.880577	0.396031	0.749866
C97	C	0.189982	-0.355386	-0.000124
C98	C	0.439982	-0.105386	0.249876
C99	C	0.689982	0.144614	0.499876
C100	C	0.939982	0.394614	0.749876
C101	C	0.226146	-0.252630	-0.000129
C102	C	0.476146	-0.002630	0.249871
C103	C	0.726146	0.247370	0.499871
C104	C	0.976146	0.497370	0.749871
C105	C	0.202905	-0.148456	-0.000144
C106	C	0.452905	0.101544	0.249856
C107	C	0.702905	0.351544	0.499856
C108	C	0.952905	0.601544	0.749856
C109	C	0.156428	0.059907	-0.000188
C110	C	0.406428	0.309907	0.249812
C111	C	0.656428	0.559907	0.499812
C112	C	0.906428	0.809907	0.749812
C113	C	0.215839	0.058479	-0.000190
C114	C	0.465839	0.308479	0.249810
C115	C	0.715839	0.558479	0.499810
C116	C	0.965839	0.808479	0.749810
C117	C	0.239079	-0.045703	-0.000174
C118	C	0.489079	0.204297	0.249826
C119	C	0.739079	0.454297	0.499826
C120	C	0.989079	0.704297	0.749826
C121	C	0.298474	-0.047116	-0.000140
C122	C	0.548474	0.202884	0.249860
C123	C	0.798474	0.452884	0.499860
C124	C	1.048474	0.702884	0.749860
N125	N	0.321717	-0.151292	-0.000136
N126	N	0.571717	0.098708	0.249864
N127	N	0.821717	0.348708	0.499864
N128	N	1.071717	0.598708	0.749864
C129	C	0.285553	-0.254049	-0.000130
C130	C	0.535553	-0.004049	0.249870
C131	C	0.785553	0.245951	0.499870
C132	C	1.035553	0.495951	0.749870
C133	C	-0.063907	-0.038465	-0.000169
C134	C	0.186093	0.211535	0.249831
C135	C	0.436093	0.461535	0.499831
C136	C	0.686093	0.711535	0.749831
C137	C	-0.123313	-0.037045	-0.000159
C138	C	0.126687	0.212955	0.249841
C139	C	0.376687	0.462955	0.499841
C140	C	0.626687	0.712955	0.749841
C141	C	-0.136234	-0.243985	-0.000149
C142	C	0.113766	0.006015	0.249851
C143	C	0.363766	0.256015	0.499851
C144	C	0.613766	0.506015	0.749851
C145	C	-0.076827	-0.245404	-0.000150
C146	C	0.173173	0.004596	0.249850
C147	C	0.423173	0.254596	0.499850
C148	C	0.673173	0.504596	0.749850
C149	C	-0.040664	-0.142641	-0.000165
C150	C	0.209336	0.107359	0.249835
C151	C	0.459336	0.357359	0.499835
C152	C	0.709336	0.607359	0.749835
C153	C	0.410308	-0.257017	-0.000109
C154	C	0.660308	-0.007017	0.249891
C155	C	0.910308	0.242983	0.499891
C156	C	1.160308	0.492983	0.749891
C157	C	0.469718	-0.258425	-0.000094
C158	C	0.719718	-0.008425	0.249906
C159	C	0.969718	0.241575	0.499906
C160	C	1.219718	0.491575	0.749906
C161	C	0.482634	-0.051485	-0.000111
C162	C	0.732634	0.198515	0.249889
C163	C	0.982634	0.448515	0.499889
C164	C	1.232634	0.698515	0.749889
C165	C	0.423229	-0.050077	-0.000119
C166	C	0.673229	0.199923	0.249881
C167	C	0.923229	0.449923	0.499881
C168	C	1.173229	0.699923	0.749881
C169	C	0.387066	-0.152852	-0.000122
C170	C	0.637066	0.097148	0.249878
C171	C	0.887066	0.347148	0.499878
C172	C	1.137066	0.597148	0.749878
O173	O	0.334736	0.040094	-0.000105
O174	O	0.584736	0.290094	0.249895
O175	O	0.834736	0.540094	0.499895
O176	O	1.084736	0.790094	0.749895
O177	O	0.310787	-0.342774	-0.000141
O178	O	0.560787	-0.092774	0.249859
O179	O	0.810787	0.157226	0.499859
O180	O	1.060787	0.407226	0.749859
C181	C	0.777291	-0.138276	-0.000155
C182	C	1.027291	0.111724	0.249845
C183	C	1.277291	0.361724	0.499845
C184	C	1.527291	0.611724	0.749845
C185	C	0.840517	-0.139802	-0.000160
C186	C	1.090517	0.110198	0.249840
C187	C	1.340517	0.360198	0.499840
C188	C	1.590517	0.610198	0.749840
C189	C	0.669683	-0.355280	-0.000123
C190	C	0.919683	-0.105280	0.249877
C191	C	1.169683	0.144720	0.499877
C192	C	1.419683	0.394720	0.749877
C193	C	0.671195	-0.481258	-0.000117
C194	C	0.921195	-0.231258	0.249883
C195	C	1.171195	0.018742	0.499883
C196	C	1.421195	0.268742	0.749883
C197	C	0.672423	0.416434	-0.000121
C198	C	0.922423	0.666434	0.249879
C199	C	1.172423	0.916434	0.499879
C200	C	1.422423	1.166434	0.749879
C201	C	0.673968	0.288085	-0.000133
C202	C	0.923968	0.538085	0.249867
C203	C	1.173968	0.788085	0.499867
C204	C	1.423968	1.038085	0.749867
C205	C	0.673196	-0.147744	-0.430301
C206	C	0.923196	0.102256	-0.180301
C207	C	1.173196	0.352256	0.069699
C208	C	1.423196	0.602256	0.319699
C209	C	0.673203	-0.147733	-0.569978
C210	C	0.923203	0.102267	-0.319978
C211	C	1.173203	0.352267	-0.069978
C212	C	1.423203	0.602267	0.180022
N213	N	0.673212	-0.147718	0.318693
N214	N	0.923212	0.102282	0.568693
N215	N	1.173212	0.352282	0.818693
N216	N	1.423212	0.602282	1.068693
H217	H	0.488636	-0.343267	-0.000079
H218	H	0.738636	-0.093267	0.249921
H219	H	0.988636	0.156733	0.499921
H220	H	1.238636	0.406733	0.749921
F221	F	-0.025424	0.070918	-0.000174
F222	F	0.224576	0.320918	0.249826
F223	F	0.474576	0.570918	0.499826
F224	F	0.724576	0.820918	0.749826
F225	F	-0.174733	-0.353349	-0.000148
F226	F	0.075267	-0.103349	0.249852
F227	F	0.325267	0.146651	0.499852
F228	F	0.575267	0.396651	0.749852
H229	H	0.208898	-0.440222	-0.000110
H230	H	0.458898	-0.190222	0.249890
H231	H	0.708898	0.059778	0.499890
H232	H	0.958898	0.309778	0.749890
H233	H	0.101138	-0.437650	-0.000134
H234	H	0.351138	-0.187650	0.249866
H235	H	0.601138	0.062350	0.499866
H236	H	0.851138	0.312350	0.749866
H237	H	0.404306	0.034757	-0.000114
H238	H	0.654306	0.284757	0.249886
H239	H	0.904306	0.534757	0.499886
H240	H	1.154306	0.784757	0.749886
F241	F	0.371829	-0.366402	-0.000113
F242	F	0.621829	-0.116402	0.249887
F243	F	0.871829	0.133598	0.499887
F244	F	1.121829	0.383598	0.749887
F245	F	-0.052099	-0.356288	-0.000135
F246	F	0.197901	-0.106288	0.249865
F247	F	0.447901	0.143712	0.499865
F248	F	0.697901	0.393712	0.749865
H249	H	-0.142230	0.047791	-0.000153
H250	H	0.107770	0.297791	0.249847
H251	H	0.357770	0.547791	0.499847
H252	H	0.607770	0.797791	0.749847
H253	H	0.245281	0.142164	-0.000204
H254	H	0.495281	0.392164	0.249796
H255	H	0.745281	0.642164	0.499796
H256	H	0.995281	0.892164	0.749796
H257	H	0.137517	0.144743	-0.000203
H258	H	0.387517	0.394743	0.249797
H259	H	0.637517	0.644743	0.499797
H260	H	0.887517	0.894743	0.749797
F261	F	0.521132	0.057870	-0.000118
F262	F	0.771132	0.307870	0.249882
F263	F	1.021132	0.557870	0.499882
F264	F	1.271132	0.807870	0.749882
