data_functionalizedCrystal
_audit_creation_method	'MofGen! by Chris Wilmer'
_symmetry_space_group_name_H-M	'P1'
_symmetry_Int_Tables_number	1
_symmetry_cell_setting	triclinic
loop_
_symmetry_equiv_pos_as_xyz
  x,y,z
_cell_length_a	6.394989
_cell_length_b	10.654554
_cell_length_c	9.130313
_cell_angle_alpha	89.999615
_cell_angle_beta	89.998359
_cell_angle_gamma	94.507772
loop_
_atom_site_label
_atom_site_type_symbol
_atom_site_fract_x
_atom_site_fract_y
_atom_site_fract_z
O1	O	-0.293477	1.670939	-0.121794
O2	O	-0.321424	1.305757	-0.121795
O3	O	-0.003462	1.493532	-0.121796
O4	O	-0.611440	1.483165	-0.121794
O5	O	-0.003470	1.493529	0.121803
O6	O	-0.321433	1.305755	0.121804
O7	O	-0.293486	1.670937	0.121805
Cu8	Cu	-0.307460	1.488346	0.144047
Cu9	Cu	-0.307450	1.488348	-0.144037
O10	O	-0.611448	1.483162	0.121805
C11	C	-0.319375	1.258936	0.000004
C12	C	-0.313229	1.119428	0.000003
C13	C	-0.494674	0.910842	0.000001
C14	C	-0.500449	1.041924	0.000001
C15	C	-0.120221	1.065844	-0.000009
C16	C	-0.114448	0.934764	-0.000019
C17	C	-0.714196	0.897033	0.000012
C18	C	-0.719972	1.028115	0.000012
C19	C	0.074385	1.491481	-0.000002
C20	C	0.310711	1.485216	-0.000003
C21	C	-0.295535	1.717758	0.000002
C22	C	-0.301681	1.857266	-0.000007
N23	N	-0.307466	1.488353	0.346669
N24	N	-0.307428	1.488351	-0.346660
C25	C	-0.166720	1.571522	0.423321
C26	C	-0.166695	1.571518	0.576658
C27	C	-0.448180	1.405173	0.576678
C28	C	-0.448193	1.405171	0.423344
C29	C	-0.004213	1.667564	0.423311
C30	C	-0.004188	1.667560	0.576648
H31	H	-0.789878	1.064490	-0.105169
O32	O	-0.823893	0.842916	-0.134982
H33	H	-0.743370	0.882749	-0.234227
O34	O	-0.802037	0.837486	0.139332
H35	H	-0.793726	0.733937	0.133588
H36	H	-0.039987	1.764451	0.618265
H37	H	0.042705	0.891148	-0.000044
H38	H	-0.805796	1.058385	0.101971
H39	H	0.032216	1.128959	-0.000021
O40	O	-0.599984	1.315463	0.340662
H41	H	-0.697846	1.257634	0.419743
O42	O	-0.599978	1.315468	0.659374
H43	H	-0.576336	1.329444	0.778875
O44	O	0.208478	1.636895	0.368157
H45	H	0.312614	1.621869	0.462759
H46	H	-0.055100	1.759286	0.375753
O47	O	0.196860	1.625060	0.639618
H48	H	0.218302	1.527841	0.602011
