data_functionalizedCrystal
_audit_creation_method	'MofGen! by Chris Wilmer'
_symmetry_space_group_name_H-M	'P1'
_symmetry_Int_Tables_number	1
_symmetry_cell_setting	triclinic
loop_
_symmetry_equiv_pos_as_xyz
  x,y,z
_cell_length_a	23.532361
_cell_length_b	23.532407
_cell_length_c	13.448316
_cell_angle_alpha	89.988737
_cell_angle_beta	89.997511
_cell_angle_gamma	82.839173
loop_
_atom_site_label
_atom_site_type_symbol
_atom_site_fract_x
_atom_site_fract_y
_atom_site_fract_z
O1	O	0.755278	0.069010	-0.082602
O2	O	0.589411	0.079041	-0.082627
O3	O	0.677347	-0.008907	-0.082596
O4	O	0.667343	0.156958	-0.082634
O5	O	0.677336	-0.008913	0.082788
O6	O	0.589400	0.079035	0.082756
O7	O	0.755267	0.069005	0.082782
Cu8	Cu	0.672333	0.074020	0.097870
Cu9	Cu	0.672346	0.074026	-0.097716
O10	O	0.667332	0.156953	0.082750
C11	C	0.568189	0.078787	0.000062
C12	C	0.504971	0.078032	0.000053
C13	C	0.231733	0.074731	-0.090091
C14	C	0.291133	0.075446	-0.090094
O15	O	0.321864	0.075799	-0.166762
N16	N	0.320832	0.075804	0.000057
C17	C	0.291130	0.075442	0.090217
O18	O	0.321846	0.075812	0.166897
C19	C	0.231732	0.074723	0.090218
C20	C	0.202035	0.074370	0.000061
C21	C	0.202036	0.074378	-0.180241
C22	C	0.142640	0.073664	-0.180238
C23	C	0.112941	0.073303	-0.090085
C24	C	0.142639	0.073657	0.000064
C25	C	0.202031	0.074356	0.180377
C26	C	0.142629	0.073637	0.180370
C27	C	0.112932	0.073284	0.090214
C28	C	0.053545	0.072582	0.090220
N29	N	0.023845	0.072224	0.000069
C30	C	0.053543	0.072584	-0.090084
C31	C	0.415870	0.076951	0.090206
C32	C	0.475267	0.077674	0.090206
C33	C	0.475265	0.077677	-0.090105
C34	C	0.415867	0.076958	-0.090103
C35	C	0.386171	0.076593	0.000055
C36	C	-0.071192	0.071086	-0.090071
C37	C	-0.130594	0.070374	-0.090060
C38	C	-0.130587	0.070368	0.090251
C39	C	-0.071191	0.071083	0.090240
C40	C	-0.041495	0.071440	0.000071
O41	O	0.022776	0.072227	0.166849
O42	O	0.022821	0.072207	-0.166751
C43	C	0.677086	-0.030126	0.000099
C44	C	0.676320	-0.093343	0.000106
C45	C	0.723555	-0.492454	0.000059
C46	C	0.722844	-0.551854	0.000051
O47	O	0.766630	-0.588606	0.000021
N48	N	0.670566	-0.574471	0.000044
C49	C	0.618997	-0.537685	0.000034
O50	O	0.574465	-0.562377	0.000026
C51	C	0.619709	-0.478286	0.000035
C52	C	0.671990	-0.455672	0.000052
C53	C	0.775832	-0.469839	0.000075
C54	C	0.776543	-0.410443	0.000085
C55	C	0.724977	-0.373662	0.000078
C56	C	0.672701	-0.396276	0.000062
C57	C	0.568140	-0.441501	0.000018
C58	C	0.568857	-0.382099	0.000018
C59	C	0.621137	-0.359485	0.000035
C60	C	0.621847	-0.300099	0.000064
N61	N	0.674124	-0.277481	0.000072
C62	C	0.725690	-0.314263	0.000078
C63	C	0.617505	-0.662427	0.000031
C64	C	0.616793	-0.721825	0.000038
C65	C	0.720640	-0.735990	0.000053
C66	C	0.721352	-0.676591	0.000054
C67	C	0.669783	-0.639810	0.000039
C68	C	0.727179	-0.189526	0.000099
C69	C	0.727886	-0.130124	0.000113
C70	C	0.624039	-0.115965	0.000093
C71	C	0.623332	-0.175361	0.000084
C72	C	0.674907	-0.212141	0.000084
O73	O	0.578083	-0.263312	0.000090
O74	O	0.770214	-0.289562	0.000073
C75	C	0.776489	0.069258	0.000091
C76	C	0.839708	0.070014	0.000093
C77	C	0.667592	0.178171	0.000053
C78	C	0.668358	0.241388	0.000039
N79	N	0.672328	0.074015	0.235434
N80	N	0.672355	0.074026	-0.235280
C81	C	0.711278	0.035087	0.287489
C82	C	0.711281	0.035087	0.391592
C83	C	0.672337	0.074017	0.443639
C84	C	0.633384	0.112946	0.391577
C85	C	0.633378	0.112944	0.287476
C86	C	0.633399	0.112950	0.608557
C87	C	0.633406	0.112954	0.712666
C88	C	0.711303	0.035093	0.712673
C89	C	0.711297	0.035090	0.608572
C90	C	0.672344	0.074021	0.556517
H91	H	0.226210	0.074670	-0.253658
O92	O	0.753303	-0.006893	0.447728
H93	H	0.746312	-0.051256	0.427760
O94	O	0.591362	0.154921	0.231318
H95	H	0.615168	0.182472	0.183855
O96	O	0.507304	0.078055	-0.187347
H97	H	0.553596	0.078606	-0.172194
H98	H	-0.047012	0.071381	0.163653
H99	H	0.743011	0.003393	0.566195
H100	H	0.743020	0.003395	0.755062
O101	O	0.591392	0.154929	0.768809
H102	H	0.564295	0.181991	0.715125
H103	H	0.819115	-0.392037	0.000095
O104	O	0.568426	-0.076284	0.000087
H105	H	0.531950	-0.101984	0.000083
H106	H	0.601677	0.144649	0.566178
H107	H	0.601672	0.144642	0.433960
O108	O	0.383839	0.076560	-0.187342
H109	H	0.414477	0.076925	-0.250025
H110	H	-0.154771	0.070089	-0.163480
H111	H	0.580761	-0.193774	0.000098
H112	H	0.742992	0.003388	0.245119
H113	H	0.526862	-0.352154	0.000004
O114	O	0.776257	-0.775672	0.000053
H115	H	0.801287	-0.767685	0.067469
O116	O	0.561878	-0.622761	0.000038
H117	H	0.559711	-0.595354	-0.067371
H118	H	-0.047021	0.071377	-0.163495
O119	O	0.507293	0.078073	0.187445
H120	H	0.476657	0.077703	0.250129
O121	O	0.110484	0.073319	0.277510
H122	H	0.127083	0.034660	0.320904
O123	O	0.560402	-0.746209	0.000033
H124	H	0.557585	-0.772937	0.067442
O125	O	0.110626	0.073257	-0.277489
H126	H	0.116733	0.112207	-0.320755
O127	O	0.383839	0.076569	0.187455
H128	H	0.414473	0.076946	0.250134
O129	O	0.234052	0.074752	0.277618
H130	H	0.203412	0.074380	0.340296
H131	H	0.817825	-0.499782	0.000077
H132	H	-0.154778	0.070077	0.163650
O133	O	0.784276	-0.105732	0.000116
H134	H	0.820012	-0.141292	0.000104
H135	H	0.769176	-0.219466	0.000095
O136	O	0.777739	-0.652201	0.000054
H137	H	0.813473	-0.687762	0.000050
O138	O	0.511751	-0.465884	-0.000004
H139	H	0.476020	-0.430320	-0.000021
