data_functionalizedCrystal
_audit_creation_method	'MofGen! by Chris Wilmer'
_symmetry_space_group_name_H-M	'P1'
_symmetry_Int_Tables_number	1
_symmetry_cell_setting	triclinic
loop_
_symmetry_equiv_pos_as_xyz
  x,y,z
_cell_length_a	10.654541
_cell_length_b	9.730217
_cell_length_c	12.837942
_cell_angle_alpha	90.002054
_cell_angle_beta	90.343566
_cell_angle_gamma	89.997646
loop_
_atom_site_label
_atom_site_type_symbol
_atom_site_fract_x
_atom_site_fract_y
_atom_site_fract_z
O1	O	1.683743	-0.114247	-0.145708
O2	O	1.319779	-0.114259	-0.159594
O3	O	1.493691	-0.114245	-0.001690
O4	O	1.509832	-0.114261	-0.303612
O5	O	1.493676	0.114336	-0.001691
O6	O	1.319765	0.114321	-0.159595
O7	O	1.683729	0.114333	-0.145709
Zn8	Zn	1.501745	0.150619	-0.152652
Zn9	Zn	1.501764	-0.150545	-0.152651
O10	O	1.509817	0.114319	-0.303613
C11	C	1.272863	0.000030	-0.158576
C12	C	1.133087	0.000025	-0.155527
N13	N	1.501741	0.356156	-0.152653
C14	C	1.488231	0.000045	0.036969
C15	C	1.471968	0.000042	0.152163
C16	C	1.125720	-0.000002	-0.344343
C17	C	1.056372	-0.000021	-0.437315
C18	C	0.925040	-0.000022	-0.434444
C19	C	0.863055	-0.000000	-0.338591
C20	C	0.932404	0.000019	-0.245619
C21	C	1.063738	0.000016	-0.248501
C22	C	0.939770	0.000056	-0.056805
C23	C	1.071102	0.000048	-0.059673
C24	C	0.877785	0.000078	0.039049
C25	C	0.947134	0.000088	0.132023
C26	C	1.078473	0.000087	0.129147
C27	C	1.140450	0.000067	0.033298
C28	C	1.730645	0.000042	-0.146727
C29	C	1.870421	0.000037	-0.149776
C30	C	1.655842	0.643893	-0.012864
C31	C	1.732866	0.571940	0.057031
C32	C	1.732851	0.428060	0.057034
C33	C	1.655805	0.356130	-0.012867
C34	C	1.578781	0.428083	-0.082761
C35	C	1.578802	0.571966	-0.082755
C36	C	1.424716	0.428109	-0.222547
C37	C	1.424724	0.571989	-0.222548
C38	C	1.347671	0.356178	-0.292448
C39	C	1.270638	0.428131	-0.362340
C40	C	1.270656	0.572020	-0.362339
C41	C	1.347699	0.643941	-0.292442
N42	N	1.501769	0.643919	-0.152647
C43	C	1.515277	0.000027	-0.342272
C44	C	1.531540	0.000021	-0.457466
C45	C	1.667473	0.000019	0.391717
C46	C	1.652199	0.000017	0.499953
C47	C	1.426147	0.000024	0.476872
C48	C	1.441421	0.000026	0.368636
C49	C	1.562088	0.000026	0.326063
C50	C	1.577361	0.000039	0.217825
C51	C	1.351310	0.000036	0.194746
C52	C	1.336036	0.000033	0.302982
H53	H	1.232657	-0.000031	-0.346691
Br54	Br	1.140498	-0.000047	-0.567396
H55	H	0.770848	0.000085	0.041380
Br56	Br	1.831229	0.000062	0.333934
Br57	Br	1.208279	0.000070	0.105638
Br58	Br	1.262398	-0.000026	0.534668
H59	H	0.868576	-0.000028	-0.510150
Br60	Br	1.837433	0.669559	0.151887
H61	H	1.247387	0.000050	0.030948
Br62	Br	0.684818	0.000029	-0.334696
H63	H	1.655809	0.238975	-0.012868
H64	H	1.347667	0.239024	-0.292447
H65	H	0.896655	0.000105	0.210059
H66	H	1.675614	0.000044	0.183165
Br67	Br	1.837395	0.330406	0.151883
Br68	Br	1.655849	0.839160	-0.012844
Br69	Br	1.172579	0.000130	0.255331
Br70	Br	1.166098	0.330510	-0.457205
H71	H	1.207938	0.630596	-0.419260
H72	H	1.347716	0.761096	-0.292432
H73	H	1.738015	0.000007	0.553405
H74	H	1.237792	0.000028	0.337660
