data_functionalizedCrystal
_audit_creation_method	'MofGen! by Chris Wilmer'
_symmetry_space_group_name_H-M	'P1'
_symmetry_Int_Tables_number	1
_symmetry_cell_setting	triclinic
loop_
_symmetry_equiv_pos_as_xyz
  x,y,z
_cell_length_a	27.440280
_cell_length_b	14.560438
_cell_length_c	14.560438
_cell_angle_alpha	59.997518
_cell_angle_beta	90.004015
_cell_angle_gamma	59.999049
loop_
_atom_site_label
_atom_site_type_symbol
_atom_site_fract_x
_atom_site_fract_y
_atom_site_fract_z
Zr1	Zr	0.469501	1.005206	-0.120460
O2	O	0.391681	1.196832	-0.267136
O3	O	0.493357	0.813593	-0.075490
O4	O	0.493356	1.005202	-0.267103
O5	O	0.391682	1.005221	0.075617
O6	O	0.573558	1.005184	-0.267084
O7	O	0.391682	1.005223	-0.075523
O8	O	0.573560	0.662431	0.075676
O9	O	0.391681	1.347975	-0.267142
O10	O	0.563385	0.892388	-0.056305
O11	O	0.503531	0.892400	0.056476
O12	O	0.503530	1.117995	-0.169123
O13	O	0.443676	1.118007	-0.056343
Zr14	Zr	0.597416	1.005175	0.120621
Zr15	Zr	0.597415	1.005178	-0.120430
Zr16	Zr	0.469502	1.005203	0.120591
Zr17	Zr	0.469500	1.246261	-0.120471
Zr18	Zr	0.597416	0.764119	0.120632
O19	O	0.573560	1.196788	0.075651
O20	O	0.573558	1.196792	-0.267093
O21	O	0.391682	1.196828	0.075609
O22	O	0.675236	0.813549	0.267297
O23	O	0.675234	0.813553	-0.075448
O24	O	0.493358	0.813589	0.267254
O25	O	0.675234	1.005160	-0.075456
O26	O	0.573561	1.005179	0.267264
O27	O	0.493358	1.005196	0.267245
O28	O	0.675235	1.005158	0.075684
O29	O	0.493355	1.347952	-0.267118
O30	O	0.573561	0.662429	0.267279
O31	O	0.675236	0.662406	0.267303
O32	O	0.675235	0.662408	0.075700
O33	O	0.391682	1.347973	-0.075539
O34	O	0.493356	1.347950	-0.075515
O35	O	0.563386	0.892386	0.169284
O36	O	0.623240	0.892374	0.056504
O37	O	0.563385	1.117981	-0.056315
O38	O	0.503531	1.117993	0.056465
C39	C	0.533458	0.703667	0.000094
C40	C	0.533458	0.601332	0.000099
C41	C	0.373457	1.005226	0.000043
C42	C	0.319154	1.005238	0.000030
C43	C	0.489273	0.540404	-0.083211
C44	C	0.489272	0.636548	-0.083191
C45	C	0.577645	0.469963	0.083380
C46	C	0.577644	0.373823	0.083364
C47	C	0.445088	0.575630	-0.166513
C48	C	0.400900	0.706993	-0.249793
C49	C	0.400899	0.803136	-0.249773
C50	C	0.445085	0.767917	-0.166473
C51	C	0.013700	0.887404	0.059002
C52	C	-0.037318	0.887397	0.059012
O53	O	-0.037135	0.787243	0.109130
N54	N	-0.094079	1.005160	0.000120
C55	C	-0.099820	1.122939	-0.058775
O56	O	-0.152784	1.223105	-0.108865
C57	C	-0.048802	1.122944	-0.058778
C58	C	0.007958	1.005173	0.000108
C59	C	0.070457	0.769643	0.117884
C60	C	0.121472	0.769651	0.117872
C61	C	0.115730	0.887420	0.058978
C62	C	0.058972	1.005181	0.000096
C63	C	-0.054544	1.240721	-0.117667
C64	C	-0.003520	1.240717	-0.117664
C65	C	0.053240	1.122946	-0.058778
C66	C	0.104245	1.122958	-0.058810
N67	N	0.161005	1.005195	0.000081
C68	C	0.166748	0.887426	0.058975
C69	C	-0.206959	1.122917	-0.058764
C70	C	-0.257976	1.122913	-0.058768
C71	C	-0.195471	0.887371	0.059021
C72	C	-0.144453	0.887377	0.059018
C73	C	-0.150198	1.005154	0.000128
C74	C	0.273880	0.887451	0.058945
C75	C	0.324897	0.887469	0.058924
C76	C	0.262387	1.123010	-0.058860
C77	C	0.211375	1.122992	-0.058844
C78	C	0.217125	1.005202	0.000067
O79	O	0.104107	1.223061	-0.108899
O80	O	0.219713	0.787276	0.109069
C81	C	0.693459	1.005155	0.000118
C82	C	0.747762	1.005143	0.000131
C83	C	0.533457	1.005194	-0.301438
C84	C	0.533456	1.005195	-0.403771
C85	C	0.533458	1.306714	0.000067
C86	C	0.533458	1.409049	0.000062
C87	C	0.577645	1.005175	-0.547983
C88	C	0.577643	1.005184	-0.451836
C89	C	0.489266	1.005210	-0.451864
C90	C	0.489267	1.005210	-0.548015
C91	C	0.621838	1.005150	-0.596037
C92	C	0.666028	1.005137	-0.547951
C93	C	0.666025	1.005146	-0.451804
C94	C	0.621832	1.005168	-0.403742
C95	C	0.533460	1.005187	0.301599
C96	C	0.533460	1.005186	0.403932
C97	C	0.693459	0.703631	0.000132
C98	C	0.747762	0.601285	0.000149
C99	C	0.533460	0.703663	0.301613
C100	C	0.533460	0.601328	0.403950
C101	C	0.693461	0.703628	0.301650
C102	C	0.747764	0.601280	0.404001
C103	C	0.373456	1.306753	-0.301489
C104	C	0.319152	1.409100	-0.403840
C105	C	0.373457	1.306750	0.000029
C106	C	0.319154	1.409096	0.000012
C107	C	0.533457	1.306718	-0.301452
C108	C	0.533456	1.409053	-0.403789
C109	C	0.742020	0.553229	-0.058737
C110	C	0.793038	0.457077	-0.058744
C111	C	0.849799	0.408976	0.000144
C112	C	0.855540	0.457041	0.059033
C113	C	0.804522	0.553198	0.059032
C114	C	0.804514	0.553211	0.393195
C115	C	0.855543	0.457058	0.489355
C116	C	0.849820	0.408970	0.596319
C117	C	0.793064	0.457049	0.607122
C118	C	0.742037	0.553207	0.510963
C119	C	0.262402	1.457182	-0.393034
C120	C	0.211373	1.553365	-0.489194
C121	C	0.217096	1.601458	-0.596158
C122	C	0.273852	1.553372	-0.606961
C123	C	0.324879	1.457198	-0.510802
C124	C	0.324896	1.457161	0.058888
C125	C	0.273878	1.553340	0.058868
C126	C	0.217118	1.601445	-0.000023
C127	C	0.211376	1.553375	-0.058907
C128	C	0.262394	1.457205	-0.058893
C129	C	0.564705	0.553238	0.510913
C130	C	0.564701	0.457088	0.607066
C131	C	0.502206	0.457122	0.489279
C132	C	0.502207	0.553277	0.393128
C133	C	0.595958	0.601289	0.521735
C134	C	0.627206	0.553198	0.628703
C135	C	0.627202	0.457048	0.724856
C136	C	0.595949	0.408989	0.714040
H137	H	0.364923	0.735659	-0.317609
O138	O	0.357947	0.930677	-0.330775
C139	C	0.270275	1.085754	-0.495956
C140	C	0.318889	0.941266	-0.404298
H141	H	0.238676	1.094361	-0.555410
H142	H	0.292025	1.134970	-0.545380
H143	H	0.244108	1.134902	-0.454879
H144	H	0.345072	0.892006	-0.445283
H145	H	0.297102	0.892145	-0.354882
H146	H	0.175541	1.679769	-0.674447
O147	O	0.899417	0.315598	0.000227
C148	C	1.006924	0.177491	0.064920
C149	C	0.950785	0.283268	0.064897
H150	H	1.048469	0.151300	0.117219
H151	H	1.006972	0.215280	-0.025082
H152	H	1.006886	0.087512	0.102704
H153	H	0.950785	0.373282	0.027165
H154	H	0.950758	0.245374	0.154919
H155	H	0.257731	1.418030	-0.305947
H156	H	0.652640	0.417904	0.811949
H157	H	0.445075	0.846210	-0.166454
H158	H	0.695831	0.592333	0.519777
O159	O	0.787404	0.410515	0.710946
C160	C	0.720063	0.420570	0.817636
C161	C	0.726386	0.473410	0.699987
H162	H	0.670733	0.471377	0.808815
H163	H	0.742355	0.439522	0.865607
H164	H	0.742430	0.311607	0.865590
H165	H	0.704016	0.582379	0.651939
H166	H	0.704111	0.454357	0.652101
O167	O	0.708924	1.005064	-0.594750
C168	C	0.748075	1.005120	-0.742895
C169	C	0.699468	1.005171	-0.689998
H170	H	0.740440	1.005234	-0.819926
H171	H	0.793864	0.914682	-0.678826
H172	H	0.745883	1.095509	-0.769136
H173	H	0.701605	0.914843	-0.663759
H174	H	0.653701	1.095669	-0.754102
H175	H	0.165165	1.592500	-0.480376
O176	O	0.620539	0.435978	0.164177
C177	C	0.659687	0.510265	0.238056
C178	C	0.611081	0.548937	0.146475
H179	H	0.652050	0.601569	0.223789
H180	H	0.705476	0.450349	0.233927
H181	H	0.657496	0.450232	0.324310
H182	H	0.613217	0.609016	0.060178
H183	H	0.565313	0.608788	0.150703
H184	H	0.613622	0.266865	0.151174
O185	O	0.686842	0.600051	-0.115852
C186	C	0.580543	0.748261	-0.168143
C187	C	0.642993	0.695331	-0.103381
H188	H	0.545074	0.825324	-0.158102
H189	H	0.575125	0.665486	-0.133256
H190	H	0.575201	0.793222	-0.261092
H191	H	0.648378	0.650385	-0.010423
H192	H	0.648383	0.778153	-0.138360
H193	H	0.453287	1.005222	-0.587167
H194	H	0.257710	1.418073	-0.106834
O195	O	-0.009210	1.355246	-0.174972
C196	C	-0.076595	1.588869	-0.291731
C197	C	-0.070236	1.459263	-0.226898
H198	H	-0.125932	1.673000	-0.333711
H199	H	-0.054317	1.594862	-0.358672
H200	H	-0.054235	1.594687	-0.230732
H201	H	-0.092599	1.453357	-0.287811
H202	H	-0.092498	1.453324	-0.159942
O203	O	0.167545	1.695029	-0.000227
C204	C	0.077176	1.912164	-0.111687
C205	C	0.133294	1.806306	-0.111622
H206	H	0.049462	2.002147	-0.201742
H207	H	0.091006	1.938353	-0.059557
H208	H	0.049494	1.874316	-0.073804
H209	H	0.161001	1.844066	-0.149525
H210	H	0.119422	1.780133	-0.163719
H211	H	0.476766	0.592431	0.306033
O212	O	0.446329	1.005394	-0.405160
C213	C	0.365324	1.117365	-0.352644
C214	C	0.413933	1.117308	-0.405536
H215	H	0.339110	1.207851	-0.352952
H216	H	0.387079	1.027011	-0.262385
H217	H	0.333767	1.117310	-0.403515
H218	H	0.445505	1.117408	-0.354755
H219	H	0.392137	1.207653	-0.495805
H220	H	0.371113	0.791561	0.106879
O221	O	0.910637	0.410592	0.478693
C222	C	0.979642	0.460340	0.407456
C223	C	0.917231	0.513128	0.419438
H224	H	0.984998	0.543209	0.359570
H225	H	0.985023	0.415381	0.359457
H226	H	1.015129	0.383317	0.494555
H227	H	0.881706	0.590196	0.332385
H228	H	0.911901	0.558006	0.467493
H229	H	0.371086	1.418051	-0.519614
O230	O	0.471802	0.410615	0.478574
C231	C	0.409851	0.420727	0.351601
C232	C	0.444245	0.473535	0.363566
H233	H	0.387572	0.471556	0.258624
H234	H	0.374334	0.439681	0.393594
H235	H	0.442223	0.311766	0.393742
H236	H	0.411918	0.582503	0.321419
H237	H	0.479769	0.454481	0.321604
O238	O	0.910648	0.410270	0.116409
C239	C	0.979697	0.301539	0.296244
C240	C	0.917263	0.354495	0.231388
H241	H	0.985070	0.256408	0.389219
H242	H	0.985107	0.384317	0.261464
H243	H	1.015156	0.224603	0.286064
H244	H	0.881767	0.431411	0.241540
H245	H	0.911905	0.271646	0.266182
H246	H	0.788352	0.417955	-0.106697
O247	O	0.380074	1.410267	0.116076
C248	C	0.486373	1.262182	0.168242
C249	C	0.423924	1.315137	0.103455
H250	H	0.521842	1.185279	0.158041
H251	H	0.491792	1.217083	0.261231
H252	H	0.491715	1.345061	0.133348
H253	H	0.418539	1.232329	0.138253
H254	H	0.418533	1.360273	0.010473
H255	H	-0.304189	1.218814	-0.106734
O256	O	0.621929	1.005128	-0.310320
C257	C	0.670391	1.005217	-0.172376
C258	C	0.670358	1.005238	-0.278160
H259	H	0.709535	1.005334	-0.146357
H260	H	0.674830	0.914789	-0.100998
H261	H	0.626800	1.095616	-0.191511
H262	H	0.713940	0.914900	-0.259135
H263	H	0.665888	1.095726	-0.349506
H264	H	0.595943	0.330706	0.792339
H265	H	0.075144	0.673736	0.165848
H266	H	0.809206	0.592312	0.106991
O267	O	0.899453	0.315515	0.689606
C268	C	1.006962	0.177586	0.762953
C269	C	0.950801	0.283403	0.657219
H270	H	1.048491	0.151611	0.736806
H271	H	1.007022	0.087477	0.815170
H272	H	1.006946	0.215403	0.815168
H273	H	0.950780	0.245708	0.604916
H274	H	0.950762	0.373492	0.605086
H275	H	0.278504	1.592542	-0.694062
O276	O	0.709005	1.005082	-0.405209
C277	C	0.796643	1.005127	-0.415370
C278	C	0.748008	1.005177	-0.468239
H279	H	0.828182	1.005231	-0.466320
H280	H	0.822876	0.914695	-0.325154
H281	H	0.774845	1.095522	-0.415536
H282	H	0.769757	0.914844	-0.468153
H283	H	0.721779	1.095669	-0.558426
H284	H	0.278564	1.592462	0.106823
O285	O	0.156224	1.599984	-0.115924
C286	C	0.062341	1.629510	-0.105112
C287	C	0.124789	1.576647	-0.040411
H288	H	0.036902	1.610686	-0.044092
H289	H	0.066954	1.578626	-0.147163
H290	H	0.036918	1.738450	-0.172009
H291	H	0.150246	1.467716	0.026538
H292	H	0.120132	1.627628	0.001561
H293	H	0.278571	0.791535	0.106917
H294	H	0.445086	0.497355	-0.166542
H295	H	0.621846	1.005139	-0.674323
H296	H	0.809185	0.592350	0.306108
O297	O	0.657473	0.600109	0.639064
C298	C	0.651742	0.787789	0.598902
C299	C	0.617396	0.734839	0.587063
H300	H	0.619353	0.896719	0.556888
H301	H	0.687211	0.768972	0.556791
H302	H	0.674090	0.736844	0.691876
H303	H	0.595012	0.785750	0.494118
H304	H	0.581961	0.753637	0.629245
H305	H	0.167685	0.673749	0.165818
O306	O	-0.089306	0.773009	0.116049
C307	C	0.004580	0.636330	0.105297
C308	C	-0.057858	0.765891	0.040562
H309	H	0.030028	0.630545	0.044299
H310	H	-0.000051	0.552113	0.147352
H311	H	0.030003	0.630456	0.172193
H312	H	-0.083316	0.771892	-0.026386
H313	H	-0.053184	0.850046	-0.001413
H314	H	0.595966	0.679576	0.443449
H315	H	-0.190803	0.791477	0.106972
H316	H	-0.211645	1.218832	-0.106725
H317	H	-0.100753	1.336623	-0.165617
O318	O	0.156281	1.237508	-0.116086
C319	C	0.099675	1.471133	-0.233006
C320	C	0.162100	1.341537	-0.168206
H321	H	0.104358	1.555274	-0.275182
H322	H	0.074215	1.477129	-0.172063
H323	H	0.074234	1.476930	-0.299816
H324	H	0.187590	1.335653	-0.101396
H325	H	0.187514	1.335596	-0.229219
H326	H	0.257722	1.218894	-0.106814
