data_functionalizedCrystal
_audit_creation_method	'MofGen! by Chris Wilmer'
_symmetry_space_group_name_H-M	'P1'
_symmetry_Int_Tables_number	1
_symmetry_cell_setting	triclinic
loop_
_symmetry_equiv_pos_as_xyz
  x,y,z
_cell_length_a	19.121063
_cell_length_b	18.215407
_cell_length_c	18.215399
_cell_angle_alpha	90.019833
_cell_angle_beta	92.409843
_cell_angle_gamma	87.530554
loop_
_atom_site_label
_atom_site_type_symbol
_atom_site_fract_x
_atom_site_fract_y
_atom_site_fract_z
Zn1	Zn	-0.279613	-1.112559	-0.428596
Zn2	Zn	0.220387	-0.612559	0.071404
Zn3	Zn	-0.397068	-1.107212	-0.310772
Zn4	Zn	0.102932	-0.607212	0.189228
Zn5	Zn	-0.279636	-0.989491	-0.305544
Zn6	Zn	0.220364	-0.489491	0.194456
Zn7	Zn	-0.397029	-0.984203	-0.433795
Zn8	Zn	0.102971	-0.484203	0.066205
O9	O	-0.338336	-1.048366	-0.369677
O10	O	0.161664	-0.548366	0.130323
O11	O	-0.295200	-1.214834	-0.412978
O12	O	0.204800	-0.714834	0.087022
O13	O	-0.381516	-1.091570	-0.207095
O14	O	0.118484	-0.591570	0.292905
O15	O	-0.181348	-1.010267	-0.317504
O16	O	0.318652	-0.510267	0.182496
O17	O	-0.381494	-1.210905	-0.326414
O18	O	0.118506	-0.710905	0.173586
O19	O	-0.181331	-1.100685	-0.407909
O20	O	0.318669	-0.600685	0.092091
O21	O	-0.295240	-1.005081	-0.203255
O22	O	0.204760	-0.505081	0.296745
O23	O	-0.295202	-0.885805	-0.322545
O24	O	0.204798	-0.385805	0.177455
O25	O	-0.381427	-1.001255	-0.536089
O26	O	0.118573	-0.501255	-0.036089
O27	O	-0.381450	-0.881921	-0.416771
O28	O	0.118550	-0.381921	0.083229
O29	O	-0.295162	-1.095558	-0.532269
O30	O	0.204838	-0.595558	-0.032269
O31	O	-0.495348	-1.086443	-0.331455
O32	O	0.004652	-0.586443	0.168545
O33	O	-0.495319	-0.996070	-0.421840
O34	O	0.004681	-0.496070	0.078160
C35	C	-0.338324	-0.857160	-0.369655
C36	C	0.161676	-0.357160	0.130345
C37	C	-0.338336	-0.775361	-0.369664
C38	C	0.161664	-0.275361	0.130336
C39	C	-0.520817	-1.040122	-0.377795
C40	C	-0.020817	-0.540122	0.122205
C41	C	-0.598883	-1.036663	-0.381293
C42	C	-0.098883	-0.536663	0.118707
C43	C	-0.338288	-1.048413	-0.561628
C44	C	0.161712	-0.548413	-0.061628
C45	C	-0.338267	-1.048433	-0.643426
C46	C	0.161733	-0.548433	-0.143426
C47	C	-0.635551	-1.082127	-0.335916
C48	C	-0.135551	-0.582127	0.164084
C49	C	-0.708902	-1.078878	-0.339210
C50	C	-0.208902	-0.578878	0.160790
C51	C	-0.745585	-1.030161	-0.387877
C52	C	-0.245585	-0.530161	0.112123
C53	C	-0.708912	-0.984695	-0.433258
C54	C	-0.208912	-0.484695	0.066742
C55	C	-0.635562	-0.987948	-0.429968
C56	C	-0.135562	-0.487948	0.070032
C57	C	-0.967055	-1.017985	-0.400168
C58	C	-0.467055	-0.517985	0.099832
C59	C	-1.040410	-1.014733	-0.403454
C60	C	-0.540410	-0.514733	0.096546
C61	C	-1.040394	-1.108918	-0.309406
C62	C	-0.540394	-0.608918	0.190594
C63	C	-0.967043	-1.112164	-0.306117
C64	C	-0.467043	-0.612164	0.193883
C65	C	-0.930377	-1.066701	-0.351501
C66	C	-0.430377	-0.566701	0.148499
C67	C	-0.820561	-1.026837	-0.391243
C68	C	-0.320561	-0.526837	0.108757
C69	C	-0.855401	-1.070029	-0.348138
C70	C	-0.355401	-0.570029	0.151862
C71	C	-0.155143	-1.056662	-0.361543
C72	C	0.344857	-0.556662	0.138457
C73	C	-0.077077	-1.060197	-0.358077
C74	C	0.422923	-0.560197	0.141923
C75	C	-0.338349	-1.240319	-0.369699
C76	C	0.161651	-0.740319	0.130301
C77	C	-0.338354	-1.322117	-0.369709
C78	C	0.161646	-0.822117	0.130291
C79	C	-0.383316	-0.585160	-0.418671
C80	C	0.116684	-0.085160	0.081329
C81	C	-0.383318	-0.508302	-0.418681
C82	C	0.116682	-0.008302	0.081319
C83	C	-0.293369	-0.512323	-0.320699
C84	C	0.206631	-0.012323	0.179301
C85	C	-0.293364	-0.589181	-0.320694
C86	C	0.206636	-0.089181	0.179306
C87	C	-0.338342	-0.625597	-0.369679
C88	C	0.161658	-0.125597	0.130321
C89	C	-0.338349	-0.471881	-0.369694
C90	C	0.161651	0.028119	0.130306
C91	C	-0.338351	-0.388547	-0.369703
C92	C	0.161649	0.111453	0.130297
C93	C	-0.338339	-0.708936	-0.369671
C94	C	0.161661	-0.208936	0.130329
C95	C	-0.293307	-1.097555	-0.829630
C96	C	0.206693	-0.597555	-0.329630
C97	C	-0.293287	-1.097565	-0.906488
C98	C	0.206713	-0.597565	-0.406488
C99	C	-0.383119	-0.999368	-0.910455
C100	C	0.116881	-0.499368	-0.410455
C101	C	-0.383135	-0.999355	-0.833598
C102	C	0.116865	-0.499355	-0.333598
C103	C	-0.338231	-1.048453	-0.793188
C104	C	0.161769	-0.548453	-0.293188
C105	C	-0.338194	-1.048476	-0.946902
C106	C	0.161806	-0.548476	-0.446902
C107	C	-0.338172	-1.048486	-1.030235
C108	C	0.161828	-0.548486	-0.530235
C109	C	-0.338251	-1.048442	-0.709850
C110	C	0.161749	-0.548442	-0.209850
C111	C	-0.338334	-1.048364	-0.178471
C112	C	0.161666	-0.548364	0.321529
C113	C	-0.338157	-1.048495	-0.096664
C114	C	0.161843	-0.548495	0.403336
H115	H	-0.738753	-1.115899	-0.302259
H116	H	-0.238753	-0.615899	0.197741
H117	H	-0.419680	-0.959396	-0.943366
H118	H	0.080320	-0.459396	-0.443366
N119	N	-0.927516	-0.968943	-0.449110
N120	N	-0.427516	-0.468943	0.050890
H121	H	-0.897129	-0.936206	-0.417806
H122	H	-0.397129	-0.436206	0.082194
H123	H	-0.897079	-1.000230	-0.481870
H124	H	-0.397079	-0.500230	0.018130
H125	H	-0.419717	-0.959365	-0.803926
H126	H	0.080283	-0.459365	-0.303926
N127	N	-0.596006	-0.938913	-0.478905
N128	N	-0.096006	-0.438913	0.021095
H129	H	-0.608727	-0.949748	-0.532069
H130	H	-0.108727	-0.449748	-0.032069
H131	H	-0.608832	-0.885788	-0.467941
H132	H	-0.108832	-0.385788	0.032059
N133	N	-0.244876	-0.473038	-0.267857
N134	N	0.255124	0.026962	0.232143
H135	H	-0.194702	-0.488673	-0.277130
H136	H	0.305298	0.011327	0.222870
H137	H	-0.251772	-0.418225	-0.275322
H138	H	0.248228	0.081775	0.224678
N139	N	-0.927479	-1.164720	-0.253637
N140	N	-0.427479	-0.664720	0.246363
H141	H	-0.961839	-1.193034	-0.225395
H142	H	-0.461839	-0.693034	0.274605
H143	H	-0.897005	-1.200107	-0.282270
H144	H	-0.397005	-0.700107	0.217730
N145	N	-0.244845	-0.632802	-0.267859
N146	N	0.255155	-0.132802	0.232141
H147	H	-0.216354	-0.598072	-0.236826
H148	H	0.283646	-0.098072	0.263174
H149	H	-0.273385	-0.663394	-0.235021
H150	H	0.226615	-0.163394	0.264979
N151	N	-0.595991	-1.134679	-0.283430
N152	N	-0.095991	-0.634679	0.216570
H153	H	-0.543959	-1.129843	-0.288228
H154	H	-0.043959	-0.629843	0.211772
H155	H	-0.608856	-1.122688	-0.231436
H156	H	-0.108856	-0.622688	0.268564
N157	N	-0.244876	-1.150507	-0.786043
N158	N	0.255124	-0.650507	-0.286043
H159	H	-0.216414	-1.181613	-0.820795
H160	H	0.283586	-0.681613	-0.320795
H161	H	-0.212379	-1.122017	-0.752706
H162	H	0.287621	-0.622017	-0.252706
H163	H	-0.256705	-1.137548	-0.936156
H164	H	0.243295	-0.637548	-0.436156
H165	H	-1.070256	-1.145933	-0.272458
H166	H	-0.570256	-0.645933	0.227542
N167	N	-1.079977	-0.962185	-0.455946
N168	N	-0.579977	-0.462185	0.044054
H169	H	-1.045620	-0.933879	-0.484199
H170	H	-0.545620	-0.433879	0.015801
H171	H	-1.110367	-0.990778	-0.491389
H172	H	-0.610367	-0.490778	0.008611
H173	H	-0.825532	-1.109698	-0.308516
H174	H	-0.325532	-0.609698	0.191484
N175	N	-0.748473	-0.932151	-0.485752
N176	N	-0.248473	-0.432151	0.014248
H177	H	-0.800504	-0.936985	-0.480950
H178	H	-0.300504	-0.436985	0.019050
H179	H	-0.735698	-0.880165	-0.473675
H180	H	-0.235698	-0.380165	0.026325
H181	H	-0.850437	-0.987169	-0.430866
H182	H	-0.350437	-0.487169	0.069134
N183	N	-0.431825	-0.624436	-0.471506
N184	N	0.068175	-0.124436	0.028494
H185	H	-0.420980	-0.611573	-0.523624
H186	H	0.079020	-0.111573	-0.023624
H187	H	-0.424979	-0.679249	-0.464005
H188	H	0.075021	-0.179249	0.035995
N189	N	-0.431830	-0.464687	-0.471519
N190	N	0.068170	0.035313	0.028481
H191	H	-0.460321	-0.499421	-0.502547
H192	H	0.039679	0.000579	-0.002547
H193	H	-0.464296	-0.431321	-0.442950
H194	H	0.035704	0.068679	0.057050
