data_functionalizedCrystal
_audit_creation_method	'MofGen! by Chris Wilmer'
_symmetry_space_group_name_H-M	'P1'
_symmetry_Int_Tables_number	1
_symmetry_cell_setting	triclinic
loop_
_symmetry_equiv_pos_as_xyz
  x,y,z
_cell_length_a	14.971506
_cell_length_b	14.971486
_cell_length_c	14.048226
_cell_angle_alpha	89.996728
_cell_angle_beta	90.005503
_cell_angle_gamma	83.618258
loop_
_atom_site_label
_atom_site_type_symbol
_atom_site_fract_x
_atom_site_fract_y
_atom_site_fract_z
O1	O	1.186939	0.116645	0.079090
O2	O	0.926541	0.130585	0.079104
O3	O	1.063719	-0.006585	0.079104
O4	O	1.049760	0.253814	0.079090
O5	O	1.063697	-0.006581	-0.079218
O6	O	0.926519	0.130588	-0.079218
O7	O	1.186916	0.116648	-0.079231
Zn8	Zn	1.056714	0.123619	-0.104361
Zn9	Zn	1.056743	0.123614	0.104234
O10	O	1.049738	0.253818	-0.079231
C11	C	0.893205	0.129960	-0.000055
C12	C	0.793909	0.128082	-0.000049
C13	C	1.063084	-0.039908	-0.000053
C14	C	1.061213	-0.139205	-0.000041
C15	C	1.220252	0.117273	-0.000070
C16	C	1.319548	0.119151	-0.000069
C17	C	1.050374	0.287141	-0.000072
C18	C	1.052244	0.386438	-0.000077
C19	C	1.757831	0.045733	-0.000045
C20	C	1.664530	0.043976	-0.000043
C21	C	1.607311	0.124568	-0.000053
C22	C	1.643395	0.206923	-0.000054
C23	C	1.736694	0.208680	-0.000049
C24	C	1.448932	0.203256	-0.000067
C25	C	1.355627	0.201500	-0.000074
C26	C	1.376769	0.038552	-0.000061
C27	C	1.470067	0.040309	-0.000056
C28	C	1.506145	0.122664	-0.000059
N29	N	1.056701	0.123621	-0.246722
C30	C	0.971656	0.443658	-0.000072
C31	C	0.973419	0.536957	-0.000059
C32	C	1.055771	0.573035	-0.000059
C33	C	1.136366	0.515809	-0.000061
C34	C	1.134602	0.422511	-0.000067
C35	C	1.140037	0.710271	-0.000051
C36	C	1.141802	0.803576	-0.000047
C37	C	0.978854	0.824718	-0.000043
C38	C	0.977090	0.731420	-0.000049
C39	C	1.057685	0.674200	-0.000053
C40	C	1.117515	0.062891	-0.703561
C41	C	1.117507	0.062897	-0.603904
C42	C	1.056743	0.123614	-0.554092
C43	C	0.995989	0.184334	-0.603943
C44	C	0.996002	0.184331	-0.703599
C45	C	0.995964	0.184333	-0.396229
C46	C	0.995950	0.184335	-0.296566
C47	C	1.117469	0.062899	-0.296533
C48	C	1.117482	0.062897	-0.396189
C49	C	1.056727	0.123616	-0.446033
N50	N	1.056764	0.123605	0.246595
H51	H	1.804414	-0.019895	-0.000042
Br52	Br	0.913556	0.266738	-0.771244
H53	H	0.907796	0.583542	-0.000052
H54	H	1.309040	0.267126	-0.000084
Br55	Br	1.243976	0.344854	-0.000063
Br56	Br	1.615570	-0.067788	-0.000004
H57	H	1.516654	-0.025317	-0.000056
H58	H	0.946494	0.233781	-0.436808
Br59	Br	0.913527	0.266743	-0.536345
Br60	Br	1.497894	0.315026	-0.000066
H61	H	1.203419	0.545191	-0.000062
H62	H	1.347390	-0.028505	0.000030
H63	H	1.596799	0.272543	-0.000055
H64	H	0.904595	0.414291	-0.000084
Br65	Br	1.785658	0.320443	-0.000046
Br66	Br	1.249417	0.632615	-0.000047
H67	H	0.913231	0.871311	-0.000044
H68	H	0.910031	0.702048	-0.000055
Br69	Br	1.199917	-0.019508	-0.228885
Br70	Br	1.253567	0.852539	-0.000077
Br71	Br	1.199979	-0.019521	-0.771153
Br72	Br	1.199959	-0.019498	-0.536255
Br73	Br	1.199939	-0.019511	-0.463795
Br74	Br	0.913481	0.266740	-0.228971
