data_functionalizedCrystal
_audit_creation_method	'MofGen! by Chris Wilmer'
_symmetry_space_group_name_H-M	'P1'
_symmetry_Int_Tables_number	1
_symmetry_cell_setting	triclinic
loop_
_symmetry_equiv_pos_as_xyz
  x,y,z
_cell_length_a	23.096457
_cell_length_b	23.096457
_cell_length_c	18.878441
_cell_angle_alpha	60.000706
_cell_angle_beta	89.997246
_cell_angle_gamma	59.998679
loop_
_atom_site_label
_atom_site_type_symbol
_atom_site_fract_x
_atom_site_fract_y
_atom_site_fract_z
Zr1	Zr	0.557793	0.633717	-0.092940
O2	O	0.465346	0.754506	-0.206038
O3	O	0.586130	0.512930	-0.058274
O4	O	0.586134	0.633718	-0.206047
O5	O	0.465341	0.633717	0.058306
O6	O	0.681417	0.633715	-0.206049
O7	O	0.465342	0.633719	-0.058265
O8	O	0.681410	0.417648	0.058289
O9	O	0.465348	0.849784	-0.206033
O10	O	0.669327	0.562609	-0.043486
O11	O	0.598218	0.562610	0.043511
O12	O	0.598223	0.704821	-0.130472
O13	O	0.527114	0.704822	-0.043475
Zr14	Zr	0.709756	0.633711	0.092973
Zr15	Zr	0.709757	0.633713	-0.092944
Zr16	Zr	0.557791	0.633715	0.092977
Zr17	Zr	0.557796	0.785674	-0.092932
Zr18	Zr	0.709752	0.481754	0.092965
O19	O	0.681418	0.754498	0.058307
O20	O	0.681420	0.754501	-0.206043
O21	O	0.465344	0.754503	0.058312
O22	O	0.802202	0.512922	0.206070
O23	O	0.802204	0.512925	-0.058280
O24	O	0.586129	0.512927	0.206076
O25	O	0.802207	0.633711	-0.058273
O26	O	0.681414	0.633711	0.206080
O27	O	0.586132	0.633713	0.206082
O28	O	0.802206	0.633709	0.058297
O29	O	0.586140	0.849781	-0.206036
O30	O	0.681409	0.417647	0.206068
O31	O	0.802200	0.417644	0.206065
O32	O	0.802201	0.417646	0.058286
O33	O	0.465348	0.849783	-0.058254
O34	O	0.586139	0.849780	-0.058257
O35	O	0.669326	0.562607	0.130505
O36	O	0.740434	0.562606	0.043508
O37	O	0.669330	0.704819	-0.043479
O38	O	0.598222	0.704819	0.043519
C39	C	0.633769	0.443639	0.000006
C40	C	0.633768	0.379129	0.000003
C41	C	0.670881	0.348827	-0.045412
C42	C	0.670888	0.288205	-0.045405
C43	C	0.633768	0.257898	0.000006
C44	C	0.596653	0.288203	0.045430
C45	C	0.596653	0.348819	0.045429
N46	N	0.573362	0.195504	-0.006290
N47	N	0.573364	0.137923	-0.006293
C48	C	0.633767	0.075266	0.000014
N49	N	0.694168	0.072372	0.006307
N50	N	0.694165	0.129961	0.006306
C51	C	0.633764	0.192170	0.000012
C52	C	0.670891	-0.020770	-0.045396
C53	C	0.670900	-0.081397	-0.045382
C54	C	0.596658	-0.081391	0.045447
C55	C	0.596656	-0.020771	0.045439
C56	C	0.633771	0.009539	0.000013
C57	C	0.443690	0.633719	0.000021
C58	C	0.379177	0.633720	0.000023
C59	C	0.348875	0.633727	-0.064201
C60	C	0.288263	0.633719	-0.064201
C61	C	0.257947	0.633722	0.000017
C62	C	0.288259	0.633710	0.064252
C63	C	0.348874	0.633710	0.064255
N64	N	0.139596	0.680076	0.019461
N65	N	0.082013	0.680079	0.019452
C66	C	0.075317	0.633722	0.000012
N67	N	0.128375	0.587373	-0.019436
N68	N	0.185961	0.587374	-0.019432
C69	C	0.192220	0.633722	0.000021
C70	C	-0.020707	0.633720	-0.064215
C71	C	-0.081318	0.633707	-0.064209
C72	C	-0.081325	0.633706	0.064240
C73	C	-0.020711	0.633711	0.064238
C74	C	0.009592	0.633721	0.000005
C75	C	0.823858	0.633710	0.000011
C76	C	0.888371	0.633708	0.000010
C77	C	0.633776	0.633717	-0.232537
C78	C	0.633776	0.633718	-0.311464
C79	C	0.633779	0.823790	0.000026
C80	C	0.633781	0.888299	0.000029
C81	C	0.686268	0.633718	-0.348545
C82	C	0.686270	0.633711	-0.422701
C83	C	0.633777	0.633711	-0.459777
C84	C	0.581283	0.633708	-0.422689
C85	C	0.581284	0.633709	-0.348532
C86	C	0.581283	0.633709	-0.577259
C87	C	0.581281	0.633710	-0.651422
C88	C	0.686269	0.633712	-0.651428
C89	C	0.686270	0.633712	-0.577270
C90	C	0.633775	0.633711	-0.540188
C91	C	0.633773	0.633711	0.232570
C92	C	0.633772	0.633710	0.311496
C93	C	0.823854	0.443634	0.000002
C94	C	0.888365	0.379123	-0.000003
C95	C	0.633768	0.443636	0.232560
C96	C	0.633766	0.379125	0.311483
C97	C	0.823852	0.443631	0.232555
C98	C	0.888363	0.379119	0.311477
C99	C	0.443696	0.823797	-0.232523
C100	C	0.379186	0.888309	-0.311444
C101	C	0.443695	0.823794	0.000031
C102	C	0.379184	0.888306	0.000036
C103	C	0.633781	0.823792	-0.232528
C104	C	0.633783	0.888303	-0.311451
C105	C	0.881542	0.348829	-0.045423
C106	C	0.942152	0.288222	-0.045445
C107	C	1.009583	0.257906	-0.000042
C108	C	1.016404	0.288206	0.045379
C109	C	0.955795	0.348816	0.045396
C110	C	0.670882	0.348829	0.393964
C111	C	0.670877	0.288222	0.468128
C112	C	0.633760	0.257910	0.459809
C113	C	0.596639	0.288212	0.377320
C114	C	0.596640	0.348821	0.303158
C115	C	0.955782	0.348823	0.303127
C116	C	1.016402	0.288215	0.377276
C117	C	1.009602	0.257900	0.459772
C118	C	0.942176	0.288202	0.468120
C119	C	0.881557	0.348813	0.393972
C120	C	0.311766	0.918613	-0.303095
C121	C	0.251146	0.979239	-0.377243
C122	C	0.257946	1.009557	-0.459740
C123	C	0.325373	0.979251	-0.468087
C124	C	0.385992	0.918630	-0.393940
C125	C	0.386006	0.918606	0.045448
C126	C	0.325397	0.979229	0.045450
C127	C	0.257966	1.009548	0.000044
C128	C	0.251145	0.979245	-0.045374
C129	C	0.311753	0.918627	-0.045380
C130	C	0.670907	0.918597	-0.303104
C131	C	0.670923	0.979204	-0.377254
C132	C	0.633810	1.009520	-0.459749
C133	C	0.596684	0.979220	-0.468094
C134	C	0.596673	0.918610	-0.393945
H135	H	0.566429	0.373491	0.082412
H136	H	0.936649	0.263511	0.535298
Cl137	Cl	0.796803	0.386887	0.404484
H138	H	0.566419	0.263522	0.370559
H139	H	0.961360	0.373473	0.082387
H140	H	0.729013	0.633711	-0.452891
Cl141	Cl	0.549992	-0.119485	0.102534
Cl142	Cl	0.181778	1.085753	0.000062
H143	H	0.701115	0.003907	-0.082381
Cl144	Cl	0.964350	0.386926	0.199426
Cl145	Cl	0.933561	0.250140	-0.102547
Cl146	Cl	0.017392	0.633726	-0.144960
H147	H	0.701129	0.893923	-0.235939
Cl148	Cl	1.101158	0.250130	0.366761
H149	H	0.729013	0.633712	-0.681624
H150	H	0.701108	0.373503	0.400754
H151	H	0.701108	0.263557	0.535287
H152	H	1.071314	0.263513	0.082345
H153	H	0.538536	0.633709	-0.681606
H154	H	0.196235	1.003939	-0.082342
H155	H	0.566432	0.003903	0.082418
Cl156	Cl	0.717555	0.250097	-0.102493
H157	H	0.566418	0.373480	0.236001
H158	H	1.058968	0.208547	0.520140
H159	H	0.263574	0.633710	0.116540
Cl160	Cl	0.303199	0.880511	-0.199394
H161	H	0.566430	0.263523	0.082405
Cl162	Cl	0.633767	0.181712	0.553052
H163	H	0.701126	-0.106072	-0.082361
Cl164	Cl	0.386973	0.633734	-0.144944
Cl165	Cl	0.470769	0.880508	0.102533
Cl166	Cl	1.085770	0.181707	-0.000069
Cl167	Cl	0.166390	1.017322	-0.366729
Cl168	Cl	0.250161	0.633729	-0.144948
Cl169	Cl	0.515288	0.633705	-0.530643
H170	H	0.306189	0.893958	-0.082358
H171	H	0.373547	0.633704	0.116555
H172	H	-0.105988	0.633707	-0.116506
Cl173	Cl	0.181732	1.085766	-0.552946
H174	H	0.330901	1.003944	-0.535265
H175	H	0.440886	0.893957	-0.400748
H176	H	0.330964	1.003892	0.082438
Cl177	Cl	-0.119427	0.633700	0.144977
Cl178	Cl	0.717594	1.017287	-0.366743
Cl179	Cl	0.017384	0.633709	0.144976
H180	H	0.633825	1.058872	-0.520119
H181	H	0.566467	1.003913	-0.535272
H182	H	0.538544	0.633703	-0.452878
H183	H	0.729011	0.633723	-0.318365
Cl184	Cl	0.515293	0.633705	-0.301913
H185	H	0.566438	0.893952	-0.400753
H186	H	0.701104	0.373502	-0.082398
H187	H	0.729011	0.633719	-0.547086
Cl188	Cl	0.796779	0.386931	-0.102513
