data_functionalizedCrystal
_audit_creation_method	'MofGen! by Chris Wilmer'
_symmetry_space_group_name_H-M	'P1'
_symmetry_Int_Tables_number	1
_symmetry_cell_setting	triclinic
loop_
_symmetry_equiv_pos_as_xyz
  x,y,z
_cell_length_a	11.792241
_cell_length_b	10.268362
_cell_length_c	12.837942
_cell_angle_alpha	89.995347
_cell_angle_beta	90.488822
_cell_angle_gamma	90.000374
loop_
_atom_site_label
_atom_site_type_symbol
_atom_site_fract_x
_atom_site_fract_y
_atom_site_fract_z
O1	O	1.521327	0.108172	-0.142169
O2	O	1.771327	0.358172	0.107831
O3	O	2.021327	0.608172	0.357831
O4	O	2.271327	0.858172	0.607831
O5	O	1.192472	0.108202	-0.156821
O6	O	1.442472	0.358202	0.093179
O7	O	1.692472	0.608202	0.343179
O8	O	1.942472	0.858202	0.593179
O9	O	1.349608	0.108180	0.001449
O10	O	1.599608	0.358180	0.251449
O11	O	1.849608	0.608180	0.501449
O12	O	2.099608	0.858180	0.751449
O13	O	1.364192	0.108194	-0.300439
O14	O	1.614192	0.358194	-0.050439
O15	O	1.864192	0.608194	0.199561
O16	O	2.114192	0.858194	0.449561
O17	O	1.349592	-0.108421	0.001455
O18	O	1.599592	0.141579	0.251455
O19	O	1.849592	0.391579	0.501455
O20	O	2.099592	0.641579	0.751455
O21	O	1.192456	-0.108399	-0.156814
O22	O	1.442456	0.141601	0.093186
O23	O	1.692456	0.391601	0.343186
O24	O	1.942456	0.641601	0.593186
O25	O	1.521311	-0.108429	-0.142162
O26	O	1.771311	0.141571	0.107838
O27	O	2.021311	0.391571	0.357838
O28	O	2.271311	0.641571	0.607838
Cu29	Cu	1.356882	-0.128191	-0.149488
Cu30	Cu	1.606882	0.121809	0.100512
Cu31	Cu	1.856882	0.371809	0.350512
Cu32	Cu	2.106882	0.621809	0.600512
Cu33	Cu	1.356901	0.127964	-0.149496
Cu34	Cu	1.606901	0.377964	0.100504
Cu35	Cu	1.856901	0.627964	0.350504
Cu36	Cu	2.106901	0.877964	0.600504
O37	O	1.364176	-0.108406	-0.300432
O38	O	1.614176	0.141594	-0.050432
O39	O	1.864176	0.391594	0.199568
O40	O	2.114176	0.641594	0.449568
C41	C	1.150080	-0.000094	-0.155897
C42	C	1.400080	0.249906	0.094103
C43	C	1.650080	0.499906	0.344103
C44	C	1.900080	0.749906	0.594103
C45	C	1.023787	-0.000083	-0.153142
C46	C	1.273787	0.249917	0.096858
C47	C	1.523787	0.499917	0.346858
C48	C	1.773787	0.749917	0.596858
N49	N	1.356878	-0.308357	-0.149482
N50	N	1.606878	-0.058357	0.100518
N51	N	1.856878	0.191643	0.350518
N52	N	2.106878	0.441643	0.600518
C53	C	0.792561	-0.000121	-0.148077
C54	C	1.042561	0.249879	0.101923
C55	C	1.292561	0.499879	0.351923
C56	C	1.542561	0.749879	0.601923
C57	C	0.921232	-0.000100	-0.150891
C58	C	1.171232	0.249900	0.099109
C59	C	1.421232	0.499900	0.349109
C60	C	1.671232	0.749900	0.599109
C61	C	1.356895	-0.574027	-0.149493
C62	C	1.606895	-0.324027	0.100507
C63	C	1.856895	-0.074027	0.350507
C64	C	2.106895	0.175973	0.600507
C65	C	1.356882	-0.426190	-0.149490
C66	C	1.606882	-0.176190	0.100510
C67	C	1.856882	0.073810	0.350510
C68	C	2.106882	0.323810	0.600510
C69	C	1.563704	-0.000129	-0.143086
C70	C	1.813704	0.249871	0.106914
C71	C	2.063704	0.499871	0.356914
C72	C	2.313704	0.749871	0.606914
C73	C	1.689997	-0.000132	-0.145841
C74	C	1.939997	0.249868	0.104159
C75	C	2.189997	0.499868	0.354159
C76	C	2.439997	0.749868	0.604159
C77	C	1.344673	-0.000119	0.040100
C78	C	1.594673	0.249881	0.290100
C79	C	1.844673	0.499881	0.540100
C80	C	2.094673	0.749881	0.790100
C81	C	1.329979	-0.000116	0.155260
C82	C	1.579979	0.249884	0.405260
C83	C	1.829979	0.499884	0.655260
C84	C	2.079979	0.749884	0.905260
N85	N	1.356914	0.308130	-0.149493
N86	N	1.606914	0.558130	0.100507
N87	N	1.856914	0.808130	0.350507
N88	N	2.106914	1.058130	0.600507
C89	C	1.369111	-0.000104	-0.339084
C90	C	1.619111	0.249896	-0.089084
C91	C	1.869111	0.499896	0.160916
C92	C	2.119111	0.749896	0.410916
C93	C	1.383804	-0.000099	-0.454243
C94	C	1.633804	0.249901	-0.204243
C95	C	1.883804	0.499901	0.045757
C96	C	2.133804	0.749901	0.295757
C97	C	1.506625	-0.000105	0.395226
C98	C	1.756625	0.249895	0.645226
C99	C	2.006625	0.499895	0.895226
C100	C	2.256625	0.749895	1.145226
C101	C	1.492824	-0.000102	0.503429
C102	C	1.742824	0.249898	0.753429
C103	C	1.992824	0.499898	1.003429
C104	C	2.242824	0.749898	1.253429
C105	C	1.288578	-0.000096	0.479872
C106	C	1.538578	0.249904	0.729872
C107	C	1.788578	0.499904	0.979872
C108	C	2.038578	0.749904	1.229872
C109	C	1.302379	-0.000100	0.371669
C110	C	1.552379	0.249900	0.621669
C111	C	1.802379	0.499900	0.871669
C112	C	2.052379	0.749900	1.121669
C113	C	1.411406	-0.000106	0.329350
C114	C	1.661406	0.249894	0.579350
C115	C	1.911406	0.499894	0.829350
C116	C	2.161406	0.749894	1.079350
C117	C	1.425206	-0.000119	0.221144
C118	C	1.675206	0.249881	0.471144
C119	C	1.925206	0.499881	0.721144
C120	C	2.175206	0.749881	0.971144
C121	C	1.220960	-0.000104	0.197590
C122	C	1.470960	0.249896	0.447590
C123	C	1.720960	0.499896	0.697590
C124	C	1.970960	0.749896	0.947590
C125	C	1.207159	-0.000101	0.305793
C126	C	1.457159	0.249899	0.555793
C127	C	1.707159	0.499899	0.805793
C128	C	1.957159	0.749899	1.055793
H129	H	1.513981	-0.000129	0.186690
H130	H	1.763981	0.249871	0.436690
H131	H	2.013981	0.499871	0.686690
H132	H	2.263981	0.749871	0.936690
H133	H	1.595399	-0.000123	0.360769
H134	H	1.845399	0.249877	0.610769
H135	H	2.095399	0.499877	0.860769
H136	H	2.345399	0.749877	1.110769
H137	H	1.143426	-0.000116	0.143941
H138	H	1.393426	0.249884	0.393941
H139	H	1.643426	0.499884	0.643941
H140	H	1.893426	0.749884	0.893941
H141	H	1.199813	-0.000077	0.514348
H142	H	1.449813	0.249923	0.764348
H143	H	1.699813	0.499923	1.014348
H144	H	1.949813	0.749923	1.264348
O145	O	1.585441	-0.000161	0.567273
O146	O	1.835441	0.249839	0.817273
O147	O	2.085441	0.499839	1.067273
O148	O	2.335441	0.749839	1.317273
C149	C	1.789482	-0.000085	0.579215
C150	C	2.039482	0.249915	0.829215
C151	C	2.289482	0.499915	1.079215
C152	C	2.539482	0.749915	1.329215
C153	C	1.684687	-0.000051	0.506793
C154	C	1.934687	0.249949	0.756793
C155	C	2.184687	0.499949	1.006793
C156	C	2.434687	0.749949	1.256793
H157	H	1.869749	0.000033	0.530346
H158	H	2.119749	0.250033	0.780346
H159	H	2.369749	0.500033	1.030346
H160	H	2.619749	0.750033	1.280346
H161	H	1.788208	-0.090751	0.630450
H162	H	2.038208	0.159249	0.880450
H163	H	2.288208	0.409249	1.130450
H164	H	2.538208	0.659249	1.380450
H165	H	1.788063	0.090543	0.630475
H166	H	2.038063	0.340543	0.880475
H167	H	2.288063	0.590543	1.130475
H168	H	2.538063	0.840543	1.380475
H169	H	1.686038	-0.090617	0.455467
H170	H	1.936038	0.159383	0.705467
H171	H	2.186038	0.409383	0.955467
H172	H	2.436038	0.659383	1.205467
H173	H	1.686001	0.090676	0.455628
H174	H	1.936001	0.340676	0.705628
H175	H	2.186001	0.590676	0.955628
H176	H	2.436001	0.840676	1.205628
H177	H	1.118392	-0.000091	0.340265
H178	H	1.368392	0.249909	0.590265
H179	H	1.618392	0.499909	0.840265
H180	H	1.868392	0.749909	1.090265
