data_functionalizedCrystal
_audit_creation_method	'MofGen! by Chris Wilmer'
_symmetry_space_group_name_H-M	'P1'
_symmetry_Int_Tables_number	1
_symmetry_cell_setting	triclinic
loop_
_symmetry_equiv_pos_as_xyz
  x,y,z
_cell_length_a	19.288864
_cell_length_b	10.540539
_cell_length_c	17.766277
_cell_angle_alpha	89.995823
_cell_angle_beta	89.976791
_cell_angle_gamma	83.830869
loop_
_atom_site_label
_atom_site_type_symbol
_atom_site_fract_x
_atom_site_fract_y
_atom_site_fract_z
O1	O	0.922410	0.158345	-0.062832
O2	O	0.720292	0.179706	-0.062781
O3	O	0.825962	-0.015784	-0.062807
O4	O	0.816739	0.353835	-0.062806
O5	O	0.825943	-0.015794	0.062382
O6	O	0.720273	0.179696	0.062408
O7	O	0.922391	0.158335	0.062356
Cu8	Cu	0.821330	0.169015	0.073813
Cu9	Cu	0.821352	0.169026	-0.074237
O10	O	0.816721	0.353825	0.062382
C11	C	0.694401	0.179013	-0.000180
C12	C	0.617284	0.176950	-0.000160
C13	C	0.573353	0.291654	-0.000172
C14	C	0.500893	0.289716	-0.000180
C15	C	0.472367	0.173067	-0.000192
C16	C	0.516308	0.058347	-0.000176
C17	C	0.588766	0.060289	-0.000160
C18	C	0.363500	0.081371	-0.044076
C19	C	0.291042	0.079434	-0.044097
C20	C	0.248881	0.167074	-0.000237
C21	C	0.279185	0.256671	0.043633
C22	C	0.351644	0.258613	0.043649
C23	C	0.393799	0.170949	-0.000208
C24	C	0.126381	0.279684	-0.000257
C25	C	0.053919	0.277741	-0.000261
C26	C	0.069336	0.046369	-0.000264
C27	C	0.141795	0.048315	-0.000253
C28	C	0.170313	0.164976	-0.000253
C29	C	0.825261	-0.063076	-0.000214
C30	C	0.823192	-0.203978	-0.000217
C31	C	0.743903	-0.385638	-0.000478
C32	C	0.746000	-0.239067	-0.000197
C33	C	0.860329	-0.266470	0.071262
C34	C	0.857694	-0.412955	0.071323
C35	C	0.859286	-0.413497	-0.071040
C36	C	0.859997	-0.266531	-0.071986
C37	C	0.948281	0.159027	-0.000246
C38	C	1.025399	0.161091	-0.000271
C39	C	0.817422	0.401117	-0.000212
C40	C	0.819491	0.542019	-0.000214
N41	N	0.821320	0.169006	0.177943
N42	N	0.821368	0.169025	-0.178368
C43	C	0.868126	0.082485	0.217318
C44	C	0.868130	0.082479	0.296120
C45	C	0.821334	0.169016	0.335544
C46	C	0.774519	0.255543	0.296159
C47	C	0.774512	0.255538	0.217359
C48	C	0.812807	0.284670	0.460383
C49	C	0.812819	0.284676	0.539182
C50	C	0.821353	0.169031	0.578590
C51	C	0.829889	0.053373	0.539189
C52	C	0.829882	0.053368	0.460389
C53	C	0.821337	0.169030	0.420989
C54	C	0.868166	0.082497	0.703411
C55	C	0.868165	0.082489	0.782214
C56	C	0.774558	0.255564	0.782252
C57	C	0.774555	0.255560	0.703450
C58	C	0.821363	0.169028	0.664034
H59	H	0.376314	0.331562	0.079372
O60	O	0.703518	-0.422615	-0.068374
H61	H	0.650407	-0.370359	-0.067291
O62	O	0.918639	-0.010843	0.660890
H63	H	0.951180	-0.071026	0.701512
H64	H	0.736416	0.326000	0.328261
O65	O	0.935415	-0.238527	0.074779
H66	H	0.947088	-0.179659	0.025502
H67	H	0.736396	0.325994	0.185298
O68	O	0.038580	-0.079451	-0.000267
H69	H	0.056214	-0.134556	-0.051284
H70	H	0.805846	0.378849	0.428304
H71	H	0.836830	-0.040804	0.428312
O72	O	0.933138	-0.477702	-0.071708
H73	H	0.941494	-0.540996	-0.021871
O74	O	0.408968	-0.013174	-0.091380
H75	H	0.464444	0.003215	-0.083992
H76	H	0.596567	0.386649	-0.000173
H77	H	0.830232	-0.440547	0.124769
H78	H	0.916276	-0.243564	-0.076317
O79	O	0.931223	-0.478153	0.075624
H80	H	0.961390	-0.450253	0.026214
H81	H	0.834516	-0.223299	0.124468
O82	O	0.826205	-0.454532	-0.142809
H83	H	0.781026	-0.507096	-0.128796
H84	H	0.493077	-0.036629	-0.000196
H85	H	0.906278	0.012027	0.814274
H86	H	0.465117	0.383125	-0.000187
O87	O	0.707015	-0.182890	0.067818
H88	H	0.652067	-0.204899	0.065347
H89	H	0.266374	0.006484	-0.079822
O90	O	0.707284	-0.181766	-0.068063
H91	H	0.743339	-0.131893	-0.103384
O92	O	0.233725	0.351202	0.090949
H93	H	0.178250	0.334792	0.083579
O94	O	0.157148	0.405502	-0.000242
H95	H	0.114423	0.484941	-0.000237
H96	H	0.018151	0.371151	-0.000266
O97	O	0.824058	-0.211506	-0.142037
H98	H	0.826785	-0.106887	-0.143535
H99	H	0.736453	0.326019	0.814350
H100	H	0.177565	-0.045090	-0.000247
H101	H	0.624535	-0.033120	-0.000151
H102	H	0.713527	-0.415173	0.050509
O103	O	0.839088	-0.071374	0.581679
H104	H	0.837649	-0.051947	0.643093
O105	O	0.724079	0.348894	0.660973
H106	H	0.691543	0.409077	0.701622
O107	O	0.918622	-0.010829	0.338604
H108	H	0.951173	-0.070992	0.297958
O109	O	0.918606	-0.010847	0.174805
H110	H	0.889063	-0.072402	0.138921
O111	O	0.803627	0.409413	0.581678
H112	H	0.797683	0.489827	0.541038
