data_functionalizedCrystal
_audit_creation_method	'MofGen! by Chris Wilmer'
_symmetry_space_group_name_H-M	'P1'
_symmetry_Int_Tables_number	1
_symmetry_cell_setting	triclinic
loop_
_symmetry_equiv_pos_as_xyz
  x,y,z
_cell_length_a	14.044191
_cell_length_b	15.944551
_cell_length_c	12.503572
_cell_angle_alpha	93.522593
_cell_angle_beta	86.162165
_cell_angle_gamma	88.345257
loop_
_atom_site_label
_atom_site_type_symbol
_atom_site_fract_x
_atom_site_fract_y
_atom_site_fract_z
O1	O	1.263184	0.198087	-0.089272
O2	O	0.987215	0.190772	-0.089286
O3	O	1.132735	0.072720	-0.089269
O4	O	1.117664	0.316139	-0.089289
O5	O	1.121791	0.081614	0.089372
O6	O	0.976271	0.199667	0.089355
O7	O	1.252240	0.206981	0.089368
Cu8	Cu	1.113256	0.204136	0.105673
Cu9	Cu	1.126199	0.193617	-0.105591
O10	O	1.106720	0.325034	0.089351
C11	C	0.946428	0.192020	0.000033
C12	C	0.841202	0.182476	0.000028
C13	C	0.590918	0.232714	0.000035
C14	C	0.648543	0.165042	0.000038
C15	C	0.755748	0.174745	0.000033
C16	C	0.483703	0.223013	0.000040
C17	C	1.126637	0.045826	0.000051
C18	C	1.124761	-0.047560	0.000052
C19	C	1.030078	-0.269510	0.000032
C20	C	1.068650	-0.322848	0.088115
C21	C	1.121368	-0.218541	0.000043
C22	C	1.079462	-0.331599	-0.088010
C23	C	1.118084	-0.383700	0.000031
C24	C	1.159961	-0.270646	0.088199
C25	C	1.170765	-0.279395	-0.088006
C26	C	1.209402	-0.332710	0.000098
C27	C	1.123257	-0.123397	0.000052
C28	C	1.116202	-0.478842	0.000030
C29	C	1.293027	0.205733	0.000047
C30	C	1.398253	0.215277	0.000045
C31	C	1.112818	0.351927	0.000029
C32	C	1.114694	0.445314	0.000021
N33	N	1.104160	0.211534	0.254264
N34	N	1.135302	0.186213	-0.254182
C35	C	1.090779	0.222424	0.473378
C36	C	1.148680	0.175326	0.526711
C37	C	1.141235	0.181385	0.648634
C38	C	1.098223	0.216366	0.351444
H39	H	0.617368	0.099816	-0.000032
N40	N	1.202633	-0.237281	0.181714
N41	N	1.210925	-0.159688	0.196829
H42	H	1.241059	-0.136122	0.262874
H43	H	1.285241	-0.360186	0.000152
H44	H	1.213906	-0.260083	-0.162473
N45	N	1.217876	0.119034	0.469115
N46	N	1.223906	0.114128	0.368718
H47	H	1.272775	0.074375	0.328035
H48	H	0.622097	0.297932	0.000026
H49	H	1.035621	0.267295	0.519279
H50	H	0.954297	-0.241874	0.000117
N51	N	1.036715	-0.365081	-0.181415
N52	N	0.952479	-0.344469	-0.197088
H53	H	0.922281	-0.368113	-0.263050
H54	H	1.025476	-0.342141	0.162579
