data_functionalizedCrystal
_audit_creation_method	'MofGen! by Chris Wilmer'
_symmetry_space_group_name_H-M	'P1'
_symmetry_Int_Tables_number	1
_symmetry_cell_setting	triclinic
loop_
_symmetry_equiv_pos_as_xyz
  x,y,z
_cell_length_a	19.288864
_cell_length_b	13.339070
_cell_length_c	18.366186
_cell_angle_alpha	89.997828
_cell_angle_beta	89.977106
_cell_angle_gamma	99.382770
loop_
_atom_site_label
_atom_site_type_symbol
_atom_site_fract_x
_atom_site_fract_y
_atom_site_fract_z
O1	O	0.945923	0.126087	-0.060787
O2	O	0.746977	0.143095	-0.060738
O3	O	0.823618	-0.012569	-0.060755
O4	O	0.869283	0.281750	-0.060770
O5	O	0.823598	-0.012576	0.060345
O6	O	0.746958	0.143088	0.060362
O7	O	0.945904	0.126079	0.060312
Zn8	Zn	0.846427	0.134582	0.079564
Zn9	Zn	0.846453	0.134592	-0.079989
O10	O	0.869263	0.281743	0.060329
C11	C	0.720984	0.142544	-0.000182
C12	C	0.643560	0.140901	-0.000162
C13	C	0.616663	0.232238	-0.000179
C14	C	0.543915	0.230694	-0.000187
C15	C	0.498067	0.137809	-0.000193
C16	C	0.524972	0.046461	-0.000173
C17	C	0.597719	0.048007	-0.000157
C18	C	0.375583	0.064794	-0.042640
C19	C	0.302838	0.063252	-0.042660
C20	C	0.273691	0.133037	-0.000237
C21	C	0.317301	0.204382	0.042197
C22	C	0.390048	0.205928	0.042212
C23	C	0.419184	0.136123	-0.000209
C24	C	0.167913	0.222706	-0.000261
C25	C	0.095163	0.221159	-0.000264
C26	C	0.076222	0.036923	-0.000257
C27	C	0.148970	0.038473	-0.000247
C28	C	0.194812	0.131367	-0.000252
C29	C	0.815894	-0.050226	-0.000204
C30	C	0.792901	-0.162423	-0.000201
C31	C	0.971681	-0.528031	-0.000245
C32	C	0.993286	-0.422617	-0.000244
C33	C	0.943192	-0.357563	-0.000233
C34	C	0.871489	-0.397934	-0.000224
C35	C	0.849881	-0.503359	-0.000220
C36	C	0.821392	-0.332891	-0.000208
C37	C	0.749689	-0.373262	-0.000198
C38	C	0.728085	-0.478677	-0.000195
C39	C	0.778180	-0.543730	-0.000205
C40	C	0.842999	-0.227467	-0.000212
C41	C	0.721199	-0.202795	-0.000187
C42	C	0.699594	-0.308209	-0.000188
C43	C	0.971897	0.126630	-0.000245
C44	C	1.049320	0.128273	-0.000269
C45	C	0.876987	0.319401	-0.000223
C46	C	0.899980	0.431598	-0.000231
N47	N	0.846415	0.134575	0.188455
N48	N	0.846470	0.134592	-0.188881
C49	C	0.880373	0.065680	0.226548
C50	C	0.880377	0.065676	0.302776
C51	C	0.846432	0.134583	0.340908
C52	C	0.812466	0.203482	0.302806
C53	C	0.812457	0.203478	0.226580
C54	C	0.855080	0.226676	0.461665
C55	C	0.855093	0.226682	0.537890
C56	C	0.846454	0.134596	0.576016
C57	C	0.837815	0.042500	0.537907
C58	C	0.837806	0.042496	0.461681
C59	C	0.846437	0.134595	0.423563
C60	C	0.880418	0.065691	0.696763
C61	C	0.880416	0.065685	0.772993
C62	C	0.812510	0.203500	0.773021
C63	C	0.812507	0.203497	0.696793
C64	C	0.846464	0.134594	0.658669
H65	H	0.205239	0.298346	-0.000254
H66	H	0.908021	0.009573	0.195510
H67	H	0.669700	-0.511543	-0.000182
H68	H	0.960787	-0.271731	-0.000232
H69	H	0.641212	-0.341094	-0.000180
F70	F	0.626345	-0.049210	-0.000140
F71	F	1.069595	-0.379658	-0.000265
H72	H	0.399307	0.007964	-0.077190
F73	F	0.916556	-0.007650	0.813536
F74	F	0.919308	-0.184513	-0.000221
H75	H	0.680408	-0.149828	-0.000175
H76	H	0.908031	0.009572	0.333797
F77	F	0.828607	-0.055516	0.421125
H78	H	1.012460	-0.581006	-0.000247
F79	F	0.755189	-0.655927	-0.000275
H80	H	0.073266	0.295539	-0.000273
F81	F	0.828624	-0.055512	0.578477
F82	F	0.864293	0.324697	0.578441
H83	H	0.908066	0.009582	0.665721
F84	F	0.776378	0.276830	0.813600
F85	F	0.776367	0.276829	0.656249
H86	H	0.170869	-0.035904	-0.000237
H87	H	0.862104	0.301669	0.430629
H88	H	0.784826	0.259586	0.333857
H89	H	0.653984	0.307880	-0.000184
F90	F	0.515282	0.327911	-0.000202
H91	H	0.784803	0.259581	0.195564
H92	H	0.425551	0.264016	0.076765
H93	H	0.487638	-0.029167	-0.000188
H94	H	0.293572	0.261207	0.076742
H95	H	0.038893	-0.038706	-0.000308
H96	H	0.267337	0.005163	-0.077215
