data_functionalizedCrystal
_audit_creation_method	'MofGen! by Chris Wilmer'
_symmetry_space_group_name_H-M	'P1'
_symmetry_Int_Tables_number	1
_symmetry_cell_setting	triclinic
loop_
_symmetry_equiv_pos_as_xyz
  x,y,z
_cell_length_a	10.654545
_cell_length_b	14.853567
_cell_length_c	13.330367
_cell_angle_alpha	90.001398
_cell_angle_beta	89.992747
_cell_angle_gamma	84.059005
loop_
_atom_site_label
_atom_site_type_symbol
_atom_site_fract_x
_atom_site_fract_y
_atom_site_fract_z
O1	O	1.666536	0.126603	-0.083404
O2	O	1.300931	0.138672	-0.083408
O3	O	1.493499	0.001460	-0.083409
O4	O	1.473967	0.263815	-0.083403
O5	O	1.493470	0.001463	0.083438
O6	O	1.300902	0.138674	0.083440
O7	O	1.666506	0.126606	0.083443
Cu8	Cu	1.483701	0.132640	0.098676
Cu9	Cu	1.483736	0.132637	-0.098640
O10	O	1.473938	0.263818	0.083444
C11	C	1.254127	0.137788	0.000015
C12	C	1.114711	0.135139	0.000014
C13	C	1.049204	0.133894	0.090963
C14	C	0.918210	0.131390	0.090963
C15	C	0.918243	0.131381	-0.090943
C16	C	1.049235	0.133878	-0.090942
C17	C	0.748708	0.075256	0.200229
C18	C	0.683193	0.074026	0.291183
C19	C	0.716156	0.127575	0.371485
C20	C	0.814627	0.182375	0.360836
C21	C	0.880134	0.183613	0.269881
C22	C	0.847177	0.130043	0.189583
C23	C	1.218739	0.190020	-0.200202
C24	C	1.284247	0.191265	-0.291159
C25	C	1.251285	0.137721	-0.371469
C26	C	1.152807	0.082934	-0.360830
C27	C	1.087299	0.081690	-0.269874
C28	C	1.120270	0.135232	-0.189563
C29	C	1.492599	-0.032132	0.000012
C30	C	1.489947	-0.132230	0.000003
C31	C	1.364347	-0.545435	0.000021
C32	C	1.593123	-0.565494	0.000023
C33	C	1.595616	-0.471447	0.000017
C34	C	1.482473	-0.414389	0.000015
C35	C	1.366837	-0.451379	0.000018
C36	C	1.711250	-0.434450	0.000024
C37	C	1.713749	-0.340397	0.000019
C38	C	1.600605	-0.283338	0.000010
C39	C	1.484964	-0.320333	0.000012
C40	C	1.371821	-0.263276	0.000009
C41	C	1.256179	-0.300269	0.000005
C42	C	1.253693	-0.394320	0.000009
C43	C	1.603090	-0.189288	0.000006
C44	C	1.374311	-0.169220	0.000007
C45	C	1.713310	0.127490	0.000018
C46	C	1.852726	0.130138	0.000013
C47	C	1.474838	0.297410	0.000021
C48	C	1.477490	0.397508	0.000023
N49	N	1.483686	0.132642	0.237457
N50	N	1.483761	0.132628	-0.237422
C51	C	1.407433	0.077455	0.289980
C52	C	1.559954	0.187825	0.289962
C53	C	1.559969	0.187824	0.394981
C54	C	1.483716	0.132637	0.447504
C55	C	1.407448	0.077451	0.395008
C56	C	1.636245	0.243003	0.447484
C57	C	1.636264	0.243004	0.552508
C58	C	1.560003	0.187821	0.605033
C59	C	1.483731	0.132633	0.552532
C60	C	1.407478	0.077446	0.605055
C61	C	1.331198	0.022263	0.552555
C62	C	1.331187	0.022268	0.447533
C63	C	1.560014	0.187815	0.710055
C64	C	1.407493	0.077442	0.710083
H65	H	1.245592	0.233619	-0.134808
Br66	Br	1.663448	0.262709	0.218681
Br67	Br	1.227676	-0.052618	0.376279
Br68	Br	0.859338	0.255069	0.469817
Br69	Br	1.220752	-0.091791	-0.000009
Br70	Br	0.549555	-0.000341	0.305634
H71	H	1.164059	-0.253800	0.000010
H72	H	1.698335	0.287926	0.404712
H73	H	1.159543	-0.424448	0.000006
H74	H	1.698374	0.287938	0.595245
Br75	Br	1.227727	-0.052639	0.623849
H76	H	1.697244	-0.159172	0.000016
H77	H	1.622125	0.232741	0.752796
H78	H	1.270194	-0.575559	0.000013
H79	H	1.102511	0.134920	0.165025
Br80	Br	1.864791	-0.511887	0.000054
Br81	Br	0.627236	0.125908	0.494918
Br82	Br	1.013766	0.257977	0.255423
Br83	Br	0.829380	0.129643	-0.214377
Br84	Br	0.703965	0.002575	0.091248
Br85	Br	1.417898	0.265621	-0.305598
H86	H	1.685238	-0.611955	0.000033
Br87	Br	1.870687	-0.290200	0.000010
Br88	Br	1.303990	0.002549	0.781356
Br89	Br	1.108058	0.010271	-0.469827
Br90	Br	0.953646	0.007335	-0.255434
H91	H	1.345324	0.032529	0.247230
H92	H	1.304624	0.138748	-0.445533
