data_functionalizedCrystal
_audit_creation_method	'MofGen! by Chris Wilmer'
_symmetry_space_group_name_H-M	'P1'
_symmetry_Int_Tables_number	1
_symmetry_cell_setting	triclinic
loop_
_symmetry_equiv_pos_as_xyz
  x,y,z
_cell_length_a	16.992695
_cell_length_b	10.654554
_cell_length_c	16.053942
_cell_angle_alpha	87.408394
_cell_angle_beta	92.749749
_cell_angle_gamma	87.577484
loop_
_atom_site_label
_atom_site_type_symbol
_atom_site_fract_x
_atom_site_fract_y
_atom_site_fract_z
O1	O	0.113478	1.672407	0.069403
O2	O	0.613478	2.172407	0.569403
O3	O	0.123973	1.307836	0.069411
O4	O	0.623973	1.807836	0.569411
O5	O	0.004574	1.488660	0.069400
O6	O	0.504574	1.988660	0.569400
O7	O	0.232876	1.491582	0.069414
O8	O	0.732876	1.991582	0.569414
O9	O	-0.001974	1.498556	-0.069456
O10	O	0.498026	1.998556	0.430544
O11	O	0.117424	1.317732	-0.069446
O12	O	0.617424	1.817732	0.430554
O13	O	0.106929	1.682303	-0.069453
O14	O	0.606929	2.182303	0.430547
Zn15	Zn	0.111137	1.501588	-0.091496
Zn16	Zn	0.611137	2.001588	0.408504
Zn17	Zn	0.119765	1.488550	0.091453
Zn18	Zn	0.619765	1.988550	0.591453
O19	O	0.226328	1.501478	-0.069443
O20	O	0.726328	2.001478	0.430557
C21	C	0.119927	1.265919	-0.000017
C22	C	0.619927	1.765919	0.499983
C23	C	0.117620	1.126276	-0.000014
C24	C	0.617620	1.626276	0.499986
C25	C	0.185754	0.921656	-0.000018
C26	C	0.685754	1.421656	0.499982
C27	C	0.187923	1.052864	-0.000011
C28	C	0.687923	1.552864	0.499989
C29	C	0.045143	1.068473	-0.000015
C30	C	0.545143	1.568473	0.499985
C31	C	0.042975	0.937267	-0.000016
C32	C	0.542975	1.437267	0.499984
C33	C	0.256061	0.848251	-0.000023
C34	C	0.756061	1.348251	0.499977
C35	C	0.328538	0.906045	-0.000021
C36	C	0.828538	1.406045	0.499979
C37	C	0.330707	1.037253	-0.000014
C38	C	0.830707	1.537253	0.499986
C39	C	0.260399	1.110668	-0.000010
C40	C	0.760399	1.610668	0.499990
C41	C	-0.027933	1.489848	-0.000028
C42	C	0.472067	1.989848	0.499972
C43	C	-0.115038	1.478629	-0.000027
C44	C	0.384962	1.978629	0.499973
C45	C	-0.164689	1.586880	-0.000030
C46	C	0.335311	2.086880	0.499970
C47	C	-0.246533	1.576330	-0.000022
C48	C	0.253467	2.076330	0.499978
C49	C	-0.278724	1.457528	-0.000017
C50	C	0.221276	1.957528	0.499983
C51	C	-0.229067	1.349269	-0.000011
C52	C	0.270933	1.849269	0.499989
C53	C	-0.147224	1.359820	-0.000014
C54	C	0.352776	1.859820	0.499986
C55	C	-0.522560	1.413801	-0.000005
C56	C	-0.022560	1.913801	0.499995
C57	C	-0.604408	1.403258	-0.000005
C58	C	-0.104408	1.903258	0.499995
C59	C	-0.621869	1.630320	-0.000014
C60	C	-0.121869	2.130320	0.499986
C61	C	-0.540024	1.640860	-0.000021
C62	C	-0.040024	2.140860	0.499979
C63	C	-0.490374	1.532601	-0.000011
C64	C	0.009626	2.032601	0.499989
N65	N	-0.362382	1.446742	-0.000011
N66	N	0.137618	1.946742	0.499989
N67	N	-0.406718	1.543388	-0.000011
N68	N	0.093282	2.043388	0.499989
C69	C	0.258835	1.500290	-0.000013
C70	C	0.758835	2.000290	0.499987
C71	C	0.345941	1.511509	-0.000008
C72	C	0.845941	2.011509	0.499992
C73	C	0.110975	1.724219	-0.000024
C74	C	0.610975	2.224219	0.499976
C75	C	0.113283	1.863862	-0.000021
C76	C	0.613283	2.363862	0.499979
N77	N	0.105248	1.510496	-0.216354
N78	N	0.605248	2.010496	0.283646
C79	C	0.074863	1.556611	-0.739977
C80	C	0.574863	2.056611	-0.239977
C81	C	0.078992	1.550351	-0.652572
C82	C	0.578992	2.050351	-0.152572
C83	C	0.133903	1.467126	-0.608879
C84	C	0.633903	1.967126	-0.108879
C85	C	0.184693	1.390164	-0.652597
C86	C	0.684693	1.890164	-0.152597
C87	C	0.180567	1.396431	-0.740000
C88	C	0.680567	1.896431	-0.240000
C89	C	0.151913	1.439801	-0.347476
C90	C	0.651913	1.939801	0.152524
C91	C	0.156033	1.433537	-0.260066
C92	C	0.656033	1.933537	0.239934
C93	C	0.050333	1.593727	-0.260047
C94	C	0.550333	2.093727	0.239953
C95	C	0.046209	1.599981	-0.347452
C96	C	0.546209	2.099981	0.152548
C97	C	0.097001	1.523024	-0.391162
C98	C	0.597001	2.023024	0.108838
N99	N	0.138123	1.460723	-0.519537
N100	N	0.638123	1.960723	-0.019537
N101	N	0.092785	1.529434	-0.480503
N102	N	0.592785	2.029434	0.019497
N103	N	0.125648	1.479652	0.216312
N104	N	0.625648	1.979652	0.716312
H105	H	0.385779	0.846262	-0.000018
H106	H	0.885779	1.346262	0.499982
Br107	Br	0.263346	1.288737	0.000013
Br108	Br	0.763346	1.788737	0.500013
H109	H	0.008980	1.656383	-0.224450
H110	H	0.508980	2.156383	0.275550
Br111	Br	0.253121	0.670183	-0.000039
Br112	Br	0.753121	1.170183	0.499961
Br113	Br	-0.648097	1.242018	-0.000006
Br114	Br	-0.148097	1.742018	0.499994
Br115	Br	-0.272753	1.188036	0.000010
Br116	Br	0.227247	1.688036	0.500010
H117	H	0.221922	1.333764	-0.775589
H118	H	0.721922	1.833764	-0.275589
Br119	Br	0.429066	1.115686	0.000004
Br120	Br	0.929066	1.615686	0.500004
Br121	Br	-0.079839	1.212902	-0.000003
Br122	Br	0.420161	1.712902	0.499997
Br123	Br	-0.055380	0.858823	-0.000027
Br124	Br	0.444620	1.358823	0.499973
Br125	Br	-0.121010	1.748119	-0.000050
Br126	Br	0.378990	2.248119	0.499950
H127	H	-0.012097	1.128257	-0.000013
H128	H	0.487903	1.628257	0.499987
Br129	Br	-0.313914	1.723249	-0.000026
Br130	Br	0.186086	2.223249	0.499974
H131	H	-0.513820	1.737601	-0.000026
H132	H	-0.013820	2.237601	0.499974
Br133	Br	-0.455187	1.266875	0.000014
Br134	Br	0.044813	1.766875	0.500014
Br135	Br	-0.689254	1.777235	-0.000028
Br136	Br	-0.189254	2.277235	0.499972
Br137	Br	0.000332	1.669556	-0.799265
Br138	Br	0.500332	2.169556	-0.299265
Br139	Br	0.010072	1.654801	-0.593246
Br140	Br	0.510072	2.154801	-0.093246
Br141	Br	-0.028316	1.712925	-0.406750
Br142	Br	0.471684	2.212925	0.093250
H143	H	0.200750	1.365760	-0.224495
H144	H	0.700750	1.865760	0.275505
Br145	Br	0.220842	1.335360	-0.406792
Br146	Br	0.720842	1.835360	0.093208
Br147	Br	0.259222	1.277222	-0.593303
Br148	Br	0.759222	1.777222	-0.093303
