data_functionalizedCrystal
_audit_creation_method	'MofGen! by Chris Wilmer'
_symmetry_space_group_name_H-M	'P1'
_symmetry_Int_Tables_number	1
_symmetry_cell_setting	triclinic
loop_
_symmetry_equiv_pos_as_xyz
  x,y,z
_cell_length_a	16.956985
_cell_length_b	14.853558
_cell_length_c	15.455313
_cell_angle_alpha	87.315599
_cell_angle_beta	87.535923
_cell_angle_gamma	100.157838
loop_
_atom_site_label
_atom_site_type_symbol
_atom_site_fract_x
_atom_site_fract_y
_atom_site_fract_z
O1	O	-0.100581	1.192677	-0.072121
O2	O	0.399419	1.692677	0.427879
O3	O	-0.112990	0.929275	-0.072125
O4	O	0.387010	1.429275	0.427875
O5	O	0.009276	1.076801	-0.072116
O6	O	0.509276	1.576801	0.427884
O7	O	-0.222847	1.045151	-0.072130
O8	O	0.277153	1.545151	0.427870
O9	O	0.002313	1.068367	0.072145
O10	O	0.502313	1.568367	0.572145
O11	O	-0.119952	0.920840	0.072136
O12	O	0.380048	1.420840	0.572136
O13	O	-0.107544	1.184243	0.072140
O14	O	0.392456	1.684243	0.572140
Cu15	Cu	-0.114384	1.051772	0.085311
Cu16	Cu	0.385616	1.551772	0.585311
Cu17	Cu	-0.106150	1.061746	-0.085296
Cu18	Cu	0.393850	1.561746	0.414704
O19	O	-0.229810	1.036717	0.072131
O20	O	0.270190	1.536717	0.572131
C21	C	-0.115910	0.891511	0.000005
C22	C	0.384090	1.391511	0.500005
C23	C	-0.114229	0.791555	0.000004
C24	C	0.385771	1.291555	0.500004
C25	C	0.035501	1.074204	0.000014
C26	C	0.535501	1.574204	0.500014
C27	C	0.124017	1.079023	0.000014
C28	C	0.624017	1.579023	0.500014
C29	C	-0.109645	0.749192	-0.078637
C30	C	0.390355	1.249192	0.421363
C31	C	-0.117227	0.739996	0.078643
C32	C	0.382773	1.239996	0.578643
C33	C	-0.115644	0.646083	0.078644
C34	C	0.384356	1.146083	0.578644
C35	C	-0.111060	0.603720	0.000004
C36	C	0.388940	1.103720	0.500004
C37	C	-0.108059	0.655271	-0.078638
C38	C	0.391941	1.155271	0.421362
C39	C	-0.118636	0.594527	0.157285
C40	C	0.381364	1.094527	0.657285
C41	C	-0.117051	0.500607	0.157289
C42	C	0.382949	1.000607	0.657289
C43	C	-0.112473	0.458242	0.078648
C44	C	0.387527	0.958242	0.578648
C45	C	-0.109474	0.509798	0.000003
C46	C	0.390526	1.009798	0.500003
C47	C	-0.104890	0.467436	-0.078637
C48	C	0.395110	0.967436	0.421363
C49	C	-0.101896	0.518989	-0.157283
C50	C	0.398104	1.018989	0.342717
C51	C	-0.103481	0.612905	-0.157279
C52	C	0.396519	1.112905	0.342721
C53	C	-0.110888	0.364326	0.078644
C54	C	0.389112	0.864326	0.578644
C55	C	-0.103304	0.373514	-0.078638
C56	C	0.396696	0.873514	0.421362
C57	C	0.156188	0.998460	0.000009
C58	C	0.656188	1.498460	0.500009
C59	C	0.239358	1.002993	0.000012
C60	C	0.739358	1.502993	0.500012
C61	C	0.290356	1.088090	0.000014
C62	C	0.790356	1.588090	0.500014
C63	C	0.258179	1.168658	0.000021
C64	C	0.758179	1.668658	0.500021
C65	C	0.175010	1.164124	0.000024
C66	C	0.675010	1.664124	0.500024
C67	C	0.540105	1.110532	0.000010
C68	C	1.040105	1.610532	0.500010
C69	C	0.623279	1.115060	0.000004
C70	C	1.123279	1.615060	0.500004
C71	C	0.604452	0.949394	-0.000004
C72	C	1.104452	1.449394	0.499996
C73	C	0.521282	0.944868	-0.000006
C74	C	1.021282	1.444868	0.499994
C75	C	0.489113	1.025436	0.000006
C76	C	0.989113	1.525436	0.500006
N77	N	0.375369	1.092725	0.000014
N78	N	0.875369	1.592725	0.500014
N79	N	0.404100	1.020799	0.000012
N80	N	0.904100	1.520799	0.500012
C81	C	0.743965	1.039314	0.000000
C82	C	1.243965	1.539314	0.500000
C83	C	0.655450	1.034497	-0.000001
C84	C	1.155450	1.534497	0.499999
N85	N	-0.120175	1.044763	0.205306
N86	N	0.379825	1.544763	0.705306
C87	C	-0.104624	1.222007	0.000008
C88	C	0.395376	1.722007	0.500008
C89	C	-0.106304	1.321963	0.000004
C90	C	0.393696	1.821963	0.500004
N91	N	-0.100352	1.068762	-0.205291
N92	N	0.399648	1.568762	0.294709
C93	C	-0.068252	1.107456	0.250704
C94	C	0.431748	1.607456	0.750704
C95	C	-0.072639	1.102164	0.341511
C96	C	0.427361	1.602164	0.841511
C97	C	-0.128953	1.034181	0.386919
C98	C	0.371047	1.534181	0.886919
C99	C	-0.180879	0.971481	0.341515
C100	C	0.319121	1.471481	0.841515
C101	C	-0.176488	0.976771	0.250709
C102	C	0.323512	1.476771	0.750709
C103	C	-0.147887	1.011352	0.658499
C104	C	0.352113	1.511352	1.158499
C105	C	-0.152276	1.006069	0.749311
C106	C	0.347724	1.506069	1.249311
C107	C	-0.044033	1.136751	0.749302
C108	C	0.455967	1.636751	1.249302
C109	C	-0.039650	1.142038	0.658494
C110	C	0.460350	1.642038	1.158494
C111	C	-0.091573	1.079335	0.613098
C112	C	0.408427	1.579335	1.113098
N113	N	-0.133441	1.028771	0.479739
N114	N	0.366559	1.528771	0.979739
N115	N	-0.087082	1.084741	0.520279
N116	N	0.412918	1.584741	1.020279
H117	H	-0.099576	0.339029	-0.142677
H118	H	0.400424	0.839029	0.357323
H119	H	-0.218769	0.925718	0.213747
H120	H	0.281231	1.425718	0.713747
Cl121	Cl	0.687391	1.222047	0.000000
Cl122	Cl	1.187391	1.722047	0.500000
Cl123	Cl	-0.124401	0.647786	0.256140
Cl124	Cl	0.375599	1.147786	0.756140
H125	H	-0.119488	0.458640	0.221328
H126	H	0.380512	0.958640	0.721328
H127	H	0.148818	1.229727	0.000030
H128	H	0.648818	1.729727	0.500030
Cl129	Cl	0.279798	0.901710	0.000004
Cl130	Cl	0.779798	1.401710	0.500004
H131	H	-0.190166	0.960298	0.621545
H132	H	0.309834	1.460298	1.121545
Cl133	Cl	-0.096114	0.465726	-0.256141
Cl134	Cl	0.403886	0.965726	0.243859
H135	H	0.479765	0.875573	-0.000009
H136	H	0.979765	1.375573	0.499991
Cl137	Cl	0.322290	1.275637	0.000033
Cl138	Cl	0.822290	1.775637	0.500033
Cl139	Cl	-0.099706	0.677722	-0.256138
Cl140	Cl	0.400294	1.177722	0.243862
H141	H	-0.107211	0.791170	-0.142668
H142	H	0.392789	1.291170	0.357332
Cl143	Cl	0.644899	0.848115	-0.000017
Cl144	Cl	1.144899	1.348115	0.499983
Cl145	Cl	-0.114639	0.299523	0.177504
Cl146	Cl	0.385361	0.799523	0.677504
Cl147	Cl	-0.122988	0.793254	0.177499
Cl148	Cl	0.377012	1.293254	0.677499
H149	H	0.114671	0.929166	0.000004
H150	H	0.614671	1.429166	0.500004
Cl151	Cl	-0.251673	0.886012	0.398597
Cl152	Cl	0.248327	1.386012	0.898597
H153	H	-0.001759	1.187800	0.786272
H154	H	0.498241	1.687800	1.286272
Cl155	Cl	-0.007361	1.180979	0.398585
Cl156	Cl	0.492639	1.680979	0.898585
Cl157	Cl	-0.223080	0.920598	0.806390
Cl158	Cl	0.276920	1.420598	1.306390
H159	H	0.513923	1.176136	0.000017
H160	H	1.013923	1.676136	0.500017
Cl161	Cl	0.002545	1.192929	0.193629
Cl162	Cl	0.502545	1.692929	0.693629
Cl163	Cl	0.031145	1.227503	0.601410
Cl164	Cl	0.531145	1.727503	1.101410
