data_functionalizedCrystal
_audit_creation_method	'MofGen! by Chris Wilmer'
_symmetry_space_group_name_H-M	'P1'
_symmetry_Int_Tables_number	1
_symmetry_cell_setting	triclinic
loop_
_symmetry_equiv_pos_as_xyz
  x,y,z
_cell_length_a	12.759401
_cell_length_b	12.759400
_cell_length_c	12.759393
_cell_angle_alpha	90.030447
_cell_angle_beta	90.018496
_cell_angle_gamma	90.013326
loop_
_atom_site_label
_atom_site_type_symbol
_atom_site_fract_x
_atom_site_fract_y
_atom_site_fract_z
Zn1	Zn	1.606267	-0.418200	0.593990
Zn2	Zn	1.606166	-0.593919	0.418313
Zn3	Zn	1.430569	-0.418255	0.418329
Zn4	Zn	1.430562	-0.593838	0.593955
O5	O	1.518391	-0.506053	0.506147
O6	O	1.753274	-0.441520	0.570694
O7	O	1.582833	-0.570673	0.271294
O8	O	1.453920	-0.271226	0.441652
O9	O	1.753200	-0.570620	0.441625
O10	O	1.583005	-0.271186	0.570709
O11	O	1.453822	-0.441614	0.271306
O12	O	1.283547	-0.441535	0.441618
O13	O	1.453909	-0.570482	0.740980
O14	O	1.283542	-0.570536	0.570649
O15	O	1.582998	-0.441442	0.741006
O16	O	1.582826	-0.740929	0.441591
O17	O	1.453811	-0.740870	0.570634
C18	C	1.245423	-0.506033	0.506132
C19	C	1.128647	-0.506050	0.506151
C20	C	1.518336	-0.779020	0.506130
C21	C	1.518408	-0.895797	0.506158
C22	C	1.073810	-0.573328	0.573227
C23	C	0.964086	-0.573342	0.573238
C24	C	0.964045	-0.438796	0.439089
C25	C	1.073767	-0.438778	0.439084
C26	C	1.128689	-0.640600	0.640294
C27	C	1.073852	-0.707885	0.707374
C28	C	0.964128	-0.707898	0.707385
C29	C	0.909241	-0.640627	0.640316
C30	C	1.585589	-0.950558	0.573413
C31	C	1.585638	-1.060282	0.573439
C32	C	1.451322	-1.060474	0.438945
C33	C	1.451269	-0.950752	0.438926
C34	C	1.652728	-0.895603	0.640645
C35	C	1.719915	-0.950364	0.707905
C36	C	1.719964	-1.060088	0.707931
C37	C	1.652826	-1.115051	0.640697
C38	C	1.792424	-0.506073	0.506161
C39	C	1.909201	-0.506082	0.506168
C40	C	1.518464	-0.505947	0.780180
C41	C	1.518496	-0.505902	0.896957
C42	C	1.518475	-0.232019	0.506186
C43	C	1.518510	-0.115243	0.506203
C44	C	1.518378	-0.506083	0.233179
C45	C	1.518550	-0.505832	0.116403
C46	C	1.585722	-0.438704	0.951834
C47	C	1.585747	-0.438666	1.061558
C48	C	1.451316	-0.573033	1.061518
C49	C	1.451287	-0.573064	0.951796
C50	C	1.652930	-0.371541	0.896994
C51	C	1.720163	-0.304339	0.951872
C52	C	1.720188	-0.304301	1.061596
C53	C	1.652980	-0.371465	1.116443
H54	H	1.118548	-0.762647	0.761985
C55	C	1.793746	-0.889915	0.781874
H56	H	1.833752	-0.938247	0.821944
H57	H	1.839529	-0.847104	0.741728
H58	H	1.753494	-0.847115	0.827608
H59	H	1.396563	-0.906165	0.384161
C60	C	0.903804	-0.781898	0.781171
H61	H	0.830597	-0.772269	0.771580
H62	H	0.921773	-0.852468	0.765672
H63	H	0.921818	-0.766598	0.851790
C64	C	1.652902	-0.371576	0.776302
H65	H	1.702550	-0.321948	0.751499
H66	H	1.671034	-0.439385	0.751467
H67	H	1.585101	-0.353397	0.751482
H68	H	1.396662	-1.105233	0.384206
H69	H	0.819896	-0.640634	0.640340
H70	H	0.919348	-0.384028	0.384484
H71	H	1.774874	-0.249649	0.907208
H72	H	1.774924	-0.249574	1.106274
C73	C	1.249381	-0.640583	0.640289
H74	H	1.274213	-0.690276	0.689843
H75	H	1.274177	-0.658659	0.572457
H76	H	1.274212	-0.572800	0.658585
C77	C	1.653010	-0.371424	1.237137
H78	H	1.702677	-0.321787	1.261967
H79	H	1.585225	-0.353245	1.261962
H80	H	1.671172	-0.439221	1.261940
C81	C	1.134092	-0.364770	0.365308
H82	H	1.085695	-0.324716	0.325357
H83	H	1.176910	-0.319039	0.405582
H84	H	1.176878	-0.404899	0.319454
H85	H	1.396599	-0.627714	1.106183
H86	H	1.396529	-0.627767	0.907114
H87	H	1.774662	-1.104672	0.762705
C88	C	1.652672	-0.774911	0.640618
H89	H	1.603049	-0.750167	0.590929
H90	H	1.634464	-0.750048	0.708396
H91	H	1.720471	-0.750059	0.622488
C92	C	1.652835	-1.235745	0.640771
H93	H	1.702450	-1.260490	0.690467
H94	H	1.585025	-1.260555	0.658897
H95	H	1.671045	-1.260648	0.573003
