data_functionalizedCrystal
_audit_creation_method	'MofGen! by Chris Wilmer'
_symmetry_space_group_name_H-M	'P1'
_symmetry_Int_Tables_number	1
_symmetry_cell_setting	triclinic
loop_
_symmetry_equiv_pos_as_xyz
  x,y,z
_cell_length_a	17.637651
_cell_length_b	19.805407
_cell_length_c	19.805399
_cell_angle_alpha	90.021064
_cell_angle_beta	78.757390
_cell_angle_gamma	78.782727
loop_
_atom_site_label
_atom_site_type_symbol
_atom_site_fract_x
_atom_site_fract_y
_atom_site_fract_z
Zn1	Zn	-0.314799	-0.980300	-0.328199
Zn2	Zn	0.018535	-0.646967	0.005134
Zn3	Zn	0.351868	-0.313633	0.338467
Zn4	Zn	-0.447014	-0.957352	-0.192102
Zn5	Zn	-0.113680	-0.624018	0.141232
Zn6	Zn	0.219653	-0.290685	0.474565
Zn7	Zn	-0.314818	-0.867111	-0.215018
Zn8	Zn	0.018515	-0.533778	0.118316
Zn9	Zn	0.351848	-0.200444	0.451649
Zn10	Zn	-0.446969	-0.844223	-0.305253
Zn11	Zn	-0.113636	-0.510889	0.028080
Zn12	Zn	0.219697	-0.177556	0.361414
O13	O	-0.380900	-0.912246	-0.260143
O14	O	-0.047567	-0.578913	0.073190
O15	O	0.285767	-0.245580	0.406524
O16	O	-0.332348	-1.071971	-0.310158
O17	O	0.000986	-0.738637	0.023175
O18	O	0.334319	-0.405304	0.356508
O19	O	-0.429504	-0.945356	-0.100420
O20	O	-0.096171	-0.612023	0.232913
O21	O	0.237162	-0.278690	0.566246
O22	O	-0.204178	-0.901309	-0.249225
O23	O	0.129156	-0.567975	0.084108
O24	O	0.462489	-0.234642	0.417441
O25	O	-0.429486	-1.055111	-0.210168
O26	O	-0.096152	-0.721777	0.123165
O27	O	0.237181	-0.388444	0.456499
O28	O	-0.204163	-0.984468	-0.332379
O29	O	0.129170	-0.651135	0.000954
O30	O	0.462503	-0.317801	0.334287
O31	O	-0.332381	-0.879057	-0.117257
O32	O	0.000952	-0.545723	0.216077
O33	O	0.334286	-0.212390	0.549410
O34	O	-0.332338	-0.769360	-0.226975
O35	O	0.000995	-0.436027	0.106358
O36	O	0.334329	-0.102694	0.439692
O37	O	-0.429410	-0.862299	-0.403018
O38	O	-0.096077	-0.528965	-0.069685
O39	O	0.237257	-0.195632	0.263649
O40	O	-0.429429	-0.752544	-0.293270
O41	O	-0.096096	-0.419211	0.040063
O42	O	0.237238	-0.085878	0.373396
O43	O	-0.332305	-0.962274	-0.419877
O44	O	0.001029	-0.628941	-0.086543
O45	O	0.334362	-0.295607	0.246790
O46	O	-0.557646	-0.923162	-0.187918
O47	O	-0.224313	-0.589829	0.145416
O48	O	0.109021	-0.256496	0.478749
O49	O	-0.557613	-0.840047	-0.271050
O50	O	-0.224280	-0.506714	0.062284
O51	O	0.109053	-0.173380	0.395617
C52	C	-0.380881	-0.736394	-0.260120
C53	C	-0.047548	-0.403060	0.073214
C54	C	0.285785	-0.069727	0.406547
C55	C	-0.380892	-0.661160	-0.260123
C56	C	-0.047559	-0.327826	0.073211
C57	C	0.285774	0.005507	0.406544
C58	C	-0.431523	-0.617064	-0.294559
C59	C	-0.098190	-0.283731	0.038775
C60	C	0.235144	0.049603	0.372108
C61	C	-0.431523	-0.546376	-0.294566
C62	C	-0.098190	-0.213042	0.038767
C63	C	0.235144	0.120291	0.372100
C64	C	-0.380896	-0.519784	-0.260133
C65	C	-0.047562	-0.186450	0.073200
C66	C	0.285771	0.146883	0.406533
C67	C	-0.330259	-0.563885	-0.225697
C68	C	0.003074	-0.230552	0.107637
C69	C	0.336407	0.102782	0.440970
C70	C	-0.330256	-0.634573	-0.225693
C71	C	0.003077	-0.301239	0.107640
C72	C	0.336411	0.032094	0.440973
C73	C	-0.330271	-0.278810	-0.225709
C74	C	0.003062	0.054524	0.107624
C75	C	0.336396	0.387857	0.440957
C76	C	-0.330280	-0.208116	-0.225714
C77	C	0.003053	0.125217	0.107620
C78	C	0.336387	0.458551	0.440953
C79	C	-0.431538	-0.190613	-0.294582
C80	C	-0.098204	0.142721	0.038751
C81	C	0.235129	0.476054	0.372084
C82	C	-0.431534	-0.261300	-0.294579
C83	C	-0.098201	0.072033	0.038754
C84	C	0.235132	0.405366	0.372087
C85	C	-0.380896	-0.305396	-0.260146
C86	C	-0.047562	0.027937	0.073188
C87	C	0.285771	0.361270	0.406521
C88	C	-0.380895	-0.382045	-0.260139
C89	C	-0.047562	-0.048711	0.073195
C90	C	0.285771	0.284622	0.406528
C91	C	-0.380899	-0.443136	-0.260136
C92	C	-0.047566	-0.109802	0.073197
C93	C	0.285767	0.223531	0.406531
C94	C	-0.586317	-0.876649	-0.224522
C95	C	-0.252984	-0.543316	0.108812
C96	C	0.080350	-0.209982	0.442145
C97	C	-0.674195	-0.861482	-0.209305
C98	C	-0.340862	-0.528149	0.124028
C99	C	-0.007529	-0.194816	0.457361
C100	C	-0.962884	-1.027907	-0.375953
C101	C	-0.629551	-0.694573	-0.042619
C102	C	-0.296217	-0.361240	0.290714
C103	C	-1.045459	-1.013634	-0.361643
C104	C	-0.712126	-0.680300	-0.028310
C105	C	-0.378792	-0.346967	0.305024
C106	C	-1.045581	-0.927097	-0.274971
C107	C	-0.712248	-0.593764	0.058362
C108	C	-0.378914	-0.260431	0.391696
C109	C	-0.963005	-0.941366	-0.289271
C110	C	-0.629671	-0.608032	0.044062
C111	C	-0.296338	-0.274699	0.377396
C112	C	-0.921662	-0.991770	-0.339763
C113	C	-0.588329	-0.658437	-0.006430
C114	C	-0.254996	-0.325104	0.326903
C115	C	-0.921783	-0.905229	-0.253082
C116	C	-0.588450	-0.571896	0.080252
C117	C	-0.255116	-0.238563	0.413585
C118	C	-0.839214	-0.919494	-0.267383
C119	C	-0.505880	-0.586161	0.065950
C120	C	-0.172547	-0.252827	0.399283
C121	C	-0.797866	-0.969895	-0.317875
C122	C	-0.464532	-0.636562	0.015459
C123	C	-0.131199	-0.303228	0.348792
C124	C	-0.839093	-1.006035	-0.354065
C125	C	-0.505760	-0.672702	-0.020732
C126	C	-0.172426	-0.339368	0.312602
C127	C	-0.963127	-0.854821	-0.202593
C128	C	-0.629793	-0.521488	0.130740
C129	C	-0.296460	-0.188155	0.464074
C130	C	-0.921905	-0.818685	-0.166404
C131	C	-0.588572	-0.485352	0.166930
C132	C	-0.255238	-0.152018	0.500263
C133	C	-0.839334	-0.832953	-0.180702
C134	C	-0.506001	-0.499620	0.152632
C135	C	-0.172667	-0.166286	0.485965
C136	C	-0.797986	-0.883354	-0.231193
C137	C	-0.464653	-0.550021	0.102140
C138	C	-0.131320	-0.216687	0.435474
C139	C	-0.798107	-0.796813	-0.144511
C140	C	-0.464773	-0.463480	0.188822
C141	C	-0.131440	-0.130146	0.522155
C142	C	-0.715537	-0.811078	-0.158813
C143	C	-0.382204	-0.477744	0.174520
C144	C	-0.048871	-0.144411	0.507853
C145	C	-0.715417	-0.897619	-0.245495
C146	C	-0.382083	-0.564285	0.087839
C147	C	-0.048750	-0.230952	0.421172
C148	C	-0.174681	-0.948001	-0.295918
C149	C	0.158652	-0.614668	0.037415
C150	C	0.491986	-0.281335	0.370749
C151	C	-0.086803	-0.963238	-0.311163
C152	C	0.246531	-0.629904	0.022170
C153	C	0.579864	-0.296571	0.355503
C154	C	-0.380850	-0.912293	-0.436694
C155	C	-0.047517	-0.578960	-0.103361
C156	C	0.285816	-0.245626	0.229972
C157	C	-0.380829	-0.912313	-0.511930
C158	C	-0.047496	-0.578979	-0.178597
C159	C	0.285838	-0.245646	0.154737
C160	C	-0.380914	-0.088787	-0.260161
C161	C	-0.047581	0.244547	0.073172
C162	C	0.285752	0.577880	0.406506
C163	C	-0.380907	-0.164020	-0.260154
C164	C	-0.047574	0.169313	0.073179
C165	C	0.285760	0.502647	0.406513
C166	C	-0.330264	-0.964371	-0.556054
C167	C	0.003069	-0.631038	-0.222721
C168	C	0.336403	-0.297705	0.110613
C169	C	-0.330241	-0.964382	-0.626747
C170	C	0.003092	-0.631049	-0.293413
C171	C	0.336426	-0.297716	0.039920
C172	C	-0.380788	-0.912337	-0.653313
C173	C	-0.047454	-0.579003	-0.319980
C174	C	0.285879	-0.245670	0.013354
C175	C	-0.431355	-0.860273	-0.609184
C176	C	-0.098022	-0.526940	-0.275850
C177	C	0.235311	-0.193606	0.057483
C178	C	-0.431374	-0.860260	-0.538493
C179	C	-0.098040	-0.526927	-0.205160
C180	C	0.235293	-0.193593	0.128173
C181	C	-0.431281	-0.860324	-0.894270
C182	C	-0.097948	-0.526991	-0.560936
C183	C	0.235385	-0.193657	-0.227603
C184	C	-0.431261	-0.860342	-0.964965
C185	C	-0.097928	-0.527009	-0.631632
C186	C	0.235406	-0.193676	-0.298299
C187	C	-0.330149	-0.964446	-0.982523
C188	C	0.003184	-0.631113	-0.649190
C189	C	0.336518	-0.297780	-0.315856
C190	C	-0.330167	-0.964433	-0.911833
C191	C	0.003166	-0.631100	-0.578499
C192	C	0.336499	-0.297767	-0.245166
C193	C	-0.380731	-0.912368	-0.867710
C194	C	-0.047398	-0.579035	-0.534377
C195	C	0.285935	-0.245701	-0.201043
C196	C	-0.380755	-0.912356	-0.791058
C197	C	-0.047421	-0.579023	-0.457724
C198	C	0.285912	-0.245689	-0.124391
C199	C	-0.380769	-0.912351	-0.729963
C200	C	-0.047436	-0.579017	-0.396630
C201	C	0.285898	-0.245684	-0.063297
C202	C	-0.380893	-0.912249	-0.084288
C203	C	-0.047559	-0.578915	0.249045
C204	C	0.285774	-0.245582	0.582378
C205	C	-0.380691	-0.912399	-0.009092
C206	C	-0.047358	-0.579065	0.324242
C207	C	0.285976	-0.245732	0.657575
H208	H	-0.472767	-0.154702	-0.322623
H209	H	-0.139434	0.178632	0.010710
H210	H	0.193899	0.511965	0.344044
C211	C	-0.274657	-1.021626	-0.526839
C212	C	0.058677	-0.688293	-0.193505
C213	C	0.392010	-0.354959	0.139828
N214	N	-0.232769	-1.064750	-0.504836
N215	N	0.100565	-0.731417	-0.171503
N216	N	0.433898	-0.398084	0.161831
C217	C	-0.274560	-0.683078	-0.187809
C218	C	0.058773	-0.349745	0.145524
C219	C	0.392107	-0.016411	0.478857
N220	N	-0.232607	-0.719612	-0.159275
N221	N	0.100726	-0.386278	0.174058
N222	N	0.434060	-0.052945	0.507392
C223	C	-0.486864	-0.803082	-0.994187
C224	C	-0.153530	-0.469748	-0.660854
C225	C	0.179803	-0.136415	-0.327520
N226	N	-0.528741	-0.759955	-1.016197
N227	N	-0.195407	-0.426621	-0.682864
N228	N	0.137926	-0.093288	-0.349530
H229	H	-0.831780	-0.755769	-0.103406
H230	H	-0.498447	-0.422436	0.229928
H231	H	-0.165113	-0.089102	0.563261
C232	C	-0.967391	-0.763284	-0.110821
C233	C	-0.634057	-0.429951	0.222512
C234	C	-0.300724	-0.096617	0.555845
N235	N	-1.001650	-0.721572	-0.068939
N236	N	-0.668316	-0.388238	0.264394
N237	N	-0.334983	-0.054905	0.597728
H238	H	-0.289068	-1.006775	-0.662670
H239	H	0.044266	-0.673441	-0.329336
H240	H	0.377599	-0.340108	0.003997
H241	H	-0.681974	-0.781651	-0.129344
H242	H	-0.348641	-0.448317	0.203989
H243	H	-0.015308	-0.114984	0.537322
C244	C	-0.274559	-1.021685	-0.882615
C245	C	0.058774	-0.688352	-0.549282
C246	C	0.392108	-0.355018	-0.215948
N247	N	-0.232670	-1.064806	-0.860610
N248	N	0.100664	-0.731473	-0.527276
N249	N	0.433997	-0.398139	-0.193943
H250	H	-0.472465	-0.817937	-0.858351
H251	H	-0.139132	-0.484604	-0.525018
H252	H	0.194201	-0.151270	-0.191684
H253	H	-0.472508	-0.817895	-0.630820
H254	H	-0.139175	-0.484561	-0.297487
H255	H	0.194158	-0.151228	0.035847
H256	H	-0.730632	-0.981509	-0.329518
H257	H	-0.397299	-0.648175	0.003815
H258	H	-0.063966	-0.314842	0.337149
C259	C	-0.487218	-0.646308	-0.332438
C260	C	-0.153885	-0.312975	0.000896
C261	C	0.179448	0.020359	0.334229
N262	N	-0.529167	-0.668333	-0.360972
N263	N	-0.195834	-0.334999	-0.027639
N264	N	0.137499	-0.001666	0.305695
C265	C	-0.487236	-0.497870	-0.332433
C266	C	-0.153902	-0.164537	0.000900
C267	C	0.179431	0.168796	0.334234
N268	N	-0.529206	-0.461335	-0.360951
N269	N	-0.195873	-0.128002	-0.027618
N270	N	0.137460	0.205331	0.305716
H271	H	-0.681754	-0.938668	-0.286606
H272	H	-0.348421	-0.605335	0.046728
H273	H	-0.015088	-0.272002	0.380061
C274	C	-1.053956	-0.839127	-0.186866
C275	C	-0.720623	-0.505794	0.146467
C276	C	-0.387289	-0.172461	0.479801
N277	N	-1.122369	-0.827307	-0.175021
N278	N	-0.789036	-0.493973	0.158312
N279	N	-0.455702	-0.160640	0.491645
H280	H	-0.288974	-1.006839	-1.018457
H281	H	0.044359	-0.673505	-0.685124
H282	H	0.377692	-0.340172	-0.351790
H283	H	-0.289048	-0.186469	-0.197675
H284	H	0.044285	0.146865	0.135658
H285	H	0.377619	0.480198	0.468992
C286	C	-0.487001	-0.802993	-0.489956
C287	C	-0.153667	-0.469659	-0.156623
C288	C	0.179666	-0.136326	0.176710
N289	N	-0.528899	-0.759856	-0.453399
N290	N	-0.195566	-0.426522	-0.120066
N291	N	0.137767	-0.093189	0.213268
C292	C	-0.487229	-0.290547	-0.332457
C293	C	-0.153896	0.042786	0.000877
C294	C	0.179437	0.376120	0.334210
N295	N	-0.529178	-0.312575	-0.360989
N296	N	-0.195845	0.020759	-0.027656
N297	N	0.137489	0.354092	0.305678
C298	C	-0.274572	-0.327305	-0.187826
C299	C	0.058762	0.006028	0.145507
C300	C	0.392095	0.339361	0.478840
N301	N	-0.232618	-0.363835	-0.159289
N302	N	0.100716	-0.030502	0.174044
N303	N	0.434049	0.302832	0.507377
H304	H	-0.805431	-1.047085	-0.395176
H305	H	-0.472097	-0.713751	-0.061843
H306	H	-0.138764	-0.380418	0.271491
C307	C	-0.274567	-0.534632	-0.187822
C308	C	0.058767	-0.201298	0.145511
C309	C	0.392100	0.132035	0.478845
N310	N	-0.232620	-0.512598	-0.159292
N311	N	0.100714	-0.179265	0.174041
N312	N	0.434047	0.154068	0.507374
C313	C	-0.917403	-1.083354	-0.431498
C314	C	-0.584070	-0.750020	-0.098165
C315	C	-0.250736	-0.416687	0.235169
N316	N	-0.883147	-1.125112	-0.473335
N317	N	-0.549813	-0.791779	-0.140002
N318	N	-0.216480	-0.458445	0.193331
H319	H	-1.079018	-1.043054	-0.391126
H320	H	-0.745685	-0.709721	-0.057793
H321	H	-0.412352	-0.376388	0.275540
H322	H	-1.079253	-0.886056	-0.233862
H323	H	-0.745920	-0.552723	0.099471
H324	H	-0.412586	-0.219390	0.432805
