data_functionalizedCrystal
_audit_creation_method	'MofGen! by Chris Wilmer'
_symmetry_space_group_name_H-M	'P1'
_symmetry_Int_Tables_number	1
_symmetry_cell_setting	triclinic
loop_
_symmetry_equiv_pos_as_xyz
  x,y,z
_cell_length_a	12.827893
_cell_length_b	16.625546
_cell_length_c	12.827885
_cell_angle_alpha	89.964876
_cell_angle_beta	89.980728
_cell_angle_gamma	90.022439
loop_
_atom_site_label
_atom_site_type_symbol
_atom_site_fract_x
_atom_site_fract_y
_atom_site_fract_z
Zn1	Zn	1.597618	-0.320963	-0.590810
Zn2	Zn	1.597491	-0.455817	-0.416054
Zn3	Zn	1.422860	-0.321002	-0.416084
Zn4	Zn	1.422823	-0.455757	-0.590754
O5	O	1.510198	-0.388385	-0.503425
O6	O	1.743837	-0.338861	-0.567639
O7	O	1.574287	-0.437976	-0.269822
O8	O	1.446110	-0.208165	-0.439297
O9	O	1.743744	-0.437937	-0.439247
O10	O	1.574505	-0.208136	-0.567668
O11	O	1.445987	-0.338928	-0.269843
O12	O	1.276619	-0.338869	-0.439243
O13	O	1.446048	-0.437835	-0.736997
O14	O	1.276592	-0.437873	-0.567572
O15	O	1.574469	-0.338802	-0.737039
O16	O	1.574252	-0.568642	-0.439192
O17	O	1.445925	-0.568598	-0.567544
C18	C	1.238688	-0.388370	-0.503405
C19	C	1.122535	-0.388382	-0.503422
C20	C	1.510099	-0.597876	-0.503382
C21	C	1.510152	-0.687497	-0.503398
C22	C	1.070765	-0.437449	-0.566825
C23	C	0.950714	-0.437464	-0.566844
C24	C	1.510335	-1.015673	-0.503507
C25	C	1.510281	-0.924364	-0.503479
C26	C	1.510243	-0.851588	-0.503452
C27	C	1.510190	-0.760274	-0.503425
C28	C	1.782768	-0.388401	-0.503446
C29	C	1.898921	-0.388408	-0.503455
C30	C	1.510269	-0.388308	-0.775996
C31	C	1.510299	-0.388275	-0.892149
C32	C	1.510326	-0.178076	-0.503492
C33	C	1.510380	-0.088455	-0.503521
C34	C	1.446806	-0.437224	-1.063958
C35	C	1.446773	-0.437259	-0.943907
C36	C	1.510187	-0.388404	-0.231915
C37	C	1.510359	-0.388210	-0.115763
H38	H	1.115319	-0.479444	-0.621098
H39	H	1.564716	-0.346312	-0.936693
C40	C	0.891491	-0.493431	-0.639400
C41	C	0.918041	-0.475993	-0.742853
C42	C	0.863513	-0.527541	-0.809723
H43	H	0.818678	-0.486046	-0.629933
H44	H	0.909324	-0.547617	-0.624060
H45	H	0.900201	-0.421820	-0.758188
H46	H	0.990845	-0.483383	-0.752353
H47	H	0.881346	-0.581728	-0.794383
H48	H	0.790702	-0.520152	-0.800247
H49	H	0.881526	-0.515722	-0.879922
H50	H	1.392416	-0.479158	-1.108482
C51	C	1.063327	-0.332292	-0.431016
C52	C	1.134354	-0.287008	-0.372535
C53	C	1.079852	-0.235320	-0.305832
H54	H	1.020710	-0.363039	-0.385365
H55	H	1.020802	-0.297187	-0.471095
H56	H	1.176861	-0.322108	-0.332459
H57	H	1.176972	-0.256244	-0.418158
H58	H	1.037328	-0.200215	-0.345911
H59	H	1.037238	-0.266073	-0.260189
H60	H	1.128036	-0.204583	-0.266152
C61	C	1.374390	-0.493263	-0.884375
C62	C	1.433573	-0.544906	-0.821684
C63	C	1.366929	-0.596501	-0.766815
H64	H	1.334513	-0.524069	-0.932298
H65	H	1.328922	-0.462421	-0.841740
H66	H	1.479022	-0.575745	-0.864316
H67	H	1.473448	-0.514122	-0.773742
H68	H	1.321461	-0.565659	-0.724179
H69	H	1.327055	-0.627302	-0.814745
H70	H	1.407073	-0.631542	-0.724265
C71	C	1.582709	-0.332236	-1.056277
C72	C	1.523491	-0.280627	-0.993613
C73	C	1.590104	-0.229055	-0.938794
H74	H	1.622607	-0.301403	-1.104229
H75	H	1.628159	-0.363097	-1.013627
H76	H	1.478060	-0.249769	-1.036259
H77	H	1.483596	-0.311437	-0.945641
H78	H	1.635554	-0.259917	-0.896144
H79	H	1.629999	-0.198229	-0.986755
H80	H	1.549936	-0.194038	-0.896264
H81	H	0.943436	-0.346401	-0.449166
