data_functionalizedCrystal
_audit_creation_method	'MofGen! by Chris Wilmer'
_symmetry_space_group_name_H-M	'P1'
_symmetry_Int_Tables_number	1
_symmetry_cell_setting	triclinic
loop_
_symmetry_equiv_pos_as_xyz
  x,y,z
_cell_length_a	17.917603
_cell_length_b	14.809374
_cell_length_c	14.809374
_cell_angle_alpha	98.842287
_cell_angle_beta	57.814785
_cell_angle_gamma	115.343102
loop_
_atom_site_label
_atom_site_type_symbol
_atom_site_fract_x
_atom_site_fract_y
_atom_site_fract_z
Zr1	Zr	0.767274	0.281752	0.954764
O2	O	0.901369	0.402080	0.829681
O3	O	0.619121	0.238550	0.986439
O4	O	0.742049	0.420146	1.013519
O5	O	0.803241	0.084421	0.788828
O6	O	0.738142	0.441580	1.166120
O7	O	0.778441	0.220484	0.802602
O8	O	0.518247	0.116738	1.117680
O9	O	1.023136	0.409263	0.837268
O10	O	0.682350	0.243750	1.121891
O11	O	0.703773	0.126212	0.997727
O12	O	0.848504	0.340018	1.029610
O13	O	0.869928	0.222480	0.905446
Zr14	Zr	0.800596	0.098932	1.176178
Zr15	Zr	0.761043	0.315936	1.198145
Zr16	Zr	0.806827	0.064747	0.932796
Zr17	Zr	0.961479	0.293208	0.966864
Zr18	Zr	0.606391	0.087476	1.164078
O19	O	0.948749	0.142134	1.144503
O20	O	0.892509	0.450686	1.175738
O21	O	0.957608	0.093528	0.798446
O22	O	0.666502	-0.021396	1.301261
O23	O	0.610262	0.287156	1.332496
O24	O	0.675361	-0.070002	0.955204
O25	O	0.764629	0.296262	1.342114
O26	O	0.825821	-0.039462	1.117423
O27	O	0.829728	-0.060896	0.964822
O28	O	0.789429	0.160200	1.328340
O29	O	1.018183	0.436435	1.030724
O30	O	0.549687	-0.055751	1.100218
O31	O	0.544734	-0.028579	1.293674
O32	O	0.513295	0.143911	1.311135
O33	O	1.054576	0.236773	0.819807
O34	O	1.049623	0.263945	1.013262
O35	O	0.719366	0.040666	1.101332
O36	O	0.697942	0.158204	1.225496
O37	O	0.864097	0.254472	1.133215
O38	O	0.885521	0.136934	1.009051
C39	C	0.541014	0.176012	1.050335
C40	C	0.458569	0.171149	1.045199
C41	C	0.734460	0.461781	1.092949
C42	C	0.717669	0.553905	1.102275
C43	C	0.833410	-0.081097	1.037993
C44	C	0.850202	-0.173221	1.028667
C45	C	0.307618	0.162267	1.035813
C46	C	0.260247	0.218414	1.095125
C47	C	0.176253	0.213472	1.089904
C48	C	0.391621	0.167207	1.041034
C49	C	1.026856	0.204672	1.080607
C50	C	1.109301	0.209535	1.085743
C51	C	0.791729	0.147582	0.761038
C52	C	0.794374	0.133070	0.657716
C53	C	0.792606	0.642732	1.060655
C54	C	0.775254	0.737948	1.070293
C55	C	0.782569	0.197836	0.618863
C56	C	0.785303	0.182839	0.512075
C57	C	0.776141	0.233102	1.369904
C58	C	0.773496	0.247614	1.473226
C59	C	0.533220	0.218772	1.354768
C60	C	0.448130	0.228421	1.452953
C61	C	0.590489	-0.095427	1.022857
C62	C	0.524836	-0.192415	1.008395
C63	C	0.582696	-0.052667	1.327290
C64	C	0.514397	-0.135143	1.416149
C65	C	0.985175	0.433351	0.803652
C66	C	1.053473	0.515826	0.714793
C67	C	1.034650	0.161912	0.776174
C68	C	1.119740	0.152263	0.677989
C69	C	0.977381	0.476111	1.108085
C70	C	1.043034	0.573098	1.122547
C71	C	0.400030	0.277615	1.444982
C72	C	0.320086	0.286701	1.537231
C73	C	0.288239	0.246585	1.637448
C74	C	0.336348	0.197389	1.645418
C75	C	0.416294	0.188310	1.553171
C76	C	0.502145	-0.282624	1.055683
C77	C	0.440469	-0.373762	1.042089
C78	C	0.401479	-0.374688	0.981213
C79	C	0.424176	-0.284469	0.933919
C80	C	0.485856	-0.193334	0.947507
C81	C	0.471140	-0.112519	1.522701
C82	C	0.406975	-0.190003	1.606204
C83	C	0.386063	-0.290110	1.583153
C84	C	0.429327	-0.312733	1.476591
C85	C	0.493496	-0.235250	1.393090
C86	C	1.096740	0.493203	0.608242
C87	C	1.160929	0.570689	0.524740
C88	C	1.181845	0.670796	0.547791
C89	C	1.138575	0.693419	0.654353
C90	C	1.074393	0.615935	0.737853
C91	C	1.167846	0.103078	0.685961
C92	C	1.247808	0.094018	0.593717
C93	C	1.279656	0.134137	0.493499
C94	C	1.231545	0.183328	0.485529
C95	C	1.151590	0.192394	0.577774
C96	C	1.082005	0.573992	1.183430
C97	C	1.143684	0.665116	1.197040
C98	C	1.166397	0.755345	1.149760
C99	C	1.127419	0.754449	1.088875
C100	C	1.065736	0.663327	1.075272
H101	H	0.282775	0.270196	1.149825
H102	H	1.286968	0.053958	0.600226
H103	H	0.371753	-0.171565	1.692965
H104	H	0.797429	0.116279	0.466287
H105	H	0.698244	0.732385	1.113066
H106	H	1.112424	0.232442	0.571267
H107	H	0.640665	0.548349	1.145046
H108	H	0.421997	-0.447212	1.080608
C109	C	0.893632	0.554466	1.004544
C110	C	0.896564	0.650246	1.002917
H111	H	0.957814	0.559109	0.968893
H112	H	0.859181	0.527225	1.076694
H113	H	0.861926	0.512113	0.969132
H114	H	0.928264	0.692597	1.038336
H115	H	0.931029	0.677501	0.930754
C116	C	1.058739	0.745044	0.857558
C117	C	1.026825	0.640813	0.854974
H118	H	1.029368	0.760405	0.929864
H119	H	1.127145	0.775236	0.824981
H120	H	1.041331	0.770175	0.819595
H121	H	1.044238	0.615682	0.892931
H122	H	0.958404	0.610609	0.887566
C123	C	0.530882	0.393650	1.289580
C124	C	0.435028	0.321721	1.334829
H125	H	0.552486	0.420879	1.221577
H126	H	0.534203	0.445805	1.335346
H127	H	0.570967	0.363040	1.281114
H128	H	0.394941	0.352333	1.343303
H129	H	0.431701	0.269557	1.289053
H130	H	0.280925	0.326760	1.530721
C131	C	1.004940	0.874487	0.864569
C132	C	0.954168	0.834309	0.970923
H133	H	1.069125	0.879141	0.828925
H134	H	0.973239	0.832121	0.829169
H135	H	1.006903	0.939456	0.863489
H136	H	0.952200	0.769337	0.972004
H137	H	0.985878	0.876676	1.006333
H138	H	1.034012	0.662612	1.025691
H139	H	0.412291	-0.394250	1.457838
H140	H	0.806499	0.066515	0.611925
C141	C	0.250136	-0.007026	0.992185
C142	C	0.277135	0.092327	0.962047
H143	H	0.231282	-0.050213	0.946670
H144	H	0.303424	-0.012844	0.985990
H145	H	0.197378	-0.025406	1.064330
H146	H	0.329898	0.110710	0.889904
H147	H	0.223842	0.098149	0.968232
C148	C	1.287792	0.708362	1.199736
C149	C	1.186532	0.666088	1.263956
H150	H	1.314241	0.708965	1.241049
H151	H	1.307676	0.669657	1.141077
H152	H	1.310130	0.775142	1.173543
H153	H	1.164193	0.599305	1.290142
H154	H	1.166639	0.704793	1.322634
H155	H	1.234108	0.733879	0.479790
C156	C	0.456548	-0.243856	0.762202
C157	C	0.381299	-0.285506	0.867018
H158	H	0.430068	-0.244507	0.720906
H159	H	0.496520	-0.176670	0.763515
H160	H	0.494080	-0.282158	0.731093
H161	H	0.343771	-0.247199	0.898130
H162	H	0.341311	-0.352704	0.865708
H163	H	0.488155	-0.031012	1.541490
H164	H	1.063524	0.500532	1.221933
C165	C	1.134515	0.847950	0.631531
C166	C	1.161575	0.803482	0.679600
H167	H	1.148711	0.915903	0.647098
H168	H	1.169453	0.845487	0.556142
H169	H	1.067024	0.812623	0.658770
H170	H	1.229068	0.838804	0.652355
H171	H	1.126639	0.805951	0.755004
C172	C	1.261646	0.150485	0.307939
C173	C	1.266555	0.227413	0.375362
H174	H	1.283253	0.177697	0.239927
H175	H	1.301736	0.119905	0.299500
H176	H	1.196614	0.101690	0.338660
H177	H	1.331588	0.276205	0.344645
H178	H	1.226464	0.258009	0.383797
H179	H	0.770433	0.264386	0.664659
C180	C	0.757572	0.334930	0.628863
C181	C	0.757112	0.337463	0.535037
H182	H	0.747460	0.390401	0.667019
H183	H	0.707302	0.274197	0.672414
H184	H	0.818273	0.338493	0.610785
H185	H	0.696408	0.333893	0.553116
H186	H	0.807386	0.398211	0.491478
H187	H	1.344762	0.126747	0.418396
H188	H	1.141923	0.070400	0.767554
C189	C	0.164861	0.308207	1.710665
C190	C	0.200352	0.256560	1.738840
H191	H	0.110598	0.314358	1.773258
H192	H	0.214119	0.373125	1.677358
H193	H	0.145781	0.272153	1.662284
H194	H	0.219439	0.292618	1.787216
H195	H	0.151084	0.191631	1.772164
H196	H	0.310406	0.164730	1.727028
H197	H	1.216626	0.829536	1.160844
C198	C	0.236956	-0.438253	1.663555
C199	C	0.315527	-0.375280	1.674941
H200	H	0.193415	-0.490833	1.720220
H201	H	0.204434	-0.400594	1.665933
H202	H	0.259736	-0.466051	1.596793
H203	H	0.292747	-0.347476	1.741699
H204	H	0.348054	-0.412945	1.672573
H205	H	0.533885	-0.281890	1.105253
C206	C	0.424302	0.100922	1.669390
C207	C	0.469151	0.134217	1.561943
H208	H	0.456929	0.067520	1.674807
H209	H	0.426967	0.156804	1.710638
H210	H	0.358597	0.055847	1.695586
H211	H	0.534855	0.179298	1.535748
H212	H	0.466496	0.078327	1.520679
C213	C	1.105162	0.833623	0.980592
C214	C	1.152391	0.853635	1.036907
H215	H	1.120579	0.894859	0.948513
H216	H	1.125732	0.791207	0.926429
H217	H	1.037141	0.801245	1.028647
H218	H	1.220413	0.886006	0.988850
H219	H	1.131826	0.896067	1.091076
H220	H	0.351256	-0.448904	0.970157
H221	H	0.504321	-0.119885	0.909001
H222	H	0.528709	-0.253685	1.306333
H223	H	1.079714	0.411696	0.589452
H224	H	1.196149	0.552249	0.437979
