data_functionalizedCrystal
_audit_creation_method	'MofGen! by Chris Wilmer'
_symmetry_space_group_name_H-M	'P1'
_symmetry_Int_Tables_number	1
_symmetry_cell_setting	triclinic
loop_
_symmetry_equiv_pos_as_xyz
  x,y,z
_cell_length_a	19.188930
_cell_length_b	11.792241
_cell_length_c	10.868271
_cell_angle_alpha	90.000107
_cell_angle_beta	89.989749
_cell_angle_gamma	96.330901
loop_
_atom_site_label
_atom_site_type_symbol
_atom_site_fract_x
_atom_site_fract_y
_atom_site_fract_z
O1	O	0.095695	-1.505476	-0.102218
O2	O	0.595695	-1.005476	0.397782
O3	O	0.105557	-1.174987	-0.102248
O4	O	0.605557	-0.674987	0.397752
O5	O	-0.000975	-1.349769	-0.102208
O6	O	0.499025	-0.849769	0.397792
O7	O	0.202228	-1.330695	-0.102258
O8	O	0.702228	-0.830695	0.397742
O9	O	-0.000980	-1.349755	0.102437
O10	O	0.499020	-0.849755	0.602437
O11	O	0.105553	-1.174973	0.102396
O12	O	0.605553	-0.674973	0.602396
O13	O	0.095691	-1.505462	0.102427
O14	O	0.595691	-1.005462	0.602427
Zn15	Zn	0.100621	-1.340215	0.134903
Zn16	Zn	0.600621	-0.840215	0.634903
Zn17	Zn	0.100627	-1.340234	-0.134725
Zn18	Zn	0.600627	-0.840234	0.365275
O19	O	0.202224	-1.330680	0.102387
O20	O	0.702224	-0.830680	0.602387
C21	C	-0.026992	-1.349144	0.000118
C22	C	0.473008	-0.849144	0.500118
C23	C	-0.104507	-1.347290	0.000128
C24	C	0.395493	-0.847290	0.500128
C25	C	0.104936	-1.132699	0.000071
C26	C	0.604936	-0.632699	0.500071
C27	C	0.103082	-1.006713	0.000060
C28	C	0.603082	-0.506713	0.500060
N29	N	0.100617	-1.340211	0.318917
N30	N	0.600617	-0.840211	0.818917
C31	C	-0.148850	-1.449846	0.000143
C32	C	0.351150	-0.949846	0.500143
C33	C	-0.221684	-1.448104	0.000123
C34	C	0.278316	-0.948104	0.500123
C35	C	-0.250171	-1.343800	0.000113
C36	C	0.249829	-0.843800	0.500113
C37	C	-0.205818	-1.241230	0.000091
C38	C	0.294182	-0.741230	0.500091
C39	C	-0.132986	-1.242975	0.000098
C40	C	0.367014	-0.742975	0.500098
N41	N	-0.358629	-1.264067	0.069750
N42	N	0.141371	-0.764067	0.569750
N43	N	-0.427817	-1.262417	0.069746
N44	N	0.072183	-0.762417	0.569746
C45	C	-0.469609	-1.338536	0.000088
C46	C	0.030391	-0.838536	0.500088
N47	N	-0.439602	-1.416386	-0.069550
N48	N	0.060398	-0.916386	0.430450
N49	N	-0.370408	-1.418040	-0.069540
N50	N	0.129592	-0.918040	0.430460
C51	C	-0.329144	-1.341896	0.000104
C52	C	0.170856	-0.841896	0.500104
C53	C	-0.592928	-1.439211	0.000080
C54	C	-0.092928	-0.939211	0.500080
C55	C	-0.665762	-1.437464	0.000052
C56	C	-0.165762	-0.937464	0.500052
C57	C	-0.649895	-1.230588	0.000032
C58	C	-0.149895	-0.730588	0.500032
C59	C	-0.577062	-1.232337	0.000047
C60	C	-0.077062	-0.732337	0.500047
C61	C	-0.548583	-1.336652	0.000077
C62	C	-0.048583	-0.836652	0.500077
C63	C	0.228240	-1.331305	0.000058
C64	C	0.728240	-0.831305	0.500058
C65	C	0.305755	-1.333159	0.000040
C66	C	0.805755	-0.833159	0.500040
C67	C	0.096313	-1.547751	0.000105
C68	C	0.596313	-1.047751	0.500105
C69	C	0.098167	-1.673737	0.000108
C70	C	0.598167	-1.173737	0.500108
C71	C	0.099672	-0.776051	0.000096
C72	C	0.599672	-0.276051	0.500096
C73	C	0.101566	-0.904408	0.000076
C74	C	0.601566	-0.404408	0.500076
N75	N	0.100626	-1.340248	-0.318739
N76	N	0.600626	-0.840248	0.181261
C77	C	0.100625	-1.340228	0.569923
C78	C	0.600625	-0.840228	1.069923
C79	C	0.100623	-1.340215	0.430246
C80	C	0.600623	-0.840215	0.930246
H81	H	-0.125667	-1.534787	0.000163
H82	H	0.374333	-1.034787	0.500163
H83	H	-0.569739	-1.524150	0.000098
H84	H	-0.069739	-1.024150	0.500098
F85	F	-0.712956	-1.546625	0.000060
F86	F	-0.212956	-1.046625	0.500060
H87	H	-0.257795	-1.531620	0.000131
H88	H	0.242205	-1.031620	0.500131
F89	F	-0.085791	-1.133816	0.000082
F90	F	0.414209	-0.633816	0.500082
F91	F	-0.680209	-1.119579	0.000015
F92	F	-0.180209	-0.619579	0.500015
H93	H	-0.540957	-1.148825	0.000042
H94	H	-0.040957	-0.648825	0.500042
F95	F	-0.236137	-1.130223	0.000072
F96	F	0.263863	-0.630223	0.500072
