data_functionalizedCrystal
_audit_creation_method	'MofGen! by Chris Wilmer'
_symmetry_space_group_name_H-M	'P1'
_symmetry_Int_Tables_number	1
_symmetry_cell_setting	triclinic
loop_
_symmetry_equiv_pos_as_xyz
  x,y,z
_cell_length_a	14.044191
_cell_length_b	14.044220
_cell_length_c	11.295483
_cell_angle_alpha	94.468632
_cell_angle_beta	85.522629
_cell_angle_gamma	93.190327
loop_
_atom_site_label
_atom_site_type_symbol
_atom_site_fract_x
_atom_site_fract_y
_atom_site_fract_z
O1	O	1.283056	0.224317	-0.098972
O2	O	1.006385	0.216004	-0.098987
O3	O	1.140567	0.081826	-0.098968
O4	O	1.148874	0.358496	-0.098991
O5	O	1.128780	0.093591	0.099081
O6	O	0.994598	0.227769	0.099062
O7	O	1.271269	0.236083	0.099077
Cu8	Cu	1.131857	0.233000	0.117153
Cu9	Cu	1.145797	0.219086	-0.117063
O10	O	1.137087	0.370261	0.099058
C11	C	0.964869	0.218250	0.000036
C12	C	0.858727	0.207402	0.000030
C13	C	0.613268	0.264503	0.000037
C14	C	0.664393	0.187587	0.000042
C15	C	0.772530	0.198615	0.000035
C16	C	0.505121	0.253477	0.000044
C17	C	1.131038	0.052086	0.000057
C18	C	1.120193	-0.054057	0.000058
C19	C	1.100368	-0.248396	0.000039
C20	C	1.177283	-0.299524	0.000040
C21	C	1.166252	-0.407661	0.000030
C22	C	1.111398	-0.140249	0.000050
C23	C	1.312785	0.233837	0.000051
C24	C	1.418928	0.244684	0.000049
C25	C	1.146616	0.400000	0.000030
C26	C	1.157462	0.506143	0.000022
N27	N	1.122060	0.242787	0.281888
N28	N	1.155601	0.209293	-0.281798
C29	C	1.226125	0.138793	0.531192
C30	C	1.218728	0.146196	0.655855
C31	C	1.099865	0.264990	0.655878
C32	C	1.107262	0.257587	0.531215
C33	C	1.170395	0.194487	0.468877
C34	C	1.177796	0.187090	0.344212
C35	C	1.058928	0.305879	0.344237
C36	C	1.051532	0.313282	0.468900
H37	H	0.626954	0.113450	-0.000036
C38	C	1.276218	-0.249787	0.000005
C39	C	1.345015	-0.318215	-0.000019
C40	C	1.436161	-0.272430	-0.000061
H41	H	1.279726	-0.206952	0.069057
H42	H	1.287879	-0.215158	-0.069080
H43	H	1.333358	-0.352829	0.069059
H44	H	1.341538	-0.361054	-0.069066
H45	H	1.447821	-0.237801	-0.069146
H46	H	1.439658	-0.229596	0.068992
H47	H	1.482851	-0.318852	-0.000088
H48	H	0.650710	0.338629	0.000028
H49	H	1.264108	0.100842	0.706588
C50	C	1.001601	-0.298484	0.000101
C51	C	1.010157	-0.397334	0.000127
C52	C	0.919194	-0.443516	0.000206
H53	H	0.971917	-0.284753	-0.068940
H54	H	0.963778	-0.276499	0.069197
H55	H	1.047964	-0.419311	-0.068962
H56	H	1.039824	-0.411093	0.069163
H57	H	0.881371	-0.421531	0.069302
H58	H	0.889517	-0.429777	-0.068837
H59	H	0.924986	-0.510589	0.000234
H60	H	1.277537	0.087422	0.480435
H61	H	1.229205	0.135714	0.293457
C62	C	1.031157	0.333353	0.723518
C63	C	0.937830	0.308062	0.693236
C64	C	0.874506	0.371003	0.755538
H65	H	1.047985	0.396780	0.703152
H66	H	1.034670	0.329762	0.806696
H67	H	0.934320	0.311661	0.610076
H68	H	0.920972	0.244644	0.713605
H69	H	0.878019	0.367413	0.838716
H70	H	0.891342	0.434427	0.735167
H71	H	0.811176	0.353847	0.735009
C72	C	0.982831	0.381658	0.536528
C73	C	0.889501	0.356378	0.506248
C74	C	0.826187	0.419338	0.568533
H75	H	0.999671	0.445080	0.516149
H76	H	0.986341	0.378078	0.619709
H77	H	0.885995	0.359967	0.423085
H78	H	0.872632	0.292967	0.526630
H79	H	0.829697	0.415758	0.651714
H80	H	0.843036	0.482756	0.548149
H81	H	0.762856	0.402189	0.548005
H82	H	1.013552	0.351232	0.293486
