data_functionalizedCrystal
_audit_creation_method	'MofGen! by Chris Wilmer'
_symmetry_space_group_name_H-M	'P1'
_symmetry_Int_Tables_number	1
_symmetry_cell_setting	triclinic
loop_
_symmetry_equiv_pos_as_xyz
  x,y,z
_cell_length_a	17.019352
_cell_length_b	17.038278
_cell_length_c	13.930277
_cell_angle_alpha	89.988493
_cell_angle_beta	86.131671
_cell_angle_gamma	92.757655
loop_
_atom_site_label
_atom_site_type_symbol
_atom_site_fract_x
_atom_site_fract_y
_atom_site_fract_z
O1	O	-1.053348	0.099565	0.007137
O2	O	-0.824539	0.112273	-0.011762
O3	O	-0.937584	-0.007895	-0.002401
O4	O	-0.940302	0.219733	-0.002225
O5	O	-0.937567	-0.007898	0.157260
O6	O	-0.824522	0.112271	0.147899
O7	O	-1.053331	0.099562	0.166797
Zn8	Zn	-0.938924	0.105916	0.182697
Zn9	Zn	-0.938946	0.105920	-0.027662
O10	O	-0.940285	0.219731	0.157436
C11	C	-0.795109	0.111792	0.065639
C12	C	-0.707444	0.110350	0.058399
C13	C	-0.211627	0.102172	0.013023
C14	C	-0.293998	0.103526	0.019838
C15	C	-0.335166	0.104208	0.110278
C16	C	-0.293959	0.103527	0.193907
C17	C	-0.211590	0.102167	0.187091
C18	C	-0.583867	0.108309	0.135212
C19	C	-0.666242	0.109672	0.142022
C20	C	-0.666276	0.109669	-0.032047
C21	C	-0.583905	0.108314	-0.038856
C22	C	-0.542705	0.107629	0.044774
C23	C	-0.419362	0.105595	0.117246
C24	C	-0.458510	0.106237	0.037804
C25	C	-0.935103	-0.037022	0.077230
C26	C	-0.927723	-0.123809	0.076633
C27	C	-0.882388	-0.614180	0.072801
C28	C	-0.889328	-0.532636	0.073383
C29	C	-0.964027	-0.501269	0.079566
C30	C	-1.031790	-0.551451	0.085157
C31	C	-1.024850	-0.632994	0.084567
C32	C	-0.988546	-0.255533	0.081634
C33	C	-0.995482	-0.173984	0.082226
C34	C	-0.853018	-0.155175	0.070450
C35	C	-0.846084	-0.236720	0.069867
C36	C	-0.913848	-0.286895	0.075453
C37	C	-0.971122	-0.417918	0.080165
C38	C	-0.906752	-0.370244	0.074848
C39	C	-0.082760	0.100046	0.089399
C40	C	-0.170425	0.101494	0.096646
C41	C	-0.942767	0.248858	0.077803
C42	C	-0.950146	0.335644	0.078394
N43	N	-0.938914	0.105913	0.326263
N44	N	-0.938961	0.105916	-0.171227
C45	C	-0.888886	0.159109	0.774389
C46	C	-0.989027	0.052724	0.782651
C47	C	-0.989018	0.052721	0.682155
C48	C	-0.938942	0.105914	0.627771
C49	C	-0.888876	0.159110	0.673883
C50	C	-1.039088	-0.000468	0.636035
C51	C	-1.039082	-0.000472	0.535533
C52	C	-0.989002	0.052718	0.481146
C53	C	-0.938933	0.105915	0.527265
C54	C	-0.888858	0.159108	0.472881
C55	C	-0.838784	0.212302	0.518997
C56	C	-0.838796	0.212300	0.619497
C57	C	-0.988989	0.052720	0.380647
C58	C	-0.888848	0.159109	0.372375
H59	H	-0.699829	0.110226	-0.100134
C60	C	-1.053289	-0.383409	0.086980
C61	C	-1.111079	-0.402396	0.174672
C62	C	-1.193245	-0.367883	0.181487
C63	C	-1.217621	-0.314382	0.100610
C64	C	-1.159830	-0.295393	0.012912
C65	C	-1.077664	-0.329906	0.006096
H66	H	-1.093036	-0.442002	0.234548
H67	H	-1.236026	-0.381940	0.246408
H68	H	-1.278445	-0.288834	0.105655
H69	H	-1.177873	-0.255786	-0.046964
H70	H	-1.034883	-0.315848	-0.058824
C71	C	-0.711544	0.110450	0.241502
C72	C	-0.695793	0.178138	0.311957
C73	C	-0.741102	0.178934	0.411425
C74	C	-0.802161	0.112043	0.440438
C75	C	-0.817915	0.044351	0.369981
C76	C	-0.772606	0.043554	0.270513
H77	H	-0.650591	0.227659	0.290481
H78	H	-0.729439	0.229045	0.463581
H79	H	-0.835701	0.112633	0.514070
H80	H	-0.863118	-0.005171	0.391457
H81	H	-0.784269	-0.006557	0.218356
H82	H	-1.079853	-0.043786	0.497991
H83	H	-0.327485	0.104077	0.267545
C84	C	-1.044065	-0.005786	0.329920
C85	C	-1.106426	0.024730	0.265952
C86	C	-1.161504	-0.033781	0.215227
C87	C	-1.154221	-0.122809	0.228471
C88	C	-1.091857	-0.153330	0.292442
C89	C	-1.036779	-0.094818	0.343167
H90	H	-1.111820	0.090638	0.256145
H91	H	-1.207670	-0.011187	0.167871
H92	H	-1.194993	-0.166122	0.190922
H93	H	-1.086463	-0.219237	0.302249
H94	H	-0.990613	-0.117413	0.390522
H95	H	-0.798016	0.255616	0.474706
H96	H	-1.079863	-0.043773	0.680318
H97	H	-0.178113	0.101623	-0.060623
C98	C	-1.099385	-0.688191	0.090723
C99	C	-1.159089	-0.684768	0.178570
C100	C	-1.233627	-0.739965	0.184721
C101	C	-1.248460	-0.798585	0.103026
C102	C	-1.188753	-0.802010	0.015172
C103	C	-1.114216	-0.746813	0.009021
H104	H	-1.148111	-0.641372	0.239052
H105	H	-1.277825	-0.737430	0.249756
H106	H	-1.303636	-0.839445	0.107579
H107	H	-1.199732	-0.845406	-0.045309
H108	H	-1.070018	-0.749349	-0.056014
C109	C	-1.044110	-0.005786	0.842467
C110	C	-1.134015	-0.004528	0.836043
C111	C	-1.189100	-0.063043	0.895862
C112	C	-1.154280	-0.122815	0.962105
C113	C	-1.064370	-0.124076	0.968531
C114	C	-1.009285	-0.065561	0.908713
H115	H	-1.159795	0.039721	0.787004
H116	H	-1.255657	-0.062110	0.891104
H117	H	-1.195057	-0.166131	1.006386
H118	H	-1.038589	-0.168325	1.017571
H119	H	-0.942728	-0.066495	0.913470
C120	C	-1.113961	-0.516949	0.091961
C121	C	-1.171754	-0.535948	0.179646
C122	C	-1.253926	-0.501447	0.186456
C123	C	-1.278304	-0.447947	0.105580
C124	C	-1.220509	-0.428945	0.017888
C125	C	-1.138337	-0.463446	0.011079
H126	H	-1.153710	-0.575554	0.239521
H127	H	-1.296709	-0.515514	0.251371
H128	H	-1.339132	-0.422407	0.110621
H129	H	-1.238553	-0.389338	-0.041986
H130	H	-1.095554	-0.449379	-0.053836
H131	H	-0.845932	-0.395787	0.069809
H132	H	-0.798029	0.255609	0.657051
C133	C	-0.413228	0.105488	-0.061677
C134	C	-0.361012	0.036701	-0.089914
C135	C	-0.315720	0.035956	-0.189395
C136	C	-0.322646	0.103999	-0.260639
C137	C	-0.374864	0.172792	-0.232404
C138	C	-0.420156	0.173537	-0.132922
H139	H	-0.355883	-0.013674	-0.037174
H140	H	-0.277064	-0.014969	-0.210297
H141	H	-0.289118	0.103448	-0.334281
H142	H	-0.379993	0.223167	-0.285144
H143	H	-0.458812	0.224462	-0.112021
H144	H	-0.327541	0.104074	-0.048257
H145	H	-0.550334	0.107740	0.203310
H146	H	-0.452890	0.106151	0.190882
H147	H	-1.056314	-0.148449	0.087262
C148	C	-0.800217	-0.648680	0.065999
C149	C	-0.742389	-0.629729	0.144124
C150	C	-0.660216	-0.664227	0.137318
C151	C	-0.635871	-0.717676	0.052386
C152	C	-0.693700	-0.736630	-0.025745
C153	C	-0.775873	-0.702132	-0.018939
H154	H	-0.760410	-0.590160	0.207001
H155	H	-0.617407	-0.650195	0.195156
H156	H	-0.575041	-0.743213	0.047348
H157	H	-0.675679	-0.776199	-0.088622
H158	H	-0.818681	-0.716163	-0.076778
C159	C	-0.763909	-0.271211	0.063080
C160	C	-0.739540	-0.324693	0.143978
C161	C	-0.657362	-0.359181	0.137204
C162	C	-0.599553	-0.340186	0.049532
C163	C	-0.623921	-0.286701	-0.031373
C164	C	-0.706099	-0.252213	-0.024599
H165	H	-0.782334	-0.338757	0.208884
H166	H	-0.639323	-0.398774	0.197096
H167	H	-0.538720	-0.365715	0.044517
H168	H	-0.581126	-0.272637	-0.096279
H169	H	-0.724137	-0.212620	-0.084490
C170	C	-0.538627	0.107560	-0.138344
C171	C	-0.486414	0.038771	-0.166587
C172	C	-0.441139	0.038020	-0.266078
C173	C	-0.448077	0.106058	-0.337326
C174	C	-0.500293	0.174852	-0.309085
C175	C	-0.545568	0.175603	-0.209594
H176	H	-0.481276	-0.011599	-0.113844
H177	H	-0.402485	-0.012906	-0.286984
H178	H	-0.414562	0.105502	-0.410975
H179	H	-0.505431	0.225223	-0.361828
H180	H	-0.584221	0.226529	-0.188688
C181	C	-0.778482	-0.099981	0.064296
C182	C	-0.763678	-0.041314	-0.019828
C183	C	-0.689138	0.013880	-0.025988
C184	C	-0.629403	0.010407	0.051977
C185	C	-0.644206	-0.048262	0.136108
C186	C	-0.718745	-0.103456	0.142267
H187	H	-0.807899	-0.038741	-0.077548
H188	H	-0.678181	0.057310	-0.088267
H189	H	-0.574225	0.051265	0.047418
H190	H	-0.599985	-0.050835	0.193827
H191	H	-0.729703	-0.146887	0.204546
H192	H	-0.178044	0.101623	0.255186
H193	H	-1.043725	-0.296377	0.086188
H194	H	-0.834151	-0.491785	0.068825
H195	H	-0.848067	0.202423	0.328101
H196	H	-0.848115	0.202417	0.811939
