data_functionalizedCrystal
_audit_creation_method	'MofGen! by Chris Wilmer'
_symmetry_space_group_name_H-M	'P1'
_symmetry_Int_Tables_number	1
_symmetry_cell_setting	triclinic
loop_
_symmetry_equiv_pos_as_xyz
  x,y,z
_cell_length_a	27.440280
_cell_length_b	14.560438
_cell_length_c	14.560438
_cell_angle_alpha	89.999423
_cell_angle_beta	119.992535
_cell_angle_gamma	59.999461
loop_
_atom_site_label
_atom_site_type_symbol
_atom_site_fract_x
_atom_site_fract_y
_atom_site_fract_z
Zr1	Zr	0.533408	-0.120534	-0.884871
O2	O	0.635065	-0.267174	-0.738250
O3	O	0.431748	-0.075582	-0.929801
O4	O	0.533408	-0.267181	-0.929824
O5	O	0.533407	0.075563	-0.738227
O6	O	0.533411	-0.267185	-1.080961
O7	O	0.533405	-0.075575	-0.738227
O8	O	0.351560	0.075550	-1.080918
O9	O	0.715258	-0.267172	-0.738270
O10	O	0.473566	-0.056412	-1.061775
O11	O	0.473565	0.056384	-0.948984
O12	O	0.593256	-0.169199	-0.949012
O13	O	0.593254	-0.056404	-0.836221
Zr14	Zr	0.533416	0.120508	-1.125917
Zr15	Zr	0.533414	-0.120540	-1.125916
Zr16	Zr	0.533410	0.120514	-0.884872
Zr17	Zr	0.661306	-0.120531	-0.884902
Zr18	Zr	0.405518	0.120505	-1.125886
O19	O	0.635076	0.075557	-1.080987
O20	O	0.635073	-0.267183	-1.080985
O21	O	0.635068	0.075565	-0.738252
O22	O	0.431759	0.267149	-1.272537
O23	O	0.431756	-0.075591	-1.272536
O24	O	0.431751	0.267157	-0.929802
O25	O	0.533417	-0.075588	-1.272560
O26	O	0.533416	0.267156	-1.080963
O27	O	0.533413	0.267159	-0.929827
O28	O	0.533419	0.075550	-1.272561
O29	O	0.715262	-0.267177	-0.929868
O30	O	0.351562	0.267152	-1.080919
O31	O	0.351566	0.267147	-1.272518
O32	O	0.351565	0.075546	-1.272517
O33	O	0.715259	-0.075571	-0.738271
O34	O	0.715264	-0.075576	-0.929869
O35	O	0.473568	0.169174	-1.061776
O36	O	0.473570	0.056378	-1.174567
O37	O	0.593259	-0.056409	-1.061804
O38	O	0.593258	0.056386	-0.949013
C39	C	0.373431	-0.000016	-1.005355
C40	C	0.319136	-0.000018	-1.005342
C41	C	0.533405	-0.000005	-0.703883
C42	C	0.533403	-0.000003	-0.601553
C43	C	0.533415	0.301502	-1.005395
C44	C	0.533416	0.403833	-1.005396
C45	C	-0.017606	-0.058881	-1.064301
C46	C	-0.068630	-0.058878	-1.064311
O47	O	-0.095035	-0.108917	-1.114417
N48	N	-0.094146	-0.000002	-1.005434
C49	C	-0.068642	0.058884	-0.946553
O50	O	-0.095032	0.108963	-0.896476
C51	C	-0.017622	0.058887	-0.946550
C52	C	0.007897	-0.000002	-1.005421
C53	C	0.007913	-0.117764	-1.123168
C54	C	0.058934	-0.117769	-1.123156
C55	C	0.084437	-0.058890	-1.064276
C56	C	0.058918	-0.000007	-1.005409
C57	C	0.007878	0.117778	-0.887676
C58	C	0.058900	0.117777	-0.887679
C59	C	0.084420	0.058888	-0.946550
C60	C	0.135442	0.058867	-0.946517
N61	N	0.160959	-0.000009	-1.005394
C62	C	0.135456	-0.058887	-1.064273
C63	C	-0.175787	0.058875	-0.946565
C64	C	-0.226802	0.058866	-0.946561
C65	C	-0.226787	-0.058894	-1.064321
C66	C	-0.175768	-0.058891	-1.064318
C67	C	-0.150270	-0.000001	-1.005442
C68	C	0.242605	-0.058893	-1.064243
C69	C	0.293633	-0.058896	-1.064221
C70	C	0.293611	0.058869	-0.946467
C71	C	0.242590	0.058867	-0.946483
C72	C	0.217087	-0.000016	-1.005379
O73	O	0.161878	0.108885	-0.896441
O74	O	0.161846	-0.108946	-1.114354
C75	C	0.693392	-0.000009	-1.005433
C76	C	0.747688	-0.000008	-1.005446
C77	C	0.533409	-0.301527	-1.005392
C78	C	0.533408	-0.403858	-1.005392
C79	C	0.595891	0.393037	-0.946537
C80	C	0.595888	0.489192	-0.946531
C81	C	0.470928	0.606935	-1.064253
C82	C	0.470932	0.510781	-1.064251
C83	C	0.470927	0.058868	-0.612337
C84	C	0.470929	0.058870	-0.516183
C85	C	0.595889	-0.058878	-0.398466
C86	C	0.595886	-0.058873	-0.494618
C87	C	0.533415	-0.000016	-0.306908
C88	C	0.533408	-0.000006	-0.409247
C89	C	0.373438	-0.000024	-1.306866
C90	C	0.319145	-0.000027	-1.409182
C91	C	0.373434	0.301498	-1.005357
C92	C	0.319139	0.403828	-1.005344
C93	C	0.373441	0.301491	-1.306867
C94	C	0.319148	0.403818	-1.409184
C95	C	0.693383	-0.301516	-0.703921
C96	C	0.747676	-0.403844	-0.601603
C97	C	0.693386	-0.000002	-0.703922
C98	C	0.747679	0.000002	-0.601605
C99	C	0.693390	-0.301524	-1.005431
C100	C	0.747685	-0.403854	-1.005444
C101	C	0.293646	-0.058914	-1.398355
C102	C	0.242638	-0.058940	-1.494483
C103	C	0.217127	-0.000072	-1.601438
C104	C	0.242631	0.058817	-1.612263
C105	C	0.293641	0.058835	-1.516136
C106	C	0.293644	0.510769	-1.064214
C107	C	0.242635	0.606928	-1.064198
C108	C	0.217119	0.596144	-1.005317
C109	C	0.242620	0.489192	-0.946440
C110	C	0.293631	0.393035	-0.946450
C111	C	0.293652	0.392994	-1.516120
C112	C	0.242646	0.489133	-1.612267
C113	C	0.217132	0.596094	-1.601476
C114	C	0.242633	0.606916	-1.494530
C115	C	0.293642	0.510778	-1.398385
C116	C	0.773178	-0.393020	-0.494668
C117	C	0.824200	-0.489158	-0.398521
C118	C	0.849717	-0.596119	-0.409311
C119	C	0.824213	-0.606941	-0.516258
C120	C	0.773194	-0.510804	-0.612402
C121	C	0.773184	0.058879	-0.612433
C122	C	0.824205	0.058878	-0.516304
C123	C	0.849718	0.000007	-0.409350
C124	C	0.824212	-0.058878	-0.398525
C125	C	0.773195	-0.058883	-0.494652
C126	C	0.773184	-0.393034	-1.064336
C127	C	0.824193	-0.489174	-1.064370
C128	C	0.849706	-0.596134	-1.005504
C129	C	0.824201	-0.606952	-0.946610
C130	C	0.773189	-0.510812	-0.946584
H131	H	0.314411	-0.106855	-1.112160
Br132	Br	0.738572	-0.247886	-1.144234
Br133	Br	0.858848	-0.752112	-0.530882
H134	H	0.221845	-0.106839	-1.112203
Br135	Br	0.386137	0.525432	-1.144126
Br136	Br	0.386129	0.138764	-0.757459
H137	H	0.752433	-0.519638	-0.898622
Br138	Br	0.386133	0.752081	-1.144126
H139	H	0.175597	0.674366	-1.679773
H140	H	0.646761	-0.106809	-0.311390
H141	H	0.752431	-0.519630	-0.699471
H142	H	0.646770	0.305959	-0.898610
H143	H	0.314417	-0.106866	-1.311276
H144	H	0.752414	0.106827	-0.699512
H145	H	0.891260	0.000020	-0.331086
Br146	Br	0.858843	-0.138766	-0.253363
Br147	Br	0.093558	-0.197691	-1.203060
Br148	Br	0.386135	0.138778	-0.530824
H149	H	0.844954	-0.480344	-1.112326
H150	H	0.752431	-0.106825	-0.485821
Br151	Br	0.208035	-0.138864	-1.479766
Br152	Br	0.918938	-0.726599	-1.005550
Br153	Br	0.680680	0.474535	-0.866629
H154	H	0.646765	-0.106810	-0.485830
H155	H	0.221888	0.480301	-1.699338
H156	H	0.175590	-0.000096	-1.679702
Br157	Br	-0.261417	0.138768	-0.866639
Br158	Br	0.858838	-0.752120	-0.866716
H159	H	0.221852	0.106745	-1.699358
H160	H	-0.012848	-0.165709	-1.171120
H161	H	0.314413	0.519571	-1.112162
Br162	Br	0.328236	0.138769	-1.530850
H163	H	0.221852	0.694016	-1.485761
Br164	Br	0.208037	0.752062	-1.144111
H165	H	-0.154993	-0.106843	-1.112257
Br166	Br	0.328270	0.247844	-1.530795
H167	H	0.221837	0.480428	-0.898501
Br168	Br	-0.261408	-0.138801	-1.144231
H169	H	0.314383	0.305963	-0.898515
H170	H	0.314386	0.106802	-0.898525
Br171	Br	0.147889	0.726656	-1.005315
Br172	Br	0.328234	0.525489	-1.253263
H173	H	-0.155025	0.106824	-0.898609
H174	H	0.752405	-0.305935	-0.485861
Br175	Br	0.858808	0.138801	-0.531022
Br176	Br	-0.026743	0.197706	-0.807776
Br177	Br	0.858801	-0.474445	-0.253395
Br178	Br	0.918957	-0.726582	-0.278816
H179	H	0.221819	0.106804	-0.898530
Br180	Br	0.093499	0.197708	-0.807774
