data_functionalizedCrystal
_audit_creation_method	'MofGen! by Chris Wilmer'
_symmetry_space_group_name_H-M	'P1'
_symmetry_Int_Tables_number	1
_symmetry_cell_setting	triclinic
loop_
_symmetry_equiv_pos_as_xyz
  x,y,z
_cell_length_a	10.489746
_cell_length_b	10.654550
_cell_length_c	9.730223
_cell_angle_alpha	90.000043
_cell_angle_beta	89.995288
_cell_angle_gamma	95.486884
loop_
_atom_site_label
_atom_site_type_symbol
_atom_site_fract_x
_atom_site_fract_y
_atom_site_fract_z
O1	O	0.179162	-1.667926	-0.114188
O2	O	0.679162	-1.167926	0.385812
O3	O	0.196231	-1.302456	-0.114214
O4	O	0.696231	-0.802456	0.385786
O5	O	0.002095	-1.493504	-0.114190
O6	O	0.502095	-0.993504	0.385810
O7	O	0.373298	-1.476878	-0.114212
O8	O	0.873298	-0.976878	0.385788
O9	O	0.002089	-1.493491	0.114390
O10	O	0.502089	-0.993491	0.614390
O11	O	0.196225	-1.302444	0.114366
O12	O	0.696225	-0.802444	0.614366
O13	O	0.179156	-1.667914	0.114391
O14	O	0.679156	-1.167914	0.614391
Zn15	Zn	0.187690	-1.485177	0.150671
Zn16	Zn	0.687690	-0.985177	0.650671
Zn17	Zn	0.187697	-1.485193	-0.150493
Zn18	Zn	0.687697	-0.985193	0.349507
O19	O	0.373292	-1.476866	0.114368
O20	O	0.873292	-0.976866	0.614368
C21	C	0.194975	-1.255651	0.000073
C22	C	0.694975	-0.755651	0.500073
C23	C	0.191225	-1.116206	0.000064
C24	C	0.691225	-0.616206	0.500064
C25	C	-0.045439	-1.492241	0.000099
C26	C	0.454561	-0.992241	0.500099
C27	C	-0.187066	-1.488480	0.000098
C28	C	0.312934	-0.988480	0.500098
C29	C	0.180412	-1.714719	0.000102
C30	C	0.680412	-1.214719	0.500102
C31	C	0.184162	-1.854164	0.000102
C32	C	0.684162	-1.354164	0.500102
C33	C	-0.339864	-1.364695	0.000072
C34	C	0.160136	-0.864695	0.500072
C35	C	-0.262499	-1.426589	-0.112622
C36	C	0.237501	-0.926589	0.387378
C37	C	-0.262546	-1.426605	0.112740
C38	C	0.237454	-0.926605	0.612740
C39	C	-0.362048	-1.543735	-0.112720
C40	C	0.137952	-1.043735	0.387280
C41	C	-0.362099	-1.543735	0.112743
C42	C	0.137901	-1.043735	0.612743
C43	C	-0.284783	-1.605714	0.000020
C44	C	0.215217	-1.105714	0.500020
C45	C	0.420826	-1.478129	0.000075
C46	C	0.920826	-0.978129	0.500075
C47	C	0.562453	-1.481890	0.000067
C48	C	1.062453	-0.981890	0.500067
N49	N	0.187684	-1.485175	0.356207
N50	N	0.687684	-0.985175	0.856207
C51	C	0.305529	-1.036776	0.000061
C52	C	0.805529	-0.536776	0.500061
C53	C	0.301998	-0.905754	0.000085
C54	C	0.801998	-0.405754	0.500085
C55	C	0.069849	-0.933604	0.000109
C56	C	0.569849	-0.433604	0.500109
C57	C	0.073381	-1.064624	0.000095
C58	C	0.573381	-0.564624	0.500095
N59	N	0.187693	-1.485205	-0.356030
N60	N	0.687693	-0.985205	0.143970
C61	C	0.101758	-1.569800	0.428143
C62	C	0.601758	-1.069800	0.928143
C63	C	0.101758	-1.569812	0.572026
C64	C	0.601758	-1.069812	1.072026
C65	C	0.273623	-1.400571	0.572024
C66	C	0.773623	-0.900571	1.072024
C67	C	0.273616	-1.400553	0.428144
C68	C	0.773616	-0.900553	0.928144
H69	H	-0.364534	-1.262790	-0.000047
H70	H	0.135466	-0.762790	0.499953
H71	H	-0.218998	-1.377120	-0.207907
H72	H	0.281002	-0.877120	0.292093
Br73	Br	0.390243	-1.285734	0.669657
Br74	Br	0.890243	-0.785734	1.169657
Br75	Br	-0.244063	-1.775687	-0.000064
Br76	Br	0.255937	-1.275687	0.499936
Br77	Br	0.390229	-1.285687	0.330504
Br78	Br	0.890229	-0.785687	0.830504
Br79	Br	-0.014867	-1.684659	0.669652
Br80	Br	0.485133	-1.184659	1.169652
H81	H	-0.405624	-1.593159	0.208031
H82	H	0.094376	-1.093159	0.708031
Br83	Br	0.465459	-1.106777	0.000024
Br84	Br	0.965459	-0.606777	0.500024
Br85	Br	-0.090074	-0.863591	0.000146
Br86	Br	0.409926	-0.363591	0.500146
Br87	Br	-0.434211	-1.626150	-0.271701
Br88	Br	0.065789	-1.126150	0.228299
Br89	Br	0.457133	-0.797959	0.000088
Br90	Br	0.957133	-0.297959	0.500088
Br91	Br	-0.190093	-1.344104	0.271536
Br92	Br	0.309907	-0.844104	0.771536
H93	H	-0.019705	-1.129300	0.000101
H94	H	0.480295	-0.629300	0.500101
H95	H	0.031785	-1.638702	0.369576
H96	H	0.531785	-1.138702	0.869576
