data_functionalizedCrystal
_audit_creation_method	'MofGen! by Chris Wilmer'
_symmetry_space_group_name_H-M	'P1'
_symmetry_Int_Tables_number	1
_symmetry_cell_setting	triclinic
loop_
_symmetry_equiv_pos_as_xyz
  x,y,z
_cell_length_a	29.917948
_cell_length_b	29.917021
_cell_length_c	29.913391
_cell_angle_alpha	60.005297
_cell_angle_beta	60.010472
_cell_angle_gamma	59.993667
loop_
_atom_site_label
_atom_site_type_symbol
_atom_site_fract_x
_atom_site_fract_y
_atom_site_fract_z
O1	O	0.061938	-0.653075	0.546110
O2	O	0.561938	-0.153075	1.046110
O3	O	0.023328	-0.508466	0.440017
O4	O	0.523328	-0.008466	0.940017
O5	O	0.114898	-0.599963	0.439941
O6	O	0.614898	-0.099963	0.939941
O7	O	-0.029633	-0.561578	0.546186
O8	O	0.470367	-0.061578	1.046186
O9	O	0.145278	-0.569587	0.470242
O10	O	0.645278	-0.069587	0.970242
O11	O	0.053708	-0.478090	0.470318
O12	O	0.553708	0.021910	0.970318
O13	O	0.092318	-0.622699	0.576411
O14	O	0.592318	-0.122699	1.076411
Zn15	Zn	0.077836	-0.545572	0.528175
Zn16	Zn	0.577836	-0.045572	1.028175
Zn17	Zn	0.037809	-0.585593	0.488253
Zn18	Zn	0.537809	-0.085593	0.988253
O19	O	0.000747	-0.531202	0.576487
O20	O	0.500747	-0.031202	1.076487
N21	N	0.105154	-0.518262	0.555424
N22	N	0.605154	-0.018262	1.055424
N23	N	0.010496	-0.612908	0.461004
N24	N	0.510496	-0.112908	0.961004
C25	C	0.164136	-0.309209	0.614352
C26	C	0.664136	0.190791	1.114352
C27	C	0.164251	-0.459335	0.764424
C28	C	0.664251	0.040665	1.264424
C29	C	0.164150	-0.459313	0.614341
C30	C	0.664150	0.040687	1.114341
C31	C	0.314282	-0.459305	0.614278
C32	C	0.814282	0.040695	1.114278
C33	C	0.180666	-0.358742	0.630849
C34	C	0.680666	0.141258	1.130849
C35	C	0.180732	-0.442815	0.714891
C36	C	0.680732	0.057185	1.214891
C37	C	0.264747	-0.442797	0.630809
C38	C	0.764747	0.057203	1.130809
C39	C	0.180676	-0.442802	0.630843
C40	C	0.680676	0.057198	1.130843
C41	C	0.143097	-0.246161	0.593354
C42	C	0.643097	0.253839	1.093354
C43	C	0.143120	-0.480326	0.593337
C44	C	0.643120	0.019674	1.093337
C45	C	0.201706	-0.421790	0.651848
C46	C	0.701706	0.078210	1.151848
C47	C	0.405963	-0.443499	0.565998
C48	C	0.905963	0.056501	1.065998
C49	C	0.463273	-0.462598	0.546874
C50	C	0.963273	0.037402	1.046874
C51	C	0.463297	-0.555329	0.582235
C52	C	0.963297	-0.055329	1.082235
C53	C	0.405988	-0.536228	0.601360
C54	C	0.905988	-0.036228	1.101360
C55	C	0.156905	-0.217495	0.537012
C56	C	0.656905	0.282505	1.037012
C57	C	0.137776	-0.160180	0.517926
C58	C	0.637776	0.339820	1.017926
C59	C	0.091035	-0.160201	0.611524
C60	C	0.591035	0.339799	1.111524
C61	C	0.110164	-0.217516	0.630611
C62	C	0.610164	0.282484	1.130611
C63	C	0.086772	-0.466488	0.607209
C64	C	0.586772	0.033512	1.107209
C65	C	0.067659	-0.485590	0.588108
C66	C	0.567659	0.014410	1.088108
C67	C	0.161236	-0.532368	0.541277
C68	C	0.661236	-0.032368	1.041277
C69	C	0.180352	-0.513266	0.560371
C70	C	0.680352	-0.013266	1.060371
C71	C	0.086942	-0.466529	0.856152
C72	C	0.586942	0.033471	1.356152
C73	C	0.067877	-0.485647	0.913465
C74	C	0.567877	0.014353	1.413465
C75	C	0.161489	-0.532436	0.913415
C76	C	0.661489	-0.032436	1.413415
C77	C	0.180552	-0.513318	0.856101
C78	C	0.680552	-0.013318	1.356101
C79	C	0.143277	-0.480363	0.827471
C80	C	0.643277	0.019637	1.327471
C81	C	0.377323	-0.480313	0.593239
C82	C	0.877323	0.019687	1.093239
C83	C	-0.111377	-0.650681	0.422736
C84	C	0.388623	-0.150681	0.922736
C85	C	-0.027364	-0.650787	0.422929
C86	C	0.472636	-0.150787	0.922929
C87	C	-0.048335	-0.671770	0.401835
C88	C	0.451665	-0.171770	0.901835
C89	C	-0.064214	-0.763416	0.450041
C90	C	0.435786	-0.263416	0.950041
C91	C	-0.045160	-0.820731	0.469172
C92	C	0.454840	-0.320731	0.969172
C93	C	0.047573	-0.820841	0.433980
C94	C	0.547573	-0.320841	0.933980
C95	C	0.028517	-0.763527	0.414847
C96	C	0.528517	-0.263527	0.914847
C97	C	-0.140115	-0.664483	0.479060
C98	C	0.359885	-0.164483	0.979060
C99	C	-0.197425	-0.645309	0.498058
C100	C	0.302575	-0.145309	0.998058
C101	C	-0.197256	-0.598535	0.404405
C102	C	0.302744	-0.098535	0.904405
C103	C	-0.139946	-0.617709	0.385407
C104	C	0.360054	-0.117709	0.885407
C105	C	-0.041168	-0.594444	0.409067
C106	C	0.458832	-0.094444	0.909067
C107	C	-0.022104	-0.575374	0.428250
C108	C	0.477896	-0.075374	0.928250
C109	C	0.024568	-0.668986	0.475143
C110	C	0.524568	-0.168986	0.975143
C111	C	0.005504	-0.688059	0.455967
C112	C	0.505504	-0.188059	0.955967
C113	C	-0.041000	-0.594453	0.310105
C114	C	0.459000	-0.094453	0.810105
C115	C	-0.021803	-0.575386	0.252792
C116	C	0.478197	-0.075386	0.752792
C117	C	0.024951	-0.669004	0.252854
C118	C	0.524951	-0.169004	0.752854
C119	C	0.005755	-0.688070	0.310168
C120	C	0.505755	-0.188070	0.810168
C121	C	-0.027222	-0.650793	0.338792
C122	C	0.472778	-0.150793	0.838792
C123	C	-0.027377	-0.734817	0.422881
C124	C	0.472623	-0.234817	0.922881
N125	N	0.491125	-0.518235	0.555255
N126	N	0.991125	-0.018235	1.055255
O127	O	0.678406	-0.527360	0.420422
O128	O	1.178406	-0.027360	0.920422
O129	O	0.678588	-0.633782	0.564887
O130	O	1.178588	-0.133782	1.064887
O131	O	0.678516	-0.633539	0.473265
O132	O	1.178516	-0.133539	0.973265
O133	O	0.678478	-0.527602	0.512044
O134	O	1.178478	-0.027602	1.012044
O135	O	0.587469	-0.603251	0.503685
O136	O	1.087469	-0.103251	1.003685
O137	O	0.587541	-0.603493	0.595307
O138	O	1.087541	-0.103493	1.095307
O139	O	0.587359	-0.497071	0.450842
O140	O	1.087359	0.002929	0.950842
Zn141	Zn	0.572994	-0.545473	0.527905
Zn142	Zn	1.072994	-0.045473	1.027905
Zn143	Zn	0.692953	-0.585380	0.487825
Zn144	Zn	1.192953	-0.085380	0.987825
O145	O	0.587431	-0.497313	0.542465
O146	O	1.087431	0.002687	1.042465
N147	N	0.774821	-0.612618	0.460470
N148	N	1.274821	-0.112618	0.960470
N149	N	0.105125	-0.132348	0.555445
N150	N	0.605125	0.367652	1.055445
O151	O	-0.029633	0.055031	0.546198
O152	O	0.470367	0.555031	1.046198
O153	O	0.114837	0.055047	0.439777
O154	O	0.614837	0.555047	0.939777
O155	O	0.023189	0.055024	0.440050
O156	O	0.523189	0.555024	0.940050
O157	O	0.062016	0.055054	0.545925
O158	O	0.562016	0.555054	1.045925
O159	O	0.053572	-0.036031	0.470398
O160	O	0.553572	0.463969	0.970398
O161	O	0.145220	-0.036008	0.470125
O162	O	0.645220	0.463992	0.970125
O163	O	0.000750	-0.036024	0.576546
O164	O	0.500750	0.463976	1.076546
Zn165	Zn	0.077809	-0.050473	0.528154
Zn166	Zn	0.577809	0.449527	1.028154
Zn167	Zn	0.037778	0.069496	0.488169
Zn168	Zn	0.537778	0.569496	0.988169
O169	O	0.092399	-0.036001	0.576273
O170	O	0.592399	0.463999	1.076273
N171	N	0.010456	0.151371	0.460879
N172	N	0.510456	0.651371	0.960879
N173	N	0.105414	-0.518315	0.941279
N174	N	0.605414	-0.018315	1.441279
O175	O	0.096182	-0.653057	1.128644
O176	O	0.596182	-0.153057	1.628644
O177	O	-0.010215	-0.508539	1.128670
O178	O	0.489785	-0.008539	1.628670
O179	O	-0.009968	-0.600172	1.128636
O180	O	0.490032	-0.100172	1.628636
O181	O	0.095935	-0.561424	1.128678
O182	O	0.595935	-0.061424	1.628678
O183	O	0.020367	-0.569808	1.037586
O184	O	0.520367	-0.069808	1.537586
O185	O	0.020121	-0.478175	1.037620
O186	O	0.520121	0.021825	1.537620
O187	O	0.126517	-0.622693	1.037594
O188	O	0.626517	-0.122693	1.537594
Zn189	Zn	0.078135	-0.545613	1.023151
Zn190	Zn	0.578135	-0.045613	1.523151
Zn191	Zn	0.038167	-0.585619	1.143113
Zn192	Zn	0.538167	-0.085619	1.643113
O193	O	0.126270	-0.531061	1.037628
O194	O	0.626270	-0.031061	1.537628
N195	N	0.010887	-0.612923	1.224985
N196	N	0.510887	-0.112923	1.724985
C197	C	0.034899	-0.475056	0.440551
C198	C	0.534899	0.024944	0.940551
C199	C	0.148298	-0.588365	0.440456
C200	C	0.648298	-0.088365	0.940456
C201	C	0.080746	-0.656109	0.575876
C202	C	0.580746	-0.156109	1.075876
C203	C	-0.032653	-0.542801	0.575971
C204	C	0.467347	-0.042801	1.075971
C205	C	0.633086	-0.633292	0.598298
C206	C	1.133086	-0.133292	1.098298
C207	C	0.632998	-0.632993	0.484834
C208	C	1.132998	-0.132993	0.984834
C209	C	0.632857	-0.497559	0.417433
C210	C	1.132857	0.002441	0.917433
C211	C	0.632949	-0.497860	0.530895
C212	C	1.132949	0.002140	1.030895
C213	C	0.148191	0.009634	0.440259
C214	C	0.648191	0.509634	0.940259
C215	C	0.034733	0.009493	0.440634
C216	C	0.534733	0.509493	0.940634
C217	C	-0.032641	0.009502	0.576027
C218	C	0.467359	0.509502	1.076027
C219	C	0.080854	0.009529	0.575690
C220	C	0.580854	0.509529	1.075690
C221	C	-0.009699	-0.475150	1.083148
C222	C	0.490301	0.024850	1.583148
C223	C	-0.009388	-0.588620	1.083088
C224	C	0.490612	-0.088620	1.583088
C225	C	0.126001	-0.656082	1.083116
C226	C	0.626001	-0.156082	1.583116
C227	C	0.125697	-0.542605	1.083155
C228	C	0.625697	-0.042605	1.583155
H229	H	0.056584	-0.439691	0.832846
H230	H	0.556584	0.060309	1.332846
O231	O	0.064374	-0.735829	0.388496
O232	O	0.564374	-0.235829	0.888496
C233	C	0.117794	-0.773463	0.385501
C234	C	0.617794	-0.273463	0.885501
H235	H	0.115556	-0.814299	0.419355
H236	H	0.615556	-0.314299	0.919355
H237	H	0.141299	-0.756936	0.390755
H238	H	0.641299	-0.256936	0.890755
H239	H	0.139725	-0.779586	0.343973
H240	H	0.639725	-0.279586	0.843973
O241	O	0.633052	-0.673140	0.647817
O242	O	1.133052	-0.173140	1.147817
C243	C	0.585931	-0.687884	0.672064
C244	C	1.085931	-0.187884	1.172064
H245	H	0.552935	-0.652734	0.653986
H246	H	1.052935	-0.152734	1.153986
H247	H	0.570144	-0.696947	0.718134
H248	H	1.070144	-0.196947	1.218134
H249	H	0.596612	-0.725893	0.663678
H250	H	1.096612	-0.225893	1.163678
O251	O	0.165339	-0.532621	1.083138
O252	O	0.665339	-0.032621	1.583138
C253	C	0.145394	-0.478807	1.083165
C254	C	0.645394	0.021193	1.583165
H255	H	0.110246	-0.452899	1.065929
H256	H	0.610246	0.047101	1.565929
H257	H	0.179676	-0.460391	1.056736
H258	H	0.679676	0.039609	1.556736
H259	H	0.130132	-0.479616	1.126851
H260	H	0.630132	0.020384	1.626851
O261	O	0.632961	-0.458104	0.540691
O262	O	1.132961	0.041896	1.040691
C263	C	0.632881	-0.410843	0.493698
C264	C	1.132881	0.089157	0.993698
H265	H	0.650092	-0.422788	0.456053
H266	H	1.150092	0.077212	0.956053
H267	H	0.659303	-0.390435	0.488888
H268	H	1.159303	0.109565	0.988888
H269	H	0.589184	-0.381091	0.498153
H270	H	1.089184	0.118909	0.998153
H271	H	0.189596	0.009891	0.406765
H272	H	0.689596	0.509891	0.906765
O273	O	0.024917	0.009407	0.400929
O274	O	0.524917	0.509407	0.900929
C275	C	0.062442	-0.037760	0.386212
C276	C	0.562442	0.462240	0.886212
H277	H	0.100390	-0.053471	0.397118
H278	H	0.600390	0.446529	0.897118
H279	H	0.074671	-0.027162	0.340289
H280	H	0.574671	0.472838	0.840289
H281	H	0.042607	-0.070788	0.409329
H282	H	0.542607	0.429212	0.909329
H283	H	-0.043102	-0.433644	1.083156
H284	H	0.456898	0.066356	1.583156
O285	O	0.090726	0.009461	0.615444
O286	O	0.590726	0.509461	1.115444
C287	C	0.084681	-0.037707	0.661602
C288	C	0.584681	0.462293	1.161602
H289	H	0.057221	-0.053436	0.661178
H290	H	0.557221	0.446564	1.161178
H291	H	0.065380	-0.027101	0.700458
H292	H	0.565380	0.472899	1.200458
H293	H	0.126553	-0.070724	0.660494
H294	H	0.626553	0.429276	1.160494
O295	O	-0.082152	-0.533144	0.615828
O296	O	0.417848	-0.033144	1.115828
C297	C	-0.082191	-0.580223	0.663003
C298	C	0.417809	-0.080223	1.163003
H299	H	-0.049794	-0.617797	0.650935
H300	H	0.450206	-0.117797	1.150935
H301	H	-0.124177	-0.585117	0.683474
H302	H	0.375823	-0.085117	1.183474
H303	H	-0.072634	-0.575825	0.692747
H304	H	0.427366	-0.075825	1.192747
H305	H	-0.074131	0.009496	0.609437
H306	H	0.425869	0.509496	1.109437
O307	O	0.632990	-0.672629	0.474856
O308	O	1.132990	-0.172629	0.974856
C309	C	0.632949	-0.652689	0.421047
C310	C	1.132949	-0.152689	0.921047
H311	H	0.615671	-0.606056	0.406660
H312	H	1.115671	-0.106056	0.906660
H313	H	0.606523	-0.669378	0.420272
H314	H	1.106523	-0.169378	0.920272
H315	H	0.676617	-0.666508	0.392697
H316	H	1.176617	-0.166508	0.892697
H317	H	0.159407	-0.697586	1.083101
H318	H	0.659407	-0.197586	1.583101
O319	O	-0.049045	-0.598577	1.083100
O320	O	0.450955	-0.098577	1.583100
C321	C	-0.061645	-0.642904	1.130237
C322	C	0.438355	-0.142904	1.630237
H323	H	-0.025475	-0.669129	1.145990
H324	H	0.474525	-0.169129	1.645990
H325	H	-0.070376	-0.668755	1.119585
H326	H	0.429624	-0.168755	1.619585
H327	H	-0.099270	-0.626671	1.163251
H328	H	0.400730	-0.126671	1.663251
O329	O	0.013133	-0.472127	0.941236
O330	O	0.513133	0.027873	1.441236
C331	C	-0.015674	-0.438950	0.903672
C332	C	0.484326	0.061050	1.403672
H333	H	0.011640	-0.418110	0.862813
H334	H	0.511640	0.081890	1.362813
H335	H	-0.053916	-0.406526	0.920249
H336	H	0.446084	0.093474	1.420249
H337	H	-0.028039	-0.465386	0.897580
H338	H	0.471961	0.034614	1.397580
H339	H	0.191844	-0.559260	0.936723
H340	H	0.691844	-0.059260	1.436723
O341	O	0.090586	-0.705624	0.615680
O342	O	0.590586	-0.205624	1.115680
C343	C	0.084479	-0.698482	0.661821
C344	C	0.584479	-0.198482	1.161821
H345	H	0.090453	-0.658361	0.648670
H346	H	0.590453	-0.158361	1.148670
H347	H	0.116335	-0.733975	0.681298
H348	H	0.616335	-0.233975	1.181298
H349	H	0.041713	-0.697334	0.692808
H350	H	0.541713	-0.197334	1.192808
O351	O	0.235293	-0.526854	0.828302
O352	O	0.735293	-0.026854	1.328302
C353	C	0.259111	-0.584259	0.842279
C354	C	0.759111	-0.084259	1.342279
H355	H	0.231961	-0.604325	0.883897
H356	H	0.731961	-0.104325	1.383897
H357	H	0.301275	-0.597653	0.844221
H358	H	0.801275	-0.097653	1.344221
H359	H	0.263358	-0.597220	0.810024
H360	H	0.763358	-0.097220	1.310024
O361	O	0.050582	-0.434408	0.639144
O362	O	0.550582	0.065592	1.139144
C363	C	0.017413	-0.386344	0.610227
C364	C	0.517413	0.113656	1.110227
H365	H	0.039519	-0.378369	0.564372
H366	H	0.539519	0.121631	1.064372
H367	H	0.008750	-0.350244	0.620485
H368	H	0.508750	0.149756	1.120485
H369	H	-0.022851	-0.391554	0.622442
H370	H	0.477149	0.108446	1.122442
O371	O	0.012918	-0.472220	0.601675
O372	O	0.512918	0.027780	1.101675
C373	C	-0.010845	-0.491831	0.659081
C374	C	0.489155	0.008169	1.159081
H375	H	0.021811	-0.527178	0.677532
H376	H	0.521811	-0.027178	1.177532
H377	H	-0.044624	-0.506718	0.670062
H378	H	0.455376	-0.006718	1.170062
H379	H	-0.028938	-0.457455	0.676071
H380	H	0.471062	0.042545	1.176071
O381	O	0.197481	-0.564346	0.509242
O382	O	0.697481	-0.064346	1.009242
C383	C	0.251313	-0.572475	0.501111
C384	C	0.751313	-0.072475	1.001111
H385	H	0.251213	-0.537924	0.507517
H386	H	0.751213	-0.037924	1.007517
H387	H	0.278499	-0.572767	0.457638
H388	H	0.778499	-0.072767	0.957638
H389	H	0.267758	-0.613308	0.531602
H390	H	0.767758	-0.113308	1.031602
O391	O	0.632812	-0.457763	0.367901
O392	O	1.132812	0.042237	0.867901
C393	C	0.632780	-0.477470	0.333838
C394	C	1.132780	0.022530	0.833838
H395	H	0.650063	-0.524104	0.348640
H396	H	1.150063	-0.024104	0.848640
H397	H	0.659165	-0.460657	0.289973
H398	H	1.159165	0.039343	0.789973
H399	H	0.589089	-0.463584	0.335356
H400	H	1.089089	0.036416	0.835356
H401	H	0.226235	-0.524529	0.549071
H402	H	0.726235	-0.024529	1.049071
H403	H	0.189808	-0.596548	0.407092
H404	H	0.689808	-0.096548	0.907092
H405	H	0.382671	-0.566208	0.623544
H406	H	0.882671	-0.066208	1.123544
O407	O	-0.035431	-0.520637	0.414687
O408	O	0.464569	-0.020637	0.914687
C409	C	-0.015738	-0.496883	0.357285
C410	C	0.484262	0.003117	0.857285
H411	H	0.019607	-0.529559	0.338867
H412	H	0.519607	-0.029559	0.838867
H413	H	-0.000827	-0.463139	0.346354
H414	H	0.499173	0.036861	0.846354
H415	H	-0.050068	-0.478741	0.340219
H416	H	0.449932	0.021259	0.840219
O417	O	0.491058	-0.609665	0.590186
O418	O	0.991058	-0.109665	1.090186
C419	C	0.453490	-0.638062	0.618319
C420	C	0.953490	-0.138062	1.118319
H421	H	0.412643	-0.613063	0.641816
H422	H	0.912643	-0.113063	1.141816
H423	H	0.470074	-0.679393	0.648228
H424	H	0.970074	-0.179393	1.148228
H425	H	0.447374	-0.644694	0.587663
H426	H	0.947374	-0.144694	1.087663
H427	H	0.382624	-0.397967	0.559385
H428	H	0.882624	0.102033	1.059385
O429	O	0.491014	-0.426760	0.520398
O430	O	0.991014	0.073240	1.020398
C431	C	0.453425	-0.373312	0.517343
C432	C	0.953425	0.126688	1.017343
H433	H	0.412564	-0.371080	0.521117
H434	H	0.912564	0.128920	1.021117
H435	H	0.469962	-0.343023	0.476377
H436	H	0.969962	0.156977	0.976377
H437	H	0.447355	-0.362613	0.552061
H438	H	0.947355	0.137387	1.052061
H439	H	0.183721	-0.240813	0.506671
H440	H	0.683721	0.259187	1.006671
H441	H	0.149018	-0.136838	0.472047
H442	H	0.649018	0.363162	0.972047
O443	O	0.059035	-0.132457	0.647789
O444	O	0.559035	0.367543	1.147789
C445	C	0.050969	-0.170051	0.701612
C446	C	0.550969	0.329949	1.201612
H447	H	0.057377	-0.210907	0.701508
H448	H	0.557377	0.289093	1.201508
H449	H	0.007513	-0.153502	0.728842
H450	H	0.507513	0.346498	1.228842
H451	H	0.081493	-0.176143	0.718010
H452	H	0.581493	0.323857	1.218010
H453	H	0.098918	-0.240852	0.676488
H454	H	0.598918	0.259148	1.176488
H455	H	-0.067855	-0.564093	0.333408
H456	H	0.432145	-0.064093	0.833408
O457	O	-0.035267	-0.520635	0.225015
O458	O	0.464733	-0.020635	0.725015
C459	C	-0.068479	-0.491827	0.262573
C460	C	0.431521	0.008173	0.762573
H461	H	-0.089371	-0.519127	0.303403
H462	H	0.410629	-0.019127	0.803403
H463	H	-0.100858	-0.453557	0.245945
H464	H	0.399142	0.046443	0.745945
H465	H	-0.042065	-0.479500	0.268739
H466	H	0.457935	0.020500	0.768739
H467	H	0.051792	-0.699362	0.229554
H468	H	0.551792	-0.199362	0.729554
H469	H	0.016979	-0.733950	0.333522
H470	H	0.516979	-0.233950	0.833522
H471	H	0.051334	-0.699339	0.502037
H472	H	0.551334	-0.199339	1.002037
O473	O	-0.073176	-0.558214	0.377061
O474	O	0.426824	-0.058214	0.877061
C475	C	-0.121254	-0.525023	0.405934
C476	C	0.378746	-0.025023	0.905934
H477	H	-0.129298	-0.547137	0.451799
H478	H	0.370702	-0.047137	0.951799
H479	H	-0.157317	-0.516314	0.395593
H480	H	0.342683	-0.016314	0.895593
H481	H	-0.116023	-0.484780	0.393759
H482	H	0.383977	0.015220	0.893759
H483	H	0.093086	-0.844219	0.427442
H484	H	0.593086	-0.344219	0.927442
O485	O	0.018983	-0.742809	0.469458
O486	O	0.518983	-0.242809	0.969458
C487	C	0.052070	-0.771618	0.502741
C488	C	0.552070	-0.271618	1.002741
H489	H	0.072909	-0.744321	0.495487
H490	H	0.572909	-0.244321	0.995487
H491	H	0.084492	-0.809892	0.492042
H492	H	0.584492	-0.309892	0.992042
H493	H	0.025566	-0.783938	0.547607
H494	H	0.525566	-0.283938	1.047607
O495	O	-0.081029	-0.848429	0.495630
O496	O	0.418971	-0.348429	0.995630
C497	C	-0.134453	-0.810798	0.498641
C498	C	0.365547	-0.310798	0.998641
H499	H	-0.136642	-0.769937	0.494826
H500	H	0.363358	-0.269937	0.994826
H501	H	-0.164765	-0.827289	0.539608
H502	H	0.335235	-0.327289	1.039608
H503	H	-0.145151	-0.804738	0.463926
H504	H	0.354849	-0.304738	0.963926
H505	H	-0.109727	-0.740044	0.456586
H506	H	0.390273	-0.240044	0.956586
H507	H	-0.116855	-0.691337	0.509456
H508	H	0.383145	-0.191337	1.009456
O509	O	-0.225322	-0.658810	0.552779
O510	O	0.274678	-0.158810	1.052779
C511	C	-0.211366	-0.716212	0.576600
C512	C	0.288634	-0.216212	1.076600
H513	H	-0.195561	-0.734697	0.543960
H514	H	0.304439	-0.234697	1.043960
H515	H	-0.249097	-0.727132	0.610323
H516	H	0.250903	-0.227132	1.110323
H517	H	-0.178155	-0.733222	0.594781
H518	H	0.321845	-0.233222	1.094781
O519	O	-0.224954	-0.566574	0.368096
O520	O	0.275046	-0.066574	0.868096
C521	C	-0.210925	-0.595530	0.334962
C522	C	0.289075	-0.095530	0.834962
H523	H	-0.169341	-0.628932	0.334473
H524	H	0.330659	-0.128932	0.834473
H525	H	-0.208890	-0.566139	0.291479
H526	H	0.291110	-0.066139	0.791479
H527	H	-0.243200	-0.614933	0.352142
H528	H	0.256800	-0.114933	0.852142
O529	O	-0.111965	-0.604402	0.330704
O530	O	0.388035	-0.104402	0.830704
C531	C	-0.078828	-0.652581	0.316889
C532	C	0.421172	-0.152581	0.816889
H533	H	-0.070323	-0.688589	0.354694
H534	H	0.429677	-0.188589	0.854694
H535	H	-0.038488	-0.647511	0.283718
H536	H	0.461512	-0.147511	0.783718
H537	H	-0.100877	-0.660600	0.301085
H538	H	0.399123	-0.160600	0.801085
H539	H	0.026652	-0.433515	0.407232
H540	H	0.526652	0.066485	0.907232
