data_functionalizedCrystal
_audit_creation_method	'MofGen! by Chris Wilmer'
_symmetry_space_group_name_H-M	'P1'
_symmetry_Int_Tables_number	1
_symmetry_cell_setting	triclinic
loop_
_symmetry_equiv_pos_as_xyz
  x,y,z
_cell_length_a	16.109301
_cell_length_b	14.044220
_cell_length_c	14.586319
_cell_angle_alpha	89.995213
_cell_angle_beta	89.999213
_cell_angle_gamma	88.325179
loop_
_atom_site_label
_atom_site_type_symbol
_atom_site_fract_x
_atom_site_fract_y
_atom_site_fract_z
O1	O	1.112195	0.121835	-0.076185
O2	O	1.612195	0.621835	0.423815
O3	O	0.871261	0.136997	-0.076199
O4	O	1.371261	0.636997	0.423801
O5	O	0.988112	-0.008568	-0.076183
O6	O	1.488112	0.491432	0.423817
O7	O	0.995345	0.267399	-0.076201
O8	O	1.495345	0.767399	0.423799
O9	O	0.988103	-0.008570	0.076298
O10	O	1.488103	0.491430	0.576298
O11	O	0.871252	0.136995	0.076281
O12	O	1.371252	0.636995	0.576281
O13	O	1.112186	0.121832	0.076296
O14	O	1.612186	0.621832	0.576296
Cu15	Cu	0.991719	0.129413	0.090212
Cu16	Cu	1.491719	0.629413	0.590212
Cu17	Cu	0.991729	0.129416	-0.090115
Cu18	Cu	1.491729	0.629416	0.409885
O19	O	0.995336	0.267397	0.076280
O20	O	1.495336	0.767397	0.576280
C21	C	0.840236	0.136381	0.000039
C22	C	1.340236	0.636381	0.500039
C23	C	0.747804	0.134540	0.000034
C24	C	1.247804	0.634540	0.500034
C25	C	0.531640	0.216634	0.000039
C26	C	1.031640	0.716634	0.500039
C27	C	0.444790	0.214896	0.000045
C28	C	0.944790	0.714896	0.500045
C29	C	0.451815	0.042189	0.000052
C30	C	0.951815	0.542189	0.500052
C31	C	0.538663	0.043927	0.000053
C32	C	1.038663	0.543927	0.500053
C33	C	0.578573	0.131153	0.000042
C34	C	1.078573	0.631153	0.500042
C35	C	0.404875	0.127677	0.000047
C36	C	0.904875	0.627677	0.500047
C37	C	0.310709	0.125792	0.000054
C38	C	0.810709	0.625792	0.500054
C39	C	0.672745	0.133038	0.000037
C40	C	1.172745	0.633038	0.500037
C41	C	0.984941	-0.043882	0.000058
C42	C	1.484941	0.456118	0.500058
C43	C	0.975498	-0.149105	0.000058
C44	C	1.475498	0.350895	0.500058
C45	C	0.958232	-0.341761	0.000044
C46	C	1.458232	0.158239	0.500044
C47	C	1.025212	-0.399415	0.000045
C48	C	1.525212	0.100585	0.500045
C49	C	1.015605	-0.506616	0.000037
C50	C	1.515605	-0.006616	0.500037
C51	C	0.967838	-0.234551	0.000052
C52	C	1.467838	0.265449	0.500052
C53	C	1.143211	0.122448	0.000056
C54	C	1.643211	0.622448	0.500056
C55	C	1.235644	0.124289	0.000055
C56	C	1.735644	0.624289	0.500055
C57	C	0.998506	0.302711	0.000037
C58	C	1.498506	0.802711	0.500037
C59	C	1.007950	0.407934	0.000031
C60	C	1.507950	0.907934	0.500031
N61	N	0.991717	0.129411	0.217043
N62	N	1.491717	0.629411	0.717043
N63	N	0.991737	0.129411	-0.216946
N64	N	1.491737	0.629411	0.283054
C65	C	1.043479	0.064976	0.452057
C66	C	1.543479	0.564976	0.952057
C67	C	1.043481	0.064974	0.548038
C68	C	1.543481	0.564974	1.048038
C69	C	0.939969	0.193848	0.548033
C70	C	1.439969	0.693848	1.048033
C71	C	0.939963	0.193845	0.452054
C72	C	1.439963	0.693845	0.952054
C73	C	0.991723	0.129410	0.404068
C74	C	1.491723	0.629410	0.904068
C75	C	0.991731	0.129411	0.596029
C76	C	1.491731	0.629411	1.096029
C77	C	0.991733	0.129409	0.700096
C78	C	1.491733	0.629409	1.200096
C79	C	0.991720	0.129411	0.299994
C80	C	1.491720	0.629411	0.799994
H81	H	0.419309	-0.028827	0.000067
H82	H	0.919309	0.471173	0.500067
H83	H	0.897829	0.246311	0.587113
H84	H	1.397829	0.746311	1.087113
O85	O	1.102170	-0.362103	0.000100
O86	O	1.602170	0.137897	0.500100
C87	C	1.094757	-0.261822	0.000084
C88	C	1.594757	0.238178	0.500084
H89	H	1.031565	-0.238707	0.028942
H90	H	1.531565	0.261293	0.528942
H91	H	1.145914	-0.231393	0.044365
H92	H	1.645914	0.268607	0.544365
H93	H	1.100799	-0.234278	-0.073066
H94	H	1.600799	0.265722	0.426934
H95	H	0.893680	-0.372911	0.000038
H96	H	1.393680	0.127089	0.500038
H97	H	0.576877	-0.025686	0.000058
H98	H	1.076877	0.474314	0.500058
H99	H	1.085623	0.012509	0.412989
H100	H	1.585623	0.512509	0.912989
H101	H	1.085624	0.012505	0.587108
H102	H	1.585624	0.512505	1.087108
O103	O	0.889661	0.256533	0.405573
O104	O	1.389661	0.756533	0.905573
C105	C	0.843968	0.313395	0.468506
C106	C	1.343968	0.813395	0.968506
H107	H	0.878136	0.314484	0.536921
H108	H	1.378136	0.814484	1.036921
H109	H	0.836894	0.389086	0.440762
H110	H	1.336894	0.889086	0.940762
H111	H	0.779926	0.282597	0.478723
H112	H	1.279926	0.782597	0.978723
H113	H	0.564132	0.287658	0.000037
H114	H	1.064132	0.787658	0.500037
H115	H	0.406580	0.284504	0.000045
H116	H	0.906580	0.784504	0.500045
