data_functionalizedCrystal
_audit_creation_method	'MofGen! by Chris Wilmer'
_symmetry_space_group_name_H-M	'P1'
_symmetry_Int_Tables_number	1
_symmetry_cell_setting	triclinic
loop_
_symmetry_equiv_pos_as_xyz
  x,y,z
_cell_length_a	16.120542
_cell_length_b	16.120531
_cell_length_c	11.169409
_cell_angle_alpha	87.142764
_cell_angle_beta	92.921851
_cell_angle_gamma	90.169791
loop_
_atom_site_label
_atom_site_type_symbol
_atom_site_fract_x
_atom_site_fract_y
_atom_site_fract_z
Zn1	Zn	-1.254464	0.395615	-0.798929
Zn2	Zn	-0.754464	0.895615	-0.298929
Zn3	Zn	-1.247282	0.534693	-0.607837
Zn4	Zn	-0.747282	1.034693	-0.107837
Zn5	Zn	-1.115395	0.388593	-0.587597
Zn6	Zn	-0.615395	0.888593	-0.087597
Zn7	Zn	-1.108301	0.527557	-0.797813
Zn8	Zn	-0.608301	1.027557	-0.297813
O9	O	-1.181361	0.461614	-0.698044
O10	O	-0.681361	0.961614	-0.198044
O11	O	-1.369877	0.419989	-0.782518
O12	O	-0.869877	0.919989	-0.282518
O13	O	-1.229750	0.515360	-0.437203
O14	O	-0.729750	1.015360	0.062797
O15	O	-1.139817	0.273164	-0.607627
O16	O	-0.639817	0.773164	-0.107627
O17	O	-1.364600	0.522169	-0.642124
O18	O	-0.864600	1.022169	-0.142124
O19	O	-1.241991	0.278322	-0.762892
O20	O	-0.741991	0.778322	-0.262892
O21	O	-1.132853	0.408022	-0.422333
O22	O	-0.632853	0.908022	0.077667
O23	O	-0.998089	0.401102	-0.606545
O24	O	-0.498089	0.901102	-0.106545
O25	O	-1.127726	0.510007	-0.965910
O26	O	-0.627726	1.010007	-0.465910
O27	O	-0.992877	0.503198	-0.760990
O28	O	-0.492877	1.003198	-0.260990
O29	O	-1.235112	0.413070	-0.966730
O30	O	-0.735112	0.913070	-0.466730
O31	O	-1.222871	0.650107	-0.641041
O32	O	-0.722871	1.150107	-0.141041
O33	O	-1.120762	0.644865	-0.780616
O34	O	-0.620762	1.144865	-0.280616
C35	C	-0.965310	0.450614	-0.681451
C36	C	-0.465310	0.950614	-0.181451
C37	C	-0.872882	0.445929	-0.674382
C38	C	-0.372882	0.945929	-0.174382
C39	C	-1.170290	0.677658	-0.712932
C40	C	-0.670290	1.177658	-0.212932
C41	C	-1.165631	0.770087	-0.719347
C42	C	-0.665631	1.270087	-0.219347
C43	C	-0.659911	0.485897	-0.734646
C44	C	-0.159911	0.985897	-0.234646
C45	C	-0.703659	0.437381	-0.661474
C46	C	-0.203659	0.937381	-0.161474
C47	C	-0.797824	0.442138	-0.668658
C48	C	-0.297824	0.942138	-0.168658
C49	C	-0.565738	0.481141	-0.727463
C50	C	-0.065738	0.981141	-0.227463
C51	C	-0.398255	0.472654	-0.714686
C52	C	0.101745	0.972654	-0.214686
C53	C	-0.490682	0.477347	-0.721734
C54	C	0.009318	0.977347	-0.221734
C55	C	-1.157128	0.939315	-0.731083
C56	C	-0.657128	1.439315	-0.231083
C57	C	-1.205625	0.983075	-0.664939
C58	C	-0.705625	1.483075	-0.164939
C59	C	-1.200894	1.077240	-0.671470
C60	C	-0.700894	1.577240	-0.171470
C61	C	-1.161858	0.845142	-0.724554
C62	C	-0.661858	1.345142	-0.224554
C63	C	-1.181429	0.461525	-1.011085
C64	C	-0.681429	0.961525	-0.511085
C65	C	-1.181458	0.461487	-1.144485
C66	C	-0.681458	0.961487	-0.644485
C67	C	-1.192467	1.244727	-0.683102
C68	C	-0.692467	1.744727	-0.183102
C69	C	-1.197124	1.152298	-0.676673
C70	C	-0.697124	1.652298	-0.176673
C71	C	-1.181343	0.461646	-0.386220
C72	C	-0.681343	0.961646	0.113780
C73	C	-1.181487	0.461458	-0.252818
C74	C	-0.681487	0.961458	0.247182
H75	H	-0.670394	0.392273	-0.593435
H76	H	-0.170394	0.892273	-0.093435
H77	H	-0.693174	0.531002	-0.802678
H78	H	-0.193174	1.031002	-0.302678
C79	C	-1.096232	0.984239	-0.814193
C80	C	-0.596232	1.484239	-0.314193
N81	N	-1.050362	1.018085	-0.876784
N82	N	-0.550362	1.518085	-0.376784
H83	H	-1.250696	0.949820	-0.603406
H84	H	-0.750696	1.449820	-0.103406
