data_functionalizedCrystal
_audit_creation_method	'MofGen! by Chris Wilmer'
_symmetry_space_group_name_H-M	'P1'
_symmetry_Int_Tables_number	1
_symmetry_cell_setting	triclinic
loop_
_symmetry_equiv_pos_as_xyz
  x,y,z
_cell_length_a	6.817900
_cell_length_b	11.353959
_cell_length_c	12.257928
_cell_angle_alpha	76.576458
_cell_angle_beta	72.012007
_cell_angle_gamma	107.526623
loop_
_atom_site_label
_atom_site_type_symbol
_atom_site_fract_x
_atom_site_fract_y
_atom_site_fract_z
V1	V	-4.123859	-0.181220	0.393855
O2	O	-4.062645	0.008413	0.349171
O3	O	-4.119799	-0.359045	0.426927
O4	O	-4.097236	-0.178562	0.549312
O5	O	-4.085364	-0.173319	0.225938
V6	V	-4.598920	-0.158523	0.369426
O7	O	-4.403680	-0.231009	0.447442
O8	O	-4.769296	-0.108733	0.315840
O9	O	-4.379774	0.019302	0.336355
O10	O	-4.777531	-0.348156	0.414111
O11	O	-4.754812	-0.166423	0.537344
O12	O	-4.402336	-0.161181	0.213970
C13	C	-3.974882	-0.402391	0.429942
C14	C	-4.052994	-0.547766	0.458019
C15	C	-4.030716	-0.594752	0.367143
C16	C	-4.111448	-0.745005	0.396158
C17	C	-3.946099	-0.172165	0.586055
C18	C	-4.005909	-0.171169	0.713377
C19	C	-4.115373	-0.169346	0.946486
C20	C	-4.054451	-0.170360	0.816767
C21	C	-4.188034	0.062641	0.333338
C22	C	-4.089162	0.208015	0.305269
C23	C	-4.223778	-0.167575	1.177219
C24	C	-4.163951	-0.168543	1.049888
H25	H	-4.010328	-0.720980	0.205979
H26	H	-3.951887	-0.523742	0.267860
C27	C	-4.159482	-0.643682	0.592144
H28	H	-4.199753	-0.732086	0.594049
H29	H	-4.290295	-0.633339	0.637085
H30	H	-4.054058	-0.624805	0.628039
H31	H	-4.190297	-0.816011	0.495449
