data_functionalizedCrystal
_audit_creation_method	'MofGen! by Chris Wilmer'
_symmetry_space_group_name_H-M	'P1'
_symmetry_Int_Tables_number	1
_symmetry_cell_setting	triclinic
loop_
_symmetry_equiv_pos_as_xyz
  x,y,z
_cell_length_a	16.625546
_cell_length_b	21.295420
_cell_length_c	16.625539
_cell_angle_alpha	89.978382
_cell_angle_beta	90.030397
_cell_angle_gamma	89.980117
loop_
_atom_site_label
_atom_site_type_symbol
_atom_site_fract_x
_atom_site_fract_y
_atom_site_fract_z
Zn1	Zn	-0.321056	-0.962366	0.455920
Zn2	Zn	-0.071056	-0.712366	0.705920
Zn3	Zn	0.178944	-0.462366	0.955920
Zn4	Zn	0.428944	-0.212366	1.205920
Zn5	Zn	-0.455899	-0.962290	0.321082
Zn6	Zn	-0.205899	-0.712290	0.571082
Zn7	Zn	0.044101	-0.462290	0.821082
Zn8	Zn	0.294101	-0.212290	1.071082
Zn9	Zn	-0.321078	-0.857096	0.321098
Zn10	Zn	-0.071078	-0.607096	0.571098
Zn11	Zn	0.178922	-0.357096	0.821098
Zn12	Zn	0.428922	-0.107096	1.071098
Zn13	Zn	-0.455844	-0.857073	0.455870
Zn14	Zn	-0.205844	-0.607073	0.705870
Zn15	Zn	0.044156	-0.357073	0.955870
Zn16	Zn	0.294156	-0.107073	1.205870
O17	O	-0.388469	-0.909707	0.388493
O18	O	-0.138469	-0.659707	0.638493
O19	O	0.111531	-0.409707	0.888493
O20	O	0.361531	-0.159707	1.138493
O21	O	-0.338957	-1.050445	0.438048
O22	O	-0.088957	-0.800445	0.688048
O23	O	0.161043	-0.550445	0.938048
O24	O	0.411043	-0.300445	1.188048
O25	O	-0.438047	-0.948314	0.208252
O26	O	-0.188047	-0.698314	0.458252
O27	O	0.061953	-0.448314	0.708252
O28	O	0.311953	-0.198314	0.958252
O29	O	-0.208243	-0.871102	0.339010
O30	O	0.041757	-0.621102	0.589010
O31	O	0.291757	-0.371102	0.839010
O32	O	0.541757	-0.121102	1.089010
O33	O	-0.438025	-1.050390	0.338983
O34	O	-0.188025	-0.800390	0.588983
O35	O	0.061975	-0.550390	0.838983
O36	O	0.311975	-0.300390	1.088983
O37	O	-0.208226	-0.948443	0.438063
O38	O	0.041774	-0.698443	0.688063
O39	O	0.291774	-0.448443	0.938063
O40	O	0.541774	-0.198443	1.188063
O41	O	-0.338994	-0.871029	0.208264
O42	O	-0.088994	-0.621029	0.458264
O43	O	0.161006	-0.371029	0.708264
O44	O	0.411006	-0.121029	0.958264
O45	O	-0.338941	-0.769004	0.338962
O46	O	-0.088941	-0.519004	0.588962
O47	O	0.161059	-0.269004	0.838962
O48	O	0.411059	-0.019004	1.088962
O49	O	-0.437932	-0.871063	0.568709
O50	O	-0.187932	-0.621063	0.818709
O51	O	0.062068	-0.371063	1.068709
O52	O	0.312068	-0.121063	1.318709
O53	O	-0.437953	-0.768987	0.437978
O54	O	-0.187953	-0.518987	0.687978
O55	O	0.062047	-0.268987	0.937978
O56	O	0.312047	-0.018987	1.187978
O57	O	-0.338904	-0.948421	0.568746
O58	O	-0.088904	-0.698421	0.818746
O59	O	0.161096	-0.448421	1.068746
O60	O	0.411096	-0.198421	1.318746
O61	O	-0.568724	-0.948292	0.338935
O62	O	-0.318724	-0.698292	0.588935
O63	O	-0.068724	-0.448292	0.838935
O64	O	0.181276	-0.198292	1.088935
O65	O	-0.568684	-0.870989	0.437962
O66	O	-0.318684	-0.620989	0.687962
O67	O	-0.068684	-0.370989	0.937962
O68	O	0.181316	-0.120989	1.187962
C69	C	-0.597960	-0.909647	0.388459
C70	C	-0.347960	-0.659647	0.638459
C71	C	-0.097960	-0.409647	0.888459
C72	C	0.152040	-0.159647	1.138459
C73	C	-0.687581	-0.909679	0.388471
C74	C	-0.437581	-0.659679	0.638471
C75	C	-0.187581	-0.409679	0.888471
C76	C	0.062419	-0.159679	1.138471
C77	C	-0.388444	-0.746155	0.388466
C78	C	-0.138444	-0.496155	0.638466
C79	C	0.111556	-0.246155	0.888466
C80	C	0.361556	0.003845	1.138466
C81	C	-0.388453	-0.676187	0.388474
C82	C	-0.138453	-0.426187	0.638474
C83	C	0.111547	-0.176187	0.888474
C84	C	0.361547	0.073813	1.138474
C85	C	-1.015757	-0.909789	0.388555
C86	C	-0.765757	-0.659789	0.638555
C87	C	-0.515757	-0.409789	0.888555
C88	C	-0.265757	-0.159789	1.138555
C89	C	-0.924448	-0.909756	0.388534
C90	C	-0.674448	-0.659756	0.638534
C91	C	-0.424448	-0.409756	0.888534
C92	C	-0.174448	-0.159756	1.138534
C93	C	-0.851672	-0.909733	0.388513
C94	C	-0.601672	-0.659733	0.638513
C95	C	-0.351672	-0.409733	0.888513
C96	C	-0.101672	-0.159733	1.138513
C97	C	-0.760358	-0.909702	0.388493
C98	C	-0.510358	-0.659702	0.638493
C99	C	-0.260358	-0.409702	0.888493
C100	C	-0.010358	-0.159702	1.138493
C101	C	-0.440106	-0.176737	0.439986
C102	C	-0.190106	0.073263	0.689986
C103	C	0.059894	0.323263	0.939986
C104	C	0.309894	0.573263	1.189986
C105	C	-0.440107	-0.242479	0.439979
C106	C	-0.190107	0.007521	0.689979
C107	C	0.059893	0.257521	0.939979
C108	C	0.309893	0.507521	1.189979
C109	C	-0.388476	-0.275347	0.388506
C110	C	-0.138476	-0.025347	0.638506
C111	C	0.111524	0.224653	0.888506
C112	C	0.361524	0.474653	1.138506
C113	C	-0.336853	-0.242468	0.337021
C114	C	-0.086853	0.007532	0.587021
C115	C	0.163147	0.257532	0.837021
C116	C	0.413147	0.507532	1.087021
C117	C	-0.336859	-0.176727	0.337024
C118	C	-0.086859	0.073273	0.587024
C119	C	0.163141	0.323273	0.837024
C120	C	0.413141	0.573273	1.087024
N121	N	-0.317880	-0.378581	0.382442
N122	N	-0.067880	-0.128581	0.632442
N123	N	0.182120	0.121419	0.882442
N124	N	0.432120	0.371419	1.132442
N125	N	-0.317877	-0.441032	0.382444
N126	N	-0.067877	-0.191032	0.632444
N127	N	0.182123	0.058968	0.882444
N128	N	0.432123	0.308968	1.132444
C129	C	-0.388457	-0.473422	0.388492
C130	C	-0.138457	-0.223422	0.638492
C131	C	0.111543	0.026578	0.888492
C132	C	0.361543	0.276578	1.138492
N133	N	-0.459041	-0.441001	0.394554
N134	N	-0.209041	-0.191001	0.644554
N135	N	0.040959	0.058999	0.894554
N136	N	0.290959	0.308999	1.144554
N137	N	-0.459044	-0.378544	0.394557
N138	N	-0.209044	-0.128544	0.644557
N139	N	0.040956	0.121456	0.894557
N140	N	0.290956	0.371456	1.144557
C141	C	-0.388464	-0.346633	0.388496
C142	C	-0.138464	-0.096633	0.638496
C143	C	0.111536	0.153367	0.888496
C144	C	0.361536	0.403367	1.138496
C145	C	-0.440082	-0.577579	0.439962
C146	C	-0.190082	-0.327579	0.689962
C147	C	0.059918	-0.077579	0.939962
C148	C	0.309918	0.172421	1.189962
C149	C	-0.440085	-0.643323	0.439949
C150	C	-0.190085	-0.393323	0.689949
C151	C	0.059915	-0.143323	0.939949
C152	C	0.309915	0.106677	1.189949
C153	C	-0.336823	-0.643311	0.336995
C154	C	-0.086823	-0.393311	0.586995
C155	C	0.163177	-0.143311	0.836995
C156	C	0.413177	0.106689	1.086995
C157	C	-0.336827	-0.577568	0.337004
C158	C	-0.086827	-0.327568	0.587004
C159	C	0.163173	-0.077568	0.837004
C160	C	0.413173	0.172432	1.087004
C161	C	-0.388455	-0.544706	0.388491
C162	C	-0.138455	-0.294706	0.638491
C163	C	0.111545	-0.044706	0.888491
C164	C	0.361545	0.205294	1.138491
C165	C	-0.178160	-0.909783	0.388544
C166	C	0.071840	-0.659783	0.638544
C167	C	0.321840	-0.409783	0.888544
C168	C	0.571840	-0.159783	1.138544
C169	C	-0.088539	-0.909816	0.388566
C170	C	0.161461	-0.659816	0.638566
C171	C	0.411461	-0.409816	0.888566
C172	C	0.661461	-0.159816	1.138566
C173	C	-0.388409	-0.909747	0.598802
C174	C	-0.138409	-0.659747	0.848802
C175	C	0.111591	-0.409747	1.098802
C176	C	0.361591	-0.159747	1.348802
C177	C	-0.388383	-0.909765	0.688423
C178	C	-0.138383	-0.659765	0.938423
C179	C	0.111617	-0.409765	1.188423
C180	C	0.361617	-0.159765	1.438423
C181	C	-0.388490	-0.073897	0.388515
C182	C	-0.138490	0.176103	0.638515
C183	C	0.111510	0.426103	0.888515
C184	C	0.361510	0.676103	1.138515
C185	C	-0.388487	-0.143865	0.388511
C186	C	-0.138487	0.106135	0.638511
C187	C	0.111513	0.356135	0.888511
C188	C	0.361513	0.606135	1.138511
C189	C	-0.388471	-0.909702	0.179002
C190	C	-0.138471	-0.659702	0.429002
C191	C	0.111529	-0.409702	0.679002
C192	C	0.361529	-0.159702	0.929002
C193	C	-0.388269	-0.909807	0.089381
C194	C	-0.138269	-0.659807	0.339381
C195	C	0.111731	-0.409807	0.589381
C196	C	0.361731	-0.159807	0.839381
C197	C	-0.388293	-0.909794	1.016599
C198	C	-0.138293	-0.659794	1.266599
C199	C	0.111707	-0.409794	1.516599
C200	C	0.361707	-0.159794	1.766599
C201	C	-0.388321	-0.909784	0.925290
C202	C	-0.138321	-0.659784	1.175290
C203	C	0.111679	-0.409784	1.425290
C204	C	0.361679	-0.159784	1.675290
C205	C	-0.388339	-0.909780	0.852514
C206	C	-0.138339	-0.659780	1.102514
C207	C	0.111661	-0.409780	1.352514
C208	C	0.361661	-0.159780	1.602514
C209	C	-0.388365	-0.909769	0.761199
C210	C	-0.138365	-0.659769	1.011199
C211	C	0.111635	-0.409769	1.261199
C212	C	0.361635	-0.159769	1.511199
H213	H	-0.482149	-0.149985	0.481908
H214	H	-0.232149	0.100015	0.731908
H215	H	0.017851	0.350015	0.981908
H216	H	0.267851	0.600015	1.231908
H217	H	-0.294822	-0.149963	0.295107
H218	H	-0.044822	0.100037	0.545107
H219	H	0.205178	0.350037	0.795107
H220	H	0.455178	0.600037	1.045107
C221	C	-0.280029	-0.679462	0.280372
C222	C	-0.030029	-0.429462	0.530372
C223	C	0.219971	-0.179462	0.780372
C224	C	0.469971	0.070538	1.030372
N225	N	-0.237252	-0.706694	0.237720
N226	N	0.012748	-0.456694	0.487720
N227	N	0.262748	-0.206694	0.737720
N228	N	0.512748	0.043306	0.987720
C229	C	-0.496889	-0.278645	0.496613
C230	C	-0.246889	-0.028645	0.746613
C231	C	0.003111	0.221355	0.996613
C232	C	0.253111	0.471355	1.246613
N233	N	-0.539655	-0.305884	0.539272
N234	N	-0.289655	-0.055884	0.789272
N235	N	-0.039655	0.194116	1.039272
N236	N	0.210345	0.444116	1.289272
C237	C	-0.280053	-0.278624	0.280405
C238	C	-0.030053	-0.028624	0.530405
C239	C	0.219947	0.221376	0.780405
C240	C	0.469947	0.471376	1.030405
N241	N	-0.237269	-0.305857	0.237761
N242	N	0.012731	-0.055857	0.487761
N243	N	0.262731	0.194143	0.737761
N244	N	0.512731	0.444143	0.987761
C245	C	-0.496879	-0.541429	0.496593
C246	C	-0.246879	-0.291429	0.746593
C247	C	0.003121	-0.041429	0.996593
C248	C	0.253121	0.208571	1.246593
N249	N	-0.539660	-0.514203	0.539247
N250	N	-0.289660	-0.264203	0.789247
N251	N	-0.039660	-0.014203	1.039247
N252	N	0.210340	0.235797	1.289247
C253	C	-0.496877	-0.679482	0.496574
C254	C	-0.246877	-0.429482	0.746574
C255	C	0.003123	-0.179482	0.996574
C256	C	0.253123	0.070518	1.246574
N257	N	-0.539654	-0.706717	0.539225
N258	N	-0.289654	-0.456717	0.789225
N259	N	-0.039654	-0.206717	1.039225
N260	N	0.210346	0.043283	1.289225
H261	H	-0.294790	-0.550804	0.295091
H262	H	-0.044790	-0.300804	0.545091
H263	H	0.205210	-0.050804	0.795091
H264	H	0.455210	0.199196	1.045091
