data_functionalizedCrystal
_audit_creation_method	'MofGen! by Chris Wilmer'
_symmetry_space_group_name_H-M	'P1'
_symmetry_Int_Tables_number	1
_symmetry_cell_setting	triclinic
loop_
_symmetry_equiv_pos_as_xyz
  x,y,z
_cell_length_a	10.654554
_cell_length_b	14.044220
_cell_length_c	9.730223
_cell_angle_alpha	89.997406
_cell_angle_beta	89.999646
_cell_angle_gamma	88.837811
loop_
_atom_site_label
_atom_site_type_symbol
_atom_site_fract_x
_atom_site_fract_y
_atom_site_fract_z
O1	O	1.681221	0.133248	-0.114299
O2	O	1.317018	0.145937	-0.114301
O3	O	1.493653	0.001572	-0.114287
O4	O	1.504586	0.277613	-0.114314
O5	O	1.493651	0.001575	0.114293
O6	O	1.317016	0.145941	0.114279
O7	O	1.681219	0.133252	0.114281
Zn8	Zn	1.499117	0.139597	0.150572
Zn9	Zn	1.499120	0.139592	-0.150592
O10	O	1.504584	0.277617	0.114266
C11	C	1.270126	0.145006	-0.000011
C12	C	1.130402	0.142216	-0.000012
C13	C	1.488866	-0.033772	0.000004
C14	C	1.474590	-0.139092	0.000005
C15	C	0.928172	0.224598	-0.000023
C16	C	1.059457	0.227220	-0.000023
C17	C	1.070056	0.054584	-0.000014
C18	C	0.938773	0.051963	-0.000023
C19	C	0.922054	0.324268	-0.000022
C20	C	1.053339	0.326890	-0.000023
C21	C	1.448492	-0.331925	-0.000014
C22	C	1.549740	-0.388892	-0.000018
C23	C	1.535218	-0.496191	-0.000029
C24	C	1.463012	-0.224616	-0.000003
C25	C	1.728111	0.134182	-0.000012
C26	C	1.867835	0.136972	-0.000021
C27	C	1.509371	0.312961	-0.000027
C28	C	1.523647	0.418281	-0.000038
N29	N	1.499125	0.139599	0.356108
N30	N	1.499121	0.139582	-0.356129
C31	C	1.577363	0.075696	0.428041
C32	C	1.577358	0.075685	0.571924
C33	C	1.420875	0.203488	0.571929
C34	C	1.420874	0.203494	0.428049
C35	C	1.667711	0.001913	0.428039
C36	C	1.667707	0.001902	0.571922
H37	H	0.889652	-0.019390	-0.000039
H38	H	1.761217	0.025017	0.383411
N39	N	1.672174	-0.349005	-0.000012
N40	N	1.746535	-0.367027	-0.096355
H41	H	1.833002	-0.338854	-0.096346
H42	H	1.638942	-0.070997	0.388992
N43	N	1.790816	0.022300	0.620931
N44	N	1.807702	0.093717	0.694805
H45	H	1.894644	0.108121	0.729423
H46	H	1.127830	-0.014627	-0.000018
H47	H	1.357164	0.255508	0.630518
H48	H	0.884084	0.361826	-0.095683
N49	N	1.094969	0.375742	0.120065
N50	N	1.157874	0.449478	0.108490
H51	H	1.187221	0.483962	0.193337
H52	H	1.350912	-0.363737	-0.000018
H53	H	1.092163	0.358630	-0.098723
H54	H	1.630270	-0.066998	0.616544
N55	N	0.868590	0.362039	0.123789
N56	N	0.938335	0.392519	0.216515
H57	H	0.900577	0.419193	0.303962
N58	N	1.340927	0.268760	0.354592
N59	N	1.271066	0.325798	0.418845
H60	H	1.214596	0.371894	0.366967
