data_functionalizedCrystal
_audit_creation_method	'MofGen! by Chris Wilmer'
_symmetry_space_group_name_H-M	'P1'
_symmetry_Int_Tables_number	1
_symmetry_cell_setting	triclinic
loop_
_symmetry_equiv_pos_as_xyz
  x,y,z
_cell_length_a	14.044220
_cell_length_b	10.654550
_cell_length_c	9.130313
_cell_angle_alpha	90.004369
_cell_angle_beta	89.998564
_cell_angle_gamma	88.836904
loop_
_atom_site_label
_atom_site_type_symbol
_atom_site_fract_x
_atom_site_fract_y
_atom_site_fract_z
O1	O	-1.259697	-0.302986	-0.121643
O2	O	-0.759697	0.197014	0.378357
O3	O	-0.983656	-0.292053	-0.121680
O4	O	-0.483656	0.207947	0.378320
O5	O	-1.128023	-0.115418	-0.121651
O6	O	-0.628023	0.384582	0.378349
O7	O	-1.115330	-0.479621	-0.121672
O8	O	-0.615330	0.020379	0.378328
O9	O	-1.128013	-0.115411	0.121947
O10	O	-0.628013	0.384589	0.621947
O11	O	-0.983646	-0.292046	0.121919
O12	O	-0.483646	0.207954	0.621919
O13	O	-1.259687	-0.302979	0.121956
O14	O	-0.759687	0.197021	0.621956
Cu15	Cu	-1.121666	-0.297512	0.144180
Cu16	Cu	-0.621666	0.202488	0.644180
Cu17	Cu	-1.121678	-0.297520	-0.143904
Cu18	Cu	-0.621678	0.202480	0.356096
O19	O	-1.115320	-0.479614	0.121927
O20	O	-0.615320	0.020386	0.621927
C21	C	-0.948305	-0.287263	0.000115
C22	C	-0.448305	0.212737	0.500115
C23	C	-0.842986	-0.272988	0.000101
C24	C	-0.342986	0.227012	0.500101
C25	C	-1.127086	-0.068523	0.000147
C26	C	-0.627086	0.431477	0.500147
C27	C	-1.124298	0.071201	0.000144
C28	C	-0.624298	0.571201	0.500144
C29	C	-1.295038	-0.307769	0.000158
C30	C	-0.795038	0.192231	0.500158
C31	C	-1.400358	-0.322044	0.000162
C32	C	-0.900358	0.177956	0.500162
C33	C	-0.650153	-0.246889	0.000131
C34	C	-0.150153	0.253111	0.500131
C35	C	-0.593185	-0.348137	0.000132
C36	C	-0.093185	0.151863	0.500132
C37	C	-0.485886	-0.333615	0.000149
C38	C	0.014114	0.166385	0.500149
C39	C	-0.757462	-0.261409	0.000114
C40	C	-0.257462	0.238591	0.500114
C41	C	-1.116257	-0.526509	0.000126
C42	C	-0.616257	-0.026509	0.500126
C43	C	-1.119045	-0.666233	0.000119
C44	C	-0.619045	-0.166233	0.500119
N45	N	-1.121664	-0.297507	0.346803
N46	N	-0.621664	0.202493	0.846803
C47	C	-1.209299	0.142144	0.000155
C48	C	-0.709299	0.642144	0.500155
C49	C	-1.206673	0.273429	0.000137
C50	C	-0.706673	0.773429	0.500137
C51	C	-1.034038	0.262814	0.000103
C52	C	-0.534038	0.762814	0.500103
C53	C	-1.036665	0.131532	0.000111
C54	C	-0.536665	0.631532	0.500111
N55	N	-1.121686	-0.297516	-0.346527
N56	N	-0.621686	0.202484	0.153473
C57	C	-1.185612	-0.219331	0.423467
C58	C	-0.685612	0.280669	0.923467
C59	C	-1.185621	-0.219332	0.576804
C60	C	-0.685621	0.280668	1.076804
C61	C	-1.057732	-0.375695	0.576798
C62	C	-0.557732	0.124305	1.076798
C63	C	-1.057719	-0.375687	0.423464
C64	C	-0.557719	0.124313	0.923464
H65	H	-0.624998	-0.445725	0.000119
H66	H	-0.124998	0.054275	0.500119
Cl67	Cl	-0.923876	0.338668	0.000062
Cl68	Cl	-0.423876	0.838668	0.500062
H69	H	-0.618342	-0.149310	0.000145
H70	H	-0.118342	0.350690	0.500145
H71	H	-1.005670	-0.439350	0.639231
H72	H	-0.505670	0.060650	1.139231
Cl73	Cl	-1.265997	-0.121042	0.327099
Cl74	Cl	-0.765997	0.378958	0.827099
Cl75	Cl	-1.319466	0.066304	0.000194
Cl76	Cl	-0.819466	0.566304	0.500194
Cl77	Cl	-1.313537	0.362611	0.000148
Cl78	Cl	-0.813537	0.862611	0.500148
Cl79	Cl	-0.929797	0.042338	0.000084
Cl80	Cl	-0.429797	0.542338	0.500084
Cl81	Cl	-1.266014	-0.121047	0.673178
Cl82	Cl	-0.766014	0.378953	1.173178
Cl83	Cl	-0.977317	-0.473966	0.327076
Cl84	Cl	-0.477317	0.026034	0.827076
