data_functionalizedCrystal
_audit_creation_method	'MofGen! by Chris Wilmer'
_symmetry_space_group_name_H-M	'P1'
_symmetry_Int_Tables_number	1
_symmetry_cell_setting	triclinic
loop_
_symmetry_equiv_pos_as_xyz
  x,y,z
_cell_length_a	12.759401
_cell_length_b	12.759399
_cell_length_c	12.759393
_cell_angle_alpha	90.028113
_cell_angle_beta	90.019465
_cell_angle_gamma	90.012552
loop_
_atom_site_label
_atom_site_type_symbol
_atom_site_fract_x
_atom_site_fract_y
_atom_site_fract_z
Zn1	Zn	-1.606258	0.418254	-0.594035
Zn2	Zn	-1.106258	0.918254	-0.094035
Zn3	Zn	-1.606153	0.593973	-0.418366
Zn4	Zn	-1.106153	1.093973	0.081634
Zn5	Zn	-1.430560	0.418303	-0.418372
Zn6	Zn	-0.930560	0.918303	0.081628
Zn7	Zn	-1.430549	0.593886	-0.594004
Zn8	Zn	-0.930549	1.093886	-0.094004
O9	O	-1.518380	0.506104	-0.506194
O10	O	-1.018380	1.006104	-0.006194
O11	O	-1.753265	0.441579	-0.570743
O12	O	-1.253265	0.941579	-0.070743
O13	O	-1.582821	0.570727	-0.271346
O14	O	-1.082821	1.070727	0.228654
O15	O	-1.453914	0.271276	-0.441689
O16	O	-0.953914	0.771276	0.058311
O17	O	-1.753188	0.570679	-0.441680
O18	O	-1.253188	1.070679	0.058320
O19	O	-1.582999	0.271240	-0.570748
O20	O	-1.082999	0.771240	-0.070748
O21	O	-1.453813	0.441663	-0.271350
O22	O	-0.953813	0.941663	0.228650
O23	O	-1.283537	0.441579	-0.441659
O24	O	-0.783537	0.941579	0.058341
O25	O	-1.453897	0.570531	-0.741030
O26	O	-0.953897	1.070531	-0.241030
O27	O	-1.283530	0.570579	-0.570696
O28	O	-0.783530	1.070579	-0.070696
O29	O	-1.582989	0.441495	-0.741052
O30	O	-1.082989	0.941495	-0.241052
O31	O	-1.582811	0.740983	-0.441650
O32	O	-1.082811	1.240983	0.058350
O33	O	-1.453795	0.740919	-0.570691
O34	O	-0.953795	1.240919	-0.070691
C35	C	-1.245413	0.506075	-0.506175
C36	C	-0.745413	1.006075	-0.006175
C37	C	-1.128636	0.506088	-0.506192
C38	C	-0.628636	1.006088	-0.006192
C39	C	-1.073815	0.438985	-0.573498
C40	C	-0.573815	0.938985	-0.073498
C41	C	-0.964090	0.438992	-0.573503
C42	C	-0.464090	0.938992	-0.073503
C43	C	-0.964019	0.573213	-0.438894
C44	C	-0.464019	1.073213	0.061106
C45	C	-1.073741	0.573201	-0.438884
C46	C	-0.573741	1.073201	0.061116
C47	C	-1.518319	0.779071	-0.506189
C48	C	-1.018319	1.279071	-0.006189
C49	C	-1.518389	0.895848	-0.506222
C50	C	-1.018389	1.395848	-0.006222
C51	C	-0.792413	0.506124	-0.506210
C52	C	-0.292413	1.006124	-0.006210
C53	C	-0.909190	0.506107	-0.506207
C54	C	-0.409190	1.006107	-0.006207
C55	C	-1.585707	1.060439	-0.439148
C56	C	-1.085707	1.560439	0.060852
C57	C	-1.585644	0.950715	-0.439109
C58	C	-1.085644	1.450715	0.060891
C59	C	-1.451187	0.950710	-0.573372
C60	C	-0.951187	1.450710	-0.073372
C61	C	-1.451246	1.060432	-0.573405
C62	C	-0.951246	1.560432	-0.073405
C63	C	-1.518453	0.505998	-0.780228
C64	C	-1.018453	1.005998	-0.280228
C65	C	-1.518485	0.505953	-0.897005
C66	C	-1.018485	1.005953	-0.397005
C67	C	-1.518470	1.232071	-0.506238
C68	C	-1.018470	1.732071	-0.006238
C69	C	-1.518512	1.115294	-0.506295
C70	C	-1.018512	1.615294	-0.006295
C71	C	-1.451334	0.438737	-0.951868
C72	C	-0.951334	0.938737	-0.451868
C73	C	-1.451359	0.438704	-1.061592
C74	C	-0.951359	0.938704	-0.561592
C75	C	-1.585693	0.573107	-1.061580
C76	C	-1.085693	1.073107	-0.561580
C77	C	-1.585662	0.573143	-0.951857
C78	C	-1.085662	1.073143	-0.451857
C79	C	-1.518367	0.506134	-0.233227
C80	C	-1.018367	1.006134	0.266773
C81	C	-1.518540	0.505883	-0.116451
C82	C	-1.018540	1.005883	0.383549
H83	H	-1.118507	0.384335	-0.628302
H84	H	-0.618507	0.884335	-0.128302
Br85	Br	-1.360040	1.134885	-0.664535
Br86	Br	-0.860040	1.634885	-0.164535
H87	H	-1.640387	0.627810	-1.106254
H88	H	-1.140387	1.127810	-0.606254
Br89	Br	-0.889694	0.347915	-0.664847
Br90	Br	-0.389694	0.847915	-0.164847
Br91	Br	-1.360163	0.347552	-0.877428
Br92	Br	-0.860163	0.847552	-0.377428
H93	H	-1.396677	0.383971	-1.106257
H94	H	-0.896677	0.883971	-0.606257
Br95	Br	-1.676794	0.664380	-0.877392
Br96	Br	-1.176794	1.164380	-0.377392
H97	H	-1.118378	0.627845	-0.384069
H98	H	-0.618378	1.127845	0.115931
Br99	Br	-0.889512	0.664292	-0.347553
Br100	Br	-0.389512	1.164292	0.152447
H101	H	-1.640479	1.105105	-0.384502
H102	H	-1.140479	1.605105	0.115498
H103	H	-1.396422	0.906031	-0.628013
H104	H	-0.896422	1.406031	-0.128013
Br105	Br	-1.676839	0.876273	-0.347975
Br106	Br	-1.176839	1.376273	0.152025
