data_functionalizedCrystal
_audit_creation_method	'MofGen! by Chris Wilmer'
_symmetry_space_group_name_H-M	'P1'
_symmetry_Int_Tables_number	1
_symmetry_cell_setting	triclinic
loop_
_symmetry_equiv_pos_as_xyz
  x,y,z
_cell_length_a	19.805407
_cell_length_b	17.637651
_cell_length_c	19.805399
_cell_angle_alpha	78.757390
_cell_angle_beta	89.980427
_cell_angle_gamma	101.218564
loop_
_atom_site_label
_atom_site_type_symbol
_atom_site_fract_x
_atom_site_fract_y
_atom_site_fract_z
Zn1	Zn	0.980303	-0.314779	-0.328177
Zn2	Zn	0.957355	-0.446994	-0.192080
Zn3	Zn	0.867114	-0.314800	-0.214998
Zn4	Zn	0.844226	-0.446952	-0.305234
O5	O	0.912250	-0.380881	-0.260122
O6	O	1.071974	-0.332326	-0.310134
O7	O	0.945360	-0.429485	-0.100399
O8	O	0.901312	-0.204159	-0.249205
O9	O	1.055114	-0.429464	-0.210144
O10	O	0.984471	-0.204143	-0.332357
O11	O	0.879060	-0.332363	-0.117237
O12	O	0.769363	-0.332322	-0.226958
O13	O	0.862302	-0.429392	-0.402999
O14	O	0.752547	-0.429413	-0.293254
O15	O	0.962277	-0.332285	-0.419855
O16	O	0.923166	-0.557627	-0.187897
O17	O	0.840050	-0.557596	-0.271031
C18	C	0.736396	-0.380866	-0.260103
C19	C	0.661162	-0.380879	-0.260108
C20	C	0.617066	-0.431510	-0.294545
C21	C	0.546378	-0.431512	-0.294554
C22	C	0.519785	-0.380885	-0.260122
C23	C	0.563887	-0.330248	-0.225684
C24	C	0.634575	-0.330243	-0.225679
C25	C	0.278811	-0.330265	-0.225703
C26	C	0.208117	-0.330276	-0.225709
C27	C	0.190613	-0.431534	-0.294578
C28	C	0.261301	-0.431529	-0.294573
C29	C	0.305397	-0.380889	-0.260139
C30	C	0.382046	-0.380887	-0.260130
C31	C	0.443137	-0.380890	-0.260126
C32	C	0.876652	-0.586299	-0.224502
C33	C	0.861485	-0.674177	-0.209286
C34	C	1.027910	-0.962863	-0.375930
C35	C	1.013637	-1.045438	-0.361620
C36	C	0.927101	-1.045562	-0.274950
C37	C	0.941369	-0.962985	-0.289250
C38	C	0.991774	-0.921642	-0.339741
C39	C	0.905232	-0.921764	-0.253061
C40	C	0.919497	-0.839195	-0.267363
C41	C	0.969898	-0.797846	-0.317853
C42	C	1.006039	-0.839072	-0.354043
C43	C	0.854824	-0.963109	-0.202574
C44	C	0.818688	-0.921888	-0.166385
C45	C	0.832956	-0.839317	-0.180683
C46	C	0.883357	-0.797968	-0.231173
C47	C	0.796816	-0.798090	-0.144494
C48	C	0.811080	-0.715521	-0.158795
C49	C	0.897622	-0.715398	-0.245475
C50	C	1.088790	-0.380897	-0.260142
C51	C	1.164020	-0.380904	-0.260150
C52	C	0.912296	-0.380831	-0.436674
C53	C	0.912316	-0.380810	-0.511910
C54	C	0.948005	-0.174661	-0.295897
C55	C	0.963241	-0.086783	-0.311142
C56	C	0.964375	-0.330244	-0.556032
C57	C	0.964386	-0.330221	-0.626725
C58	C	0.912340	-0.380769	-0.653292
C59	C	0.860276	-0.431337	-0.609164
C60	C	0.860263	-0.431356	-0.538474
C61	C	0.860327	-0.431264	-0.894250
C62	C	0.860345	-0.431243	-0.964946
C63	C	0.964450	-0.330129	-0.982501
C64	C	0.964437	-0.330147	-0.911811
C65	C	0.912371	-0.380712	-0.867690
C66	C	0.912359	-0.380736	-0.791037
C67	C	0.912354	-0.380750	-0.729943
C68	C	0.912252	-0.380874	-0.084268
C69	C	0.912402	-0.380672	-0.009071
H70	H	0.154702	-0.472764	-0.322620
F71	F	0.289598	-0.485416	-0.331218
H72	H	0.817960	-0.472407	-0.986574
H73	H	0.186469	-0.289044	-0.197671
F74	F	0.325732	-0.276368	-0.189057
H75	H	0.817898	-0.472491	-0.630802
H76	H	0.542231	-0.289023	-0.197652
F77	F	0.681506	-0.276352	-0.189028
H78	H	0.938672	-0.681735	-0.286585
F79	F	0.743165	-0.842101	-0.090768
F80	F	1.019832	-0.276350	-0.883540
H81	H	0.981512	-0.730612	-0.329496
F82	F	1.019812	-0.276429	-0.673676
H83	H	0.510477	-0.472742	-0.322595
H84	H	0.777647	-0.955561	-0.125277
H85	H	1.047088	-0.805409	-0.395153
H86	H	1.068960	-0.929200	-0.417040
H87	H	0.781654	-0.681958	-0.129327
H88	H	1.043058	-1.078997	-0.391103
F89	F	0.804854	-0.485173	-0.491515
F90	F	0.873453	-1.089571	-0.221220
F91	F	0.804914	-0.485080	-0.847302
H92	H	0.638711	-0.472739	-0.322581
H93	H	1.006842	-0.288953	-1.018435
H94	H	0.843205	-1.030342	-0.190938
H95	H	1.006758	-0.289084	-0.534407
