data_functionalizedCrystal
_audit_creation_method	'MofGen! by Chris Wilmer'
_symmetry_space_group_name_H-M	'P1'
_symmetry_Int_Tables_number	1
_symmetry_cell_setting	triclinic
loop_
_symmetry_equiv_pos_as_xyz
  x,y,z
_cell_length_a	29.839131
_cell_length_b	16.625548
_cell_length_c	16.625539
_cell_angle_alpha	90.020568
_cell_angle_beta	90.032094
_cell_angle_gamma	90.042488
loop_
_atom_site_label
_atom_site_type_symbol
_atom_site_fract_x
_atom_site_fract_y
_atom_site_fract_z
Zn1	Zn	-0.178840	1.232574	0.455888
Zn2	Zn	0.154494	1.565908	0.789221
Zn3	Zn	0.487827	1.899241	1.122555
Zn4	Zn	-0.253971	1.232433	0.321046
Zn5	Zn	0.079363	1.565766	0.654380
Zn6	Zn	0.412696	1.899100	0.987713
Zn7	Zn	-0.178857	1.097736	0.321069
Zn8	Zn	0.154476	1.431069	0.654402
Zn9	Zn	0.487810	1.764403	0.987735
Zn10	Zn	-0.253945	1.097662	0.455836
Zn11	Zn	0.079388	1.430995	0.789170
Zn12	Zn	0.412722	1.764329	1.122503
O13	O	-0.216403	1.165101	0.388460
O14	O	0.116930	1.498435	0.721793
O15	O	0.450264	1.831768	1.055126
O16	O	-0.188810	1.345388	0.438013
O17	O	0.144524	1.678721	0.771347
O18	O	0.477857	2.012055	1.104680
O19	O	-0.244025	1.214537	0.208217
O20	O	0.089309	1.547870	0.541550
O21	O	0.422642	1.881204	0.874884
O22	O	-0.115987	1.115713	0.338984
O23	O	0.217346	1.449046	0.672317
O24	O	0.550679	1.782380	1.005650
O25	O	-0.244008	1.345284	0.338946
O26	O	0.089325	1.678617	0.672279
O27	O	0.422659	2.011951	1.005612
O28	O	-0.115975	1.214778	0.438035
O29	O	0.217358	1.548111	0.771368
O30	O	0.550692	1.881445	1.104702
O31	O	-0.188839	1.115576	0.208233
O32	O	0.144495	1.448909	0.541567
O33	O	0.477828	1.782242	0.874900
O34	O	-0.188814	0.984894	0.338933
O35	O	0.144520	1.318227	0.672267
O36	O	0.477853	1.651561	1.005600
O37	O	-0.243964	1.115586	0.568676
O38	O	0.089369	1.448920	0.902009
O39	O	0.422703	1.782253	1.235342
O40	O	-0.243981	0.984839	0.437947
O41	O	0.089353	1.318173	0.771280
O42	O	0.422686	1.651506	1.104613
O43	O	-0.188785	1.214706	0.568714
O44	O	0.144549	1.548039	0.902047
O45	O	0.477882	1.881373	1.235380
O46	O	-0.316834	1.214465	0.338896
O47	O	0.016499	1.547798	0.672229
O48	O	0.349832	1.881132	1.005562
O49	O	-0.316815	1.115449	0.437925
O50	O	0.016518	1.448783	0.771258
O51	O	0.349851	1.782116	1.104592
C52	C	-0.216397	0.955610	0.388437
C53	C	0.116937	1.288944	0.721771
C54	C	0.450270	1.622277	1.055104
C55	C	-0.216405	0.865989	0.388447
C56	C	0.116929	1.199323	0.721780
C57	C	0.450262	1.532656	1.055113
C58	C	-0.216408	0.537814	0.388481
C59	C	0.116926	0.871147	0.721815
C60	C	0.450259	1.204480	1.055148
C61	C	-0.216406	0.629122	0.388469
C62	C	0.116928	0.962455	0.721802
C63	C	0.450261	1.295789	1.055136
C64	C	-0.216406	0.701899	0.388463
C65	C	0.116927	1.035232	0.721797
C66	C	0.450260	1.368565	1.055130
C67	C	-0.216404	0.793213	0.388452
C68	C	0.116929	1.126546	0.721786
C69	C	0.450263	1.459880	1.055119
C70	C	-0.333126	1.164956	0.388420
C71	C	0.000208	1.498289	0.721753
C72	C	0.333541	1.831622	1.055087
C73	C	-0.383060	1.164967	0.388430
C74	C	-0.049727	1.498301	0.721763
C75	C	0.283607	1.831634	1.055096
C76	C	-0.692701	1.216752	0.336971
C77	C	-0.359367	1.550086	0.670304
C78	C	-0.026034	1.883419	1.003637
C79	C	-0.880374	1.216852	0.337002
C80	C	-0.547040	1.550185	0.670335
C81	C	-0.213707	1.883519	1.003668
O82	O	-0.904636	1.260766	0.293219
O83	O	-0.571303	1.594100	0.626552
O84	O	-0.237969	1.927433	0.959885
N85	N	-0.903845	1.165268	0.388521
N86	N	-0.570512	1.498602	0.721854
N87	N	-0.237178	1.831935	1.055187
C88	C	-0.880395	1.113660	0.440039
C89	C	-0.547062	1.446993	0.773372
C90	C	-0.213729	1.780327	1.106706
O91	O	-0.904665	1.069793	0.483866
O92	O	-0.571332	1.403127	0.817199
O93	O	-0.237999	1.736460	1.150532
C94	C	-0.692723	1.113565	0.440011
C95	C	-0.359390	1.446899	0.773345
C96	C	-0.026056	1.780232	1.106678
C97	C	-0.669254	1.165146	0.388483
C98	C	-0.335921	1.498480	0.721817
C99	C	-0.002588	1.831813	1.055150
C100	C	-0.669232	1.268330	0.285447
C101	C	-0.335898	1.601663	0.618781
C102	C	-0.002565	1.934997	0.952114
C103	C	-0.622316	1.268302	0.285437
C104	C	-0.288983	1.601635	0.618770
C105	C	0.044351	1.934968	0.952104
C106	C	-0.598870	1.216695	0.336950
C107	C	-0.265536	1.550029	0.670283
C108	C	0.067797	1.883362	1.003616
C109	C	-0.622339	1.165118	0.388473
C110	C	-0.289005	1.498451	0.721806
C111	C	0.044328	1.831785	1.055140
C112	C	-0.669274	1.061962	0.491533
C113	C	-0.335941	1.395295	0.824866
C114	C	-0.002608	1.728628	1.158200
C115	C	-0.622353	1.061944	0.491523
C116	C	-0.289020	1.395277	0.824856
C117	C	0.044313	1.728611	1.158190
C118	C	-0.598884	1.113525	0.439995
C119	C	-0.265551	1.446858	0.773328
C120	C	0.067782	1.780192	1.106662
C121	C	-0.551977	1.113483	0.439975
C122	C	-0.218644	1.446817	0.773309
C123	C	0.114690	1.780150	1.106642
N124	N	-0.528505	1.165067	0.388456
N125	N	-0.195172	1.498400	0.721790
N126	N	0.138161	1.831734	1.055123
C127	C	-0.551952	1.216673	0.336944
C128	C	-0.218619	1.550006	0.670277
C129	C	0.114715	1.883340	1.003610
C130	C	-0.978926	1.113712	0.440049
C131	C	-0.645593	1.447046	0.773382
C132	C	-0.312259	1.780379	1.106716
C133	C	-1.025844	1.113735	0.440055
C134	C	-0.692510	1.447068	0.773388
C135	C	-0.359177	1.780402	1.106722
C136	C	-1.025819	1.216928	0.337019
C137	C	-0.692485	1.550262	0.670352
C138	C	-0.359152	1.883595	1.003685
C139	C	-0.978900	1.216901	0.337009
C140	C	-0.645567	1.550234	0.670342
C141	C	-0.312233	1.883568	1.003676
C142	C	-0.955455	1.165296	0.388530
C143	C	-0.622121	1.498629	0.721863
C144	C	-0.288788	1.831963	1.055197
C145	C	-0.453426	1.216609	0.336925
C146	C	-0.120093	1.549942	0.670258
C147	C	0.213241	1.883275	1.003592
C148	C	-0.406506	1.216573	0.336917
C149	C	-0.073173	1.549907	0.670250
C150	C	0.260160	1.883240	1.003584
C151	C	-0.406535	1.113383	0.439956
C152	C	-0.073202	1.446717	0.773289
C153	C	0.260131	1.780050	1.106623
C154	C	-0.453451	1.113416	0.439962
C155	C	-0.120118	1.446749	0.773295
C156	C	0.213216	1.780082	1.106628
C157	C	-0.476895	1.165035	0.388443
C158	C	-0.143562	1.498368	0.721777
C159	C	0.189772	1.831701	1.055110
O160	O	-0.527685	1.069599	0.483742
O161	O	-0.194352	1.402932	0.817075
O162	O	0.138981	1.736265	1.150409
O163	O	-0.527674	1.260546	0.293136
O164	O	-0.194340	1.593879	0.626470
O165	O	0.138993	1.927212	0.959803
C166	C	-0.739616	1.216781	0.336981
C167	C	-0.406283	1.550114	0.670314
C168	C	-0.072949	1.883448	1.003648
C169	C	-0.763085	1.165203	0.388504
C170	C	-0.429752	1.498537	0.721837
C171	C	-0.096418	1.831870	1.055171
C172	C	-0.739639	1.113597	0.440017
C173	C	-0.406305	1.446931	0.773350
C174	C	-0.072972	1.780264	1.106683
C175	C	-0.810003	1.165226	0.388510
C176	C	-0.476670	1.498559	0.721843
C177	C	-0.143336	1.831893	1.055177
C178	C	-0.833449	1.216832	0.336997
C179	C	-0.500116	1.550165	0.670331
C180	C	-0.166783	1.883499	1.003664
C181	C	-0.809978	1.268416	0.285479
C182	C	-0.476645	1.601749	0.618812
C183	C	-0.143311	1.935082	0.952145
C184	C	-0.763062	1.268387	0.285468
C185	C	-0.429729	1.601720	0.618802
C186	C	-0.096396	1.935054	0.952135
C187	C	-0.763110	1.062014	0.491536
C188	C	-0.429777	1.395347	0.824869
C189	C	-0.096443	1.728680	1.158202
C190	C	-0.810026	1.062046	0.491541
C191	C	-0.476692	1.395379	0.824875
C192	C	-0.143359	1.728713	1.158208
C193	C	-0.833472	1.113652	0.440028
C194	C	-0.500139	1.446985	0.773362
C195	C	-0.166805	1.780319	1.106695
C196	C	-0.099225	1.165269	0.388518
C197	C	0.234109	1.498603	0.721851
C198	C	0.567442	1.831936	1.055184
C199	C	-0.049290	1.165341	0.388542
C200	C	0.284043	1.498674	0.721876
C201	C	0.617376	1.832008	1.055209
C202	C	-0.216370	1.165154	0.598769
C203	C	0.116964	1.498487	0.932102
C204	C	0.450297	1.831820	1.265435
C205	C	-0.216355	1.165176	0.688390
C206	C	0.116978	1.498509	1.021723
C207	C	0.450311	1.831843	1.355057
C208	C	-0.216410	1.375410	0.388483
C209	C	0.116924	1.708743	0.721816
C210	C	0.450257	2.042077	1.055150
C211	C	-0.216413	1.465031	0.388493
C212	C	0.116921	1.798365	0.721826
C213	C	0.450254	2.131698	1.055159
C214	C	-0.216404	1.165095	0.178969
C215	C	0.116929	1.498429	0.512302
C216	C	0.450263	1.831762	0.845636
C217	C	-0.216292	1.165229	0.089348
C218	C	0.117042	1.498563	0.422682
C219	C	0.450375	1.831896	0.756015
C220	C	-0.216305	1.165213	1.016566
C221	C	0.117028	1.498547	1.349899
C222	C	0.450362	1.831880	1.683233
C223	C	-0.216320	1.165201	0.925257
C224	C	0.117013	1.498534	1.258591
C225	C	0.450346	1.831867	1.591924
C226	C	-0.216330	1.165195	0.852481
C227	C	0.117003	1.498528	1.185814
C228	C	0.450336	1.831862	1.519148
C229	C	-0.216345	1.165182	0.761167
C230	C	0.116988	1.498515	1.094500
C231	C	0.450321	1.831848	1.427833
H232	H	-0.387399	1.258577	0.294954
H233	H	-0.054066	1.591910	0.628287
H234	H	0.279267	1.925243	0.961621
Br235	Br	-1.057689	1.043717	0.509977
Br236	Br	-0.724355	1.377051	0.843310
Br237	Br	-0.391022	1.710384	1.176643
H238	H	-0.743957	1.310389	0.243509
H239	H	-0.410624	1.643723	0.576843
H240	H	-0.077291	1.977056	0.910176
Br241	Br	-0.701043	1.338378	0.215529
Br242	Br	-0.367710	1.671712	0.548863
Br243	Br	-0.034376	2.005045	0.882196
H244	H	-0.472509	1.258644	0.294976
H245	H	-0.139175	1.591977	0.628309
H246	H	0.194158	1.925310	0.961643
H247	H	-0.829130	1.020035	0.533501
H248	H	-0.495797	1.353369	0.866834
H249	H	-0.162463	1.686702	1.200167
H250	H	-0.603210	1.310306	0.243481
H251	H	-0.269877	1.643639	0.576814
H252	H	0.063456	1.976972	0.910148
Br253	Br	-0.374706	1.043353	0.509866
Br254	Br	-0.041373	1.376686	0.843199
Br255	Br	0.291960	1.710020	1.176533
H256	H	-0.688375	1.019955	0.533489
H257	H	-0.355041	1.353288	0.866822
H258	H	-0.021708	1.686621	1.200156
Br259	Br	-0.947054	1.286905	0.267075
Br260	Br	-0.613721	1.620239	0.600409
Br261	Br	-0.280388	1.953572	0.933742
Br262	Br	-1.057648	1.286962	0.267106
Br263	Br	-0.724314	1.620295	0.600439
Br264	Br	-0.390981	1.953629	0.933772
Br265	Br	-0.485303	1.043393	0.509873
Br266	Br	-0.151970	1.376726	0.843206
Br267	Br	0.181364	1.710059	1.176540
Br268	Br	-0.947114	1.043670	0.509977
Br269	Br	-0.613780	1.377003	0.843310
Br270	Br	-0.280447	1.710336	1.176644
Br271	Br	-0.590537	0.991908	0.561452
Br272	Br	-0.257204	1.325241	0.894785
Br273	Br	0.076130	1.658574	1.228118
H274	H	-0.744024	1.019991	0.533485
H275	H	-0.410690	1.353324	0.866818
H276	H	-0.077357	1.686657	1.200151
Br277	Br	-0.841807	1.338448	0.215566
Br278	Br	-0.508474	1.671782	0.548899
Br279	Br	-0.175141	2.005115	0.882232
