data_functionalizedCrystal
_audit_creation_method	'MofGen! by Chris Wilmer'
_symmetry_space_group_name_H-M	'P1'
_symmetry_Int_Tables_number	1
_symmetry_cell_setting	triclinic
loop_
_symmetry_equiv_pos_as_xyz
  x,y,z
_cell_length_a	17.699097
_cell_length_b	16.776229
_cell_length_c	10.654559
_cell_angle_alpha	90.004024
_cell_angle_beta	83.888558
_cell_angle_gamma	90.010738
loop_
_atom_site_label
_atom_site_type_symbol
_atom_site_fract_x
_atom_site_fract_y
_atom_site_fract_z
O1	O	1.005085	0.066350	0.158887
O2	O	0.784840	0.066336	0.179531
O3	O	0.900023	0.066343	-0.013617
O4	O	0.889903	0.066343	0.352036
O5	O	0.900008	-0.066233	-0.013629
O6	O	0.784825	-0.066240	0.179519
O7	O	1.005070	-0.066227	0.158876
Zn8	Zn	0.894945	-0.087283	0.169196
Zn9	Zn	0.894965	0.087393	0.169211
O10	O	0.889887	-0.066234	0.352024
C11	C	0.756631	0.000047	0.178783
C12	C	0.672599	0.000042	0.176555
N13	N	0.894936	-0.206494	0.169184
C14	C	0.156802	0.072341	0.162907
C15	C	0.235760	0.072337	0.164992
C16	C	0.275224	0.000067	0.166030
C17	C	0.235727	-0.072205	0.164970
C18	C	0.156772	-0.072200	0.162877
C19	C	0.554145	-0.072226	0.173411
C20	C	0.633106	-0.072225	0.175508
C21	C	0.633133	0.072311	0.175526
C22	C	0.554177	0.072316	0.173433
C23	C	0.514688	0.000045	0.172367
C24	C	0.429074	0.000050	0.170104
C25	C	0.360836	0.000061	0.168301
C26	C	0.945955	-0.248208	0.083693
C27	C	0.945959	-0.331660	0.083692
C28	C	0.894948	-0.373397	0.169189
C29	C	0.843924	-0.331677	0.254684
C30	C	0.843916	-0.248226	0.254678
C31	C	0.843951	-0.668224	0.254709
C32	C	0.843964	-0.751681	0.254711
C33	C	0.945994	-0.751658	0.083723
C34	C	0.945987	-0.668207	0.083717
C35	C	0.894960	-0.626495	0.169207
C36	C	0.894955	-0.536006	0.169205
C37	C	0.894956	-0.463884	0.169197
C38	C	1.033279	0.000065	0.159624
C39	C	1.117311	0.000075	0.161852
C40	C	0.899271	0.000057	-0.060408
C41	C	0.897043	0.000062	-0.199812
N42	N	0.894980	0.206604	0.169213
C43	C	0.827131	0.000059	-0.250134
C44	C	0.825043	0.000053	-0.381119
C45	C	0.962784	0.000055	-0.411452
C46	C	0.964872	0.000055	-0.280468
C47	C	0.747608	0.000062	-0.232622
C48	C	0.745519	0.000056	-0.363608
C49	C	0.890639	0.000055	0.398815
C50	C	0.892867	0.000055	0.538219
H51	H	0.124675	0.131193	0.162071
C52	C	0.703518	0.075004	-0.402552
C53	C	0.631071	0.066571	-0.469708
C54	C	0.589070	0.141515	-0.508648
C55	C	0.619515	0.224892	-0.480432
C56	C	0.691965	0.233328	-0.413273
C57	C	0.733967	0.158384	-0.374332
H58	H	0.608530	0.004847	-0.490598
H59	H	0.535437	0.135269	-0.558365
H60	H	0.588423	0.280370	-0.509258
H61	H	0.714506	0.295052	-0.392382
H62	H	0.787599	0.164630	-0.324616
C63	C	0.711287	-0.077275	-0.411155
C64	C	0.758969	-0.130526	-0.507081
C65	C	0.724740	-0.207856	-0.554626
C66	C	0.642828	-0.231934	-0.506245
C67	C	0.595141	-0.178682	-0.410313
C68	C	0.629371	-0.101352	-0.362768
H69	H	0.819609	-0.112703	-0.542901
H70	H	0.760041	-0.247276	-0.625641
H71	H	0.617489	-0.289178	-0.541440
H72	H	0.534501	-0.196505	-0.374493
H73	H	0.594070	-0.061931	-0.291753
H74	H	0.522049	0.131167	0.172594
C75	C	0.279194	0.151834	0.166157
C76	C	0.276359	0.211461	0.056878
C77	C	0.319792	0.290963	0.058041
C78	C	0.366059	0.310839	0.168481
C79	C	0.368896	0.251211	0.277768
C80	C	0.325463	0.171709	0.276606
H81	H	0.242108	0.196749	-0.024884
H82	H	0.317691	0.335104	-0.022861
H83	H	0.398210	0.369692	0.169342
H84	H	0.403147	0.265923	0.359530
H85	H	0.327564	0.127568	0.357508
H86	H	0.665295	0.131158	0.176389
C87	C	0.676519	-0.151729	0.176636
C88	C	0.657632	-0.211362	0.285332
C89	C	0.701045	-0.290860	0.286460
C90	C	0.763344	-0.310726	0.178892
C91	C	0.782234	-0.251091	0.070189
C92	C	0.738821	-0.171592	0.069061
H93	H	0.611512	-0.196658	0.364967
H94	H	0.687062	-0.335006	0.366930
H95	H	0.795481	-0.369575	0.179727
H96	H	0.828354	-0.265795	-0.009446
H97	H	0.752804	-0.127447	-0.011409
C98	C	1.041777	0.000053	-0.225118
C99	C	1.098293	-0.068791	-0.255649
C100	C	1.175202	-0.068793	-0.200302
C101	C	1.195595	0.000050	-0.114422
C102	C	1.139078	0.068900	-0.083887
C103	C	1.062169	0.068902	-0.139234
H104	H	1.083198	-0.119758	-0.319226
H105	H	1.217040	-0.119760	-0.222907
H106	H	1.252528	0.000049	-0.073451
H107	H	1.154173	0.119866	-0.020310
H108	H	1.020331	0.119869	-0.116629
H109	H	0.267866	-0.131049	0.165807
H110	H	0.987498	-0.214231	0.014077
H111	H	0.987502	-0.365623	0.014078
C112	C	0.510714	-0.151722	0.172236
C113	C	0.554126	-0.231216	0.173377
C114	C	0.510691	-0.310716	0.172196
C115	C	0.423845	-0.310722	0.169875
C116	C	0.380428	-0.231225	0.168734
C117	C	0.423863	-0.151725	0.169915
H118	H	0.618419	-0.231214	0.175095
H119	H	0.542832	-0.369565	0.173040
H120	H	0.391692	-0.369573	0.169001
H121	H	0.316135	-0.231228	0.167016
H122	H	0.391722	-0.092877	0.169071
C123	C	0.715157	0.077389	-0.170381
C124	C	0.765574	0.130633	-0.096051
C125	C	0.733126	0.207961	-0.033811
C126	C	0.650259	0.232046	-0.045899
C127	C	0.599837	0.178801	-0.120232
C128	C	0.632286	0.101473	-0.182472
H129	H	0.826922	0.112805	-0.087100
H130	H	0.770452	0.247376	0.021215
H131	H	0.626239	0.289289	0.000175
H132	H	0.538490	0.196629	-0.129183
H133	H	0.594959	0.062057	-0.237498
H134	H	0.124618	-0.131046	0.162030
C135	C	1.037392	0.000054	-0.500177
C136	C	1.054888	-0.068791	-0.594398
C137	C	1.129498	-0.068791	-0.683121
C138	C	1.186612	0.000053	-0.677622
C139	C	1.169118	0.068904	-0.583397
C140	C	1.094508	0.068904	-0.494674
H141	H	1.012607	-0.119759	-0.598473
H142	H	1.142448	-0.119759	-0.752873
H143	H	1.241843	0.000053	-0.743300
H144	H	1.211399	0.119871	-0.579323
H145	H	1.081558	0.119871	-0.424922
H146	H	0.987528	-0.634228	0.014101
C147	C	0.787831	-0.622343	0.348752
C148	C	0.731743	-0.668248	0.442839
C149	C	0.675622	-0.622361	0.536888
C150	C	0.675589	-0.530568	0.536850
C151	C	0.731679	-0.484658	0.442760
C152	C	0.787800	-0.530545	0.348711
H153	H	0.731765	-0.736203	0.442870
H154	H	0.634100	-0.656347	0.606539
H155	H	0.634044	-0.496600	0.606471
H156	H	0.731657	-0.416703	0.442729
H157	H	0.829322	-0.496559	0.279060
C158	C	0.707118	-0.074888	-0.175513
C159	C	0.637318	-0.066462	-0.077023
C160	C	0.596829	-0.141410	-0.019914
C161	C	0.626142	-0.224784	-0.061296
C162	C	0.695946	-0.233214	-0.159791
C163	C	0.736434	-0.158265	-0.216900
H164	H	0.615616	-0.004741	-0.046385
H165	H	0.545156	-0.135170	0.052999
H166	H	0.596170	-0.280265	-0.019020
H167	H	0.717648	-0.294935	-0.190429
H168	H	0.788108	-0.164506	-0.289813
H169	H	0.987541	-0.785629	0.014108
H170	H	0.802421	-0.785661	0.324335
H171	H	0.802371	-0.214264	0.324292
H172	H	0.802385	-0.365664	0.324294
