data_functionalizedCrystal
_audit_creation_method	'MofGen! by Chris Wilmer'
_symmetry_space_group_name_H-M	'P1'
_symmetry_Int_Tables_number	1
_symmetry_cell_setting	triclinic
loop_
_symmetry_equiv_pos_as_xyz
  x,y,z
_cell_length_a	9.065215
_cell_length_b	10.723024
_cell_length_c	9.198806
_cell_angle_alpha	90.002012
_cell_angle_beta	90.003417
_cell_angle_gamma	84.741283
loop_
_atom_site_label
_atom_site_type_symbol
_atom_site_fract_x
_atom_site_fract_y
_atom_site_fract_z
O1	O	1.959364	0.182966	0.120872
O2	O	2.459364	0.682966	0.620872
O3	O	1.529994	0.197979	0.120878
O4	O	2.029994	0.697979	0.620878
O5	O	1.754583	0.008936	0.120869
O6	O	2.254583	0.508936	0.620869
O7	O	1.734775	0.372008	0.120880
O8	O	2.234775	0.872008	0.620880
O9	O	1.754565	0.008936	-0.120916
O10	O	2.254565	0.508936	0.379084
O11	O	1.529976	0.197978	-0.120907
O12	O	2.029976	0.697978	0.379093
O13	O	1.959346	0.182965	-0.120914
O14	O	2.459346	0.682965	0.379086
Cu15	Cu	1.744659	0.190472	-0.142987
Cu16	Cu	2.244659	0.690472	0.357013
Cu17	Cu	1.744680	0.190473	0.142952
Cu18	Cu	2.244680	0.690473	0.642952
O19	O	1.734757	0.372008	-0.120905
O20	O	2.234757	0.872008	0.379095
C21	C	1.475006	0.196537	-0.000014
C22	C	1.975006	0.696537	0.499986
C23	C	1.311187	0.192225	-0.000012
C24	C	1.811187	0.692225	0.499988
C25	C	1.753132	-0.037569	-0.000022
C26	C	2.253132	0.462431	0.499978
C27	C	1.748820	-0.176141	-0.000017
C28	C	2.248820	0.323859	0.499983
C29	C	1.874488	-0.250614	-0.000016
C30	C	2.374488	0.249386	0.499984
C31	C	1.870033	-0.393836	-0.000011
C32	C	2.370033	0.106164	0.499989
C33	C	2.014334	0.184408	-0.000019
C34	C	2.514334	0.684408	0.499981
C35	C	2.178152	0.188719	-0.000011
C36	C	2.678152	0.688719	0.499989
C37	C	1.736207	0.418514	-0.000011
C38	C	2.236207	0.918514	0.499989
C39	C	1.740520	0.557085	-0.000007
C40	C	2.240520	1.057085	0.499993
N41	N	1.744655	0.190471	-0.344101
N42	N	2.244655	0.690471	0.155899
C43	C	1.838954	0.110745	-0.416302
C44	C	2.338954	0.610745	0.083698
C45	C	1.838977	0.110741	-0.583714
C46	C	2.338977	0.610741	-0.083714
N47	N	1.744696	0.190464	0.344065
N48	N	2.244696	0.690464	0.844065
H49	H	1.985375	-0.208343	-0.000027
H50	H	2.485375	0.291657	0.499973
F51	F	1.603877	-0.231386	-0.000001
F52	F	2.103877	0.268614	0.499999
H53	H	1.977615	-0.457832	-0.000017
H54	H	2.477615	0.042168	0.499983
F55	F	1.599891	-0.359278	-0.000017
F56	F	2.099891	0.140722	0.499983
F57	F	1.944194	0.021308	-0.335106
F58	F	2.444194	0.521308	0.164894
H59	H	1.663934	0.258719	-0.406226
H60	H	2.163934	0.758719	0.093774
F61	F	1.639172	0.279692	-0.574792
F62	F	2.139172	0.779692	-0.074792
H63	H	1.919715	0.042490	-0.645804
H64	H	2.419715	0.542490	-0.145804
