data_functionalizedCrystal
_audit_creation_method	'MofGen! by Chris Wilmer'
_symmetry_space_group_name_H-M	'P1'
_symmetry_Int_Tables_number	1
_symmetry_cell_setting	triclinic
loop_
_symmetry_equiv_pos_as_xyz
  x,y,z
_cell_length_a	10.654562
_cell_length_b	14.044220
_cell_length_c	9.130313
_cell_angle_alpha	90.006544
_cell_angle_beta	90.009063
_cell_angle_gamma	88.839490
loop_
_atom_site_label
_atom_site_type_symbol
_atom_site_fract_x
_atom_site_fract_y
_atom_site_fract_z
O1	O	1.681229	0.133291	0.121901
O2	O	1.317027	0.145972	0.121883
O3	O	1.493662	0.001610	0.121878
O4	O	1.504595	0.277652	0.121907
O5	O	1.493638	0.001603	-0.121721
O6	O	1.317004	0.145965	-0.121715
O7	O	1.681206	0.133284	-0.121698
Cu8	Cu	1.499103	0.139624	-0.143949
Cu9	Cu	1.499130	0.139632	0.144135
O10	O	1.504571	0.277645	-0.121692
C11	C	1.270124	0.145034	0.000082
C12	C	1.130401	0.142241	0.000074
C13	C	1.064726	0.140935	-0.132700
C14	C	0.933441	0.138318	-0.132676
C15	C	0.933516	0.138318	0.132909
C16	C	1.064799	0.140928	0.132883
C17	C	1.130328	0.142248	-0.265509
C18	C	1.064653	0.140942	-0.398294
C19	C	0.933368	0.138325	-0.398270
C20	C	0.867757	0.137014	-0.265461
C21	C	1.488864	-0.033739	0.000077
C22	C	1.474588	-0.139059	0.000075
C23	C	1.448490	-0.331893	0.000095
C24	C	1.549738	-0.388857	0.000104
C25	C	1.535216	-0.496157	0.000115
C26	C	1.463010	-0.224584	0.000084
C27	C	1.728109	0.134221	0.000107
C28	C	1.867832	0.137014	0.000124
C29	C	1.509369	0.312994	0.000112
C30	C	1.523645	0.418315	0.000124
N31	N	1.499092	0.139617	-0.346572
C32	C	1.420904	0.203529	-0.576597
C33	C	1.420871	0.203520	-0.423260
C34	C	1.577342	0.075712	-0.423228
C35	C	1.577367	0.075717	-0.576562
C36	C	1.342687	0.267443	-0.653277
C37	C	1.264435	0.331347	-0.576630
C38	C	1.264402	0.331338	-0.423294
C39	C	1.342621	0.267426	-0.346603
N40	N	1.499150	0.139631	0.346757
H41	H	0.880085	0.137253	0.241036
C42	C	1.178327	0.401626	-0.338978
C43	C	1.092323	0.471946	-0.423327
C44	C	1.006250	0.542240	-0.339014
C45	C	1.006181	0.542214	-0.170353
C46	C	1.092188	0.471891	-0.085995
C47	C	1.178261	0.401598	-0.170307
H48	H	1.092372	0.471968	-0.548189
H49	H	0.942582	0.594297	-0.401462
H50	H	0.942464	0.594250	-0.107939
H51	H	1.092139	0.471870	0.038867
H52	H	1.241929	0.349540	-0.107859
C53	C	1.137056	0.142370	0.278931
C54	C	1.124077	0.059791	0.388478
C55	C	1.196337	0.061229	0.534528
C56	C	1.281575	0.145246	0.571030
C57	C	1.294557	0.227832	0.461480
C58	C	1.222297	0.226394	0.315430
H59	H	1.060975	-0.002410	0.361460
H60	H	1.186726	0.000093	0.615623
H61	H	1.335066	0.146311	0.679144
H62	H	1.357659	0.290033	0.488498
H63	H	1.231908	0.287530	0.234334
H64	H	1.350911	-0.363707	0.000093
H65	H	1.342709	0.267457	-0.778131
C66	C	1.681575	-0.345884	0.000086
C67	C	1.696111	-0.237015	0.000063
C68	C	1.827943	-0.194037	0.000037
C69	C	1.945240	-0.259929	0.000035
C70	C	1.930708	-0.368805	0.000059
C71	C	1.798876	-0.411783	0.000085
H72	H	1.609277	-0.188232	0.000064
H73	H	1.838699	-0.113439	0.000019
H74	H	2.042830	-0.228114	0.000016
H75	H	2.017542	-0.417588	0.000057
H76	H	1.788120	-0.492381	0.000102
H77	H	1.200744	0.383378	-0.639080
H78	H	1.342579	0.267418	-0.221746
C79	C	1.663388	0.005418	-0.338874
C80	C	1.663404	0.005440	-0.170213
C81	C	1.749456	-0.064852	-0.085861
C82	C	1.835492	-0.135166	-0.170171
C83	C	1.835478	-0.135191	-0.338842
C84	C	1.749426	-0.064898	-0.423194
H85	H	1.599713	0.057493	-0.107793
H86	H	1.749466	-0.064834	0.039000
H87	H	1.899193	-0.187201	-0.107729
H88	H	1.899170	-0.187244	-0.401262
H89	H	1.749417	-0.064917	-0.548055
H90	H	1.237227	0.144381	-0.265544
H91	H	1.118082	0.142003	-0.506422
H92	H	0.879900	0.137254	-0.506390
H93	H	0.760856	0.134880	-0.265452
H94	H	1.641081	0.023684	-0.638968
