data_functionalizedCrystal
_audit_creation_method	'MofGen! by Chris Wilmer'
_symmetry_space_group_name_H-M	'P1'
_symmetry_Int_Tables_number	1
_symmetry_cell_setting	triclinic
loop_
_symmetry_equiv_pos_as_xyz
  x,y,z
_cell_length_a	18.050591
_cell_length_b	18.050590
_cell_length_c	12.759393
_cell_angle_alpha	90.035234
_cell_angle_beta	90.028291
_cell_angle_gamma	90.014558
loop_
_atom_site_label
_atom_site_type_symbol
_atom_site_fract_x
_atom_site_fract_y
_atom_site_fract_z
Zn1	Zn	1.135396	-0.295698	0.594209
Zn2	Zn	1.135312	-0.419908	0.418516
Zn3	Zn	1.011200	-0.295727	0.418520
Zn4	Zn	1.011185	-0.419843	0.594129
O5	O	1.073273	-0.357794	0.506343
O6	O	1.239310	-0.312190	0.570934
O7	O	1.118819	-0.403474	0.271495
O8	O	1.027716	-0.191799	0.441860
O9	O	1.239248	-0.403446	0.441854
O10	O	1.118963	-0.191778	0.570938
O11	O	1.027635	-0.312239	0.271498
O12	O	0.907273	-0.312176	0.441783
O13	O	1.027691	-0.403335	0.741161
O14	O	0.907262	-0.403363	0.570803
O15	O	1.118948	-0.312127	0.741219
O16	O	1.118805	-0.523824	0.441777
O17	O	1.027609	-0.523776	0.570799
C18	C	0.880321	-0.357766	0.506285
C19	C	0.797775	-0.357772	0.506285
C20	C	0.598309	-0.308127	0.436286
C21	C	0.548899	-0.375867	0.410430
C22	C	0.646645	-0.357795	0.506333
C23	C	0.548974	-0.290079	0.532186
C24	C	0.500660	-0.357811	0.506377
C25	C	0.598322	-0.425570	0.480427
C26	C	0.598401	-0.339736	0.602228
C27	C	0.549013	-0.407523	0.576408
C28	C	0.730743	-0.357785	0.506305
C29	C	0.416563	-0.357828	0.506405
C30	C	1.073216	-0.550746	0.506302
C31	C	1.073260	-0.633292	0.506319
C32	C	1.122955	-0.832741	0.436254
C33	C	1.141099	-0.882067	0.532145
C34	C	1.073302	-0.784422	0.506361
C35	C	1.055233	-0.882178	0.410513
C36	C	1.073344	-0.930407	0.506393
C37	C	1.091481	-0.832661	0.602302
C38	C	1.005583	-0.832767	0.480605
C39	C	1.023702	-0.882071	0.576562
C40	C	1.073279	-0.700324	0.506341
C41	C	1.073366	-1.014504	0.506423
C42	C	1.266979	-0.357822	0.506402
C43	C	1.349525	-0.357834	0.506427
C44	C	1.073327	-0.357721	0.780377
C45	C	1.073350	-0.357690	0.897154
C46	C	1.073351	-0.164088	0.506408
C47	C	1.073384	-0.081543	0.506436
C48	C	1.073262	-0.357813	0.233376
C49	C	1.073383	-0.357635	0.116600
C50	C	1.120887	-0.310162	1.061779
C51	C	1.120873	-0.310191	0.952055
C52	C	1.025844	-0.405168	0.951982
C53	C	1.025863	-0.405143	1.061704
H54	H	0.527156	-0.391153	0.329352
N55	N	0.626906	-0.501459	0.451361
H56	H	0.682857	-0.500979	0.451493
H57	H	0.608407	-0.515172	0.379195
H58	H	1.159581	-0.271478	1.106472
N59	N	0.968111	-0.910582	0.655208
H60	H	0.968120	-0.966532	0.654370
H61	H	0.917121	-0.891798	0.636350
N62	N	1.034951	-0.910991	0.303136
H63	H	1.076698	-0.942563	0.275179
H64	H	1.026188	-0.867872	0.254277
N65	N	0.974626	-0.456346	1.120851
H66	H	0.986134	-0.509415	1.101741
H67	H	0.921584	-0.444746	1.101725
N68	N	1.172112	-0.258990	0.892925
H69	H	1.202217	-0.228894	0.944354
H70	H	1.141890	-0.224629	0.847399
H71	H	1.198386	-0.903725	0.553950
H72	H	0.987154	-0.443846	0.907273
H73	H	0.619954	-0.266170	0.376986
H74	H	0.527504	-0.449580	0.635663
H75	H	0.527258	-0.232813	0.553999
H76	H	1.164960	-0.811081	0.377029
N77	N	0.627225	-0.319469	0.709595
H78	H	0.609307	-0.268275	0.729048
H79	H	0.683170	-0.320136	0.708869
N80	N	1.111834	-0.803982	0.709723
H81	H	1.111713	-0.748030	0.709041
H82	H	1.162823	-0.822404	0.729285
H83	H	0.948313	-0.811094	0.458772
