data_functionalizedCrystal
_audit_creation_method	'MofGen! by Chris Wilmer'
_symmetry_space_group_name_H-M	'P1'
_symmetry_Int_Tables_number	1
_symmetry_cell_setting	triclinic
loop_
_symmetry_equiv_pos_as_xyz
  x,y,z
_cell_length_a	16.625548
_cell_length_b	12.645330
_cell_length_c	16.625525
_cell_angle_alpha	89.911590
_cell_angle_beta	89.938871
_cell_angle_gamma	90.018760
loop_
_atom_site_label
_atom_site_type_symbol
_atom_site_fract_x
_atom_site_fract_y
_atom_site_fract_z
Zn1	Zn	1.233030	-0.421336	-0.455933
Zn2	Zn	1.232849	-0.598820	-0.321110
Zn3	Zn	1.098096	-0.421575	-0.321113
Zn4	Zn	1.098174	-0.598561	-0.455900
O5	O	1.165537	-0.510073	-0.388514
O6	O	1.345839	-0.444888	-0.438061
O7	O	1.214866	-0.575517	-0.208277
O8	O	1.116039	-0.273196	-0.339013
O9	O	1.345706	-0.575285	-0.339007
O10	O	1.215174	-0.273020	-0.438065
O11	O	1.115864	-0.445295	-0.208280
O12	O	0.985274	-0.445044	-0.338981
O13	O	1.116171	-0.574843	-0.568737
O14	O	0.985331	-0.575075	-0.438008
O15	O	1.215249	-0.444637	-0.568762
O16	O	1.214941	-0.747133	-0.338974
O17	O	1.115995	-0.746943	-0.438004
C18	C	0.956046	-0.510058	-0.388491
C19	C	0.866425	-0.510077	-0.388501
C20	C	0.538250	-0.510084	-0.388535
C21	C	0.629558	-0.510079	-0.388523
C22	C	0.702335	-0.510081	-0.388518
C23	C	0.793649	-0.510075	-0.388507
C24	C	1.165478	-0.785503	-0.388503
C25	C	1.165527	-0.903333	-0.388525
C26	C	1.103537	-1.070821	-0.451017
C27	C	1.103220	-0.948262	-0.450816
C28	C	1.142465	-0.948051	-0.303549
C29	C	1.142087	-1.070649	-0.303929
C30	C	1.250958	-1.070388	-0.410319
C31	C	1.250435	-0.947779	-0.412178
C32	C	1.375846	-0.510089	-0.388537
C33	C	1.465467	-0.510096	-0.388547
C34	C	1.165739	-0.509684	-0.598824
C35	C	1.165825	-0.509519	-0.688445
C36	C	1.165618	-0.233568	-0.388543
C37	C	1.165653	-0.115738	-0.388555
C38	C	1.165383	-0.510384	-0.179023
C39	C	1.165454	-0.510251	-0.089402
C40	C	1.165524	-0.510126	-0.016620
C41	C	1.165610	-0.509960	0.074689
C42	C	1.165675	-0.509822	0.147465
C43	C	1.165760	-0.509657	0.238779
H44	H	1.117656	-0.918015	-0.513824
H45	H	1.271984	-1.101143	-0.471230
H46	H	1.080755	-0.917469	-0.284779
H47	H	1.117841	-1.100140	-0.514232
N48	N	1.273480	-0.909048	-0.495014
H49	H	1.229112	-0.862901	-0.517133
H50	H	1.324900	-0.866758	-0.491547
H51	H	1.040693	-1.101744	-0.436782
H52	H	1.299156	-0.917189	-0.369997
N53	N	1.312263	-1.108864	-0.350062
H54	H	1.284958	-1.155442	-0.308863
H55	H	1.355305	-1.150645	-0.378814
H56	H	1.185363	-1.100376	-0.255803
H57	H	1.039980	-0.919049	-0.436397
N58	N	1.059488	-1.108703	-0.279504
H59	H	1.023665	-1.045837	-0.268594
H60	H	1.035704	-1.152479	-0.324333
N61	N	1.200485	-0.909527	-0.240213
H62	H	1.242377	-0.862602	-0.266056
H63	H	1.170142	-0.868100	-0.198085
