data_functionalizedCrystal
_audit_creation_method	'MofGen! by Chris Wilmer'
_symmetry_space_group_name_H-M	'P1'
_symmetry_Int_Tables_number	1
_symmetry_cell_setting	triclinic
loop_
_symmetry_equiv_pos_as_xyz
  x,y,z
_cell_length_a	14.519731
_cell_length_b	14.519731
_cell_length_c	13.596369
_cell_angle_alpha	89.993029
_cell_angle_beta	89.994584
_cell_angle_gamma	83.688853
loop_
_atom_site_label
_atom_site_type_symbol
_atom_site_fract_x
_atom_site_fract_y
_atom_site_fract_z
O1	O	1.223866	0.120985	-0.081796
O2	O	0.955392	0.135201	-0.081798
O3	O	1.096737	-0.006144	-0.081788
O4	O	1.082521	0.262330	-0.081806
O5	O	1.096723	-0.006151	0.081795
O6	O	0.955378	0.135194	0.081785
O7	O	1.223851	0.120978	0.081787
Zn8	Zn	1.089613	0.128084	0.107759
Zn9	Zn	1.089631	0.128094	-0.107769
O10	O	1.082507	0.262322	0.081777
C11	C	0.921026	0.134531	-0.000006
C12	C	0.818645	0.132535	-0.000007
C13	C	0.735501	0.130913	-0.000010
C14	C	0.631192	0.128887	-0.000011
C15	C	0.548053	0.127278	-0.000011
C16	C	0.443738	0.125252	-0.000013
C17	C	1.096064	-0.040507	0.000004
C18	C	1.094068	-0.142887	0.000005
C19	C	1.092446	-0.226031	0.000002
C20	C	1.090419	-0.330340	-0.000005
C21	C	1.088811	-0.413479	-0.000012
C22	C	1.086785	-0.517795	-0.000017
C23	C	1.258218	0.121648	-0.000006
C24	C	1.360598	0.123644	-0.000012
C25	C	1.083180	0.296685	-0.000017
C26	C	1.085176	0.399066	-0.000024
N27	N	1.089607	0.128077	0.254850
N28	N	1.089644	0.128094	-0.254861
C29	C	1.089630	0.128095	0.656141
C30	C	1.089621	0.128093	0.544490
C31	C	1.089619	0.128087	0.455499
C32	C	1.089609	0.128083	0.343841
