data_functionalizedCrystal
_audit_creation_method	'MofGen! by Chris Wilmer'
_symmetry_space_group_name_H-M	'P1'
_symmetry_Int_Tables_number	1
_symmetry_cell_setting	triclinic
loop_
_symmetry_equiv_pos_as_xyz
  x,y,z
_cell_length_a	14.560438
_cell_length_b	18.426585
_cell_length_c	14.560438
_cell_angle_alpha	89.999322
_cell_angle_beta	59.999883
_cell_angle_gamma	59.999005
loop_
_atom_site_label
_atom_site_type_symbol
_atom_site_fract_x
_atom_site_fract_y
_atom_site_fract_z
Zr1	Zr	1.005348	0.699074	-0.120550
O2	O	1.196952	0.583191	-0.267195
O3	O	0.813742	0.734603	-0.075595
O4	O	1.005353	0.734596	-0.267200
O5	O	1.005339	0.583198	0.075550
O6	O	1.005359	0.854022	-0.267203
O7	O	1.005341	0.583198	-0.075590
O8	O	0.662603	0.854035	0.075542
O9	O	1.348095	0.583185	-0.267195
O10	O	0.892558	0.838877	-0.056425
O11	O	0.892552	0.749751	0.056372
O12	O	1.118148	0.749742	-0.169218
O13	O	1.118142	0.660616	-0.056420
Zr14	Zr	1.005354	0.889545	0.120496
Zr15	Zr	1.005359	0.889545	-0.120556
Zr16	Zr	1.005344	0.699074	0.120502
Zr17	Zr	1.246404	0.699065	-0.120550
Zr18	Zr	0.764299	0.889554	0.120497
O19	O	1.196961	0.854016	0.075541
O20	O	1.196966	0.854015	-0.267204
O21	O	1.196946	0.583191	0.075550
O22	O	0.813751	1.005428	0.267141
O23	O	0.813757	1.005428	-0.075604
O24	O	0.813736	0.734604	0.267150
O25	O	1.005364	1.005421	-0.075604
O26	O	1.005350	0.854023	0.267146
O27	O	1.005344	0.734597	0.267150
O28	O	1.005361	1.005421	0.075537
O29	O	1.348103	0.734584	-0.267200
O30	O	0.662600	0.854035	0.267146
O31	O	0.662608	1.005434	0.267142
O32	O	0.662611	1.005434	0.075537
O33	O	1.348092	0.583185	-0.075591
O34	O	1.348100	0.734584	-0.075596
O35	O	0.892555	0.838877	0.169164
O36	O	0.892561	0.928003	0.056366
O37	O	1.118151	0.838869	-0.056426
O38	O	1.118144	0.749742	0.056372
C39	C	0.703827	0.794320	-0.000026
C40	C	0.601493	0.794324	-0.000026
C41	C	0.374002	0.860098	0.083239
C42	C	0.470143	0.860115	0.083238
C43	C	0.636701	0.728518	-0.083301
C44	C	0.540560	0.728505	-0.083304
C45	C	0.242652	0.925887	0.166516
C46	C	0.207436	0.991695	0.249790
C47	C	0.303578	0.991712	0.249789
C48	C	0.434935	0.925921	0.166513
C49	C	1.005339	0.556060	-0.000019
C50	C	1.005334	0.475200	-0.000017
C51	C	1.005373	0.179085	-0.000036
C52	C	1.005368	0.261471	-0.000034
C53	C	1.005354	0.327140	-0.000027
C54	C	1.005348	0.409532	-0.000023
C55	C	1.306875	0.794299	-0.000027
C56	C	1.409210	0.794295	-0.000027
C57	C	1.005357	0.794309	-0.301546
C58	C	1.005358	0.794309	-0.403879
C59	C	1.005364	1.032559	-0.000034
C60	C	1.005369	1.113419	-0.000037
C61	C	1.123112	0.747778	-0.510832
C62	C	1.123106	0.747781	-0.606981
C63	C	0.887582	0.840847	-0.489210
C64	C	0.887590	0.840849	-0.393064
C65	C	1.240880	0.701239	-0.521647
C66	C	1.358643	0.654704	-0.628604
C67	C	1.358637	0.654706	-0.724753
C68	C	1.240868	0.701244	-0.713944
C69	C	1.005346	0.794310	0.301493
C70	C	1.005345	0.794310	0.403826
C71	C	0.703840	1.032570	-0.000034
C72	C	0.601510	1.113433	-0.000037
C73	C	0.703822	0.794321	0.301493
C74	C	0.601486	0.794324	0.403826
C75	C	0.703835	1.032570	0.301485
C76	C	0.601503	1.113434	0.403816
C77	C	1.306868	0.556049	-0.301539
C78	C	1.409200	0.475185	-0.403869
C79	C	1.306863	0.556049	-0.000019
C80	C	1.409193	0.475186	-0.000017
C81	C	1.306881	0.794298	-0.301547
C82	C	1.409217	0.794295	-0.403880
C83	C	0.553453	1.104885	-0.058924
C84	C	0.457316	1.180857	-0.058949
C85	C	0.409232	1.265378	-0.000079
C86	C	0.457298	1.273925	0.058810
C87	C	0.553440	1.197953	0.058828
C88	C	0.553450	1.197939	0.392992
C89	C	0.457312	1.273926	0.489133
C90	C	0.409222	1.265406	0.596097
C91	C	0.457284	1.180892	0.606919
C92	C	0.553427	1.104907	0.510779
C93	C	1.457264	0.390680	-0.393046
C94	C	1.553432	0.314693	-0.489187
C95	C	1.601528	0.323213	-0.596151
C96	C	1.553459	0.407727	-0.606972
C97	C	1.457300	0.483712	-0.510832
C98	C	1.457260	0.483734	0.058860
C99	C	1.553423	0.407762	0.058859
C100	C	1.601511	0.323241	-0.000014
C101	C	1.553440	0.314695	-0.058899
C102	C	1.457285	0.390666	-0.058903
C103	C	0.553405	0.840851	0.510779
C104	C	0.457254	0.840847	0.606928
C105	C	0.457270	0.747790	0.489158
C106	C	0.553426	0.747789	0.393011
C107	C	0.601465	0.887386	0.521594
C108	C	0.553383	0.933917	0.628551
C109	C	0.457232	0.933913	0.724700
C110	C	0.409164	0.887379	0.713891
H111	H	0.164359	0.925880	0.166528
H112	H	0.418114	1.173968	0.694021
H113	H	0.592539	1.036102	0.519607
H114	H	1.418110	0.383726	-0.305959
F115	F	1.604569	0.224755	-0.477646
F116	F	0.604552	0.983431	0.640049
F117	F	0.578032	0.658474	-0.171930
H118	H	1.240899	0.701229	-0.443364
H119	H	1.679827	0.261334	-0.674425
F120	F	0.406106	1.363885	0.121463
H121	H	1.592546	0.414738	0.106814
H122	H	1.418166	0.552518	-0.519658
F123	F	1.604657	0.416781	-0.720820
F124	F	0.067642	1.061716	0.338405
F125	F	0.406174	1.171742	-0.121625
H126	H	0.592592	1.204893	0.305906
H127	H	1.418114	0.552548	0.106810
F128	F	0.266098	1.061754	0.338408
F129	F	1.703848	0.242393	0.000001
F130	F	0.306840	0.887370	0.816226
H131	H	1.592608	0.245868	-0.106832
F132	F	1.406132	0.381554	-0.121566
H133	H	0.513214	0.925945	0.166513
H134	H	0.592555	1.204926	0.106788
F135	F	0.306907	1.346226	-0.000107
H136	H	0.592573	0.709905	0.305924
H137	H	0.679753	0.887396	0.443311
H138	H	0.418124	0.709905	0.480368
F139	F	0.406174	1.363864	0.477593
H140	H	0.743655	0.674953	-0.151099
F141	F	1.483974	0.605186	-0.640103
F142	F	0.306895	1.346285	0.698410
F143	F	0.406073	0.983426	0.838529
H144	H	1.454525	0.616822	-0.811838
H145	H	0.791700	0.878734	-0.480420
F146	F	1.240867	0.701255	-0.816279
H147	H	0.791704	0.878736	-0.305977
H148	H	0.592603	1.036071	-0.106877
