data_functionalizedCrystal
_audit_creation_method	'MofGen! by Chris Wilmer'
_symmetry_space_group_name_H-M	'P1'
_symmetry_Int_Tables_number	1
_symmetry_cell_setting	triclinic
loop_
_symmetry_equiv_pos_as_xyz
  x,y,z
_cell_length_a	15.995292
_cell_length_b	15.995280
_cell_length_c	15.072220
_cell_angle_alpha	90.013217
_cell_angle_beta	90.002061
_cell_angle_gamma	96.533893
loop_
_atom_site_label
_atom_site_type_symbol
_atom_site_fract_x
_atom_site_fract_y
_atom_site_fract_z
O1	O	0.107643	-1.111010	-0.073791
O2	O	0.121033	-0.867224	-0.073789
O3	O	-0.007555	-0.995807	-0.073791
O4	O	0.236231	-0.982428	-0.073788
O5	O	-0.007548	-0.995775	0.073774
O6	O	0.121040	-0.867192	0.073777
O7	O	0.107650	-1.110978	0.073774
Zn8	Zn	0.114346	-0.989080	0.097205
Zn9	Zn	0.114337	-0.989122	-0.097219
O10	O	0.236238	-0.982396	0.073777
C11	C	0.120493	-0.836013	-0.000006
C12	C	0.118865	-0.743059	-0.000005
C13	C	0.112878	-0.405320	-0.000018
C14	C	0.205684	-0.428613	-0.000346
C15	C	0.207444	-0.525289	-0.000009
C16	C	0.115849	-0.572876	-0.000012
C17	C	0.069455	-0.543766	0.084251
C18	C	0.068342	-0.446975	0.084317
C19	C	0.066439	-0.447156	-0.083492
C20	C	0.069874	-0.543649	-0.084601
C21	C	0.117523	-0.667573	-0.000006
C22	C	0.111202	-0.310624	-0.000019
C23	C	-0.038747	-0.995246	-0.000011
C24	C	-0.131699	-0.993614	-0.000017
C25	C	-0.469436	-0.987612	-0.000009
C26	C	-0.446147	-1.080420	0.000320
C27	C	-0.349472	-1.082184	-0.000016
C28	C	-0.301881	-0.990590	-0.000013
C29	C	-0.330974	-0.944209	-0.084277
C30	C	-0.427765	-0.943092	-0.084344
C31	C	-0.427613	-0.941160	0.083465
C32	C	-0.331121	-0.944599	0.084576
C33	C	-0.207185	-0.992268	-0.000018
C34	C	-0.564131	-0.985931	-0.000010
C35	C	0.267430	-0.982956	-0.000005
C36	C	0.360382	-0.984589	-0.000005
N37	N	0.114352	-0.989058	0.229893
C38	C	0.108201	-0.142188	-0.000013
C39	C	0.109862	-0.235137	-0.000025
N40	N	0.114324	-0.989151	-0.229908
C41	C	0.114333	-0.989120	0.589095
C42	C	0.182907	-0.920088	0.551489
C43	C	0.183158	-0.920246	0.448664
C44	C	0.114343	-0.989089	0.410891
C45	C	0.133403	-1.076452	0.448182
C46	C	0.133890	-1.076066	0.551039
C47	C	0.026496	-0.971569	0.551194
C48	C	0.027082	-0.969564	0.448331
C49	C	0.114346	-0.989076	0.310177
C50	C	0.114332	-0.989139	0.689808
H51	H	0.095445	-0.418837	-0.147360
Cl52	Cl	0.263882	-0.553678	0.093414
H53	H	0.171742	-0.854938	0.576251
Cl54	Cl	-0.302458	-0.996733	0.180824
Cl55	Cl	-0.039029	-0.425579	-0.084375
H56	H	0.103653	-0.562225	-0.146939
H57	H	0.084785	-1.129048	0.423712
H58	H	-0.455706	-0.970374	0.147337
Cl59	Cl	0.260917	-0.385397	-0.093645
H60	H	-0.442298	-0.875045	-0.088159
Cl61	Cl	-0.489381	-1.135635	0.093618
H62	H	-0.298135	-0.877744	0.089667
H63	H	-0.330453	-1.118509	0.060386
H64	H	-0.441586	-0.872847	0.084035
Cl65	Cl	0.260618	-0.383779	0.092426
H66	H	0.003019	-0.576634	-0.089693
H67	H	0.012617	-0.905298	0.423959
H68	H	-0.475177	-1.116006	-0.059771
H69	H	0.100481	-0.420138	0.147308
H70	H	-0.310925	-0.976443	-0.146987
H71	H	-0.331080	-1.118750	-0.060526
Cl72	Cl	0.282984	-0.937159	0.591362
Cl73	Cl	-0.281744	-0.840150	-0.089119
H74	H	-0.454592	-0.975240	-0.147335
H75	H	0.171805	-0.855306	0.423453
H76	H	0.000297	-0.432438	0.088142
Cl77	Cl	0.283805	-0.937514	0.410656
H78	H	0.197949	-1.091535	0.575022
H79	H	0.101679	-0.563805	0.146962
H80	H	0.085912	-1.129038	0.575913
H81	H	0.196731	-1.092292	0.422413
Cl82	Cl	-0.001793	-0.875332	0.591290
H83	H	0.243773	-0.544321	-0.060414
Cl84	Cl	-0.055394	-1.042161	0.408652
Cl85	Cl	-0.034612	-0.592979	0.089084
Cl86	Cl	-0.052291	-1.049292	0.588739
