data_functionalizedCrystal
_audit_creation_method	'MofGen! by Chris Wilmer'
_symmetry_space_group_name_H-M	'P1'
_symmetry_Int_Tables_number	1
_symmetry_cell_setting	triclinic
loop_
_symmetry_equiv_pos_as_xyz
  x,y,z
_cell_length_a	14.044220
_cell_length_b	14.044220
_cell_length_c	13.101039
_cell_angle_alpha	93.667477
_cell_angle_beta	93.659868
_cell_angle_gamma	86.811122
loop_
_atom_site_label
_atom_site_type_symbol
_atom_site_fract_x
_atom_site_fract_y
_atom_site_fract_z
O1	O	1.281968	-0.225348	0.085109
O2	O	1.005298	-0.217041	0.085135
O3	O	1.139480	-0.082860	0.085112
O4	O	1.147787	-0.359530	0.085132
O5	O	1.129854	-0.092504	-0.085316
O6	O	0.995673	-0.226686	-0.085293
O7	O	1.272343	-0.234993	-0.085319
Zn8	Zn	1.132479	-0.232371	-0.112365
Zn9	Zn	1.145162	-0.219663	0.112181
O10	O	1.138161	-0.369175	-0.085296
C11	C	0.964864	-0.218228	-0.000076
C12	C	0.858722	-0.207383	-0.000066
C13	C	1.131031	-0.052060	-0.000102
C14	C	1.120187	0.054083	-0.000102
C15	C	0.664383	-0.187558	-0.000088
C16	C	0.613253	-0.264472	-0.000087
C17	C	0.505116	-0.253441	-0.000099
C18	C	0.772529	-0.198587	-0.000076
C19	C	1.312777	-0.233806	-0.000106
C20	C	1.418920	-0.244651	-0.000109
C21	C	1.146610	-0.399974	-0.000080
C22	C	1.157455	-0.506116	-0.000073
N23	N	1.123831	-0.241043	-0.265612
C24	C	1.100362	0.248421	-0.000086
C25	C	1.177276	0.299551	-0.000090
C26	C	1.166245	0.407688	-0.000080
C27	C	1.111391	0.140275	-0.000095
C28	C	1.112065	-0.252851	-0.474653
C29	C	1.165580	-0.199179	-0.525538
C30	C	1.159034	-0.205749	-0.641855
C31	C	1.118610	-0.246282	-0.358325
N32	N	1.153817	-0.210984	0.265428
H33	H	0.650693	-0.338605	-0.000077
O34	O	0.619692	-0.099131	0.000090
C35	C	0.567186	-0.083209	0.088340
H36	H	0.598517	-0.131561	0.150033
H37	H	0.571157	-0.005336	0.117972
H38	H	0.489429	-0.099852	0.068378
O39	O	1.011858	0.292928	-0.000034
C40	C	0.942503	0.224096	-0.000063
H41	H	0.976688	0.155959	0.032198
H42	H	0.882232	0.252992	0.049419
H43	H	0.912506	0.207677	-0.081826
O44	O	1.225901	-0.138367	-0.473143
C45	C	1.218941	-0.145105	-0.366987
H46	H	1.190856	-0.217315	-0.352388
H47	H	1.292507	-0.137923	-0.326018
H48	H	1.167832	-0.085527	-0.336714
O49	O	1.051629	-0.313540	-0.527047
C50	C	1.058460	-0.306661	-0.633201
H51	H	1.130483	-0.278109	-0.647720
H52	H	1.051820	-0.380343	-0.674064
H53	H	0.998602	-0.255970	-0.663659
H54	H	1.251413	0.262115	-0.000028
