data_functionalizedCrystal
_audit_creation_method	'MofGen! by Chris Wilmer'
_symmetry_space_group_name_H-M	'P1'
_symmetry_Int_Tables_number	1
_symmetry_cell_setting	triclinic
loop_
_symmetry_equiv_pos_as_xyz
  x,y,z
_cell_length_a	17.038272
_cell_length_b	11.026607
_cell_length_c	16.098678
_cell_angle_alpha	93.329063
_cell_angle_beta	92.926035
_cell_angle_gamma	80.151214
loop_
_atom_site_label
_atom_site_type_symbol
_atom_site_fract_x
_atom_site_fract_y
_atom_site_fract_z
O1	O	1.072281	-0.272531	-0.069144
O2	O	0.844051	-0.268286	-0.069168
O3	O	0.939251	-0.091803	-0.069155
O4	O	0.977081	-0.449014	-0.069157
O5	O	0.944780	-0.081526	0.069356
O6	O	0.849581	-0.258010	0.069343
O7	O	1.077811	-0.262254	0.069367
Zn8	Zn	0.964574	-0.258500	0.091346
Zn9	Zn	0.957288	-0.272040	-0.091148
O10	O	0.982611	-0.438738	0.069354
C11	C	0.817143	-0.259286	0.000084
C12	C	0.728726	-0.247765	0.000074
N13	N	0.969552	-0.249259	0.215894
C14	C	0.935036	-0.040733	0.000099
C15	C	0.914231	0.096128	0.000093
C16	C	0.693518	-0.353549	0.000074
C17	C	0.610442	-0.342715	0.000086
C18	C	0.562574	-0.226096	0.000091
C19	C	0.597788	-0.120304	0.000094
C20	C	0.680863	-0.131139	0.000088
C21	C	0.311424	-0.187818	0.000114
C22	C	0.228343	-0.176992	0.000117
C23	C	0.241003	-0.399404	0.000111
C24	C	0.324079	-0.410229	0.000100
C25	C	0.359285	-0.304436	0.000107
C26	C	0.477657	-0.215020	0.000101
C27	C	0.444202	-0.315514	0.000104
C28	C	1.104718	-0.271254	0.000113
C29	C	1.193135	-0.282776	0.000117
C30	C	0.986825	-0.489807	0.000098
C31	C	1.007630	-0.626669	0.000098
C32	C	0.971677	0.164004	0.000098
C33	C	0.950176	0.305458	0.000093
N34	N	0.952315	-0.281272	-0.215695
C35	C	0.929131	-0.324135	0.259494
C36	C	0.932636	-0.317668	0.346681
C37	C	0.976557	-0.236318	0.390268
C38	C	1.016983	-0.161439	0.346662
C39	C	1.013482	-0.167913	0.259475
C40	C	0.989240	-0.212867	0.653513
C41	C	0.992736	-0.206396	0.740705
C42	C	0.908390	-0.362628	0.740719
C43	C	0.904889	-0.369090	0.653531
C44	C	0.945318	-0.294215	0.609933
C45	C	0.980138	-0.229702	0.479387
C46	C	0.941741	-0.300838	0.520814
H47	H	0.732487	-0.448513	0.000069
H48	H	0.849131	0.142740	0.000081
C49	C	1.065296	-0.071951	0.394610
N50	N	1.101683	-0.004542	0.430723
C51	C	0.893428	-0.390319	0.472867
N52	N	0.857034	-0.457712	0.436745
C53	C	0.862222	0.368416	0.000085
N54	N	0.795976	0.415839	0.000081
H55	H	1.036778	0.117393	0.000111
H56	H	0.893362	-0.390374	0.224011
C57	C	1.028443	-0.140209	0.527341
N58	N	1.064826	-0.072801	0.563462
C59	C	0.856710	-0.458768	0.605593
N60	N	0.820469	-0.526380	0.569486
H61	H	0.899723	-0.378639	0.382180
C62	C	0.424994	-0.086742	0.000101
N63	N	0.385326	0.009877	0.000102
H64	H	1.028503	-0.140146	0.776189
C65	C	0.545131	0.007978	0.000101
N66	N	0.505470	0.104603	0.000104
H67	H	0.875475	-0.423588	0.776225
C68	C	0.571718	-0.459086	0.000101
N69	N	0.542552	-0.546741	0.000118
H70	H	1.046398	-0.106942	0.223977
H71	H	1.022158	-0.151899	0.618022
C72	C	0.376728	-0.538517	0.000107
N73	N	0.416384	-0.635146	0.000114
C74	C	0.202269	-0.515766	0.000113
N75	N	0.173095	-0.603415	0.000120
H76	H	0.340079	-0.101674	0.000120
C77	C	0.175690	-0.048697	0.000122
N78	N	0.136031	0.047930	0.000124
H79	H	0.483180	-0.410464	0.000104
C80	C	0.719591	-0.014768	0.000086
N81	N	0.748760	0.072887	0.000086
C82	C	1.095585	0.310375	0.000109
N83	N	1.161831	0.262955	0.000118
