data_functionalizedCrystal
_audit_creation_method	'MofGen! by Chris Wilmer'
_symmetry_space_group_name_H-M	'P1'
_symmetry_Int_Tables_number	1
_symmetry_cell_setting	triclinic
loop_
_symmetry_equiv_pos_as_xyz
  x,y,z
_cell_length_a	27.440280
_cell_length_b	12.970454
_cell_length_c	12.970454
_cell_angle_alpha	59.999776
_cell_angle_beta	90.003573
_cell_angle_gamma	59.998424
loop_
_atom_site_label
_atom_site_type_symbol
_atom_site_fract_x
_atom_site_fract_y
_atom_site_fract_z
Zr1	Zr	0.469502	1.128404	-0.135181
O2	O	0.391684	1.343513	-0.299826
O3	O	0.493357	0.913307	-0.084707
O4	O	0.493358	1.128397	-0.299798
O5	O	0.391682	1.128424	0.084931
O6	O	0.573561	1.128377	-0.299777
O7	O	0.391683	1.128423	-0.084735
O8	O	0.573560	0.743621	0.084981
O9	O	0.391684	1.513180	-0.299827
O10	O	0.563386	1.001760	-0.063166
O11	O	0.503531	1.001776	0.063438
O12	O	0.503532	1.255016	-0.189803
O13	O	0.443677	1.255031	-0.063199
Zr14	Zr	0.597415	1.128374	0.135452
Zr15	Zr	0.597416	1.128372	-0.135147
Zr16	Zr	0.469501	1.128405	0.135418
Zr17	Zr	0.469502	1.399004	-0.135182
Zr18	Zr	0.597415	0.857774	0.135453
O19	O	0.573560	1.343470	0.084978
O20	O	0.573561	1.343468	-0.299778
O21	O	0.391682	1.343515	0.084930
O22	O	0.675234	0.913264	0.300097
O23	O	0.675235	0.913262	-0.084659
O24	O	0.493356	0.913309	0.300049
O25	O	0.675235	1.128353	-0.084660
O26	O	0.573559	1.128380	0.300069
O27	O	0.493356	1.128400	0.300048
O28	O	0.675234	1.128354	0.085006
O29	O	0.493358	1.513155	-0.299800
O30	O	0.573559	0.743622	0.300071
O31	O	0.675234	0.743597	0.300098
O32	O	0.675234	0.743596	0.085008
O33	O	0.391683	1.513182	-0.084737
O34	O	0.493358	1.513156	-0.084710
O35	O	0.563385	1.001761	0.190075
O36	O	0.623240	1.001746	0.063470
O37	O	0.563386	1.255002	-0.063167
O38	O	0.503531	1.255017	0.063437
C39	C	0.533459	0.789909	0.000137
C40	C	0.533459	0.675033	0.000138
C41	C	0.373457	1.128428	0.000093
C42	C	0.319155	1.128442	0.000079
C43	C	0.013700	0.996168	0.066274
C44	C	-0.037318	0.996160	0.066285
O45	O	-0.037135	0.883731	0.122542
N46	N	-0.094078	1.128355	0.000180
C47	C	-0.099819	1.260567	-0.065929
O48	O	-0.152782	1.373009	-0.122154
C49	C	-0.048801	1.260574	-0.065932
C50	C	0.007958	1.128370	0.000166
C51	C	0.070457	0.863974	0.132368
C52	C	0.121472	0.863983	0.132355
C53	C	0.115730	0.996185	0.066247
C54	C	0.058973	1.128378	0.000153
C55	C	-0.054543	1.392784	-0.132034
C56	C	-0.003518	1.392780	-0.132030
C57	C	0.053241	1.260575	-0.065932
C58	C	0.104246	1.260589	-0.065968
N59	N	0.161006	1.128393	0.000136
C60	C	0.166748	0.996191	0.066244
C61	C	-0.206958	1.260543	-0.065916
C62	C	-0.257975	1.260539	-0.065921
C63	C	-0.195471	0.996130	0.066295
C64	C	-0.144453	0.996137	0.066292
C65	C	-0.150198	1.128348	0.000189
C66	C	0.273880	0.996219	0.066210
C67	C	0.324897	0.996240	0.066187
C68	C	0.262388	1.260647	-0.066024
C69	C	0.211376	1.260628	-0.066007
C70	C	0.217126	1.128402	0.000120
O71	O	0.104109	1.372960	-0.122192
O72	O	0.219713	0.883768	0.122473
C73	C	0.693460	1.128349	0.000178
C74	C	0.747763	1.128336	0.000192
C75	C	0.533460	1.128387	-0.338342
C76	C	0.533460	1.128386	-0.453218
C77	C	0.533459	1.466868	0.000134
C78	C	0.533459	1.581745	0.000133
C79	C	0.533457	1.128390	0.338613
C80	C	0.533457	1.128391	0.453489
C81	C	0.693460	0.789870	0.000180
C82	C	0.747763	0.674980	0.000195
C83	C	0.533457	0.789911	0.338615
C84	C	0.533457	0.675035	0.453492
C85	C	0.693459	0.789872	0.338657
C86	C	0.747761	0.674982	0.453548
C87	C	0.373459	1.466906	-0.338386
C88	C	0.319156	1.581795	-0.453277
C89	C	0.373458	1.466908	0.000091
C90	C	0.319155	1.581798	0.000077
C91	C	0.533460	1.466866	-0.338344
C92	C	0.533460	1.581742	-0.453220
C93	C	0.742021	0.621033	-0.065912
C94	C	0.793039	0.513097	-0.065924
C95	C	0.849799	0.459101	0.000180
C96	C	0.855540	0.513058	0.066289
C97	C	0.804522	0.621000	0.066293
C98	C	0.804511	0.621021	0.441416
C99	C	0.855539	0.513085	0.549358
C100	C	0.849816	0.459105	0.669431
C101	C	0.793060	0.513077	0.681561
C102	C	0.742033	0.621018	0.573620
C103	C	0.262406	1.635770	-0.441145
C104	C	0.211378	1.743739	-0.549087
C105	C	0.217102	1.797725	-0.669160
C106	C	0.273858	1.743746	-0.681290
C107	C	0.324884	1.635786	-0.573349
C108	C	0.324897	1.635755	0.066172
C109	C	0.273878	1.743722	0.066154
C110	C	0.217118	1.797721	0.000046
C111	C	0.211377	1.743759	-0.066058
C112	C	0.262395	1.635802	-0.066046
H113	H	0.371112	0.888579	0.120016
H114	H	0.371109	1.591797	0.120014
H115	H	0.788408	0.469110	0.779339
C116	C	0.256081	1.406058	-0.138801
H117	H	0.294596	1.387117	-0.129345
H118	H	0.234880	1.460328	-0.225752
H119	H	0.234884	1.460429	-0.106199
H120	H	0.278511	1.787715	-0.779066
C121	C	0.256072	1.576442	-0.138738
H122	H	0.214960	1.624059	-0.178094
H123	H	0.274674	1.594111	-0.201286
H124	H	0.274670	1.474531	-0.081668
C125	C	0.148940	1.803158	-0.138760
H126	H	0.119383	1.875167	-0.129280
H127	H	0.144453	1.845274	-0.225722
H128	H	0.144461	1.725669	-0.106102
C129	C	0.076780	0.718543	0.205092
H130	H	0.038272	0.737447	0.195647
H131	H	0.097983	0.664231	0.172452
H132	H	0.097985	0.664232	0.292055
H133	H	0.695826	0.664940	0.583516
H134	H	0.165170	1.787671	-0.539186
C135	C	0.679590	0.680418	-0.138635
H136	H	0.650022	0.752426	-0.129167
H137	H	0.675116	0.722533	-0.225592
H138	H	0.675115	0.602924	-0.105994
C139	C	0.160969	1.916459	-0.787884
H140	H	0.126353	1.940850	-0.763450
H141	H	0.160955	2.000689	-0.836730
H142	H	0.160964	1.881063	-0.836704
C143	C	-0.189161	0.850709	0.139031
H144	H	-0.227677	0.869650	0.129574
H145	H	-0.167963	0.796372	0.106409
H146	H	-0.167961	0.796404	0.225995
H147	H	0.891336	0.371206	0.000169
C148	C	0.917977	0.453641	0.139009
H149	H	0.947534	0.381617	0.129545
H150	H	0.922465	0.531106	0.106390
H151	H	0.922455	0.411507	0.225976
H152	H	0.371091	1.591841	-0.583242
H153	H	0.809205	0.664909	0.120132
C154	C	0.810819	0.680384	0.309350
H155	H	0.851928	0.632786	0.317603
H156	H	0.792218	0.662694	0.264487
H157	H	0.792212	0.782299	0.264495
H158	H	0.278571	0.888549	0.120058
H159	H	0.278564	1.787639	0.119988
H160	H	-0.304187	1.368192	-0.119762
H161	H	-0.100751	1.500440	-0.185857
C162	C	0.183901	0.718557	0.205078
H163	H	0.180005	0.639833	0.244456
H164	H	0.205106	0.713044	0.148039
H165	H	0.205102	0.713063	0.267633
C166	C	-0.082023	0.850714	0.139015
H167	H	-0.085916	0.771986	0.178390
H168	H	-0.060817	0.845206	0.081976
H169	H	-0.060823	0.845221	0.201572
C170	C	0.917963	0.453721	0.535994
H171	H	0.914059	0.501315	0.449021
H172	H	0.939171	0.471412	0.575337
H173	H	0.939165	0.351804	0.575360
C174	C	0.905948	0.340360	0.788155
H175	H	0.940564	0.315950	0.763721
H176	H	0.905960	0.375722	0.836995
H177	H	0.905956	0.256131	0.836981
H178	H	0.175581	1.885627	0.000047
H179	H	0.257734	1.591821	-0.343385
H180	H	-0.211644	1.368212	-0.119752
H181	H	-0.008203	1.500445	-0.185845
H182	H	0.165159	1.368279	-0.119846
H183	H	0.788353	0.469178	-0.119757
