data_functionalizedCrystal
_audit_creation_method	'MofGen! by Chris Wilmer'
_symmetry_space_group_name_H-M	'P1'
_symmetry_Int_Tables_number	1
_symmetry_cell_setting	triclinic
loop_
_symmetry_equiv_pos_as_xyz
  x,y,z
_cell_length_a	12.811457
_cell_length_b	15.995350
_cell_length_c	11.892095
_cell_angle_alpha	93.891441
_cell_angle_beta	91.498327
_cell_angle_gamma	83.769027
loop_
_atom_site_label
_atom_site_type_symbol
_atom_site_fract_x
_atom_site_fract_y
_atom_site_fract_z
O1	O	1.389202	0.115514	0.048418
O2	O	1.085841	0.126016	0.017317
O3	O	1.245814	-0.001045	0.033719
O4	O	1.229229	0.242575	0.032017
O5	O	1.232476	0.009532	0.220359
O6	O	1.072503	0.136593	0.203957
O7	O	1.375863	0.126092	0.235058
Zn8	Zn	1.222066	0.133022	0.249141
Zn9	Zn	1.239639	0.119085	0.003235
O10	O	1.215891	0.253153	0.218657
C11	C	1.040353	0.130392	0.106657
C12	C	0.924683	0.127663	0.094799
C13	C	0.692785	0.134051	0.276012
C14	C	0.584102	0.131487	0.264875
C15	C	0.598634	0.119963	0.061389
C16	C	0.707317	0.122528	0.072526
C17	C	0.754388	0.129573	0.179841
C18	C	0.863071	0.132143	0.190977
C19	C	0.877602	0.120614	-0.012508
C20	C	0.768920	0.118050	-0.023645
C21	C	1.238459	-0.026958	0.126967
C22	C	1.236404	-0.119928	0.126750
C23	C	1.229022	-0.457744	0.125997
C24	C	1.115122	-0.411395	0.113898
C25	C	1.117148	-0.314662	0.114529
C26	C	1.232684	-0.290149	0.126369
C27	C	1.281261	-0.324663	0.238709
C28	C	1.278393	-0.421321	0.238505
C29	C	1.295914	-0.433685	0.026502
C30	C	1.295988	-0.336820	0.025090
C31	C	1.234759	-0.195432	0.126585
C32	C	1.226949	-0.552461	0.125789
C33	C	1.421352	0.121715	0.145716
C34	C	1.537023	0.124444	0.157567
C35	C	1.223246	0.279065	0.125407
C36	C	1.225301	0.372035	0.125616
N37	N	1.210080	0.142533	0.416966
N38	N	1.251633	0.109568	-0.164590
C39	C	1.335037	0.043339	0.666426
C40	C	1.326667	0.049994	0.783909
C41	C	1.184964	0.162491	0.769419
C42	C	1.193334	0.155836	0.651935
C43	C	1.268375	0.096260	0.600443
C44	C	1.276749	0.089610	0.482958
C45	C	1.135042	0.202103	0.468469
C46	C	1.126672	0.208757	0.585953
H47	H	0.560292	0.114213	-0.025981
H48	H	1.396145	-0.005165	0.624501
H49	H	1.067210	-0.282874	0.186500
H50	H	0.927771	0.116973	-0.090818
N51	N	1.254226	-0.467410	-0.085564
H52	H	1.310817	-0.507144	-0.124359
H53	H	1.191539	-0.498591	-0.072876
H54	H	1.365859	-0.309522	0.251372
N55	N	1.104047	0.226752	0.824972
H56	H	1.063086	0.259273	0.765348
H57	H	1.054508	0.197013	0.869007
N58	N	1.216562	-0.440087	0.338467
H59	H	1.154044	-0.469785	0.311253
H60	H	1.262866	-0.477400	0.388836
H61	H	1.065572	0.257261	0.627891
N62	N	0.718139	0.110447	-0.139381
H63	H	0.664921	0.160918	-0.149397
H64	H	0.773721	0.107973	-0.198548
N65	N	0.743554	0.141656	0.391754
H66	H	0.796771	0.091186	0.401780
H67	H	0.779813	0.194801	0.399966
N68	N	0.517659	0.136312	0.368603
H69	H	0.564067	0.140590	0.438278
H70	H	0.464265	0.187610	0.367938
N71	N	1.063126	0.259176	0.397298
H72	H	1.014320	0.297924	0.447749
H73	H	1.106485	0.293822	0.352633
H74	H	1.361693	-0.452516	0.251913
H75	H	1.260537	-0.314423	-0.057966
H76	H	0.901394	0.137885	0.278358
N77	N	1.065868	-0.283285	0.007336
H78	H	1.041740	-0.332312	-0.040753
H79	H	1.003453	-0.241045	0.026670
N80	N	1.062026	-0.442239	0.006480
H81	H	1.111284	-0.486558	-0.035386
H82	H	0.996145	-0.467326	0.025442
N83	N	1.398576	-0.007076	0.855080
H84	H	1.388042	-0.067780	0.833408
H85	H	1.473946	0.002208	0.842160
N86	N	1.047868	-0.432195	0.208413
H87	H	1.090860	-0.471510	0.259034
H88	H	1.021754	-0.378604	0.253591
N89	N	1.222074	-0.281591	0.338479
H90	H	1.163787	-0.239719	0.311153
H91	H	1.191151	-0.325120	0.381330
N92	N	1.407251	-0.474766	0.036961
H93	H	1.457139	-0.429874	0.044588
H94	H	1.414269	-0.508800	0.105770
N95	N	1.408206	-0.315928	0.028000
H96	H	1.422795	-0.288735	-0.043349
H97	H	1.419574	-0.275760	0.095358
N98	N	1.357685	0.025359	0.427415
H99	H	1.398642	-0.007157	0.487046
H100	H	1.321268	-0.014805	0.374588
