data_functionalizedCrystal
_audit_creation_method	'MofGen! by Chris Wilmer'
_symmetry_space_group_name_H-M	'P1'
_symmetry_Int_Tables_number	1
_symmetry_cell_setting	triclinic
loop_
_symmetry_equiv_pos_as_xyz
  x,y,z
_cell_length_a	12.759393
_cell_length_b	19.805407
_cell_length_c	19.805405
_cell_angle_alpha	89.974605
_cell_angle_beta	89.962372
_cell_angle_gamma	90.024124
loop_
_atom_site_label
_atom_site_type_symbol
_atom_site_fract_x
_atom_site_fract_y
_atom_site_fract_z
Zn1	Zn	-0.594095	-1.034756	-0.269442
Zn2	Zn	-0.418396	-1.034665	-0.382646
Zn3	Zn	-0.418417	-0.921565	-0.269475
Zn4	Zn	-0.594021	-0.921534	-0.382592
O5	O	-0.506232	-0.978130	-0.326039
O6	O	-0.570810	-1.129461	-0.284467
O7	O	-0.271378	-1.019636	-0.367671
O8	O	-0.441761	-0.936631	-0.174754
O9	O	-0.441726	-1.129394	-0.367638
O10	O	-0.570830	-1.019792	-0.174729
O11	O	-0.271393	-0.936542	-0.284524
O12	O	-0.441689	-0.826844	-0.284471
O13	O	-0.741052	-0.936579	-0.367546
O14	O	-0.570704	-0.826822	-0.367578
O15	O	-0.741106	-1.019762	-0.284415
O16	O	-0.441654	-1.019607	-0.477356
O17	O	-0.570684	-0.936490	-0.477316
C18	C	-0.506191	-0.802274	-0.326023
C19	C	-0.506198	-0.727042	-0.326032
C20	C	-0.780266	-0.978177	-0.325970
C21	C	-0.897042	-0.978198	-0.325941
C22	C	-0.573266	-0.691704	-0.369370
C23	C	-0.573278	-0.621015	-0.369370
C24	C	-0.506216	-0.585666	-0.326035
C25	C	-0.439145	-0.621009	-0.282692
C26	C	-0.439139	-0.691697	-0.282689
C27	C	-0.439168	-0.335936	-0.282702
C28	C	-0.439177	-0.265244	-0.282709
C29	C	-0.573307	-0.265255	-0.369383
C30	C	-0.573302	-0.335942	-0.369380
C31	C	-0.506235	-0.371279	-0.326035
C32	C	-0.506224	-0.447927	-0.326035
C33	C	-0.506221	-0.509019	-0.326038
C34	C	-0.951935	-1.021517	-0.282651
C35	C	-1.061659	-1.021533	-0.282626
C36	C	-1.061589	-0.934908	-0.369189
C37	C	-0.951867	-0.934889	-0.369209
C38	C	-0.897110	-1.064826	-0.239383
C39	C	-0.952002	-1.108149	-0.196089
C40	C	-1.061727	-1.108165	-0.196065
C41	C	-1.116559	-1.064858	-0.239334
C42	C	-0.233265	-0.978122	-0.326058
C43	C	-0.116489	-0.978233	-0.325896
C44	C	-0.506181	-0.978054	-0.501895
C45	C	-0.506195	-0.978083	-0.577127
C46	C	-0.506264	-0.154673	-0.326051
C47	C	-0.506251	-0.229905	-0.326045
C48	C	-0.439079	-1.021404	-0.612469
C49	C	-0.439102	-1.021433	-0.683158
C50	C	-0.506237	-0.978137	-0.718502
C51	C	-0.573360	-0.934814	-0.683155
C52	C	-0.573341	-0.934789	-0.612468
C53	C	-0.573438	-0.934914	-0.968228
C54	C	-0.573449	-0.934941	-1.038920
C55	C	-0.439199	-1.021557	-1.038918
C56	C	-0.439180	-1.021533	-0.968231
C57	C	-0.506307	-0.978213	-0.932890
C58	C	-0.506282	-0.978183	-0.856241
C59	C	-0.506257	-0.978163	-0.795149
C60	C	-0.506306	-0.978225	-0.149496
C61	C	-0.506338	-0.978265	-0.074264
H62	H	-0.627873	-0.720480	-0.404661
O63	O	-0.638545	-0.370175	-0.411497
C64	C	-0.771552	-0.362723	-0.497494
C65	C	-0.697730	-0.323873	-0.449822
H66	H	-0.819406	-0.325305	-0.528501
H67	H	-0.826641	-0.395827	-0.466489
H68	H	-0.723198	-0.395808	-0.532818
H69	H	-0.745999	-0.290752	-0.414487
H70	H	-0.642638	-0.290811	-0.480868
H71	H	-0.384567	-0.236465	-0.247416
O72	O	-1.115012	-0.892911	-0.411201
C73	C	-1.284016	-0.854529	-0.449508
C74	C	-1.223648	-0.902133	-0.401903
H75	H	-1.371859	-0.861958	-0.441998
H76	H	-1.262491	-0.866384	-0.504105
H77	H	-1.262378	-0.799960	-0.437630
H78	H	-1.245254	-0.956718	-0.413720
H79	H	-1.245178	-0.890220	-0.347320
H80	H	-0.384531	-0.720468	-0.247395
O81	O	-0.373820	-1.063558	-0.933973
C82	C	-0.195151	-1.096446	-0.912379
C83	C	-0.269050	-1.048818	-0.951229
H84	H	-0.110428	-1.084537	-0.926306
H85	H	-0.213603	-1.151033	-0.926238
H86	H	-0.206721	-1.088999	-0.855790
H87	H	-0.257522	-1.056205	-1.007827
H88	H	-0.250580	-0.994249	-0.937314
O89	O	-0.898858	-1.150307	-0.154091
C90	C	-0.865284	-1.265455	-0.121282
C91	C	-0.925551	-1.217788	-0.168877
H92	H	-0.886827	-1.320024	-0.133228
H93	H	-0.886901	-1.253658	-0.066687
H94	H	-0.777439	-1.257968	-0.128724
H95	H	-1.013410	-1.225249	-0.161495
H96	H	-0.903847	-1.229597	-0.223454
O97	O	-0.898700	-0.892802	-0.411339
C98	C	-0.910200	-0.806885	-0.497196
C99	C	-0.970542	-0.854520	-0.449524
H100	H	-0.968258	-0.775911	-0.528071
H101	H	-0.858861	-0.837916	-0.532639
H102	H	-0.858797	-0.771527	-0.466131
H103	H	-1.022002	-0.889888	-0.480535
H104	H	-1.021815	-0.823446	-0.414080
H105	H	-0.384551	-0.364699	-0.247412
O106	O	-0.638660	-0.892761	-0.934008
C107	C	-0.771842	-0.806861	-0.941476
C108	C	-0.698018	-0.854560	-0.980318
H109	H	-0.819869	-0.775973	-0.978901
H110	H	-0.723586	-0.771431	-0.908458
H111	H	-0.826780	-0.837906	-0.908307
H112	H	-0.643066	-0.823569	-1.013524
H113	H	-0.746340	-0.889991	-1.013293
H114	H	-0.628126	-0.899685	-1.067696
H115	H	-0.628026	-0.899565	-0.711938
O116	O	-0.374039	-0.586569	-0.240655
C117	C	-0.314652	-0.477669	-0.202211
C118	C	-0.388421	-0.516586	-0.249864
H119	H	-0.326270	-0.421082	-0.209629
H120	H	-0.229876	-0.491486	-0.214029
H121	H	-0.333252	-0.491637	-0.147656
H122	H	-0.369917	-0.502640	-0.304435
H123	H	-0.473176	-0.502767	-0.237988
H124	H	-0.627995	-0.899514	-0.583692
O125	O	-1.115213	-1.150178	-0.154029
C126	C	-1.284274	-1.188620	-0.115650
C127	C	-1.223835	-1.140994	-0.163280
H128	H	-1.372106	-1.181221	-0.123123
H129	H	-1.262799	-1.176759	-0.061062
H130	H	-1.262649	-1.243181	-0.127539
H131	H	-1.245427	-1.086417	-0.151453
H132	H	-1.245315	-1.152913	-0.217854
H133	H	-0.384406	-1.056658	-0.583696
H134	H	-0.627891	-0.592246	-0.404661
O135	O	-0.373803	-1.063534	-0.717384
C136	C	-0.240675	-1.149470	-0.709923
C137	C	-0.314557	-1.101811	-0.671078
H138	H	-0.192771	-1.180440	-0.672500
H139	H	-0.185635	-1.118457	-0.743054
H140	H	-0.288986	-1.184831	-0.742979
H141	H	-0.266331	-1.066441	-0.637984
H142	H	-0.369600	-1.132866	-0.637989
H143	H	-0.807767	-1.064819	-0.239399
H144	H	-0.384545	-1.056833	-1.067701
O145	O	-0.638433	-0.230823	-0.411421
C146	C	-0.697854	-0.121932	-0.449872
C147	C	-0.624071	-0.160838	-0.402219
H148	H	-0.686252	-0.065342	-0.442458
H149	H	-0.782626	-0.135813	-0.438050
H150	H	-0.679255	-0.135843	-0.504427
H151	H	-0.642575	-0.146948	-0.347648
H152	H	-0.539321	-0.146953	-0.414098
H153	H	-1.205903	-1.064867	-0.239303
