data_functionalizedCrystal
_audit_creation_method	'MofGen! by Chris Wilmer'
_symmetry_space_group_name_H-M	'P1'
_symmetry_Int_Tables_number	1
_symmetry_cell_setting	triclinic
loop_
_symmetry_equiv_pos_as_xyz
  x,y,z
_cell_length_a	10.654550
_cell_length_b	10.654550
_cell_length_c	9.130313
_cell_angle_alpha	89.996647
_cell_angle_beta	89.999724
_cell_angle_gamma	84.484917
loop_
_atom_site_label
_atom_site_type_symbol
_atom_site_fract_x
_atom_site_fract_y
_atom_site_fract_z
O1	O	1.667839	0.176399	-0.121686
O2	O	1.302361	0.193205	-0.121712
O3	O	1.493503	0.002063	-0.121693
O4	O	1.476697	0.367541	-0.121705
O5	O	1.493490	0.002057	0.121906
O6	O	1.302348	0.193199	0.121886
O7	O	1.667826	0.176393	0.121913
Cu8	Cu	1.485086	0.184796	0.144142
Cu9	Cu	1.485101	0.184802	-0.143942
O10	O	1.476684	0.367535	0.121894
C11	C	1.255556	0.191968	0.000084
C12	C	1.116113	0.188276	0.000073
C13	C	1.036627	0.300818	0.000074
C14	C	0.905607	0.297341	0.000100
C15	C	0.933570	0.068772	0.000118
C16	C	1.064588	0.072250	0.000103
C17	C	1.492263	-0.044738	0.000104
C18	C	1.488571	-0.184181	0.000099
C19	C	1.601112	-0.263667	0.000112
C20	C	1.597636	-0.394688	0.000101
C21	C	1.369066	-0.366725	0.000072
C22	C	1.372544	-0.235706	0.000072
C23	C	1.717139	-0.212142	0.000139
C24	C	1.829690	-0.291629	0.000153
C25	C	1.826213	-0.422650	0.000143
C26	C	1.710186	-0.474184	0.000118
C27	C	1.714631	0.177630	0.000114
C28	C	1.854074	0.181322	0.000114
C29	C	1.477924	0.414336	0.000093
C30	C	1.481616	0.553779	0.000089
N31	N	1.485084	0.184790	0.346765
N32	N	1.485113	0.184798	-0.346564
C33	C	1.569751	0.100188	0.423425
C34	C	1.569763	0.100189	0.576762
C35	C	1.400437	0.269404	0.576765
C36	C	1.400420	0.269396	0.423431
H37	H	1.719983	-0.105460	0.000152
H38	H	1.924155	-0.249661	0.000137
H39	H	1.078574	0.395294	0.000061
C40	C	1.079080	-0.154041	0.000106
C41	C	1.151970	-0.051466	0.000096
H42	H	1.133028	-0.230411	0.000096
H43	H	1.027406	-0.150647	0.085054
H44	H	1.027387	-0.150637	-0.084843
H45	H	1.203657	-0.054865	0.085051
H46	H	1.203666	-0.054861	-0.084861
H47	H	1.638704	0.031297	0.639175
H48	H	0.840894	0.388984	0.000103
C49	C	2.052491	-0.437124	0.000183
C50	C	1.949924	-0.510024	0.000156
H51	H	2.128866	-0.491066	0.000206
H52	H	2.049105	-0.385439	-0.084759
H53	H	2.049071	-0.385442	0.085139
H54	H	1.953339	-0.561699	-0.084805
H55	H	1.953312	-0.561731	0.085107
C56	C	0.802448	-0.067738	-0.125091
C57	C	0.876929	-0.058761	0.000131
H58	H	0.767490	-0.146477	-0.125088
H59	H	0.736363	-0.001218	-0.125078
H60	H	0.852989	-0.061627	-0.210032
H61	H	0.826387	-0.064862	0.085073
H62	H	0.943024	-0.125299	0.000131
C63	C	1.183668	0.341117	0.624016
C64	C	1.307383	0.362400	0.661047
H65	H	1.126223	0.398527	0.676056
H66	H	1.171546	0.353228	0.521738
H67	H	1.169331	0.257164	0.649165
H68	H	1.321724	0.446351	0.635888
H69	H	1.319511	0.350300	0.763348
C70	C	1.262250	-0.555154	0.000075
C71	C	1.241536	-0.423369	0.000063
H72	H	1.183515	-0.590120	0.000083
H73	H	1.308632	-0.582359	-0.084865
H74	H	1.308637	-0.582357	0.085032
H75	H	1.195157	-0.396165	-0.084900
H76	H	1.195135	-0.396153	0.085012
C77	C	1.328545	0.486139	0.376185
C78	C	1.307351	0.362402	0.339153
H79	H	1.271093	0.543550	0.324148
H80	H	1.316434	0.498248	0.478464
H81	H	1.412480	0.500542	0.351033
H82	H	1.223419	0.347997	0.364315
H83	H	1.319452	0.350289	0.236852
C84	C	1.767436	-0.669469	-0.125125
C85	C	1.706364	-0.618205	0.000097
H86	H	1.765082	-0.758380	-0.125126
H87	H	1.726015	-0.634659	-0.210056
H88	H	1.852640	-0.650150	-0.125099
H89	H	1.621157	-0.637517	0.000067
H90	H	1.747782	-0.653027	0.085051
C91	C	1.276398	-0.022446	0.000057
C92	C	1.248839	-0.148324	0.000061
H93	H	1.200024	0.031499	0.000037
H94	H	1.323909	-0.006730	0.085005
H95	H	1.323934	-0.006733	-0.084892
H96	H	1.201310	-0.164039	0.085016
H97	H	1.201308	-0.164045	-0.084896
H98	H	1.638687	0.031295	0.361008
