data_functionalizedCrystal
_audit_creation_method	'MofGen! by Chris Wilmer'
_symmetry_space_group_name_H-M	'P1'
_symmetry_Int_Tables_number	1
_symmetry_cell_setting	triclinic
loop_
_symmetry_equiv_pos_as_xyz
  x,y,z
_cell_length_a	13.635800
_cell_length_b	11.102308
_cell_length_c	19.551833
_cell_angle_alpha	85.477843
_cell_angle_beta	101.663477
_cell_angle_gamma	71.393826
loop_
_atom_site_label
_atom_site_type_symbol
_atom_site_fract_x
_atom_site_fract_y
_atom_site_fract_z
V1	V	2.016326	-0.177172	0.217858
O2	O	1.996592	0.007143	0.213711
O3	O	2.004985	-0.349983	0.216367
O4	O	1.987515	-0.175048	0.312873
O5	O	2.014183	-0.169003	0.116537
V6	V	2.257071	-0.155054	0.205739
O7	O	2.149184	-0.225687	0.244441
O8	O	2.349311	-0.106538	0.179156
O9	O	2.156808	0.017757	0.207229
O10	O	2.335503	-0.339369	0.209886
O11	O	2.317912	-0.163223	0.307059
O12	O	2.174278	-0.157178	0.110724
V13	V	2.516326	-0.177172	0.217858
O14	O	2.496592	0.007143	0.213711
O15	O	2.504985	-0.349983	0.216367
O16	O	2.487515	-0.175048	0.312873
O17	O	2.514183	-0.169003	0.116537
V18	V	2.757071	-0.155054	0.205739
O19	O	2.649184	-0.225687	0.244441
O20	O	2.849311	-0.106538	0.179156
O21	O	2.656808	0.017757	0.207229
O22	O	2.835503	-0.339369	0.209886
O23	O	2.817912	-0.163223	0.307059
O24	O	2.674278	-0.157178	0.110724
C25	C	1.930763	-0.392092	0.212930
C26	C	1.962103	-0.533371	0.212345
C27	C	2.144862	-0.546379	0.219311
C28	C	2.250959	-0.619254	0.222516
C29	C	2.280400	-0.751997	0.221967
C30	C	2.203735	-0.811869	0.218214
C31	C	2.097637	-0.738994	0.215009
C32	C	2.068205	-0.606248	0.215556
C33	C	1.914883	-0.725988	0.208048
C34	C	1.885438	-0.593243	0.208592
C35	C	1.838217	-0.785860	0.204295
C36	C	1.732116	-0.712983	0.201084
C37	C	1.702677	-0.580231	0.201633
C38	C	1.779340	-0.520368	0.205387
C39	C	1.908477	-0.168943	0.336032
C40	C	1.925648	-0.168350	0.413708
C41	C	2.062702	0.059859	0.210664
C42	C	2.020981	0.201137	0.211254
C43	C	2.084987	-0.163287	0.087561
C44	C	2.057436	-0.163873	0.009884
C45	C	2.430763	-0.392092	0.212930
C46	C	2.462103	-0.533371	0.212345
C47	C	2.408477	-0.168943	0.336032
C48	C	2.425648	-0.168350	0.413708
C49	C	2.025077	-0.174451	0.453755
C50	C	2.041211	-0.173894	0.526740
C51	C	1.957917	-0.167262	0.559676
C52	C	1.858472	-0.161153	0.519619
C53	C	1.842338	-0.161697	0.446635
C54	C	1.931658	-0.236365	0.678988
C55	C	1.947797	-0.235829	0.751971
C56	C	2.007675	-0.165577	0.784783
C57	C	2.051432	-0.095880	0.744604
C58	C	2.035298	-0.096424	0.671619
C59	C	1.975401	-0.166670	0.638815
C60	C	2.124603	-0.171073	0.903968
C61	C	2.140732	-0.170508	0.976953
C62	C	1.957994	-0.157779	0.969832
C63	C	1.941865	-0.158332	0.896847
C64	C	2.025175	-0.164985	0.863921
C65	C	2.562702	0.059859	0.210664
C66	C	2.520981	0.201137	0.211254
C67	C	2.584987	-0.163287	0.087561
C68	C	2.557436	-0.163873	0.009884
C69	C	2.525081	-0.174430	0.453746
C70	C	2.541225	-0.173856	0.526730
C71	C	2.457937	-0.167212	0.559674
C72	C	2.358495	-0.161128	0.519630
C73	C	2.342350	-0.161692	0.446647
C74	C	2.458491	-0.170503	-0.023042
C75	C	2.432585	-0.171039	-0.096028
C76	C	2.505627	-0.164954	-0.136085
C77	C	2.604578	-0.158320	-0.103155
C78	C	2.630480	-0.157775	-0.030171
C79	C	2.425093	-0.496311	0.084365
C80	C	2.421310	-0.544153	0.020103
C81	C	2.450760	-0.676898	0.019557
C82	C	2.484000	-0.761806	0.083280
C83	C	2.487783	-0.713964	0.147543
C84	C	2.458327	-0.581213	0.148082
C85	C	2.524800	-0.751024	0.275521
C86	C	2.495343	-0.618279	0.276068
C87	C	2.558039	-0.835932	0.339244
C88	C	2.561816	-0.788090	0.403508
C89	C	2.532362	-0.655336	0.404051
C90	C	2.499126	-0.570437	0.340331
H91	H	2.120895	-0.438290	0.219748
Cl92	Cl	2.090302	-0.008807	0.621111
H93	H	1.669706	-0.761743	0.198034
Cl94	Cl	2.166216	-0.181557	0.577094
Cl95	Cl	2.388050	-0.329427	0.085046
Cl96	Cl	2.666245	-0.181516	0.577058
H97	H	1.882887	-0.293564	0.652278
Cl98	Cl	1.742340	-0.353489	0.206074
Cl99	Cl	2.347332	-0.543981	0.227237
H100	H	2.092915	-0.179863	0.426950
Cl101	Cl	2.473049	-0.165647	-0.227836
Cl102	Cl	2.126716	-0.007565	0.785844
H103	H	2.507991	-0.869893	0.082830
Cl104	Cl	2.217343	-0.154066	0.396322
Cl105	Cl	2.696396	-0.150686	-0.153522
H106	H	2.582025	-0.944019	0.338795
Cl107	Cl	2.240754	-0.978752	0.217537
H108	H	2.399003	-0.175458	0.009564
Cl109	Cl	2.754883	-0.149460	0.011214
H110	H	2.535458	-0.616393	0.456382
Cl111	Cl	2.462093	-0.403553	0.341008
H112	H	2.366794	-0.811333	0.224581
Cl113	Cl	2.478252	-0.166509	0.651427
H114	H	1.862198	-0.893948	0.203853
Cl115	Cl	1.569294	-0.488630	0.197609
H116	H	2.290687	-0.155719	0.546464
H117	H	2.352009	-0.176441	-0.122829
H118	H	2.394247	-0.475007	-0.031779
Cl119	Cl	2.229330	-0.179425	0.862570
H120	H	2.447682	-0.715850	-0.032771
H121	H	1.912173	-0.292589	0.784681
Cl122	Cl	2.603609	-0.894834	0.483608
H123	H	2.221698	-0.175467	1.009558
Cl124	Cl	1.853273	-0.149417	1.011229
Cl125	Cl	1.816867	-0.150683	0.846501
H126	H	1.790654	-0.155749	0.546440
H127	H	1.761368	-0.156719	0.414027
H128	H	2.592911	-0.179844	0.426934
