data_functionalizedCrystal
_audit_creation_method	'MofGen! by Chris Wilmer'
_symmetry_space_group_name_H-M	'P1'
_symmetry_Int_Tables_number	1
_symmetry_cell_setting	triclinic
loop_
_symmetry_equiv_pos_as_xyz
  x,y,z
_cell_length_a	10.540558
_cell_length_b	9.198806
_cell_length_c	10.723024
_cell_angle_alpha	90.002264
_cell_angle_beta	95.499497
_cell_angle_gamma	89.997603
loop_
_atom_site_label
_atom_site_type_symbol
_atom_site_fract_x
_atom_site_fract_y
_atom_site_fract_z
O1	O	-1.685782	0.120845	0.175973
O2	O	-1.316363	0.120857	0.192519
O3	O	-1.509594	0.120846	0.002675
O4	O	-1.492551	0.120857	0.365817
O5	O	-1.509579	-0.120939	0.002673
O6	O	-1.316349	-0.120928	0.192517
O7	O	-1.685767	-0.120940	0.175972
Cu8	Cu	-1.501057	-0.143011	0.184244
Cu9	Cu	-1.501074	0.142928	0.184246
O10	O	-1.492537	-0.120928	0.365816
C11	C	-1.269054	-0.000034	0.191272
C12	C	-1.128109	-0.000029	0.187545
N13	N	-1.501054	-0.344125	0.184242
C14	C	-1.582386	-0.583730	0.104359
C15	C	-1.582370	-0.416318	0.104361
C16	C	-0.944757	-0.000601	0.045075
C17	C	-1.091372	-0.000039	0.048854
C18	C	-1.066411	0.138038	0.254285
C19	C	-0.919870	0.138136	0.249542
C20	C	-0.919364	-0.136819	0.252362
C21	C	-1.066344	-0.138626	0.253649
C22	C	-0.733079	-0.000049	0.177202
C23	C	-0.874030	-0.000056	0.180879
C24	C	-1.508346	-0.000045	-0.043827
C25	C	-1.504636	-0.000040	-0.182383
N26	N	-1.501087	0.344042	0.184238
C27	C	-1.612757	-0.000041	-0.257305
C28	C	-1.608925	-0.000036	-0.400510
C29	C	-1.493784	-0.000034	0.412317
C30	C	-1.497495	-0.000030	0.550873
H31	H	-1.652008	-0.645830	0.035974
H32	H	-1.431442	-0.406228	0.252629
H33	H	-1.107325	-0.240768	0.204893
H34	H	-1.651969	-0.354206	0.035968
O35	O	-1.739142	-0.000047	-0.201855
H36	H	-1.722319	-0.000059	-0.098077
H37	H	-0.871850	0.144405	0.349282
O38	O	-1.146729	0.131290	-0.021181
H39	H	-1.068761	0.194654	-0.057873
H40	H	-1.431475	-0.593856	0.252632
O41	O	-1.098363	-0.149687	0.387588
H42	H	-1.159060	-0.056148	0.409233
H43	H	-1.134007	-0.099011	-0.003660
O44	O	-1.731541	-0.000053	-0.485779
H45	H	-1.787648	0.098484	-0.467492
O46	O	-0.906925	-0.131756	-0.027514
H47	H	-0.837300	-0.197954	0.032416
H48	H	-0.891692	0.241340	0.200212
O49	O	-1.374870	-0.000037	-0.363872
H50	H	-1.371004	0.098512	-0.303898
O51	O	-0.904787	0.129804	-0.027216
H52	H	-0.834770	0.195008	0.033159
H53	H	-1.088712	0.143178	0.356136
H54	H	-0.887835	-0.241474	0.207476
O55	O	-1.122838	0.274155	0.192875
H56	H	-1.194807	0.243820	0.114832
O57	O	-0.856730	-0.138080	0.385045
H58	H	-0.793612	-0.041830	0.400067
H59	H	-1.409232	-0.000027	-0.224259
