data_functionalizedCrystal
_audit_creation_method	'MofGen! by Chris Wilmer'
_symmetry_space_group_name_H-M	'P1'
_symmetry_Int_Tables_number	1
_symmetry_cell_setting	triclinic
loop_
_symmetry_equiv_pos_as_xyz
  x,y,z
_cell_length_a	27.732048
_cell_length_b	8.559649
_cell_length_c	26.809956
_cell_angle_alpha	89.992585
_cell_angle_beta	90.000636
_cell_angle_gamma	103.789340
loop_
_atom_site_label
_atom_site_type_symbol
_atom_site_fract_x
_atom_site_fract_y
_atom_site_fract_z
O1	O	-0.016420	-2.120546	0.041470
O2	O	0.008566	-1.654725	0.041475
O3	O	-0.074828	-1.902103	0.041463
O4	O	0.066974	-1.873168	0.041482
O5	O	-0.074815	-1.902056	-0.041497
O6	O	0.008579	-1.654679	-0.041484
O7	O	-0.016407	-2.120499	-0.041490
Zn8	Zn	-0.003912	-1.887582	-0.054659
Zn9	Zn	-0.003929	-1.887643	0.054644
O10	O	0.066987	-1.873122	-0.041477
C11	C	0.010466	-1.595125	-0.000004
C12	C	0.016102	-1.417606	-0.000003
C13	C	-0.092808	-1.901472	-0.000018
C14	C	-0.146399	-1.899643	-0.000022
C15	C	-0.018307	-2.180099	-0.000009
C16	C	-0.023943	-2.357619	-0.000008
C17	C	-0.489909	-2.034313	0.000002
C18	C	-0.691332	-2.027528	0.000009
O19	O	-0.726881	-2.150674	0.000029
N20	N	-0.705342	-1.880843	0.000010
C21	C	-0.668992	-1.735844	0.000012
O22	O	-0.685530	-1.610924	0.000019
C23	C	-0.467570	-1.742632	0.000009
C24	C	-0.453563	-1.889326	0.000003
C25	C	-0.475902	-2.180996	-0.000004
C26	C	-0.425549	-2.182691	-0.000008
C27	C	-0.389203	-2.037703	-0.000007
C28	C	-0.403211	-1.891021	-0.000002
C29	C	-0.431221	-1.597635	0.000015
C30	C	-0.380863	-1.599345	0.000016
C31	C	-0.366857	-1.746039	0.000009
C32	C	-0.316512	-1.747728	-0.000005
N33	N	-0.302503	-1.894413	-0.000006
C34	C	-0.338848	-2.039400	-0.000007
C35	C	-0.774742	-1.732291	0.000013
C36	C	-0.825097	-1.730594	0.000013
C37	C	-0.847434	-2.022278	0.000010
C38	C	-0.797078	-2.023973	0.000007
C39	C	-0.760732	-1.878976	0.000012
C40	C	-0.233103	-2.042949	-0.000017
C41	C	-0.182744	-2.044631	-0.000024
C42	C	-0.160412	-1.752948	-0.000018
C43	C	-0.210766	-1.751265	-0.000014
C44	C	-0.247111	-1.896278	-0.000012
O45	O	-0.280937	-1.624648	-0.000020
O46	O	-0.322300	-2.164302	-0.000002
C47	C	-0.540262	-2.032619	0.000006
C48	C	-0.554269	-1.885936	0.000012
C49	C	-0.517924	-1.740949	0.000013
C50	C	-0.604624	-1.884239	0.000012
C51	C	-0.640970	-2.029226	0.000011
C52	C	-0.626960	-2.175911	0.000009
C53	C	-0.576607	-2.177606	0.000005
C54	C	-0.531933	-1.594264	0.000014
C55	C	-0.582287	-1.592581	0.000018
C56	C	-0.618633	-1.737568	0.000017
C57	C	0.084966	-1.873752	0.000005
C58	C	0.138557	-1.875581	0.000012
N59	N	-0.003901	-1.887551	-0.129255
C60	C	-0.040848	-1.997168	-0.473886
C61	C	-0.040856	-1.997206	-0.682764
O62	O	-0.072264	-2.090341	-0.709772
N63	N	-0.003940	-1.887652	-0.708882
C64	C	0.032979	-1.778074	-0.682777
O65	O	0.064375	-1.684881	-0.709785
C66	C	0.032985	-1.778029	-0.473900
C67	C	-0.003931	-1.887601	-0.447785
C68	C	-0.077760	-2.106729	-0.447771
C69	C	-0.077756	-2.106725	-0.395554
C70	C	-0.040839	-1.997158	-0.369453
C71	C	-0.003927	-1.887596	-0.395569
C72	C	0.069901	-1.668445	-0.447797
C73	C	0.069899	-1.668441	-0.395574
C74	C	0.032983	-1.778013	-0.369459
C75	C	0.032995	-1.778025	-0.317251
N76	N	-0.003921	-1.887579	-0.291133
C77	C	-0.040838	-1.997145	-0.317234
C78	C	0.032973	-1.778107	-0.792440
C79	C	0.032972	-1.778119	-0.844659
C80	C	-0.040863	-1.997250	-0.844642
C81	C	-0.040860	-1.997244	-0.792422
C82	C	-0.003943	-1.887661	-0.766322
C83	C	-0.040827	-1.997128	-0.207576
C84	C	-0.040818	-1.997118	-0.155356
C85	C	0.033016	-1.777982	-0.155377
C86	C	0.033009	-1.777997	-0.207593
C87	C	-0.003917	-1.887576	-0.233692
O88	O	0.064383	-1.684927	-0.290211
O89	O	-0.072236	-2.090300	-0.290218
C90	C	-0.040852	-1.997173	-0.526102
C91	C	-0.003939	-1.887611	-0.552218
C92	C	0.032978	-1.778044	-0.526117
C93	C	-0.003940	-1.887624	-0.604437
C94	C	-0.040857	-1.997190	-0.630538
C95	C	-0.077773	-2.106744	-0.604420
C96	C	-0.077769	-2.106739	-0.552203
C97	C	0.069894	-1.668490	-0.552235
C98	C	0.069887	-1.668505	-0.604451
C99	C	0.032970	-1.778072	-0.630552
N100	N	-0.003945	-1.887686	0.129240
H101	H	-0.171344	-2.164092	-0.000030
O102	O	-0.496677	-1.453309	0.000079
C103	C	-0.502180	-1.364210	0.043051
H104	H	-0.541914	-1.404474	0.057380
H105	H	-0.493693	-1.230733	0.033385
H106	H	-0.475381	-1.385371	0.073133
H107	H	0.099953	-1.579282	-0.625710
H108	H	-0.442615	-1.478181	0.000023
H109	H	-0.062540	-1.442068	-0.000010
H110	H	-0.505491	-2.299069	-0.000003
H111	H	-0.107825	-2.195952	-0.469018
H112	H	0.054701	-1.333147	0.000005
O113	O	-0.783498	-2.166511	0.000094
C114	C	-0.802614	-2.254851	0.043052
H115	H	-0.809921	-2.169062	0.073082
H116	H	-0.774570	-2.322138	0.057475
H117	H	-0.838809	-2.344786	0.033336
H118	H	-0.070920	-2.086465	-0.771162
H119	H	0.063074	-1.688779	-0.134117
O120	O	-0.076743	-2.103249	-0.129964
C121	C	-0.103422	-2.018181	-0.099816
H122	H	-0.079483	-1.892651	-0.091967
H123	H	-0.113628	-2.085119	-0.063105
H124	H	-0.138729	-2.007985	-0.119995
H125	H	-0.070895	-2.086355	-0.228820
O126	O	-0.113669	-2.213212	-0.370267
C127	C	-0.146243	-2.309929	-0.404511
H128	H	-0.144360	-2.244369	-0.441737
H129	H	-0.185784	-2.335279	-0.389428
H130	H	-0.134925	-2.428344	-0.410059
O131	O	0.105808	-1.561996	-0.526962
C132	C	0.138378	-1.465286	-0.561217
H133	H	0.136492	-1.530855	-0.598436
H134	H	0.177921	-1.439931	-0.546139
H135	H	0.127059	-1.346874	-0.566776
H136	H	-0.070922	-2.086466	-0.865902
O137	O	-0.411887	-2.325092	0.000059
C138	C	-0.383442	-2.334849	0.043031
H139	H	-0.366193	-2.208489	0.057353
H140	H	-0.352765	-2.397790	0.033370
H141	H	-0.408365	-2.406157	0.073118
O142	O	-0.662290	-2.316712	0.000098
C143	C	-0.692089	-2.324438	0.043060
H144	H	-0.670570	-2.242208	0.073088
H145	H	-0.702545	-2.453410	0.057483
H146	H	-0.727249	-2.283947	0.033349
O147	O	-0.595950	-1.450170	0.000091
C148	C	-0.624393	-1.440474	0.043068
H149	H	-0.641638	-1.566853	0.057386
H150	H	-0.655073	-1.377531	0.033414
H151	H	-0.599469	-1.369197	0.073154
H152	H	0.063073	-1.688790	-0.228857
O153	O	-0.268340	-2.183959	-0.000039
C154	C	-0.245169	-2.313772	-0.000033
H155	H	-0.206000	-2.272192	-0.015739
H156	H	-0.267525	-2.415271	-0.024120
H157	H	-0.243245	-2.358822	0.039765
O158	O	0.068859	-1.671538	-0.869947
C159	C	0.101446	-1.574861	-0.835706
H160	H	0.081675	-1.573555	-0.798483
H161	H	0.113545	-1.446961	-0.850797
H162	H	0.135470	-1.625890	-0.830148
H163	H	-0.745152	-1.614209	0.000017
H164	H	0.099961	-1.579221	-0.469052
H165	H	0.063037	-1.688869	-0.771193
O166	O	0.105812	-1.561931	-0.370299
C167	C	0.138383	-1.465207	-0.404551
H168	H	0.136503	-1.530770	-0.441770
H169	H	0.177924	-1.439840	-0.389469
H170	H	0.127060	-1.346802	-0.410110
H171	H	-0.107829	-2.195962	-0.530944
O172	O	-0.882808	-2.162975	0.000036
C173	C	-0.930254	-2.130001	0.000025
H174	H	-0.927525	-2.004429	0.015726
H175	H	-0.956527	-2.222485	0.024116
H176	H	-0.945076	-2.136428	-0.039773
H177	H	-0.107831	-2.195963	-0.625680
H178	H	-0.836496	-1.611141	0.000010
H179	H	-0.351272	-1.481267	0.000021
H180	H	-0.222170	-1.631814	-0.000023
H181	H	-0.565209	-2.297060	0.000000
O182	O	-0.125038	-1.612260	0.000006
C183	C	-0.077592	-1.645231	-0.000009
H184	H	-0.080320	-1.770816	0.015691
H185	H	-0.051319	-1.552766	0.024080
H186	H	-0.062772	-1.638770	-0.039809
