data_functionalizedCrystal
_audit_creation_method	'MofGen! by Chris Wilmer'
_symmetry_space_group_name_H-M	'P1'
_symmetry_Int_Tables_number	1
_symmetry_cell_setting	triclinic
loop_
_symmetry_equiv_pos_as_xyz
  x,y,z
_cell_length_a	14.044191
_cell_length_b	14.044220
_cell_length_c	12.503572
_cell_angle_alpha	93.843168
_cell_angle_beta	86.162165
_cell_angle_gamma	93.190327
loop_
_atom_site_label
_atom_site_type_symbol
_atom_site_fract_x
_atom_site_fract_y
_atom_site_fract_z
O1	O	1.282208	0.225145	-0.089273
O2	O	1.782208	0.725145	0.410727
O3	O	1.005536	0.216832	-0.089287
O4	O	1.505536	0.716832	0.410713
O5	O	1.139719	0.082653	-0.089269
O6	O	1.639719	0.582653	0.410731
O7	O	1.148026	0.359324	-0.089290
O8	O	1.648026	0.859324	0.410710
O9	O	1.129629	0.092762	0.089371
O10	O	1.629629	0.592762	0.589371
O11	O	0.995447	0.226941	0.089354
O12	O	1.495447	0.726941	0.589354
O13	O	1.272118	0.235254	0.089368
O14	O	1.772118	0.735254	0.589368
Cu15	Cu	1.132861	0.232021	0.105672
Cu16	Cu	1.632861	0.732021	0.605672
Cu17	Cu	1.144794	0.220065	-0.105591
Cu18	Cu	1.644794	0.720065	0.394409
O19	O	1.137936	0.369433	0.089350
O20	O	1.637936	0.869433	0.589350
C21	C	0.964870	0.218250	0.000032
C22	C	1.464870	0.718250	0.500032
C23	C	0.858727	0.207402	0.000027
C24	C	1.358727	0.707402	0.500027
C25	C	0.613268	0.264503	0.000034
C26	C	1.113268	0.764503	0.500034
C27	C	0.664393	0.187587	0.000038
C28	C	1.164393	0.687587	0.500038
C29	C	0.772531	0.198615	0.000032
C30	C	1.272531	0.698615	0.500032
C31	C	0.505121	0.253477	0.000040
C32	C	1.005121	0.753477	0.500040
C33	C	1.131038	0.052086	0.000051
C34	C	1.631038	0.552086	0.500051
C35	C	1.120194	-0.054057	0.000052
C36	C	1.620194	0.445943	0.500052
C37	C	1.100368	-0.248396	0.000036
C38	C	1.600368	0.251604	0.500036
C39	C	1.177283	-0.299524	0.000036
C40	C	1.677283	0.200476	0.500036
C41	C	1.166252	-0.407661	0.000027
C42	C	1.666252	0.092339	0.500027
C43	C	1.111398	-0.140249	0.000045
C44	C	1.611398	0.359751	0.500045
C45	C	1.312785	0.233836	0.000046
C46	C	1.812785	0.733836	0.500046
C47	C	1.418929	0.244683	0.000044
C48	C	1.918929	0.744683	0.500044
C49	C	1.146617	0.400000	0.000027
C50	C	1.646617	0.900000	0.500027
C51	C	1.157462	0.506143	0.000020
C52	C	1.657462	1.006143	0.500020
N53	N	1.124476	0.240429	0.254263
N54	N	1.624476	0.740429	0.754263
N55	N	1.153186	0.211650	-0.254182
N56	N	1.653186	0.711650	0.245818
C57	C	1.112141	0.252807	0.473377
C58	C	1.612141	0.752807	0.973377
C59	C	1.165518	0.199275	0.526711
C60	C	1.665518	0.699275	1.026711
C61	C	1.158655	0.206162	0.648633
C62	C	1.658655	0.706162	1.148633
C63	C	1.119003	0.245921	0.351444
C64	C	1.619003	0.745921	0.851444
H65	H	0.650710	0.338629	0.000025
H66	H	1.150710	0.838629	0.500025
H67	H	1.026241	-0.285835	0.000029
H68	H	1.526241	0.214165	0.500029
O69	O	0.614805	0.089386	0.000049
O70	O	1.114805	0.589386	0.500049
H71	H	0.639926	0.045942	-0.072757
H72	H	1.139926	0.545942	0.427243
O73	O	1.275485	-0.249940	0.000060
O74	O	1.775485	0.250060	0.500060
H75	H	1.268854	-0.171554	0.000078
H76	H	1.768854	0.328446	0.500078
O77	O	1.232883	0.131714	0.465917
O78	O	1.732883	0.631714	0.965917
H79	H	1.227779	0.136840	0.378306
H80	H	1.727779	0.636840	0.878306
O81	O	1.044793	0.320376	0.534171
O82	O	1.544793	0.820376	1.034171
H83	H	1.049915	0.315258	0.621780
H84	H	1.549915	0.815258	1.121780
