data_functionalizedCrystal
_audit_creation_method	'MofGen! by Chris Wilmer'
_symmetry_space_group_name_H-M	'P1'
_symmetry_Int_Tables_number	1
_symmetry_cell_setting	triclinic
loop_
_symmetry_equiv_pos_as_xyz
  x,y,z
_cell_length_a	18.878441
_cell_length_b	14.560432
_cell_length_c	18.878441
_cell_angle_alpha	60.000239
_cell_angle_beta	89.999852
_cell_angle_gamma	60.000055
loop_
_atom_site_label
_atom_site_type_symbol
_atom_site_fract_x
_atom_site_fract_y
_atom_site_fract_z
Zr1	Zr	0.682389	1.005281	-0.092933
O2	O	0.569285	1.196883	-0.206037
O3	O	0.717062	0.813680	-0.058263
O4	O	0.717063	1.005283	-0.206039
O5	O	0.569283	1.005277	0.058309
O6	O	0.833633	1.005284	-0.206038
O7	O	0.569284	1.005279	-0.058261
O8	O	0.833631	0.662540	0.058306
O9	O	0.569285	1.348021	-0.206034
O10	O	0.818844	0.892488	-0.043473
O11	O	0.731849	0.892486	0.043521
O12	O	0.731850	1.118074	-0.130465
O13	O	0.644854	1.118072	-0.043471
Zr14	Zr	0.868303	1.005278	0.092985
Zr15	Zr	0.868304	1.005282	-0.092931
Zr16	Zr	0.682388	1.005277	0.092984
Zr17	Zr	0.682389	1.246328	-0.092929
Zr18	Zr	0.868303	0.764231	0.092981
O19	O	0.833630	1.196880	0.058316
O20	O	0.833632	1.196884	-0.206034
O21	O	0.569283	1.196878	0.058313
O22	O	0.981407	0.813676	0.206089
O23	O	0.981409	0.813681	-0.058261
O24	O	0.717060	0.813675	0.206086
O25	O	0.981409	1.005282	-0.058257
O26	O	0.833629	1.005276	0.206091
O27	O	0.717060	1.005275	0.206090
O28	O	0.981408	1.005280	0.058314
O29	O	0.717062	1.348022	-0.206033
O30	O	0.833630	0.662537	0.206085
O31	O	0.981408	0.662538	0.206086
O32	O	0.981409	0.662541	0.058307
O33	O	0.569283	1.348018	-0.058255
O34	O	0.717061	1.348019	-0.058254
O35	O	0.818843	0.892485	0.130518
O36	O	0.905838	0.892487	0.043523
O37	O	0.818844	1.118073	-0.043469
O38	O	0.731848	1.118071	0.043525
C39	C	0.775347	0.703766	0.000021
C40	C	0.775347	0.601435	0.000019
C41	C	0.542795	1.005278	0.000024
C42	C	0.463869	1.005278	0.000023
C43	C	0.426789	1.005282	-0.064199
C44	C	0.352633	1.005275	-0.064195
C45	C	0.315553	1.005273	0.000027
C46	C	0.352639	1.005264	0.064255
C47	C	0.426798	1.005262	0.064255
C48	C	0.198068	1.005272	0.064251
C49	C	0.123903	1.005277	0.064251
C50	C	0.123902	1.005285	-0.064199
C51	C	0.198061	1.005283	-0.064200
C52	C	0.235141	1.005277	0.000028
C53	C	0.866162	0.601431	-0.090813
C54	C	0.911566	0.553357	-0.136230
C55	C	0.911563	0.457208	-0.136228
C56	C	0.866155	0.409127	-0.090802
C57	C	0.820751	0.457200	-0.045385
C58	C	0.820756	0.553355	-0.045394
C59	C	0.729942	0.457198	0.045450
C60	C	0.729938	0.553354	0.045445
C61	C	0.684533	0.409117	0.090876
C62	C	0.639124	0.457197	0.136289
C63	C	0.639127	0.553353	0.136285
C64	C	0.684535	0.601427	0.090862
C65	C	1.007898	1.005281	0.000028
C66	C	1.086823	1.005281	0.000029
C67	C	0.775348	1.005284	-0.232528
C68	C	0.775349	1.005285	-0.311454
C69	C	0.775346	1.306793	0.000032
C70	C	0.775345	1.409124	0.000033
C71	C	0.839568	1.005288	-0.348533
C72	C	0.839570	1.005278	-0.422689
C73	C	0.775350	1.005274	-0.459767
C74	C	0.711127	1.005268	-0.422681
C75	C	0.711129	1.005269	-0.348524
C76	C	0.711127	1.005270	-0.577251
C77	C	0.711125	1.005271	-0.651415
C78	C	0.839569	1.005278	-0.651416
C79	C	0.839570	1.005279	-0.577258
C80	C	0.775347	1.005275	-0.540178
C81	C	0.775344	1.005275	0.232580
C82	C	0.775344	1.005274	0.311506
C83	C	1.007898	0.703767	0.000023
C84	C	1.086824	0.601436	0.000022
C85	C	0.775345	0.703761	0.232574
C86	C	0.775344	0.601429	0.311499
C87	C	1.007896	0.703763	0.232577
C88	C	1.086822	0.601431	0.311502
C89	C	0.542796	1.306796	-0.232524
C90	C	0.463871	1.409128	-0.311450
C91	C	0.542794	1.306792	0.000029
C92	C	0.463868	1.409123	0.000030
C93	C	0.775347	1.306798	-0.232522
C94	C	0.775348	1.409130	-0.311447
C95	C	1.078479	0.553382	-0.045398
C96	C	1.152631	0.457244	-0.045416
C97	C	1.235128	0.409157	-0.000009
C98	C	1.243472	0.457222	0.045412
C99	C	1.169320	0.553364	0.045424
C100	C	0.820754	0.553372	0.393982
C101	C	0.820750	0.457233	0.468147
C102	C	0.775342	0.409146	0.459828
C103	C	0.729926	0.457213	0.377336
C104	C	0.729925	0.553356	0.303173
C105	C	1.169304	0.553376	0.303156
C106	C	1.243470	0.457237	0.377308
C107	C	1.235152	0.409149	0.459805
C108	C	1.152660	0.457214	0.468149
C109	C	1.078496	0.553357	0.393998
C110	C	0.381388	1.457195	-0.303104
C111	C	0.307222	1.553363	-0.377256
C112	C	0.315541	1.601457	-0.459753
C113	C	0.398032	1.553386	-0.468097
C114	C	0.472196	1.457226	-0.393946
C115	C	0.472214	1.457188	0.045442
C116	C	0.398061	1.553351	0.045440
C117	C	0.315564	1.601442	0.000031
C118	C	0.307221	1.553373	-0.045387
C119	C	0.381372	1.457217	-0.045389
C120	C	0.820766	1.457186	-0.303099
C121	C	0.820783	1.553326	-0.377251
C122	C	0.775377	1.601414	-0.459748
C123	C	0.729958	1.553348	-0.468094
C124	C	0.729946	1.457204	-0.393943
H125	H	0.456972	1.005292	-0.116499
H126	H	0.692950	0.592472	0.236014
H127	H	1.310650	0.418055	0.082380
H128	H	0.228258	1.005261	0.116555
Br129	Br	0.214938	1.731940	0.000043
H130	H	0.857740	1.418048	-0.235933
H131	H	0.658836	1.005265	-0.318334
H132	H	0.692958	1.418087	-0.400752
Br133	Br	0.073574	1.005302	-0.151367
H134	H	0.240061	1.592486	-0.370445
Br135	Br	0.966528	0.618624	-0.107031
H136	H	0.658830	1.005267	-0.681599
H137	H	1.145820	0.418122	-0.082403
H138	H	0.322448	1.005254	0.116551
H139	H	0.857732	0.592513	0.400772
Br140	Br	1.335754	0.278677	-0.000036
H141	H	0.456989	1.005256	0.116552
Br142	Br	0.409405	1.618564	0.107084
H143	H	1.176127	0.592478	0.082415
H144	H	0.322444	1.005278	-0.116489
Br145	Br	0.623974	1.005250	-0.472994
Br146	Br	0.668331	1.618636	-0.580062
H147	H	0.775393	1.679701	-0.520119
H148	H	0.228247	1.005294	-0.116498
Br149	Br	0.882391	0.392019	0.580088
Br150	Br	0.866153	0.731942	-0.090837
H151	H	0.775349	0.330860	0.520223
Br152	Br	0.926725	1.005292	-0.701743
Br153	Br	0.073586	1.005273	0.151414
H154	H	0.404795	1.592556	-0.535275
Br155	Br	0.370030	1.391992	-0.107021
Br156	Br	0.973192	0.618609	-0.197873
Br157	Br	0.973196	0.391944	-0.197852
Br158	Br	0.866168	0.278615	-0.090782
Br159	Br	0.684535	0.278618	0.090889
H160	H	0.602160	0.418036	0.173276
H161	H	1.145900	0.418046	0.535328
H162	H	0.692956	0.418046	0.370575
Br163	Br	0.577513	0.618577	0.197934
Br164	Br	0.684537	0.731926	0.090845
Br165	Br	0.584134	1.391998	-0.405289
H166	H	0.539380	1.418040	0.082425
H167	H	0.255144	1.679756	-0.520124
Br168	Br	1.180618	0.618624	0.191205
Br169	Br	0.926720	1.005300	-0.526941
H170	H	0.857767	1.592451	-0.370438
H171	H	0.891860	1.005298	-0.318352
H172	H	0.240042	1.592543	-0.082358
Br173	Br	0.370074	1.391943	-0.191153
Br174	Br	0.926728	1.005274	-0.473010
H175	H	1.310631	0.418113	0.370498
Br176	Br	0.623968	1.005255	-0.526927
Br177	Br	1.335813	0.278667	0.560431
H178	H	1.011338	0.592471	0.400806
