data_functionalizedCrystal
_audit_creation_method	'MofGen! by Chris Wilmer'
_symmetry_space_group_name_H-M	'P1'
_symmetry_Int_Tables_number	1
_symmetry_cell_setting	triclinic
loop_
_symmetry_equiv_pos_as_xyz
  x,y,z
_cell_length_a	17.699097
_cell_length_b	14.044190
_cell_length_c	16.176319
_cell_angle_alpha	90.005109
_cell_angle_beta	90.010997
_cell_angle_gamma	88.240103
loop_
_atom_site_label
_atom_site_type_symbol
_atom_site_fract_x
_atom_site_fract_y
_atom_site_fract_z
O1	O	1.012347	0.119902	0.068825
O2	O	1.512347	0.619902	0.568825
O3	O	0.793045	0.135482	0.068813
O4	O	1.293045	0.635482	0.568813
O5	O	0.899401	-0.010285	0.068803
O6	O	1.399401	0.489715	0.568803
O7	O	0.905990	0.265669	0.068835
O8	O	1.405990	0.765669	0.568835
O9	O	0.899384	-0.010277	-0.068691
O10	O	1.399384	0.489723	0.431309
O11	O	0.793028	0.135490	-0.068680
O12	O	1.293028	0.635490	0.431320
O13	O	1.012330	0.119910	-0.068668
O14	O	1.512330	0.619910	0.431332
Cu15	Cu	0.902677	0.127701	-0.081228
Cu16	Cu	1.402677	0.627701	0.418772
Cu17	Cu	0.902697	0.127691	0.081373
Cu18	Cu	1.402697	0.627691	0.581373
O19	O	0.905973	0.265677	-0.068658
O20	O	1.405973	0.765677	0.431342
C21	C	0.764801	0.134925	0.000065
C22	C	1.264801	0.634925	0.500065
C23	C	0.680667	0.133244	0.000059
C24	C	1.180667	0.633244	0.500059
C25	C	0.896510	-0.045589	0.000053
C26	C	1.396510	0.454411	0.500053
C27	C	0.887912	-0.150796	0.000046
C28	C	1.387912	0.349204	0.500046
C29	C	0.164247	0.122935	0.075039
C30	C	0.664247	0.622935	0.575039
C31	C	0.243300	0.124508	0.075035
C32	C	0.743300	0.624508	0.575035
C33	C	0.282811	0.125301	0.000084
C34	C	0.782811	0.625301	0.500084
C35	C	0.243266	0.124510	-0.074868
C36	C	0.743266	0.624510	0.425132
C37	C	0.164215	0.122930	-0.074863
C38	C	0.664215	0.622930	0.425137
C39	C	0.562069	0.130881	-0.074889
C40	C	1.062069	0.630881	0.425111
C41	C	0.641126	0.132464	-0.074888
C42	C	1.141126	0.632464	0.425112
C43	C	0.641154	0.132459	0.075009
C44	C	1.141154	0.632459	0.575009
C45	C	0.562103	0.130879	0.075014
C46	C	1.062103	0.630879	0.575014
C47	C	0.522565	0.130083	0.000063
C48	C	1.022565	0.630083	0.500063
C49	C	0.436847	0.128376	0.000068
C50	C	0.936847	0.628376	0.500068
C51	C	0.368527	0.127015	0.000078
C52	C	0.868527	0.627015	0.500078
C53	C	0.933172	-0.401184	0.000081
C54	C	1.433172	0.098816	0.500081
C55	C	0.872205	-0.343418	0.000072
C56	C	1.372205	0.156582	0.500072
C57	C	0.880947	-0.236234	0.000057
C58	C	1.380947	0.263766	0.500057
C59	C	0.924432	-0.508379	0.000095
C60	C	1.424432	-0.008379	0.500095
C61	C	1.040574	0.120467	0.000082
C62	C	1.540574	0.620467	0.500082
C63	C	1.124707	0.122148	0.000093
C64	C	1.624707	0.622148	0.500093
C65	C	0.908864	0.300981	0.000093
C66	C	1.408864	0.800981	0.500093
C67	C	0.917462	0.406188	0.000106
C68	C	1.417462	0.906188	0.500106
N69	N	0.902668	0.127707	-0.195594
N70	N	1.402668	0.627707	0.304406
C71	C	0.949814	0.063155	-0.760981
C72	C	1.449814	0.563155	-0.260981
C73	C	0.949811	0.063162	-0.674434
C74	C	1.449811	0.563162	-0.174434
C75	C	0.902701	0.127687	-0.631169
C76	C	1.402701	0.627687	-0.131169
C77	C	0.855597	0.192216	-0.674456
C78	C	1.355597	0.692216	-0.174456
C79	C	0.855604	0.192214	-0.761001
C80	C	1.355604	0.692214	-0.261001
C81	C	0.855567	0.192230	-0.325428
C82	C	1.355567	0.692230	0.174572
C83	C	0.855561	0.192226	-0.238876
C84	C	1.355561	0.692226	0.261124
C85	C	0.949774	0.063178	-0.238860
C86	C	1.449774	0.563178	0.261140
C87	C	0.949781	0.063175	-0.325405
C88	C	1.449781	0.563175	0.174595
C89	C	0.902680	0.127707	-0.368685
C90	C	1.402680	0.627707	0.131315
C91	C	0.902685	0.127701	-0.462529
C92	C	1.402685	0.627701	0.037471
C93	C	0.902692	0.127690	-0.537326
C94	C	1.402692	0.627690	-0.037326
N95	N	0.902711	0.127678	0.195738
N96	N	1.402711	0.627678	0.695738
H97	H	0.132083	0.122297	0.136073
H98	H	0.632083	0.622297	0.636073
N99	N	1.011004	-0.360071	0.000059
N100	N	1.511004	0.139929	0.500059
H101	H	1.039450	-0.382200	0.051027
H102	H	1.539450	0.117800	0.551027
H103	H	1.006227	-0.288226	0.000014
H104	H	1.506227	0.211774	0.500014
N105	N	0.519487	0.130014	0.155852
N106	N	1.019487	0.630014	0.655852
H107	H	0.484519	0.188084	0.159205
H108	H	0.984519	0.688084	0.659205
H109	H	0.556579	0.130712	0.203284
H110	H	1.056579	0.630712	0.703284
H111	H	0.673356	0.133102	0.136038
H112	H	1.173356	0.633102	0.636038
H113	H	0.813445	-0.374462	0.000073
H114	H	1.313445	0.125538	0.500073
H115	H	0.988166	0.010623	-0.639195
H116	H	1.488166	0.510623	-0.139195
H117	H	0.988140	0.010630	-0.360629
H118	H	1.488140	0.510630	0.139371
H119	H	0.988173	0.010607	-0.796201
H120	H	1.488173	0.510607	-0.296201
N121	N	1.000570	-0.006438	-0.192180
N122	N	1.500570	0.493562	0.307820
H123	H	0.993419	0.003349	-0.130789
H124	H	1.493419	0.503349	0.369211
H125	H	1.054997	0.004412	-0.207288
H126	H	1.554997	0.504412	0.292712
H127	H	0.817197	0.244773	-0.203651
H128	H	1.317197	0.744773	0.296349
H129	H	0.817214	0.244772	-0.360659
H130	H	1.317214	0.744772	0.139341
N131	N	0.804787	0.261816	-0.627796
N132	N	1.304787	0.761816	-0.127796
H133	H	0.811926	0.252026	-0.566402
H134	H	1.311926	0.752026	-0.066402
H135	H	0.750366	0.250947	-0.642944
H136	H	1.250366	0.750947	-0.142944
H137	H	0.275442	0.125150	-0.135894
H138	H	0.775442	0.625150	0.364106
N139	N	0.804792	0.261798	-0.807684
N140	N	1.304792	0.761798	-0.307684
H141	H	0.811946	0.252008	-0.869075
H142	H	1.311946	0.752008	-0.369075
H143	H	0.818070	0.329020	-0.792548
H144	H	1.318070	0.829020	-0.292548
N145	N	0.285948	0.125345	0.155869
N146	N	0.785948	0.625345	0.655869
H147	H	0.248922	0.124606	0.203350
H148	H	0.748922	0.624606	0.703350
H149	H	0.316584	0.184725	0.159143
H150	H	0.816584	0.684725	0.659143
N151	N	0.683738	0.133318	-0.155735
N152	N	1.183738	0.633318	0.344265
H153	H	0.672148	0.074314	-0.188504
H154	H	1.172148	0.574314	0.311496
H155	H	0.739801	0.134481	-0.144295
H156	H	1.239801	0.634481	0.355705
N157	N	0.519427	0.130025	-0.155723
N158	N	1.019427	0.630025	0.344277
H159	H	0.556475	0.130100	-0.203203
H160	H	1.056475	0.630100	0.296797
H161	H	0.484845	0.188438	-0.159233
H162	H	0.984845	0.688438	0.340767
N163	N	0.121566	0.122075	-0.155698
N164	N	0.621566	0.622075	0.344302
H165	H	0.158615	0.122153	-0.203178
H166	H	0.658615	0.622153	0.296822
H167	H	0.086980	0.180485	-0.159210
H168	H	0.586980	0.680485	0.340790
