data_functionalizedCrystal
_audit_creation_method	'MofGen! by Chris Wilmer'
_symmetry_space_group_name_H-M	'P1'
_symmetry_Int_Tables_number	1
_symmetry_cell_setting	triclinic
loop_
_symmetry_equiv_pos_as_xyz
  x,y,z
_cell_length_a	16.120490
_cell_length_b	21.295417
_cell_length_c	16.120297
_cell_angle_alpha	87.131911
_cell_angle_beta	89.870317
_cell_angle_gamma	87.121864
loop_
_atom_site_label
_atom_site_type_symbol
_atom_site_fract_x
_atom_site_fract_y
_atom_site_fract_z
Zn1	Zn	1.247403	-0.318967	0.534501
Zn2	Zn	1.747403	0.181033	1.034501
Zn3	Zn	1.254340	-0.419177	0.395433
Zn4	Zn	1.754340	0.080823	0.895433
Zn5	Zn	1.115394	-0.308324	0.388424
Zn6	Zn	1.615394	0.191676	0.888424
Zn7	Zn	1.108296	-0.418591	0.527406
Zn8	Zn	1.608296	0.081409	1.027406
O9	O	1.181358	-0.366265	0.461441
O10	O	1.681358	0.133735	0.961441
O11	O	1.364689	-0.336959	0.521956
O12	O	1.864689	0.163041	1.021956
O13	O	1.241782	-0.400263	0.278138
O14	O	1.741782	0.099737	0.778138
O15	O	1.132973	-0.221651	0.407837
O16	O	1.632973	0.278349	0.907837
O17	O	1.369786	-0.410583	0.419784
O18	O	1.869786	0.089417	0.919784
O19	O	1.229959	-0.229470	0.515160
O20	O	1.729959	0.270530	1.015160
O21	O	1.139699	-0.318820	0.272988
O22	O	1.639699	0.181180	0.772988
O23	O	0.998086	-0.318252	0.400957
O24	O	1.498086	0.181748	0.900957
O25	O	1.120875	-0.409585	0.644712
O26	O	1.620875	0.090415	1.144712
O27	O	0.992871	-0.399265	0.503067
O28	O	1.492871	0.100735	1.003067
O29	O	1.223076	-0.336391	0.649925
O30	O	1.723076	0.163609	1.149925
O31	O	1.234899	-0.507185	0.412904
O32	O	1.734899	-0.007185	0.912904
O33	O	1.127601	-0.506754	0.509863
O34	O	1.627601	-0.006754	1.009863
C35	C	0.965306	-0.357541	0.450482
C36	C	1.465306	0.142459	0.950482
C37	C	0.872877	-0.353824	0.445813
C38	C	1.372877	0.146176	0.945813
C39	C	0.659911	-0.385537	0.485659
C40	C	1.159911	0.114463	0.985659
C41	C	0.703653	-0.347045	0.437288
C42	C	1.203653	0.152955	0.937288
C43	C	0.797818	-0.350818	0.442033
C44	C	1.297818	0.149182	0.942033
C45	C	0.565737	-0.381765	0.480916
C46	C	1.065737	0.118235	0.980916
C47	C	1.181254	-0.529811	0.461393
C48	C	1.681254	-0.029811	0.961393
C49	C	1.181284	-0.599780	0.461405
C50	C	1.681284	-0.099780	0.961405
C51	C	1.231753	-0.636661	0.517324
C52	C	1.731753	-0.136661	1.017324
C53	C	1.231781	-0.702406	0.517346
C54	C	1.731781	-0.202406	1.017346
C55	C	1.181351	-0.731267	0.461434
C56	C	1.681351	-0.231267	0.961434
C57	C	1.130872	-0.694377	0.405511
C58	C	1.630872	-0.194377	0.905511
C59	C	1.130839	-0.628634	0.405496
C60	C	1.630839	-0.128634	0.905496
N61	N	1.178760	-0.831630	0.388343
N62	N	1.678760	-0.331630	0.888343
N63	N	1.178796	-0.894083	0.388359
N64	N	1.678796	-0.394083	0.888359
C65	C	1.181446	-0.929346	0.461477
C66	C	1.681446	-0.429346	0.961477
N67	N	1.184074	-0.899798	0.534579
N68	N	1.684074	-0.399798	1.034579
N69	N	1.184042	-0.837339	0.534562
N70	N	1.684042	-0.337339	1.034562
C71	C	1.181380	-0.802553	0.461445
C72	C	1.681380	-0.302553	0.961445
C73	C	1.231947	-1.037515	0.517425
C74	C	1.731947	-0.537515	1.017425
C75	C	1.231970	-1.103261	0.517448
C76	C	1.731970	-0.603261	1.017448
C77	C	1.131065	-1.095231	0.405605
C78	C	1.631065	-0.595231	0.905605
C79	C	1.131038	-1.029487	0.405589
C80	C	1.631038	-0.529487	0.905589
C81	C	1.181484	-1.000633	0.461498
C82	C	1.681484	-0.500633	0.961498
C83	C	1.398254	-0.375023	0.472443
C84	C	1.898254	0.124977	0.972443
C85	C	1.490682	-0.378756	0.477132
C86	C	1.990682	0.121244	0.977132
C87	C	1.170410	-0.374110	0.678335
C88	C	1.670410	0.125890	1.178335
C89	C	1.165744	-0.377453	0.770762
C90	C	1.665744	0.122547	1.270762
C91	C	1.181484	-0.202082	0.461508
C92	C	1.681484	0.297918	0.961508
C93	C	1.181538	-0.132117	0.461536
C94	C	1.681538	0.367883	0.961536
C95	C	1.192312	-0.358407	0.245394
C96	C	1.692312	0.141593	0.745394
C97	C	1.197138	-0.354893	0.152975
C98	C	1.697138	0.145107	0.652975
C99	C	1.157196	-0.383541	0.939986
C100	C	1.657196	0.116459	1.439986
C101	C	1.205684	-0.348807	0.983756
C102	C	1.705684	0.151193	1.483756
C103	C	1.200928	-0.352194	1.077918
C104	C	1.700928	0.147806	1.577918
C105	C	1.161951	-0.380154	0.845815
C106	C	1.661951	0.119846	1.345815
H107	H	0.670382	-0.311257	0.392313
H108	H	1.170382	0.188743	0.892313
H109	H	1.250768	-0.316525	0.950511
H110	H	1.750768	0.183475	1.450511
H111	H	1.112115	-0.415820	0.973229
H112	H	1.612115	0.084180	1.473229
H113	H	1.273021	-1.014022	0.562952
H114	H	1.773021	-0.514022	1.062952
H115	H	0.693180	-0.421323	0.530631
H116	H	1.193180	0.078677	1.030631
H117	H	1.272826	-0.613171	0.562850
H118	H	1.772826	-0.113171	1.062850
H119	H	1.272871	-0.732440	0.562892
H120	H	1.772871	-0.232440	1.062892
H121	H	1.089809	-0.717880	0.359989
H122	H	1.589809	-0.217880	0.859989
H123	H	1.089741	-0.598604	0.359959
H124	H	1.589741	-0.098604	0.859959
H125	H	1.089998	-1.118728	0.360086
H126	H	1.589998	-0.618728	0.860086
H127	H	1.273067	-1.133289	0.562988
H128	H	1.773067	-0.633289	1.062988
H129	H	1.089946	-0.999456	0.360051
H130	H	1.589946	-0.499456	0.860051
