data_functionalizedCrystal
_audit_creation_method	'MofGen! by Chris Wilmer'
_symmetry_space_group_name_H-M	'P1'
_symmetry_Int_Tables_number	1
_symmetry_cell_setting	triclinic
loop_
_symmetry_equiv_pos_as_xyz
  x,y,z
_cell_length_a	10.489763
_cell_length_b	10.489741
_cell_length_c	8.965430
_cell_angle_alpha	89.991615
_cell_angle_beta	90.007687
_cell_angle_gamma	84.543767
loop_
_atom_site_label
_atom_site_type_symbol
_atom_site_fract_x
_atom_site_fract_y
_atom_site_fract_z
O1	O	-1.694017	-0.180114	0.123974
O2	O	-1.322825	-0.196976	0.123991
O3	O	-1.516868	-0.002948	0.123973
O4	O	-1.499975	-0.374142	0.123991
O5	O	-1.516890	-0.002923	-0.124106
O6	O	-1.322848	-0.196952	-0.124088
O7	O	-1.694040	-0.180089	-0.124105
Cu8	Cu	-1.508446	-0.188518	-0.146748
Cu9	Cu	-1.508419	-0.188547	0.146634
O10	O	-1.499998	-0.374118	-0.124087
C11	C	-1.275305	-0.195684	-0.000047
C12	C	-1.133677	-0.191856	-0.000040
C13	C	-1.065538	-0.068386	-0.000062
C14	C	-0.973401	-0.126714	0.122253
C15	C	-0.973457	-0.126719	-0.122334
C16	C	-1.043405	-0.250235	0.122375
C17	C	-1.043472	-0.250223	-0.122321
C18	C	-0.951362	-0.308641	0.000023
C19	C	-1.515603	0.044596	-0.000066
C20	C	-1.511786	0.186226	-0.000063
C21	C	-0.741562	-0.181361	-0.000069
C22	C	-0.883198	-0.185129	-0.000077
C23	C	-1.501262	-0.421662	-0.000046
C24	C	-1.505079	-0.563291	-0.000039
C25	C	-1.388322	0.254376	-0.000046
C26	C	-1.446657	0.346506	-0.122365
C27	C	-1.446663	0.346456	0.122222
C28	C	-1.570171	0.276491	-0.122482
C29	C	-1.570161	0.276431	0.122214
C30	C	-1.628584	0.368534	-0.000134
N31	N	-1.508401	-0.188558	0.352983
C32	C	-1.418502	-0.278095	0.549705
C33	C	-1.533897	-0.304167	0.450235
C34	C	-1.393015	-0.162543	0.450245
C35	C	-1.623906	-0.214649	0.549622
C36	C	-1.482947	-0.072974	0.549640
C37	C	-1.598426	-0.098998	0.450216
N38	N	-1.508451	-0.188519	0.646903
H39	H	-1.074224	-0.302448	0.225901
N40	N	-1.756038	0.430535	-0.000251
N41	N	-1.792446	0.504510	-0.104354
H42	H	-1.882459	0.548301	-0.104446
H43	H	-1.394398	0.377414	0.225642
H44	H	-1.342543	-0.353880	0.593384
N45	N	-1.381124	0.385422	-0.252081
N46	N	-1.266864	0.344317	-0.273871
H47	H	-1.220573	0.371797	-0.365478
H48	H	-1.461352	0.024726	0.593339
H49	H	-0.901938	-0.410240	0.000094
H50	H	-1.074527	-0.302413	-0.225731
N51	N	-1.270587	-0.134962	0.395448
N52	N	-1.206943	-0.214022	0.313944
H53	H	-1.120476	-0.194553	0.275241
H54	H	-0.942489	-0.074443	-0.225743
N55	N	-1.560938	-0.426774	0.395472
N56	N	-1.488210	-0.524330	0.427375
H57	H	-1.507300	-0.610925	0.388706
H58	H	-1.286812	0.204733	-0.000165
H59	H	-1.115227	0.033106	0.000087
N60	N	-1.635644	0.237483	0.251940
N61	N	-1.678627	0.319134	0.345173
H62	H	-1.724868	0.291627	0.436804
N63	N	-1.635664	0.237811	-0.252347
N64	N	-1.649127	0.122055	-0.273341
H65	H	-1.695378	0.094733	-0.365058
N66	N	-0.934481	-0.061170	0.251958
N67	N	-0.876710	0.037054	0.238364
H68	H	-0.849230	0.083354	0.329964
N69	N	-1.746371	-0.242367	0.604166
N70	N	-1.766144	-0.246864	0.741467
H71	H	-1.852633	-0.266441	0.779994
N72	N	-1.693928	-0.004007	0.395718
N73	N	-1.708836	0.011953	0.258427
H74	H	-1.776289	0.079032	0.219930
