data_functionalizedCrystal
_audit_creation_method	'MofGen! by Chris Wilmer'
_symmetry_space_group_name_H-M	'P1'
_symmetry_Int_Tables_number	1
_symmetry_cell_setting	triclinic
loop_
_symmetry_equiv_pos_as_xyz
  x,y,z
_cell_length_a	9.065218
_cell_length_b	23.532407
_cell_length_c	8.140239
_cell_angle_alpha	89.991844
_cell_angle_beta	89.997198
_cell_angle_gamma	83.932281
loop_
_atom_site_label
_atom_site_type_symbol
_atom_site_fract_x
_atom_site_fract_y
_atom_site_fract_z
O1	O	1.956283	0.083497	-0.136637
O2	O	1.526661	0.090346	-0.136641
O3	O	1.754427	0.004085	-0.136609
O4	O	1.728517	0.169758	-0.136670
O5	O	1.754415	0.004084	0.136618
O6	O	1.526649	0.090345	0.136586
O7	O	1.956271	0.083496	0.136590
Zn8	Zn	1.741458	0.086921	0.179968
Zn9	Zn	1.741474	0.086922	-0.180020
O10	O	1.728504	0.169757	0.136558
C11	C	1.471701	0.089687	-0.000028
C12	C	1.307955	0.087719	-0.000028
C13	C	1.753761	-0.017136	0.000009
C14	C	1.751778	-0.080368	0.000021
C15	C	1.874123	-0.478573	-0.000068
C16	C	1.872280	-0.537986	-0.000080
O17	O	1.985695	-0.573898	-0.000140
N18	N	1.736873	-0.561607	-0.000080
C19	C	1.603300	-0.525810	-0.000085
O20	O	1.487956	-0.551356	-0.000087
C21	C	1.605144	-0.466397	-0.000084
C22	C	1.740560	-0.442780	-0.000067
C23	C	2.009527	-0.454955	-0.000053
C24	C	2.011370	-0.395546	-0.000037
C25	C	1.877807	-0.359753	-0.000037
C26	C	1.742402	-0.383371	-0.000052
C27	C	1.471573	-0.430601	-0.000100
C28	C	1.473429	-0.371185	-0.000100
C29	C	1.608845	-0.347568	-0.000084
C30	C	1.610682	-0.288169	-0.000035
N31	N	1.746089	-0.264548	-0.000035
C32	C	1.879651	-0.300341	-0.000036
C33	C	1.599437	-0.650581	-0.000089
C34	C	1.597591	-0.709992	-0.000078
C35	C	1.866571	-0.722165	-0.000077
C36	C	1.868416	-0.662752	-0.000076
C37	C	1.734844	-0.626960	-0.000089
C38	C	1.883510	-0.175576	-0.000002
C39	C	1.885340	-0.116160	0.000021
C40	C	1.616360	-0.103993	0.000011
C41	C	1.614529	-0.163403	-0.000003
C42	C	1.748116	-0.199194	-0.000015
O43	O	1.497326	-0.252222	0.000018
O44	O	1.994976	-0.274786	-0.000055
C45	C	2.011231	0.084155	-0.000027
C46	C	2.174977	0.086123	-0.000038
C47	C	1.729170	0.190979	-0.000064
C48	C	1.731154	0.254210	-0.000087
N49	N	1.741457	0.086919	0.425651
N50	N	1.741486	0.086919	-0.425703
H51	H	1.995617	-0.096935	0.000038
C52	C	1.445440	-0.576713	0.140376
C53	C	1.452603	-0.611239	-0.000078
H54	H	1.354795	-0.552425	0.140372
H55	H	1.450311	-0.600149	0.235637
H56	H	1.526346	-0.554142	0.140358
H57	H	1.371703	-0.633813	-0.000054
H58	H	1.447717	-0.587800	-0.095363
H59	H	1.992289	-0.204710	-0.000018
H60	H	2.118297	-0.484092	-0.000059
H61	H	1.364656	-0.342046	-0.000113
C62	C	1.313455	-0.490328	-0.140604
C63	C	1.322717	-0.456550	-0.000138
H64	H	1.221554	-0.506348	-0.140623
H65	H	1.319794	-0.467396	-0.235857
H66	H	1.392727	-0.520153	-0.140575
H67	H	1.243451	-0.426722	-0.000172
H68	H	1.316363	-0.479483	0.095140
C69	C	2.026548	-0.602998	-0.140531
C70	C	2.017264	-0.636793	-0.000074
H71	H	2.118442	-0.586972	-0.140524
H72	H	2.020243	-0.625920	-0.235790
H73	H	1.947266	-0.573177	-0.140516
H74	H	2.096541	-0.666617	-0.000094
H75	H	2.023583	-0.613870	0.095210
C76	C	1.348839	-0.145400	-0.000020
C77	C	1.465681	-0.189366	-0.000024
H78	H	1.256947	-0.161427	-0.000058
H79	H	1.355139	-0.122494	0.095271
H80	H	1.355180	-0.122468	-0.095291
H81	H	1.459346	-0.212296	0.095254
H82	H	1.459377	-0.212282	-0.095324
H83	H	1.975325	-0.751318	-0.000084
C84	C	2.241198	-0.387636	-0.140506
C85	C	2.160225	-0.369591	-0.000043
H86	H	2.333096	-0.371613	-0.140516
H87	H	2.259191	-0.428138	-0.140495
H88	H	2.186229	-0.375385	-0.235771
H89	H	2.215190	-0.381846	0.095222
H90	H	2.142237	-0.329081	-0.000039
C91	C	1.331906	-0.691978	-0.000083
C92	C	1.448738	-0.735948	-0.000083
H93	H	1.240009	-0.708001	-0.000103
H94	H	1.338219	-0.669068	0.095199
H95	H	1.338244	-0.669050	-0.095363
H96	H	1.442405	-0.758873	0.095204
H97	H	1.442421	-0.758867	-0.095374
C98	C	1.499784	-0.007508	0.000002
C99	C	1.469553	-0.064642	0.000001
H100	H	1.409148	0.016785	-0.000023
H101	H	1.555321	-0.000283	0.095286
H102	H	1.555365	-0.000278	-0.095275
H103	H	1.413981	-0.071874	0.095286
H104	H	1.413992	-0.071870	-0.095292
