data_functionalizedCrystal
_audit_creation_method	'MofGen! by Chris Wilmer'
_symmetry_space_group_name_H-M	'P1'
_symmetry_Int_Tables_number	1
_symmetry_cell_setting	triclinic
loop_
_symmetry_equiv_pos_as_xyz
  x,y,z
_cell_length_a	16.974800
_cell_length_b	19.288865
_cell_length_c	17.766276
_cell_angle_alpha	90.013634
_cell_angle_beta	93.665488
_cell_angle_gamma	96.736285
loop_
_atom_site_label
_atom_site_type_symbol
_atom_site_fract_x
_atom_site_fract_y
_atom_site_fract_z
O1	O	1.048834	-0.088478	0.001312
O2	O	1.548834	0.411522	0.501312
O3	O	0.818583	-0.099766	-0.012722
O4	O	1.318583	0.400234	0.487278
O5	O	0.940361	0.006997	-0.005285
O6	O	1.440361	0.506997	0.494715
O7	O	0.927055	-0.195241	-0.006125
O8	O	1.427055	0.304759	0.493875
O9	O	0.940383	0.007010	0.119905
O10	O	1.440383	0.507010	0.619905
O11	O	0.818604	-0.099752	0.112468
O12	O	1.318604	0.400248	0.612468
O13	O	1.048855	-0.088464	0.126502
O14	O	1.548855	0.411536	0.626502
Cu15	Cu	0.933731	-0.094107	0.130916
Cu16	Cu	1.433731	0.405893	0.630916
Cu17	Cu	0.933706	-0.094123	-0.017136
Cu18	Cu	1.433706	0.405877	0.482864
O19	O	0.927076	-0.195227	0.119064
O20	O	1.427076	0.304773	0.619064
C21	C	0.789136	-0.099332	0.048078
C22	C	1.289136	0.400668	0.548078
C23	C	0.701363	-0.098050	0.042729
C24	C	1.201363	0.401950	0.542729
C25	C	0.660143	-0.097439	0.108458
C26	C	1.160143	0.402561	0.608458
C27	C	0.577672	-0.096223	0.103434
C28	C	1.077672	0.403777	0.603434
C29	C	0.536422	-0.095624	0.032680
C30	C	1.036422	0.404376	0.532680
C31	C	0.577648	-0.096234	-0.033055
C32	C	1.077648	0.403766	0.466945
C33	C	0.660118	-0.097444	-0.028030
C34	C	1.160118	0.402556	0.471970
C35	C	0.289771	-0.092000	0.010335
C36	C	0.789771	0.408000	0.510335
C37	C	0.207295	-0.090792	0.005315
C38	C	0.707295	0.409208	0.505315
C39	C	0.207325	-0.090780	0.141804
C40	C	0.707325	0.409220	0.641804
C41	C	0.289796	-0.091995	0.146823
C42	C	0.789796	0.408005	0.646823
C43	C	0.331016	-0.092600	0.081088
C44	C	0.831016	0.407400	0.581088
N45	N	0.452123	-0.094384	0.027543
N46	N	0.952123	0.405616	0.527543
N47	N	0.415314	-0.093836	0.086226
N48	N	0.915314	0.406164	0.586226
C49	C	0.939944	0.032881	0.057286
C50	C	1.439944	0.532881	0.557286
C51	C	0.938659	0.109986	0.057215
C52	C	1.438659	0.609986	0.557215
C53	C	1.078302	-0.088899	0.065700
C54	C	1.578302	0.411101	0.565700
C55	C	1.166075	-0.090180	0.071045
C56	C	1.666075	0.409820	0.571045
C57	C	0.927494	-0.221111	0.056492
C58	C	1.427494	0.278889	0.556492
C59	C	0.928779	-0.298217	0.056558
C60	C	1.428779	0.201783	0.556558
C61	C	1.010113	0.154558	0.061574
C62	C	1.510113	0.654558	0.561574
C63	C	1.008905	0.227008	0.061488
C64	C	1.508905	0.727008	0.561488
C65	C	0.936240	0.254882	0.057059
C66	C	1.436240	0.754882	0.557059
C67	C	0.864776	0.210300	0.052695
C68	C	1.364776	0.710300	0.552695
C69	C	0.865986	0.137852	0.052773
C70	C	1.365986	0.637852	0.552773
C71	C	0.879123	0.363273	0.097428
C72	C	1.379123	0.863273	0.597428
C73	C	0.877917	0.435720	0.097355
C74	C	1.377917	0.935720	0.597355
C75	C	0.932506	0.478334	0.056814
C76	C	1.432506	0.978334	0.556814
C77	C	0.988315	0.448494	0.016357
C78	C	1.488315	0.948494	0.516357
C79	C	0.989525	0.376046	0.016435
C80	C	1.489525	0.876046	0.516435
C81	C	0.934920	0.333438	0.056973
C82	C	1.434920	0.833438	0.556973
C83	C	1.002656	0.601464	0.061079
C84	C	1.502656	1.101464	0.561079
C85	C	1.001445	0.673914	0.060989
C86	C	1.501445	1.173914	0.560989
C87	C	0.857314	0.657205	0.052203
C88	C	1.357314	1.157205	0.552203
C89	C	0.858527	0.584756	0.052286
C90	C	1.358527	1.084756	0.552286
C91	C	0.931200	0.556890	0.056728
C92	C	1.431200	1.056890	0.556728
N93	N	0.933689	-0.094130	-0.121267
N94	N	1.433689	0.405870	0.378733
C95	C	0.981396	-0.136315	-0.157757
C96	C	1.481396	0.363685	0.342243
C97	C	0.981401	-0.136315	-0.236559
C98	C	1.481401	0.363685	0.263441
C99	C	0.933709	-0.094118	-0.278867
C100	C	1.433709	0.405882	0.221133
C101	C	0.885992	-0.051931	-0.242368
C102	C	1.385992	0.448069	0.257632
C103	C	0.885983	-0.051937	-0.163568
C104	C	1.385983	0.448063	0.336432
C105	C	0.931902	-0.031463	-0.403800
C106	C	1.431902	0.468537	0.096200
C107	C	0.931918	-0.031456	-0.482598
C108	C	1.431918	0.468544	0.017402
C109	C	0.933734	-0.094101	-0.521911
C110	C	1.433734	0.405899	-0.021911
C111	C	0.935552	-0.156754	-0.482417
C112	C	1.435552	0.343246	0.017583
C113	C	0.935542	-0.156760	-0.403617
C114	C	1.435542	0.343240	0.096383
C115	C	0.933714	-0.094107	-0.364312
C116	C	1.433714	0.405893	0.135688
C117	C	0.981449	-0.136290	-0.643847
C118	C	1.481449	0.363710	-0.143847
C119	C	0.981449	-0.136292	-0.722650
C120	C	1.481449	0.363708	-0.222650
C121	C	0.886044	-0.051901	-0.728457
C122	C	1.386044	0.448099	-0.228457
C123	C	0.886040	-0.051905	-0.649656
C124	C	1.386040	0.448095	-0.149656
C125	C	0.933747	-0.094098	-0.607355
C126	C	1.433747	0.405902	-0.107355
N127	N	0.933755	-0.094095	0.235047
N128	N	1.433755	0.405905	0.735047
H129	H	0.173711	-0.090306	-0.052305
H130	H	0.673711	0.409694	0.447695
F131	F	0.703987	-0.098092	-0.097989
F132	F	1.203987	0.401908	0.402011
F133	F	1.048916	0.344290	-0.026624
F134	F	1.548916	0.844290	0.473376
H135	H	1.032767	0.483189	-0.016655
H136	H	1.532767	0.983189	0.483345
F137	F	1.080000	0.571805	0.065810
F138	F	1.580000	1.071805	0.565810
H139	H	0.323323	-0.092491	-0.043191
H140	H	0.823323	0.407509	0.456809
H141	H	1.020249	-0.170670	-0.266275
H142	H	1.520249	0.329330	0.233725
H143	H	1.059634	0.710205	0.064535
H144	H	1.559634	1.210205	0.564535
H145	H	0.847196	-0.017551	-0.619945
H146	H	1.347196	0.482449	-0.119945
H147	H	1.067094	0.263305	0.065035
H148	H	1.567094	0.763305	0.565035
H149	H	0.930416	0.019553	-0.371797
H150	H	1.430416	0.519553	0.128203
H151	H	0.937020	-0.207775	-0.371464
H152	H	1.437020	0.292225	0.128536
H153	H	0.173756	-0.090286	0.195322
H154	H	0.673756	0.409714	0.695322
F155	F	0.779977	0.686865	0.047485
F156	F	1.279977	1.186865	0.547485
H157	H	0.800341	0.548464	0.048741
H158	H	1.300341	1.048464	0.548741
F159	F	1.032166	-0.181225	-0.112742
F160	F	1.532166	0.318775	0.387258
H161	H	0.937031	-0.207766	-0.514424
H162	H	1.437031	0.292234	-0.014424
F163	F	0.533747	-0.095575	-0.108357
F164	F	1.033747	0.404425	0.391643
H165	H	0.847159	-0.017575	-0.276820
H166	H	1.347159	0.482425	0.223180
F167	F	0.821019	0.317927	0.140581
F168	F	1.321019	0.817927	0.640581
H169	H	1.069289	0.131875	0.065188
H170	H	1.569289	0.631875	0.565188
F171	F	0.818523	0.467472	0.140415
F172	F	1.318523	0.967472	0.640415
H173	H	0.847132	-0.017584	-0.133859
H174	H	1.347132	0.482416	0.366141
H175	H	1.020291	-0.170649	-0.609404
H176	H	1.520291	0.329351	-0.109404
F177	F	0.835281	-0.006996	-0.773480
F178	F	1.335281	0.493004	-0.273480
H179	H	0.693722	-0.097932	0.166074
H180	H	1.193722	0.402068	0.666074
F181	F	0.787440	0.239966	0.047976
F182	F	1.287440	0.739966	0.547976
F183	F	0.533805	-0.095582	0.173393
F184	F	1.033805	0.404418	0.673393
H185	H	0.807797	0.101561	0.049224
H186	H	1.307797	0.601561	0.549224
H187	H	1.020296	-0.170648	-0.752359
H188	H	1.520296	0.329352	-0.252359
H189	H	0.323377	-0.092479	0.204439
H190	H	0.823377	0.407521	0.704439
F191	F	0.929979	0.035224	-0.524624
F192	F	1.429979	0.535224	-0.024624
