data_functionalizedCrystal
_audit_creation_method	'MofGen! by Chris Wilmer'
_symmetry_space_group_name_H-M	'P1'
_symmetry_Int_Tables_number	1
_symmetry_cell_setting	triclinic
loop_
_symmetry_equiv_pos_as_xyz
  x,y,z
_cell_length_a	6.817900
_cell_length_b	12.200863
_cell_length_c	14.858572
_cell_angle_alpha	93.921758
_cell_angle_beta	104.524003
_cell_angle_gamma	107.143441
loop_
_atom_site_label
_atom_site_type_symbol
_atom_site_fract_x
_atom_site_fract_y
_atom_site_fract_z
V1	V	-4.056927	-0.159435	-0.290055
V2	V	-3.806927	0.090565	-0.040055
V3	V	-3.556927	0.340565	0.209945
V4	V	-3.306927	0.590565	0.459945
O5	O	-4.024805	0.006919	-0.284436
O6	O	-3.774805	0.256919	-0.034436
O7	O	-3.524805	0.506919	0.215564
O8	O	-3.274805	0.756919	0.465564
O9	O	-4.026571	-0.315418	-0.288165
O10	O	-3.776571	-0.065418	-0.038165
O11	O	-3.526571	0.184582	0.211835
O12	O	-3.276571	0.434582	0.461835
O13	O	-4.013319	-0.157308	-0.416516
O14	O	-3.763319	0.092692	-0.166516
O15	O	-3.513319	0.342692	0.083484
O16	O	-3.263319	0.592692	0.333484
O17	O	-4.038148	-0.152285	-0.155197
O18	O	-3.788148	0.097715	0.094803
O19	O	-3.538148	0.347715	0.344803
O20	O	-3.288148	0.597715	0.594803
V21	V	-4.537596	-0.139498	-0.273914
V22	V	-4.287596	0.110502	-0.023914
V23	V	-4.037596	0.360502	0.226086
V24	V	-3.787596	0.610502	0.476086
O25	O	-4.324446	-0.203166	-0.325463
O26	O	-4.074446	0.046834	-0.075463
O27	O	-3.824446	0.296834	0.174537
O28	O	-3.574446	0.546834	0.424537
O29	O	-4.720275	-0.095766	-0.238506
O30	O	-4.470275	0.154234	0.011494
O31	O	-4.220275	0.404234	0.261494
O32	O	-3.970275	0.654234	0.511494
O33	O	-4.344747	0.016485	-0.275804
O34	O	-4.094747	0.266485	-0.025804
O35	O	-3.844747	0.516485	0.224196
O36	O	-3.594747	0.766485	0.474196
O37	O	-4.687116	-0.305852	-0.279532
O38	O	-4.437116	-0.055852	-0.029532
O39	O	-4.187116	0.194148	0.220468
O40	O	-3.937116	0.444148	0.470468
O41	O	-4.673772	-0.146648	-0.408772
O42	O	-4.423772	0.103352	-0.158772
O43	O	-4.173772	0.353352	0.091228
O44	O	-3.923772	0.603352	0.341228
O45	O	-4.357998	-0.141625	-0.147453
O46	O	-4.107998	0.108375	0.102547
O47	O	-3.857998	0.358375	0.352547
O48	O	-3.607998	0.608375	0.602547
C49	C	-3.875806	-0.353433	-0.283613
C50	C	-3.625806	-0.103433	-0.033613
C51	C	-3.375806	0.146567	0.216387
C52	C	-3.125806	0.396567	0.466387
C53	C	-3.932305	-0.480953	-0.282911
C54	C	-3.682305	-0.230953	-0.032911
C55	C	-3.432305	0.019047	0.217089
C56	C	-3.182305	0.269047	0.467089
C57	C	-3.858901	-0.151747	-0.447336
C58	C	-3.608901	0.098253	-0.197336
C59	C	-3.358901	0.348253	0.052664
C60	C	-3.108901	0.598253	0.302664
C61	C	-3.904649	-0.151040	-0.550719
C62	C	-3.654649	0.098960	-0.300719
C63	C	-3.404649	0.348960	-0.050719
C64	C	-3.154649	0.598960	0.199281
C65	C	-4.035709	-0.714426	-0.281632
C66	C	-3.785709	-0.464426	-0.031632
C67	C	-3.535709	-0.214426	0.218368
C68	C	-3.285709	0.035574	0.468368
C69	C	-3.978159	-0.584505	-0.282344
C70	C	-3.728159	-0.334505	-0.032344
C71	C	-3.478159	-0.084505	0.217656
C72	C	-3.228159	0.165495	0.467656
C73	C	-4.072090	-0.148458	-0.929285
C74	C	-3.822090	0.101542	-0.679285
C75	C	-3.572090	0.351542	-0.429285
C76	C	-3.322090	0.601542	-0.179285
C77	C	-4.025495	-0.149177	-0.823956
C78	C	-3.775495	0.100823	-0.573956
C79	C	-3.525495	0.350823	-0.323956
C80	C	-3.275495	0.600823	-0.073956
C81	C	-3.988371	-0.149750	-0.740005
C82	C	-3.738371	0.100250	-0.490005
C83	C	-3.488371	0.350250	-0.240005
C84	C	-3.238371	0.600250	0.009995
C85	C	-3.941773	-0.150467	-0.634670
C86	C	-3.691773	0.099533	-0.384670
C87	C	-3.441773	0.349533	-0.134670
C88	C	-3.191773	0.599533	0.115330
C89	C	-4.158854	0.054494	-0.280353
C90	C	-3.908854	0.304494	-0.030353
C91	C	-3.658854	0.554494	0.219647
C92	C	-3.408854	0.804494	0.469647
C93	C	-4.081594	0.182013	-0.281062
C94	C	-3.831594	0.432013	-0.031062
C95	C	-3.581594	0.682013	0.218938
C96	C	-3.331594	0.932013	0.468938
C97	C	-4.175759	-0.147190	-0.116628
C98	C	-3.925759	0.102810	0.133372
C99	C	-3.675759	0.352810	0.383372
C100	C	-3.425759	0.602810	0.633372
C101	C	-4.109248	-0.147890	-0.013244
C102	C	-3.859248	0.102110	0.236756
C103	C	-3.609248	0.352110	0.486756
C104	C	-3.359248	0.602110	0.736756
