data_functionalizedCrystal
_audit_creation_method	'MofGen! by Chris Wilmer'
_symmetry_space_group_name_H-M	'P1'
_symmetry_Int_Tables_number	1
_symmetry_cell_setting	triclinic
loop_
_symmetry_equiv_pos_as_xyz
  x,y,z
_cell_length_a	11.169417
_cell_length_b	10.685194
_cell_length_c	11.169417
_cell_angle_alpha	94.382322
_cell_angle_beta	90.000551
_cell_angle_gamma	94.378522
loop_
_atom_site_label
_atom_site_type_symbol
_atom_site_fract_x
_atom_site_fract_y
_atom_site_fract_z
Zn1	Zn	1.798129	-0.502563	0.641859
Zn2	Zn	2.131462	-0.169230	0.975192
Zn3	Zn	2.464796	0.164104	1.308525
Zn4	Zn	1.782716	-0.713544	0.425780
Zn5	Zn	2.116050	-0.380211	0.759113
Zn6	Zn	2.449383	-0.046878	1.092446
Zn7	Zn	1.597482	-0.502550	0.441195
Zn8	Zn	1.930816	-0.169217	0.774528
Zn9	Zn	2.264149	0.164116	1.107862
Zn10	Zn	1.582055	-0.713534	0.626426
Zn11	Zn	1.915388	-0.380201	0.959759
Zn12	Zn	2.248721	-0.046868	1.293093
O13	O	1.690096	-0.608048	0.533815
O14	O	2.023429	-0.274715	0.867148
O15	O	2.356762	0.058619	1.200482
O16	O	1.964033	-0.530560	0.613202
O17	O	2.297367	-0.197227	0.946536
O18	O	2.630700	0.136107	1.279869
O19	O	1.758151	-0.685555	0.259875
O20	O	2.091484	-0.352221	0.593208
O21	O	2.424817	-0.018888	0.926542
O22	O	1.637005	-0.325958	0.480723
O23	O	1.970339	0.007375	0.814057
O24	O	2.303672	0.340709	1.147390
O25	O	1.952710	-0.685567	0.454450
O26	O	2.286043	-0.352234	0.787783
O27	O	2.619376	-0.018900	1.121117
O28	O	1.784420	-0.325968	0.628150
O29	O	2.117753	0.007366	0.961483
O30	O	2.451086	0.340699	1.294817
O31	O	1.622060	-0.530538	0.271201
O32	O	1.955394	-0.197205	0.604534
O33	O	2.288727	0.136129	0.937867
O34	O	1.427487	-0.530528	0.465759
O35	O	1.760820	-0.197195	0.799093
O36	O	2.094153	0.136139	1.132426
O37	O	1.610711	-0.685549	0.796423
O38	O	1.944044	-0.352216	1.129756
O39	O	2.277378	-0.018883	1.463090
O40	O	1.416152	-0.685537	0.601848
O41	O	1.749485	-0.352204	0.935181
O42	O	2.082819	-0.018870	1.268514
O43	O	1.769460	-0.530550	0.807761
O44	O	2.102793	-0.197217	1.141094
O45	O	2.436127	0.136117	1.474428
O46	O	1.743191	-0.890137	0.439486
O47	O	2.076524	-0.556804	0.772819
O48	O	2.409858	-0.223470	1.106153
O49	O	1.595766	-0.890129	0.586900
O50	O	1.929099	-0.556796	0.920233
O51	O	2.262432	-0.223463	1.253567
C52	C	1.378272	-0.608031	0.533802
C53	C	1.711605	-0.274698	0.867136
C54	C	2.044939	0.058636	1.200469
C55	C	1.244870	-0.608054	0.533823
C56	C	1.578204	-0.274721	0.867157
C57	C	1.911537	0.058613	1.200490
C58	C	1.666164	-0.935922	0.509872
C59	C	1.999498	-0.602589	0.843205
C60	C	2.332831	-0.269255	1.176538
C61	C	1.656036	-1.076188	0.499669
C62	C	1.989370	-0.742855	0.833002
C63	C	2.322703	-0.409521	1.166336
C64	C	2.003137	-0.608066	0.533828
C65	C	2.336470	-0.274733	0.867161
C66	C	2.669803	0.058601	1.200495
C67	C	2.136536	-0.608074	0.533834
C68	C	2.469869	-0.274740	0.867167
C69	C	2.803203	0.058593	1.200500
C70	C	1.690084	-0.608050	0.846857
C71	C	2.023417	-0.274717	1.180190
C72	C	2.356751	0.058617	1.513524
C73	C	1.690079	-0.608051	0.980257
C74	C	2.023412	-0.274717	1.313590
C75	C	2.356746	0.058616	1.646924
C76	C	1.714153	-0.278894	0.557878
C77	C	2.047486	0.054440	0.891211
C78	C	2.380819	0.387773	1.224544
C79	C	1.724405	-0.138628	0.568132
C80	C	2.057738	0.194706	0.901465
C81	C	2.391071	0.528039	1.234799
C82	C	1.690091	-0.608069	1.221989
C83	C	2.023425	-0.274736	1.555322
C84	C	2.356758	0.058598	1.888655
C85	C	1.690082	-0.608053	1.088590
C86	C	2.023415	-0.274719	1.421923
C87	C	2.356749	0.058614	1.755257
H88	H	1.589739	-1.130045	0.433250
H89	H	1.923072	-0.796711	0.766583
H90	H	2.256405	-0.463378	1.099916
H91	H	1.790688	-1.084779	0.634558
H92	H	2.124021	-0.751446	0.967891
H93	H	2.457354	-0.418112	1.301224
