data_functionalizedCrystal
_audit_creation_method	'MofGen! by Chris Wilmer'
_symmetry_space_group_name_H-M	'P1'
_symmetry_Int_Tables_number	1
_symmetry_cell_setting	triclinic
loop_
_symmetry_equiv_pos_as_xyz
  x,y,z
_cell_length_a	16.959454
_cell_length_b	16.959455
_cell_length_c	11.169409
_cell_angle_alpha	89.968630
_cell_angle_beta	90.032943
_cell_angle_gamma	89.984932
loop_
_atom_site_label
_atom_site_type_symbol
_atom_site_fract_x
_atom_site_fract_y
_atom_site_fract_z
Zn1	Zn	-0.314723	-1.208444	0.678907
Zn2	Zn	-0.446930	-1.208349	0.478222
Zn3	Zn	-0.314758	-1.076255	0.478201
Zn4	Zn	-0.446852	-1.076237	0.678827
O5	O	-0.380816	-1.142321	0.578539
O6	O	-0.332279	-1.319042	0.652329
O7	O	-0.429444	-1.190794	0.310269
O8	O	-0.204142	-1.093837	0.504850
O9	O	-0.429410	-1.318972	0.504886
O10	O	-0.204117	-1.190956	0.652308
O11	O	-0.332338	-1.093745	0.310254
O12	O	-0.332262	-0.965642	0.504772
O13	O	-0.429278	-1.093807	0.846787
O14	O	-0.429311	-0.965629	0.652171
O15	O	-0.332203	-1.190939	0.846846
O16	O	-0.557530	-1.190777	0.504808
O17	O	-0.557473	-1.093715	0.652191
C18	C	-0.380783	-0.936955	0.578461
C19	C	-0.380787	-0.849098	0.578456
C20	C	-0.431318	-0.477576	0.501669
C21	C	-0.330331	-0.477670	0.655440
C22	C	-0.330321	-0.560216	0.655418
C23	C	-0.380811	-0.601445	0.578522
C24	C	-0.431312	-0.560129	0.501647
C25	C	-0.279828	-0.601538	0.732300
C26	C	-0.279816	-0.684089	0.732282
C27	C	-0.330303	-0.725320	0.655378
C28	C	-0.380804	-0.683999	0.578500
C29	C	-0.431295	-0.725229	0.501603
C30	C	-0.481793	-0.683909	0.424718
C31	C	-0.481798	-0.601360	0.424744
C32	C	-0.330297	-0.807869	0.655353
C33	C	-0.431288	-0.807782	0.501582
C34	C	-0.586182	-1.142255	0.578519
C35	C	-0.674038	-1.142299	0.578550
C36	C	-1.045514	-1.091855	0.655273
C37	C	-1.045514	-1.193008	0.501927
C38	C	-0.962968	-1.192981	0.501916
C39	C	-0.921691	-1.142388	0.578584
C40	C	-0.962961	-1.091824	0.655262
C41	C	-0.921692	-1.243539	0.425231
C42	C	-0.839142	-1.243512	0.425215
C43	C	-0.797863	-1.192923	0.501890
C44	C	-0.839138	-1.142357	0.578573
C45	C	-0.797861	-1.091765	0.655240
C46	C	-0.839134	-1.041203	0.731930
C47	C	-0.921683	-1.041235	0.731937
C48	C	-0.715315	-1.192891	0.501883
C49	C	-0.715308	-1.091734	0.655229
C50	C	-0.174647	-1.142409	0.578586
C51	C	-0.086791	-1.142447	0.578606
C52	C	-0.380728	-1.142382	0.891582
C53	C	-0.380690	-1.142408	1.024982
C54	C	-0.380840	-0.348489	0.578597
C55	C	-0.380828	-0.436346	0.578566
C56	C	-0.380846	-1.142306	0.266715
C57	C	-0.380661	-1.142434	0.133315
H58	H	-0.238697	-0.717725	0.794886
H59	H	-1.079126	-1.234193	0.439501
C60	C	-0.793725	-0.985555	0.816259
H61	H	-0.738651	-0.992784	0.805266
H62	H	-0.807294	-0.932456	0.798620
H63	H	-0.807203	-0.997109	0.896925
H64	H	-0.522911	-0.567710	0.362147
C65	C	-0.967083	-0.985614	0.816272
H66	H	-1.022158	-0.992872	0.805284
H67	H	-0.953519	-0.997143	0.896932
H68	H	-0.953593	-0.932505	0.798605
H69	H	-0.289184	-0.841508	0.717954
C70	C	-0.669915	-1.248500	0.417536
H71	H	-0.614840	-1.241234	0.428505
H72	H	-0.683403	-1.301608	0.435179
H73	H	-0.683484	-1.236954	0.336877
H74	H	-0.955306	-1.284722	0.362803
C75	C	-0.486831	-0.853129	0.416999
H76	H	-0.516909	-0.816696	0.371224
H77	H	-0.456558	-0.885317	0.364777
H78	H	-0.521308	-0.885340	0.462825
C79	C	-0.486865	-0.432129	0.417105
H80	H	-0.479643	-0.377061	0.428131
H81	H	-0.475238	-0.445625	0.336494
H82	H	-0.539988	-0.445656	0.434541
C83	C	-0.669906	-1.036085	0.739565
H84	H	-0.614831	-1.043309	0.728582
H85	H	-0.683478	-0.982987	0.721924
H86	H	-0.683391	-1.047640	0.820228
H87	H	-0.805542	-1.284684	0.362772
H88	H	-0.289229	-0.444096	0.718053
H89	H	-0.522906	-0.717489	0.362115
H90	H	-0.238726	-0.567963	0.794912
C91	C	-1.090909	-1.036238	0.739622
H92	H	-1.145984	-1.043496	0.728649
H93	H	-1.077334	-1.047770	0.820277
H94	H	-1.077422	-0.983127	0.721957
