data_functionalizedCrystal
_audit_creation_method	'MofGen! by Chris Wilmer'
_symmetry_space_group_name_H-M	'P1'
_symmetry_Int_Tables_number	1
_symmetry_cell_setting	triclinic
loop_
_symmetry_equiv_pos_as_xyz
  x,y,z
_cell_length_a	18.050589
_cell_length_b	19.077236
_cell_length_c	19.077174
_cell_angle_alpha	85.294282
_cell_angle_beta	92.276796
_cell_angle_gamma	92.321157
loop_
_atom_site_label
_atom_site_type_symbol
_atom_site_fract_x
_atom_site_fract_y
_atom_site_fract_z
Zn1	Zn	-0.268141	1.093723	-0.441989
Zn2	Zn	0.065192	1.427056	-0.108656
Zn3	Zn	0.398526	1.760389	0.224677
Zn4	Zn	-0.387542	1.088901	-0.324108
Zn5	Zn	-0.054208	1.422234	0.009225
Zn6	Zn	0.279125	1.755567	0.342559
Zn7	Zn	-0.268152	0.971104	-0.319372
Zn8	Zn	0.065181	1.304437	0.013961
Zn9	Zn	0.398514	1.637771	0.347294
Zn10	Zn	-0.397080	0.975791	-0.437213
Zn11	Zn	-0.063746	1.309124	-0.103880
Zn12	Zn	0.269587	1.642457	0.229454
O13	O	-0.330229	1.032379	-0.380671
O14	O	0.003105	1.365713	-0.047337
O15	O	0.336438	1.699046	0.285996
O16	O	-0.279983	1.191736	-0.430333
O17	O	0.053350	1.525070	-0.097000
O18	O	0.386684	1.858403	0.236334
O19	O	-0.367717	1.069295	-0.224829
O20	O	-0.034384	1.402629	0.108504
O21	O	0.298949	1.735962	0.441837
O22	O	-0.164224	0.987426	-0.335654
O23	O	0.169109	1.320760	-0.002321
O24	O	0.502442	1.654093	0.331012
O25	O	-0.367706	1.188194	-0.343726
O26	O	-0.034373	1.521527	-0.010393
O27	O	0.298960	1.854860	0.322941
O28	O	-0.164216	1.077514	-0.425741
O29	O	0.169117	1.410847	-0.092407
O30	O	0.502451	1.744180	0.240926
O31	O	-0.280002	0.982751	-0.221350
O32	O	0.053331	1.316084	0.111983
O33	O	0.386664	1.649417	0.445317
O34	O	-0.289251	0.873072	-0.331023
O35	O	0.044082	1.206406	0.002310
O36	O	0.377415	1.539739	0.335643
O37	O	-0.383963	0.995414	-0.536497
O38	O	-0.050629	1.328747	-0.203164
O39	O	0.282704	1.662081	0.130170
O40	O	-0.383974	0.876516	-0.417600
O41	O	-0.050640	1.209849	-0.084267
O42	O	0.282693	1.543182	0.249066
O43	O	-0.289232	1.082058	-0.540006
O44	O	0.044101	1.415391	-0.206673
O45	O	0.377435	1.748725	0.126661
O46	O	-0.492733	1.073840	-0.339095
O47	O	-0.159400	1.407173	-0.005762
O48	O	0.173933	1.740506	0.327572
O49	O	-0.499741	0.990738	-0.422193
O50	O	-0.166407	1.324071	-0.088859
O51	O	0.166926	1.657405	0.244474
C52	C	-0.337649	0.849214	-0.373280
C53	C	-0.004316	1.182548	-0.039947
C54	C	0.329017	1.515881	0.293387
C55	C	-0.340842	0.770856	-0.370135
C56	C	-0.007509	1.104190	-0.036802
C57	C	0.325824	1.437523	0.296532
C58	C	-0.296748	0.735891	-0.413818
C59	C	0.036585	1.069225	-0.080485
C60	C	0.369919	1.402558	0.252849
C61	C	-0.299745	0.662265	-0.410857
C62	C	0.033589	0.995599	-0.077523
C63	C	0.366922	1.328932	0.255810
C64	C	-0.346840	0.623606	-0.364216
C65	C	-0.013507	0.956939	-0.030883
C66	C	0.319827	1.290272	0.302451
C67	C	-0.390936	0.658575	-0.320528
C68	C	-0.057603	0.991909	0.012805
C69	C	0.275731	1.325242	0.346138
C70	C	-0.387935	0.732200	-0.323486
C71	C	-0.054602	1.065533	0.009847
C72	C	0.278732	1.398867	0.343180
C73	C	-0.360700	0.403213	-0.350523
C74	C	-0.027367	0.736546	-0.017190
C75	C	0.305966	1.069880	0.316144
C76	C	-0.363700	0.329584	-0.347570
C77	C	-0.030366	0.662917	-0.014236
C78	C	0.302967	0.996250	0.319097
C79	C	-0.272507	0.333278	-0.437898
C80	C	0.060827	0.666612	-0.104564
C81	C	0.394160	0.999945	0.228769
C82	C	-0.269513	0.406904	-0.440854
C83	C	0.063820	0.740238	-0.107521
C84	C	0.397153	1.073571	0.225812
C85	C	-0.313606	0.441868	-0.397164
C86	C	0.019727	0.775201	-0.063831
C87	C	0.353060	1.108534	0.269502
N88	N	-0.349906	0.548348	-0.361190
N89	N	-0.016572	0.881681	-0.027856
N90	N	0.316761	1.215015	0.305477
N91	N	-0.310536	0.517124	-0.400188
N92	N	0.022797	0.850457	-0.066854
N93	N	0.356130	1.183791	0.266479
C94	C	-0.523184	1.032294	-0.380656
C95	C	-0.189850	1.365627	-0.047322
C96	C	0.143483	1.698961	0.286011
C97	C	-0.605729	1.032323	-0.380675
C98	C	-0.272396	1.365656	-0.047342
C99	C	0.060938	1.698989	0.285991
C100	C	-0.809015	0.987178	-0.425849
C101	C	-0.475682	1.320511	-0.092516
C102	C	-0.142348	1.653844	0.240817
C103	C	-0.856535	0.967413	-0.360830
C104	C	-0.523201	1.300746	-0.027497
C105	C	-0.189868	1.634079	0.305837
C106	C	-0.756857	1.032392	-0.380687
C107	C	-0.423524	1.365726	-0.047354
C108	C	-0.090190	1.699059	0.285979
C109	C	-0.856418	1.052192	-0.445715
C110	C	-0.523085	1.385526	-0.112382
C111	C	-0.189751	1.718859	0.220952
C112	C	-0.902840	1.032459	-0.380704
C113	C	-0.569507	1.365792	-0.047371
C114	C	-0.236173	1.699125	0.285962
C115	C	-0.803289	1.012592	-0.315633
C116	C	-0.469956	1.345925	0.017701
C117	C	-0.136623	1.679259	0.351034
C118	C	-0.803169	1.097403	-0.400562
C119	C	-0.469836	1.430737	-0.067229
C120	C	-0.136502	1.764070	0.266104
C121	C	-0.850664	1.077661	-0.335500
C122	C	-0.517330	1.410994	-0.002166
C123	C	-0.183997	1.744328	0.331167
C124	C	-0.672760	1.032352	-0.380678
C125	C	-0.339427	1.365686	-0.047345
C126	C	-0.006093	1.699019	0.285988
C127	C	-0.986935	1.032498	-0.380706
C128	C	-0.653602	1.365832	-0.047373
C129	C	-0.320268	1.699165	0.285960
C130	C	-0.136520	1.032485	-0.380702
C131	C	0.196813	1.365819	-0.047369
C132	C	0.530147	1.699152	0.285965
C133	C	-0.053973	1.032530	-0.380715
C134	C	0.279361	1.365864	-0.047382
C135	C	0.612694	1.699197	0.285951
C136	C	-0.337660	1.039797	-0.564546
C137	C	-0.004327	1.373130	-0.231212
C138	C	0.329007	1.706463	0.102121
C139	C	-0.340827	1.042957	-0.642902
C140	C	-0.007494	1.376291	-0.309569
C141	C	0.325840	1.709624	0.023764
C142	C	-0.322780	1.216260	-0.388091
C143	C	0.010554	1.549593	-0.054757
C144	C	0.343887	1.882926	0.278576
C145	C	-0.319605	1.294619	-0.391252
C146	C	0.013728	1.627952	-0.057919
C147	C	0.347062	1.961285	0.275414
C148	C	-0.296647	0.999385	-0.677903
C149	C	0.036686	1.332719	-0.344569
C150	C	0.370020	1.666052	-0.011236
C151	C	-0.299629	1.002352	-0.751527
C152	C	0.033704	1.335686	-0.418193
C153	C	0.367038	1.669019	-0.084860
C154	C	-0.346787	1.048896	-0.790150
C155	C	-0.013454	1.382229	-0.456816
C156	C	0.319880	1.715563	-0.123483
C157	C	-0.390972	1.092470	-0.755145
C158	C	-0.057639	1.425803	-0.421811
C159	C	0.275695	1.759137	-0.088478
C160	C	-0.387993	1.089499	-0.681522
C161	C	-0.054660	1.422832	-0.348188
C162	C	0.278673	1.756165	-0.014855
C163	C	-0.360596	1.062610	-1.010534
C164	C	-0.027262	1.395944	-0.677200
C165	C	0.306071	1.729277	-0.343867
C166	C	-0.363569	1.065580	-1.084162
C167	C	-0.030236	1.398913	-0.750828
C168	C	0.303098	1.732246	-0.417495
C169	C	-0.272227	0.975461	-1.080539
C170	C	0.061107	1.308794	-0.747205
C171	C	0.394440	1.642128	-0.413872
C172	C	-0.269249	0.972497	-1.006915
C173	C	0.064084	1.305830	-0.673581
C174	C	0.397417	1.639164	-0.340248
C175	C	-0.313437	1.016068	-0.971916
C176	C	0.019897	1.349402	-0.638582
C177	C	0.353230	1.682735	-0.305249
N178	N	-0.349834	1.051931	-0.865406
N179	N	-0.016501	1.385265	-0.532072
N180	N	0.316832	1.718598	-0.198739
N181	N	-0.310393	1.013029	-0.896661
N182	N	0.022940	1.346362	-0.563328
N183	N	0.356274	1.679695	-0.229994
C184	C	-0.322771	1.025032	-0.197513
C185	C	0.010562	1.358365	0.135821
C186	C	0.343896	1.691698	0.469154
C187	C	-0.319389	1.022008	-0.119162
C188	C	0.013944	1.355341	0.214172
C189	C	0.347277	1.688674	0.547505
H190	H	-0.258400	0.767363	-0.451800
H191	H	0.074933	1.100696	-0.118467
H192	H	0.408267	1.434030	0.214867
H193	H	-0.396605	0.431671	-0.314948
H194	H	-0.063272	0.765005	0.018385
H195	H	0.270062	1.098338	0.351719
Cl196	Cl	-0.892626	0.882575	-0.334879
Cl197	Cl	-0.559292	1.215908	-0.001546
Cl198	Cl	-0.225959	1.549242	0.331787
H199	H	-0.402054	0.298109	-0.309589
H200	H	-0.068721	0.631442	0.023745
H201	H	0.264613	0.964775	0.357078
H202	H	-0.236252	0.939987	-1.109043
H203	H	0.097081	1.273320	-0.775709
H204	H	0.430414	1.606654	-0.442376
H205	H	-0.423964	1.124985	-0.653026
H206	H	-0.090630	1.458318	-0.319692
H207	H	0.242703	1.791652	0.013641
H208	H	-0.790601	0.948880	-0.463982
H209	H	-0.457268	1.282214	-0.130649
H210	H	-0.123934	1.615547	0.202684
Cl211	Cl	-0.767053	1.182220	-0.426540
Cl212	Cl	-0.433719	1.515553	-0.093207
Cl213	Cl	-0.100386	1.848887	0.240126
Cl214	Cl	-0.892356	1.078007	-0.530608
Cl215	Cl	-0.559022	1.411340	-0.197275
Cl216	Cl	-0.225689	1.744673	0.136058
H217	H	-0.401972	1.103484	-1.115607
H218	H	-0.068639	1.436818	-0.782274
H219	H	0.264695	1.770151	-0.448940
H220	H	-0.263840	0.633800	-0.446429
H221	H	0.069494	0.967134	-0.113096
H222	H	0.402827	1.300467	0.220237
Cl223	Cl	-0.210310	0.455500	-0.499496
Cl224	Cl	0.123023	0.788833	-0.166162
Cl225	Cl	0.456357	1.122167	0.167171
Cl226	Cl	-0.217077	0.289320	-0.492817
Cl227	Cl	0.116256	0.622654	-0.159483
Cl228	Cl	0.449590	0.955987	0.173850
Cl229	Cl	-0.443371	0.776156	-0.268569
Cl230	Cl	-0.110038	1.109489	0.064764
Cl231	Cl	0.223295	1.442823	0.398098
Cl232	Cl	-0.450138	0.609974	-0.261890
Cl233	Cl	-0.116805	0.943308	0.071444
Cl234	Cl	0.216529	1.276641	0.404777
Cl235	Cl	-0.767501	0.986680	-0.230709
Cl236	Cl	-0.434168	1.320014	0.102624
Cl237	Cl	-0.100834	1.653347	0.435957
Cl238	Cl	-0.237355	0.940874	-0.629355
Cl239	Cl	0.095978	1.274207	-0.296022
Cl240	Cl	0.429311	1.607540	0.037312
H241	H	-0.263656	0.966869	-0.780020
H242	H	0.069677	1.300202	-0.446687
H243	H	0.403011	1.633535	-0.113354
Cl244	Cl	-0.416140	1.117392	-0.966545
Cl245	Cl	-0.082807	1.450725	-0.633211
Cl246	Cl	0.250526	1.784058	-0.299878
Cl247	Cl	-0.450262	1.150978	-0.803699
Cl248	Cl	-0.116929	1.484311	-0.470366
Cl249	Cl	0.216405	1.817644	-0.137033
Cl250	Cl	-0.878879	1.136738	-0.276478
Cl251	Cl	-0.545546	1.470072	0.056855
Cl252	Cl	-0.212213	1.803405	0.390188
H253	H	-0.230850	0.934594	-0.975472
H254	H	0.102483	1.267928	-0.642139
H255	H	0.435817	1.601261	-0.308806
