data_functionalizedCrystal
_audit_creation_method	'MofGen! by Chris Wilmer'
_symmetry_space_group_name_H-M	'P1'
_symmetry_Int_Tables_number	1
_symmetry_cell_setting	triclinic
loop_
_symmetry_equiv_pos_as_xyz
  x,y,z
_cell_length_a	10.654562
_cell_length_b	14.044190
_cell_length_c	9.730223
_cell_angle_alpha	89.993542
_cell_angle_beta	89.996961
_cell_angle_gamma	88.840940
loop_
_atom_site_label
_atom_site_type_symbol
_atom_site_fract_x
_atom_site_fract_y
_atom_site_fract_z
O1	O	1.681223	0.133286	-0.114398
O2	O	1.317021	0.145966	-0.114383
O3	O	1.493651	0.001605	-0.114363
O4	O	1.504593	0.277647	-0.114418
O5	O	1.493649	0.001609	0.114217
O6	O	1.317019	0.145970	0.114197
O7	O	1.681221	0.133289	0.114182
Zn8	Zn	1.499120	0.139630	0.150481
Zn9	Zn	1.499122	0.139625	-0.150683
O10	O	1.504592	0.277651	0.114162
C11	C	1.270129	0.145035	-0.000091
C12	C	1.130405	0.142241	-0.000084
C13	C	1.064743	0.140941	0.124505
C14	C	0.933458	0.138324	0.124482
C15	C	0.933509	0.138312	-0.124728
C16	C	1.064792	0.140923	-0.124704
C17	C	1.064712	0.140951	0.268385
C18	C	0.933427	0.138334	0.268362
C19	C	1.488863	-0.033739	-0.000069
C20	C	1.474584	-0.139060	-0.000057
C21	C	1.549749	-0.388849	-0.000114
C22	C	1.448499	-0.331889	-0.000100
C23	C	1.463016	-0.224589	-0.000076
C24	C	1.535234	-0.496160	-0.000138
C25	C	1.728114	0.134221	-0.000114
C26	C	1.867837	0.137014	-0.000130
C27	C	1.509379	0.312995	-0.000135
C28	C	1.523659	0.418315	-0.000157
N29	N	1.499127	0.139633	0.356018
N30	N	1.499124	0.139615	-0.356219
C31	C	1.577363	0.075732	0.427952
C32	C	1.577359	0.075720	0.571835
C33	C	1.420880	0.203520	0.571836
C34	C	1.420878	0.203526	0.427956
C35	C	1.667709	0.001950	0.427953
C36	C	1.667705	0.001939	0.571836
H37	H	1.101240	0.210133	0.313014
H38	H	0.893730	0.203892	0.323585
H39	H	1.350913	-0.363710	-0.000104
H40	H	0.880071	0.137239	-0.226190
H41	H	1.765850	0.018195	0.610879
H42	H	1.104381	0.075397	0.323650
H43	H	1.638937	-0.070961	0.388915
H44	H	1.647327	-0.357031	-0.000104
H45	H	1.118251	0.141967	-0.226156
H46	H	1.357170	0.255539	0.630424
H47	H	0.896884	0.069155	0.313022
H48	H	1.357161	0.255551	0.369388
H49	H	1.761215	0.025056	0.383318
H50	H	1.630266	-0.066962	0.616467
