data_functionalizedCrystal
_audit_creation_method	'MofGen! by Chris Wilmer'
_symmetry_space_group_name_H-M	'P1'
_symmetry_Int_Tables_number	1
_symmetry_cell_setting	triclinic
loop_
_symmetry_equiv_pos_as_xyz
  x,y,z
_cell_length_a	10.489741
_cell_length_b	10.489716
_cell_length_c	15.072220
_cell_angle_alpha	89.997008
_cell_angle_beta	90.009840
_cell_angle_gamma	84.534155
loop_
_atom_site_label
_atom_site_type_symbol
_atom_site_fract_x
_atom_site_fract_y
_atom_site_fract_z
O1	O	-1.694054	-0.179962	-0.073719
O2	O	-1.322856	-0.196855	-0.073732
O3	O	-1.516918	-0.002808	-0.073728
O4	O	-1.499992	-0.374008	-0.073723
O5	O	-1.516869	-0.002819	0.073837
O6	O	-1.322808	-0.196865	0.073833
O7	O	-1.694005	-0.179972	0.073846
Zn8	Zn	-1.508399	-0.188420	0.097269
Zn9	Zn	-1.508463	-0.188406	-0.097155
O10	O	-1.499944	-0.374018	0.073843
C11	C	-1.275301	-0.195584	0.000049
C12	C	-1.133672	-0.191767	0.000044
C13	C	-1.515622	0.044719	0.000052
C14	C	-1.511817	0.186350	0.000043
C15	C	-1.741561	-0.181243	0.000063
C16	C	-1.883190	-0.185060	0.000063
C17	C	-1.065542	-0.068301	0.000050
C18	C	-0.973434	-0.126620	-0.072705
C19	C	-0.973421	-0.126659	0.072783
C20	C	-1.043429	-0.250136	-0.072771
C21	C	-1.043425	-0.250159	0.072782
C22	C	-0.951344	-0.308568	0.000010
C23	C	-1.501240	-0.421545	0.000061
C24	C	-1.505044	-0.563176	0.000063
C25	C	-1.630822	0.284024	0.000056
C26	C	-1.567961	0.361389	-0.072702
C27	C	-1.567886	0.361343	0.072786
C28	C	-1.449006	0.261850	-0.072774
C29	C	-1.448948	0.261798	0.072779
C30	C	-1.386000	0.339115	0.000004
N31	N	-1.508365	-0.188429	0.229958
N32	N	-1.508507	-0.188388	-0.229843
C33	C	-1.508460	-0.188401	0.589159
C34	C	-1.404266	-0.291877	0.551550
C35	C	-1.404511	-0.292261	0.448725
C36	C	-1.508412	-0.188415	0.410955
C37	C	-1.641773	-0.218708	0.448252
C38	C	-1.641190	-0.219445	0.551110
C39	C	-1.480476	-0.054334	0.551256
C40	C	-1.477430	-0.055199	0.448393
C41	C	-1.508393	-0.188420	0.310242
C42	C	-1.508488	-0.188399	0.689873
H43	H	-0.942445	-0.074374	-0.134216
H44	H	-1.556445	0.022684	0.575576
H45	H	-1.074272	-0.302333	-0.134349
H46	H	-1.618127	0.404811	0.134295
H47	H	-0.901911	-0.410172	-0.000028
H48	H	-1.422506	-0.391724	0.424113
H49	H	-0.942427	-0.074400	0.134292
H50	H	-1.548297	0.025505	0.422685
N51	N	-1.382458	0.204115	0.154255
H52	H	-1.307717	0.141999	0.135716
H53	H	-1.350457	0.274440	0.191551
H54	H	-1.666801	-0.315413	0.422485
N55	N	-1.747064	-0.123491	0.584044
H56	H	-1.809017	-0.168795	0.621163
H57	H	-1.709125	-0.056491	0.621248
H58	H	-1.734335	0.259347	-0.000015
N59	N	-1.273257	-0.268120	0.415315
H60	H	-1.214718	-0.257135	0.467406
H61	H	-1.237290	-0.343255	0.378194
N62	N	-1.634517	0.419024	-0.154176
H63	H	-1.668081	0.348922	-0.190883
H64	H	-1.708178	0.482389	-0.135537
N65	N	-1.131311	0.066167	-0.000047
H66	H	-1.187221	0.079090	-0.054479
H67	H	-1.185901	0.079676	0.054957
N68	N	-1.084478	-0.319344	0.154260
H69	H	-1.059271	-0.272641	0.209194
H70	H	-1.180440	-0.322153	0.153280
H71	H	-1.398817	0.218551	-0.134353
N72	N	-1.248805	0.371544	-0.000067
H73	H	-1.204045	0.335017	-0.055057
H74	H	-1.247113	0.467645	0.000484
H75	H	-1.304858	-0.273930	0.576308
H76	H	-1.422021	-0.390780	0.577391
N77	N	-1.673609	-0.349002	0.582889
H78	H	-1.688142	-0.405098	0.530081
H79	H	-1.600480	-0.390256	0.619692
N80	N	-1.747004	-0.121603	0.415853
H81	H	-1.709149	-0.056887	0.376591
H82	H	-1.811625	-0.166634	0.380966
N83	N	-1.354353	-0.016162	0.585648
H84	H	-1.314076	-0.085398	0.626154
H85	H	-1.295168	-0.004324	0.534071
H86	H	-1.379322	-0.032238	0.424017
