data_functionalizedCrystal
_audit_creation_method	'MofGen! by Chris Wilmer'
_symmetry_space_group_name_H-M	'P1'
_symmetry_Int_Tables_number	1
_symmetry_cell_setting	triclinic
loop_
_symmetry_equiv_pos_as_xyz
  x,y,z
_cell_length_a	10.723024
_cell_length_b	15.995350
_cell_length_c	9.198806
_cell_angle_alpha	89.999047
_cell_angle_beta	89.996352
_cell_angle_gamma	83.980122
loop_
_atom_site_label
_atom_site_type_symbol
_atom_site_fract_x
_atom_site_fract_y
_atom_site_fract_z
O1	O	1.655690	0.117435	-0.120875
O2	O	2.155690	0.617435	0.379125
O3	O	1.292394	0.128675	-0.120879
O4	O	1.792394	0.628675	0.379121
O5	O	1.483973	0.001224	-0.120876
O6	O	1.983973	0.501224	0.379124
O7	O	1.464111	0.244886	-0.120879
O8	O	1.964111	0.744886	0.379121
O9	O	1.483957	0.001224	0.120909
O10	O	1.983957	0.501224	0.620909
O11	O	1.292379	0.128675	0.120906
O12	O	1.792379	0.628675	0.620906
O13	O	1.655674	0.117434	0.120910
O14	O	2.155674	0.617434	0.620910
Cu15	Cu	1.474025	0.123055	0.142985
Cu16	Cu	1.974025	0.623055	0.642985
Cu17	Cu	1.474043	0.123055	-0.142954
Cu18	Cu	1.974043	0.623055	0.357046
O19	O	1.464096	0.244885	0.120906
O20	O	1.964096	0.744885	0.620906
C21	C	1.245897	0.127857	0.000013
C22	C	1.745897	0.627857	0.500013
C23	C	1.107374	0.125410	0.000011
C24	C	1.607374	0.625410	0.500011
C25	C	1.031482	0.196725	0.000009
C26	C	1.531482	0.696725	0.500009
C27	C	0.888310	0.194197	0.000007
C28	C	1.388310	0.694197	0.500007
C29	C	1.483144	-0.029975	0.000014
C30	C	1.983144	0.470025	0.500014
C31	C	1.480682	-0.122940	0.000006
C32	C	1.980682	0.377060	0.500006
C33	C	1.471842	-0.460738	0.000011
C34	C	1.971842	0.039262	0.500011
C35	C	1.335403	-0.414088	-0.000533
C36	C	1.835403	0.085912	0.499467
C37	C	1.337865	-0.317383	0.000012
C38	C	1.837865	0.182617	0.500012
C39	C	1.476227	-0.293152	0.000007
C40	C	1.976227	0.206848	0.500007
C41	C	1.543515	-0.333843	0.138077
C42	C	2.043515	0.166157	0.638077
C43	C	1.540087	-0.430499	0.138192
C44	C	2.040087	0.069501	0.638192
C45	C	1.542923	-0.430840	-0.136763
C46	C	2.042923	0.069160	0.363237
C47	C	1.542891	-0.333895	-0.138587
C48	C	2.042891	0.166105	0.361413
C49	C	1.478712	-0.198441	0.000010
C50	C	1.978712	0.301559	0.500010
C51	C	1.469360	-0.555450	0.000017
C52	C	1.969360	-0.055450	0.500017
C53	C	1.702171	0.118252	0.000015
C54	C	2.202171	0.618252	0.500015
C55	C	1.840694	0.120700	0.000007
C56	C	2.340694	0.620700	0.500007
C57	C	1.464924	0.276085	0.000013
C58	C	1.964924	0.776085	0.500013
C59	C	1.467386	0.369049	0.000012
C60	C	1.967386	0.869049	0.500012
N61	N	1.474022	0.123054	0.344099
N62	N	1.974022	0.623054	0.844099
N63	N	1.474056	0.123049	-0.344068
N64	N	1.974056	0.623049	0.155932
C65	C	1.554463	0.069305	0.416297
C66	C	2.054463	0.569305	0.916297
C67	C	1.554482	0.069302	0.583709
C68	C	2.054482	0.569302	1.083709
H69	H	1.066355	0.062483	-0.000026
H70	H	1.566355	0.562483	0.499974
Cl71	Cl	1.094801	0.293884	0.000012
Cl72	Cl	1.594801	0.793884	0.500012
Cl73	Cl	0.941362	0.026433	-0.000002
Cl74	Cl	1.441362	0.526433	0.499998
H75	H	1.405162	0.169065	0.406225
H76	H	1.905162	0.669065	0.906225
H77	H	1.643519	-0.462023	-0.137694
H78	H	2.143519	0.037977	0.362306
Cl79	Cl	1.464306	-0.459194	0.297538
Cl80	Cl	1.964306	0.040806	0.797538
Cl81	Cl	1.256200	-0.273967	-0.152794
Cl82	Cl	1.756200	0.226033	0.347206
Cl83	Cl	0.787635	0.288460	-0.000007
Cl84	Cl	1.287635	0.788460	0.499993
H85	H	1.281105	-0.433994	0.097926
H86	H	1.781105	0.066006	0.597926
H87	H	1.623314	0.023287	0.354172
H88	H	2.123314	0.523287	0.854172
Cl89	Cl	1.251209	-0.443180	-0.153402
Cl90	Cl	1.751209	0.056820	0.346598
Cl91	Cl	1.255629	-0.274828	0.153076
Cl92	Cl	1.755629	0.225172	0.653076
H93	H	1.645165	-0.319134	0.143208
H94	H	2.145165	0.180866	0.643208
H95	H	1.623356	0.023288	0.645797
H96	H	2.123356	0.523288	1.145797
Cl97	Cl	1.694738	-0.479403	0.147880
Cl98	Cl	2.194738	0.020597	0.647880
H99	H	1.496767	-0.305731	0.240826
H100	H	1.996767	0.194269	0.740826
H101	H	1.405188	0.169072	0.593854
H102	H	1.905188	0.669072	1.093854
H103	H	1.498321	-0.451636	-0.241411
H104	H	1.998321	0.048364	0.258589
Cl105	Cl	1.467559	-0.291768	-0.296310
Cl106	Cl	1.967559	0.208232	0.203690
H107	H	1.643790	-0.317954	-0.146927
H108	H	2.143790	0.182046	0.353073
