data_functionalizedCrystal
_audit_creation_method	'MofGen! by Chris Wilmer'
_symmetry_space_group_name_H-M	'P1'
_symmetry_Int_Tables_number	1
_symmetry_cell_setting	triclinic
loop_
_symmetry_equiv_pos_as_xyz
  x,y,z
_cell_length_a	14.446369
_cell_length_b	31.640172
_cell_length_c	31.640172
_cell_angle_alpha	90.011976
_cell_angle_beta	60.008757
_cell_angle_gamma	59.999358
loop_
_atom_site_label
_atom_site_type_symbol
_atom_site_fract_x
_atom_site_fract_y
_atom_site_fract_z
Zr1	Zr	1.013105	0.407184	-0.055426
O2	O	1.206213	0.339692	-0.122917
O3	O	0.819989	0.427873	-0.034733
O4	O	1.013070	0.427871	-0.122902
O5	O	1.013163	0.339698	0.034797
O6	O	1.013051	0.497428	-0.122892
O7	O	1.013133	0.339695	-0.034749
O8	O	0.667665	0.497432	0.034825
O9	O	1.358549	0.339693	-0.122921
O10	O	0.899409	0.488607	-0.025904
O11	O	0.899446	0.436700	0.025990
O12	O	1.126774	0.436696	-0.077817
O13	O	1.126811	0.384789	-0.025923
Zr14	Zr	1.013123	0.518124	0.055507
Zr15	Zr	1.013075	0.518119	-0.055411
Zr16	Zr	1.013154	0.407188	0.055492
Zr17	Zr	1.256063	0.407185	-0.055431
Zr18	Zr	0.770165	0.518123	0.055512
O19	O	1.206239	0.497435	0.034814
O20	O	1.206170	0.497428	-0.122896
O21	O	1.206282	0.339699	0.034793
O22	O	0.820015	0.585615	0.122998
O23	O	0.819946	0.585609	-0.034712
O24	O	0.820058	0.427879	0.122977
O25	O	1.013065	0.585610	-0.034716
O26	O	1.013158	0.497437	0.122982
O27	O	1.013177	0.427880	0.122973
O28	O	1.013095	0.585613	0.034830
O29	O	1.358525	0.427872	-0.122909
O30	O	0.667703	0.497436	0.122990
O31	O	0.667679	0.585615	0.123001
O32	O	0.667640	0.585611	0.034837
O33	O	1.358588	0.339696	-0.034756
O34	O	1.358563	0.427875	-0.034744
O35	O	0.899454	0.488611	0.077898
O36	O	0.899417	0.540519	0.026004
O37	O	1.126782	0.488608	-0.025909
O38	O	1.126819	0.436701	0.025985
C39	C	0.709211	0.462653	0.000047
C40	C	0.606069	0.462652	0.000049
C41	C	1.013152	0.323891	0.000022
C42	C	1.013165	0.276796	0.000016
C43	C	0.459082	0.430071	0.032929
C44	C	0.566702	0.429894	0.032796
C45	C	0.655047	0.438767	-0.056354
C46	C	0.547814	0.438522	-0.056183
C47	C	0.372605	0.519142	0.023087
C48	C	0.478756	0.519059	0.024238
C49	C	0.894420	0.011886	0.027149
C50	C	0.894397	-0.165099	0.027159
O51	O	0.793462	-0.164940	0.050224
N52	N	1.013078	-0.214325	0.000060
C53	C	1.131773	-0.219305	-0.027040
O54	O	1.232718	-0.265236	-0.050084
C55	C	1.131795	-0.042320	-0.027047
C56	C	1.013106	0.006906	0.000049
C57	C	0.775741	0.061110	0.054243
C58	C	0.775747	0.105354	0.054238
C59	C	0.894433	0.100373	0.027139
C60	C	1.013113	0.051149	0.000044
C61	C	1.250488	-0.047300	-0.054144
C62	C	1.250483	-0.003049	-0.054142
C63	C	1.131794	0.046177	-0.027046
C64	C	1.131806	0.090412	-0.027061
N65	N	1.013124	0.139639	0.000038
C66	C	0.894438	0.144619	0.027138
C67	C	1.131754	-0.312222	-0.027035
C68	C	1.131749	-0.356468	-0.027034
C69	C	0.894372	-0.302259	0.027166
C70	C	0.894378	-0.258013	0.027161
C71	C	1.013073	-0.262996	0.000063
C72	C	0.894462	0.237531	0.027125
C73	C	0.894479	0.281776	0.027115
C74	C	1.131855	0.227563	-0.027082
C75	C	1.131839	0.183322	-0.027075
C76	C	1.013131	0.188310	0.000032
O77	O	1.232688	0.090292	-0.050108
O78	O	0.793508	0.190555	0.050188
C79	C	0.894413	-0.032357	0.027154
C80	C	1.013092	-0.081581	0.000060
C81	C	1.131778	-0.086561	-0.027040
C82	C	1.013087	-0.125827	0.000060
C83	C	0.894401	-0.120846	0.027160
C84	C	0.775720	-0.071620	0.054259
C85	C	0.775727	-0.027376	0.054254
C86	C	1.250459	-0.135788	-0.054139
C87	C	1.250443	-0.180029	-0.054132
C88	C	1.131757	-0.175049	-0.027032
C89	C	1.317017	0.462655	0.000034
C90	C	1.420159	0.462656	0.000032
C91	C	1.013053	0.462648	-0.138700
C92	C	1.013033	0.462647	-0.185788
C93	C	1.013076	0.601417	0.000059
C94	C	1.013063	0.648512	0.000065
C95	C	0.894422	0.489762	-0.494995
C96	C	0.894382	0.489754	-0.317996
O97	O	0.793445	0.512814	-0.272066
N98	N	1.013061	0.462656	-0.322960
C99	C	1.131759	0.435560	-0.372179
O100	O	1.232701	0.412516	-0.372340
C101	C	1.131797	0.435571	-0.549177
C102	C	1.013110	0.462667	-0.544209
C103	C	0.775745	0.516856	-0.490029
C104	C	0.775756	0.516856	-0.534277
C105	C	0.894444	0.489761	-0.583490
C106	C	1.013121	0.462667	-0.588456
C107	C	1.250493	0.408479	-0.598395
C108	C	1.250492	0.408485	-0.642645
C109	C	1.131805	0.435581	-0.637676
C110	C	1.131820	0.435571	-0.681917
N111	N	1.013141	0.462670	-0.676953
C112	C	0.894453	0.489764	-0.627739
C113	C	1.131730	0.435555	-0.279250
C114	C	1.131721	0.435552	-0.235001
C115	C	0.894344	0.489747	-0.180821
C116	C	0.894355	0.489747	-0.225072
C117	C	1.013051	0.462654	-0.274286
C118	C	0.894485	0.489761	-0.720664
C119	C	0.894507	0.489756	-0.764918
C120	C	1.131883	0.435563	-0.819094
C121	C	1.131862	0.435566	-0.774844
C122	C	1.013153	0.462668	-0.725628
O123	O	1.232705	0.412528	-0.727862
O124	O	0.793525	0.512815	-0.627589
C125	C	0.894411	0.489763	-0.450748
C126	C	1.013088	0.462668	-0.455714
C127	C	1.131776	0.435574	-0.504927
C128	C	1.013079	0.462665	-0.411465
C129	C	0.894390	0.489760	-0.362251
C130	C	0.775712	0.516858	-0.357287
C131	C	0.775723	0.516857	-0.401534
C132	C	1.250455	0.408475	-0.509892
C133	C	1.250434	0.408478	-0.465642
C134	C	1.131746	0.435572	-0.416428
C135	C	1.013175	0.462659	0.138781
C136	C	1.013195	0.462661	0.185869
C137	C	0.709172	0.601416	0.000065
C138	C	0.606017	0.648510	0.000074
C139	C	0.709271	0.462658	0.138788
C140	C	0.606150	0.462659	0.185877
C141	C	0.709233	0.601421	0.138806
C142	C	0.606098	0.648518	0.185902
C143	C	1.316995	0.323886	-0.138725
C144	C	1.420130	0.276790	-0.185821
C145	C	1.317056	0.323892	0.000016
C146	C	1.420211	0.276797	0.000007
C147	C	1.316957	0.462650	-0.138707
C148	C	1.420078	0.462648	-0.185796
C149	C	0.557570	0.643529	-0.027022
C150	C	0.460659	0.687775	-0.027025
C151	C	0.412189	0.737002	0.000072
C152	C	0.460646	0.741982	0.027169
C153	C	0.557562	0.697737	0.027168
C154	C	0.557727	0.489757	0.235091
C155	C	0.460847	0.489757	0.279341
C156	C	0.412385	0.462661	0.274376
C157	C	0.460817	0.435560	0.225157
C158	C	0.557702	0.435557	0.180908
C159	C	0.557646	0.697735	0.180930
C160	C	0.460754	0.741991	0.225177
C161	C	0.412309	0.737029	0.274396
C162	C	0.460771	0.687807	0.279366
C163	C	0.557668	0.643552	0.235120
C164	C	1.468594	0.227573	-0.180849
C165	C	1.565516	0.183317	-0.225097
C166	C	1.613966	0.188278	-0.274315
C167	C	1.565498	0.237500	-0.279286
C168	C	1.468584	0.281756	-0.235039
C169	C	1.468668	0.281778	0.027099
C170	C	1.565606	0.237532	0.027089
C171	C	1.614079	0.188305	-0.000010
C172	C	1.565618	0.183325	-0.027105
C173	C	1.468688	0.227571	-0.027098
C174	C	1.468510	0.489749	-0.180814
C175	C	1.565391	0.489758	-0.225056
C176	C	1.613845	0.462662	-0.274278
C177	C	1.565403	0.435560	-0.279259
C178	C	1.468518	0.435555	-0.235018
H179	H	0.370228	0.446008	0.074565
H180	H	1.429125	0.321829	-0.239093
H181	H	0.596995	0.701800	0.049236
N182	N	0.647709	-0.066254	0.083492
H183	H	0.572514	-0.028357	0.100660
H184	H	0.642528	-0.083437	0.058618
H185	H	1.347101	-0.220110	-0.076202
N186	N	1.416418	0.334869	0.056322
H187	H	1.347659	0.362148	0.052219
H188	H	1.376307	0.338970	0.094211
N189	N	1.416356	0.222217	-0.127766
H190	H	1.319080	0.239364	-0.108197
H191	H	1.461871	0.184311	-0.131380
H192	H	1.604962	0.143242	-0.221039
H193	H	0.597174	0.511822	0.239144
H194	H	1.228368	0.413481	-0.239053
H195	H	0.421168	0.782069	0.049230
N196	N	0.408533	0.406341	0.219803
H197	H	0.425405	0.379076	0.236951
H198	H	0.311266	0.431237	0.236957
N199	N	0.408618	0.518991	0.332422
H200	H	0.454014	0.536159	0.328849
H201	H	0.311333	0.546231	0.351967
H202	H	1.604958	0.241534	-0.319364
H203	H	0.797854	0.511820	-0.760867
H204	H	1.605099	0.143239	-0.049168
N205	N	0.307778	0.784762	0.322119
H206	H	0.341498	0.784791	0.343419
H207	H	0.284469	0.816667	0.311459
H208	H	1.692879	0.152239	-0.310339
N209	N	0.307880	0.462667	0.322101
H210	H	0.341626	0.447249	0.343392
H211	H	0.227508	0.499380	0.343359
H212	H	0.597115	0.413493	0.140837
N213	N	1.416428	0.222194	-0.056319
H214	H	1.461848	0.184295	-0.073484
H215	H	1.319152	0.239369	-0.031440
H216	H	1.605047	0.241597	0.049155
N217	N	1.416262	0.518975	-0.127728
H218	H	1.461652	0.536145	-0.131293
H219	H	1.318978	0.546215	-0.108186
H220	H	0.597033	0.603450	-0.049095
N221	N	0.609874	0.703094	0.127848
H222	H	0.564467	0.740991	0.131421
H223	H	0.707157	0.685912	0.108304
H224	H	0.421306	0.782066	0.221121
H225	H	0.679087	0.065175	0.076314
N226	N	1.718625	0.140585	-0.000015
H227	H	1.741957	0.151216	0.021262
H228	H	1.684839	0.119307	0.015391
H229	H	0.421313	0.683775	0.319446
N230	N	1.259779	0.406326	-0.332325
H231	H	1.265111	0.379054	-0.351909
H232	H	1.265012	0.431210	-0.351842
N233	N	1.718336	0.462678	-0.321989
H234	H	1.798748	0.447262	-0.322007
H235	H	1.741585	0.441412	-0.353906
H236	H	0.597105	0.603479	0.239175
N237	N	1.259758	-0.409561	-0.056263
H238	H	1.311638	-0.413712	-0.094166
H239	H	1.311548	-0.413670	-0.042011
N240	N	0.766453	0.518993	-0.667586
H241	H	0.691283	0.536154	-0.671162
H242	H	0.761282	0.494113	-0.648055
N243	N	1.617622	0.518992	-0.219677
H244	H	1.572229	0.536151	-0.181781
H245	H	1.714908	0.494116	-0.236860
H246	H	0.797731	-0.217933	0.049230
N247	N	1.378511	0.379261	-0.695728
H248	H	1.383792	0.404115	-0.715284
H249	H	1.453620	0.362097	-0.692117
N250	N	1.617671	0.406337	-0.332351
H251	H	1.686399	0.410454	-0.359617
H252	H	1.657830	0.368442	-0.336458
N253	N	1.416288	0.406322	-0.240395
H254	H	1.461693	0.389159	-0.278292
H255	H	1.433180	0.379077	-0.223228
H256	H	0.530006	0.445916	0.074329
H257	H	0.494849	0.388651	0.017078
H258	H	0.588515	0.396956	-0.074640
N259	N	0.684340	0.374703	0.011618
H260	H	0.718876	0.358075	-0.024872
H261	H	0.754736	0.374397	0.011479
N262	N	0.518680	0.467921	-0.090416
H263	H	0.486782	0.504742	-0.076769
H264	H	0.600927	0.450686	-0.126837
N265	N	0.693075	0.468710	-0.090221
H266	H	0.678898	0.498114	-0.069279
H267	H	0.788372	0.444921	-0.120231
H268	H	0.747357	0.397598	-0.074936
H269	H	0.797704	0.511807	-0.140743
H270	H	0.278871	0.539098	0.063981
H271	H	0.439169	0.536903	0.065790
H272	H	1.347141	-0.007112	-0.076202
N273	N	0.647730	0.158443	0.083474
H274	H	0.665723	0.185723	0.079366
H275	H	0.595882	0.162542	0.069256
N276	N	0.507200	0.553931	-0.004198
H277	H	0.483181	0.583658	0.020555
H278	H	0.603450	0.533527	-0.033292
H279	H	0.421217	0.683710	-0.049090
N280	N	1.378506	0.379259	-0.603761
H281	H	1.453684	0.362102	-0.641655
H282	H	1.383653	0.404144	-0.586573
H283	H	0.346613	0.543534	-0.000759
H284	H	0.797799	0.241600	0.049198
N285	N	0.766453	0.334869	0.056340
H286	H	0.714576	0.339021	0.094244
H287	H	0.784560	0.362114	0.052186
N288	N	0.766358	-0.296890	0.056393
H289	H	0.784376	-0.332392	0.052280
H290	H	0.714546	-0.277321	0.094284
H291	H	1.347138	-0.087376	-0.076208
N292	N	1.259782	-0.317602	-0.056270
H293	H	1.334954	-0.355502	-0.073437
H294	H	1.264937	-0.300429	-0.083508
H295	H	1.228486	0.223517	-0.049148
N296	N	1.259848	0.130226	-0.056308
H297	H	1.335035	0.133787	-0.073478
H298	H	1.265032	0.110693	-0.031430
H299	H	1.347110	-0.139851	-0.076208
N300	N	0.647712	0.025714	0.083476
H301	H	0.572535	0.022148	0.100642
H302	H	0.642541	0.045261	0.110715
H303	H	0.679109	0.538922	-0.530225
H304	H	0.679089	0.538923	-0.449960
H305	H	1.228507	0.413494	-0.778891
N306	N	0.766347	0.518977	-0.219713
H307	H	0.714464	0.504763	-0.200179
H308	H	0.714561	0.556875	-0.200170
N309	N	1.259895	0.406341	-0.872176
H310	H	1.265201	0.379073	-0.891754
H311	H	1.265088	0.431233	-0.891687
N312	N	0.647709	0.546091	-0.396172
H313	H	0.595821	0.531880	-0.376634
H314	H	0.595934	0.583988	-0.376630
N315	N	0.647695	0.546083	-0.304202
H316	H	0.665712	0.541970	-0.276928
H317	H	0.595866	0.583978	-0.300098
H318	H	1.347107	0.386412	-0.549960
N319	N	1.378455	0.379250	-0.471005
H320	H	1.453638	0.362089	-0.508898
H321	H	1.383605	0.404134	-0.453818
H322	H	0.333272	0.773026	0.000069
