data_functionalizedCrystal
_audit_creation_method	'MofGen! by Chris Wilmer'
_symmetry_space_group_name_H-M	'P1'
_symmetry_Int_Tables_number	1
_symmetry_cell_setting	triclinic
loop_
_symmetry_equiv_pos_as_xyz
  x,y,z
_cell_length_a	11.792254
_cell_length_b	9.065218
_cell_length_c	10.868271
_cell_angle_alpha	89.999075
_cell_angle_beta	90.005992
_cell_angle_gamma	84.607241
loop_
_atom_site_label
_atom_site_type_symbol
_atom_site_fract_x
_atom_site_fract_y
_atom_site_fract_z
O1	O	-1.508023	-0.202305	-0.102352
O2	O	-1.174690	0.131029	0.230982
O3	O	-0.841357	0.464362	0.564315
O4	O	-1.177800	-0.223126	-0.102346
O5	O	-0.844466	0.110207	0.230987
O6	O	-0.511133	0.443540	0.564321
O7	O	-1.349737	0.001991	-0.102346
O8	O	-1.016404	0.335324	0.230987
O9	O	-0.683070	0.668657	0.564320
O10	O	-1.336086	-0.427421	-0.102351
O11	O	-1.002752	-0.094088	0.230982
O12	O	-0.669419	0.239245	0.564315
O13	O	-1.349720	0.001981	0.102298
O14	O	-1.016386	0.335314	0.435632
O15	O	-0.683053	0.668648	0.768965
O16	O	-1.177782	-0.223136	0.102299
O17	O	-0.844449	0.110197	0.435632
O18	O	-0.511116	0.443531	0.768965
O19	O	-1.508006	-0.202314	0.102293
O20	O	-1.174673	0.131019	0.435626
O21	O	-0.841339	0.464353	0.768960
Zn22	Zn	-1.342891	-0.212726	0.134788
Zn23	Zn	-1.009558	0.120607	0.468121
Zn24	Zn	-0.676225	0.453940	0.801454
Zn25	Zn	-1.342914	-0.212714	-0.134841
Zn26	Zn	-1.009581	0.120619	0.198493
Zn27	Zn	-0.676248	0.453953	0.531826
O28	O	-1.336068	-0.427431	0.102293
O29	O	-1.002735	-0.094098	0.435627
O30	O	-0.669402	0.239236	0.768960
C31	C	-1.135493	-0.221819	-0.000023
C32	C	-0.802160	0.111514	0.333310
C33	C	-0.468826	0.444847	0.666644
C34	C	-1.009458	-0.217894	-0.000021
C35	C	-0.676125	0.115440	0.333312
C36	C	-0.342792	0.448773	0.666646
C37	C	-0.907104	-0.214704	-0.000024
C38	C	-0.573771	0.118630	0.333310
C39	C	-0.240437	0.451963	0.666643
C40	C	-0.778695	-0.210715	-0.000021
C41	C	-0.445362	0.122618	0.333312
C42	C	-0.112029	0.455952	0.666645
C43	C	-0.550313	-0.203621	-0.000027
C44	C	-0.216979	0.129712	0.333307
C45	C	0.116354	0.463046	0.666640
C46	C	-0.676347	-0.207547	-0.000019
C47	C	-0.343014	0.125786	0.333314
C48	C	-0.009681	0.459120	0.666648
N49	N	-1.342884	-0.212734	0.318802
N50	N	-1.009551	0.120599	0.652135
N51	N	-0.676217	0.453933	0.985468
C52	C	-1.348416	0.056960	-0.000026
C53	C	-1.015083	0.390294	0.333307
C54	C	-0.681750	0.723627	0.666641
C55	C	-1.344494	0.220767	-0.000032
C56	C	-1.011160	0.554100	0.333301
C57	C	-0.677827	0.887433	0.666635
C58	C	-1.337389	-0.482401	-0.000030
C59	C	-1.004056	-0.149067	0.333304
C60	C	-0.670722	0.184266	0.666637
C61	C	-1.341312	-0.646207	-0.000032
C62	C	-1.007979	-0.312874	0.333301
C63	C	-0.674645	0.020460	0.666635
C64	C	-1.342892	-0.212736	0.430139
C65	C	-1.009559	0.120597	0.763473
C66	C	-0.676225	0.453931	1.096806
C67	C	-1.342906	-0.212724	0.569817
C68	C	-1.009572	0.120609	0.903150
C69	C	-0.676239	0.453943	1.236483
N70	N	-1.342923	-0.212706	0.681145
N71	N	-1.009589	0.120628	1.014479
N72	N	-0.676256	0.453961	1.347812
