data_functionalizedCrystal
_audit_creation_method	'MofGen! by Chris Wilmer'
_symmetry_space_group_name_H-M	'P1'
_symmetry_Int_Tables_number	1
_symmetry_cell_setting	triclinic
loop_
_symmetry_equiv_pos_as_xyz
  x,y,z
_cell_length_a	18.101398
_cell_length_b	18.101397
_cell_length_c	21.395355
_cell_angle_alpha	89.980066
_cell_angle_beta	89.980111
_cell_angle_gamma	90.018618
loop_
_atom_site_label
_atom_site_type_symbol
_atom_site_fract_x
_atom_site_fract_y
_atom_site_fract_z
Zn1	Zn	1.132216	-0.294952	-0.354177
Zn2	Zn	1.465550	0.038381	-0.020844
Zn3	Zn	1.798883	0.371715	0.312489
Zn4	Zn	1.132123	-0.418775	-0.249397
Zn5	Zn	1.465456	-0.085442	0.083936
Zn6	Zn	1.798790	0.247891	0.417269
Zn7	Zn	1.008363	-0.294948	-0.249423
Zn8	Zn	1.341696	0.038385	0.083911
Zn9	Zn	1.675030	0.371719	0.417244
Zn10	Zn	1.008349	-0.418752	-0.354146
Zn11	Zn	1.341682	-0.085419	-0.020813
Zn12	Zn	1.675016	0.247915	0.312521
O13	O	1.070263	-0.356857	-0.301786
O14	O	1.403596	-0.023523	0.031548
O15	O	1.736929	0.309810	0.364881
O16	O	1.235837	-0.311389	-0.340281
O17	O	1.569170	0.021945	-0.006947
O18	O	1.902503	0.355278	0.326386
O19	O	1.115673	-0.402357	-0.161723
O20	O	1.449006	-0.069024	0.171611
O21	O	1.782340	0.264309	0.504944
O22	O	1.024837	-0.191316	-0.263342
O23	O	1.358171	0.142018	0.069991
O24	O	1.691504	0.475351	0.403324
O25	O	1.235768	-0.402361	-0.263299
O26	O	1.569102	-0.069028	0.070034
O27	O	1.902435	0.264306	0.403368
O28	O	1.115832	-0.191318	-0.340305
O29	O	1.449165	0.142015	-0.006972
O30	O	1.782498	0.475348	0.326362
O31	O	1.024747	-0.311382	-0.161741
O32	O	1.358081	0.021951	0.171592
O33	O	1.691414	0.355285	0.504925
O34	O	0.904728	-0.311360	-0.263312
O35	O	1.238062	0.021974	0.070022
O36	O	1.571395	0.355307	0.403355
O37	O	1.024813	-0.402322	-0.441828
O38	O	1.358146	-0.068988	-0.108495
O39	O	1.691480	0.264345	0.224839
O40	O	0.904718	-0.402318	-0.340252
O41	O	1.238051	-0.068985	-0.006918
O42	O	1.571385	0.264349	0.326415
O43	O	1.115818	-0.311366	-0.441851
O44	O	1.449151	0.021967	-0.108518
O45	O	1.782485	0.355300	0.224816
O46	O	1.115659	-0.522405	-0.263269
O47	O	1.448993	-0.189072	0.070065
O48	O	1.782326	0.144262	0.403398
O49	O	1.024723	-0.522388	-0.340227
O50	O	1.358056	-0.189055	-0.006894
O51	O	1.691389	0.144279	0.326440
C52	C	0.877852	-0.356836	-0.301781
C53	C	1.211186	-0.023503	0.031552
C54	C	1.544519	0.309830	0.364885
C55	C	0.795538	-0.356846	-0.301794
C56	C	1.128872	-0.023512	0.031539
C57	C	1.462205	0.309821	0.364872
C58	C	0.644830	-0.356859	-0.301793
C59	C	0.978163	-0.023526	0.031540
C60	C	1.311496	0.309807	0.364873
C61	C	0.613494	-0.414176	-0.350127
C62	C	0.946828	-0.080843	-0.016794
C63	C	1.280161	0.252491	0.316540
C64	C	0.527876	-0.414408	-0.349984
C65	C	0.861209	-0.081075	-0.016650
C66	C	1.194543	0.252259	0.316683
C67	C	0.496447	-0.356873	-0.301793
C68	C	0.829781	-0.023540	0.031540
C69	C	1.163114	0.309794	0.364873
C70	C	0.527496	-0.377685	-0.235681
C71	C	0.860830	-0.044351	0.097652
C72	C	1.194163	0.288982	0.430985
C73	C	0.613141	-0.378093	-0.235961
C74	C	0.946475	-0.044759	0.097373
C75	C	1.279808	0.288574	0.430706
C76	C	0.613296	-0.278589	-0.318995
C77	C	0.946629	0.054744	0.014338
C78	C	1.279963	0.388078	0.347672
C79	C	0.527646	-0.279018	-0.320451
C80	C	0.860979	0.054315	0.012882
C81	C	1.194313	0.387648	0.346216
C82	C	0.412588	-0.356879	-0.301789
C83	C	0.745921	-0.023546	0.031544
C84	C	1.079254	0.309787	0.364877
C85	C	0.728689	-0.356855	-0.301793
C86	C	1.062023	-0.023521	0.031540
C87	C	1.395356	0.309812	0.364874
C88	C	1.070199	-0.549267	-0.301755
C89	C	1.403533	-0.215934	0.031578
C90	C	1.736866	0.117399	0.364911
C91	C	1.070240	-0.631581	-0.301763
C92	C	1.403573	-0.298248	0.031570
C93	C	1.736907	0.035085	0.364903
C94	C	1.070335	-0.930672	-0.301821
C95	C	1.403668	-0.597339	0.031513
C96	C	1.737001	-0.264006	0.364846
C97	C	1.127390	-0.899327	-0.253271
C98	C	1.460723	-0.565994	0.080063
C99	C	1.794056	-0.232660	0.413396
C100	C	1.127587	-0.813708	-0.253396
C101	C	1.460921	-0.480375	0.079937
C102	C	1.794254	-0.147042	0.413270
C103	C	1.070288	-0.782290	-0.301792
C104	C	1.403621	-0.448957	0.031542
C105	C	1.736954	-0.115623	0.364875
C106	C	1.091451	-0.813312	-0.367833
C107	C	1.424785	-0.479979	-0.034499
C108	C	1.758118	-0.146646	0.298834
C109	C	1.091893	-0.898957	-0.367568
C110	C	1.425226	-0.565624	-0.034235
C111	C	1.758559	-0.232291	0.299098
C112	C	0.991964	-0.899175	-0.284901
C113	C	1.325297	-0.565842	0.048433
C114	C	1.658631	-0.232508	0.381766
C115	C	0.992351	-0.813525	-0.283426
C116	C	1.325684	-0.480192	0.049907
C117	C	1.659017	-0.146859	0.383240
C118	C	1.070260	-0.698430	-0.301779
C119	C	1.403593	-0.365097	0.031554
C120	C	1.736927	-0.031764	0.364887
C121	C	1.070364	-1.014532	-0.301837
C122	C	1.403698	-0.681199	0.031496
C123	C	1.737031	-0.347865	0.364829
C124	C	1.263425	-0.356878	-0.301790
C125	C	1.596758	-0.023544	0.031543
C126	C	1.930091	0.309789	0.364876
C127	C	1.345739	-0.356887	-0.301792
C128	C	1.679072	-0.023553	0.031541
C129	C	2.012405	0.309780	0.364874
C130	C	1.070324	-0.356842	-0.465209
C131	C	1.403658	-0.023508	-0.131876
C132	C	1.736991	0.309825	0.201458
C133	C	1.070350	-0.356835	-0.534850
C134	C	1.403684	-0.023502	-0.201517
C135	C	1.737017	0.309831	0.131816
C136	C	1.070347	-0.163695	-0.301830
C137	C	1.403680	0.169638	0.031503
C138	C	1.737013	0.502972	0.364837
C139	C	1.070382	-0.081381	-0.301849
C140	C	1.403716	0.251953	0.031485
C141	C	1.737049	0.585286	0.364818
C142	C	1.117735	-0.309473	-0.567576
C143	C	1.451068	0.023860	-0.234243
C144	C	1.784401	0.357194	0.099090
C145	C	1.117734	-0.309441	-0.633012
C146	C	1.451067	0.023892	-0.299679
C147	C	1.784400	0.357226	0.033655
C148	C	1.070356	-0.356785	-0.665719
C149	C	1.403690	-0.023452	-0.332385
C150	C	1.737023	0.309882	0.000948
C151	C	1.022963	-0.404151	-0.632985
C152	C	1.356296	-0.070817	-0.299651
C153	C	1.689630	0.262516	0.033682
C154	C	1.022960	-0.404176	-0.567551
C155	C	1.356293	-0.070843	-0.234217
C156	C	1.689627	0.262491	0.099116
C157	C	1.064487	-0.423466	-0.769383
C158	C	1.397820	-0.090133	-0.436050
C159	C	1.731153	0.243201	-0.102717
C160	C	1.064495	-0.423442	-0.834816
C161	C	1.397828	-0.090109	-0.501483
C162	C	1.731161	0.243224	-0.168150
C163	C	1.070361	-0.356707	-0.867540
C164	C	1.403694	-0.023373	-0.534206
C165	C	1.737027	0.309960	-0.200873
C166	C	1.076234	-0.289993	-0.834822
C167	C	1.409568	0.043340	-0.501489
C168	C	1.742901	0.376673	-0.168155
C169	C	1.076231	-0.290018	-0.769388
C170	C	1.409565	0.043315	-0.436054
C171	C	1.742898	0.376648	-0.102721
C172	C	1.070354	-0.356763	-0.736671
C173	C	1.403687	-0.023429	-0.403338
C174	C	1.737020	0.309904	-0.070004
C175	C	1.117746	-0.309306	-0.971218
C176	C	1.451080	0.024028	-0.637885
C177	C	1.784413	0.357361	-0.304552
C178	C	1.117740	-0.309273	-1.036655
C179	C	1.451074	0.024061	-0.703322
C180	C	1.784407	0.357394	-0.369988
C181	C	1.022973	-0.403989	-1.036627
C182	C	1.356307	-0.070656	-0.703293
C183	C	1.689640	0.262678	-0.369960
C184	C	1.022976	-0.404015	-0.971191
C185	C	1.356309	-0.070682	-0.637858
C186	C	1.689642	0.262651	-0.304524
C187	C	1.070366	-0.356675	-0.938491
C188	C	1.403699	-0.023341	-0.605158
C189	C	1.737033	0.309992	-0.271824
C190	C	1.070244	-0.356818	-0.138998
C191	C	1.403578	-0.023485	0.194335
C192	C	1.736911	0.309848	0.527668
C193	C	1.070361	-0.356616	-0.069357
C194	C	1.403695	-0.023283	0.263976
C195	C	1.737028	0.310051	0.597309
H196	H	1.114346	-0.792736	-0.204428
H197	H	1.447680	-0.459402	0.128906
H198	H	1.781013	-0.126069	0.462239
H199	H	1.148096	-0.791810	-0.382408
H200	H	1.481429	-0.458477	-0.049075
H201	H	1.814762	-0.125143	0.284259
H202	H	0.634992	-0.471845	-0.338852
H203	H	0.968325	-0.138512	-0.005519
H204	H	1.301658	0.194821	0.327814
O205	O	0.977029	-0.450135	-0.939427
O206	O	1.310362	-0.116802	-0.606093
O207	O	1.643696	0.216531	-0.272760
C208	C	0.993168	-0.523940	-0.955431
C209	C	1.326502	-0.190607	-0.622098
C210	C	1.659835	0.142726	-0.288764
H211	H	1.052330	-0.527681	-0.973433
H212	H	1.385664	-0.194347	-0.640100
H213	H	1.718997	0.138986	-0.306766
H214	H	0.986769	-0.560544	-0.912397
H215	H	1.320102	-0.227210	-0.579064
H216	H	1.653435	0.106123	-0.245730
H217	H	0.953458	-0.543277	-0.993403
H218	H	1.286791	-0.209944	-0.660070
H219	H	1.620124	0.123389	-0.326736
H220	H	1.059717	-0.477764	-0.861450
H221	H	1.393050	-0.144431	-0.528117
H222	H	1.726383	0.188902	-0.194783
O223	O	0.938950	-0.788104	-0.322605
O224	O	1.272284	-0.454770	0.010729
O225	O	1.605617	-0.121437	0.344062
C226	C	0.955165	-0.810160	-0.384297
C227	C	1.288498	-0.476826	-0.050963
C228	C	1.621832	-0.143493	0.282370
H229	H	0.992579	-0.860792	-0.383260
H230	H	1.325913	-0.527459	-0.049926
H231	H	1.659246	-0.194125	0.283407
H232	H	0.901654	-0.824330	-0.409695
H233	H	1.234987	-0.490997	-0.076361
H234	H	1.568320	-0.157663	0.256972
H235	H	0.984372	-0.763194	-0.409822
H236	H	1.317705	-0.429860	-0.076489
H237	H	1.651039	-0.096527	0.256845
O238	O	0.969120	-0.925039	-0.228422
O239	O	1.302454	-0.591705	0.104911
O240	O	1.635787	-0.258372	0.438244
C241	C	1.023648	-0.972076	-0.203333
C242	C	1.356982	-0.638742	0.130001
C243	C	1.690315	-0.305409	0.463334
H244	H	1.079493	-0.958240	-0.225034
H245	H	1.412826	-0.624907	0.108300
H246	H	1.746159	-0.291574	0.441633
H247	H	1.026623	-0.964055	-0.150547
H248	H	1.359956	-0.630722	0.182786
H249	H	1.693289	-0.297388	0.516120
H250	H	1.008923	-1.031966	-0.214128
H251	H	1.342256	-0.698633	0.119205
H252	H	1.675589	-0.365299	0.452538
H253	H	0.633869	-0.338129	-0.198713
H254	H	0.967202	-0.004796	0.134620
H255	H	1.300536	0.328538	0.467954
H256	H	1.059512	-0.477796	-0.742746
H257	H	1.392845	-0.144463	-0.409412
H258	H	1.726178	0.188870	-0.076079
H259	H	1.052157	-0.919691	-0.404988
H260	H	1.385490	-0.586357	-0.071655
H261	H	1.718824	-0.253024	0.261679
H262	H	1.185125	-0.920799	-0.264336
H263	H	1.518458	-0.587466	0.068997
H264	H	1.851792	-0.254133	0.402330
H265	H	0.976393	-0.793256	-0.234825
H266	H	1.309726	-0.459922	0.098508
H267	H	1.643060	-0.126589	0.431841
H268	H	1.156325	-0.270700	-1.063299
H269	H	1.489658	0.062633	-0.729966
H270	H	1.822992	0.395967	-0.396633
O271	O	1.196892	-0.789289	-0.266682
O272	O	1.530226	-0.455956	0.066652
O273	O	1.863559	-0.122623	0.399985
C274	C	1.246496	-0.815518	-0.220989
C275	C	1.579829	-0.482185	0.112345
C276	C	1.913163	-0.148851	0.445678
H277	H	1.222548	-0.867007	-0.197916
H278	H	1.555881	-0.533674	0.135418
H279	H	1.889215	-0.200341	0.468751
H280	H	1.301491	-0.829780	-0.243984
H281	H	1.634824	-0.496447	0.089349
H282	H	1.968157	-0.163113	0.422682
H283	H	1.255561	-0.770977	-0.184119
H284	H	1.588894	-0.437643	0.149215
H285	H	1.922227	-0.104310	0.482548
H286	H	0.506026	-0.434265	-0.220896
H287	H	0.839359	-0.100932	0.112437
H288	H	1.172692	0.232402	0.445771
O289	O	0.976854	-0.450085	-0.535730
O290	O	1.310187	-0.116752	-0.202397
O291	O	1.643520	0.216582	0.130937
C292	C	0.929053	-0.407936	-0.497853
C293	C	1.262386	-0.074602	-0.164519
C294	C	1.595720	0.258731	0.168814
H295	H	0.924502	-0.349599	-0.517569
H296	H	1.257835	-0.016266	-0.184235
H297	H	1.591169	0.317067	0.149098
H298	H	0.872049	-0.434715	-0.497093
H299	H	1.205383	-0.101382	-0.163760
H300	H	1.538716	0.231951	0.169574
H301	H	0.951953	-0.405409	-0.448268
H302	H	1.285286	-0.072076	-0.114935
H303	H	1.618619	0.261258	0.218398
O304	O	0.941336	-0.923443	-0.327125
O305	O	1.274669	-0.590109	0.006208
O306	O	1.608003	-0.256776	0.339541
C307	C	0.976520	-0.968637	-0.371775
C308	C	1.309853	-0.635304	-0.038442
C309	C	1.643186	-0.301971	0.294892
H310	H	1.029627	-0.992014	-0.351086
H311	H	1.362961	-0.658681	-0.017753
H312	H	1.696294	-0.325347	0.315581
H313	H	0.938167	-1.015963	-0.385309
H314	H	1.271501	-0.682630	-0.051976
H315	H	1.604834	-0.349297	0.281358
H316	H	0.990214	-0.934481	-0.415034
H317	H	1.323548	-0.601148	-0.081701
H318	H	1.656881	-0.267815	0.251632
H319	H	0.634924	-0.259572	-0.366392
H320	H	0.968257	0.073761	-0.033058
H321	H	1.301591	0.407095	0.300275
H322	H	1.114308	-0.919959	-0.204155
H323	H	1.447642	-0.586626	0.129178
H324	H	1.780975	-0.253292	0.462511
H325	H	1.156323	-0.270924	-0.540956
H326	H	1.489656	0.062410	-0.207623
H327	H	1.822990	0.395743	0.125711
H328	H	1.051166	-0.792960	-0.404979
H329	H	1.384499	-0.459627	-0.071645
H330	H	1.717833	-0.126293	0.261688
H331	H	1.156318	-0.270869	-0.659663
H332	H	1.489651	0.062465	-0.326329
H333	H	1.822985	0.395798	0.007004
H334	H	1.081012	-0.235698	-0.742752
H335	H	1.414345	0.097635	-0.409418
H336	H	1.747679	0.430969	-0.076085
O337	O	1.082059	-0.225155	-0.866577
O338	O	1.415392	0.108178	-0.533243
O339	O	1.748726	0.441512	-0.199910
C340	C	1.149011	-0.190109	-0.850603
C341	C	1.482344	0.143224	-0.517270
C342	C	1.815677	0.476557	-0.183937
H343	H	1.189889	-0.233035	-0.832626
H344	H	1.523222	0.100299	-0.499293
H345	H	1.856556	0.433632	-0.165960
H346	H	1.172944	-0.161694	-0.893647
H347	H	1.506278	0.171639	-0.560313
H348	H	1.839611	0.504972	-0.226980
H349	H	1.138339	-0.147261	-0.812622
H350	H	1.471672	0.186072	-0.479288
H351	H	1.805005	0.519406	-0.145955
H352	H	0.507138	-0.337217	-0.198680
H353	H	0.840471	-0.003884	0.134653
H354	H	1.173805	0.329450	0.467987
O355	O	1.163796	-0.263246	-0.939546
O356	O	1.497130	0.070088	-0.606212
O357	O	1.830463	0.403421	-0.272879
C358	C	1.205628	-0.221441	-0.982466
C359	C	1.538961	0.111892	-0.649133
C360	C	1.872294	0.445226	-0.315799
H361	H	1.175295	-0.218854	-1.029101
H362	H	1.508629	0.114479	-0.695768
H363	H	1.841962	0.447812	-0.362434
H364	H	1.213551	-0.163101	-0.963562
H365	H	1.546884	0.170232	-0.630228
H366	H	1.880217	0.503566	-0.296895
H367	H	1.261862	-0.248561	-0.989442
H368	H	1.595195	0.084772	-0.656109
H369	H	1.928528	0.418105	-0.322775
H370	H	0.506884	-0.401427	-0.398997
H371	H	0.840218	-0.068094	-0.065663
H372	H	1.173551	0.265240	0.267670
H373	H	0.634118	-0.401346	-0.399292
H374	H	0.967451	-0.068013	-0.065959
H375	H	1.300785	0.265320	0.267374
O376	O	0.503345	-0.260379	-0.378488
O377	O	0.836678	0.072955	-0.045155
O378	O	1.170011	0.406288	0.288179
C379	C	0.458362	-0.317477	-0.402162
C380	C	0.791695	0.015856	-0.068829
C381	C	1.125028	0.349189	0.264505
H382	H	0.435088	-0.351246	-0.361705
H383	H	0.768422	-0.017912	-0.028372
H384	H	1.101755	0.315421	0.304962
H385	H	0.410958	-0.292535	-0.430168
H386	H	0.744291	0.040799	-0.096835
H387	H	1.077625	0.374132	0.236498
H388	H	0.492663	-0.354822	-0.433755
H389	H	0.825996	-0.021489	-0.100422
H390	H	1.159330	0.311845	0.232911
H391	H	1.149178	-0.918881	-0.381901
H392	H	1.482512	-0.585548	-0.048568
H393	H	1.815845	-0.252215	0.284765
H394	H	0.984390	-0.442530	-1.063256
H395	H	1.317724	-0.109196	-0.729922
H396	H	1.651057	0.224137	-0.396589
O397	O	0.502095	-0.225477	-0.281471
O398	O	0.835429	0.107857	0.051862
O399	O	1.168762	0.441190	0.385196
C400	C	0.455193	-0.257386	-0.236282
C401	C	0.788526	0.075948	0.097051
C402	C	1.121859	0.409281	0.430385
H403	H	0.468900	-0.318543	-0.231084
H404	H	0.802233	0.014790	0.102250
H405	H	1.135567	0.348124	0.435583
H406	H	0.463509	-0.228366	-0.189529
H407	H	0.796842	0.104967	0.143805
H408	H	1.130175	0.438300	0.477138
H409	H	0.395244	-0.251050	-0.251691
H410	H	0.728578	0.082283	0.081642
H411	H	1.061911	0.415617	0.414975
H412	H	0.984386	-0.442696	-0.659619
H413	H	1.317719	-0.109363	-0.326285
H414	H	1.651052	0.223970	0.007048
H415	H	0.507363	-0.472411	-0.338571
H416	H	0.840697	-0.139077	-0.005238
H417	H	1.174030	0.194256	0.328095
H418	H	0.633561	-0.235889	-0.283795
H419	H	0.966894	0.097444	0.049539
H420	H	1.300228	0.430778	0.382872
H421	H	0.633092	-0.435297	-0.221423
H422	H	0.966426	-0.101963	0.111911
H423	H	1.299759	0.231370	0.445244
