data_functionalizedCrystal
_audit_creation_method	'MofGen! by Chris Wilmer'
_symmetry_space_group_name_H-M	'P1'
_symmetry_Int_Tables_number	1
_symmetry_cell_setting	triclinic
loop_
_symmetry_equiv_pos_as_xyz
  x,y,z
_cell_length_a	33.359691
_cell_length_b	33.359654
_cell_length_c	33.359672
_cell_angle_alpha	120.004361
_cell_angle_beta	89.999925
_cell_angle_gamma	60.000176
loop_
_atom_site_label
_atom_site_type_symbol
_atom_site_fract_x
_atom_site_fract_y
_atom_site_fract_z
O1	O	-0.274985	-0.353594	-0.011930
O2	O	-0.216694	-0.271506	0.011865
O3	O	-0.216691	-0.353593	-0.070225
O4	O	-0.274988	-0.271507	0.070159
O5	O	-0.283364	-0.286918	-0.070218
O6	O	-0.283367	-0.204831	0.011871
O7	O	-0.341658	-0.286919	-0.011924
Cu8	Cu	-0.318601	-0.239787	-0.000026
Cu9	Cu	-0.239752	-0.318638	-0.000033
O10	O	-0.341662	-0.204832	0.070165
C11	C	-0.146318	-0.044925	0.028808
C12	C	-0.170555	-0.068930	0.029151
C13	C	-0.073731	-0.117512	0.028813
C14	C	-0.098078	-0.141406	0.029155
C15	C	-0.146321	-0.117510	0.028815
C16	C	-0.098075	-0.068932	0.029148
C17	C	-0.146126	0.027633	0.022911
C18	C	-0.168974	0.073486	0.019189
C19	C	-0.216775	0.096483	0.017322
C20	C	-0.241550	0.146198	0.013284
C21	C	-0.241738	0.073636	0.019182
C22	C	-0.218892	0.027787	0.022906
C23	C	-0.171086	0.004785	0.024768
C24	C	-0.219074	-0.123211	0.022927
C25	C	-0.242081	-0.149777	0.019211
C26	C	-0.217279	-0.199443	0.017350
C27	C	-0.242222	-0.228251	0.013319
C28	C	-0.169469	-0.222546	0.019208
C29	C	-0.146463	-0.195980	0.022925
C30	C	-0.171266	-0.146314	0.024782
C31	C	0.004725	-0.123216	0.022920
C32	C	0.054301	-0.149789	0.019197
C33	C	0.079163	-0.199454	0.017335
C34	C	0.132915	-0.228265	0.013302
C35	C	0.054458	-0.222556	0.019193
C36	C	0.004883	-0.195988	0.022914
C37	C	-0.019981	-0.146318	0.024778
C38	C	-0.412018	-0.513527	-0.028907
C39	C	-0.460261	-0.489519	-0.029244
C40	C	-0.412021	-0.440932	-0.028899
C41	C	-0.460265	-0.417034	-0.029236
C42	C	-0.484610	-0.440933	-0.028900
C43	C	-0.387783	-0.489517	-0.029243
C44	C	-0.339263	-0.586095	-0.023023
C45	C	-0.316254	-0.631954	-0.019310
C46	C	-0.341057	-0.654954	-0.017447
C47	C	-0.316113	-0.704676	-0.013418
C48	C	-0.388868	-0.632104	-0.019302
C49	C	-0.411875	-0.586249	-0.023017
C50	C	-0.387072	-0.563244	-0.024876
C51	C	-0.563064	-0.435233	-0.023009
C52	C	-0.612639	-0.408664	-0.019289
C53	C	-0.637504	-0.358993	-0.017419
C54	C	-0.691257	-0.330182	-0.013382
C55	C	-0.612799	-0.335887	-0.019273
C56	C	-0.563226	-0.362456	-0.022995
C57	C	-0.538360	-0.412126	-0.024861
C58	C	-0.339269	-0.435228	-0.023008
C59	C	-0.316266	-0.408654	-0.019281
C60	C	-0.341072	-0.358983	-0.017411
C61	C	-0.316132	-0.330171	-0.013374
C62	C	-0.388881	-0.335879	-0.019263
C63	C	-0.411887	-0.362449	-0.022988
C64	C	-0.387079	-0.412124	-0.024860
C65	C	-0.073729	-0.513518	-0.367201
C66	C	-0.098076	-0.489510	-0.318955
C67	C	-0.146321	-0.440924	-0.367193
C68	C	-0.170558	-0.417026	-0.318947
C69	C	-0.146320	-0.440925	-0.294604
C70	C	-0.098077	-0.489509	-0.391434
C71	C	0.004727	-0.586086	-0.439961
C72	C	0.054303	-0.631945	-0.462973
C73	C	0.079168	-0.654945	-0.438171
C74	C	0.132921	-0.704666	-0.463119
C75	C	0.054461	-0.632094	-0.390358
C76	C	0.004887	-0.586240	-0.367349
C77	C	-0.019978	-0.563235	-0.392150
C78	C	-0.146131	-0.435224	-0.216150
C79	C	-0.168981	-0.408656	-0.166573
C80	C	-0.216785	-0.358985	-0.141704
C81	C	-0.241562	-0.330174	-0.087949
C82	C	-0.241747	-0.335879	-0.166408
C83	C	-0.218899	-0.362448	-0.215982
C84	C	-0.171091	-0.412118	-0.240851
C85	C	-0.146134	-0.435221	-0.439944
C86	C	-0.168983	-0.408647	-0.462945
C87	C	-0.216787	-0.358976	-0.438136
C88	C	-0.241565	-0.330163	-0.463074
C89	C	-0.241746	-0.335871	-0.390325
C90	C	-0.218899	-0.362441	-0.367322
C91	C	-0.171093	-0.412116	-0.392133
O92	O	0.291018	-0.286930	-0.011933
O93	O	0.150641	-0.204845	0.011853
O94	O	0.232729	-0.286942	-0.070232
O95	O	0.208931	-0.204833	0.070153
O96	O	0.232726	-0.353609	-0.070226
O97	O	0.150638	-0.271512	0.011860
O98	O	0.291015	-0.353597	-0.011926
Cu99	Cu	0.220826	-0.318642	-0.000033
Cu100	Cu	0.220830	-0.239800	-0.000040
O101	O	0.208928	-0.271500	0.070159
O102	O	-0.341640	0.279049	-0.011967
O103	O	-0.283351	0.162472	0.011832
O104	O	-0.283343	0.162453	-0.070259
O105	O	-0.341648	0.279068	0.070124
O106	O	-0.216671	0.162451	-0.070261
O107	O	-0.216679	0.162471	0.011830
O108	O	-0.274968	0.279048	-0.011969
Cu109	Cu	-0.239736	0.220759	-0.000069
Cu110	Cu	-0.318583	0.220761	-0.000067
O111	O	-0.274976	0.279067	0.070122
O112	O	-0.274999	-0.271495	-0.562506
O113	O	-0.216698	-0.353586	-0.504224
O114	O	-0.216703	-0.271497	-0.504214
O115	O	-0.274994	-0.353584	-0.562516
O116	O	-0.283375	-0.204823	-0.437535
O117	O	-0.283370	-0.286912	-0.437545
O118	O	-0.341671	-0.204822	-0.495827
Cu119	Cu	-0.318608	-0.239779	-0.460597
Cu120	Cu	-0.239761	-0.318629	-0.539453
O121	O	-0.341666	-0.286910	-0.495837
O122	O	0.291027	-0.837537	-0.495898
O123	O	0.150648	-0.720942	-0.437593
O124	O	0.232729	-0.720941	-0.437592
O125	O	0.208947	-0.837538	-0.495899
O126	O	0.232729	-0.720941	-0.504264
O127	O	0.150649	-0.720942	-0.504265
O128	O	0.291028	-0.837538	-0.562570
Cu129	Cu	0.220838	-0.779240	-0.539505
Cu130	Cu	0.220837	-0.779239	-0.460658
O131	O	0.208947	-0.837539	-0.562570
C132	C	-0.484632	-0.044898	0.367140
C133	C	-0.460286	-0.068906	0.391375
C134	C	-0.412039	-0.117493	0.294545
C135	C	-0.387803	-0.141390	0.318890
C136	C	-0.412041	-0.117491	0.367135
C137	C	-0.460284	-0.068908	0.318895
C138	C	-0.563088	0.027669	0.366956
C139	C	-0.612663	0.073528	0.389810
C140	C	-0.637528	0.096528	0.437614
C141	C	-0.691282	0.146249	0.462394
C142	C	-0.612822	0.073678	0.462574
C143	C	-0.563248	0.027823	0.439723
C144	C	-0.538383	0.004819	0.391914
C145	C	-0.412231	-0.123191	0.439888
C146	C	-0.389381	-0.149759	0.462893
C147	C	-0.341577	-0.199430	0.438085
C148	C	-0.316801	-0.228241	0.463025
C149	C	-0.316615	-0.222536	0.390272
C150	C	-0.339462	-0.195968	0.367269
C151	C	-0.387271	-0.146297	0.392077
C152	C	-0.412225	-0.123197	0.216089
C153	C	-0.389376	-0.149771	0.166510
C154	C	-0.341572	-0.199442	0.141642
C155	C	-0.316793	-0.228255	0.087888
C156	C	-0.316613	-0.222546	0.166346
C157	C	-0.339461	-0.195976	0.215923
C158	C	-0.387267	-0.146301	0.240792
C159	C	0.249676	-0.513566	-0.367198
C160	C	0.250016	-0.489565	-0.391438
C161	C	0.249680	-0.440970	-0.294609
C162	C	0.250020	-0.417079	-0.318960
C163	C	0.249679	-0.440982	-0.367204
C164	C	0.250017	-0.489553	-0.318953
C165	C	0.243783	-0.586125	-0.367001
C166	C	0.240062	-0.631982	-0.389848
C167	C	0.238196	-0.654986	-0.437652
C168	C	0.234159	-0.704704	-0.462425
C169	C	0.240053	-0.632142	-0.462617
C170	C	0.243775	-0.586289	-0.439773
C171	C	0.245638	-0.563281	-0.391965
C172	C	0.243788	-0.435291	-0.439962
C173	C	0.240071	-0.408729	-0.462973
C174	C	0.238208	-0.359060	-0.438171
C175	C	0.234175	-0.330256	-0.463117
C176	C	0.240066	-0.335950	-0.390359
C177	C	0.243785	-0.362513	-0.367351
C178	C	0.245644	-0.412181	-0.392152
C179	C	0.243790	-0.435256	-0.216148
C180	C	0.240067	-0.408677	-0.166570
C181	C	0.238204	-0.359009	-0.141709
C182	C	0.234172	-0.330192	-0.087954
C183	C	0.240060	-0.335910	-0.166417
C184	C	0.243781	-0.362485	-0.215994
C185	C	0.245646	-0.412157	-0.240857
C186	C	0.191977	-0.117460	0.367131
C187	C	0.191640	-0.068877	0.391365
C188	C	0.191976	-0.117472	0.294536
C189	C	0.191640	-0.068889	0.318880
C190	C	0.191980	-0.044876	0.367125
C191	C	0.191636	-0.141363	0.318887
C192	C	0.197864	-0.196098	0.366949
C193	C	0.201581	-0.222818	0.389803
C194	C	0.203447	-0.199873	0.437607
C195	C	0.207480	-0.228843	0.462387
C196	C	0.201593	-0.150205	0.462565
C197	C	0.197874	-0.123485	0.439714
C198	C	0.196011	-0.146434	0.391906
C199	C	0.197875	0.027694	0.439875
C200	C	0.201595	0.073551	0.462879
C201	C	0.203462	0.096543	0.438071
C202	C	0.207498	0.146261	0.463009
C203	C	0.201603	0.073687	0.390258
C204	C	0.197881	0.027835	0.367257
C205	C	0.196019	0.004838	0.392065
C206	C	0.197863	-0.196123	0.216082
C207	C	0.201585	-0.222858	0.166504
C208	C	0.203452	-0.199925	0.141636
C209	C	0.207484	-0.228907	0.087881
C210	C	0.201600	-0.150261	0.166338
C211	C	0.197879	-0.123526	0.215914
C212	C	0.196010	-0.146459	0.240784
C213	C	-0.073687	-0.117604	-0.367234
C214	C	-0.098031	-0.141505	-0.391470
C215	C	-0.146282	-0.045001	-0.294641
C216	C	-0.170516	-0.069013	-0.318988
C217	C	-0.146276	-0.117604	-0.367233
C218	C	-0.098037	-0.069013	-0.318989
C219	C	0.004768	-0.123306	-0.367046
C220	C	0.054344	-0.149878	-0.389896
C221	C	0.079211	-0.199554	-0.437700
C222	C	0.132965	-0.228369	-0.462478
C223	C	0.054506	-0.222663	-0.462662
C224	C	0.004932	-0.196091	-0.439813
C225	C	-0.019935	-0.146415	-0.392005
C226	C	-0.146082	-0.196260	-0.439987
C227	C	-0.168930	-0.222988	-0.462994
C228	C	-0.216734	-0.200045	-0.438188
C229	C	-0.241509	-0.229024	-0.463130
C230	C	-0.241699	-0.150368	-0.390376
C231	C	-0.218853	-0.123640	-0.367371
C232	C	-0.171045	-0.146588	-0.392177
C233	C	-0.146100	0.027577	-0.216183
C234	C	-0.168952	0.073438	-0.166605
C235	C	-0.216756	0.096441	-0.141740
C236	C	-0.241537	0.146170	-0.087985
C237	C	-0.241713	0.073587	-0.166445
C238	C	-0.218863	0.027726	-0.216021
C239	C	-0.171057	0.004723	-0.240889
O240	O	0.208914	-0.204918	-0.495887
O241	O	0.232714	-0.286994	-0.437588
O242	O	0.150626	-0.204926	-0.437594
O243	O	0.291002	-0.286986	-0.495881
O244	O	0.150644	-0.271618	-0.504273
O245	O	0.232732	-0.353685	-0.504266
O246	O	0.208932	-0.271610	-0.562566
Cu247	Cu	0.220834	-0.318737	-0.539504
Cu248	Cu	0.220812	-0.239867	-0.460649
O249	O	0.291020	-0.353677	-0.562559
C250	C	-0.412045	0.559124	0.367096
C251	C	-0.460290	0.583025	0.391334
C252	C	-0.412038	0.486521	0.294504
C253	C	-0.460283	0.510532	0.318852
C254	C	-0.484634	0.559123	0.367097
C255	C	-0.387804	0.510533	0.318851
C256	C	-0.339292	0.564826	0.366907
C257	C	-0.316287	0.591397	0.389757
C258	C	-0.341096	0.641074	0.437561
C259	C	-0.316156	0.669888	0.462338
C260	C	-0.388909	0.664182	0.462524
C261	C	-0.411911	0.637610	0.439675
C262	C	-0.387103	0.587934	0.391867
C263	C	-0.563094	0.637779	0.439852
C264	C	-0.612670	0.664508	0.462859
C265	C	-0.637532	0.641564	0.438054
C266	C	-0.691286	0.670544	0.462997
C267	C	-0.612821	0.591888	0.390241
C268	C	-0.563247	0.565160	0.367236
C269	C	-0.538386	0.588107	0.392041
C270	C	-0.339278	0.413943	0.216046
C271	C	-0.316269	0.368081	0.166467
C272	C	-0.341071	0.345078	0.141603
C273	C	-0.316124	0.295350	0.087848
C274	C	-0.388882	0.367932	0.166309
C275	C	-0.411893	0.413794	0.215885
C276	C	-0.387089	0.436797	0.240752
H277	H	-0.281009	-0.130959	0.017701
H278	H	-0.479826	0.490435	0.299303
H279	H	-0.280641	0.092320	-0.146195
H280	H	0.250560	-0.509641	-0.299404
Cl281	Cl	-0.420049	-0.661024	-0.016960
Cl282	Cl	-0.472014	0.666656	0.471054
Cl283	Cl	-0.138289	-0.284986	0.016869
Cl284	Cl	-0.026118	-0.225155	-0.471180
Cl285	Cl	-0.490473	0.643390	0.452535
H286	H	-0.148652	-0.427475	-0.146465
Cl287	Cl	-0.531829	-0.001247	0.306855
Cl288	Cl	-0.643718	0.102250	0.358432
H289	H	-0.633075	0.092413	0.501502
H290	H	0.196352	0.008978	0.460082
H291	H	-0.277339	-0.427472	-0.017774
Cl292	Cl	0.246136	-0.497702	-0.247403
H293	H	0.074714	-0.650829	-0.370167
H294	H	-0.280628	-0.131689	-0.370181
Cl295	Cl	-0.308094	0.442858	0.247306
H296	H	0.203106	0.092156	0.501809
H297	H	-0.543128	0.524711	0.328308
Cl298	Cl	0.203948	0.102598	0.359071
H299	H	0.203091	-0.263293	0.146396
H300	H	-0.479832	-0.048804	0.431018
H301	H	-0.239182	-0.083191	-0.328444
Cl302	Cl	-0.137604	-0.437694	-0.523049
Cl303	Cl	-0.643691	-0.437715	-0.016960
Cl304	Cl	-0.231759	-0.356671	-0.288764
H305	H	0.074705	-0.263001	0.017675
H306	H	-0.277339	0.349474	0.146357
Cl307	Cl	-0.308101	0.502373	0.306806
Cl308	Cl	-0.490446	-0.356674	-0.030071
Cl309	Cl	-0.067898	-0.520535	-0.288782
H310	H	0.196368	0.009227	0.328328
Cl311	Cl	0.085395	-0.120825	-0.358518
Cl312	Cl	-0.531841	0.666628	0.471039
Cl313	Cl	-0.250269	-0.000936	0.025243
Cl314	Cl	-0.137545	-0.285433	-0.523099
Cl315	Cl	-0.308084	-0.225012	0.307165
Cl316	Cl	0.246128	-0.557205	-0.306901
H317	H	-0.409710	-0.130938	0.501824
H318	H	-0.107174	0.008851	-0.236429
Cl319	Cl	-0.420096	0.726637	0.522625
H320	H	0.203113	-0.131525	0.501493
Cl321	Cl	-0.026174	-0.557516	-0.307246
H322	H	-0.633053	-0.295436	-0.017746
H323	H	-0.107201	0.008910	0.024431
Cl324	Cl	-0.256184	0.562346	0.358377
H325	H	0.238541	-0.650570	-0.369515
Cl326	Cl	-0.643730	0.726952	0.522964
Cl327	Cl	0.246111	-0.333445	-0.247056
H328	H	0.238533	-0.650879	-0.501545
Cl329	Cl	0.085355	-0.120740	0.016869
Cl330	Cl	-0.308080	-0.497678	-0.025363
Cl331	Cl	0.195515	-0.224946	0.306850
H332	H	-0.107209	-0.475670	-0.460151
Cl333	Cl	-0.026531	-0.060774	0.025265
H334	H	0.245290	-0.567692	-0.460101
Cl335	Cl	-0.067850	-0.201870	-0.452672
H336	H	-0.543132	0.009225	0.460048
Cl337	Cl	-0.250237	-0.001007	-0.247079
H338	H	-0.451158	-0.082745	0.460093
Cl339	Cl	-0.532164	-0.333421	-0.025341
Cl340	Cl	-0.471990	-0.333401	-0.025316
Cl341	Cl	-0.256513	-0.284983	0.359086
Cl342	Cl	-0.308085	-0.225023	0.246978
H343	H	-0.319062	-0.567369	-0.024540
Cl344	Cl	-0.067903	-0.201760	0.030001
H345	H	-0.409082	-0.295428	-0.017737
Cl346	Cl	0.246127	-0.497734	-0.471145
Cl347	Cl	-0.301836	0.102552	0.016836
Cl348	Cl	-0.137594	0.102205	0.016853
H349	H	-0.239224	-0.343633	-0.236095
Cl350	Cl	-0.644079	0.563043	0.359059
H351	H	-0.277328	-0.650554	-0.017798
H352	H	-0.280669	-0.295416	-0.370119
Cl353	Cl	0.190795	-0.201722	0.288710
Cl354	Cl	-0.471974	-0.557528	-0.025356
Cl355	Cl	-0.086030	-0.497670	-0.247412
Cl356	Cl	-0.420754	-0.120723	0.135458
Cl357	Cl	-0.490436	-0.520546	-0.030097
Cl358	Cl	-0.067900	-0.520529	-0.452635
H359	H	0.196371	-0.083087	0.236026
Cl360	Cl	-0.326585	-0.520536	-0.030085
Cl361	Cl	-0.531805	-0.497679	-0.025359
Cl362	Cl	-0.086364	-0.225018	0.025264
H363	H	0.238538	-0.295462	-0.146170
Cl364	Cl	-0.026530	-0.557170	-0.471143
H365	H	-0.015231	-0.214800	0.024427
H366	H	0.238560	-0.427552	-0.501902
H367	H	0.196339	-0.214797	0.236330
Cl368	Cl	0.085357	-0.660669	-0.523077
Cl369	Cl	0.237726	-0.273506	-0.359180
Cl370	Cl	-0.420064	0.339013	0.135048
H371	H	0.191096	-0.048804	0.299328
Cl372	Cl	-0.085981	-0.225109	-0.471175
H373	H	-0.280675	-0.295432	-0.146152
Cl374	Cl	-0.472000	0.442529	0.246943
H375	H	-0.210196	-0.048832	0.029703
H376	H	-0.239223	-0.343624	-0.328391
H377	H	-0.348163	-0.180486	0.299338
H378	H	-0.479831	-0.048812	0.299352
H379	H	-0.348176	0.490465	0.299293
H380	H	0.074762	-0.263117	-0.501589
H381	H	-0.078531	-0.048837	0.029696
Cl382	Cl	-0.256513	-0.284996	0.135081
Cl383	Cl	-0.250258	-0.060772	0.025266
H384	H	-0.451151	-0.082748	0.236336
H385	H	0.250563	-0.377982	-0.299412
Cl386	Cl	0.237738	-0.437719	-0.135511
Cl387	Cl	0.250897	-0.520619	-0.452651
Cl388	Cl	0.246120	-0.333463	-0.307247
Cl389	Cl	-0.231716	-0.037990	-0.288808
Cl390	Cl	0.190793	-0.037844	0.452567
H391	H	0.203090	-0.263256	0.369479
H392	H	0.196360	-0.083043	0.460037
H393	H	0.203123	-0.131589	0.146085
H394	H	-0.078490	-0.048920	-0.299443
Cl395	Cl	-0.137575	0.102165	-0.135550
H396	H	-0.015478	-0.082855	-0.328119
