data_functionalizedCrystal
_audit_creation_method	'MofGen! by Chris Wilmer'
_symmetry_space_group_name_H-M	'P1'
_symmetry_Int_Tables_number	1
_symmetry_cell_setting	triclinic
loop_
_symmetry_equiv_pos_as_xyz
  x,y,z
_cell_length_a	19.188925
_cell_length_b	19.188930
_cell_length_c	12.996460
_cell_angle_alpha	89.988736
_cell_angle_beta	89.993464
_cell_angle_gamma	83.143665
loop_
_atom_site_label
_atom_site_type_symbol
_atom_site_fract_x
_atom_site_fract_y
_atom_site_fract_z
O1	O	0.926148	0.087151	-0.085600
O2	O	1.426148	0.587151	0.414400
O3	O	0.722836	0.098889	-0.085599
O4	O	1.222836	0.598889	0.414401
O5	O	0.830359	-0.008636	-0.085580
O6	O	1.330359	0.491364	0.414420
O7	O	0.818625	0.194676	-0.085620
O8	O	1.318625	0.694676	0.414380
O9	O	0.830348	-0.008642	0.085554
O10	O	1.330348	0.491358	0.585554
O11	O	0.722825	0.098883	0.085535
O12	O	1.222825	0.598883	0.585535
O13	O	0.926137	0.087145	0.085533
O14	O	1.426137	0.587145	0.585533
Cu15	Cu	0.824480	0.093013	0.101160
Cu16	Cu	1.324480	0.593013	0.601160
Cu17	Cu	0.824493	0.093020	-0.101226
Cu18	Cu	1.324493	0.593020	0.398774
O19	O	0.818614	0.194670	0.085514
O20	O	1.318614	0.694670	0.585514
C21	C	0.696820	0.098507	-0.000032
C22	C	1.196820	0.598507	0.499968
C23	C	0.619315	0.097367	-0.000031
C24	C	1.119315	0.597367	0.499969
C25	C	0.057545	0.152831	-0.000044
C26	C	0.557545	0.652831	0.499956
C27	C	0.130368	0.153908	-0.000050
C28	C	0.630368	0.653908	0.499950
C29	C	0.175302	0.090816	-0.000035
C30	C	0.675302	0.590816	0.499965
C31	C	0.147408	0.026642	-0.000042
C32	C	0.647408	0.526642	0.499958
C33	C	0.074586	0.025568	-0.000046
C34	C	0.574586	0.525568	0.499954
N35	N	0.295976	0.045138	0.058229
N36	N	0.795976	0.545138	0.558229
N37	N	0.365153	0.046163	0.058235
N38	N	0.865153	0.546163	0.558235
C39	C	0.394712	0.094050	-0.000024
C40	C	0.894712	0.594050	0.499976
N41	N	0.352478	0.140884	-0.058277
N42	N	0.852478	0.640884	0.441723
N43	N	0.283294	0.139860	-0.058279
N44	N	0.783294	0.639860	0.441721
C45	C	0.254267	0.091974	-0.000031
C46	C	0.754267	0.591974	0.499969
C47	C	0.501561	0.159386	-0.000031
C48	C	1.001561	0.659386	0.499969
C49	C	0.574385	0.160460	-0.000043
C50	C	1.074385	0.660460	0.499957
C51	C	0.591425	0.033193	-0.000025
C52	C	1.091425	0.533193	0.499975
C53	C	0.518601	0.032121	-0.000023
C54	C	1.018601	0.532121	0.499977
C55	C	0.473673	0.095220	-0.000021
C56	C	0.973673	0.595220	0.499979
C57	C	0.829974	-0.034650	-0.000010
C58	C	1.329974	0.465350	0.499990
C59	C	0.828833	-0.112154	-0.000001
C60	C	1.328833	0.387846	0.499999
C61	C	0.891924	-0.157079	0.000003
C62	C	1.391924	0.342921	0.500003
C63	C	0.890852	-0.229903	-0.000013
C64	C	1.390852	0.270097	0.499987
C65	C	0.826686	-0.257799	-0.000013
C66	C	1.326686	0.242201	0.499987
C67	C	0.763587	-0.212864	-0.000024
C68	C	1.263587	0.287136	0.499976
C69	C	0.764660	-0.140041	-0.000018
C70	C	1.264660	0.359959	0.499982
N71	N	0.777635	-0.365805	0.058227
N72	N	1.277635	0.134195	0.558227
N73	N	0.776620	-0.434983	0.058223
N74	N	1.276620	0.065017	0.558223
C75	C	0.823448	-0.477207	-0.000034
C76	C	1.323448	0.022793	0.499966
N77	N	0.871341	-0.447641	-0.058275
N78	N	1.371341	0.052359	0.441725
N79	N	0.872359	-0.378456	-0.058267
N80	N	1.372359	0.121544	0.441733
C81	C	0.825515	-0.336761	-0.000021
C82	C	1.325515	0.163239	0.499979
C83	C	0.885381	-0.601097	-0.000049
C84	C	1.385381	-0.101097	0.499951
C85	C	0.884307	-0.673922	-0.000072
C86	C	1.384307	-0.173922	0.499928
C87	C	0.757040	-0.656880	-0.000072
C88	C	1.257040	-0.156880	0.499928
C89	C	0.758116	-0.584057	-0.000060
C90	C	1.258116	-0.084057	0.499940
C91	C	0.822289	-0.556170	-0.000043
C92	C	1.322289	-0.056170	0.499957
C93	C	0.952154	0.087527	-0.000036
C94	C	1.452154	0.587527	0.499964
C95	C	1.029658	0.088666	-0.000044
C96	C	1.529658	0.588666	0.499956
C97	C	0.819000	0.220684	-0.000058
C98	C	1.319000	0.720684	0.499942
C99	C	0.820140	0.298188	-0.000074
C100	C	1.320140	0.798188	0.499926
N101	N	0.824476	0.093008	0.243507
N102	N	1.324476	0.593008	0.743507
N103	N	0.824503	0.093020	-0.243573
N104	N	1.324503	0.593020	0.256427
C105	C	0.824492	0.093021	0.663321
C106	C	1.324492	0.593021	1.163321
C107	C	0.824486	0.093020	0.546516
C108	C	1.324486	0.593020	1.046516
C109	C	0.824484	0.093015	0.453418
C110	C	1.324484	0.593015	0.953418
C111	C	0.824477	0.093013	0.336605
C112	C	1.324477	0.593013	0.836605
H113	H	0.628010	-0.018178	-0.000021
H114	H	1.128010	0.481822	0.499979
Cl115	Cl	0.678797	-0.527576	-0.000061
Cl116	Cl	1.178797	-0.027576	0.499939
H117	H	0.704794	-0.679592	-0.000078
H118	H	1.204794	-0.179592	0.499922
Cl119	Cl	0.609442	0.241132	-0.000053
Cl120	Cl	1.109442	0.741132	0.499947
H121	H	0.495896	-0.020129	-0.000017
H122	H	0.995896	0.479871	0.499983
H123	H	0.942230	-0.266488	-0.000013
H124	H	1.442230	0.233512	0.499987
Cl125	Cl	0.001068	0.232156	-0.000056
Cl126	Cl	0.501068	0.732156	0.499944
Cl127	Cl	0.966054	-0.566035	-0.000022
Cl128	Cl	1.466054	-0.066035	0.499978
Cl129	Cl	0.685339	-0.083561	-0.000023
Cl130	Cl	1.185339	0.416439	0.499977
Cl131	Cl	0.972598	-0.122025	-0.000005
Cl132	Cl	1.472598	0.377975	0.499995
Cl133	Cl	0.203896	-0.052674	-0.000028
Cl134	Cl	0.703896	0.447326	0.499972
H135	H	0.153078	0.206160	-0.000040
H136	H	0.653078	0.706160	0.499960
Cl137	Cl	0.682921	-0.247931	-0.000032
Cl138	Cl	1.182921	0.252069	0.499968
H139	H	0.051883	-0.026685	-0.000047
H140	H	0.551883	0.473315	0.499953
Cl141	Cl	0.445077	0.238709	-0.000033
Cl142	Cl	0.945077	0.738709	0.499967
H143	H	0.935686	-0.710500	-0.000074
H144	H	1.435686	-0.210500	0.499926
