data_functionalizedCrystal
_audit_creation_method	'MofGen! by Chris Wilmer'
_symmetry_space_group_name_H-M	'P1'
_symmetry_Int_Tables_number	1
_symmetry_cell_setting	triclinic
loop_
_symmetry_equiv_pos_as_xyz
  x,y,z
_cell_length_a	13.897449
_cell_length_b	16.625539
_cell_length_c	13.897448
_cell_angle_alpha	90.027549
_cell_angle_beta	89.981481
_cell_angle_gamma	89.977908
loop_
_atom_site_label
_atom_site_type_symbol
_atom_site_fract_x
_atom_site_fract_y
_atom_site_fract_z
Zn1	Zn	1.474690	-0.455946	0.383992
Zn2	Zn	1.724690	-0.205946	0.633992
Zn3	Zn	1.974690	0.044054	0.883992
Zn4	Zn	2.224690	0.294054	1.133992
Zn5	Zn	1.474588	-0.321115	0.545305
Zn6	Zn	1.724588	-0.071115	0.795305
Zn7	Zn	1.974588	0.178885	1.045305
Zn8	Zn	2.224588	0.428885	1.295305
Zn9	Zn	1.313383	-0.321123	0.384028
Zn10	Zn	1.563383	-0.071123	0.634028
Zn11	Zn	1.813383	0.178877	0.884028
Zn12	Zn	2.063383	0.428877	1.134028
Zn13	Zn	1.313361	-0.455902	0.545249
Zn14	Zn	1.563361	-0.205902	0.795249
Zn15	Zn	1.813361	0.044098	1.045249
Zn16	Zn	2.063361	0.294098	1.295249
O17	O	1.394006	-0.388522	0.464643
O18	O	1.644006	-0.138522	0.714643
O19	O	1.894006	0.111478	0.964643
O20	O	2.144006	0.361478	1.214643
O21	O	1.609658	-0.438076	0.405399
O22	O	1.859658	-0.188076	0.655399
O23	O	2.109658	0.061924	0.905399
O24	O	2.359658	0.311924	1.155399
O25	O	1.453170	-0.208284	0.523950
O26	O	1.703170	0.041716	0.773950
O27	O	1.953170	0.291716	1.023950
O28	O	2.203170	0.541716	1.273950
O29	O	1.334833	-0.339030	0.249042
O30	O	1.584833	-0.089030	0.499042
O31	O	1.834833	0.160970	0.749042
O32	O	2.084833	0.410970	0.999042
O33	O	1.609583	-0.339016	0.523915
O34	O	1.859583	-0.089016	0.773915
O35	O	2.109583	0.160984	1.023915
O36	O	2.359583	0.410984	1.273915
O37	O	1.453345	-0.438084	0.249015
O38	O	1.703345	-0.188084	0.499015
O39	O	1.953345	0.061916	0.749015
O40	O	2.203345	0.311916	0.999015
O41	O	1.334734	-0.208290	0.405460
O42	O	1.584734	0.041710	0.655460
O43	O	1.834734	0.291710	0.905460
O44	O	2.084734	0.541710	1.155460
O45	O	1.178399	-0.338987	0.405406
O46	O	1.428399	-0.088987	0.655406
O47	O	1.678399	0.161013	0.905406
O48	O	1.928399	0.411013	1.155406
O49	O	1.334795	-0.568740	0.523819
O50	O	1.584795	-0.318740	0.773819
O51	O	1.834795	-0.068740	1.023819
O52	O	2.084795	0.181260	1.273819
O53	O	1.178382	-0.438008	0.523854
O54	O	1.428382	-0.188008	0.773854
O55	O	1.678382	0.061992	1.023854
O56	O	1.928382	0.311992	1.273854
O57	O	1.453323	-0.568773	0.405344
O58	O	1.703323	-0.318773	0.655344
O59	O	1.953323	-0.068773	0.905344
O60	O	2.203323	0.181227	1.155344
O61	O	1.453149	-0.338973	0.680279
O62	O	1.703149	-0.088973	0.930279
O63	O	1.953149	0.161027	1.180279
O64	O	2.203149	0.411027	1.430279
O65	O	1.334696	-0.438000	0.680238
O66	O	1.584696	-0.188000	0.930238
O67	O	1.834696	0.062000	1.180238
O68	O	2.084696	0.312000	1.430238
C69	C	1.143391	-0.388494	0.464629
C70	C	1.393391	-0.138494	0.714629
C71	C	1.643391	0.111506	0.964629
C72	C	1.893391	0.361506	1.214629
C73	C	1.036177	-0.388501	0.464645
C74	C	1.286177	-0.138501	0.714645
C75	C	1.536177	0.111499	0.964645
C76	C	1.786177	0.361499	1.214645
C77	C	0.949108	-0.388514	0.464649
C78	C	1.199108	-0.138514	0.714649
C79	C	1.449108	0.111486	0.964649
C80	C	1.699108	0.361486	1.214649
C81	C	0.839875	-0.388539	0.464655
C82	C	1.089875	-0.138539	0.714655
C83	C	1.339875	0.111461	0.964655
C84	C	1.589875	0.361461	1.214655
C85	C	1.394068	-0.598831	0.464572
C86	C	1.644068	-0.348831	0.714572
C87	C	1.894068	-0.098831	0.964572
C88	C	2.144068	0.151169	1.214572
C89	C	1.394095	-0.688452	0.464541
C90	C	1.644095	-0.438452	0.714541
C91	C	1.894095	-0.188452	0.964541
C92	C	2.144095	0.061548	1.214541
C93	C	1.394139	-1.016628	0.464433
C94	C	1.644139	-0.766628	0.714433
C95	C	1.894139	-0.516628	0.964433
C96	C	2.144139	-0.266628	1.214433
C97	C	1.394124	-0.925319	0.464466
C98	C	1.644124	-0.675319	0.714466
C99	C	1.894124	-0.425319	0.964466
C100	C	2.144124	-0.175319	1.214466
C101	C	1.394118	-0.852543	0.464488
C102	C	1.644118	-0.602543	0.714488
C103	C	1.894118	-0.352543	0.964488
C104	C	2.144118	-0.102543	1.214488
C105	C	1.394102	-0.761228	0.464519
C106	C	1.644102	-0.511228	0.714519
C107	C	1.894102	-0.261228	0.964519
C108	C	2.144102	-0.011228	1.214519
C109	C	1.645599	-0.388550	0.464659
C110	C	1.895599	-0.138550	0.714659
C111	C	2.145599	0.111450	0.964659
C112	C	2.395599	0.361450	1.214659
C113	C	1.752812	-0.388563	0.464666
C114	C	2.002812	-0.138563	0.714666
C115	C	2.252812	0.111437	0.964666
C116	C	2.502812	0.361437	1.214666
C117	C	1.393935	-0.388498	0.715258
C118	C	1.643935	-0.138498	0.965258
C119	C	1.893935	0.111502	1.215258
C120	C	2.143935	0.361502	1.465258
C121	C	1.393993	-0.388515	0.822472
C122	C	1.643993	-0.138515	1.072472
C123	C	1.893993	0.111485	1.322472
C124	C	2.143993	0.361485	1.572472
C125	C	1.393999	-0.179031	0.464645
C126	C	1.643999	0.070969	0.714645
C127	C	1.893999	0.320969	0.964645
C128	C	2.143999	0.570969	1.214645
C129	C	1.394159	-0.089410	0.464404
C130	C	1.644159	0.160590	0.714404
C131	C	1.894159	0.410590	0.964404
C132	C	2.144159	0.660590	1.214404
C133	C	1.394103	-0.388563	0.213050
C134	C	1.644103	-0.138563	0.463050
C135	C	1.894103	0.111437	0.713050
C136	C	2.144103	0.361437	0.963050
C137	C	1.394144	-0.388580	0.105836
C138	C	1.644144	-0.138580	0.355836
C139	C	1.894144	0.111420	0.605836
C140	C	2.144144	0.361420	0.855836
C141	C	1.394095	-0.388566	1.018767
C142	C	1.644095	-0.138566	1.268767
C143	C	1.894095	0.111434	1.518767
C144	C	2.144095	0.361434	1.768767
C145	C	1.394036	-0.388540	0.909534
C146	C	1.644036	-0.138540	1.159534
C147	C	1.894036	0.111460	1.409534
C148	C	2.144036	0.361460	1.659534
