data_functionalizedCrystal
_audit_creation_method	'MofGen! by Chris Wilmer'
_symmetry_space_group_name_H-M	'P1'
_symmetry_Int_Tables_number	1
_symmetry_cell_setting	triclinic
loop_
_symmetry_equiv_pos_as_xyz
  x,y,z
_cell_length_a	14.560438
_cell_length_b	14.628931
_cell_length_c	14.628931
_cell_angle_alpha	90.000000
_cell_angle_beta	59.999531
_cell_angle_gamma	60.000661
loop_
_atom_site_label
_atom_site_type_symbol
_atom_site_fract_x
_atom_site_fract_y
_atom_site_fract_z
Zr1	Zr	1.005277	-0.119945	0.880616
O2	O	1.196880	-0.265904	0.734654
O3	O	0.813675	-0.075203	0.925362
O4	O	1.005277	-0.265906	0.925361
O5	O	1.005277	0.075231	0.734655
O6	O	1.005277	-0.265906	1.075793
O7	O	1.005277	-0.075201	0.734655
O8	O	0.662536	0.075227	1.075794
O9	O	1.348018	-0.265902	0.734654
O10	O	0.892483	-0.056119	1.056710
O11	O	0.892483	0.056147	0.944445
O12	O	1.118070	-0.168381	0.944444
O13	O	1.118070	-0.056116	0.832178
Zr14	Zr	1.005276	0.119977	1.120538
Zr15	Zr	1.005276	-0.119945	1.120538
Zr16	Zr	1.005276	0.119977	0.880616
Zr17	Zr	1.246326	-0.119942	0.880615
Zr18	Zr	0.764227	0.119973	1.120539
O19	O	1.196878	0.075235	1.075793
O20	O	1.196879	-0.265903	1.075792
O21	O	1.196879	0.075234	0.734655
O22	O	0.813673	0.265935	1.266500
O23	O	0.813674	-0.075203	1.266500
O24	O	0.813674	0.265935	0.925362
O25	O	1.005276	-0.075200	1.266499
O26	O	1.005275	0.265938	1.075794
O27	O	1.005276	0.265938	0.925362
O28	O	1.005275	0.075232	1.266499
O29	O	1.348018	-0.265901	0.925360
O30	O	0.662535	0.265933	1.075795
O31	O	0.662535	0.265933	1.266500
O32	O	0.662535	0.075227	1.266500
O33	O	1.348018	-0.075196	0.734654
O34	O	1.348017	-0.075195	0.925360
O35	O	0.892483	0.168413	1.056711
O36	O	0.892483	0.056147	1.168976
O37	O	1.118069	-0.056115	1.056710
O38	O	1.118069	0.056150	0.944444
C39	C	0.703761	0.000012	1.000578
C40	C	0.601430	0.000010	1.000578
C41	C	1.005277	0.000015	0.700472
C42	C	1.005278	0.000015	0.598618
C43	C	1.005276	0.300122	1.000578
C44	C	1.005275	0.401975	1.000578
C45	C	0.553355	-0.058593	1.059176
C46	C	0.457198	-0.058585	1.059178
C47	C	0.457201	0.058632	0.941977
C48	C	0.553351	0.058629	0.941982
C49	C	0.601434	-0.117213	1.117772
C50	C	0.553361	-0.175822	1.176374
C51	C	0.457204	-0.175813	1.176376
C52	C	0.409119	-0.117195	1.117777
C53	C	1.306792	0.000020	1.000576
C54	C	1.409123	0.000022	1.000576
C55	C	1.005277	-0.300090	1.000577
C56	C	1.005278	-0.401943	1.000577
C57	C	1.117181	0.391694	0.944886
C58	C	1.117184	0.496963	0.944885
C59	C	0.893371	0.055705	0.608901
C60	C	0.893369	0.055706	0.503632
C61	C	1.005276	0.000016	1.300683
C62	C	1.005275	0.000016	1.402536
C63	C	0.703760	0.000012	1.300684
C64	C	0.601429	0.000011	1.402537
C65	C	0.703760	0.300117	1.000578
C66	C	0.601429	0.401969	1.000579
C67	C	0.703759	0.300118	1.300684
C68	C	0.601427	0.401969	1.402538
C69	C	1.306793	-0.300086	0.700470
C70	C	1.409125	-0.401938	0.598617
C71	C	1.306792	0.000020	0.700471
C72	C	1.409124	0.000021	0.598617
C73	C	1.306792	-0.300086	1.000576
C74	C	1.409124	-0.401937	1.000576
C75	C	0.555806	-0.055681	1.392255
C76	C	0.450041	-0.055684	1.497525
C77	C	0.555806	0.503069	1.056271
C78	C	0.450040	0.608339	1.056272
C79	C	0.555805	0.391687	1.503639
C80	C	0.450039	0.496955	1.608911
H81	H	0.679733	-0.117229	1.117774
H82	H	0.592508	-0.223539	1.224090
F83	F	1.242415	0.485681	0.882568
H84	H	1.212987	0.304959	0.897203
H85	H	1.101083	-0.047660	0.511881
F86	F	0.406038	-0.238184	1.238748
H87	H	0.443646	0.511325	0.952905
F88	F	0.306768	-0.117180	1.117796
H89	H	0.562191	0.047684	1.489274
F90	F	0.455688	0.609342	1.485265
H91	H	1.101087	-0.047669	0.393899
H92	H	0.562190	0.488706	1.393918
F93	F	0.607098	0.278319	1.514913
F94	F	0.607099	-0.118008	1.278886
F95	F	0.398756	-0.118001	1.486241
F96	F	0.455689	0.062339	1.609912
F97	F	0.768138	0.118021	0.514916
H98	H	0.410804	0.695069	1.103953
F99	F	0.406023	0.121014	0.879617
H100	H	0.595052	0.511690	1.103944
F101	F	0.550149	0.390693	0.938251
H102	H	0.909466	0.606693	1.048262
H103	H	0.909470	0.488710	1.048251
F104	F	0.604519	0.121001	0.879615
F105	F	0.768142	0.118045	0.722270
F106	F	0.398753	0.485670	1.722273
