data_functionalizedCrystal
_audit_creation_method	'MofGen! by Chris Wilmer'
_symmetry_space_group_name_H-M	'P1'
_symmetry_Int_Tables_number	1
_symmetry_cell_setting	triclinic
loop_
_symmetry_equiv_pos_as_xyz
  x,y,z
_cell_length_a	12.759401
_cell_length_b	16.959453
_cell_length_c	12.759393
_cell_angle_alpha	89.964907
_cell_angle_beta	89.980163
_cell_angle_gamma	90.021513
loop_
_atom_site_label
_atom_site_type_symbol
_atom_site_fract_x
_atom_site_fract_y
_atom_site_fract_z
Zn1	Zn	1.606216	-0.314602	-0.593995
Zn2	Zn	1.606095	-0.446804	-0.418304
Zn3	Zn	1.430518	-0.314647	-0.418330
Zn4	Zn	1.430491	-0.446746	-0.593941
O5	O	1.518330	-0.380700	-0.506143
O6	O	1.753221	-0.332145	-0.570701
O7	O	1.582765	-0.429316	-0.271287
O8	O	1.453888	-0.204030	-0.441665
O9	O	1.753132	-0.429273	-0.441622
O10	O	1.582972	-0.203997	-0.570726
O11	O	1.453770	-0.332221	-0.271305
O12	O	1.283494	-0.332165	-0.441614
O13	O	1.453840	-0.429174	-0.740970
O14	O	1.283473	-0.429218	-0.570635
O15	O	1.582945	-0.332089	-0.741009
O16	O	1.582738	-0.557407	-0.441570
O17	O	1.453722	-0.557365	-0.570610
C18	C	1.245363	-0.380690	-0.506122
C19	C	1.128586	-0.380705	-0.506138
C20	C	1.073741	-0.431317	-0.573213
C21	C	0.964017	-0.431320	-0.573234
C22	C	0.963993	-0.330097	-0.439095
C23	C	1.073715	-0.330090	-0.439080
C24	C	1.518242	-0.586066	-0.506104
C25	C	1.518301	-0.673923	-0.506123
C26	C	1.585630	-1.045323	-0.573471
C27	C	1.451323	-1.045474	-0.438970
C28	C	1.451284	-0.962928	-0.438946
C29	C	1.518418	-0.921576	-0.506187
C30	C	1.585591	-0.962769	-0.573451
C31	C	1.384105	-0.921728	-0.371690
C32	C	1.384062	-0.839177	-0.371664
C33	C	1.451203	-0.797824	-0.438900
C34	C	1.518379	-0.839022	-0.506167
C35	C	1.585513	-0.797670	-0.573407
C36	C	1.652696	-0.838867	-0.640669
C37	C	1.652731	-0.921415	-0.640687
C38	C	1.451167	-0.715275	-0.438882
C39	C	1.585474	-0.715116	-0.573387
C40	C	1.792363	-0.380710	-0.506164
C41	C	1.909140	-0.380715	-0.506173
C42	C	1.518403	-0.380620	-0.780176
C43	C	1.518435	-0.380586	-0.896953
C44	C	1.518447	-0.174532	-0.506204
C45	C	1.518496	-0.086675	-0.506231
C46	C	1.451291	-0.330019	-0.951824
C47	C	1.451316	-0.329995	-1.061548
C48	C	1.585636	-0.431106	-1.061520
C49	C	1.585606	-0.431134	-0.951798
C50	C	1.518317	-0.380723	-0.233175
C51	C	1.518490	-0.380534	-0.116399
H52	H	1.118371	-0.288871	-0.384459
O53	O	1.385802	-0.675219	-0.373706
C54	C	1.317916	-0.627454	-0.433455
H55	H	1.311398	-0.652285	-0.516202
H56	H	1.350373	-0.564873	-0.437086
C57	C	1.216724	-0.595773	-0.280408
C58	C	1.208713	-0.626276	-0.382037
H59	H	1.149364	-0.595043	-0.248689
H60	H	1.262463	-0.627951	-0.240152
H61	H	1.243776	-0.543625	-0.283447
H62	H	1.181674	-0.678426	-0.378995
H63	H	1.162967	-0.594106	-0.422291
H64	H	0.919367	-0.472533	-0.627855
O65	O	1.386162	-1.085552	-0.373511
C66	C	1.409191	-1.065448	-0.268813
H67	H	1.449555	-1.005493	-0.266655
H68	H	1.463246	-1.111902	-0.233490
C69	C	1.257228	-1.135366	-0.207729
C70	C	1.306795	-1.061724	-0.205078
H71	H	1.194067	-1.133071	-0.168412
H72	H	1.241714	-1.148912	-0.278265
H73	H	1.302284	-1.174069	-0.178295
H74	H	1.261745	-1.023024	-0.234524
H75	H	1.322299	-1.048170	-0.134545
H76	H	1.396596	-0.288860	-0.907172
O77	O	0.910526	-0.281008	-0.373990
C78	C	0.801921	-0.291851	-0.388404
H79	H	0.786926	-0.352884	-0.422663
H80	H	0.770832	-0.245020	-0.444474
C81	C	0.763956	-0.209547	-0.240051
C82	C	0.745539	-0.284512	-0.282120
H83	H	0.729175	-0.205016	-0.174491
H84	H	0.837125	-0.202239	-0.230342
H85	H	0.738048	-0.170530	-0.286785
H86	H	0.771458	-0.323526	-0.235392
H87	H	0.672372	-0.291826	-0.291818
H88	H	1.640147	-0.681452	-0.628139
H89	H	1.707352	-0.805188	-0.695422
H90	H	1.640285	-0.472315	-0.907120
H91	H	1.707427	-0.954965	-0.695449
H92	H	1.640325	-0.472260	-1.106188
H93	H	1.640332	-1.078869	-0.628231
O94	O	1.318944	-0.961806	-0.306231
C95	C	1.341966	-0.941694	-0.201534
H96	H	1.382323	-0.881736	-0.199380
H97	H	1.396023	-0.988143	-0.166202
C98	C	1.190006	-1.011616	-0.140450
C99	C	1.239566	-0.937971	-0.137804
H100	H	1.126842	-1.009323	-0.101136
H101	H	1.174497	-1.025169	-0.210985
H102	H	1.235064	-1.050316	-0.111008
H103	H	1.194513	-0.899276	-0.167257
H104	H	1.255065	-0.924413	-0.067272
O105	O	1.126882	-0.480502	-0.638457
C106	C	1.054939	-0.525186	-0.697646
H107	H	0.976741	-0.492817	-0.701368
H108	H	1.043228	-0.585186	-0.659035
C109	C	1.193853	-0.576428	-0.804862
C110	C	1.097810	-0.536668	-0.809440
H111	H	1.220298	-0.583514	-0.873820
H112	H	1.242323	-0.546326	-0.764983
H113	H	1.184080	-0.626423	-0.772681
H114	H	1.107586	-0.486670	-0.841608
H115	H	1.049343	-0.566762	-0.849327
O116	O	1.318698	-0.799128	-0.306473
C117	C	1.250802	-0.751360	-0.366207
H118	H	1.244275	-0.776186	-0.448956
H119	H	1.283257	-0.688778	-0.369834
C120	C	1.149630	-0.719693	-0.213142
C121	C	1.141606	-0.750188	-0.314774
H122	H	1.082274	-0.718966	-0.181415
H123	H	1.195375	-0.751872	-0.172897
H124	H	1.176679	-0.667544	-0.216179
H125	H	1.114570	-0.802339	-0.311736
H126	H	1.095854	-0.718017	-0.355018
H127	H	1.396640	-0.288819	-1.106220
