data_functionalizedCrystal
_audit_creation_method	'MofGen! by Chris Wilmer'
_symmetry_space_group_name_H-M	'P1'
_symmetry_Int_Tables_number	1
_symmetry_cell_setting	triclinic
loop_
_symmetry_equiv_pos_as_xyz
  x,y,z
_cell_length_a	10.654550
_cell_length_b	16.956984
_cell_length_c	9.730223
_cell_angle_alpha	89.995228
_cell_angle_beta	89.999957
_cell_angle_gamma	80.269175
loop_
_atom_site_label
_atom_site_type_symbol
_atom_site_fract_x
_atom_site_fract_y
_atom_site_fract_z
O1	O	1.654682	0.111934	-0.114189
O2	O	1.287950	0.122598	-0.114214
O3	O	1.493349	0.001309	-0.114190
O4	O	1.449284	0.233223	-0.114213
O5	O	1.493337	0.001305	0.114390
O6	O	1.287938	0.122594	0.114366
O7	O	1.654670	0.111930	0.114391
Zn8	Zn	1.471302	0.117262	0.150670
Zn9	Zn	1.471318	0.117266	-0.150494
O10	O	1.449272	0.233219	0.114367
C11	C	1.241238	0.121813	0.000073
C12	C	1.102070	0.119470	0.000063
C13	C	1.495599	-0.028389	0.000099
C14	C	1.502308	-0.116872	0.000098
C15	C	1.014191	0.190884	0.000060
C16	C	0.883429	0.188678	0.000084
C17	C	0.928441	0.043639	0.000109
C18	C	1.059199	0.045846	0.000094
C19	C	1.390142	-0.149577	0.000085
C20	C	1.396452	-0.232717	0.000089
C21	C	1.514931	-0.283151	0.000097
C22	C	1.627106	-0.250442	0.000115
C23	C	1.620794	-0.167303	0.000121
C24	C	1.546175	-0.532751	0.000090
C25	C	1.552479	-0.615895	0.000080
C26	C	1.321825	-0.598165	0.000057
C27	C	1.315523	-0.515025	0.000054
C28	C	1.427698	-0.482323	0.000079
N29	N	1.521385	-0.368134	0.000097
N30	N	1.421243	-0.397341	0.000089
C31	C	1.701382	0.112715	0.000101
C32	C	1.840550	0.115058	0.000102
C33	C	1.447021	0.262917	0.000075
C34	C	1.440313	0.351400	0.000066
N35	N	1.471301	0.117258	0.356207
N36	N	1.471330	0.117263	-0.356030
C37	C	1.562278	0.063574	0.428143
C38	C	1.562290	0.063575	0.572026
C39	C	1.380344	0.170950	0.572024
C40	C	1.380327	0.170945	0.428143
H41	H	0.811881	0.246830	0.000085
H42	H	1.306277	0.214662	0.630609
H43	H	1.049091	0.250833	0.000045
H44	H	0.893518	-0.016304	0.000142
H45	H	1.648964	-0.656958	0.000078
H46	H	1.305115	-0.259341	0.000067
H47	H	1.130756	-0.012311	0.000101
H48	H	1.293663	-0.108518	0.000071
H49	H	1.637516	-0.506135	0.000107
O50	O	1.200327	-0.466150	0.000121
C51	C	0.972216	-0.457341	0.000034
C52	C	1.102590	-0.512783	-0.000007
H53	H	0.893161	-0.495021	-0.000098
H54	H	0.963411	-0.417998	0.095722
H55	H	0.963565	-0.417949	-0.095599
H56	H	1.111331	-0.552224	0.095562
H57	H	1.111338	-0.552072	-0.095757
O58	O	1.742302	-0.299317	0.000180
C59	C	1.970412	-0.308121	0.000106
C60	C	1.840035	-0.252681	0.000073
H61	H	2.049464	-0.270439	-0.000010
H62	H	1.979219	-0.347483	0.095782
H63	H	1.979066	-0.347494	-0.095539
H64	H	1.831293	-0.213258	0.095652
H65	H	1.831286	-0.213374	-0.095667
H66	H	1.230498	-0.624801	0.000039
H67	H	1.712132	-0.140677	0.000134
H68	H	1.306236	0.214661	0.369569
O69	O	1.650694	0.011344	0.358476
C70	C	1.831201	-0.095130	0.373672
C71	C	1.731125	-0.036030	0.452735
H72	H	1.896273	-0.133435	0.449845
H73	H	1.781218	-0.135320	0.306367
H74	H	1.890256	-0.060340	0.306255
H75	H	1.672040	-0.070755	0.520226
H76	H	1.781186	0.004160	0.519953
H77	H	1.636370	0.019859	0.630593
