data_functionalizedCrystal
_audit_creation_method	'MofGen! by Chris Wilmer'
_symmetry_space_group_name_H-M	'P1'
_symmetry_Int_Tables_number	1
_symmetry_cell_setting	triclinic
loop_
_symmetry_equiv_pos_as_xyz
  x,y,z
_cell_length_a	18.050591
_cell_length_b	19.121449
_cell_length_c	18.050582
_cell_angle_alpha	92.462284
_cell_angle_beta	90.010544
_cell_angle_gamma	87.584163
loop_
_atom_site_label
_atom_site_type_symbol
_atom_site_fract_x
_atom_site_fract_y
_atom_site_fract_z
Zn1	Zn	1.147918	-0.279675	0.407216
Zn2	Zn	1.153130	-0.397116	0.277732
Zn3	Zn	1.023738	-0.279683	0.283050
Zn4	Zn	1.028986	-0.397085	0.401891
O5	O	1.088443	-0.338390	0.342472
O6	O	1.252534	-0.295263	0.390043
O7	O	1.135951	-0.381555	0.174512
O8	O	1.035833	-0.181400	0.303975
O9	O	1.256364	-0.381547	0.294911
O10	O	1.127067	-0.181393	0.395200
O11	O	1.040887	-0.295278	0.178419
O12	O	0.920509	-0.295247	0.298811
O13	O	1.044777	-0.381493	0.506523
O14	O	0.924364	-0.381502	0.386123
O15	O	1.132156	-0.295233	0.510435
O16	O	1.141040	-0.495395	0.289747
O17	O	1.049831	-0.495372	0.380967
C18	C	0.895490	-0.338373	0.342467
C19	C	0.812945	-0.338382	0.342481
C20	C	1.096591	-0.520867	0.334218
C21	C	1.100145	-0.598931	0.330712
C22	C	0.566242	-0.385384	0.389890
C23	C	0.616383	-0.402474	0.321333
C24	C	0.515825	-0.338404	0.342479
C25	C	0.612766	-0.321337	0.411031
C26	C	0.661810	-0.338395	0.342484
C27	C	0.564881	-0.355527	0.273885
C28	C	0.561259	-0.274360	0.363630
C29	C	0.611377	-0.291425	0.295028
C30	C	0.431727	-0.338411	0.342477
C31	C	0.745906	-0.338388	0.342478
C32	C	1.054294	-0.635620	0.376518
C33	C	1.057636	-0.708969	0.373221
C34	C	1.106833	-0.745630	0.324120
C35	C	1.152686	-0.708936	0.278308
C36	C	1.149339	-0.635587	0.281603
C37	C	1.119312	-0.967094	0.311796
C38	C	1.122657	-1.040447	0.308506
C39	C	1.027606	-1.040476	0.403418
C40	C	1.024267	-0.967126	0.406711
C41	C	1.070116	-0.930439	0.360897
C42	C	1.110253	-0.820605	0.320750
C43	C	1.066693	-0.855465	0.364264
C44	C	1.282149	-0.338408	0.342478
C45	C	1.364695	-0.338415	0.342480
C46	C	1.088471	-0.338359	0.536179
C47	C	1.088482	-0.338345	0.618726
C48	C	1.080283	-0.155200	0.350775
C49	C	1.076806	-0.077136	0.354313
C50	C	1.088456	-0.338370	0.149521
C51	C	1.088579	-0.338186	0.066984
C52	C	1.041001	-0.385190	0.816052
C53	C	1.109531	-0.402359	0.864664
C54	C	1.088517	-0.338292	0.769859
C55	C	1.020023	-0.321103	0.868329
C56	C	1.088544	-0.338241	0.915846
C57	C	1.157084	-0.355495	0.817382
C58	C	1.067529	-0.274209	0.821044
C59	C	1.136105	-0.291354	0.869635
C60	C	1.088500	-0.338323	0.685759
C61	C	1.088568	-0.338210	0.999944
H62	H	0.546357	-0.425148	0.429928
H63	H	0.543915	-0.370025	0.215895
H64	H	1.156646	-0.937229	0.274493
C65	C	1.051022	-0.791410	0.469407
C66	C	1.007241	-0.749296	0.423579
H67	H	1.019907	-0.816308	0.500494
H68	H	1.082051	-0.762753	0.499121
H69	H	1.080793	-0.823740	0.439683
H70	H	0.977474	-0.716963	0.453303
H71	H	0.976199	-0.777956	0.393861
C72	C	0.930628	-0.974525	0.500176
C73	C	0.970175	-0.926831	0.460671
H74	H	0.897230	-0.949647	0.533484
H75	H	0.964265	-1.003083	0.527337
H76	H	0.903560	-1.003181	0.466497
H77	H	0.997247	-0.898178	0.494350
H78	H	0.936533	-0.898261	0.433509
C79	C	0.892143	-0.350712	0.871368
C80	C	0.941813	-0.301499	0.898504
H81	H	0.843859	-0.338611	0.889992
H82	H	0.907389	-0.395889	0.886973
H83	H	0.891487	-0.351004	0.818733
H84	H	0.942473	-0.301212	0.951139
H85	H	0.926563	-0.256310	0.882902
C86	C	1.216269	-1.033056	0.215006
C87	C	1.176734	-1.080746	0.254527
H88	H	1.249649	-1.057936	0.181682
H89	H	1.243350	-1.004405	0.248668
H90	H	1.182618	-1.004491	0.187856
H91	H	1.210385	-1.109308	0.281681
H92	H	1.149651	-1.109409	0.220860
C93	C	0.485118	-0.206314	0.451391
C94	C	0.528666	-0.201273	0.387808
H95	H	0.464992	-0.161194	0.466319
H96	H	0.514883	-0.224331	0.490164
H97	H	0.445934	-0.236830	0.440804
H98	H	0.567853	-0.170762	0.398396
H99	H	0.498899	-0.183247	0.349027
C100	C	0.626244	-0.524705	0.346895
C101	C	0.648947	-0.475582	0.297176
H102	H	0.646349	-0.569838	0.331985
H103	H	0.573658	-0.525340	0.347154
H104	H	0.643340	-0.512256	0.395263
H105	H	0.631846	-0.488028	0.248808
H106	H	0.701545	-0.474948	0.296909
C107	C	1.213881	-0.903053	0.306780
C108	C	1.164302	-0.860922	0.266763
H109	H	1.247239	-0.927946	0.273443
H110	H	1.187045	-0.935380	0.333600
H111	H	1.240992	-0.874403	0.340427
H112	H	1.137186	-0.889573	0.233120
H113	H	1.191141	-0.828591	0.239931
H114	H	0.990277	-1.070354	0.440717
H115	H	0.631126	-0.251692	0.254888
C116	C	1.189554	-0.237772	0.978692
C117	C	1.190418	-0.237776	0.901124
H118	H	1.223081	-0.204691	0.998130
H119	H	1.204068	-0.283130	0.994308
H120	H	1.140926	-0.225479	0.996243
H121	H	1.239045	-0.250073	0.883572
H122	H	1.175908	-0.192407	0.885501
C123	C	0.979911	-0.206068	0.751006
C124	C	1.043519	-0.201102	0.795014
H125	H	0.965087	-0.160935	0.734932
H126	H	0.941099	-0.224021	0.779151
H127	H	0.990417	-0.236609	0.709083
H128	H	1.033012	-0.170565	0.836941
H129	H	1.082340	-0.183140	0.766869
C130	C	0.618490	-0.351125	0.538833
C131	C	0.641196	-0.301847	0.489289
H132	H	0.636037	-0.339094	0.587147
H133	H	0.638152	-0.396289	0.523483
H134	H	0.565881	-0.351402	0.539476
H135	H	0.693805	-0.301574	0.488642
H136	H	0.621537	-0.256672	0.504643
H137	H	1.014236	-0.605776	0.416505
H138	H	1.192740	-0.738790	0.238326
H139	H	1.186674	-0.605716	0.244301
H140	H	1.026634	-0.825614	0.404239
H141	H	1.215039	-0.370073	0.795118
C142	C	1.008988	-0.505844	0.806288
C143	C	0.986813	-0.438795	0.784373
H144	H	0.975539	-0.538937	0.786726
H145	H	1.008950	-0.506486	0.858875
H146	H	1.057513	-0.517584	0.788115
H147	H	0.938290	-0.427053	0.802551
H148	H	0.986844	-0.438152	0.731776
H149	H	1.127299	-0.456531	0.883919
