data_functionalizedCrystal
_audit_creation_method	'MofGen! by Chris Wilmer'
_symmetry_space_group_name_H-M	'P1'
_symmetry_Int_Tables_number	1
_symmetry_cell_setting	triclinic
loop_
_symmetry_equiv_pos_as_xyz
  x,y,z
_cell_length_a	10.967971
_cell_length_b	15.995292
_cell_length_c	15.072220
_cell_angle_alpha	89.995134
_cell_angle_beta	77.867459
_cell_angle_gamma	84.103283
loop_
_atom_site_label
_atom_site_type_symbol
_atom_site_fract_x
_atom_site_fract_y
_atom_site_fract_z
O1	O	1.655656	0.117461	-0.326896
O2	O	1.292356	0.128698	-0.271355
O3	O	1.483975	0.001246	-0.300651
O4	O	1.464037	0.244913	-0.297600
O5	O	1.483959	0.001234	-0.153083
O6	O	1.292340	0.128686	-0.123788
O7	O	1.655640	0.117449	-0.179329
Zn8	Zn	1.473987	0.123065	-0.128128
Zn9	Zn	1.474009	0.123081	-0.322555
O10	O	1.464021	0.244901	-0.150033
C11	C	1.245859	0.127873	-0.190464
C12	C	1.107337	0.125424	-0.169287
C13	C	1.483155	-0.029961	-0.226745
C14	C	1.480723	-0.122928	-0.226380
C15	C	1.471779	-0.460717	-0.225005
C16	C	1.610084	-0.436609	-0.245819
C17	C	1.612713	-0.339919	-0.246557
C18	C	1.476217	-0.293136	-0.225687
C19	C	1.407080	-0.322628	-0.299381
C20	C	1.405415	-0.419428	-0.299194
C21	C	1.402572	-0.419315	-0.130950
C22	C	1.407697	-0.322793	-0.130623
C23	C	1.478718	-0.198425	-0.226074
C24	C	1.469274	-0.555428	-0.224623
C25	C	1.702137	0.118273	-0.260221
C26	C	1.840659	0.120722	-0.281404
C27	C	1.902415	0.121808	-0.214405
C28	C	2.045585	0.124339	-0.236296
C29	C	1.464841	0.276107	-0.223940
C30	C	1.467273	0.369074	-0.224311
N31	N	1.473981	0.123054	0.004561
N32	N	1.474025	0.123086	-0.455246
C33	C	1.473996	0.123065	0.185556
C34	C	1.576551	0.054892	0.207518
C35	C	1.576923	0.055077	0.310287
C36	C	1.474010	0.123075	0.363758
C37	C	1.501881	0.210710	0.322153
C38	C	1.502609	0.210305	0.219184
C39	C	1.343262	0.104389	0.243462
C40	C	1.344147	0.102415	0.346191
C41	C	1.474016	0.123086	0.464471
C42	C	1.473993	0.123060	0.084844
H43	H	1.666859	-0.320587	-0.194432
H44	H	1.429149	0.262710	0.357715
H45	H	1.316339	0.041791	0.221644
Br46	Br	1.813885	0.120245	-0.091781
Br47	Br	1.241637	-0.268801	-0.096747
H48	H	1.893781	0.121671	-0.354972
Br49	Br	1.211053	0.179682	0.409341
H50	H	1.306637	-0.291338	-0.287157
H51	H	1.663387	-0.464305	-0.193538
H52	H	1.663104	-0.465317	-0.314015
Br53	Br	2.134105	0.125923	-0.358924
Br54	Br	1.703513	-0.308704	-0.361293
H55	H	1.596117	0.227374	0.333501
H56	H	1.455104	-0.302286	-0.369434
H57	H	1.446120	-0.447158	-0.073736
Br58	Br	1.549386	-0.053438	0.356588
H59	H	1.266950	0.154093	0.230786
H60	H	1.322986	0.037942	0.373835
H61	H	2.054220	0.124485	-0.095714
Br62	Br	1.549487	-0.053993	0.170450
Br63	Br	1.485250	-0.463661	-0.416384
Br64	Br	1.236405	-0.444658	-0.279732
Br65	Br	1.737364	0.074686	0.139846
Br66	Br	1.738642	0.075164	0.326575
H67	H	1.458039	-0.303943	-0.075982
H68	H	1.300769	-0.433892	-0.114817
H69	H	1.597935	0.226597	0.180614
H70	H	1.430519	0.262491	0.205304
