data_functionalizedCrystal
_audit_creation_method	'MofGen! by Chris Wilmer'
_symmetry_space_group_name_H-M	'P1'
_symmetry_Int_Tables_number	1
_symmetry_cell_setting	triclinic
loop_
_symmetry_equiv_pos_as_xyz
  x,y,z
_cell_length_a	10.654550
_cell_length_b	8.597304
_cell_length_c	9.130313
_cell_angle_alpha	97.701174
_cell_angle_beta	90.003780
_cell_angle_gamma	84.909268
loop_
_atom_site_label
_atom_site_type_symbol
_atom_site_fract_x
_atom_site_fract_y
_atom_site_fract_z
O1	O	1.669004	0.220456	0.149733
O2	O	1.303637	0.241460	0.152360
O3	O	1.493512	0.002571	0.122223
O4	O	1.479129	0.459345	0.179870
O5	O	1.493509	0.002577	-0.121375
O6	O	1.303634	0.241467	-0.091238
O7	O	1.669001	0.220462	-0.093865
Cu8	Cu	1.486318	0.230965	-0.114794
Cu9	Cu	1.486320	0.230957	0.173289
O10	O	1.479127	0.459352	-0.063728
C11	C	1.256829	0.239921	0.030363
C12	C	1.117362	0.235307	0.029772
C13	C	1.038622	0.375961	0.047544
C14	C	0.907578	0.371616	0.047021
C15	C	0.934026	0.085950	0.010958
C16	C	1.065067	0.090297	0.011471
C17	C	1.023352	0.540889	0.068372
C18	C	0.892308	0.536544	0.067849
C19	C	1.491966	-0.055914	-0.006954
C20	C	1.487349	-0.230190	-0.028940
C21	C	1.715809	0.222001	0.028135
C22	C	1.855276	0.226615	0.028736
C23	C	1.480672	0.517837	0.065453
C24	C	1.485289	0.692113	0.087448
N25	N	1.486325	0.230970	-0.317416
C26	C	1.570424	0.125226	-0.407408
C27	C	1.570420	0.125207	-0.560747
C28	C	1.402215	0.336690	-0.534087
C29	C	1.402214	0.336700	-0.380752
C30	C	1.667539	0.003132	-0.422800
C31	C	1.667536	0.003113	-0.576139
N32	N	1.486323	0.230941	0.375910
H33	H	1.059287	0.593401	0.180171
F34	F	1.312702	0.449208	-0.601506
F35	F	1.485021	-0.317512	-0.181190
F36	F	1.786980	0.053116	-0.354314
H37	H	0.846900	0.586389	-0.031029
F38	F	1.312692	0.449226	-0.284978
H39	H	1.645456	-0.117514	-0.396408
F40	F	1.626854	-0.145897	-0.657103
F41	F	1.793869	0.038252	-0.626099
H42	H	1.129173	-0.024238	-0.003022
F43	F	1.062142	0.625207	-0.054238
F44	F	0.878359	-0.068371	-0.008519
F45	F	0.838187	0.617760	0.211356
H46	H	1.487053	-0.241080	0.203921
