data_functionalizedCrystal
_audit_creation_method	'MofGen! by Chris Wilmer'
_symmetry_space_group_name_H-M	'P1'
_symmetry_Int_Tables_number	1
_symmetry_cell_setting	triclinic
loop_
_symmetry_equiv_pos_as_xyz
  x,y,z
_cell_length_a	16.109301
_cell_length_b	16.109318
_cell_length_c	14.586319
_cell_angle_alpha	90.000075
_cell_angle_beta	89.994786
_cell_angle_gamma	83.465022
loop_
_atom_site_label
_atom_site_type_symbol
_atom_site_fract_x
_atom_site_fract_y
_atom_site_fract_z
O1	O	0.106935	1.103122	-0.076167
O2	O	0.356935	1.353122	0.173833
O3	O	0.606935	1.603122	0.423833
O4	O	0.856935	1.853122	0.673833
O5	O	0.120219	0.861062	-0.076186
O6	O	0.370219	1.111062	0.173814
O7	O	0.620219	1.361062	0.423814
O8	O	0.870219	1.611062	0.673814
O9	O	-0.007454	0.988741	-0.076167
O10	O	0.242546	1.238741	0.173833
O11	O	0.492546	1.488741	0.423833
O12	O	0.742546	1.738741	0.673833
O13	O	0.234607	0.975442	-0.076186
O14	O	0.484607	1.225442	0.173814
O15	O	0.734607	1.475442	0.423814
O16	O	0.984607	1.725442	0.673814
O17	O	-0.007456	0.988733	0.076314
O18	O	0.242544	1.238733	0.326314
O19	O	0.492544	1.488733	0.576314
O20	O	0.742544	1.738733	0.826314
O21	O	0.120217	0.861053	0.076295
O22	O	0.370217	1.111053	0.326295
O23	O	0.620217	1.361053	0.576295
O24	O	0.870217	1.611053	0.826295
O25	O	0.106933	1.103113	0.076314
O26	O	0.356933	1.353113	0.326314
O27	O	0.606933	1.603113	0.576314
O28	O	0.856933	1.853113	0.826314
Cu29	Cu	0.113575	0.982082	0.090227
Cu30	Cu	0.363575	1.232082	0.340227
Cu31	Cu	0.613575	1.482082	0.590227
Cu32	Cu	0.863575	1.732082	0.840227
Cu33	Cu	0.113577	0.982093	-0.090099
Cu34	Cu	0.363577	1.232093	0.159901
Cu35	Cu	0.613577	1.482093	0.409901
Cu36	Cu	0.863577	1.732093	0.659901
O37	O	0.234606	0.975433	0.076294
O38	O	0.484606	1.225433	0.326294
O39	O	0.734606	1.475433	0.576294
O40	O	0.984606	1.725433	0.826294
C41	C	0.119677	0.830083	0.000052
C42	C	0.369677	1.080083	0.250052
C43	C	0.619677	1.330083	0.500052
C44	C	0.869677	1.580083	0.750052
C45	C	0.118057	0.737788	0.000045
C46	C	0.368057	0.987788	0.250045
C47	C	0.618057	1.237788	0.500045
C48	C	0.868057	1.487788	0.750045
C49	C	0.112823	0.438719	-0.083055
C50	C	0.362823	0.688719	0.166945
C51	C	0.612823	0.938719	0.416945
C52	C	0.862823	1.188719	0.666945
C53	C	0.114340	0.525441	-0.083061
C54	C	0.364340	0.775441	0.166939
C55	C	0.614340	1.025441	0.416939
C56	C	0.864340	1.275441	0.666939
C57	C	0.114327	0.525450	0.083182
C58	C	0.364327	0.775450	0.333182
C59	C	0.614327	1.025450	0.583182
C60	C	0.864327	1.275450	0.833182
C61	C	0.112803	0.438731	0.083187
C62	C	0.362803	0.688731	0.333187
C63	C	0.612803	0.938731	0.583187
C64	C	0.862803	1.188731	0.833187
C65	C	0.112056	0.395367	0.000065
C66	C	0.362056	0.645367	0.250065
C67	C	0.612056	0.895367	0.500065
C68	C	0.862056	1.145367	0.750065
C69	C	0.115096	0.568807	0.000055
C70	C	0.365096	0.818807	0.250055
C71	C	0.615096	1.068807	0.500055
C72	C	0.865096	1.318807	0.750055
C73	C	0.116742	0.662835	0.000049
C74	C	0.366742	0.912835	0.250049
C75	C	0.616742	1.162835	0.500049
C76	C	0.866742	1.412835	0.750049
C77	C	0.110409	0.301334	0.000070
C78	C	0.360409	0.551334	0.250070
C79	C	0.610409	0.801334	0.500070
C80	C	0.860409	1.051334	0.750070
C81	C	-0.038430	0.988198	0.000074
C82	C	0.211570	1.238198	0.250074
C83	C	0.461570	1.488198	0.500074
C84	C	0.711570	1.738198	0.750074
C85	C	-0.130725	0.986583	0.000075
C86	C	0.119275	1.236583	0.250075
C87	C	0.369275	1.486583	0.500075
C88	C	0.619275	1.736583	0.750075
C89	C	-0.352993	1.058590	0.000067
C90	C	-0.102993	1.308590	0.250067
C91	C	0.147007	1.558590	0.500067
C92	C	0.397007	1.808590	0.750067
C93	C	-0.439713	1.057066	0.000059
C94	C	-0.189713	1.307066	0.250059
C95	C	0.060287	1.557066	0.500059
C96	C	0.310287	1.807066	0.750059
C97	C	-0.419848	0.905579	0.000051
C98	C	-0.169848	1.155579	0.250051
C99	C	0.080152	1.405579	0.500051
C100	C	0.330152	1.655579	0.750051
C101	C	-0.333130	0.907104	0.000052
C102	C	-0.083130	1.157104	0.250052
C103	C	0.166870	1.407104	0.500052
C104	C	0.416870	1.657104	0.750052
C105	C	-0.299704	0.983612	0.000064
C106	C	-0.049704	1.233612	0.250064
C107	C	0.200296	1.483612	0.500064
C108	C	0.450296	1.733612	0.750064
C109	C	-0.473144	0.980563	0.000056
C110	C	-0.223144	1.230563	0.250056
C111	C	0.026856	1.480563	0.500056
C112	C	0.276856	1.730563	0.750056
C113	C	-0.567170	0.978910	0.000047
C114	C	-0.317170	1.228910	0.250047
C115	C	-0.067170	1.478910	0.500047
C116	C	0.182830	1.728910	0.750047
C117	C	-0.205672	0.985265	0.000071
C118	C	0.044328	1.235265	0.250071
C119	C	0.294328	1.485265	0.500071
C120	C	0.544328	1.735265	0.750071
C121	C	0.265581	0.975976	0.000052
C122	C	0.515581	1.225976	0.250052
C123	C	0.765581	1.475976	0.500052
C124	C	1.015581	1.725976	0.750052
C125	C	0.357877	0.977592	0.000044
C126	C	0.607877	1.227592	0.250044
C127	C	0.857877	1.477592	0.500044
C128	C	1.107877	1.727592	0.750044
C129	C	0.107474	1.134092	0.000074
C130	C	0.357474	1.384092	0.250074
C131	C	0.607474	1.634092	0.500074
C132	C	0.857474	1.884092	0.750074
C133	C	0.109095	1.226387	0.000075
C134	C	0.359095	1.476387	0.250075
C135	C	0.609095	1.726387	0.500075
C136	C	0.859095	1.976387	0.750075
N137	N	0.113573	0.982081	0.217059
N138	N	0.363573	1.232081	0.467059
N139	N	0.613573	1.482081	0.717059
N140	N	0.863573	1.732081	0.967059
N141	N	0.113573	0.982100	-0.216931
N142	N	0.363573	1.232100	0.033069
N143	N	0.613573	1.482100	0.283069
N144	N	0.863573	1.732100	0.533069
C145	C	0.057058	1.038636	0.452074
C146	C	0.307058	1.288636	0.702074
C147	C	0.557058	1.538636	0.952074
C148	C	0.807058	1.788636	1.202074
C149	C	0.057056	1.038638	0.548055
C150	C	0.307056	1.288638	0.798055
C151	C	0.557056	1.538638	1.048055
C152	C	0.807056	1.788638	1.298055
C153	C	0.170090	0.925539	0.548047
C154	C	0.420090	1.175539	0.798047
C155	C	0.670090	1.425539	1.048047
C156	C	0.920090	1.675539	1.298047
C157	C	0.170087	0.925534	0.452068
C158	C	0.420087	1.175534	0.702068
C159	C	0.670087	1.425534	0.952068
C160	C	0.920087	1.675534	1.202068
C161	C	0.113572	0.982087	0.404084
C162	C	0.363572	1.232087	0.654084
C163	C	0.613572	1.482087	0.904084
C164	C	0.863572	1.732087	1.154084
C165	C	0.113573	0.982095	0.596044
C166	C	0.363573	1.232095	0.846044
C167	C	0.613573	1.482095	1.096044
C168	C	0.863573	1.732095	1.346044
C169	C	0.113571	0.982097	0.700111
C170	C	0.363571	1.232097	0.950111
C171	C	0.613571	1.482097	1.200111
C172	C	0.863571	1.732097	1.450111
C173	C	0.113573	0.982084	0.300010
C174	C	0.363573	1.232084	0.550010
C175	C	0.613573	1.482084	0.800010
C176	C	0.863573	1.732084	1.050010
H177	H	0.114937	0.560767	0.150856
H178	H	0.364937	0.810767	0.400856
H179	H	0.614937	1.060767	0.650856
H180	H	0.864937	1.310767	0.900856
Br181	Br	-0.019642	1.115385	0.386956
Br182	Br	0.230358	1.365385	0.636956
Br183	Br	0.480358	1.615385	0.886956
Br184	Br	0.730358	1.865385	1.136956
Br185	Br	-0.465217	0.801751	0.000031
Br186	Br	-0.215217	1.051751	0.250031
Br187	Br	0.034783	1.301751	0.500031
Br188	Br	0.284783	1.551751	0.750031
H189	H	0.112178	0.403433	0.150877
H190	H	0.362178	0.653433	0.400877
H191	H	0.612178	0.903433	0.650877
H192	H	0.862178	1.153433	0.900877
Br193	Br	-0.019648	1.115383	0.613183
Br194	Br	0.230352	1.365383	0.863183
Br195	Br	0.480352	1.615383	1.113183
Br196	Br	0.730352	1.865383	1.363183
Br197	Br	0.246787	0.848793	0.613172
Br198	Br	0.496787	1.098793	0.863172
Br199	Br	0.746787	1.348793	1.113172
Br200	Br	0.996787	1.598793	1.363172
Br201	Br	0.246784	0.848776	0.386931
Br202	Br	0.496784	1.098776	0.636931
Br203	Br	0.746784	1.348776	0.886931
Br204	Br	0.996784	1.598776	1.136931
H205	H	0.114964	0.560734	-0.150746
H206	H	0.364964	0.810734	0.099254
H207	H	0.614964	1.060734	0.349254
H208	H	0.864964	1.310734	0.599254
H209	H	0.112213	0.403415	-0.150738
H210	H	0.362213	0.653415	0.099262
H211	H	0.612213	0.903415	0.349262
H212	H	0.862213	1.153415	0.599262
H213	H	-0.483098	1.118121	0.000059
H214	H	-0.233098	1.368121	0.250059
H215	H	0.016902	1.618121	0.500059
H216	H	0.266902	1.868121	0.750059
Br217	Br	-0.307632	1.162422	0.000084
Br218	Br	-0.057632	1.412422	0.250084
Br219	Br	0.192368	1.662422	0.500084
Br220	Br	0.442368	1.912422	0.750084
Br221	Br	-0.260803	0.805340	0.000036
Br222	Br	-0.010803	1.055340	0.250036
Br223	Br	0.239197	1.305340	0.500036
Br224	Br	0.489197	1.555340	0.750036
