data_functionalizedCrystal
_audit_creation_method	'MofGen! by Chris Wilmer'
_symmetry_space_group_name_H-M	'P1'
_symmetry_Int_Tables_number	1
_symmetry_cell_setting	triclinic
loop_
_symmetry_equiv_pos_as_xyz
  x,y,z
_cell_length_a	13.032831
_cell_length_b	19.121063
_cell_length_c	13.032268
_cell_angle_alpha	80.752502
_cell_angle_beta	89.113023
_cell_angle_gamma	85.565596
loop_
_atom_site_label
_atom_site_type_symbol
_atom_site_fract_x
_atom_site_fract_y
_atom_site_fract_z
Zn1	Zn	1.465022	-0.473659	0.806576
Zn2	Zn	1.479383	-0.578156	0.640274
Zn3	Zn	1.316950	-0.444360	0.611224
Zn4	Zn	1.285899	-0.574364	0.790193
O5	O	1.386814	-0.517635	0.712067
O6	O	1.609870	-0.501370	0.803529
O7	O	1.476841	-0.549733	0.491924
O8	O	1.343577	-0.350107	0.631836
O9	O	1.620421	-0.578143	0.681348
O10	O	1.452365	-0.371633	0.775360
O11	O	1.357502	-0.451434	0.470581
O12	O	1.169889	-0.447756	0.615951
O13	O	1.290655	-0.571680	0.936863
O14	O	1.147076	-0.543270	0.747439
O15	O	1.422256	-0.497693	0.948899
O16	O	1.446733	-0.675793	0.665463
O17	O	1.304581	-0.673007	0.775608
C18	C	1.121419	-0.491923	0.676766
C19	C	1.007877	-0.480942	0.661690
C20	C	0.946005	-0.523366	0.719935
C21	C	0.828653	-0.512018	0.704355
C22	C	1.373870	-0.699851	0.721936
C23	C	1.368422	-0.777815	0.726206
C24	C	1.439917	-0.815879	0.670926
C25	C	1.434798	-0.889136	0.674948
C26	C	1.358179	-0.924327	0.734244
C27	C	1.286681	-0.886258	0.789530
C28	C	1.291805	-0.813003	0.785514
C29	C	1.339006	-1.145437	0.749244
C30	C	1.333886	-1.218697	0.753254
C31	C	1.482005	-1.221570	0.638672
C32	C	1.487118	-1.148313	0.634656
C33	C	1.415624	-1.110251	0.689946
C34	C	1.352943	-0.999207	0.738354
C35	C	1.420865	-1.035374	0.685842
C36	C	1.653245	-0.543448	0.747506
C37	C	1.766782	-0.554448	0.762608
C38	C	1.351390	-0.537532	0.981395
C39	C	1.336295	-0.546011	1.096167
C40	C	1.399833	-0.334712	0.702185
C41	C	1.405381	-0.256761	0.697974
C42	C	1.422162	-0.497771	0.443791
C43	C	1.437469	-0.489113	0.329036
C44	C	1.394678	-0.513183	1.153291
C45	C	1.379078	-0.521945	1.271914
H46	H	1.502304	-0.787232	0.622636
H47	H	1.280791	-1.114453	0.794261
C48	C	0.962835	-0.421348	0.579661
C49	C	1.001089	-0.431440	0.481697
C50	C	0.959636	-0.376551	0.406105
H51	H	0.889975	-0.421586	0.579920
H52	H	0.981646	-0.377026	0.594571
H53	H	0.982271	-0.475750	0.466791
H54	H	1.073945	-0.431195	0.481404
H55	H	0.978447	-0.332229	0.421015
H56	H	0.886777	-0.376793	0.406374
H57	H	0.985593	-0.383387	0.339630
H58	H	1.274755	-0.580597	1.135080
C59	C	0.812175	-0.614066	0.844403
C60	C	0.919547	-0.613485	0.843577
C61	C	0.961398	-0.668399	0.918902
H62	H	0.786457	-0.607388	0.911016
H63	H	0.793459	-0.658395	0.829431
H64	H	0.938253	-0.569167	0.858555
H65	H	0.945293	-0.620173	0.776982
H66	H	0.942682	-0.712728	0.903930
H67	H	0.935673	-0.661715	0.985510
H68	H	1.034254	-0.668016	0.918345
H69	H	1.224300	-0.914917	0.837816
C70	C	1.512481	-0.930331	0.614810
C71	C	1.580656	-0.883830	0.561994
C72	C	1.652227	-0.921751	0.506572
H73	H	1.549871	-0.966101	0.661721
H74	H	1.477391	-0.951821	0.566113
H75	H	1.615743	-0.862352	0.610686
H76	H	1.543296	-0.848060	0.515066
H77	H	1.617136	-0.943241	0.457875
H78	H	1.689609	-0.957519	0.553490
H79	H	1.698486	-0.890205	0.470722
C80	C	1.214059	-0.771793	0.845568
C81	C	1.145846	-0.818285	0.898338
C82	C	1.074208	-0.780348	0.953668
H83	H	1.249059	-0.750284	0.894289
H84	H	1.176718	-0.736034	0.798574
H85	H	1.183183	-0.854031	0.945327
H86	H	1.110822	-0.839796	0.849641
H87	H	1.036867	-0.744590	0.906673
H88	H	1.109217	-0.758841	1.002383
H89	H	1.027912	-0.811886	0.989471
C90	C	1.269903	-1.037526	0.802809
C91	C	1.316041	-1.090030	0.879011
C92	C	1.239580	-1.125353	0.938397
H93	H	1.228005	-1.004454	0.835257
H94	H	1.228646	-1.058958	0.758951
H95	H	1.357281	-1.068599	0.922863
H96	H	1.357933	-1.123117	0.846592
H97	H	1.198323	-1.146785	0.894539
H98	H	1.197687	-1.092276	0.970838
H99	H	1.270874	-1.160985	0.990100
C100	C	1.570423	-1.110245	0.570270
C101	C	1.631961	-1.159264	0.522743
C102	C	1.708720	-1.124222	0.463435
H103	H	1.539435	-1.074597	0.518413
H104	H	1.611753	-1.088880	0.614146
H105	H	1.590637	-1.180617	0.478871
H106	H	1.662974	-1.194913	0.574577
H107	H	1.750049	-1.102858	0.507310
H108	H	1.677722	-1.088575	0.411583
H109	H	1.750488	-1.157477	0.431188
C110	C	1.476605	-0.466932	1.101444
C111	C	1.455875	-0.397302	1.120874
C112	C	1.531317	-0.354674	1.073120
H113	H	1.542255	-0.485046	1.128705
H114	H	1.476179	-0.467126	1.028598
H115	H	1.456311	-0.397112	1.193706
H116	H	1.390238	-0.379168	1.093610
H117	H	1.530891	-0.354867	1.000273
H118	H	1.596963	-0.372794	1.100385
H119	H	1.517257	-0.307424	1.086288
C120	C	1.297115	-0.568076	1.323985
C121	C	1.297962	-0.567617	1.431293
C122	C	1.222485	-0.610112	1.479298
H123	H	1.231451	-0.549924	1.296800
H124	H	1.311019	-0.615372	1.310956
H125	H	1.284050	-0.520330	1.444316
H126	H	1.363608	-0.585775	1.458508
H127	H	1.236390	-0.657409	1.466268
H128	H	1.156827	-0.591957	1.452105
H129	H	1.223056	-0.609812	1.552112
H130	H	1.271503	-1.247349	0.801559
C131	C	0.783265	-0.452449	0.622482
C132	C	0.675897	-0.453056	0.623272
C133	C	0.634051	-0.398203	0.547853
H134	H	0.801925	-0.408091	0.637354
H135	H	0.809042	-0.459196	0.555902
H136	H	0.650130	-0.446304	0.689836
H137	H	0.657208	-0.497401	0.608387
H138	H	0.659827	-0.404949	0.481273
H139	H	0.652718	-0.353849	0.562732
H140	H	0.561198	-0.398611	0.548372
H141	H	1.540213	-1.252568	0.593660
C142	C	1.519399	-0.442853	1.277209
C143	C	1.498653	-0.373228	1.296655
C144	C	1.574095	-0.330590	1.248923
H145	H	1.585048	-0.460965	1.304476
H146	H	1.518984	-0.443038	1.204360
H147	H	1.499079	-0.373047	1.369489
H148	H	1.433018	-0.355096	1.269386
H149	H	1.573679	-0.330775	1.176074
H150	H	1.639739	-0.348708	1.276194
H151	H	1.560024	-0.283344	1.262102
H152	H	0.979912	-0.568086	0.781340
H153	H	1.483252	-1.006720	0.637567
