data_functionalizedCrystal
_audit_creation_method	'MofGen! by Chris Wilmer'
_symmetry_space_group_name_H-M	'P1'
_symmetry_Int_Tables_number	1
_symmetry_cell_setting	triclinic
loop_
_symmetry_equiv_pos_as_xyz
  x,y,z
_cell_length_a	12.837943
_cell_length_b	15.944551
_cell_length_c	11.892095
_cell_angle_alpha	93.888509
_cell_angle_beta	85.689438
_cell_angle_gamma	89.163839
loop_
_atom_site_label
_atom_site_type_symbol
_atom_site_fract_x
_atom_site_fract_y
_atom_site_fract_z
O1	O	1.382096	0.213524	-0.093988
O2	O	1.080290	0.202737	-0.093995
O3	O	1.239434	0.086515	-0.093981
O4	O	1.222952	0.329745	-0.094002
O5	O	1.226164	0.096189	0.094025
O6	O	1.067021	0.212411	0.094012
O7	O	1.368826	0.223198	0.094018
Zn8	Zn	1.215817	0.219340	0.123865
Zn9	Zn	1.233299	0.206594	-0.123842
O10	O	1.209683	0.339419	0.094005
C11	C	1.035034	0.203930	0.000008
C12	C	0.919957	0.193062	0.000006
C13	C	0.679007	0.323714	0.000011
C14	C	0.570881	0.313507	0.000010
C15	C	0.595575	0.162440	0.000010
C16	C	0.703701	0.172648	0.000012
C17	C	0.745413	0.253287	0.000010
C18	C	0.853542	0.263494	0.000003
C19	C	0.878234	0.112428	0.000012
C20	C	0.770107	0.102221	0.000011
C21	C	1.232115	0.060004	0.000022
C22	C	1.230063	-0.033407	0.000023
C23	C	1.126515	-0.256548	0.000005
C24	C	1.168058	-0.308949	0.092705
C25	C	1.226352	-0.204430	0.000014
C26	C	1.181163	-0.318468	-0.092655
C27	C	1.222761	-0.369631	0.000001
C28	C	1.267917	-0.255596	0.092790
C29	C	1.281014	-0.265115	-0.092653
C30	C	1.322628	-0.317491	0.000069
C31	C	1.228418	-0.109262	0.000023
C32	C	1.220702	-0.464796	0.000000
C33	C	1.414082	0.222005	0.000013
C34	C	1.529160	0.232872	0.000008
C35	C	1.217002	0.365931	-0.000001
C36	C	1.219054	0.459340	-0.000009
N37	N	1.203893	0.228039	0.292918
N38	N	1.245231	0.197890	-0.292895
C39	C	1.328203	0.137313	0.529576
C40	C	1.319876	0.143400	0.647918
C41	C	1.178907	0.246295	0.647944
C42	C	1.187234	0.240208	0.529603
C43	C	1.261886	0.185716	0.470423
C44	C	1.270217	0.179634	0.352080
C45	C	1.129244	0.282524	0.352108
C46	C	1.120917	0.288611	0.470449
H47	H	0.516815	0.370856	0.000013
H48	H	0.561587	0.096792	0.000105
H49	H	0.736129	0.036567	0.000025
H50	H	1.120299	-0.328402	0.171073
O51	O	1.106482	0.299207	0.705616
C52	C	1.113336	0.294176	0.822750
H53	H	1.194610	0.270243	0.838891
H54	H	1.052299	0.249050	0.856342
C55	C	0.993663	0.411364	0.863696
C56	C	1.093489	0.381976	0.883521
H57	H	0.981415	0.465522	0.901184
H58	H	0.989041	0.414752	0.784780
H59	H	0.942810	0.373751	0.891689
H60	H	1.144340	0.419583	0.855515
H61	H	1.098118	0.378597	0.962433
O62	O	1.384262	0.096257	0.705257
C63	C	1.369417	0.010263	0.676369
H64	H	1.335508	0.002734	0.590454
H65	H	1.313128	-0.016436	0.742985
C66	C	1.516695	-0.028186	0.776405
C67	C	1.475055	-0.037435	0.670878
H68	H	1.581855	-0.057610	0.773022
H69	H	1.526694	0.029749	0.795871
H70	H	1.469777	-0.050435	0.831907
H71	H	1.521966	-0.015177	0.615380
H72	H	1.465066	-0.095368	0.651402
O73	O	0.942887	0.044101	0.000057
C74	C	1.047271	0.070397	0.000021
H75	H	1.048920	0.138533	0.035621
H76	H	1.084896	0.065081	-0.090178
C77	C	1.106214	-0.069424	0.030014
C78	C	1.108240	0.014259	0.073747
H79	H	1.143826	-0.104054	0.075487
H80	H	1.035890	-0.087141	0.030034
H81	H	1.137567	-0.073842	-0.045151
H82	H	1.076876	0.018678	0.148905
H83	H	1.178562	0.031976	0.073741
O84	O	1.048355	0.341430	0.528068
C85	C	0.979566	0.294819	0.596515
H86	H	1.019595	0.233321	0.614233
H87	H	0.906161	0.280607	0.550925
C88	C	0.900344	0.421707	0.687170
C89	C	0.949512	0.346177	0.708940
H90	H	0.881801	0.453387	0.756518
H91	H	0.946686	0.453110	0.641054
H92	H	0.839180	0.409853	0.649176
H93	H	1.010681	0.358032	0.746921
H94	H	0.903180	0.314777	0.755066
H95	H	1.043639	-0.229864	0.000096
H96	H	1.075247	0.321940	0.303932
H97	H	0.887502	0.329155	0.000004
H98	H	0.712969	0.389374	0.000008
O99	O	1.137533	-0.351242	-0.186268
C100	C	1.196169	-0.327851	-0.283847
H101	H	1.279012	-0.312351	-0.262081
H102	H	1.157977	-0.270259	-0.316623
C103	C	1.098153	-0.420070	-0.402297
C104	C	1.199906	-0.401040	-0.375566
H105	H	1.100455	-0.465215	-0.458876
H106	H	1.058646	-0.435828	-0.336557
H107	H	1.066338	-0.372071	-0.429604
H108	H	1.231715	-0.449036	-0.348246
H109	H	1.239419	-0.385293	-0.441304
O110	O	1.342620	0.126565	0.294666
C111	C	1.323708	0.043562	0.323651
H112	H	1.238417	0.038173	0.356184
H113	H	1.376304	0.027055	0.392356
C114	C	1.451968	-0.010907	0.178599
C115	C	1.347210	-0.017528	0.218547
H116	H	1.466469	-0.048592	0.113769
H117	H	1.464713	0.045013	0.159073
H118	H	1.495786	-0.024661	0.235863
H119	H	1.303394	-0.003764	0.161289
H120	H	1.334458	-0.073448	0.238061
O121	O	1.311577	-0.222772	0.186357
C122	C	1.312964	-0.134427	0.185243
H123	H	1.250297	-0.112381	0.130304
H124	H	1.392895	-0.114326	0.149408
C125	C	1.368125	-0.121936	0.374126
C126	C	1.291151	-0.094858	0.306656
H127	H	1.354675	-0.097527	0.449018
H128	H	1.367196	-0.181456	0.374875
H129	H	1.434727	-0.105183	0.344249
H130	H	1.224553	-0.111621	0.336524
H131	H	1.292069	-0.035340	0.305914
O132	O	1.421577	-0.349165	-0.000092
C133	C	1.444305	-0.403268	-0.097907
H134	H	1.391200	-0.386376	-0.165966
H135	H	1.430729	-0.471093	-0.076658
C136	C	1.624431	-0.414311	-0.057930
C137	C	1.559212	-0.393559	-0.141525
H138	H	1.695312	-0.408326	-0.084834
H139	H	1.609119	-0.377864	0.007972
H140	H	1.613105	-0.470831	-0.040230
H141	H	1.570529	-0.337038	-0.159213
H142	H	1.574529	-0.429998	-0.207431
O143	O	1.400845	0.084519	0.472045
C144	C	1.469590	0.131147	0.403572
H145	H	1.468794	0.199366	0.439233
H146	H	1.443480	0.128316	0.313882
C147	C	1.582005	0.009964	0.357962
C148	C	1.581034	0.093751	0.401767
H149	H	1.650749	-0.013105	0.356843
H150	H	1.535689	-0.021452	0.404090
H151	H	1.560241	0.007616	0.283224
H152	H	1.602785	0.096097	0.476508
H153	H	1.627357	0.125167	0.355651
O154	O	1.338085	-0.241977	-0.186113
C155	C	1.440941	-0.274364	-0.186903
H156	H	1.441392	-0.331041	-0.133421
H157	H	1.493281	-0.223856	-0.150499
C158	C	1.481428	-0.231795	-0.374874
C159	C	1.481981	-0.301411	-0.309194
H160	H	1.506747	-0.248476	-0.450309
H161	H	1.412134	-0.209973	-0.374342
H162	H	1.525044	-0.189712	-0.344525
H163	H	1.438356	-0.343489	-0.339536
H164	H	1.551269	-0.323242	-0.309735
