data_functionalizedCrystal
_audit_creation_method	'MofGen! by Chris Wilmer'
_symmetry_space_group_name_H-M	'P1'
_symmetry_Int_Tables_number	1
_symmetry_cell_setting	triclinic
loop_
_symmetry_equiv_pos_as_xyz
  x,y,z
_cell_length_a	17.019370
_cell_length_b	17.000381
_cell_length_c	14.750779
_cell_angle_alpha	78.381557
_cell_angle_beta	81.128646
_cell_angle_gamma	100.492915
loop_
_atom_site_label
_atom_site_type_symbol
_atom_site_fract_x
_atom_site_fract_y
_atom_site_fract_z
O1	O	0.045904	-1.039570	-0.076128
O2	O	0.073997	-0.808313	-0.073788
O3	O	-0.053186	-0.928383	-0.084300
O4	O	0.173086	-0.919500	-0.065615
O5	O	-0.089135	-0.962325	0.072379
O6	O	0.038047	-0.842255	0.082891
O7	O	0.009955	-1.073513	0.080551
Zn8	Zn	0.018294	-0.963273	0.106597
Zn9	Zn	0.065658	-0.918552	-0.099834
O10	O	0.137137	-0.953442	0.091063
C11	C	0.057530	-0.795656	0.004679
C12	C	0.062015	-0.707374	0.005057
C13	C	0.090993	-0.207638	0.007429
C14	C	0.086772	-0.290590	0.007078
C15	C	0.013484	-0.340359	0.001032
C16	C	-0.055584	-0.307171	-0.004673
C17	C	-0.051361	-0.224219	-0.004330
C18	C	-0.002829	-0.591234	-0.000305
C19	C	-0.007048	-0.674192	-0.000645
C20	C	0.135309	-0.657604	0.011105
C21	C	0.139525	-0.574653	0.011453
C22	C	0.070458	-0.541471	0.005743
C23	C	0.009166	-0.425150	0.000677
C24	C	0.074778	-0.456680	0.006091
C25	C	-0.099969	-0.944348	-0.008342
C26	C	-0.185808	-0.941340	-0.015436
C27	C	-0.245738	-0.958426	0.066633
C28	C	-0.326392	-0.955603	0.059959
C29	C	-0.347114	-0.935688	-0.028784
C30	C	-0.287178	-0.918603	-0.110859
C31	C	-0.206527	-0.921432	-0.104184
C32	C	-0.589650	-0.926227	-0.053210
C33	C	-0.670309	-0.923397	-0.059878
C34	C	-0.709517	-0.960399	0.110941
C35	C	-0.628862	-0.963221	0.117608
C36	C	-0.568933	-0.946140	0.035533
C37	C	-0.429555	-0.932800	-0.035608
C38	C	-0.486495	-0.949034	0.042357
C39	C	0.183921	-0.937477	0.015103
C40	C	0.269762	-0.940483	0.022190
N41	N	-0.014032	-0.993799	0.247481
C42	C	0.026420	-0.086170	0.002089
C43	C	0.021930	-0.174455	0.001726
N44	N	0.097978	-0.888032	-0.240718
C45	C	0.188225	-0.802775	0.616017
C46	C	0.165578	-0.824172	0.714644
C47	C	0.052995	-0.930517	0.705301
C48	C	0.075631	-0.909127	0.606671
C49	C	0.143247	-0.845256	0.562037
C50	C	0.030653	-0.951607	0.552691
C51	C	0.053289	-0.930221	0.454070
C52	C	0.120904	-0.866354	0.409428
C53	C	0.165883	-0.823869	0.463416
C54	C	-0.036960	-1.015482	0.597327
C55	C	-0.081938	-1.057962	0.543347
C56	C	-0.059305	-1.036572	0.444723
C57	C	0.008309	-0.972705	0.400082
C58	C	-0.104285	-1.079057	0.390736
C59	C	-0.081648	-1.057670	0.292115
C60	C	0.030946	-0.951319	0.301461
H61	H	-0.066730	-0.714713	-0.005574
O62	O	0.096534	-0.889179	0.258046
C63	C	0.071471	-0.827090	0.197847
H64	H	0.003681	-0.831179	0.222532
H65	H	0.107576	-0.764187	0.199711
H66	H	0.082890	-0.835695	0.122621
H67	H	0.191540	-0.684630	0.015752
O68	O	-0.608826	-0.982492	0.203873
C69	C	-0.626990	-0.924395	0.255327
H70	H	-0.675476	-0.894172	0.226565
H71	H	-0.650727	-0.956683	0.332974
H72	H	-0.569455	-0.875351	0.248052
H73	H	-0.059069	-0.564228	-0.004952
H74	H	-0.758319	-0.974306	0.177761
H75	H	-0.115256	-0.347699	-0.009602
H76	H	-0.107599	-0.197204	-0.008975
O77	O	0.231655	-0.761911	0.420098
C78	C	0.301895	-0.781322	0.450466
H79	H	0.291759	-0.850850	0.477237
H80	H	0.356251	-0.758764	0.388870
H81	H	0.314473	-0.750046	0.509847
H82	H	-0.540865	-0.912317	-0.120041
O83	O	-0.307276	-0.899372	-0.197095
C84	C	-0.289075	-0.957442	-0.248573
H85	H	-0.287805	-1.017055	-0.197564
H86	H	-0.337724	-0.970204	-0.292105
H87	H	-0.226982	-0.932023	-0.297678
H88	H	-0.159334	-1.131066	0.427090
H89	H	0.134449	-0.416153	0.011009
H90	H	-0.050506	-0.465683	-0.004242
O91	O	-0.225756	-0.977811	0.152914
C92	C	-0.295945	-0.992263	0.223917
H93	H	-0.352607	-1.009931	0.193715
H94	H	-0.293896	-1.044504	0.284961
H95	H	-0.298090	-0.934042	0.250492
O96	O	-0.147702	-1.119940	0.586600
C97	C	-0.217939	-1.100488	0.556263
H98	H	-0.199335	-1.054324	0.484845
H99	H	-0.259338	-1.158868	0.549387
H100	H	-0.251940	-1.072546	0.610023
H101	H	-0.375186	-0.969520	0.126788
O102	O	0.210661	-0.526306	0.017481
C103	C	0.198746	-0.495376	0.099161
H104	H	0.144078	-0.537363	0.152447
H105	H	0.255503	-0.492989	0.131590
H106	H	0.187025	-0.430768	0.079495
O107	O	0.143013	-0.845640	0.313637
C108	C	0.222986	-0.855858	0.286668
H109	H	0.237968	-0.901660	0.345803
H110	H	0.227815	-0.880082	0.219819
H111	H	0.267842	-0.794094	0.272573
H112	H	-0.157731	-0.907519	-0.171014
H113	H	-0.687174	-0.907172	-0.132147
H114	H	-0.002057	-0.982524	0.741654
O115	O	-0.059095	-1.036263	0.693116
C116	C	-0.139055	-1.026012	0.720086
H117	H	-0.172722	-1.029217	0.659384
H118	H	-0.172535	-1.076934	0.784533
H119	H	-0.136567	-0.963597	0.738152
O120	O	-0.466442	-0.968275	0.128613
C121	C	-0.484594	-0.910154	0.180037
H122	H	-0.533100	-0.879956	0.151286
H123	H	-0.508301	-0.942414	0.257696
H124	H	-0.427060	-0.861094	0.172712
H125	H	-0.118274	-1.092263	0.248163
O126	O	-0.449577	-0.913303	-0.121853
C127	C	-0.404506	-0.834055	-0.171018
H128	H	-0.347023	-0.818502	-0.141531
H129	H	-0.386859	-0.832627	-0.249188
H130	H	-0.443189	-0.786953	-0.162092
H131	H	0.243280	-0.750760	0.579675
H132	H	0.202211	-0.789575	0.758591
O133	O	0.162260	-0.159400	0.013265
C134	C	0.222307	-0.206485	0.018244
H135	H	0.205231	-0.261624	-0.013384
H136	H	0.283742	-0.166870	-0.023040
H137	H	0.226503	-0.229033	0.095179
H138	H	0.143013	-0.317600	0.011713
