data_functionalizedCrystal
_audit_creation_method	'MofGen! by Chris Wilmer'
_symmetry_space_group_name_H-M	'P1'
_symmetry_Int_Tables_number	1
_symmetry_cell_setting	triclinic
loop_
_symmetry_equiv_pos_as_xyz
  x,y,z
_cell_length_a	18.266242
_cell_length_b	19.188928
_cell_length_c	19.188924
_cell_angle_alpha	96.857113
_cell_angle_beta	90.009637
_cell_angle_gamma	89.984096
loop_
_atom_site_label
_atom_site_type_symbol
_atom_site_fract_x
_atom_site_fract_y
_atom_site_fract_z
O1	O	0.061167	-0.926138	0.087164
O2	O	0.061107	-0.722826	0.098900
O3	O	0.061130	-0.830352	-0.008624
O4	O	0.061144	-0.818612	0.194688
O5	O	-0.060632	-0.830354	-0.008635
O6	O	-0.060655	-0.722828	0.098889
O7	O	-0.060595	-0.926140	0.087153
Zn8	Zn	-0.079957	-0.824485	0.093020
Zn9	Zn	0.080470	-0.824482	0.093033
O10	O	-0.060618	-0.818615	0.194677
C11	C	0.000218	-0.696816	0.098515
C12	C	0.000195	-0.619312	0.097375
N13	N	-0.189444	-0.824492	0.093010
N14	N	0.189957	-0.824480	0.093037
C15	C	0.000209	-0.574386	0.160466
C16	C	0.000213	-0.501562	0.159395
C17	C	0.000218	-0.473667	0.095229
C18	C	0.000200	-0.518603	0.032129
C19	C	0.000189	-0.591425	0.033202
N20	N	0.041680	-0.365687	0.046186
N21	N	0.041692	-0.296509	0.045171
C22	C	0.000251	-0.254258	0.091993
N23	N	-0.041193	-0.283799	0.139878
N24	N	-0.041202	-0.352984	0.140895
C25	C	0.000230	-0.394705	0.094058
C26	C	0.000269	-0.130368	0.153927
C27	C	0.000268	-0.057543	0.152853
C28	C	0.000263	-0.074586	0.025586
C29	C	0.000256	-0.147409	0.026661
C30	C	0.000262	-0.175296	0.090834
C31	C	0.228276	-0.872177	0.045518
C32	C	0.304921	-0.872183	0.045517
C33	C	0.343244	-0.824481	0.093028
C34	C	0.304915	-0.776780	0.140556
C35	C	0.228272	-0.776780	0.140561
N36	N	0.463565	-0.762673	0.101955
N37	N	0.536373	-0.762676	0.101946
C38	C	0.574166	-0.824479	0.093017
N39	N	0.536400	-0.886283	0.084084
N40	N	0.463586	-0.886280	0.084089
C41	C	0.426350	-0.824476	0.093028
C42	C	0.695592	-0.872187	0.045494
C43	C	0.772239	-0.872194	0.045498
C44	C	0.772231	-0.776785	0.140533
C45	C	0.695587	-0.776784	0.140533
C46	C	0.657272	-0.824484	0.093010
C47	C	0.000249	-0.829973	-0.034641
C48	C	0.000246	-0.828835	-0.112145
C49	C	0.000283	0.047850	0.087540
C50	C	0.000272	-0.029654	0.088687
C51	C	0.066619	-0.828302	-0.148539
C52	C	0.066624	-0.827222	-0.221361
C53	C	0.000253	-0.826689	-0.257790
C54	C	-0.066128	-0.827218	-0.221387
C55	C	-0.066131	-0.828291	-0.148565
N56	N	-0.049134	-0.864738	-0.377458
N57	N	-0.049126	-0.863720	-0.446636
C58	C	0.000259	-0.823455	-0.477199
N59	N	0.049648	-0.784255	-0.435972
N60	N	0.049642	-0.785276	-0.366787
C61	C	0.000249	-0.825525	-0.336753
C62	C	0.066642	-0.821750	-0.592555
C63	C	0.066644	-0.820666	-0.665378
C64	C	-0.066110	-0.820669	-0.665404
C65	C	-0.066110	-0.821746	-0.592581
C66	C	0.000268	-0.822290	-0.556161
C67	C	0.000266	-0.818993	0.220694
C68	C	0.000273	-0.820132	0.298198
H69	H	0.000215	-0.597086	0.212720
F70	F	0.000245	-0.195224	-0.040490
H71	H	0.000222	-0.464977	0.210773
F72	F	0.345701	-0.726013	0.191123
H73	H	0.197082	-0.911019	0.006824
F74	F	0.187488	-0.726012	0.191139
F75	F	0.654801	-0.726015	0.191106
H76	H	0.664395	-0.911030	0.006800
F77	F	-0.136777	-0.828856	-0.109831
H78	H	0.120691	-0.822189	-0.562900
F79	F	0.345710	-0.922952	-0.005062
F80	F	0.813022	-0.922966	-0.005077
F81	F	0.813014	-0.726020	0.191102
H82	H	0.120695	-0.820229	-0.695008
H83	H	0.120669	-0.828743	-0.118890
F84	F	-0.136747	-0.820098	-0.704169
F85	F	0.137270	-0.826654	-0.260102
F86	F	-0.136754	-0.822313	-0.553847
H87	H	-0.120168	-0.826782	-0.251052
F88	F	0.000262	-0.044902	-0.042705
F89	F	0.000203	-0.488914	-0.036161
H90	H	0.000178	-0.628004	-0.018176
F91	F	0.000270	-0.160050	0.222224
H92	H	0.000275	-0.020965	0.204232
