data_functionalizedCrystal
_audit_creation_method	'MofGen! by Chris Wilmer'
_symmetry_space_group_name_H-M	'P1'
_symmetry_Int_Tables_number	1
_symmetry_cell_setting	triclinic
loop_
_symmetry_equiv_pos_as_xyz
  x,y,z
_cell_length_a	21.295418
_cell_length_b	21.295417
_cell_length_c	10.685986
_cell_angle_alpha	85.582048
_cell_angle_beta	94.329988
_cell_angle_gamma	90.046319
loop_
_atom_site_label
_atom_site_type_symbol
_atom_site_fract_x
_atom_site_fract_y
_atom_site_fract_z
Zn1	Zn	0.935052	-0.222970	-0.714077
Zn2	Zn	0.943024	-0.336332	-0.503052
Zn3	Zn	0.837846	-0.231111	-0.503021
Zn4	Zn	0.829751	-0.328240	-0.713921
O5	O	0.886418	-0.279663	-0.608518
O6	O	1.024196	-0.237987	-0.686163
O7	O	0.935795	-0.329168	-0.326471
O8	O	0.850792	-0.141940	-0.531071
O9	O	1.030053	-0.321274	-0.531124
O10	O	0.922209	-0.135958	-0.686133
O11	O	0.858521	-0.251863	-0.326448
O12	O	0.748685	-0.244016	-0.530919
O13	O	0.836996	-0.307482	-0.890518
O14	O	0.742738	-0.315376	-0.685866
O15	O	0.914360	-0.230140	-0.890634
O16	O	0.927946	-0.423350	-0.530972
O17	O	0.844725	-0.417405	-0.685896
C18	C	0.886338	-0.443218	-0.608448
C19	C	0.886360	-0.513185	-0.608460
C20	C	0.722872	-0.279702	-0.608373
C21	C	0.652905	-0.279733	-0.608340
C22	C	0.929726	-0.549124	-0.527874
C23	C	0.929754	-0.614865	-0.527902
C24	C	0.886406	-0.644666	-0.608504
C25	C	0.843037	-0.608719	-0.689106
C26	C	0.843014	-0.542979	-0.689084
N27	N	0.830973	-0.747580	-0.618074
N28	N	0.830997	-0.810031	-0.618088
C29	C	0.886474	-0.842738	-0.608576
N30	N	0.941928	-0.810636	-0.599026
N31	N	0.941904	-0.748179	-0.599006
C32	C	0.886427	-0.715950	-0.608537
C33	C	0.929874	-0.949961	-0.528016
C34	C	0.929903	-1.015703	-0.528054
C35	C	0.843181	-1.009556	-0.689250
C36	C	0.843157	-0.943815	-0.689220
C37	C	0.886503	-0.914022	-0.608596
C38	C	0.616963	-0.316948	-0.688901
C39	C	0.551218	-0.316930	-0.688957
C40	C	0.521419	-0.279705	-0.608431
C41	C	0.557370	-0.242482	-0.527865
C42	C	0.623113	-0.242496	-0.527820
N43	N	0.422363	-0.279019	-0.498067
N44	N	0.359910	-0.279010	-0.498114
C45	C	0.323339	-0.279659	-0.608565
N46	N	0.351581	-0.280331	-0.718970
N47	N	0.414040	-0.280344	-0.718922
C48	C	0.450132	-0.279685	-0.608472
C49	C	0.216109	-0.316857	-0.689194
C50	C	0.150363	-0.316835	-0.689252
C51	C	0.156516	-0.242391	-0.528149
C52	C	0.222260	-0.242409	-0.528101
C53	C	0.252053	-0.279646	-0.608622
C54	C	1.050603	-0.279625	-0.608664
C55	C	1.120569	-0.279609	-0.608727
C56	C	0.873886	-0.267000	-0.937641
C57	C	0.868546	-0.261604	-1.077893
C58	C	0.886514	-0.115469	-0.608616
C59	C	0.886555	-0.045500	-0.608657
C60	C	0.898938	-0.292232	-0.280675
C61	C	0.904400	-0.297451	-0.140424
H62	H	0.965022	-0.524868	-0.462229
F63	F	0.796856	-0.504729	-0.774859
H64	H	0.965171	-0.925702	-0.462371
F65	F	0.823086	-0.216094	-1.148162
H66	H	0.521948	-0.347235	-0.754564
H67	H	0.965070	-0.644132	-0.462280
F68	F	0.949869	-0.342957	-1.070150
H69	H	0.965221	-1.044963	-0.462433
F70	F	0.247819	-0.356484	-0.774895
F71	F	0.796998	-0.905565	-0.774987
F72	F	0.796905	-0.640436	-0.774892
H73	H	0.807888	-1.033820	-0.754883
F74	F	0.648667	-0.356577	-0.774602
H75	H	0.533103	-0.212172	-0.462303
F76	F	0.661366	-0.202884	-0.442073
H77	H	0.121100	-0.347139	-0.754862
H78	H	0.132254	-0.212078	-0.462589
F79	F	0.260514	-0.202801	-0.442354
