data_functionalizedCrystal
_audit_creation_method	'MofGen! by Chris Wilmer'
_symmetry_space_group_name_H-M	'P1'
_symmetry_Int_Tables_number	1
_symmetry_cell_setting	triclinic
loop_
_symmetry_equiv_pos_as_xyz
  x,y,z
_cell_length_a	14.519709
_cell_length_b	10.489741
_cell_length_c	13.596369
_cell_angle_alpha	89.994306
_cell_angle_beta	90.000291
_cell_angle_gamma	84.109659
loop_
_atom_site_label
_atom_site_type_symbol
_atom_site_fract_x
_atom_site_fract_y
_atom_site_fract_z
O1	O	1.224779	0.167203	-0.081663
O2	O	0.956410	0.186894	-0.081693
O3	O	1.096701	-0.008613	-0.081671
O4	O	1.084488	0.362710	-0.081684
O5	O	1.096687	-0.008623	0.081912
O6	O	0.956396	0.186883	0.081890
O7	O	1.224765	0.167193	0.081920
Zn8	Zn	1.090578	0.177037	0.107878
Zn9	Zn	1.090597	0.177050	-0.107650
O10	O	1.084474	0.362700	0.081899
C11	C	0.922038	0.185971	0.000095
C12	C	0.819642	0.183221	0.000084
C13	C	1.095772	-0.056140	0.000120
C14	C	1.093012	-0.197741	0.000118
C15	C	0.444691	0.173098	0.000129
C16	C	0.549014	0.175909	0.000116
C17	C	0.632163	0.178159	0.000105
C18	C	0.736493	0.180971	0.000094
C19	C	1.003749	-0.264951	0.000100
C20	C	1.045909	-0.357518	0.080760
C21	C	1.045944	-0.357482	-0.080520
C22	C	1.135209	-0.288443	0.080844
C23	C	1.135232	-0.288398	-0.080509
C24	C	1.177457	-0.380938	0.000171
C25	C	1.259137	0.168116	0.000130
C26	C	1.361533	0.170866	0.000135
C27	C	1.085403	0.410227	0.000106
C28	C	1.088163	0.551828	0.000101
N29	N	1.090572	0.177026	0.254969
N30	N	1.090610	0.177050	-0.254742
C31	C	1.090596	0.177052	0.656260
C32	C	1.090586	0.177049	0.544609
C33	C	1.090584	0.177040	0.455618
C34	C	1.090574	0.177035	0.343960
H35	H	0.930357	-0.214534	0.000173
C36	C	0.994880	-0.398898	0.172869
C37	C	0.955063	-0.297608	0.247662
C38	C	0.904027	-0.338981	0.339766
C39	C	0.892807	-0.481644	0.357078
C40	C	0.932625	-0.582942	0.282282
C41	C	0.983661	-0.541569	0.190178
H42	H	0.963367	-0.191993	0.234849
H43	H	0.874551	-0.263993	0.395134
H44	H	0.855027	-0.512270	0.425259
H45	H	0.924321	-0.688558	0.295095
H46	H	1.013137	-0.616558	0.134810
C47	C	1.186222	-0.246972	-0.172622
C48	C	1.274656	-0.178774	-0.161633
C49	C	1.325639	-0.137344	-0.253755
C50	C	1.288187	-0.164112	-0.356867
C51	C	1.199748	-0.232313	-0.367860
C52	C	1.148766	-0.273743	-0.275737
H53	H	1.302385	-0.158956	-0.085300
H54	H	1.391107	-0.086857	-0.245617
H55	H	1.325927	-0.133443	-0.425061
H56	H	1.172020	-0.252131	-0.444193
H57	H	1.083297	-0.324230	-0.283876
C58	C	0.994914	-0.398798	-0.172644
C59	C	0.893142	-0.347071	-0.190349
C60	C	0.842105	-0.388380	-0.282467
C61	C	0.892841	-0.481418	-0.356880
C62	C	0.994619	-0.533151	-0.339176
C63	C	1.045656	-0.491841	-0.247058
H64	H	0.855579	-0.278194	-0.135263
H65	H	0.766762	-0.350084	-0.295572
H66	H	0.855060	-0.511998	-0.425071
H67	H	1.032182	-0.602027	-0.394263
H68	H	1.120999	-0.530138	-0.233954
H69	H	1.250914	-0.431128	0.000224
C70	C	1.186180	-0.247341	0.173073
C71	C	1.225152	-0.348713	0.248229
C72	C	1.276119	-0.307608	0.340457
C73	C	1.288115	-0.165130	0.357530
C74	C	1.249142	-0.063749	0.282372
C75	C	1.198175	-0.104855	0.190143
H76	H	1.216273	-0.454191	0.235593
H77	H	1.304969	-0.382657	0.396094
H78	H	1.325844	-0.134702	0.425803
H79	H	1.258021	0.041729	0.295008
H80	H	1.169325	-0.029805	0.134506
