data_functionalizedCrystal
_audit_creation_method	'MofGen! by Chris Wilmer'
_symmetry_space_group_name_H-M	'P1'
_symmetry_Int_Tables_number	1
_symmetry_cell_setting	triclinic
loop_
_symmetry_equiv_pos_as_xyz
  x,y,z
_cell_length_a	18.215407
_cell_length_b	12.759400
_cell_length_c	18.215399
_cell_angle_alpha	89.975454
_cell_angle_beta	89.980167
_cell_angle_gamma	90.015132
loop_
_atom_site_label
_atom_site_type_symbol
_atom_site_fract_x
_atom_site_fract_y
_atom_site_fract_z
Zn1	Zn	1.125124	-0.418265	-0.416133
Zn2	Zn	1.125054	-0.593962	-0.293074
Zn3	Zn	1.002057	-0.418299	-0.293081
Zn4	Zn	1.002044	-0.593903	-0.416099
O5	O	1.063570	-0.506107	-0.354597
O6	O	1.228099	-0.441581	-0.399821
O7	O	1.108714	-0.570699	-0.190091
O8	O	1.018416	-0.271273	-0.309421
O9	O	1.228048	-0.570665	-0.309410
O10	O	1.108833	-0.271248	-0.399827
O11	O	1.018349	-0.441640	-0.190096
O12	O	0.899071	-0.441583	-0.309388
O13	O	1.018395	-0.570566	-0.519088
O14	O	0.899062	-0.570599	-0.399769
O15	O	1.108821	-0.441525	-0.519113
O16	O	1.108703	-0.740975	-0.309377
O17	O	1.018328	-0.740932	-0.399763
C18	C	0.872364	-0.506089	-0.354576
C19	C	0.790565	-0.506107	-0.354584
C20	C	0.602385	-0.573391	-0.401587
C21	C	0.525527	-0.573394	-0.401596
C22	C	0.525506	-0.438842	-0.307623
C23	C	0.602364	-0.438835	-0.307618
C24	C	0.640801	-0.506115	-0.354599
C25	C	0.487085	-0.506126	-0.354613
C26	C	0.403752	-0.506129	-0.354623
C27	C	0.724140	-0.506111	-0.354590
C28	C	1.063526	-0.779075	-0.354582
C29	C	1.063575	-0.895851	-0.354600
C30	C	1.110685	-0.950701	-0.307588
C31	C	1.110731	-1.060425	-0.307610
C32	C	1.016549	-1.060440	-0.401659
C33	C	1.016508	-0.950718	-0.401639
C34	C	1.157753	-0.895834	-0.260548
C35	C	1.204866	-0.950683	-0.213532
C36	C	1.204911	-1.060407	-0.213554
C37	C	1.157843	-1.115282	-0.260593
C38	C	1.255523	-0.506126	-0.354618
C39	C	1.337322	-0.506134	-0.354628
C40	C	1.063615	-0.506035	-0.546550
C41	C	1.063634	-0.506004	-0.628349
C42	C	1.063634	-0.232074	-0.354628
C43	C	1.063661	-0.115297	-0.354642
C44	C	1.110736	-0.438749	-0.816557
C45	C	1.110744	-0.438719	-0.893416
C46	C	1.016584	-0.573096	-0.893379
C47	C	1.016572	-0.573120	-0.816521
C48	C	1.063652	-0.505949	-0.778112
C49	C	1.063673	-0.505894	-0.931829
C50	C	1.063682	-0.505861	-1.015162
C51	C	1.063642	-0.505980	-0.694773
C52	C	1.063568	-0.506103	-0.163391
C53	C	1.063691	-0.505838	-0.081592
H54	H	0.633643	-0.384044	-0.269355
H55	H	0.494201	-0.384067	-0.269372
C56	C	1.297967	-0.961690	-0.120573
C57	C	1.256604	-0.890371	-0.161830
H58	H	1.329911	-0.924455	-0.088658
H59	H	1.265936	-1.004551	-0.092406
H60	H	1.326116	-1.004420	-0.152680
H61	H	1.228451	-0.847646	-0.129723
H62	H	1.288640	-0.847492	-0.189999
H63	H	1.157719	-0.806491	-0.260522
C64	C	0.974797	-0.632731	-1.011180
C65	C	0.964841	-0.646937	-0.935600
H66	H	0.942855	-0.678325	-1.037243
H67	H	0.964041	-0.562145	-1.023780
H68	H	1.024245	-0.648107	-1.023774
H69	H	0.915394	-0.631553	-0.923005
H70	H	0.975592	-0.717539	-0.922994
C71	C	0.980685	-0.751037	-0.792814
C72	C	0.964817	-0.646994	-0.774255
H73	H	0.948737	-0.796637	-0.766716
H74	H	0.973950	-0.760634	-0.844077
H75	H	1.030129	-0.766403	-0.780223
H76	H	0.915374	-0.631626	-0.786850
H77	H	0.971546	-0.637393	-0.722980
C78	C	1.304012	-1.183600	-0.203504
C79	C	1.256750	-1.120660	-0.161906
H80	H	1.336031	-1.220779	-0.171622
H81	H	1.275989	-1.232010	-0.231486
H82	H	1.332077	-1.140692	-0.235606
H83	H	1.228680	-1.163569	-0.129807
H84	H	1.284775	-1.072245	-0.133912
C85	C	1.006315	-1.183759	-0.500659
C86	C	0.964809	-1.120759	-0.453356
H87	H	0.974369	-1.221000	-0.532570
H88	H	1.038338	-1.140891	-0.528832
H89	H	1.034376	-1.232123	-0.472654
H90	H	0.936751	-1.072389	-0.481361
H91	H	0.932773	-1.163629	-0.425180
C92	C	0.626095	-0.624776	-0.526142
C93	C	0.644639	-0.647332	-0.453234
H94	H	0.652184	-0.670420	-0.558028
H95	H	0.574830	-0.634412	-0.532864
H96	H	0.638709	-0.554200	-0.536981
H97	H	0.632020	-0.717906	-0.442393
H98	H	0.695915	-0.637704	-0.446508
C99	C	0.439142	-0.588179	-0.500582
C100	C	0.483301	-0.647348	-0.453246
H101	H	0.413079	-0.633838	-0.532473
H102	H	0.405252	-0.548127	-0.472604
H103	H	0.469153	-0.542457	-0.528780
H104	H	0.453289	-0.693065	-0.425043
H105	H	0.517195	-0.687418	-0.481227
H106	H	1.149069	-0.384051	-0.785287
H107	H	1.157889	-1.204627	-0.260614
C108	C	1.203823	-0.305909	-0.885728
C109	C	1.162504	-0.364856	-0.935674
H110	H	1.235781	-0.260312	-0.911818
H111	H	1.171764	-0.265730	-0.855751
H112	H	1.231956	-0.351710	-0.855749
H113	H	1.134367	-0.319054	-0.965649
H114	H	1.194566	-0.405037	-0.965664
C115	C	0.923420	-0.961746	-0.494608
C116	C	0.964727	-0.890419	-0.453319
H117	H	0.891453	-0.924517	-0.526513
H118	H	0.955485	-1.004480	-0.522788
H119	H	0.895297	-1.004601	-0.462521
H120	H	0.992854	-0.847568	-0.485405
H121	H	0.932658	-0.847666	-0.425137
