data_functionalizedCrystal
_audit_creation_method	'MofGen! by Chris Wilmer'
_symmetry_space_group_name_H-M	'P1'
_symmetry_Int_Tables_number	1
_symmetry_cell_setting	triclinic
loop_
_symmetry_equiv_pos_as_xyz
  x,y,z
_cell_length_a	13.032831
_cell_length_b	25.639239
_cell_length_c	13.033109
_cell_angle_alpha	97.152107
_cell_angle_beta	76.665514
_cell_angle_gamma	82.842759
loop_
_atom_site_label
_atom_site_type_symbol
_atom_site_fract_x
_atom_site_fract_y
_atom_site_fract_z
Zn1	Zn	1.699833	-0.367536	-0.806318
Zn2	Zn	1.677108	-0.442245	-0.628682
Zn3	Zn	1.499677	-0.342107	-0.606217
Zn4	Zn	1.522123	-0.442199	-0.783726
O5	O	1.599685	-0.398522	-0.706236
O6	O	1.845447	-0.388108	-0.801610
O7	O	1.634667	-0.418339	-0.477073
O8	O	1.526345	-0.272326	-0.632814
O9	O	1.828751	-0.442996	-0.671102
O10	O	1.673399	-0.291009	-0.779827
O11	O	1.504309	-0.344768	-0.460568
O12	O	1.354026	-0.344723	-0.610908
O13	O	1.564601	-0.442917	-0.935352
O14	O	1.370518	-0.418260	-0.741323
O15	O	1.695164	-0.388063	-0.951950
O16	O	1.656433	-0.515393	-0.649197
O17	O	1.542566	-0.515359	-0.763107
C18	C	1.323735	-0.378728	-0.671227
C19	C	1.205685	-0.370274	-0.656275
C20	C	1.161229	-0.402934	-0.714039
C21	C	1.039219	-0.394197	-0.698587
C22	C	1.599501	-0.534348	-0.706165
C23	C	1.599523	-0.592465	-0.706182
C24	C	1.659168	-0.952867	-0.647061
C25	C	1.659211	-1.007476	-0.647081
O26	O	1.709731	-1.035729	-0.596737
N27	N	1.599881	-1.034779	-0.706330
C28	C	1.540513	-1.007473	-0.765573
O29	O	1.490053	-1.035711	-0.815971
C30	C	1.540477	-0.952866	-0.765558
C31	C	1.599802	-0.925564	-0.706297
C32	C	1.718489	-0.925566	-0.587805
C33	C	1.718444	-0.870961	-0.587784
C34	C	1.659078	-0.843658	-0.647020
C35	C	1.599757	-0.870960	-0.706276
C36	C	1.481115	-0.925561	-0.824806
C37	C	1.481085	-0.870951	-0.824788
C38	C	1.540410	-0.843650	-0.765526
C39	C	1.540346	-0.789052	-0.765490
N40	N	1.599676	-0.761749	-0.706241
C41	C	1.659042	-0.789052	-0.647006
C42	C	1.540595	-1.122150	-0.765599
C43	C	1.540625	-1.176755	-0.765608
C44	C	1.659324	-1.176754	-0.647117
C45	C	1.659288	-1.122148	-0.647103
C46	C	1.599925	-1.094847	-0.706350
C47	C	1.658943	-0.674378	-0.646966
C48	C	1.658889	-0.619768	-0.646947
C49	C	1.540194	-0.619774	-0.765441
C50	C	1.540243	-0.674378	-0.765456
C51	C	1.599625	-0.701679	-0.706216
O52	O	1.489856	-0.760764	-0.815812
O53	O	1.709504	-0.760808	-0.596626
C54	C	1.876714	-0.418394	-0.741382
C55	C	1.994767	-0.426862	-0.756360
C56	C	1.634921	-0.418322	-0.983267
C57	C	1.649937	-0.426759	-1.101321
C58	C	1.599903	-0.262169	-0.706334
C59	C	1.599995	-0.204063	-0.706376
C60	C	1.592133	-0.394120	-1.145787
C61	C	1.607650	-0.402840	-1.267801
C62	C	1.564648	-0.378766	-0.430291
C63	C	1.549838	-0.370195	-0.312263
H64	H	0.986955	-0.359764	-0.637694
H65	H	1.531152	-0.359722	-1.093524
H66	H	1.153417	-0.335843	-0.595386
O67	O	1.723366	-1.206216	-0.583242
H68	H	1.694610	-1.188510	-0.497556
O69	O	1.469062	-0.324622	-1.243057
H70	H	1.469554	-0.324920	-1.158083
O71	O	1.063982	-0.472470	-0.837034
H72	H	1.148952	-0.472178	-0.836511
O73	O	1.722886	-0.590320	-0.583036
H74	H	1.764184	-0.618485	-0.541862
O75	O	1.722979	-0.703819	-0.583063
H76	H	1.764206	-0.675652	-0.541851
H77	H	1.492245	-1.099923	-0.813840
O78	O	1.730715	-0.472327	-1.170533
H79	H	1.730233	-0.472023	-1.255508
H80	H	1.432746	-0.848726	-0.873037
H81	H	1.766755	-0.848736	-0.539532
O82	O	1.476626	-1.206200	-0.829510
H83	H	1.505375	-1.202956	-0.915183
O84	O	1.782516	-0.955009	-0.523903
H85	H	1.823746	-0.926841	-0.482696
O86	O	1.723285	-1.092703	-0.583199
H87	H	1.764574	-1.120869	-0.542021
H88	H	1.213498	-0.437361	-0.774937
H89	H	1.668630	-0.437242	-1.320060
O90	O	1.417136	-0.955002	-0.888733
H91	H	1.375868	-0.926836	-0.929926
H92	H	1.491856	-0.597535	-0.813667
O93	O	1.476257	-0.703830	-0.829369
H94	H	1.434973	-0.675669	-0.870558
