data_functionalizedCrystal
_audit_creation_method	'MofGen! by Chris Wilmer'
_symmetry_space_group_name_H-M	'P1'
_symmetry_Int_Tables_number	1
_symmetry_cell_setting	triclinic
loop_
_symmetry_equiv_pos_as_xyz
  x,y,z
_cell_length_a	12.811453
_cell_length_b	19.288865
_cell_length_c	18.366186
_cell_angle_alpha	90.011479
_cell_angle_beta	95.440799
_cell_angle_gamma	83.592491
loop_
_atom_site_label
_atom_site_type_symbol
_atom_site_fract_x
_atom_site_fract_y
_atom_site_fract_z
O1	O	-1.392249	-0.093578	-0.152490
O2	O	-1.086614	-0.103746	-0.132311
O3	O	-1.248263	0.002424	-0.142969
O4	O	-1.230600	-0.199748	-0.141832
O5	O	-1.248236	0.002430	-0.021868
O6	O	-1.086587	-0.103740	-0.011210
O7	O	-1.392221	-0.093573	-0.031389
Zn8	Zn	-1.239400	-0.098656	-0.002072
Zn9	Zn	-1.239436	-0.098663	-0.161628
O10	O	-1.230573	-0.199743	-0.020731
C11	C	-1.047499	-0.103172	-0.069179
C12	C	-0.930988	-0.101464	-0.061486
C13	C	-0.712077	-0.098271	-0.179068
C14	C	-0.602605	-0.096666	-0.171843
C15	C	-0.602569	-0.096652	-0.039811
C16	C	-0.712041	-0.098258	-0.047036
C17	C	-0.766792	-0.099066	-0.116667
C18	C	-0.876267	-0.100667	-0.123891
C19	C	-0.876227	-0.100658	0.008140
C20	C	-0.766755	-0.099052	0.015365
C21	C	-0.431337	-0.094146	-0.094522
C22	C	-0.547847	-0.095855	-0.102217
C23	C	-1.247681	0.028306	-0.082379
C24	C	-1.245975	0.105418	-0.082260
C25	C	-1.231155	-0.225625	-0.081323
C26	C	-1.232861	-0.302737	-0.081447
N27	N	-1.239383	-0.098651	0.106820
C28	C	-1.340823	0.149642	-0.088519
C29	C	-1.339220	0.222098	-0.088424
C30	C	-1.242764	0.250325	-0.082056
C31	C	-1.147903	0.206091	-0.075801
C32	C	-1.149509	0.133638	-0.075903
C33	C	-1.166928	0.358992	-0.034631
C34	C	-1.165327	0.431444	-0.034525
C35	C	-1.237808	0.473795	-0.081745
C36	C	-1.311909	0.443687	-0.129064
C37	C	-1.313514	0.371233	-0.129166
C38	C	-1.241012	0.328888	-0.081946
C39	C	-1.330925	0.596584	-0.087903
C40	C	-1.329318	0.669040	-0.087813
C41	C	-1.137998	0.653032	-0.075183
C42	C	-1.139608	0.580578	-0.075280
C43	C	-1.236074	0.552358	-0.081637
N44	N	-1.239461	-0.098663	-0.270521
C45	C	-1.310984	-0.051662	0.140200
C46	C	-1.310991	-0.051659	0.216427
C47	C	-1.239406	-0.098656	0.259271
C48	C	-1.167791	-0.145649	0.225884
C49	C	-1.167780	-0.145646	0.149658
C50	C	-1.225356	-0.161874	0.380950
C51	C	-1.225375	-0.161878	0.457174
C52	C	-1.239436	-0.098665	0.494377
C53	C	-1.253501	-0.035446	0.455345
C54	C	-1.253489	-0.035443	0.379120
C55	C	-1.239410	-0.098665	0.341926
C56	C	-1.311048	-0.051669	0.610411
C57	C	-1.311048	-0.051665	0.686640
C58	C	-1.167853	-0.145661	0.696095
C59	C	-1.167849	-0.145659	0.619867
C60	C	-1.239452	-0.098664	0.577029
H61	H	-0.558061	-0.096020	-0.222656
C62	C	-1.389803	0.000032	0.563287
N63	N	-1.449120	0.038976	0.527796
H64	H	-1.406558	0.705048	-0.092914
C65	C	-1.389802	0.000041	0.723358
N66	N	-1.449116	0.038990	0.751014
H67	H	-0.722162	-0.098397	0.072056
C68	C	-1.087192	0.312412	0.017322
N69	N	-1.027138	0.277330	0.056453
C70	C	-1.209893	-0.231420	0.500102
N71	N	-1.198226	-0.283801	0.532435
H72	H	-0.920788	-0.101304	0.058951
H73	H	-1.059462	0.676014	-0.070001
C74	C	-1.035266	0.531929	-0.068391
N75	N	-0.956671	0.495287	-0.063205
C76	C	-1.437038	0.565540	-0.094907
N77	N	-1.516964	0.542160	-0.100185
H78	H	-0.557971	-0.096000	0.016879
C79	C	-1.209887	-0.231418	0.340035
N80	N	-1.198236	-0.283797	0.309218
C81	C	-1.446939	0.118606	-0.095518
N82	N	-1.526866	0.095227	-0.100791
C83	C	-1.041801	0.237143	-0.068791
N84	N	-0.961882	0.260531	-0.063511
H85	H	-1.370929	0.478168	-0.167516
C86	C	-1.443564	0.270753	-0.095305
N87	N	-1.522157	0.307399	-0.100485
C88	C	-1.395015	0.338116	-0.181220
N89	N	-1.456400	0.313171	-0.220431
C90	C	-1.089110	-0.197360	0.743219
N91	N	-1.029797	-0.236301	0.778717
C92	C	-1.089156	-0.197402	0.583144
N93	N	-1.029905	-0.236393	0.555482
H94	H	-1.109472	-0.183911	0.122480
H95	H	-1.104985	0.455953	0.004000
H96	H	-0.920843	-0.101324	-0.180588
C97	C	-1.089043	-0.197344	0.273014
N98	N	-1.029724	-0.236279	0.308513
H99	H	-1.072270	0.097630	-0.070806
H100	H	-1.369285	-0.013394	0.105323
C101	C	-0.772306	-0.099157	-0.255661
N102	N	-0.817669	-0.099826	-0.313353
C103	C	-1.389771	0.000028	0.253152
N104	N	-1.449113	0.038955	0.280810
C105	C	-1.268946	0.034097	0.336189
N106	N	-1.280582	0.086476	0.303854
C107	C	-1.268966	0.034094	0.496263
N108	N	-1.280616	0.086470	0.527085
