data_functionalizedCrystal
_audit_creation_method	'MofGen! by Chris Wilmer'
_symmetry_space_group_name_H-M	'P1'
_symmetry_Int_Tables_number	1
_symmetry_cell_setting	triclinic
loop_
_symmetry_equiv_pos_as_xyz
  x,y,z
_cell_length_a	14.908571
_cell_length_b	12.759400
_cell_length_c	14.908308
_cell_angle_alpha	86.729656
_cell_angle_beta	89.824947
_cell_angle_gamma	86.709538
loop_
_atom_site_label
_atom_site_type_symbol
_atom_site_fract_x
_atom_site_fract_y
_atom_site_fract_z
Zn1	Zn	1.345354	-0.548283	0.587608
Zn2	Zn	1.353952	-0.714464	0.437256
Zn3	Zn	1.203667	-0.528103	0.428605
Zn4	Zn	1.194979	-0.713216	0.578908
O5	O	1.274488	-0.626017	0.508094
O6	O	1.472321	-0.579295	0.574925
O7	O	1.341250	-0.681820	0.310284
O8	O	1.222499	-0.383763	0.449718
O9	O	1.478638	-0.701387	0.464463
O10	O	1.326596	-0.398589	0.566536
O11	O	1.230836	-0.544902	0.303928
O12	O	1.076687	-0.543691	0.441281
O13	O	1.207693	-0.699260	0.705887
O14	O	1.070305	-0.679692	0.551708
O15	O	1.318172	-0.578085	0.712279
O16	O	1.332826	-0.861315	0.456026
O17	O	1.216030	-0.860398	0.560097
C18	C	1.040870	-0.609367	0.494612
C19	C	0.940927	-0.602271	0.488866
C20	C	0.746533	-0.730754	0.592901
C21	C	0.652627	-0.724090	0.587505
C22	C	0.659206	-0.582276	0.472683
C23	C	0.753112	-0.588939	0.478079
C24	C	0.796772	-0.663182	0.538189
C25	C	0.890681	-0.669850	0.543580
C26	C	0.897258	-0.528031	0.428763
C27	C	0.803352	-0.521368	0.423367
C28	C	1.274441	-0.898980	0.508077
C29	C	1.274502	-1.015762	0.508105
C30	C	1.328674	-1.078265	0.568978
C31	C	1.328714	-1.187994	0.569002
C32	C	1.220410	-1.172705	0.447273
C33	C	1.220365	-1.062979	0.447253
C34	C	1.382811	-1.031048	0.629830
C35	C	1.436988	-1.093552	0.690707
C36	C	1.437029	-1.203281	0.690731
C37	C	1.382892	-1.250505	0.629878
C38	C	1.509017	-0.642732	0.521629
C39	C	1.608960	-0.649855	0.527397
C40	C	1.261004	-0.640784	0.742620
C41	C	1.255258	-0.647077	0.842561
C42	C	1.274558	-0.351990	0.508132
C43	C	1.274587	-0.235217	0.508149
C44	C	1.287971	-0.611234	0.274484
C45	C	1.293891	-0.604658	0.174553
C46	C	1.359501	-0.532699	1.037019
C47	C	1.354105	-0.538608	1.130922
C48	C	1.239067	-0.664800	1.124274
C49	C	1.244462	-0.658890	1.030370
C50	C	1.304683	-0.592839	0.986746
C51	C	1.310083	-0.586935	0.892841
C52	C	1.195040	-0.713121	0.886194
C53	C	1.189644	-0.719030	0.980097
H54	H	0.938173	-0.473012	0.384211
C55	C	1.485021	-0.932137	0.744719
C56	C	1.496491	-1.041647	0.757595
H57	H	1.521761	-0.900097	0.786011
H58	H	1.423843	-0.910727	0.754342
H59	H	1.501695	-0.911318	0.685071
H60	H	1.479810	-1.062467	0.817241
H61	H	1.557682	-1.063066	0.747979
H62	H	1.481134	-1.254169	0.740307
C63	C	0.766742	-0.793841	0.746746
C64	C	0.794534	-0.812358	0.658969
H65	H	0.796381	-0.844217	0.787532
H66	H	0.703634	-0.799552	0.751358
H67	H	0.781379	-0.725198	0.760880
H68	H	0.779891	-0.880999	0.644832
H69	H	0.857657	-0.806657	0.654353
H70	H	0.623641	-0.521825	0.423750
C71	C	1.441902	-1.416014	0.696200
C72	C	1.382927	-1.371121	0.629913
H73	H	1.441926	-1.490475	0.696217
H74	H	1.422960	-1.393716	0.753295
H75	H	1.500821	-1.394309	0.684033
H76	H	1.324007	-1.392820	0.642084
H77	H	1.401865	-1.393429	0.572805
C78	C	0.662320	-0.448179	0.364116
C79	C	0.755355	-0.439762	0.357298
H80	H	0.632693	-0.397801	0.323322
H81	H	0.643481	-0.435620	0.423661
H82	H	0.647692	-0.516822	0.349972
H83	H	0.769984	-0.371121	0.371448
H84	H	0.774202	-0.452313	0.297739
H85	H	1.176335	-1.211165	0.397729
C86	C	1.085133	-0.706937	1.144392
C87	C	1.172868	-0.737392	1.172230
H88	H	1.044264	-0.751749	1.174001
H89	H	1.080512	-0.712033	1.081279
H90	H	1.071119	-0.636375	1.159030
H91	H	1.186884	-0.807951	1.157585
H92	H	1.177492	-0.732305	1.235356
H93	H	1.176252	-1.012088	0.397686
H94	H	1.140613	-0.772805	1.015629
C95	C	0.540103	-0.739018	0.702367
C96	C	0.597402	-0.798367	0.647645
H97	H	0.506014	-0.784876	0.739500
H98	H	0.500663	-0.693863	0.665796
H99	H	0.574777	-0.698076	0.738927
H100	H	0.562727	-0.839303	0.611081
H101	H	0.636846	-0.843540	0.684220
H102	H	1.398741	-0.489633	1.171851
H103	H	1.382786	-0.941703	0.629815
C104	C	1.423241	-0.462784	0.908848
C105	C	1.376271	-0.514328	0.844886
H106	H	1.464098	-0.417952	0.879242
H107	H	1.455523	-0.513310	0.947449
H108	H	1.381955	-0.422119	0.943220
H109	H	1.417556	-0.554999	0.810518
H110	H	1.343987	-0.463796	0.806269
C111	C	1.152229	-0.760100	0.739296
C112	C	1.134777	-0.779231	0.830931
H113	H	1.115024	-0.800912	0.705181
H114	H	1.213518	-0.778810	0.727397
H115	H	1.139965	-0.687604	0.723161
H116	H	1.147048	-0.851726	0.847068
H117	H	1.073474	-0.760528	0.842835
H118	H	1.408539	-0.478922	1.001500
H119	H	0.926227	-0.730304	0.592523
