data_functionalizedCrystal
_audit_creation_method	'MofGen! by Chris Wilmer'
_symmetry_space_group_name_H-M	'P1'
_symmetry_Int_Tables_number	1
_symmetry_cell_setting	triclinic
loop_
_symmetry_equiv_pos_as_xyz
  x,y,z
_cell_length_a	18.215407
_cell_length_b	16.120444
_cell_length_c	16.120256
_cell_angle_alpha	84.383140
_cell_angle_beta	87.119259
_cell_angle_gamma	92.923925
loop_
_atom_site_label
_atom_site_type_symbol
_atom_site_fract_x
_atom_site_fract_y
_atom_site_fract_z
Zn1	Zn	1.087185	-0.356817	0.489416
Zn2	Zn	1.587185	0.143183	0.989416
Zn3	Zn	1.087090	-0.489504	0.356727
Zn4	Zn	1.587090	0.010496	0.856727
Zn5	Zn	0.970689	-0.349743	0.349666
Zn6	Zn	1.470689	0.150257	0.849666
Zn7	Zn	0.957510	-0.496543	0.496456
Zn8	Zn	1.457510	0.003457	0.996456
O9	O	1.025618	-0.423152	0.423066
O10	O	1.525618	0.076848	0.923066
O11	O	1.190155	-0.374433	0.471823
O12	O	1.690155	0.125567	0.971823
O13	O	1.077125	-0.465058	0.238828
O14	O	1.577125	0.034942	0.738828
O15	O	0.991698	-0.233716	0.362303
O16	O	1.491698	0.266284	0.862303
O17	O	1.190086	-0.471917	0.374338
O18	O	1.690086	0.028083	0.874338
O19	O	1.077286	-0.238913	0.464976
O20	O	1.577286	0.261087	0.964976
O21	O	0.991606	-0.362377	0.233640
O22	O	1.491606	0.137623	0.733640
O23	O	0.865958	-0.369202	0.369129
O24	O	1.365958	0.130798	0.869129
O25	O	0.969236	-0.483914	0.612485
O26	O	1.469236	0.016086	1.112485
O27	O	0.856275	-0.477055	0.476975
O28	O	1.356275	0.022945	0.976975
O29	O	1.064507	-0.381259	0.607313
O30	O	1.564507	0.118741	1.107313
O31	O	1.064346	-0.607403	0.381164
O32	O	1.564346	-0.107403	0.881164
O33	O	0.969144	-0.612575	0.483822
O34	O	1.469144	-0.112575	0.983822
C35	C	0.834414	-0.423125	0.423050
C36	C	1.334414	0.076875	0.923050
C37	C	0.752614	-0.423135	0.423064
C38	C	1.252614	0.076865	0.923064
C39	C	0.564446	-0.372490	0.473915
C40	C	1.064446	0.127510	0.973915
C41	C	0.487587	-0.372497	0.473918
C42	C	0.987587	0.127503	0.973918
C43	C	0.487541	-0.473838	0.372233
C44	C	0.987541	0.026162	0.872233
C45	C	0.564399	-0.473826	0.372226
C46	C	1.064399	0.026174	0.872226
C47	C	0.602849	-0.423153	0.423072
C48	C	1.102849	0.076847	0.923072
C49	C	0.449132	-0.423173	0.423082
C50	C	0.949132	0.076827	0.923082
C51	C	0.365798	-0.423181	0.423085
C52	C	0.865798	0.076819	0.923085
C53	C	0.686189	-0.423143	0.423068
C54	C	1.186189	0.076857	0.923068
C55	C	1.015324	-0.640318	0.434042
C56	C	1.515324	-0.140318	0.934042
C57	C	1.010985	-0.733224	0.438765
C58	C	1.510985	-0.233224	0.938765
C59	C	1.048295	-0.942134	0.398744
C60	C	1.548295	-0.442134	0.898744
C61	C	1.003078	-0.903319	0.447398
C62	C	1.503078	-0.403319	0.947398
C63	C	1.007479	-0.808669	0.442593
C64	C	1.507479	-0.308669	0.942593
C65	C	1.043895	-1.036792	0.403547
C66	C	1.543895	-0.536792	0.903547
C67	C	1.217569	-0.423179	0.423083
C68	C	1.717569	0.076821	0.923083
C69	C	1.299367	-0.423191	0.423090
C70	C	1.799367	0.076809	0.923090
C71	C	1.015412	-0.434161	0.641074
C72	C	1.515412	0.065839	1.141074
C73	C	1.011062	-0.438852	0.733976
C74	C	1.511062	0.061148	1.233976
C75	C	1.035973	-0.205139	0.412066
C76	C	1.535973	0.294861	0.912066
C77	C	1.040385	-0.112235	0.407379
C78	C	1.540385	0.387765	0.907379
C79	C	1.035831	-0.412125	0.205904
C80	C	1.535831	0.087875	0.705904
C81	C	1.040334	-0.407199	0.112991
C82	C	1.540334	0.092801	0.612991
C83	C	1.048300	-0.398665	0.942900
C84	C	1.548300	0.101335	1.442900
C85	C	1.003098	-0.447383	0.904061
C86	C	1.503098	0.052617	1.404061
C87	C	1.007531	-0.442635	0.809417
C88	C	1.507531	0.057365	1.309417
C89	C	1.043868	-0.403412	1.037553
C90	C	1.543868	0.096588	1.537553
H91	H	0.456323	-0.331240	0.515319
H92	H	0.956323	0.168760	1.015319
H93	H	0.961061	-0.941172	0.492659
H94	H	1.461061	-0.441172	0.992659
H95	H	1.090308	-0.904285	0.353484
H96	H	1.590308	-0.404285	0.853484
H97	H	0.961067	-0.492652	0.941891
H98	H	1.461067	0.007348	1.441891
H99	H	1.090324	-0.353396	0.905072
H100	H	1.590324	0.146604	1.405072
H101	H	0.456225	-0.515095	0.330837
H102	H	0.956225	-0.015095	0.830837
H103	H	0.595668	-0.515083	0.330819
H104	H	1.095668	-0.015083	0.830819
H105	H	0.595751	-0.331226	0.515314
H106	H	1.095751	0.168774	1.015314
