data_functionalizedCrystal
_audit_creation_method	'MofGen! by Chris Wilmer'
_symmetry_space_group_name_H-M	'P1'
_symmetry_Int_Tables_number	1
_symmetry_cell_setting	triclinic
loop_
_symmetry_equiv_pos_as_xyz
  x,y,z
_cell_length_a	25.639242
_cell_length_b	29.839131
_cell_length_c	25.639233
_cell_angle_alpha	90.019585
_cell_angle_beta	90.022166
_cell_angle_gamma	90.036947
loop_
_atom_site_label
_atom_site_type_symbol
_atom_site_fract_x
_atom_site_fract_y
_atom_site_fract_z
Zn1	Zn	0.799215	-0.178962	0.295739
Zn2	Zn	0.799134	-0.254076	0.208302
Zn3	Zn	0.711791	-0.178955	0.208303
Zn4	Zn	0.711732	-0.254059	0.295692
O5	O	0.755468	-0.216513	0.252009
O6	O	0.872370	-0.188935	0.284160
O7	O	0.787539	-0.244115	0.135137
O8	O	0.723447	-0.116089	0.219922
O9	O	0.872310	-0.244122	0.219920
O10	O	0.787677	-0.116094	0.284161
O11	O	0.723369	-0.188924	0.135138
O12	O	0.638618	-0.188908	0.219876
O13	O	0.723346	-0.244093	0.368864
O14	O	0.638575	-0.244087	0.284081
O15	O	0.787619	-0.188919	0.368898
O16	O	0.787482	-0.316941	0.219875
O17	O	0.723268	-0.316929	0.284080
C18	C	0.619626	-0.216495	0.251974
C19	C	0.561512	-0.216499	0.251971
C20	C	0.201135	-0.245293	0.285409
C21	C	0.146531	-0.245295	0.285417
O22	O	0.118282	-0.269755	0.313817
N23	N	0.119229	-0.216525	0.252043
C24	C	0.146535	-0.187748	0.218663
O25	O	0.118299	-0.163276	0.190277
C26	C	0.201138	-0.187743	0.218658
C27	C	0.228437	-0.216518	0.252030
C28	C	0.228434	-0.274065	0.318778
C29	C	0.283034	-0.274063	0.318769
C30	C	0.310336	-0.245288	0.285390
C31	C	0.283037	-0.216516	0.252021
C32	C	0.228443	-0.158963	0.185281
C33	C	0.283050	-0.158961	0.185279
C34	C	0.310349	-0.187736	0.218651
C35	C	0.364940	-0.187739	0.218633
N36	N	0.392241	-0.216509	0.252006
C37	C	0.364939	-0.245283	0.285385
C38	C	0.031864	-0.187759	0.218677
C39	C	-0.022738	-0.187766	0.218679
C40	C	-0.022739	-0.245313	0.285434
C41	C	0.031865	-0.245308	0.285429
C42	C	0.059166	-0.216529	0.252051
C43	C	0.479604	-0.245277	0.285363
C44	C	0.534210	-0.245273	0.285350
C45	C	0.534206	-0.187724	0.218597
C46	C	0.479605	-0.187729	0.218609
C47	C	0.452306	-0.216507	0.251996
O48	O	0.393223	-0.163290	0.190249
O49	O	0.393182	-0.269746	0.313771
C50	C	0.755374	-0.333236	0.251983
C51	C	0.755381	-0.383170	0.251990
C52	C	0.788965	-0.692807	0.218627
C53	C	0.789030	-0.880480	0.218647
O54	O	0.817509	-0.904740	0.190260
N55	N	0.755577	-0.903955	0.252049
C56	C	0.722108	-0.880509	0.285450
O57	O	0.693659	-0.904782	0.313865
C58	C	0.722046	-0.692837	0.285432
C59	C	0.755498	-0.669364	0.252024
C60	C	0.822415	-0.669335	0.185222
C61	C	0.822396	-0.622419	0.185215
C62	C	0.788928	-0.598976	0.218613
C63	C	0.755479	-0.622449	0.252018
C64	C	0.688580	-0.669391	0.318836
C65	C	0.688568	-0.622470	0.318829
C66	C	0.722020	-0.598998	0.285422
C67	C	0.721993	-0.552090	0.285409
N68	N	0.755446	-0.528615	0.252007
C69	C	0.788914	-0.552058	0.218609
C70	C	0.722141	-0.979039	0.285457
C71	C	0.722156	-1.025957	0.285461
C72	C	0.789079	-1.025925	0.218658
C73	C	0.789062	-0.979007	0.218652
C74	C	0.755595	-0.955565	0.252055
C75	C	0.788872	-0.453533	0.218597
C76	C	0.788849	-0.406613	0.218592
C77	C	0.721928	-0.406649	0.285396
C78	C	0.721949	-0.453564	0.285400
C79	C	0.755425	-0.477005	0.251999
O80	O	0.693533	-0.527802	0.313784
O81	O	0.817366	-0.527777	0.190207
C82	C	0.788984	-0.739723	0.218633
C83	C	0.755535	-0.763195	0.252038
C84	C	0.722067	-0.739752	0.285436
C85	C	0.755549	-0.810113	0.252042
C86	C	0.789017	-0.833556	0.218644
C87	C	0.822470	-0.810081	0.185242
C88	C	0.822451	-0.763166	0.185235
C89	C	0.688614	-0.763227	0.318838
C90	C	0.688635	-0.810143	0.318841
C91	C	0.722102	-0.833585	0.285443
C92	C	0.891841	-0.216531	0.252045
C93	C	0.949955	-0.216539	0.252060
C94	C	0.755485	-0.216505	0.388382
C95	C	0.755492	-0.216502	0.446496
C96	C	0.755577	-0.099335	0.252047
C97	C	0.755624	-0.049400	0.252063
C98	C	0.755482	-0.216488	0.116167
C99	C	0.755576	-0.216365	0.058053
C100	C	0.789002	-0.187687	0.806883
C101	C	0.789008	-0.187675	0.861488
O102	O	0.817457	-0.163229	0.889744
N103	N	0.755550	-0.216396	0.888779
C104	C	0.722079	-0.245129	0.861463
O105	O	0.693621	-0.269558	0.889691
C106	C	0.722071	-0.245139	0.806860
C107	C	0.755535	-0.216419	0.779571
C108	C	0.822463	-0.158969	0.779594
C109	C	0.822457	-0.158982	0.724994
C110	C	0.788990	-0.187714	0.697682
C111	C	0.755529	-0.216432	0.724971
C112	C	0.688598	-0.273869	0.779545
C113	C	0.688592	-0.273876	0.724938
C114	C	0.722056	-0.245156	0.697650
C115	C	0.722056	-0.245176	0.643058
N116	N	0.755514	-0.216455	0.615767
C117	C	0.788981	-0.187723	0.643079
C118	C	0.722100	-0.245106	0.976134
C119	C	0.722110	-0.245099	1.030736
C120	C	0.789039	-0.187644	1.030757
C121	C	0.789030	-0.187653	0.976153
C122	C	0.755558	-0.216384	0.948843
C123	C	0.788967	-0.187753	0.528414
C124	C	0.788959	-0.187770	0.473808
C125	C	0.722029	-0.245223	0.473793
C126	C	0.722038	-0.245208	0.528393
C127	C	0.755509	-0.216470	0.555702
O128	O	0.693620	-0.269609	0.614767
O129	O	0.817430	-0.163295	0.614845
H130	H	0.305276	-0.135522	0.158101
C131	C	0.685897	-1.051414	0.321816
C132	C	0.697255	-1.039979	0.373557
C133	C	0.663870	-1.063423	0.407065
H134	H	0.650752	-1.043774	0.314195
H135	H	0.690700	-1.082720	0.317074
H136	H	0.692448	-1.008681	0.378296
H137	H	0.732394	-1.047621	0.381193
H138	H	0.668673	-1.094729	0.402324
H139	H	0.628727	-1.055781	0.399440
H140	H	0.671575	-1.055671	0.442175
H141	H	0.694712	-0.472677	0.312605
C142	C	0.652201	-0.694893	0.355026
C143	C	0.618702	-0.721861	0.325401
C144	C	0.585178	-0.745354	0.358724
H145	H	0.672135	-0.713205	0.377840
H146	H	0.632241	-0.674220	0.374907
H147	H	0.638659	-0.742531	0.305528
H148	H	0.598757	-0.703560	0.302588
H149	H	0.565219	-0.724682	0.378605
H150	H	0.605116	-0.763664	0.381537
H151	H	0.562442	-0.763651	0.338628
C152	C	0.685795	-0.276445	0.558054
C153	C	0.715370	-0.305243	0.589404
C154	C	0.681996	-0.334024	0.616727
H155	H	0.663022	-0.259299	0.579389
H156	H	0.665871	-0.293586	0.533984
H157	H	0.735285	-0.288104	0.613471
H158	H	0.738141	-0.322398	0.568083
H159	H	0.662072	-0.351165	0.592657
H160	H	0.659225	-0.316875	0.638058
H161	H	0.702058	-0.353570	0.637997
C162	C	0.858744	-0.835522	0.148902
C163	C	0.847394	-0.824161	0.097150
C164	C	0.880794	-0.847599	0.063666
H165	H	0.893885	-0.827825	0.156524
H166	H	0.853951	-0.866829	0.153666
H167	H	0.852191	-0.792862	0.092388
H168	H	0.812259	-0.831860	0.089511
H169	H	0.876001	-0.878905	0.068430
H170	H	0.915933	-0.839899	0.071293
H171	H	0.873095	-0.839897	0.028549
H172	H	0.694677	-0.387554	0.312587
H173	H	0.849706	-0.135594	0.702780
H174	H	0.054089	-0.164324	0.191493
C175	C	0.563820	-0.276460	0.321674
C176	C	0.550580	-0.266734	0.373427
C177	C	0.577849	-0.295447	0.406903
H178	H	0.554867	-0.306651	0.314029
H179	H	0.600255	-0.272336	0.316926
H180	H	0.514152	-0.270861	0.378173
H181	H	0.559534	-0.236547	0.381088
H182	H	0.614285	-0.291324	0.402155
H183	H	0.568894	-0.325637	0.399254
H184	H	0.568873	-0.288850	0.442021
H185	H	0.661390	-0.829250	0.346045
C186	C	0.858862	-0.127756	0.809147
C187	C	0.888168	-0.102620	0.773551
C188	C	0.921714	-0.073868	0.800751
H189	H	0.838948	-0.108132	0.830450
H190	H	0.881660	-0.144931	0.830437
H191	H	0.865372	-0.085447	0.752270
H192	H	0.908092	-0.122233	0.752247
H193	H	0.944513	-0.091042	0.822041
H194	H	0.901796	-0.054246	0.822053
H195	H	0.941605	-0.056812	0.776604
H196	H	0.694783	-0.268617	0.451545
H197	H	0.457384	-0.268709	0.312552
C198	C	0.825365	-0.156537	0.557964
C199	C	0.854674	-0.131401	0.522370
C200	C	0.888217	-0.102647	0.549572
H201	H	0.805449	-0.136912	0.579264
H202	H	0.848162	-0.173710	0.579257
H203	H	0.831880	-0.114229	0.501086
H204	H	0.874601	-0.151015	0.501069
H205	H	0.911014	-0.119820	0.570865
H206	H	0.868296	-0.083025	0.570870
H207	H	0.908110	-0.085592	0.525425
C208	C	-0.052293	-0.276602	0.321698
C209	C	-0.016703	-0.301808	0.350918
C210	C	-0.043911	-0.330638	0.384322
H211	H	-0.073572	-0.259494	0.344562
H212	H	-0.073607	-0.296175	0.301670
H213	H	0.004601	-0.282237	0.370945
H214	H	0.004577	-0.318925	0.328069
H215	H	-0.065225	-0.350212	0.364294
H216	H	-0.065189	-0.313527	0.407182
H217	H	-0.019768	-0.347747	0.404148
C218	C	0.198770	-0.305236	0.355085
C219	C	0.167463	-0.279852	0.388670
C220	C	0.140140	-0.308557	0.422126
H221	H	0.177406	-0.324798	0.335107
H222	H	0.222840	-0.322361	0.374986
H223	H	0.143397	-0.262736	0.368771
H224	H	0.188814	-0.260292	0.408660
H225	H	0.164209	-0.325681	0.442027
H226	H	0.118779	-0.328117	0.402144
H227	H	0.118899	-0.291338	0.444920
C228	C	0.563785	-0.156412	0.182387
C229	C	0.550531	-0.111978	0.193859
C230	C	0.577765	-0.083119	0.160509
H231	H	0.600222	-0.160471	0.187129
H232	H	0.554803	-0.162915	0.147235
H233	H	0.559517	-0.105477	0.229002
H234	H	0.514099	-0.107905	0.189113
H235	H	0.568783	-0.089622	0.125358
H236	H	0.614200	-0.087182	0.165255
H237	H	0.568772	-0.052968	0.168286
C238	C	0.825204	-0.156554	0.444118
C239	C	0.795620	-0.127770	0.412758
C240	C	0.828988	-0.099009	0.385399
H241	H	0.845144	-0.139398	0.468150
H242	H	0.847963	-0.173729	0.422790
H243	H	0.772871	-0.110597	0.434085
H244	H	0.775682	-0.144913	0.388716
H245	H	0.851747	-0.116184	0.364071
H246	H	0.848925	-0.081856	0.409435
H247	H	0.808920	-0.079478	0.364115
C248	C	0.312762	-0.305281	0.354954
C249	C	0.366427	-0.299132	0.347804
C250	C	0.393825	-0.327886	0.381128
H251	H	0.303893	-0.298775	0.390116
H252	H	0.303819	-0.335468	0.347238
H253	H	0.375367	-0.268953	0.355523
H254	H	0.375312	-0.305642	0.312648
H255	H	0.384882	-0.358072	0.373412
H256	H	0.384951	-0.321377	0.416288
H257	H	0.430239	-0.323720	0.376278
H258	H	0.816288	-0.164248	1.053004
C259	C	0.449930	-0.156561	0.182320
C260	C	0.418545	-0.181947	0.148750
C261	C	0.391208	-0.153245	0.115318
H262	H	0.428618	-0.137007	0.202316
H263	H	0.473991	-0.139428	0.162407
H264	H	0.394487	-0.199072	0.168661
H265	H	0.439844	-0.201500	0.128742
H266	H	0.415269	-0.136112	0.095405
H267	H	0.369898	-0.133692	0.135318
H268	H	0.369914	-0.170465	0.092534
C269	C	0.825518	-1.051390	0.182505
C270	C	0.859018	-1.078260	0.212183
C271	C	0.892612	-1.101715	0.178912
H272	H	0.805636	-1.069766	0.159677
H273	H	0.845473	-1.030695	0.162637
H274	H	0.839064	-1.098952	0.232043
H275	H	0.878911	-1.059895	0.235011
H276	H	0.912568	-1.081019	0.159044
H277	H	0.872726	-1.120088	0.156085
H278	H	0.915349	-1.119945	0.199044
C279	C	0.685886	-0.953569	0.321788
C280	C	0.715451	-0.926607	0.355344
C281	C	0.682068	-0.903144	0.388822
H282	H	0.663101	-0.935255	0.301823
H283	H	0.665976	-0.974260	0.341707
H284	H	0.735352	-0.905918	0.335427
H285	H	0.738235	-0.944909	0.375320
H286	H	0.662159	-0.923835	0.408742
H287	H	0.659285	-0.884833	0.368853
H288	H	0.702124	-0.884851	0.411597
C289	C	0.061528	-0.276602	0.321578
C290	C	0.092835	-0.305366	0.291914
C291	C	0.120160	-0.334204	0.325199
H292	H	0.082892	-0.259497	0.344406
H293	H	0.037459	-0.293765	0.341446
H294	H	0.116901	-0.288205	0.272055
H295	H	0.071485	-0.322481	0.269088
H296	H	0.096091	-0.351367	0.345067
H297	H	0.141520	-0.317095	0.348025
H298	H	0.141401	-0.353726	0.305077
C299	C	-0.052300	-0.156553	0.182352
C300	C	-0.039032	-0.166267	0.130604
C301	C	-0.066245	-0.137517	0.097124
H302	H	-0.088740	-0.160641	0.187058
H303	H	-0.043311	-0.126371	0.190035
H304	H	-0.048026	-0.196442	0.122924
H305	H	-0.002597	-0.162177	0.125882
H306	H	-0.057255	-0.107335	0.104807
H307	H	-0.102684	-0.141607	0.101834
H308	H	-0.057243	-0.144101	0.062009
C309	C	0.652186	-0.305000	0.695263
C310	C	0.618682	-0.279569	0.663918
C311	C	0.585135	-0.308226	0.636582
H312	H	0.672102	-0.324594	0.673925
H313	H	0.632231	-0.322092	0.719326
H314	H	0.638634	-0.262485	0.639858
H315	H	0.598753	-0.259977	0.685243
H316	H	0.565180	-0.325319	0.660644
H317	H	0.605056	-0.327819	0.615247
H318	H	0.562395	-0.290976	0.615315
C319	C	0.198894	-0.127744	0.148955
C320	C	0.212172	-0.137457	0.097208
C321	C	0.184973	-0.108700	0.063725
H322	H	0.162452	-0.131826	0.153651
H323	H	0.207888	-0.097563	0.156642
H324	H	0.203174	-0.167630	0.089523
H325	H	0.248609	-0.133372	0.092495
H326	H	0.193967	-0.078520	0.071412
H327	H	0.148533	-0.112785	0.068426
H328	H	0.193982	-0.115283	0.028611
H329	H	0.816089	-0.387503	0.191385
H330	H	0.816279	-0.164266	0.953939
C331	C	0.685847	-0.276333	0.946417
C332	C	0.715420	-0.305131	0.915063
C333	C	0.682043	-0.333899	0.887678
H334	H	0.665913	-0.293480	0.970433
H335	H	0.663084	-0.259165	0.925082
H336	H	0.738174	-0.322298	0.936396
H337	H	0.735354	-0.287997	0.891037
H338	H	0.659280	-0.316730	0.866343
H339	H	0.662110	-0.351042	0.911698
H340	H	0.702103	-0.353439	0.866398
C341	C	0.858634	-0.596916	0.148882
C342	C	0.829052	-0.570025	0.115320
C343	C	0.862419	-0.546534	0.081838
H344	H	0.881407	-0.578552	0.168843
H345	H	0.878557	-0.617590	0.128967
H346	H	0.809138	-0.549354	0.135234
H347	H	0.806280	-0.588378	0.095348
H348	H	0.882343	-0.567208	0.061923
H349	H	0.885191	-0.528173	0.101804
H350	H	0.842353	-0.528289	0.059060
H351	H	0.694866	-0.268490	1.052950
H352	H	0.849671	-0.688417	0.158025
C353	C	0.825234	-0.478897	0.182273
C354	C	0.854510	-0.448291	0.153011
C355	C	0.888004	-0.471640	0.119537
H356	H	0.848059	-0.497175	0.202237
H357	H	0.805268	-0.497214	0.159444
H358	H	0.874475	-0.429981	0.175838
H359	H	0.831699	-0.430012	0.133037
H360	H	0.868038	-0.489957	0.096708
H361	H	0.910825	-0.489917	0.139505
H362	H	0.907868	-0.450877	0.099676
C363	C	0.825440	-0.953605	0.182362
C364	C	0.854757	-0.984184	0.153125
C365	C	0.888281	-0.960803	0.119694
H366	H	0.805509	-0.935324	0.159512
H367	H	0.848232	-0.935288	0.202373
H368	H	0.831968	-1.002493	0.133116
H369	H	0.874699	-1.002466	0.175962
H370	H	0.911073	-0.942486	0.139704
H371	H	0.868346	-0.942523	0.096847
H372	H	0.908180	-0.981547	0.099856
H373	H	0.661316	-0.603386	0.346032
H374	H	0.849691	-0.744058	0.158032
C375	C	0.652203	-0.305066	0.809069
C376	C	0.622884	-0.330215	0.773453
C377	C	0.589344	-0.358954	0.800630
H378	H	0.672122	-0.324683	0.830376
H379	H	0.629412	-0.287882	0.830353
H380	H	0.645673	-0.347398	0.752179
H381	H	0.602955	-0.310609	0.752145
H382	H	0.566553	-0.341770	0.821913
H383	H	0.609267	-0.378569	0.821936
H384	H	0.569444	-0.376018	0.776469
H385	H	0.661361	-0.744143	0.346035
