data_functionalizedCrystal
_audit_creation_method	'MofGen! by Chris Wilmer'
_symmetry_space_group_name_H-M	'P1'
_symmetry_Int_Tables_number	1
_symmetry_cell_setting	triclinic
loop_
_symmetry_equiv_pos_as_xyz
  x,y,z
_cell_length_a	23.096457
_cell_length_b	18.878441
_cell_length_c	18.878441
_cell_angle_alpha	89.999813
_cell_angle_beta	60.001209
_cell_angle_gamma	60.003277
loop_
_atom_site_label
_atom_site_type_symbol
_atom_site_fract_x
_atom_site_fract_y
_atom_site_fract_z
Zr1	Zr	0.633746	-0.092946	0.682400
O2	O	0.754526	-0.206040	0.569301
O3	O	0.512963	-0.058282	0.717068
O4	O	0.633744	-0.206051	0.717073
O5	O	0.633747	0.058297	0.569296
O6	O	0.633747	-0.206055	0.833640
O7	O	0.633744	-0.058270	0.569297
O8	O	0.417691	0.058277	0.833632
O9	O	0.849804	-0.206035	0.569304
O10	O	0.562647	-0.043495	0.818850
O11	O	0.562647	0.043501	0.731856
O12	O	0.704852	-0.130478	0.731862
O13	O	0.704852	-0.043482	0.644868
Zr14	Zr	0.633757	0.092959	0.868311
Zr15	Zr	0.633752	-0.092953	0.868312
Zr16	Zr	0.633752	0.092966	0.682399
Zr17	Zr	0.785704	-0.092939	0.682405
Zr18	Zr	0.481800	0.092952	0.868306
O19	O	0.754541	0.058295	0.833643
O20	O	0.754533	-0.206049	0.833644
O21	O	0.754533	0.058304	0.569300
O22	O	0.512978	0.206053	0.981410
O23	O	0.512970	-0.058291	0.981411
O24	O	0.512970	0.206062	0.717067
O25	O	0.633756	-0.058284	0.981415
O26	O	0.633759	0.206064	0.833638
O27	O	0.633756	0.206068	0.717071
O28	O	0.633759	0.058283	0.981415
O29	O	0.849808	-0.206040	0.717079
O30	O	0.417696	0.206053	0.833632
O31	O	0.417700	0.206048	0.981407
O32	O	0.417696	0.058272	0.981408
O33	O	0.849808	-0.058259	0.569303
O34	O	0.849812	-0.058264	0.717079
O35	O	0.562652	0.130491	0.818849
O36	O	0.562652	0.043495	0.905843
O37	O	0.704857	-0.043488	0.818855
O38	O	0.704857	0.043508	0.731861
C39	C	0.443676	-0.000003	0.775350
C40	C	0.379166	-0.000007	0.775348
C41	C	0.633745	0.000014	0.542808
C42	C	0.633743	0.000017	0.463883
C43	C	0.633759	0.232554	0.775354
C44	C	0.633761	0.311479	0.775354
C45	C	0.348865	-0.045421	0.820752
C46	C	0.288243	-0.045414	0.820760
C47	C	0.257936	-0.000004	0.775348
C48	C	0.288241	0.045420	0.729942
C49	C	0.348856	0.045419	0.729942
N50	N	0.195538	-0.006298	0.701448
N51	N	0.137957	-0.006302	0.701450
C52	C	0.075304	0.000004	0.775347
N53	N	0.072414	0.006296	0.849241
N54	N	0.130003	0.006295	0.849238
C55	C	0.192208	0.000003	0.775343
C56	C	-0.020732	-0.045405	0.820764
C57	C	-0.081359	-0.045392	0.820775
C58	C	-0.081354	0.045436	0.729948
C59	C	-0.020734	0.045429	0.729946
C60	C	0.009576	0.000003	0.775352
C61	C	0.823827	0.000016	0.775361
C62	C	0.888337	0.000020	0.775363
C63	C	0.633745	-0.232541	0.775357
C64	C	0.633743	-0.311466	0.775357
C65	C	0.707989	0.303156	0.729948
C66	C	0.707987	0.377317	0.729944
C67	C	0.633755	0.459800	0.775351
C68	C	0.559520	0.468121	0.820758
C69	C	0.559524	0.393961	0.820757
C70	C	0.559518	0.622692	0.820760
C71	C	0.559514	0.696857	0.820763
C72	C	0.707981	0.606047	0.729947
C73	C	0.707984	0.531887	0.729946
C74	C	0.633750	0.540214	0.775354
C75	C	0.559514	0.045418	0.472209
C76	C	0.559517	0.045419	0.398048
C77	C	0.633749	0.000013	0.315562
C78	C	0.707983	-0.045390	0.307238
C79	C	0.707980	-0.045385	0.381398
C80	C	0.707986	-0.045399	0.152668
C81	C	0.707989	-0.045405	0.078502
C82	C	0.559523	0.045405	0.169318
C83	C	0.559519	0.045410	0.243478
C84	C	0.633754	0.000006	0.235148
C85	C	0.633759	-0.000001	1.007903
C86	C	0.633761	-0.000004	1.086828
C87	C	0.443683	-0.000011	1.007897
C88	C	0.379175	-0.000017	1.086820
C89	C	0.443683	0.232544	0.775348
C90	C	0.379175	0.311466	0.775346
C91	C	0.443690	0.232537	1.007896
C92	C	0.379185	0.311455	1.086818
C93	C	0.823814	-0.232524	0.542815
C94	C	0.888319	-0.311442	0.463893
C95	C	0.823820	0.000024	0.542814
C96	C	0.888328	0.000030	0.463891
C97	C	0.823820	-0.232532	0.775363
C98	C	0.888328	-0.311453	0.775365
C99	C	0.348879	-0.045436	1.078474
C100	C	0.288276	-0.045459	1.152623
C101	C	0.257966	-0.000058	1.235117
C102	C	0.288268	0.045362	1.243462
C103	C	0.348874	0.045380	1.169314
C104	C	0.348885	0.393944	0.820754
C105	C	0.288281	0.468106	0.820749
C106	C	0.257966	0.459788	0.775340
C107	C	0.288263	0.377301	0.729926
C108	C	0.348869	0.303141	0.729927
C109	C	0.348892	0.303105	1.169299
C110	C	0.288291	0.377250	1.243462
C111	C	0.257979	0.459745	1.235142
C112	C	0.288278	0.468093	1.152653
C113	C	0.348882	0.393949	1.078492
C114	C	0.918619	-0.303092	0.381412
C115	C	0.979239	-0.377237	0.307249
C116	C	1.009554	-0.459732	0.315569
C117	C	0.979251	-0.468080	0.398058
C118	C	0.918637	-0.393936	0.472219
C119	C	0.918630	0.045441	0.472237
C120	C	0.979251	0.045444	0.398088
C121	C	1.009563	0.000040	0.315594
C122	C	0.979258	-0.045377	0.307249
C123	C	0.918643	-0.045384	0.381397
C124	C	0.918624	-0.303107	0.820783
C125	C	0.979228	-0.377255	0.820802
C126	C	1.009538	-0.459748	0.775398
C127	C	0.979236	-0.468092	0.729978
C128	C	0.918629	-0.393945	0.729965
H129	H	0.373540	-0.082406	0.857726
H130	H	1.003924	-0.535267	0.693011
Br131	Br	0.390003	-0.107062	0.966526
H132	H	0.768436	-0.082379	0.011340
Br133	Br	0.175713	-0.000090	1.335740
Br134	Br	0.020392	0.107066	0.668323
H135	H	0.263571	0.370541	0.692955
H136	H	0.499072	0.082390	0.404835
Br137	Br	0.877503	-0.191162	0.882411
H138	H	1.003948	-0.082343	0.240072
Br139	Br	0.247132	0.580057	1.141378
Br140	Br	0.877522	-0.107015	0.370054
H141	H	0.263567	-0.082397	0.857735
Br142	Br	0.020403	-0.107046	0.882390
H143	H	0.208616	0.520181	0.775346
H144	H	1.003915	0.082430	0.404900
H145	H	0.768438	0.235998	0.692976
Br146	Br	1.091827	0.000058	0.214972
Br147	Br	1.091793	-0.560368	0.775424
H148	H	0.499068	0.629478	0.857732
Br149	Br	0.458775	0.580063	0.882375
H150	H	0.263560	0.082394	0.692968
H151	H	0.373538	0.400760	1.011336
H152	H	1.003894	-0.370444	0.857787
H153	H	0.768431	0.370533	0.692972
H154	H	-0.106034	-0.082370	0.857754
H155	H	0.768431	0.464727	0.692977
Br156	Br	0.877527	-0.405287	0.668312
H157	H	0.373528	0.082401	0.692966
H158	H	-0.106030	0.082410	0.692973
H159	H	1.003942	-0.535256	0.404821
H160	H	0.499068	0.764017	0.857732
Br161	Br	0.808728	0.594745	0.668326
Br162	Br	0.458765	0.107036	0.584151
H163	H	0.499073	0.082375	0.310640
Br164	Br	0.247163	-0.107102	1.141277
Br165	Br	0.389979	0.107031	1.180657
Br166	Br	0.458781	0.405258	0.882375
H167	H	0.373524	0.235986	0.692953
Br168	Br	0.247121	0.106977	1.355426
H169	H	0.768435	-0.082355	0.145879
Br170	Br	0.458775	0.107018	0.180623
Br171	Br	0.808729	-0.107004	0.195292
Br172	Br	0.808722	-0.106996	0.370097
H173	H	0.373561	0.400733	0.857732
Br174	Br	0.247176	0.580041	0.882388
H175	H	0.373563	0.235940	1.176089
Br176	Br	0.247183	0.365900	1.355399
H177	H	0.208631	0.520111	1.295536
Br178	Br	0.877488	-0.191144	0.370098
Br179	Br	1.020349	-0.365887	0.195312
H180	H	1.058910	-0.520098	0.255175
Br181	Br	0.877519	-0.405284	0.584154
Br182	Br	0.877508	0.107065	0.584185
