data_functionalizedCrystal
_audit_creation_method	'MofGen! by Chris Wilmer'
_symmetry_space_group_name_H-M	'P1'
_symmetry_Int_Tables_number	1
_symmetry_cell_setting	triclinic
loop_
_symmetry_equiv_pos_as_xyz
  x,y,z
_cell_length_a	14.853566
_cell_length_b	15.944493
_cell_length_c	13.330367
_cell_angle_alpha	90.001230
_cell_angle_beta	89.995295
_cell_angle_gamma	83.554729
loop_
_atom_site_label
_atom_site_type_symbol
_atom_site_fract_x
_atom_site_fract_y
_atom_site_fract_z
O1	O	1.196204	0.109662	-0.083344
O2	O	0.933725	0.122728	-0.083359
O3	O	1.072160	-0.006075	-0.083359
O4	O	1.057770	0.238465	-0.083343
O5	O	1.072139	-0.006078	0.083488
O6	O	0.933705	0.122725	0.083488
O7	O	1.196184	0.109660	0.083503
Cu8	Cu	1.064943	0.116192	0.098730
Cu9	Cu	1.064966	0.116195	-0.098586
O10	O	1.057750	0.238462	0.083504
C11	C	0.900127	0.122134	0.000063
C12	C	0.800046	0.120361	0.000056
C13	C	0.376883	0.112861	-0.090875
C14	C	0.376883	0.112859	0.091028
C15	C	0.470914	0.114524	0.091025
C16	C	0.517935	0.115360	0.000071
C17	C	0.470923	0.114530	-0.090881
C18	C	0.517932	0.115363	0.181975
C19	C	0.611969	0.117029	0.181976
C20	C	0.658991	0.117859	0.091020
C21	C	0.611974	0.117028	0.000065
C22	C	0.658995	0.117863	-0.090889
C23	C	0.611980	0.117026	-0.181846
C24	C	0.517946	0.115359	-0.181836
C25	C	0.753026	0.119526	0.091011
C26	C	0.753035	0.119531	-0.090895
C27	C	1.071561	-0.037372	0.000060
C28	C	1.069798	-0.130623	0.000047
C29	C	1.151284	-0.366292	0.000071
C30	C	1.107352	-0.416907	-0.082195
C31	C	1.066531	-0.301347	0.000059
C32	C	1.107312	-0.416886	0.082303
C33	C	1.063381	-0.466260	0.000075
C34	C	1.022621	-0.350734	-0.082275
C35	C	1.022594	-0.350710	0.082297
C36	C	0.978600	-0.401293	0.000011
C37	C	1.068348	-0.206345	0.000049
C38	C	1.061558	-0.561260	0.000078
C39	C	1.229782	0.110253	0.000080
C40	C	1.329863	0.112026	0.000080
C41	C	1.058348	0.269759	0.000082
C42	C	1.060111	0.363010	0.000089
N43	N	1.064933	0.116189	0.237512
N44	N	1.064984	0.116192	-0.237367
C45	C	1.003665	0.173207	0.710135
C46	C	1.126292	0.059177	0.710103
C47	C	1.126282	0.059175	0.605084
C48	C	1.064963	0.116190	0.552586
C49	C	1.003655	0.173208	0.605107
C50	C	1.187596	0.002164	0.552556
C51	C	1.187589	0.002159	0.447531
C52	C	1.126265	0.059171	0.395031
C53	C	1.064953	0.116191	0.447558
C54	C	1.003634	0.173206	0.395060
C55	C	0.942317	0.230222	0.447585
C56	C	0.942331	0.230219	0.552607
C57	C	1.126251	0.059174	0.290010
C58	C	1.003624	0.173207	0.290032
H59	H	0.650240	0.117709	0.256038
C60	C	0.887865	0.280849	0.286601
C61	C	0.874917	0.292892	0.389872
H62	H	0.846252	0.319535	0.250971
H63	H	0.948021	0.290079	0.269393
H64	H	0.878089	0.224767	0.269401
H65	H	0.884700	0.348973	0.407074
H66	H	0.814747	0.283669	0.407088
C67	C	0.373798	0.112817	-0.262592
C68	C	0.466265	0.114449	-0.281808
H69	H	0.341891	0.112263	-0.324311
H70	H	0.365273	0.063601	-0.225234
H71	H	0.351518	0.161491	-0.225213
H72	H	0.488546	0.065772	-0.319182
H73	H	0.474796	0.163670	-0.319183
C74	C	1.294637	-0.379927	0.085208
C75	C	1.249833	-0.345077	-0.000057
H76	H	1.355476	-0.366832	0.085112
H77	H	1.264666	-0.357135	0.143716
H78	H	1.294167	-0.439452	0.084609
H79	H	1.250297	-0.285550	0.000545
H80	H	1.279812	-0.367865	-0.058580
H81	H	0.791312	0.120208	-0.164962
C82	C	0.602553	0.116868	-0.361658
C83	C	0.663669	0.117952	-0.281823
H84	H	0.634467	0.117447	-0.423376
H85	H	0.572768	0.067271	-0.357884
H86	H	0.558983	0.165161	-0.357864
H87	H	0.707235	0.069656	-0.285612
H88	H	0.693468	0.167554	-0.285598
C89	C	0.847590	0.222256	0.742496
C90	C	0.936266	0.235873	0.767868
H91	H	0.805982	0.260940	0.778145
H92	H	0.838818	0.230422	0.672445
H93	H	0.837829	0.166174	0.759709
H94	H	0.946029	0.291954	0.750648
H95	H	0.945041	0.227714	0.837935
C96	C	0.786259	0.279273	0.584995
C97	C	0.874939	0.292886	0.610349
H98	H	0.744657	0.317957	0.620652
H99	H	0.777476	0.287440	0.514945
H100	H	0.776499	0.223190	0.602210
H101	H	0.884701	0.348967	0.593128
H102	H	0.883726	0.284725	0.680415
H103	H	0.986858	-0.321953	-0.151899
H104	H	1.143152	-0.445812	-0.151742
H105	H	0.986824	-0.321790	0.151846
H106	H	1.143114	-0.445779	0.151848
H107	H	0.905539	-0.416840	-0.000038
H108	H	0.953687	0.219633	0.247295
H109	H	0.791300	0.120216	0.165066
C110	C	0.478825	0.187007	0.337018
C111	C	0.466251	0.114449	0.281950
H112	H	0.446913	0.186442	0.398739
H113	H	0.541550	0.188116	0.350028
H114	H	0.456525	0.235670	0.299638
H115	H	0.488557	0.065785	0.319327
H116	H	0.403513	0.113332	0.268943
H117	H	0.338601	0.112177	-0.164929
H118	H	0.338593	0.112185	0.165079
C119	C	1.179245	-0.086149	0.742427
C120	C	1.193683	-0.003496	0.767810
H121	H	1.220852	-0.124843	0.778054
H122	H	1.119086	-0.095358	0.759651
H123	H	1.188020	-0.094302	0.672363
H124	H	1.184901	0.004659	0.837874
H125	H	1.253856	0.005716	0.750593
C126	C	1.240545	-0.143163	0.584878
C127	C	1.254980	-0.060511	0.610269
H128	H	1.282146	-0.181859	0.620511
H129	H	1.180383	-0.152372	0.602089
H130	H	1.249331	-0.151314	0.514815
H131	H	1.246188	-0.052358	0.680332
H132	H	1.315156	-0.051299	0.593065
H133	H	1.237515	-0.044266	0.404772
C134	C	1.247469	-0.053533	0.300532
C135	C	1.193643	-0.003493	0.232274
H136	H	1.289070	-0.092227	0.264887
H137	H	1.279889	-0.018509	0.341483
H138	H	1.209948	-0.083812	0.341507
H139	H	1.231163	0.026792	0.191304
H140	H	1.161220	-0.038521	0.191307
