data_functionalizedCrystal
_audit_creation_method	'MofGen! by Chris Wilmer'
_symmetry_space_group_name_H-M	'P1'
_symmetry_Int_Tables_number	1
_symmetry_cell_setting	triclinic
loop_
_symmetry_equiv_pos_as_xyz
  x,y,z
_cell_length_a	8.597340
_cell_length_b	19.188925
_cell_length_c	7.681481
_cell_angle_alpha	84.277839
_cell_angle_beta	103.474906
_cell_angle_gamma	84.245328
loop_
_atom_site_label
_atom_site_type_symbol
_atom_site_fract_x
_atom_site_fract_y
_atom_site_fract_z
O1	O	2.099169	0.096556	0.172054
O2	O	2.599169	0.596556	0.672054
O3	O	1.635030	0.107681	0.101632
O4	O	2.135030	0.607681	0.601632
O5	O	1.880499	0.000479	0.138886
O6	O	2.380499	0.500479	0.638886
O7	O	1.853700	0.203757	0.134800
O8	O	2.353700	0.703757	0.634800
O9	O	1.910713	-0.012745	0.436329
O10	O	2.410713	0.487255	0.936329
O11	O	1.665243	0.094456	0.399076
O12	O	2.165243	0.594456	0.899076
O13	O	2.129382	0.083331	0.469497
O14	O	2.629382	0.583331	0.969497
Zn15	Zn	1.902110	0.086794	0.481512
Zn16	Zn	2.402110	0.586794	0.981512
Zn17	Zn	1.862302	0.104218	0.089618
Zn18	Zn	2.362302	0.604218	0.589618
O19	O	1.883913	0.190532	0.432243
O20	O	2.383913	0.690532	0.932243
C21	C	1.590756	0.100610	0.241344
C22	C	2.090756	0.600610	0.741344
C23	C	1.413822	0.099237	0.214499
C24	C	1.913822	0.599237	0.714499
C25	C	1.894739	-0.032145	0.287475
C26	C	2.394739	0.467855	0.787475
C27	C	1.892138	-0.109653	0.287077
C28	C	2.392138	0.390347	0.787077
C29	C	2.018752	-0.671255	0.306243
C30	C	2.518752	-0.171255	0.806243
C31	C	2.021211	-0.598429	0.306632
C32	C	2.521211	-0.098429	0.806632
C33	C	1.877179	-0.553684	0.284778
C34	C	2.377179	-0.053684	0.784778
C35	C	1.730680	-0.581772	0.262579
C36	C	2.230680	-0.081772	0.762579
C37	C	1.728227	-0.654597	0.262209
C38	C	2.228227	-0.154597	0.762209
N39	N	1.762621	-0.428639	0.167715
N40	N	2.262621	0.071361	0.667715
N41	N	1.764961	-0.359458	0.168065
N42	N	2.264961	0.140542	0.668065
C43	C	1.884562	-0.334265	0.285897
C44	C	2.384562	0.165735	0.785897
N45	N	2.001756	-0.380866	0.403348
N46	N	2.501756	0.119134	0.903348
N47	N	1.999420	-0.450053	0.402991
N48	N	2.499420	0.049947	0.902991
C49	C	1.879823	-0.474716	0.285179
C50	C	2.379823	0.025284	0.785179
C51	C	2.033718	-0.227220	0.308529
C52	C	2.533718	0.272780	0.808529
C53	C	2.036172	-0.154393	0.308928
C54	C	2.536172	0.345607	0.808928
C55	C	1.745635	-0.137736	0.264857
C56	C	2.245635	0.362264	0.764857
C57	C	1.743187	-0.210563	0.264476
C58	C	2.243187	0.289437	0.764476
C59	C	1.887232	-0.255300	0.286304
C60	C	2.387232	0.244700	0.786304
C61	C	2.173656	0.090402	0.329781
C62	C	2.673656	0.590402	0.829781
C63	C	2.350589	0.091775	0.356615
C64	C	2.850589	0.591775	0.856615
C65	C	1.869673	0.223157	0.283651
C66	C	2.369673	0.723157	0.783651
C67	C	1.872272	0.300666	0.284037
C68	C	2.372272	0.800666	0.784037
N69	N	1.929289	0.074902	0.748971
N70	N	2.429289	0.574902	1.248971
N71	N	1.835136	0.116104	-0.177839
N72	N	2.335136	0.616104	0.322161
H73	H	2.140497	-0.575562	0.324716
H74	H	2.640497	-0.075562	0.824716
H75	H	2.136046	-0.707677	0.324027
H76	H	2.636046	-0.207677	0.824027
O77	O	2.056628	0.019195	0.867887
O78	O	2.556628	0.519195	1.367887
H79	H	1.998275	-0.018477	0.943039
H80	H	2.498275	0.481523	1.443039
H81	H	1.628363	-0.101306	0.247078
H82	H	2.128363	0.398694	0.747078
O83	O	1.458163	0.084705	0.545008
O84	O	1.958163	0.584705	1.045008
H85	H	1.584913	0.086934	0.537247
H86	H	2.084913	0.586934	1.037247
H87	H	1.332588	0.104576	0.072274
H88	H	1.832588	0.604576	0.572274
H89	H	1.613409	-0.545336	0.244791
H90	H	2.113409	-0.045336	0.744791
H91	H	2.151008	-0.263647	0.326304
H92	H	2.651008	0.236353	0.826304
O93	O	1.570232	-0.684889	0.238246
O94	O	2.070232	-0.184889	0.738246
H95	H	1.470484	-0.641543	0.223108
H96	H	1.970484	-0.141543	0.723108
O97	O	2.194166	-0.124101	0.332858
O98	O	2.694166	0.375899	0.832858
H99	H	2.293907	-0.167446	0.347948
H100	H	2.793907	0.332554	0.847948
O101	O	1.585196	-0.240855	0.240507
O102	O	2.085196	0.259145	0.740507
H103	H	1.485449	-0.197508	0.225363
H104	H	1.985449	0.302492	0.725363
H105	H	1.739025	0.158159	0.732377
H106	H	2.239025	0.658159	1.232377
