data_functionalizedCrystal
_audit_creation_method	'MofGen! by Chris Wilmer'
_symmetry_space_group_name_H-M	'P1'
_symmetry_Int_Tables_number	1
_symmetry_cell_setting	triclinic
loop_
_symmetry_equiv_pos_as_xyz
  x,y,z
_cell_length_a	17.077404
_cell_length_b	12.645330
_cell_length_c	17.077395
_cell_angle_alpha	89.975056
_cell_angle_beta	89.984359
_cell_angle_gamma	90.012871
loop_
_atom_site_label
_atom_site_type_symbol
_atom_site_fract_x
_atom_site_fract_y
_atom_site_fract_z
Zn1	Zn	1.200081	-0.422046	-0.443855
Zn2	Zn	1.200020	-0.599328	-0.312594
Zn3	Zn	1.068821	-0.422079	-0.312603
Zn4	Zn	1.068804	-0.599269	-0.443818
O5	O	1.134431	-0.510681	-0.378218
O6	O	1.309919	-0.445574	-0.426455
O7	O	1.182598	-0.575854	-0.202749
O8	O	1.086266	-0.273728	-0.330033
O9	O	1.309875	-0.575822	-0.330018
O10	O	1.182701	-0.273703	-0.426464
O11	O	1.086207	-0.445630	-0.202755
O12	O	0.958972	-0.445573	-0.329997
O13	O	1.086236	-0.575721	-0.553670
O14	O	0.958959	-0.575753	-0.426400
O15	O	1.182685	-0.445516	-0.553697
O16	O	1.182581	-0.747667	-0.329982
O17	O	1.086177	-0.747624	-0.426392
C18	C	0.930484	-0.510661	-0.378196
C19	C	0.843234	-0.510679	-0.378205
C20	C	0.802257	-0.578566	-0.428322
C21	C	0.720277	-0.578568	-0.428334
C22	C	0.679274	-0.510688	-0.378226
C23	C	0.720256	-0.442793	-0.328107
C24	C	0.802235	-0.442786	-0.328099
C25	C	0.549386	-0.442814	-0.328126
C26	C	0.467402	-0.442822	-0.328133
C27	C	0.467428	-0.578596	-0.428361
C28	C	0.549407	-0.578589	-0.428353
C29	C	0.590383	-0.510695	-0.378233
C30	C	1.134392	-0.786110	-0.378199
C31	C	1.134447	-0.903940	-0.378217
C32	C	1.194997	-1.071487	-0.317443
C33	C	1.195195	-0.948927	-0.317592
C34	C	1.156874	-0.948326	-0.460961
C35	C	1.157354	-1.070924	-0.460639
C36	C	1.051446	-1.071267	-0.357063
C37	C	1.051844	-0.948663	-0.355208
C38	C	1.339176	-0.510701	-0.378240
C39	C	1.426425	-0.510709	-0.378249
C40	C	1.134465	-0.510609	-0.582962
C41	C	1.134479	-0.510578	-0.670212
C42	C	1.134492	-0.234175	-0.378253
C43	C	1.134518	-0.116345	-0.378269
C44	C	1.184787	-0.442636	-1.046042
C45	C	1.184771	-0.442674	-0.964061
C46	C	1.134544	-0.510478	-0.923061
C47	C	1.084335	-0.578256	-0.964045
C48	C	1.084356	-0.578224	-1.046024
C49	C	1.084295	-0.578318	-0.793175
C50	C	1.084273	-0.578349	-0.711190
C51	C	1.184710	-0.442767	-0.711212
C52	C	1.184731	-0.442735	-0.793191
C53	C	1.134521	-0.510513	-0.834170
C54	C	1.134443	-0.510676	-0.174270
C55	C	1.134581	-0.510408	-0.087020
H56	H	1.181164	-0.918921	-0.256239
H57	H	1.181142	-1.101037	-0.255910
H58	H	1.031051	-1.102273	-0.297778
Br59	Br	0.664669	-0.670702	-0.496355
Br60	Br	0.605054	-0.670723	-0.496351
Br61	Br	0.604997	-0.350670	-0.260107
Br62	Br	0.411755	-0.350706	-0.260122
H63	H	1.115233	-1.100594	-0.507520
Br64	Br	1.297002	-1.122701	-0.340555
H65	H	0.686865	-0.387519	-0.287311
H66	H	0.835597	-0.387500	-0.287293
H67	H	1.225683	-0.387416	-1.079419
Br68	Br	0.411819	-0.670723	-0.496392
Br69	Br	1.252875	-0.350814	-0.655600
H70	H	1.114164	-0.919183	-0.507495
Br71	Br	1.297746	-0.899902	-0.340973
H72	H	1.043356	-0.633537	-0.677810
H73	H	1.218075	-1.099437	-0.478601
Br74	Br	0.857896	-0.670702	-0.496324
H75	H	1.216909	-0.917539	-0.479223
H76	H	1.034934	-0.919663	-0.294315
Br77	Br	1.252914	-0.350697	-0.908450
H78	H	1.004352	-0.918050	-0.396262
H79	H	1.225627	-0.387518	-0.826572
H80	H	1.006384	-1.100277	-0.401365
Br81	Br	1.016153	-0.670304	-0.848788
Br82	Br	1.016172	-0.670282	-0.908403
H83	H	1.043473	-0.633411	-1.079388
