data_functionalizedCrystal
_audit_creation_method	'MofGen! by Chris Wilmer'
_symmetry_space_group_name_H-M	'P1'
_symmetry_Int_Tables_number	1
_symmetry_cell_setting	triclinic
loop_
_symmetry_equiv_pos_as_xyz
  x,y,z
_cell_length_a	10.654550
_cell_length_b	14.044220
_cell_length_c	9.730223
_cell_angle_alpha	89.997406
_cell_angle_beta	89.996251
_cell_angle_gamma	88.836890
loop_
_atom_site_label
_atom_site_type_symbol
_atom_site_fract_x
_atom_site_fract_y
_atom_site_fract_z
O1	O	1.681222	0.133227	-0.114408
O2	O	1.317019	0.145921	-0.114387
O3	O	1.493654	0.001554	-0.114384
O4	O	1.504587	0.277595	-0.114411
O5	O	1.493652	0.001557	0.114196
O6	O	1.317017	0.145925	0.114193
O7	O	1.681220	0.133231	0.114172
Zn8	Zn	1.499118	0.139578	0.150474
Zn9	Zn	1.499121	0.139574	-0.150689
O10	O	1.504585	0.277598	0.114169
C11	C	1.270127	0.144991	-0.000094
C12	C	1.130403	0.142202	-0.000085
C13	C	1.059459	0.227203	-0.000114
C14	C	0.928175	0.224578	-0.000137
C15	C	0.938790	0.051942	-0.000109
C16	C	1.070072	0.054569	-0.000076
C17	C	1.119790	0.314837	-0.000123
C18	C	1.048846	0.399845	-0.000153
C19	C	0.917561	0.397219	-0.000177
C20	C	0.857221	0.309585	-0.000170
C21	C	1.488867	-0.033790	-0.000093
C22	C	1.474592	-0.139110	-0.000090
C23	C	1.448493	-0.331943	-0.000108
C24	C	1.549741	-0.388911	-0.000119
C25	C	1.535219	-0.496210	-0.000129
C26	C	1.463013	-0.224634	-0.000098
C27	C	1.728113	0.134161	-0.000124
C28	C	1.867836	0.136950	-0.000142
C29	C	1.509372	0.312942	-0.000125
C30	C	1.523648	0.418262	-0.000137
N31	N	1.499126	0.139581	0.356011
N32	N	1.499123	0.139563	-0.356226
C33	C	1.577364	0.075677	0.427938
C34	C	1.577359	0.075666	0.571821
C35	C	1.420876	0.203470	0.571837
C36	C	1.420875	0.203477	0.427956
C37	C	1.655615	0.011782	0.355993
C38	C	1.733861	-0.052127	0.427920
C39	C	1.733856	-0.052138	0.571803
C40	C	1.655606	0.011759	0.643759
H41	H	1.226688	0.316985	-0.000110
O42	O	0.729698	0.306910	-0.000370
C43	C	0.688774	0.258705	-0.118774
H44	H	0.767538	0.209818	-0.158225
H45	H	0.603550	0.214512	-0.092162
H46	H	0.662142	0.312801	-0.201680
O47	O	1.666101	-0.350856	-0.000293
C48	C	1.680546	-0.294236	-0.118684
H49	H	1.584211	-0.270356	-0.158157
H50	H	1.737760	-0.229050	-0.092045
H51	H	1.731348	-0.337516	-0.201582
O52	O	1.332169	-0.370043	-0.000035
C53	C	1.343386	-0.470247	-0.000077
H54	H	1.438910	-0.492717	0.043179
H55	H	1.266056	-0.501218	0.066298
H56	H	1.334263	-0.497835	-0.109738
H57	H	1.127836	-0.014647	-0.000056
H58	H	0.889650	-0.019405	-0.000126
O59	O	1.655733	0.011636	0.216227
C60	C	1.741598	-0.058443	0.168145
H61	H	1.757198	-0.114803	0.251053
H62	H	1.702333	-0.093246	0.071885
H63	H	1.834693	-0.023947	0.142617
H64	H	1.797562	-0.104155	0.369327
H65	H	1.797557	-0.104181	0.630365
O66	O	1.655786	0.011644	0.783527
C67	C	1.741588	-0.058485	0.831589
H68	H	1.814609	-0.074495	0.748674
H69	H	1.790358	-0.031452	0.927853
H70	H	1.689182	-0.126213	0.857103
H71	H	0.859801	0.466437	-0.000187
O72	O	1.344994	0.265506	0.641943
C73	C	1.361752	0.251782	0.784359
H74	H	1.457699	0.217028	0.803998
H75	H	1.355814	0.323518	0.839045
H76	H	1.285294	0.203704	0.825197
O77	O	1.344844	0.265646	0.358290
C78	C	1.275764	0.322031	0.452640
H79	H	1.327406	0.323464	0.555202
H80	H	1.265071	0.397653	0.411066
H81	H	1.178957	0.290574	0.467947
H82	H	1.097984	0.471193	-0.000147
