data_functionalizedCrystal
_audit_creation_method	'MofGen! by Chris Wilmer'
_symmetry_space_group_name_H-M	'P1'
_symmetry_Int_Tables_number	1
_symmetry_cell_setting	triclinic
loop_
_symmetry_equiv_pos_as_xyz
  x,y,z
_cell_length_a	6.817900
_cell_length_b	16.015009
_cell_length_c	16.305550
_cell_angle_alpha	77.921847
_cell_angle_beta	103.455250
_cell_angle_gamma	104.487874
loop_
_atom_site_label
_atom_site_type_symbol
_atom_site_fract_x
_atom_site_fract_y
_atom_site_fract_z
V1	V	-4.010758	-0.120178	-0.226129
O2	O	-4.014489	0.005025	-0.259567
O3	O	-3.947081	-0.237572	-0.188283
O4	O	-3.962360	-0.118658	-0.341313
O5	O	-3.999104	-0.114711	-0.105478
V6	V	-4.496366	-0.105163	-0.216108
O7	O	-4.267445	-0.153114	-0.248111
O8	O	-4.689877	-0.072228	-0.194126
O9	O	-4.336837	0.012230	-0.253954
O10	O	-4.610032	-0.230367	-0.182670
O11	O	-4.625417	-0.110630	-0.336759
O12	O	-4.321557	-0.106683	-0.100924
C13	C	-3.788365	-0.266180	-0.175349
C14	C	-3.817588	-0.362153	-0.145173
C15	C	-3.820291	-0.484882	-0.029242
C16	C	-3.792835	-0.394702	-0.057606
C17	C	-3.869821	-0.419778	-0.204412
C18	C	-3.897294	-0.509962	-0.176061
C19	C	-3.872523	-0.542506	-0.088475
C20	C	-3.949526	-0.567587	-0.235294
C21	C	-3.976986	-0.657762	-0.206945
C22	C	-3.952214	-0.690314	-0.119363
C23	C	-3.899983	-0.632682	-0.060126
C24	C	-3.974282	-0.535040	-0.322879
C25	C	-4.026514	-0.592665	-0.382113
C26	C	-4.053989	-0.682843	-0.353764
C27	C	-4.029217	-0.715394	-0.266182
C28	C	-4.106220	-0.740474	-0.413000
C29	C	-4.133680	-0.830650	-0.384651
C30	C	-4.056677	-0.805570	-0.237832
C31	C	-3.807855	-0.114493	-0.370553
C32	C	-3.849466	-0.114027	-0.464478
C33	C	-4.000786	-0.112223	-0.805778
C34	C	-3.765428	-0.106866	-0.766494
C35	C	-3.722126	-0.107707	-0.668741
C36	C	-3.925713	-0.113117	-0.636455
C37	C	-4.081758	-0.198381	-0.660900
C38	C	-4.123684	-0.197899	-0.758598
C39	C	-4.065751	-0.032997	-0.784261
C40	C	-4.017908	-0.032322	-0.686626
C41	C	-3.883298	-0.113626	-0.540761
C42	C	-4.043210	-0.111720	-0.901471
C43	C	-4.158894	0.040834	-0.266884
C44	C	-4.108909	0.136806	-0.297065
C45	C	-4.139405	-0.110852	-0.071679
C46	C	-4.077032	-0.111313	0.022246
H47	H	-3.879826	-0.659182	0.011195
H48	H	-3.904989	0.030744	-0.671613
C49	C	-3.424278	-0.020776	-0.772448
C50	C	-3.632839	-0.023717	-0.808712
H51	H	-3.342428	0.030562	-0.798513
H52	H	-3.385730	-0.070747	-0.781349
H53	H	-3.403229	-0.020135	-0.712889
H54	H	-3.653891	-0.024365	-0.868271
H55	H	-3.671400	0.026266	-0.799819
H56	H	-4.046670	-0.566154	-0.453425
C57	C	-4.334577	-0.738235	-0.549565
C58	C	-4.133433	-0.704695	-0.509272
H59	H	-4.351368	-0.716150	-0.609001
H60	H	-4.430366	-0.721115	-0.525879
H61	H	-4.358394	-0.800188	-0.541154
H62	H	-4.109621	-0.642742	-0.517679
H63	H	-4.037615	-0.721810	-0.532967
C64	C	-4.447730	-0.209498	-0.703921
C65	C	-4.287290	-0.207901	-0.632446
H66	H	-4.574611	-0.215370	-0.686351
H67	H	-4.455195	-0.257543	-0.731023
H68	H	-4.422207	-0.156655	-0.742856
H69	H	-4.312806	-0.260747	-0.593513
H70	H	-4.279828	-0.159852	-0.605331
H71	H	-3.603529	-0.046403	-0.652541
H72	H	-4.018593	-0.258374	-0.625666
H73	H	-3.982675	0.031607	-0.817467
H74	H	-3.750286	-0.347785	-0.009364
H75	H	-4.165333	-0.031261	-0.665604
H76	H	-4.176205	-0.877570	-0.432885
H77	H	-3.713002	-0.163786	-0.780528
H78	H	-4.036520	-0.832069	-0.166512
C79	C	-4.085245	-0.403203	-0.326234
C80	C	-3.944131	-0.435919	-0.354052
H81	H	-4.066643	-0.342011	-0.345486
H82	H	-4.063005	-0.414330	-0.265603
H83	H	-4.221792	-0.431072	-0.348762
H84	H	-3.807582	-0.408054	-0.331519
H85	H	-3.966354	-0.424784	-0.414696
H86	H	-3.974562	-0.763741	-0.096282
H87	H	-3.648280	-0.165284	-0.634767
C88	C	-3.991592	-0.327339	-0.696515
C89	C	-4.064440	-0.278858	-0.774757
H90	H	-3.955000	-0.377316	-0.706491
H91	H	-4.096499	-0.345354	-0.663187
H92	H	-3.873846	-0.292227	-0.666812
H93	H	-4.182196	-0.313968	-0.804458
H94	H	-3.959524	-0.260844	-0.808099
C95	C	-3.741439	-0.451044	0.113045
C96	C	-3.793075	-0.520664	0.067035
H97	H	-3.724627	-0.473137	0.172479
H98	H	-3.848459	-0.419216	0.097110
H99	H	-3.616188	-0.413571	0.100759
H100	H	-3.918335	-0.558134	0.079316
H101	H	-3.686047	-0.552506	0.082976
H102	H	-4.296556	-0.205377	-0.784293
H103	H	-4.237408	-0.036163	-0.810105
H104	H	-3.889977	-0.393267	-0.275725
