data_functionalizedCrystal
_audit_creation_method	'MofGen! by Chris Wilmer'
_symmetry_space_group_name_H-M	'P1'
_symmetry_Int_Tables_number	1
_symmetry_cell_setting	triclinic
loop_
_symmetry_equiv_pos_as_xyz
  x,y,z
_cell_length_a	15.944551
_cell_length_b	13.339070
_cell_length_c	11.804365
_cell_angle_alpha	74.887832
_cell_angle_beta	101.844682
_cell_angle_gamma	99.564016
loop_
_atom_site_label
_atom_site_type_symbol
_atom_site_fract_x
_atom_site_fract_y
_atom_site_fract_z
O1	O	-1.157119	-0.110075	-0.098894
O2	O	-0.657119	0.389925	0.401106
O3	O	-0.916321	-0.126155	-0.098923
O4	O	-0.416321	0.373845	0.401077
O5	O	-1.009083	0.029150	-0.098908
O6	O	-0.509083	0.529150	0.401092
O7	O	-1.064356	-0.265381	-0.098909
O8	O	-0.564356	0.234619	0.401091
O9	O	-0.984653	-0.011695	0.099144
O10	O	-0.484653	0.488305	0.599144
O11	O	-0.891890	-0.167000	0.099129
O12	O	-0.391890	0.333000	0.599129
O13	O	-1.132688	-0.150920	0.099158
O14	O	-0.632688	0.349080	0.599158
Cu15	Cu	-1.010058	-0.162690	0.117227
Cu16	Cu	-0.510058	0.337310	0.617227
Cu17	Cu	-1.038950	-0.114386	-0.116992
Cu18	Cu	-0.538950	0.385614	0.383008
O19	O	-1.039925	-0.306226	0.099143
O20	O	-0.539925	0.193774	0.599143
C21	C	-0.872656	-0.145909	0.000099
C22	C	-0.372656	0.354091	0.500099
C23	C	-0.778945	-0.143905	0.000088
C24	C	-0.278945	0.356095	0.500088
C25	C	-0.987532	0.046418	0.000115
C26	C	-0.487532	0.546418	0.500115
C27	C	-0.959703	0.158723	0.000107
C28	C	-0.459703	0.658723	0.500107
C29	C	-1.176353	-0.131166	0.000133
C30	C	-0.676353	0.368834	0.500133
C31	C	-1.270065	-0.133169	0.000136
C32	C	-0.770065	0.366831	0.500136
C33	C	-0.540539	-0.042857	0.000111
C34	C	-0.040539	0.457143	0.500111
C35	C	-0.502499	-0.069644	-0.097539
C36	C	-0.002499	0.430356	0.402461
C37	C	-0.607374	-0.140286	0.000102
C38	C	-0.107374	0.359714	0.500102
C39	C	-0.478440	-0.109937	0.097725
C40	C	0.021560	0.390063	0.597725
C41	C	-0.441642	-0.136784	0.000121
C42	C	0.058358	0.363216	0.500121
C43	C	-0.570578	-0.167083	-0.097629
C44	C	-0.070578	0.332917	0.402371
C45	C	-0.546511	-0.207380	0.097723
C46	C	-0.046511	0.292620	0.597723
C47	C	-0.508508	-0.234233	0.000049
C48	C	-0.008508	0.265767	0.500049
C49	C	-0.702847	-0.142300	0.000090
C50	C	-0.202847	0.357700	0.500090
C51	C	-0.346172	-0.134776	0.000124
C52	C	0.153828	0.365224	0.500124
C53	C	-1.061477	-0.323493	0.000117
C54	C	-0.561477	0.176507	0.500117
C55	C	-1.089307	-0.435797	0.000118
C56	C	-0.589307	0.064203	0.500118
N57	N	-0.989743	-0.196663	0.281964
N58	N	-0.489743	0.303337	0.781964
C59	C	-1.176092	0.523496	0.000133
C60	C	-0.676092	1.023496	0.500133
C61	C	-1.202241	0.417979	0.000148
C62	C	-0.702241	0.917979	0.500148
C63	C	-1.141609	0.353160	0.000137
C64	C	-0.641609	0.853160	0.500137
C65	C	-1.054823	0.393868	0.000113
C66	C	-0.554823	0.893868	0.500113
C67	C	-1.028671	0.499394	0.000108
C68	C	-0.528671	0.999394	0.500108
C69	C	-0.994187	0.329058	0.000111
C70	C	-0.494187	0.829058	0.500111
C71	C	-0.907401	0.369767	0.000087
C72	C	-0.407401	0.869767	0.500087
C73	C	-0.881254	0.475283	0.000082
C74	C	-0.381254	0.975283	0.500082
C75	C	-0.941886	0.540101	0.000092
C76	C	-0.441886	1.040101	0.500092
C77	C	-1.020339	0.223532	0.000116
C78	C	-0.520339	0.723532	0.500116
C79	C	-0.872918	0.199430	0.000091
C80	C	-0.372918	0.699430	0.500091
C81	C	-0.846769	0.304948	0.000077
C82	C	-0.346769	0.804948	0.500077
N83	N	-1.059270	-0.080404	-0.281730
N84	N	-0.559270	0.419596	0.218270
C85	C	-1.108049	0.001198	0.655932
C86	C	-0.608049	0.501198	1.155932
C87	C	-1.123416	0.026903	0.531273
C88	C	-0.623416	0.526903	1.031273
C89	C	-1.089999	-0.028986	0.468939
C90	C	-0.589999	0.471014	0.968939
C91	C	-1.041213	-0.110585	0.531278
C92	C	-0.541213	0.389415	1.031278
C93	C	-1.025851	-0.136298	0.655949
C94	C	-0.525851	0.363702	1.155949
C95	C	-1.007800	-0.166482	0.468957
C96	C	-0.507800	0.333518	0.968957
C97	C	-0.959015	-0.248082	0.531295
C98	C	-0.459015	0.251918	1.031295
C99	C	-0.943655	-0.273790	0.655954
C100	C	-0.443655	0.226210	1.155954
C101	C	-0.977072	-0.217901	0.718288
C102	C	-0.477072	0.282099	1.218288
C103	C	-1.023163	-0.140769	0.344285
C104	C	-0.523163	0.359231	0.844285
C105	C	-0.940964	-0.278266	0.344303
C106	C	-0.440964	0.221734	0.844303
C107	C	-0.925598	-0.303971	0.468962
C108	C	-0.425598	0.196029	0.968962
H109	H	-0.555046	0.038028	-0.000009
H110	H	-0.055046	0.538028	0.499991
Br111	Br	-0.636869	-0.207310	-0.235378
Br112	Br	-0.136869	0.292690	0.264622
H113	H	-0.482970	-0.011409	-0.180095
H114	H	0.017030	0.488591	0.319905
H115	H	-0.885876	-0.370411	0.519733
H116	H	-0.385876	0.129589	1.019733
H117	H	-0.494216	-0.315165	-0.000006
H118	H	0.005784	0.184835	0.499994
H119	H	-0.438564	-0.085734	0.180278
H120	H	0.061436	0.414266	0.680278
Br121	Br	-0.906420	0.683344	-0.000089
Br122	Br	-0.406420	1.183344	0.499911
H123	H	-0.566052	-0.265582	0.180283
H124	H	-0.066052	0.234418	0.680283
H125	H	-1.091001	0.190398	0.000137
H126	H	-0.591001	0.690398	0.500137
H127	H	-1.135259	0.046691	0.706692
H128	H	-0.635259	0.546691	1.206692
Br129	Br	-0.956209	-0.252783	0.887476
Br130	Br	-0.456209	0.247217	1.387476
H131	H	-0.903939	-0.340240	0.706710
H132	H	-0.403939	0.159760	1.206710
Br133	Br	-0.895617	-0.354127	0.259717
Br134	Br	-0.395617	0.145873	0.759717
H135	H	-1.062884	-0.074331	0.293541
H136	H	-0.562884	0.425669	0.793541
Br137	Br	-1.177098	0.209956	0.000153
Br138	Br	-0.677098	0.709956	0.500153
H139	H	-1.272901	0.384841	0.000169
H140	H	-0.772901	0.884841	0.500169
H141	H	-1.102512	-0.008053	0.367436
H142	H	-0.602512	0.491947	0.867436
Br143	Br	-1.258365	0.611460	0.000176
Br144	Br	-0.758365	1.111460	0.500176
Br145	Br	-0.763471	0.530524	0.000071
Br146	Br	-0.263471	1.030524	0.500071
Br147	Br	-0.728993	0.360209	0.000037
Br148	Br	-0.228993	0.860209	0.500037
H149	H	-0.823545	0.146653	0.000088
H150	H	-0.323545	0.646653	0.500088
Br151	Br	-1.189623	0.137636	0.446672
Br152	Br	-0.689623	0.637636	0.946672
