data_functionalizedCrystal
_audit_creation_method	'MofGen! by Chris Wilmer'
_symmetry_space_group_name_H-M	'P1'
_symmetry_Int_Tables_number	1
_symmetry_cell_setting	triclinic
loop_
_symmetry_equiv_pos_as_xyz
  x,y,z
_cell_length_a	14.971486
_cell_length_b	14.519709
_cell_length_c	14.048226
_cell_angle_alpha	89.992623
_cell_angle_beta	89.998499
_cell_angle_gamma	83.647137
loop_
_atom_site_label
_atom_site_type_symbol
_atom_site_fract_x
_atom_site_fract_y
_atom_site_fract_z
O1	O	1.187015	0.120184	-0.079053
O2	O	1.687015	0.620184	0.420947
O3	O	0.926623	0.134576	-0.079079
O4	O	1.426623	0.634576	0.420921
O5	O	1.063722	-0.006863	-0.079057
O6	O	1.563722	0.493137	0.420943
O7	O	1.049915	0.261622	-0.079076
O8	O	1.549915	0.761622	0.420924
O9	O	1.063706	-0.006871	0.079264
O10	O	1.563706	0.493129	0.579264
O11	O	0.926606	0.134568	0.079242
O12	O	1.426606	0.634568	0.579242
O13	O	1.186998	0.120175	0.079268
O14	O	1.686998	0.620175	0.579268
Zn15	Zn	1.056799	0.127370	0.104392
Zn16	Zn	1.556799	0.627370	0.604392
Zn17	Zn	1.056821	0.127381	-0.104203
Zn18	Zn	1.556821	0.627381	0.395797
O19	O	1.049898	0.261614	0.079246
O20	O	1.549898	0.761614	0.579246
C21	C	0.893289	0.133928	0.000078
C22	C	1.393289	0.633928	0.500078
C23	C	0.793991	0.131999	0.000068
C24	C	1.293991	0.631999	0.500068
C25	C	0.736812	0.215091	0.000064
C26	C	1.236812	0.715091	0.500064
C27	C	0.643512	0.213273	0.000078
C28	C	1.143512	0.713273	0.500078
C29	C	0.607392	0.128363	0.000090
C30	C	1.107392	0.628363	0.500090
C31	C	0.664578	0.045265	0.000097
C32	C	1.164578	0.545265	0.500097
C33	C	0.757876	0.047084	0.000090
C34	C	1.257876	0.547084	0.500090
C35	C	0.470113	0.041480	0.000111
C36	C	0.970113	0.541480	0.500111
C37	C	0.376808	0.039661	0.000116
C38	C	0.876808	0.539661	0.500116
C39	C	0.355749	0.207669	0.000099
C40	C	0.855749	0.707669	0.500099
C41	C	0.449047	0.209488	0.000092
C42	C	0.949047	0.709488	0.500092
C43	C	0.506227	0.126390	0.000097
C44	C	1.006227	0.626390	0.500097
C45	C	1.063071	-0.041226	0.000104
C46	C	1.563071	0.458774	0.500104
C47	C	1.061142	-0.143606	0.000104
C48	C	1.561142	0.356394	0.500104
C49	C	1.054043	-0.518498	0.000079
C50	C	1.554043	-0.018498	0.500079
C51	C	1.056015	-0.414191	0.000086
C52	C	1.556015	0.085809	0.500086
C53	C	1.057593	-0.331055	0.000092
C54	C	1.557593	0.168945	0.500092
C55	C	1.059564	-0.226742	0.000098
C56	C	1.559564	0.273258	0.500098
C57	C	1.220331	0.120823	0.000109
C58	C	1.720331	0.620823	0.500109
C59	C	1.319630	0.122752	0.000112
C60	C	1.819630	0.622752	0.500112
C61	C	1.050550	0.295978	0.000083
C62	C	1.550550	0.795978	0.500083
C63	C	1.052478	0.398358	0.000076
C64	C	1.552478	0.898358	0.500076
N65	N	1.056791	0.127362	0.246753
N66	N	1.556791	0.627362	0.746753
N67	N	1.056837	0.127382	-0.246564
N68	N	1.556837	0.627382	0.253436
C69	C	1.117518	0.064759	0.296581
C70	C	1.617518	0.564759	0.796581
C71	C	1.117524	0.064758	0.396238
C72	C	1.617524	0.564758	0.896238
C73	C	1.056807	0.127366	0.446066
C74	C	1.556807	0.627366	0.946066
C75	C	0.996073	0.189972	0.396231
C76	C	1.496073	0.689972	0.896231
C77	C	0.996064	0.189968	0.296575
C78	C	1.496064	0.689968	0.796575
C79	C	0.996099	0.189979	0.603945
C80	C	1.496099	0.689979	1.103945
C81	C	0.996110	0.189985	0.703608
C82	C	1.496110	0.689985	1.203608
C83	C	1.117560	0.064770	0.703608
C84	C	1.617560	0.564770	1.203608
C85	C	1.117550	0.064765	0.603952
C86	C	1.617550	0.564765	1.103952
C87	C	1.056817	0.127373	0.554124
C88	C	1.556817	0.627373	1.054124
H89	H	0.596960	0.280934	0.000074
H90	H	1.096960	0.780934	0.500074
N91	N	1.179564	0.000794	0.754516
N92	N	1.679564	0.500794	1.254516
N93	N	1.179545	0.000781	0.843493
N94	N	1.679545	0.500781	1.343493
H95	H	1.223324	-0.044409	0.879452
H96	H	1.723324	0.455591	1.379452
H97	H	1.166972	0.013782	0.436808
H98	H	1.666972	0.513782	0.936808
H99	H	0.946666	0.240966	0.744173
H100	H	1.446666	0.740966	1.244173
N101	N	0.934053	0.253933	0.553061
N102	N	1.434053	0.753933	1.053061
N103	N	0.879848	0.309831	0.597558
N104	N	1.379848	0.809831	1.097558
H105	H	0.836031	0.355001	0.561621
H106	H	1.336031	0.855001	1.061621
H107	H	0.804431	-0.020578	0.000093
H108	H	1.304431	0.479422	0.500093
H109	H	1.166965	0.013780	0.256017
H110	H	1.666965	0.513780	0.756017
N111	N	0.339899	-0.047065	0.000124
N112	N	0.839899	0.452935	0.500124
N113	N	0.290186	-0.066822	-0.066608
N114	N	0.790186	0.433178	0.433392
H115	H	0.264118	-0.128073	-0.066604
H116	H	0.764118	0.371927	0.433396
N117	N	0.297333	0.292545	0.000107
N118	N	0.797333	0.792545	0.500107
N119	N	0.214033	0.290913	0.000128
N120	N	0.714033	0.790913	0.500128
H121	H	0.172773	0.350854	0.000136
H122	H	0.672773	0.850854	0.500136
H123	H	1.166995	0.013790	0.563383
H124	H	1.666995	0.513790	1.063383
N125	N	0.934038	0.253910	0.447128
N126	N	1.434038	0.753910	0.947128
N127	N	0.878483	0.224551	0.502750
N128	N	1.378483	0.724551	1.002750
H129	H	0.834669	0.269708	0.538696
H130	H	1.334669	0.769708	1.038696
H131	H	0.516667	-0.026188	0.000117
H132	H	1.016667	0.473812	0.500117
H133	H	0.766213	0.284234	0.000054
H134	H	1.266213	0.784234	0.500054
N135	N	0.934023	0.253918	0.245689
N136	N	1.434023	0.753918	0.745689
N137	N	0.879814	0.309813	0.290186
N138	N	1.379814	0.809813	0.790186
H139	H	0.835992	0.354978	0.254249
H140	H	1.335992	0.854978	0.754249
N141	N	0.485930	0.296228	0.000065
N142	N	0.985930	0.796228	0.500065
N143	N	0.434871	0.370415	0.000058
N144	N	0.934871	0.870415	0.500058
H145	H	0.460918	0.431677	0.000040
H146	H	0.960918	0.931677	0.500040
N147	N	0.627685	-0.041470	0.000129
N148	N	1.127685	0.458530	0.500129
N149	N	0.577977	-0.061229	0.066873
N150	N	1.077977	0.438771	0.566873
H151	H	0.551923	-0.122488	0.066895
H152	H	1.051923	0.377512	0.566895
