data_functionalizedCrystal
_audit_creation_method	'MofGen! by Chris Wilmer'
_symmetry_space_group_name_H-M	'P1'
_symmetry_Int_Tables_number	1
_symmetry_cell_setting	triclinic
loop_
_symmetry_equiv_pos_as_xyz
  x,y,z
_cell_length_a	19.188905
_cell_length_b	18.266242
_cell_length_c	19.188930
_cell_angle_alpha	89.989745
_cell_angle_beta	96.860332
_cell_angle_gamma	90.016065
loop_
_atom_site_label
_atom_site_type_symbol
_atom_site_fract_x
_atom_site_fract_y
_atom_site_fract_z
O1	O	0.926160	0.061010	-0.087084
O2	O	1.259494	0.394343	0.246249
O3	O	1.592827	0.727676	0.579582
O4	O	0.722847	0.060986	-0.098837
O5	O	1.056180	0.394319	0.234497
O6	O	1.389513	0.727652	0.567830
O7	O	0.830371	0.060984	0.008696
O8	O	1.163704	0.394318	0.342029
O9	O	1.497037	0.727651	0.675362
O10	O	0.818636	0.061011	-0.194617
O11	O	1.151970	0.394345	0.138717
O12	O	1.485303	0.727678	0.472050
O13	O	0.830353	-0.060778	0.008699
O14	O	1.163686	0.272556	0.342032
O15	O	1.497019	0.605889	0.675365
O16	O	0.722828	-0.060776	-0.098834
O17	O	1.056162	0.272557	0.234500
O18	O	1.389495	0.605891	0.567833
O19	O	0.926142	-0.060752	-0.087081
O20	O	1.259476	0.272581	0.246252
O21	O	1.592809	0.605914	0.579585
Zn22	Zn	0.824482	-0.080097	-0.092957
Zn23	Zn	1.157816	0.253237	0.240376
Zn24	Zn	1.491149	0.586570	0.573710
Zn25	Zn	0.824506	0.080330	-0.092961
Zn26	Zn	1.157840	0.413663	0.240372
Zn27	Zn	1.491173	0.746997	0.573706
O28	O	0.818618	-0.060751	-0.194614
O29	O	1.151951	0.272583	0.138720
O30	O	1.485285	0.605916	0.472053
C31	C	0.696826	0.000102	-0.098458
C32	C	1.030160	0.333435	0.234876
C33	C	1.363493	0.666768	0.568209
C34	C	0.619321	0.000092	-0.097324
C35	C	0.952654	0.333425	0.236009
C36	C	1.285987	0.666758	0.569343
C37	C	0.582939	0.066466	-0.096781
C38	C	0.916272	0.399799	0.236552
C39	C	1.249606	0.733133	0.569886
C40	C	0.510115	0.066475	-0.095708
C41	C	0.843449	0.399808	0.237625
C42	C	1.176782	0.733142	0.570959
C43	C	0.473678	0.000106	-0.095164
C44	C	0.807012	0.333439	0.238170
C45	C	1.140345	0.666773	0.571503
C46	C	0.510068	-0.066277	-0.095711
C47	C	0.843402	0.267056	0.237623
C48	C	1.176735	0.600390	0.570956
C49	C	0.582890	-0.066284	-0.096791
C50	C	0.916223	0.267049	0.236542
C51	C	1.249556	0.600382	0.569876
N52	N	0.364651	-0.049292	-0.053734
N53	N	0.697984	0.284042	0.279599
N54	N	1.031317	0.617375	0.612933
N55	N	0.295474	-0.049280	-0.052706
N56	N	0.628807	0.284053	0.280627
N57	N	0.962140	0.617386	0.613960
C58	C	0.254272	0.000123	-0.091911
C59	C	0.587605	0.333457	0.241422
C60	C	0.920938	0.666790	0.574756
N61	N	0.284861	0.049526	-0.132173
N62	N	0.618194	0.382860	0.201160
N63	N	0.951528	0.716193	0.534493
N64	N	0.354045	0.049517	-0.133198
N65	N	0.687378	0.382851	0.200135
N66	N	1.020711	0.716184	0.533469
C67	C	0.394716	0.000106	-0.093993
C68	C	0.728049	0.333440	0.239340
C69	C	1.061382	0.666773	0.572674
C70	C	0.138926	0.066512	-0.090206
C71	C	0.472259	0.399845	0.243128
C72	C	0.805593	0.733178	0.576461
C73	C	0.066100	0.066518	-0.089137
C74	C	0.399434	0.399851	0.244196
C75	C	0.732767	0.733185	0.577530
C76	C	0.066056	-0.066236	-0.089133
C77	C	0.399389	0.267097	0.244200
C78	C	0.732722	0.600431	0.577534
C79	C	0.138879	-0.066240	-0.090209
C80	C	0.472212	0.267093	0.243125
C81	C	0.805546	0.600426	0.576458
C82	C	0.175310	0.000136	-0.090742
C83	C	0.508643	0.333469	0.242592
C84	C	0.841977	0.666802	0.575925
N85	N	0.824471	-0.189583	-0.092954
N86	N	1.157804	0.143750	0.240379
N87	N	1.491138	0.477083	0.573713
C88	C	0.866681	-0.227875	-0.135196
C89	C	1.200014	0.105458	0.198138
C90	C	1.533347	0.438792	0.531471
C91	C	0.866692	-0.304520	-0.135194
C92	C	1.200026	0.028813	0.198140
C93	C	1.533359	0.362147	0.531473
C94	C	0.824481	-0.342870	-0.092958
C95	C	1.157815	-0.009537	0.240375
C96	C	1.491148	0.323796	0.573709
C97	C	0.782269	-0.304570	-0.050708
C98	C	1.115602	0.028764	0.282626
C99	C	1.448936	0.362097	0.615959
C100	C	0.782264	-0.227926	-0.050706
C101	C	1.115597	0.105407	0.282628
C102	C	1.448931	0.438740	0.615961
N103	N	0.763333	-0.463231	-0.091244
N104	N	1.096666	-0.129897	0.242090
N105	N	1.429999	0.203436	0.575423
N106	N	0.763339	-0.536039	-0.091250
N107	N	1.096673	-0.202706	0.242084
N108	N	1.430006	0.130628	0.575417
C109	C	0.824495	-0.573793	-0.092961
C110	C	1.157828	-0.240459	0.240373
C111	C	1.491162	0.092874	0.573706
N112	N	0.885645	-0.535988	-0.094679
N113	N	1.218978	-0.202655	0.238654
N114	N	1.552311	0.130679	0.571987
N115	N	0.885637	-0.463173	-0.094677
N116	N	1.218970	-0.129840	0.238656
N117	N	1.552304	0.203493	0.571990
C118	C	0.824482	-0.425977	-0.092955
C119	C	1.157816	-0.092644	0.240378
C120	C	1.491149	0.240689	0.573711
C121	C	0.866721	-0.695191	-0.135202
C122	C	1.200054	-0.361858	0.198131
C123	C	1.533388	-0.028525	0.531464
C124	C	0.866734	-0.771838	-0.135195
C125	C	1.200067	-0.438504	0.198138
C126	C	1.533401	-0.105171	0.531471
C127	C	0.782304	-0.771886	-0.050714
C128	C	1.115637	-0.438553	0.282620
C129	C	1.448971	-0.105219	0.615953
C130	C	0.782298	-0.695241	-0.050717
C131	C	1.115631	-0.361908	0.282617
C132	C	1.448964	-0.028575	0.615950
C133	C	0.824505	-0.656898	-0.092965
C134	C	1.157838	-0.323565	0.240369
C135	C	1.491171	0.009768	0.573702
C136	C	0.952163	0.000134	-0.087460
C137	C	1.285496	0.333467	0.245873
C138	C	1.618829	0.666800	0.579206
C139	C	1.029668	0.000148	-0.088594
C140	C	1.363001	0.333482	0.244739
C141	C	1.696335	0.666815	0.578073
C142	C	0.829982	0.000101	0.034708
C143	C	1.163315	0.333434	0.368041
C144	C	1.496648	0.666768	0.701375
C145	C	0.828841	0.000095	0.112213
C146	C	1.162174	0.333428	0.445546
C147	C	1.495508	0.666761	0.778879
N148	N	0.824523	0.189817	-0.092959
N149	N	1.157857	0.523150	0.240375
N150	N	1.491190	0.856484	0.573708
C151	C	0.819007	0.000134	-0.220626
C152	C	1.152341	0.333468	0.112707
C153	C	1.485674	0.666801	0.446041
C154	C	0.820148	0.000145	-0.298131
C155	C	1.153481	0.333479	0.035203
C156	C	1.486815	0.666812	0.368536
C157	C	0.891933	0.000099	0.157142
C158	C	1.225266	0.333432	0.490475
C159	C	1.558599	0.666765	0.823809
C160	C	0.890861	0.000110	0.229966
C161	C	1.224194	0.333443	0.563299
C162	C	1.557528	0.666777	0.896633
C163	C	0.826694	0.000103	0.257857
C164	C	1.160027	0.333436	0.591190
C165	C	1.493361	0.666770	0.924523
C166	C	0.763594	0.000103	0.212917
C167	C	1.096927	0.333437	0.546251
C168	C	1.430261	0.666770	0.879584
C169	C	0.764668	0.000099	0.140095
C170	C	1.098001	0.333432	0.473428
C171	C	1.431334	0.666766	0.806762
N172	N	0.777640	-0.041341	0.365858
N173	N	1.110973	0.291993	0.699192
N174	N	1.444307	0.625326	1.032525
N175	N	0.776624	-0.041338	0.435037
N176	N	1.109958	0.291995	0.768370
N177	N	1.443291	0.625329	1.101703
C178	C	0.823456	0.000118	0.477265
C179	C	1.156789	0.333451	0.810598
C180	C	1.490122	0.666784	1.143932
N181	N	0.871352	0.041561	0.447703
N182	N	1.204685	0.374895	0.781036
N183	N	1.538018	0.708228	1.114369
N184	N	0.872369	0.041556	0.378518
N185	N	1.205703	0.374889	0.711852
N186	N	1.539036	0.708222	1.045185
C187	C	0.825523	0.000108	0.336819
C188	C	1.158856	0.333442	0.670152
C189	C	1.492190	0.666775	1.003486
C190	C	0.885390	0.000135	0.601159
C191	C	1.218723	0.333468	0.934492
C192	C	1.552056	0.666802	1.267826
C193	C	0.884315	0.000151	0.673984
C194	C	1.217649	0.333485	1.007317
C195	C	1.550982	0.666818	1.340650
C196	C	0.757047	0.000137	0.656933
C197	C	1.090380	0.333470	0.990267
C198	C	1.423714	0.666804	1.323600
C199	C	0.758123	0.000128	0.584110
C200	C	1.091456	0.333462	0.917444
C201	C	1.424790	0.666795	1.250777
C202	C	0.822296	0.000124	0.556228
C203	C	1.155630	0.333457	0.889561
C204	C	1.488963	0.666790	1.222894
H205	H	0.168502	-0.120290	-0.090646
H206	H	0.501835	0.213044	0.242687
H207	H	0.835169	0.546377	0.576021
H208	H	0.480487	0.120527	-0.095267
H209	H	0.813821	0.453860	0.238066
H210	H	1.147154	0.787193	0.571400
H211	H	0.168589	0.120559	-0.090647
H212	H	0.501922	0.453892	0.242686
H213	H	0.835255	0.787226	0.576019
H214	H	0.704801	0.000135	0.679641
H215	H	1.038134	0.333468	1.012975
H216	H	1.371468	0.666802	1.346308
H217	H	0.901111	-0.803013	-0.169592
H218	H	1.234444	-0.469680	0.163742
H219	H	1.567778	-0.136347	0.497075
F220	F	0.911620	-0.345281	-0.180154
F221	F	1.244954	-0.011947	0.153179
F222	F	1.578287	0.321386	0.486513
H223	H	0.747901	-0.335800	-0.016319
H224	H	1.081234	-0.002466	0.317015
H225	H	1.414568	0.330867	0.650348
F226	F	0.737333	-0.187172	-0.005747
F227	F	1.070667	0.146161	0.327586
F228	F	1.404000	0.479494	0.660919
F229	F	0.737386	-0.812696	-0.005756
F230	F	1.070720	-0.479363	0.327577
F231	F	1.404053	-0.146030	0.660910
H232	H	0.935694	0.000158	0.710565
H233	H	1.269028	0.333492	1.043899
H234	H	1.602361	0.666825	1.377232
F235	F	0.958014	0.000115	0.277792
F236	F	1.291348	0.333449	0.611125
F237	F	1.624681	0.666782	0.944459
H238	H	0.706747	0.000121	0.547527
H239	H	1.040080	0.333454	0.880861
H240	H	1.373413	0.666788	1.214194
H241	H	0.901052	-0.196661	-0.169595
H242	H	1.234385	0.136672	0.163739
H243	H	1.567719	0.470006	0.497072
H244	H	0.612597	0.120515	-0.097215
H245	H	0.945930	0.453848	0.236118
H246	H	1.279263	0.787181	0.569452
F247	F	0.911653	-0.654382	-0.180154
F248	F	1.244986	-0.321048	0.153180
F249	F	1.578320	0.012285	0.486513
F250	F	0.471288	-0.136912	-0.095135
F251	F	0.804621	0.196421	0.238198
F252	F	1.137955	0.529755	0.571531
F253	F	0.737360	-0.654487	-0.005768
F254	F	1.070694	-0.321154	0.327566
F255	F	1.404027	0.012180	0.660899
F256	F	0.027281	-0.136872	-0.088560
F257	F	0.360614	0.196461	0.244774
F258	F	0.693947	0.529795	0.578107
F259	F	0.027380	0.137167	-0.088565
F260	F	0.360713	0.470500	0.244769
F261	F	0.694046	0.803833	0.578102
F262	F	0.960232	0.000110	0.127472
F263	F	1.293565	0.333443	0.460805
F264	F	1.626899	0.666776	0.794138
H265	H	0.711349	0.000099	0.235631
H266	H	1.044682	0.333433	0.568964
H267	H	1.378016	0.666766	0.902297
H268	H	0.937644	0.000135	0.578456
H269	H	1.270977	0.333468	0.911789
H270	H	1.604310	0.666801	1.245123
F271	F	0.621611	-0.136932	-0.097369
F272	F	0.954944	0.196401	0.235965
F273	F	1.288278	0.529735	0.569298
F274	F	0.697514	0.000095	0.092276
F275	F	1.030847	0.333429	0.425609
F276	F	1.364180	0.666762	0.758942
