data_functionalizedCrystal
_audit_creation_method	'MofGen! by Chris Wilmer'
_symmetry_space_group_name_H-M	'P1'
_symmetry_Int_Tables_number	1
_symmetry_cell_setting	triclinic
loop_
_symmetry_equiv_pos_as_xyz
  x,y,z
_cell_length_a	10.654546
_cell_length_b	9.730223
_cell_length_c	10.654557
_cell_angle_alpha	90.000425
_cell_angle_beta	95.514314
_cell_angle_gamma	90.001147
loop_
_atom_site_label
_atom_site_type_symbol
_atom_site_fract_x
_atom_site_fract_y
_atom_site_fract_z
O1	O	-1.667841	-0.114314	0.176372
O2	O	-1.302363	-0.114310	0.193182
O3	O	-1.493500	-0.114309	0.002038
O4	O	-1.476704	-0.114315	0.367516
O5	O	-1.493498	0.114271	0.002043
O6	O	-1.302360	0.114270	0.193187
O7	O	-1.667839	0.114266	0.176377
Zn8	Zn	-1.485099	0.150560	0.184783
Zn9	Zn	-1.485102	-0.150604	0.184776
O10	O	-1.476701	0.114265	0.367521
C11	C	-1.255563	-0.000019	0.191952
C12	C	-1.116120	-0.000018	0.188261
C13	C	-1.492264	-0.000021	-0.044757
C14	C	-1.488568	-0.000028	-0.184200
C15	C	-1.714638	-0.000028	0.177608
C16	C	-1.854082	-0.000038	0.181298
N17	N	-1.485106	0.356096	0.184786
C18	C	-1.050626	-0.124623	0.186513
C19	C	-0.919605	-0.124634	0.183035
C20	C	-0.919584	0.124576	0.183051
C21	C	-1.050601	0.124586	0.186537
C22	C	-1.116145	-0.249227	0.188237
C23	C	-1.050651	-0.373842	0.186487
C24	C	-0.919630	-0.373853	0.183009
C25	C	-0.854103	-0.249249	0.181282
N26	N	-1.485105	-0.356140	0.184763
C27	C	-1.569764	0.428023	0.100177
C28	C	-1.569761	0.571906	0.100161
C29	C	-1.400438	0.571923	0.269377
C30	C	-1.400436	0.428043	0.269385
C31	C	-1.654434	0.356076	0.015578
C32	C	-1.739100	0.428003	-0.069037
C33	C	-1.739096	0.571885	-0.069053
C34	C	-1.654428	0.643842	0.015548
C35	C	-1.477938	-0.000026	0.414316
C36	C	-1.481633	-0.000028	0.553759
C37	C	-1.486830	0.124572	0.750296
C38	C	-1.483366	0.124573	0.619273
C39	C	-1.483376	-0.124638	0.619272
C40	C	-1.486848	-0.124637	0.750291
C41	C	-1.488550	0.249181	0.815805
C42	C	-1.486810	0.373791	0.750300
C43	C	-1.483347	0.373792	0.619278
C44	C	-1.481624	0.249182	0.553760
H45	H	-1.222829	-0.249232	0.191066
H46	H	-1.808028	0.369408	-0.137923
Br47	Br	-1.139493	0.293696	0.188919
Br48	Br	-1.139574	-0.542939	0.188850
Br49	Br	-1.489218	-0.293739	0.839197
H50	H	-1.331505	0.630520	0.338256
H51	H	-0.866221	0.226023	0.181643
Br52	Br	-1.285533	0.330424	0.384209
H53	H	-1.488223	0.475243	0.803652
Br54	Br	-1.481004	0.542901	0.530378
H55	H	-0.866307	-0.475321	0.181597
H56	H	-0.747415	-0.249268	0.178465
Br57	Br	-1.654450	0.160807	0.015604
H58	H	-1.478815	0.249193	0.447071
Br59	Br	-1.481038	-0.293739	0.530356
H60	H	-1.654423	0.761001	0.015520
Br61	Br	-1.853982	0.669500	-0.183897
H62	H	-1.491365	0.249195	0.922490
