data_functionalizedCrystal
_audit_creation_method	'MofGen! by Chris Wilmer'
_symmetry_space_group_name_H-M	'P1'
_symmetry_Int_Tables_number	1
_symmetry_cell_setting	triclinic
loop_
_symmetry_equiv_pos_as_xyz
  x,y,z
_cell_length_a	12.837943
_cell_length_b	18.266242
_cell_length_c	12.811415
_cell_angle_alpha	95.435962
_cell_angle_beta	89.411917
_cell_angle_gamma	90.007738
loop_
_atom_site_label
_atom_site_type_symbol
_atom_site_fract_x
_atom_site_fract_y
_atom_site_fract_z
O1	O	1.376641	0.078989	0.272978
O2	O	1.074777	0.078098	0.259494
O3	O	1.233302	0.068446	0.114203
O4	O	1.218116	0.088640	0.418269
O5	O	1.233274	-0.053316	0.114196
O6	O	1.074750	-0.043665	0.259486
O7	O	1.376614	-0.042774	0.272971
Zn8	Zn	1.225677	-0.062552	0.266228
Zn9	Zn	1.225713	0.097876	0.266237
O10	O	1.218089	-0.033122	0.418262
C11	C	1.036123	0.016915	0.254935
C12	C	0.920987	0.016014	0.241349
C13	C	0.680735	0.026851	0.404679
C14	C	0.572554	0.026005	0.391919
C15	C	0.596442	0.013471	0.203068
C16	C	0.704623	0.014317	0.215829
C17	C	0.746765	0.021009	0.316637
C18	C	0.854949	0.021860	0.329397
C19	C	0.878834	0.009320	0.140547
C20	C	0.770653	0.008474	0.127787
N21	N	1.225661	-0.172039	0.266221
C22	C	1.288823	-0.205692	0.336240
C23	C	1.288840	-0.282337	0.336239
C24	C	1.225676	-0.325325	0.266229
C25	C	1.162509	-0.291663	0.196197
C26	C	1.162501	-0.215020	0.196193
N27	N	1.134829	-0.446470	0.254276
N28	N	1.134839	-0.519278	0.254286
C29	C	1.225696	-0.556247	0.266235
N30	N	1.316544	-0.517658	0.278194
N31	N	1.316533	-0.444843	0.278189
C32	C	1.225677	-0.408433	0.266225
C33	C	1.288883	-0.673008	0.336257
C34	C	1.288902	-0.749655	0.336248
C35	C	1.162561	-0.758979	0.196211
C36	C	1.162552	-0.682334	0.196214
C37	C	1.225711	-0.639352	0.266243
C38	C	1.415268	0.018411	0.277530
C39	C	1.530403	0.019316	0.291116
C40	C	1.232436	0.004964	0.075010
C41	C	1.229887	-0.002787	-0.041764
N42	N	1.225738	0.207363	0.266236
C43	C	1.225106	0.115410	-0.261175
C44	C	1.222710	0.108131	-0.370894
C45	C	1.222691	-0.024622	-0.370922
C46	C	1.225087	-0.017344	-0.261203
C47	C	1.226296	0.052675	-0.206334
C48	C	1.228699	0.059953	-0.096613
C49	C	1.228673	-0.072800	-0.096643
C50	C	1.226277	-0.080079	-0.206361
C51	C	1.218954	0.030362	0.457455
C52	C	1.221504	0.038117	0.574228
H53	H	0.736326	0.003018	0.045711
H54	H	1.340344	-0.777054	0.393264
C55	C	1.229985	-0.141813	-0.036308
N56	N	1.230976	-0.193792	0.009137
C57	C	0.499924	0.032432	0.488772
N58	N	0.445218	0.037273	0.561727
C59	C	0.951477	0.002895	0.043695
N60	N	1.006193	-0.001943	-0.029252
C61	C	1.093055	-0.645313	0.119197
N62	N	1.040708	-0.617429	0.061183
H63	H	1.225289	-0.137086	-0.251051
C64	C	0.550066	0.006103	0.092187
N65	N	0.515134	0.000552	0.008670
C66	C	1.358327	-0.319364	0.413269
N67	N	1.410664	-0.347251	0.471288
H68	H	1.340257	-0.170702	0.393259
H69	H	1.111081	-0.326669	0.139193
H70	H	1.111065	-0.187620	0.139173
H71	H	1.111132	-0.793979	0.139206
H72	H	1.340312	-0.638011	0.393277
H73	H	1.226099	0.172422	-0.216500
C74	C	1.230025	0.136974	-0.036258
N75	N	1.231020	0.194989	0.009198
C76	C	1.221426	0.177145	-0.431217
N77	N	1.220467	0.229129	-0.476652
C78	C	1.221339	-0.101636	-0.431297
N79	N	1.220315	-0.159644	-0.476772
C80	C	0.901303	0.029217	0.440288
N81	N	0.936214	0.034755	0.523814
C82	C	0.727094	0.034217	0.515568
N83	N	0.762010	0.039764	0.599092
