data_functionalizedCrystal
_audit_creation_method	'MofGen! by Chris Wilmer'
_symmetry_space_group_name_H-M	'P1'
_symmetry_Int_Tables_number	1
_symmetry_cell_setting	triclinic
loop_
_symmetry_equiv_pos_as_xyz
  x,y,z
_cell_length_a	14.519731
_cell_length_b	12.996460
_cell_length_c	16.992695
_cell_angle_alpha	89.993670
_cell_angle_beta	92.821462
_cell_angle_gamma	90.005673
loop_
_atom_site_label
_atom_site_type_symbol
_atom_site_fract_x
_atom_site_fract_y
_atom_site_fract_z
O1	O	1.231239	0.085570	-0.102876
O2	O	1.481239	0.335570	0.147124
O3	O	1.731239	0.585570	0.397124
O4	O	1.981239	0.835570	0.647124
O5	O	0.963632	0.085572	-0.114964
O6	O	1.213632	0.335572	0.135036
O7	O	1.463632	0.585572	0.385036
O8	O	1.713632	0.835572	0.635036
O9	O	1.096363	0.085563	0.005224
O10	O	1.346363	0.335563	0.255224
O11	O	1.596363	0.585563	0.505224
O12	O	1.846363	0.835563	0.755224
O13	O	1.098508	0.085579	-0.223065
O14	O	1.348508	0.335579	0.026935
O15	O	1.598508	0.585579	0.276935
O16	O	1.848508	0.835579	0.526935
O17	O	1.096348	-0.085571	0.005230
O18	O	1.346348	0.164429	0.255230
O19	O	1.596348	0.414429	0.505230
O20	O	1.846348	0.664429	0.755230
O21	O	0.963617	-0.085562	-0.114958
O22	O	1.213617	0.164438	0.135042
O23	O	1.463617	0.414438	0.385042
O24	O	1.713617	0.664438	0.635042
O25	O	1.231224	-0.085564	-0.102870
O26	O	1.481224	0.164436	0.147130
O27	O	1.731224	0.414436	0.397130
O28	O	1.981224	0.664436	0.647130
Cu29	Cu	1.097419	-0.101189	-0.108913
Cu30	Cu	1.347419	0.148811	0.141087
Cu31	Cu	1.597419	0.398811	0.391087
Cu32	Cu	1.847419	0.648811	0.641087
Cu33	Cu	1.097437	0.101197	-0.108921
Cu34	Cu	1.347437	0.351197	0.141079
Cu35	Cu	1.597437	0.601197	0.391079
Cu36	Cu	1.847437	0.851197	0.641079
O37	O	1.098493	-0.085555	-0.223058
O38	O	1.348493	0.164445	0.026942
O39	O	1.598493	0.414445	0.276942
O40	O	1.848493	0.664445	0.526942
C41	C	0.929225	0.000005	-0.114395
C42	C	1.179225	0.250005	0.135605
C43	C	1.429225	0.500005	0.385605
C44	C	1.679225	0.750005	0.635605
C45	C	0.826723	0.000006	-0.112697
C46	C	1.076723	0.250006	0.137303
C47	C	1.326723	0.500006	0.387303
C48	C	1.576723	0.750006	0.637303
C49	C	0.743479	0.000010	-0.111318
C50	C	0.993479	0.250010	0.138682
C51	C	1.243479	0.500010	0.388682
C52	C	1.493479	0.750010	0.638682
C53	C	0.639047	0.000010	-0.109595
C54	C	0.889047	0.250010	0.140405
C55	C	1.139047	0.500010	0.390405
C56	C	1.389047	0.750010	0.640405
C57	C	0.555810	0.000010	-0.108227
C58	C	0.805810	0.250010	0.141773
C59	C	1.055810	0.500010	0.391773
C60	C	1.305810	0.750010	0.641773
C61	C	0.451371	0.000012	-0.106504
C62	C	0.701371	0.250012	0.143496
C63	C	0.951371	0.500012	0.393496
C64	C	1.201371	0.750012	0.643496
N65	N	1.097413	-0.243536	-0.108907
N66	N	1.347413	0.006464	0.141093
N67	N	1.597413	0.256464	0.391093
N68	N	1.847413	0.506464	0.641093
C69	C	1.097436	-0.663350	-0.108922
C70	C	1.347436	-0.413350	0.141078
C71	C	1.597436	-0.163350	0.391078
C72	C	1.847436	0.086650	0.641078
C73	C	1.097427	-0.546545	-0.108920
C74	C	1.347427	-0.296545	0.141080
C75	C	1.597427	-0.046545	0.391080
C76	C	1.847427	0.203455	0.641080
C77	C	1.097425	-0.453447	-0.108915
C78	C	1.347425	-0.203447	0.141085
C79	C	1.597425	0.046553	0.391085
C80	C	1.847425	0.296553	0.641085
C81	C	1.097415	-0.336634	-0.108912
C82	C	1.347415	-0.086634	0.141088
C83	C	1.597415	0.163366	0.391088
C84	C	1.847415	0.413366	0.641088
C85	C	1.265632	0.000005	-0.103439
C86	C	1.515632	0.250005	0.146561
C87	C	1.765632	0.500005	0.396561
C88	C	2.015632	0.750005	0.646561
C89	C	1.368134	0.000012	-0.105137
C90	C	1.618134	0.250012	0.144863
C91	C	1.868134	0.500012	0.394863
C92	C	2.118134	0.750012	0.644863
C93	C	1.093595	-0.000004	0.034444
C94	C	1.343595	0.249996	0.284444
C95	C	1.593595	0.499996	0.534444
C96	C	1.843595	0.749996	0.784444
C97	C	1.085360	-0.000003	0.121500
C98	C	1.335360	0.249997	0.371500
C99	C	1.585360	0.499997	0.621500
C100	C	1.835360	0.749997	0.871500
N101	N	1.097450	0.243544	-0.108921
N102	N	1.347450	0.493544	0.141079
N103	N	1.597450	0.743544	0.391079
N104	N	1.847450	0.993544	0.641079
C105	C	1.101261	0.000015	-0.252278
C106	C	1.351261	0.250015	-0.002278
C107	C	1.601261	0.500015	0.247722
C108	C	1.851261	0.750015	0.497722
C109	C	1.109496	0.000021	-0.339334
C110	C	1.359496	0.250021	-0.089334
C111	C	1.609496	0.500021	0.160666
C112	C	1.859496	0.750021	0.410666
C113	C	1.164819	-0.000005	0.171624
C114	C	1.414819	0.249995	0.421624
C115	C	1.664819	0.499995	0.671624
C116	C	1.914819	0.749995	0.921624
C117	C	1.157076	0.000005	0.253422
C118	C	1.407076	0.250005	0.503422
C119	C	1.657076	0.500005	0.753422
C120	C	1.907076	0.750005	1.003422
C121	C	1.069872	0.000009	0.285094
C122	C	1.319872	0.250009	0.535094
C123	C	1.569872	0.500009	0.785094
C124	C	1.819872	0.750009	1.035094
C125	C	0.990407	0.000013	0.234964
C126	C	1.240407	0.250013	0.484964
C127	C	1.490407	0.500013	0.734964
C128	C	1.740407	0.750013	0.984964
C129	C	0.998151	0.000011	0.153168
C130	C	1.248151	0.250011	0.403168
C131	C	1.498151	0.500011	0.653168
C132	C	1.748151	0.750011	0.903168
C133	C	1.037775	0.000023	0.528739
C134	C	1.287775	0.250023	0.778739
C135	C	1.537775	0.500023	1.028739
C136	C	1.787775	0.750023	1.278739
C137	C	1.030037	0.000023	0.610542
C138	C	1.280037	0.250023	0.860542
C139	C	1.530037	0.500023	1.110542
C140	C	1.780037	0.750023	1.360542
C141	C	1.196707	0.000016	0.628994
C142	C	1.446707	0.250016	0.878994
C143	C	1.696707	0.500016	1.128994
C144	C	1.946707	0.750016	1.378994
C145	C	1.204443	0.000007	0.547195
C146	C	1.454443	0.250007	0.797195
C147	C	1.704443	0.500007	1.047195
C148	C	1.954443	0.750007	1.297195
C149	C	1.124978	0.000017	0.497072
C150	C	1.374978	0.250017	0.747072
C151	C	1.624978	0.500017	0.997072
C152	C	1.874978	0.750017	1.247072
N153	N	1.061955	0.000016	0.368705
N154	N	1.311955	0.250016	0.618705
N155	N	1.561955	0.500016	0.868705
N156	N	1.811955	0.750016	1.118705
N157	N	1.132896	0.000018	0.413463
N158	N	1.382896	0.250018	0.663463
N159	N	1.632896	0.500018	0.913463
N160	N	1.882896	0.750018	1.163463
H161	H	1.235830	-0.000015	0.145843
H162	H	1.485830	0.249985	0.395843
H163	H	1.735830	0.499985	0.645843
H164	H	1.985830	0.749985	0.895843
H165	H	1.221781	0.000001	0.294230
H166	H	1.471781	0.250001	0.544230
H167	H	1.721781	0.500001	0.794230
H168	H	1.971781	0.750001	1.044230
H169	H	1.275454	0.000004	0.521414
H170	H	1.525454	0.250004	0.771414
H171	H	1.775454	0.500004	1.021414
H172	H	2.025454	0.750004	1.271414
H173	H	1.261403	0.000009	0.669813
H174	H	1.511403	0.250009	0.919813
H175	H	1.761403	0.500009	1.169813
H176	H	2.011403	0.750009	1.419813
H177	H	0.973068	0.000031	0.487938
H178	H	1.223068	0.250031	0.737938
H179	H	1.473068	0.500031	0.987938
H180	H	1.723068	0.750031	1.237938
H181	H	0.959022	0.000009	0.636326
H182	H	1.209022	0.250009	0.886326
H183	H	1.459022	0.500009	1.136326
H184	H	1.709022	0.750009	1.386326
O185	O	0.905767	-0.000028	0.265858
O186	O	1.155767	0.249972	0.515858
O187	O	1.405767	0.499972	0.765858
O188	O	1.655767	0.749972	1.015858
C189	C	0.915968	-0.000004	0.348802
C190	C	1.165968	0.249996	0.598802
C191	C	1.415968	0.499996	0.848802
C192	C	1.665968	0.749996	1.098802
H193	H	0.986525	-0.032404	0.367908
H194	H	1.236525	0.217596	0.617908
H195	H	1.486525	0.467596	0.867908
H196	H	1.736525	0.717596	1.117908
H197	H	0.909828	0.082097	0.371571
H198	H	1.159828	0.332097	0.621571
H199	H	1.409828	0.582097	0.871571
H200	H	1.659828	0.832097	1.121571
C201	C	0.753435	-0.027322	0.359375
C202	C	1.003435	0.222678	0.609375
C203	C	1.253435	0.472678	0.859375
C204	C	1.503435	0.722678	1.109375
C205	C	0.840092	-0.067124	0.382841
C206	C	1.090092	0.182876	0.632841
C207	C	1.340092	0.432876	0.882841
C208	C	1.590092	0.682876	1.132841
H209	H	0.706629	-0.068720	0.380372
H210	H	0.956629	0.181280	0.630372
H211	H	1.206629	0.431280	0.880372
H212	H	1.456629	0.681280	1.130372
H213	H	0.746561	-0.027334	0.303494
H214	H	0.996561	0.222666	0.553494
H215	H	1.246561	0.472666	0.803494
H216	H	1.496561	0.722666	1.053494
H217	H	0.748331	0.041095	0.378350
H218	H	0.998331	0.291095	0.628350
H219	H	1.248331	0.541095	0.878350
H220	H	1.498331	0.791095	1.128350
H221	H	0.845199	-0.135535	0.363857
H222	H	1.095199	0.114465	0.613857
H223	H	1.345199	0.364465	0.863857
H224	H	1.595199	0.614465	1.113857
H225	H	0.846965	-0.067125	0.438719
H226	H	1.096965	0.182875	0.688719
H227	H	1.346965	0.432875	0.938719
H228	H	1.596965	0.682875	1.188719
O229	O	0.920870	-0.000033	0.104587
O230	O	1.170870	0.249967	0.354587
O231	O	1.420870	0.499967	0.604587
O232	O	1.670870	0.749967	0.854587
C233	C	0.842241	-0.000003	0.150079
C234	C	1.092241	0.249997	0.400079
C235	C	1.342241	0.499997	0.650079
C236	C	1.592241	0.749997	0.900079
H237	H	0.861145	-0.032406	0.211094
H238	H	1.111145	0.217594	0.461094
H239	H	1.361145	0.467594	0.711094
H240	H	1.611145	0.717594	0.961094
H241	H	0.815807	0.082101	0.155936
H242	H	1.065807	0.332101	0.405936
H243	H	1.315807	0.582101	0.655936
H244	H	1.565807	0.832101	0.905936
C245	C	0.743303	-0.027309	0.034501
C246	C	0.993303	0.222691	0.284501
C247	C	1.243303	0.472691	0.534501
C248	C	1.493303	0.722691	0.784501
C249	C	0.766520	-0.067115	0.109438
C250	C	1.016520	0.182885	0.359438
C251	C	1.266520	0.432885	0.609438
C252	C	1.516520	0.682885	0.859438
H253	H	0.696592	-0.068702	0.009430
H254	H	0.946592	0.181298	0.259430
H255	H	1.196592	0.431298	0.509430
H256	H	1.446592	0.681298	0.759430
H257	H	0.796276	-0.027325	0.003850
H258	H	1.046276	0.222675	0.253850
H259	H	1.296276	0.472675	0.503850
H260	H	1.546276	0.722675	0.753850
H261	H	0.721280	0.041110	0.039392
H262	H	0.971280	0.291110	0.289392
H263	H	1.221280	0.541110	0.539392
H264	H	1.471280	0.791110	0.789392
H265	H	0.788553	-0.135528	0.104545
H266	H	1.038553	0.114472	0.354545
H267	H	1.288553	0.364472	0.604545
H268	H	1.538553	0.614472	0.854545
H269	H	0.713548	-0.067112	0.140086
H270	H	0.963548	0.182888	0.390086
H271	H	1.213548	0.432888	0.640086
H272	H	1.463548	0.682888	0.890086
