data_functionalizedCrystal
_audit_creation_method	'MofGen! by Chris Wilmer'
_symmetry_space_group_name_H-M	'P1'
_symmetry_Int_Tables_number	1
_symmetry_cell_setting	triclinic
loop_
_symmetry_equiv_pos_as_xyz
  x,y,z
_cell_length_a	12.759401
_cell_length_b	16.120484
_cell_length_c	12.759393
_cell_angle_alpha	92.862621
_cell_angle_beta	89.981503
_cell_angle_gamma	92.925686
loop_
_atom_site_label
_atom_site_type_symbol
_atom_site_fract_x
_atom_site_fract_y
_atom_site_fract_z
Zn1	Zn	1.584960	-0.331850	-0.615176
Zn2	Zn	2.084960	0.168150	-0.115176
Zn3	Zn	1.575915	-0.471288	-0.448389
Zn4	Zn	2.075915	0.028712	0.051611
Zn5	Zn	1.409263	-0.331894	-0.439515
Zn6	Zn	1.909263	0.168106	0.060485
Zn7	Zn	1.400312	-0.471223	-0.624023
Zn8	Zn	1.900312	0.028777	-0.124023
O9	O	1.492612	-0.401564	-0.531776
O10	O	1.992612	0.098436	-0.031776
O11	O	1.730781	-0.350355	-0.593063
O12	O	2.230781	0.149645	-0.093063
O13	O	1.553768	-0.452843	-0.300194
O14	O	2.053768	0.047157	0.199806
O15	O	1.440101	-0.215223	-0.455401
O16	O	1.940101	0.284777	0.044599
O17	O	1.724135	-0.452800	-0.470525
O18	O	2.224135	0.047200	0.029475
O19	O	1.569185	-0.215190	-0.584458
O20	O	2.069185	0.284810	-0.084458
O21	O	1.431330	-0.350430	-0.293674
O22	O	1.931330	0.149570	0.206326
O23	O	1.261055	-0.350368	-0.463979
O24	O	1.761055	0.149632	0.036021
O25	O	1.424845	-0.452690	-0.769868
O26	O	1.924845	0.047310	-0.269868
O27	O	1.254479	-0.452733	-0.599536
O28	O	1.754479	0.047267	-0.099536
O29	O	1.560506	-0.350292	-0.763368
O30	O	2.060506	0.149708	-0.263368
O31	O	1.545089	-0.587945	-0.479104
O32	O	2.045089	-0.087945	0.020896
O33	O	1.416074	-0.587897	-0.608141
O34	O	1.916074	-0.087897	-0.108141
C35	C	1.219646	-0.401549	-0.531755
C36	C	1.719646	0.098451	-0.031755
C37	C	1.102868	-0.401562	-0.531773
C38	C	1.602868	0.098438	-0.031773
C39	C	1.044555	-0.454820	-0.467870
C40	C	1.544555	0.045180	0.032130
C41	C	0.934830	-0.454834	-0.467889
C42	C	1.434830	0.045166	0.032111
C43	C	0.941742	-0.348326	-0.595716
C44	C	1.441742	0.151674	-0.095716
C45	C	1.051464	-0.348317	-0.595702
C46	C	1.551464	0.151683	-0.095702
C47	C	1.095959	-0.508065	-0.403941
C48	C	1.595959	-0.008065	0.096059
C49	C	1.037645	-0.561326	-0.340032
C50	C	1.537645	-0.061326	0.159968
C51	C	0.927920	-0.561341	-0.340052
C52	C	1.427920	-0.061341	0.159948
C53	C	0.876509	-0.508094	-0.403979
C54	C	1.376509	-0.008094	0.096021
C55	C	1.478657	-0.618171	-0.545568
C56	C	1.978657	-0.118171	-0.045568
C57	C	1.472783	-0.710836	-0.551504
C58	C	1.972783	-0.210836	-0.051504
C59	C	1.462065	-0.880497	-0.562362
C60	C	1.962065	-0.380497	-0.062362
C61	C	1.523347	-0.921790	-0.501207
C62	C	2.023347	-0.421790	-0.001207
C63	C	1.517384	-1.016195	-0.507249
C64	C	2.017384	-0.516195	-0.007249
C65	C	1.468028	-0.786083	-0.556322
C66	C	1.968028	-0.286083	-0.056322
C67	C	1.766644	-0.401580	-0.531797
C68	C	2.266644	0.098420	-0.031797
C69	C	1.883421	-0.401586	-0.531806
C70	C	2.383421	0.098414	-0.031806
C71	C	1.492686	-0.401479	-0.805804
C72	C	1.992686	0.098521	-0.305804
C73	C	1.492717	-0.401443	-0.922578
C74	C	1.992717	0.098557	-0.422578
C75	C	1.506650	-0.184111	-0.517953
C76	C	2.006650	0.315889	-0.017953
C77	C	1.512632	-0.091445	-0.512062
C78	C	2.012632	0.408555	-0.012062
C79	C	1.428993	-0.348107	-0.974051
C80	C	1.928993	0.151893	-0.474051
C81	C	1.429026	-0.348082	-1.083774
C82	C	1.929026	0.151918	-0.583774
C83	C	1.556518	-0.454731	-1.090541
C84	C	2.056518	0.045269	-0.590541
C85	C	1.556478	-0.454760	-0.980821
C86	C	2.056478	0.045240	-0.480821
C87	C	1.365232	-0.294790	-0.915808
C88	C	1.865232	0.205210	-0.415808
C89	C	1.301503	-0.241449	-0.967281
C90	C	1.801503	0.258551	-0.467281
C91	C	1.301536	-0.241424	-1.077003
C92	C	1.801536	0.258576	-0.577003
C93	C	1.365299	-0.294740	-1.135254
C94	C	1.865299	0.205260	-0.635254
C95	C	1.492603	-0.401588	-0.258810
C96	C	1.992603	0.098412	0.241190
C97	C	1.492790	-0.401389	-0.142021
C98	C	1.992790	0.098611	0.357979
H99	H	1.098945	-0.304948	-0.647734
H100	H	1.598945	0.195052	-0.147734
N101	N	1.386636	-0.927576	-0.637717
N102	N	1.886636	-0.427576	-0.137717
H103	H	1.393016	-0.989319	-0.631399
H104	H	1.893016	-0.489319	-0.131399
H105	H	1.312548	-0.912474	-0.620342
H106	H	1.812548	-0.412474	-0.120342
N107	N	1.232803	-0.183899	-1.132525
N108	N	1.732803	0.316101	-0.632525
H109	H	1.181940	-0.217765	-1.180195
H110	H	1.681940	0.282235	-0.680195
H111	H	1.192477	-0.150142	-1.078912
H112	H	1.692477	0.349858	-0.578912
H113	H	1.365318	-0.294718	-1.224597
H114	H	1.865318	0.205282	-0.724597
H115	H	0.787163	-0.508116	-0.403997
H116	H	1.287163	-0.008116	0.096003
H117	H	1.608383	-0.498179	-0.938911
H118	H	2.108383	0.001821	-0.438911
H119	H	1.365200	-0.294803	-0.826466
H120	H	1.865200	0.205197	-0.326466
N121	N	0.886305	-0.290891	-0.664658
N122	N	1.386305	0.209109	-0.164658
H123	H	0.838617	-0.324819	-0.715441
H124	H	1.338617	0.175181	-0.215441
H125	H	0.843312	-0.252230	-0.619510
H126	H	1.343312	0.247770	-0.119510
N127	N	1.214304	-0.508045	-0.403916
N128	N	1.714304	-0.008045	0.096084
H129	H	1.238022	-0.549855	-0.353722
H130	H	1.738022	-0.049855	0.146278
H131	H	1.239699	-0.523412	-0.476964
H132	H	1.739699	-0.023412	0.023036
H133	H	1.608432	-0.498137	-1.137977
H134	H	2.108432	0.001863	-0.637977
H135	H	1.580290	-0.886241	-0.444313
H136	H	2.080290	-0.386241	0.055687
N137	N	1.093088	-0.618759	-0.271092
N138	N	1.593088	-0.118759	0.228908
H139	H	1.171446	-0.610669	-0.280773
H140	H	1.671446	-0.110669	0.219227
H141	H	1.074709	-0.605714	-0.195258
H142	H	1.574709	-0.105714	0.304742
N143	N	1.232724	-0.183954	-0.904463
N144	N	1.732724	0.316046	-0.404463
H145	H	1.242372	-0.192061	-0.827144
H146	H	1.742372	0.307939	-0.327144
H147	H	1.252927	-0.124409	-0.919865
H148	H	1.752927	0.375591	-0.419865
H149	H	0.880444	-0.604714	-0.288022
H150	H	1.380444	-0.104714	0.211978
