data_functionalizedCrystal
_audit_creation_method	'MofGen! by Chris Wilmer'
_symmetry_space_group_name_H-M	'P1'
_symmetry_Int_Tables_number	1
_symmetry_cell_setting	triclinic
loop_
_symmetry_equiv_pos_as_xyz
  x,y,z
_cell_length_a	18.101398
_cell_length_b	19.805405
_cell_length_c	19.805399
_cell_angle_alpha	89.970699
_cell_angle_beta	90.023953
_cell_angle_gamma	89.978323
loop_
_atom_site_label
_atom_site_type_symbol
_atom_site_fract_x
_atom_site_fract_y
_atom_site_fract_z
Zn1	Zn	1.132142	0.269564	0.382791
Zn2	Zn	1.132049	0.382753	0.269599
Zn3	Zn	1.008302	0.269574	0.269607
Zn4	Zn	1.008262	0.382707	0.382737
O5	O	1.070189	0.326149	0.326183
O6	O	1.235763	0.284594	0.367795
O7	O	1.115612	0.367762	0.174883
O8	O	1.024786	0.174856	0.284646
O9	O	1.235695	0.367753	0.284633
O10	O	1.115770	0.174849	0.367802
O11	O	1.024695	0.284610	0.174889
O12	O	0.904664	0.284566	0.284594
O13	O	1.024718	0.367676	0.477461
O14	O	0.904635	0.367685	0.367711
O15	O	1.115732	0.284550	0.477500
O16	O	1.115573	0.477463	0.284581
O17	O	1.024627	0.477430	0.367703
C18	C	0.877778	0.326122	0.326148
C19	C	0.795464	0.326127	0.326149
C20	C	1.070106	0.502006	0.326151
C21	C	1.070138	0.577238	0.326159
C22	C	1.070231	0.326107	0.502726
C23	C	1.070248	0.326089	0.577958
C24	C	0.496373	0.326169	0.326206
C25	C	0.527692	0.273611	0.274166
C26	C	0.613311	0.273752	0.273944
C27	C	0.644756	0.326147	0.326178
C28	C	0.613644	0.397446	0.306685
C29	C	0.527999	0.397154	0.306323
C30	C	0.527986	0.308047	0.397861
C31	C	0.613637	0.306459	0.397470
C32	C	0.728615	0.326139	0.326163
C33	C	0.412514	0.326181	0.326219
C34	C	1.263351	0.326178	0.326219
C35	C	1.345665	0.326190	0.326234
C36	C	1.070293	0.149607	0.326231
C37	C	1.070337	0.074375	0.326251
C38	C	1.117539	0.612577	0.282923
C39	C	1.117571	0.683265	0.282938
C40	C	1.070196	0.718613	0.326186
C41	C	1.022793	0.683269	0.369427
C42	C	1.022766	0.612582	0.369415
C43	C	1.022902	0.968342	0.369477
C44	C	1.022931	1.039034	0.369485
C45	C	1.117707	1.039025	0.283000
C46	C	1.117680	0.968338	0.282988
C47	C	1.070280	0.933000	0.326231
C48	C	1.070247	0.856352	0.326215
C49	C	1.070225	0.795260	0.326199
C50	C	1.070190	0.326143	0.150327
C51	C	1.070316	0.325971	0.075096
C52	C	1.117640	0.282803	0.613324
C53	C	1.117648	0.282783	0.684012
C54	C	1.070267	0.326053	0.719334
C55	C	1.022869	0.369341	0.683963
C56	C	1.022858	0.369357	0.613276
C57	C	1.022911	0.369278	0.969037
C58	C	1.022927	0.369260	1.039729
C59	C	1.117701	0.282705	1.039773
C60	C	1.117690	0.282720	0.969086
C61	C	1.070290	0.326005	0.933721
C62	C	1.070281	0.326025	0.857073
C63	C	1.070279	0.326037	0.795981
H64	H	0.507117	0.220578	0.286251
H65	H	1.156306	1.067806	0.247792
H66	H	0.634012	0.437655	0.343401
H67	H	0.984168	0.583810	0.404624
H68	H	1.156226	0.247570	0.584570
N69	N	1.166063	0.238563	0.720127
N70	N	1.208368	0.199937	0.688582
H71	H	1.242563	0.168704	0.714087
N72	N	0.501991	0.447939	0.351793
N73	N	0.462373	0.431861	0.400909
H74	H	0.444007	0.467729	0.433020
H75	H	1.156275	0.247488	0.940331
H76	H	1.156293	0.247458	1.068575
H77	H	0.984340	0.404497	1.068485
H78	H	0.984288	0.404570	0.712727
N79	N	1.165987	0.719378	0.238782
N80	N	1.213177	0.758774	0.262650
H81	H	1.247373	0.784281	0.231465
H82	H	0.984259	0.404598	0.584482
N83	N	0.974389	0.719364	0.413603
N84	N	0.932067	0.687800	0.452201
H85	H	0.897877	0.713290	0.483399
H86	H	0.984326	0.404533	0.940251
H87	H	0.635045	0.341950	0.438321
N88	N	0.502605	0.356076	0.446507
N89	N	0.517998	0.417217	0.439671
H90	H	0.500075	0.451141	0.474024
N91	N	1.165920	0.576473	0.238734
N92	N	1.161049	0.584416	0.176275
H93	H	1.195220	0.558920	0.145065
N94	N	0.639698	0.207423	0.289263
N95	N	0.623186	0.180226	0.344185
H96	H	0.641815	0.133376	0.354998
N97	N	0.500647	0.288467	0.207950
N98	N	0.458407	0.337594	0.198919
H99	H	0.439305	0.348088	0.152155
H100	H	0.984354	1.067813	0.404708
N101	N	0.638966	0.288781	0.207334
N102	N	0.593618	0.299204	0.160867
H103	H	0.611736	0.309821	0.113821
N104	N	1.166063	0.932222	0.238811
N105	N	1.166026	0.869109	0.238802
H106	H	1.200195	0.843601	0.207600
H107	H	0.635061	0.413081	0.254867
N108	N	0.502903	0.416437	0.240607
N109	N	0.548641	0.430014	0.195330
H110	H	0.530921	0.443632	0.148916
N111	N	0.500909	0.243962	0.420090
N112	N	0.457978	0.210865	0.383386
H113	H	0.438853	0.165603	0.399078
N114	N	0.974491	0.932257	0.413657
N115	N	0.979371	0.940118	0.476117
H116	H	0.945179	0.914632	0.507324
N117	N	0.639150	0.240636	0.415901
N118	N	0.680103	0.208307	0.376715
H119	H	0.698127	0.161819	0.389730
