data_functionalizedCrystal
_audit_creation_method	'MofGen! by Chris Wilmer'
_symmetry_space_group_name_H-M	'P1'
_symmetry_Int_Tables_number	1
_symmetry_cell_setting	triclinic
loop_
_symmetry_equiv_pos_as_xyz
  x,y,z
_cell_length_a	16.120484
_cell_length_b	11.169417
_cell_length_c	11.169409
_cell_angle_alpha	89.980176
_cell_angle_beta	87.139270
_cell_angle_gamma	87.073731
loop_
_atom_site_label
_atom_site_type_symbol
_atom_site_fract_x
_atom_site_fract_y
_atom_site_fract_z
Zn1	Zn	-0.331818	-1.810616	0.702705
Zn2	Zn	-0.471261	-1.800274	0.512176
Zn3	Zn	-0.331869	-1.609898	0.502043
Zn4	Zn	-0.471193	-1.599683	0.712816
O5	O	-0.401535	-1.705118	0.607435
O6	O	-0.350323	-1.977193	0.677440
O7	O	-0.452820	-1.774967	0.342886
O8	O	-0.215197	-1.645127	0.520189
O9	O	-0.452771	-1.969595	0.537459
O10	O	-0.215160	-1.792593	0.667615
O11	O	-0.350409	-1.635099	0.335441
O12	O	-0.350344	-1.440594	0.529994
O13	O	-0.452655	-1.627717	0.879421
O14	O	-0.452705	-1.433089	0.684847
O15	O	-0.350257	-1.782688	0.871993
O16	O	-0.587917	-1.765062	0.547264
O17	O	-0.587867	-1.617688	0.694673
C18	C	-0.401523	-1.393294	0.607419
C19	C	-0.401537	-1.259893	0.607442
C20	C	-0.618142	-1.689177	0.623191
C21	C	-0.710808	-1.682467	0.629972
C22	C	-0.401443	-1.705217	0.920471
C23	C	-0.401403	-1.705259	1.053868
C24	C	-0.880468	-1.670224	0.642376
C25	C	-0.921762	-1.740226	0.572514
C26	C	-1.016167	-1.733414	0.579416
C27	C	-0.786055	-1.677035	0.635476
C28	C	-0.184083	-1.721153	0.591644
C29	C	-0.091417	-1.727987	0.584915
C30	C	-0.401549	-2.018159	0.607452
C31	C	-0.401554	-2.151558	0.607460
C32	C	-0.401568	-1.705093	0.295613
C33	C	-0.401372	-1.705300	0.162199
H34	H	-0.916013	-1.605182	0.707363
H35	H	-0.886215	-1.805272	0.507520
