data_functionalizedCrystal
_audit_creation_method	'MofGen! by Chris Wilmer'
_symmetry_space_group_name_H-M	'P1'
_symmetry_Int_Tables_number	1
_symmetry_cell_setting	triclinic
loop_
_symmetry_equiv_pos_as_xyz
  x,y,z
_cell_length_a	25.639243
_cell_length_b	25.639240
_cell_length_c	16.959447
_cell_angle_alpha	90.028058
_cell_angle_beta	90.018010
_cell_angle_gamma	90.034783
loop_
_atom_site_label
_atom_site_type_symbol
_atom_site_fract_x
_atom_site_fract_y
_atom_site_fract_z
Zn1	Zn	0.799260	-0.208102	0.446999
Zn2	Zn	0.799190	-0.295543	0.314826
Zn3	Zn	0.711833	-0.208128	0.314828
Zn4	Zn	0.711791	-0.295513	0.446956
O5	O	0.755519	-0.251821	0.380902
O6	O	0.872416	-0.219704	0.429483
O7	O	0.787590	-0.283970	0.204215
O8	O	0.723477	-0.134959	0.332380
O9	O	0.872365	-0.283946	0.332376
O10	O	0.787709	-0.134941	0.429485
O11	O	0.723409	-0.219747	0.204217
O12	O	0.638662	-0.219717	0.332338
O13	O	0.723406	-0.283894	0.557572
O14	O	0.638632	-0.283919	0.429411
O15	O	0.787669	-0.219674	0.557604
O16	O	0.787550	-0.368704	0.332334
O17	O	0.723338	-0.368682	0.429409
C18	C	0.619676	-0.251818	0.380871
C19	C	0.561562	-0.251829	0.380876
C20	C	0.201220	-0.218423	0.431550
C21	C	0.146616	-0.218423	0.431555
O22	O	0.118397	-0.190010	0.474601
N23	N	0.119279	-0.251820	0.380924
C24	C	0.146550	-0.285216	0.330279
O25	O	0.118285	-0.313623	0.287213
C26	C	0.201154	-0.285214	0.330270
C27	C	0.228487	-0.251818	0.380911
C28	C	0.228553	-0.185030	0.482185
C29	C	0.283154	-0.185031	0.482181
C30	C	0.310421	-0.218426	0.431542
C31	C	0.283088	-0.251819	0.380906
C32	C	0.228424	-0.318607	0.279622
C33	C	0.283031	-0.318601	0.279618
C34	C	0.310364	-0.285205	0.330258
C35	C	0.364955	-0.285215	0.330263
N36	N	0.392292	-0.251818	0.380894
C37	C	0.365024	-0.218423	0.431534
C38	C	0.031880	-0.285218	0.330299
C39	C	-0.022722	-0.285224	0.330311
C40	C	-0.022654	-0.218430	0.431586
C41	C	0.031950	-0.218427	0.431578
C42	C	0.059216	-0.251821	0.380930
C43	C	0.479689	-0.218429	0.431522
C44	C	0.534295	-0.218434	0.431515
C45	C	0.534221	-0.285226	0.330237
C46	C	0.479621	-0.285223	0.330246
C47	C	0.452356	-0.251820	0.380891
O48	O	0.393209	-0.313612	0.287237
O49	O	0.393296	-0.190016	0.474585
C50	C	0.755446	-0.387664	0.380884
C51	C	0.755463	-0.445778	0.380902
C52	C	0.788961	-0.696911	0.431517
C53	C	0.788946	-0.642306	0.431511
O54	O	0.817367	-0.614018	0.474518
N55	N	0.755520	-0.615052	0.380912
C56	C	0.722113	-0.642405	0.330311
O57	O	0.693681	-0.614209	0.287272
C58	C	0.722131	-0.697008	0.330314
C59	C	0.755555	-0.724260	0.380921
C60	C	0.822382	-0.724162	0.482119
C61	C	0.822397	-0.778763	0.482126
C62	C	0.788991	-0.806112	0.431530
C63	C	0.755570	-0.778860	0.380928
C64	C	0.688727	-0.724360	0.279709
C65	C	0.688749	-0.778967	0.279716
C66	C	0.722172	-0.806218	0.330323
C67	C	0.722178	-0.860810	0.330339
N68	N	0.755603	-0.888064	0.380937
C69	C	0.789010	-0.860715	0.431533
C70	C	0.722077	-0.527734	0.330309
C71	C	0.722055	-0.473132	0.330309
C72	C	0.788888	-0.473037	0.431508
C73	C	0.788907	-0.527640	0.431511
C74	C	0.755502	-0.554988	0.380907
C75	C	0.789038	-0.975380	0.431544
C76	C	0.789049	-1.029985	0.431548
C77	C	0.722217	-1.030075	0.330347
C78	C	0.722205	-0.975475	0.330345
C79	C	0.755619	-0.948128	0.380946
O80	O	0.693773	-0.889133	0.287351
O81	O	0.817442	-0.888918	0.474557
C82	C	0.891892	-0.251825	0.380934
C83	C	0.950006	-0.251827	0.380948
C84	C	0.755540	-0.251778	0.587070
C85	C	0.755550	-0.251760	0.674927
C86	C	0.755605	-0.115448	0.380938
C87	C	0.755642	-0.057334	0.380953
C88	C	0.755527	-0.251827	0.175536
C89	C	0.755619	-0.251698	0.087680
C90	C	0.722153	-0.285141	1.046389
C91	C	0.789071	-0.218268	1.046417
C92	C	0.789057	-0.218279	0.963871
C93	C	0.755591	-0.251722	0.922580
C94	C	0.722140	-0.285154	0.963835
C95	C	0.822512	-0.184852	0.922610
C96	C	0.822499	-0.184862	0.840059
C97	C	0.789031	-0.218303	0.798766
C98	C	0.755577	-0.251736	0.840026
C99	C	0.722112	-0.285178	0.798736
C100	C	0.688655	-0.318609	0.839994
C101	C	0.688671	-0.318595	0.922543
C102	C	0.789015	-0.218317	0.716218
C103	C	0.722098	-0.285192	0.716182
H104	H	0.305228	-0.345794	0.238372
C105	C	0.418341	-0.148095	0.442715
C106	C	0.449727	-0.181714	0.487195
H107	H	0.399847	-0.125430	0.477089
H108	H	0.394244	-0.167980	0.412571
H109	H	0.439651	-0.128070	0.408327
H110	H	0.428416	-0.201742	0.521579
H111	H	0.473827	-0.161827	0.517352
C112	C	0.796242	-0.913936	0.537878
C113	C	0.825764	-0.945324	0.487168
H114	H	0.818913	-0.895379	0.572216
H115	H	0.773457	-0.935248	0.568073
H116	H	0.776340	-0.889889	0.507734
H117	H	0.845662	-0.969374	0.517312
H118	H	0.848558	-0.924010	0.456970
C119	C	0.714776	-0.355536	0.623321
C120	C	0.685313	-0.321954	0.670793
H121	H	0.692066	-0.378228	0.595296
H122	H	0.737541	-0.375529	0.655523
H123	H	0.734697	-0.335623	0.586940
H124	H	0.665395	-0.341866	0.707178
H125	H	0.662539	-0.301958	0.638588
C126	C	0.859257	-0.588971	0.442610
C127	C	0.825649	-0.557592	0.487136
H128	H	0.881939	-0.607461	0.476954
H129	H	0.879261	-0.567662	0.408205
H130	H	0.839363	-0.613077	0.412483
H131	H	0.845544	-0.533483	0.517259
H132	H	0.805644	-0.578903	0.521555
C133	C	0.277720	-0.119002	0.582273
C134	C	0.313194	-0.148313	0.537835
H135	H	0.296264	-0.096329	0.616626
H136	H	0.256422	-0.141807	0.612453
H137	H	0.256422	-0.098984	0.547873
H138	H	0.334489	-0.168334	0.572235
H139	H	0.334501	-0.125504	0.507653
H140	H	0.661410	-0.345841	0.806364
C141	C	0.656155	-1.024698	0.230312
C142	C	0.685498	-1.060144	0.274734
H143	H	0.633485	-1.043263	0.195980
H144	H	0.678940	-1.003391	0.200109
H145	H	0.636131	-1.003405	0.264723
H146	H	0.705525	-1.081434	0.240323
H147	H	0.662709	-1.081459	0.304938
C148	C	0.859335	-0.211077	0.623397
C149	C	0.825789	-0.181575	0.670869
H150	H	0.882041	-0.188392	0.595406
H151	H	0.839400	-0.230987	0.586994
H152	H	0.879321	-0.233853	0.655602
H153	H	0.805801	-0.158801	0.638663
H154	H	0.845726	-0.161656	0.707276
C155	C	0.658984	-0.348269	1.049070
C156	C	0.651900	-0.355342	0.967896
H157	H	0.636286	-0.370958	1.077069
H158	H	0.651356	-0.313141	1.062606
H159	H	0.694113	-0.355921	1.062587
H160	H	0.616772	-0.347686	0.954377
H161	H	0.659524	-0.390477	0.954354
C162	C	0.485040	-0.351249	0.230143
C163	C	0.449573	-0.321935	0.274589
H164	H	0.466491	-0.373909	0.195776
H165	H	0.506329	-0.371276	0.264531
H166	H	0.506348	-0.328439	0.199970
H167	H	0.428267	-0.344744	0.304767
H168	H	0.428274	-0.301907	0.240196
C169	C	0.829776	-0.114536	0.747277
C170	C	0.859263	-0.148102	0.794718
H171	H	0.852471	-0.091841	0.719284
H172	H	0.807015	-0.094544	0.779496
H173	H	0.809851	-0.134460	0.710868
H174	H	0.879186	-0.128179	0.831131
H175	H	0.882034	-0.168096	0.762496
H176	H	0.816090	-0.450760	0.472705
H177	H	0.694913	-0.312358	1.079985
C178	C	0.617899	-0.314870	0.285262
C179	C	0.564201	-0.321930	0.274571
H180	H	0.636406	-0.337526	0.250889
H181	H	0.626852	-0.322571	0.338343
H182	H	0.626856	-0.279727	0.273793
H183	H	0.555243	-0.357072	0.286047
H184	H	0.555244	-0.314233	0.221479
C185	C	0.655996	-0.478724	0.230281
C186	C	0.685311	-0.443181	0.274686
H187	H	0.633315	-0.460233	0.195936
H188	H	0.635990	-0.500024	0.264696
H189	H	0.678802	-0.500013	0.200087
H190	H	0.662505	-0.421894	0.304885
H191	H	0.705318	-0.421872	0.240267
H192	H	0.816265	-1.052171	0.472764
C193	C	0.600236	-0.795869	0.241079
C194	C	0.652025	-0.809028	0.224094
H195	H	0.577564	-0.814429	0.206745
H196	H	0.595449	-0.759453	0.233832
H197	H	0.592569	-0.804808	0.294179
H198	H	0.659693	-0.800085	0.170996
H199	H	0.656814	-0.845452	0.231334
C200	C	0.888468	-0.773167	0.582133
C201	C	0.859149	-0.808713	0.537738
H202	H	0.911163	-0.791656	0.616459
H203	H	0.865669	-0.751887	0.612340
H204	H	0.908464	-0.751859	0.547704
H205	H	0.839151	-0.830019	0.572167
H206	H	0.881951	-0.830003	0.507529
C207	C	0.167190	-0.177854	0.588547
C208	C	0.198586	-0.148321	0.537859
H209	H	0.148691	-0.155192	0.622919
H210	H	0.188489	-0.200658	0.618706
H211	H	0.143092	-0.197737	0.558388
H212	H	0.222687	-0.128441	0.568017
H213	H	0.177286	-0.125509	0.507696
C214	C	0.651861	-0.914130	0.319256
C215	C	0.685462	-0.945514	0.274726
H216	H	0.629179	-0.895638	0.284915
H217	H	0.671758	-0.890029	0.349378
H218	H	0.631854	-0.935439	0.353667
H219	H	0.705472	-0.924204	0.240320
H220	H	0.665563	-0.969618	0.244591
C221	C	0.829581	-0.662722	0.588459
C222	C	0.859104	-0.694105	0.537743
H223	H	0.852252	-0.644167	0.622801
H224	H	0.806796	-0.684036	0.618650
H225	H	0.809680	-0.638672	0.558318
H226	H	0.879003	-0.718157	0.567884
H227	H	0.881898	-0.672789	0.507549
H228	H	0.816320	-0.191043	1.080041
H229	H	0.694869	-0.549998	0.289103
C230	C	0.093238	-0.355544	0.319125
C231	C	0.061850	-0.321935	0.274633
H232	H	0.111740	-0.378208	0.284757
H233	H	0.071934	-0.375567	0.353511
H234	H	0.117334	-0.335650	0.349270
H235	H	0.037751	-0.341829	0.244492
H236	H	0.083157	-0.301910	0.240233
H237	H	0.661511	-0.702179	0.238500
C238	C	0.829838	-0.114513	1.015472
C239	C	0.859298	-0.148097	0.967999
H240	H	0.852550	-0.091820	1.043493
H241	H	0.809918	-0.134420	1.051848
H242	H	0.807072	-0.094514	0.983264
H243	H	0.882061	-0.168098	1.000207
H244	H	0.879227	-0.128188	0.931618
C245	C	0.551147	-0.193069	0.565431
C246	C	0.564338	-0.181721	0.487182
H247	H	0.569691	-0.170402	0.599793
H248	H	0.560081	-0.228203	0.576902
H249	H	0.514724	-0.188290	0.572666
H250	H	0.600761	-0.186504	0.479944
H251	H	0.555407	-0.146579	0.475706
C252	C	0.026520	-0.152407	0.531684
C253	C	0.061992	-0.181715	0.487238
H254	H	0.045066	-0.129739	0.566043
H255	H	0.005221	-0.175215	0.561859
H256	H	0.005223	-0.132383	0.497291
H257	H	0.083287	-0.201741	0.521631
H258	H	0.083300	-0.158904	0.457061
C259	C	-0.017292	-0.351246	0.230205
C260	C	-0.052763	-0.321937	0.274650
H261	H	-0.035838	-0.373907	0.195836
H262	H	0.003999	-0.371271	0.264592
H263	H	0.004013	-0.328434	0.200033
H264	H	-0.074066	-0.344749	0.304827
H265	H	-0.074064	-0.301910	0.240258
C266	C	-0.106331	-0.188773	0.476550
C267	C	-0.052633	-0.181717	0.487246
H268	H	-0.124839	-0.166108	0.510908
H269	H	-0.115292	-0.223908	0.488031
H270	H	-0.115280	-0.181080	0.423458
H271	H	-0.043683	-0.189414	0.540338
H272	H	-0.043668	-0.146574	0.475771
H273	H	0.206178	-0.345801	0.238384
