data_functionalizedCrystal
_audit_creation_method	'MofGen! by Chris Wilmer'
_symmetry_space_group_name_H-M	'P1'
_symmetry_Int_Tables_number	1
_symmetry_cell_setting	triclinic
loop_
_symmetry_equiv_pos_as_xyz
  x,y,z
_cell_length_a	14.853566
_cell_length_b	15.944545
_cell_length_c	13.930277
_cell_angle_alpha	89.993343
_cell_angle_beta	89.995631
_cell_angle_gamma	83.565293
loop_
_atom_site_label
_atom_site_type_symbol
_atom_site_fract_x
_atom_site_fract_y
_atom_site_fract_z
O1	O	1.196226	0.109660	-0.079772
O2	O	0.933749	0.122725	-0.079788
O3	O	1.072158	-0.006075	-0.079768
O4	O	1.057817	0.238459	-0.079792
O5	O	1.072139	-0.006078	0.079893
O6	O	0.933730	0.122722	0.079873
O7	O	1.196206	0.109657	0.079890
Zn8	Zn	1.064965	0.116189	0.105231
Zn9	Zn	1.064990	0.116193	-0.105130
O10	O	1.057797	0.238457	0.079870
C11	C	0.900151	0.122131	0.000041
C12	C	0.800070	0.120358	0.000035
C13	C	0.376905	0.112859	-0.086979
C14	C	0.376906	0.112856	0.087090
C15	C	0.470938	0.114522	0.087087
C16	C	0.517958	0.115357	0.000049
C17	C	0.470946	0.114527	-0.086985
C18	C	0.517955	0.115360	0.174120
C19	C	0.611993	0.117027	0.174120
C20	C	0.659015	0.117856	0.087082
C21	C	0.611998	0.117025	0.000044
C22	C	0.659018	0.117860	-0.086994
C23	C	0.612003	0.117023	-0.174033
C24	C	0.517968	0.115356	-0.174024
C25	C	0.753050	0.119523	0.087072
C26	C	0.753058	0.119528	-0.087000
C27	C	1.071554	-0.037371	0.000063
C28	C	1.069772	-0.130619	0.000066
C29	C	0.978655	-0.401353	0.000041
C30	C	1.022594	-0.350718	-0.078678
C31	C	1.063417	-0.466270	0.000038
C32	C	1.022598	-0.350748	0.078736
C33	C	1.066535	-0.301353	0.000054
C34	C	1.107333	-0.416863	-0.078746
C35	C	1.107325	-0.416896	0.078739
C36	C	1.151326	-0.366293	0.000000
C37	C	1.061619	-0.561274	0.000029
C38	C	1.068340	-0.206352	0.000056
C39	C	1.229804	0.110250	0.000059
C40	C	1.329885	0.112023	0.000058
C41	C	1.058401	0.269753	0.000036
C42	C	1.060183	0.363001	0.000027
N43	N	1.064954	0.116186	0.248797
N44	N	1.065008	0.116189	-0.248696
C45	C	1.003700	0.173203	0.701058
C46	C	1.126305	0.059176	0.701045
C47	C	1.126294	0.059173	0.600549
C48	C	1.064987	0.116187	0.550303
C49	C	1.003690	0.173203	0.600553
C50	C	1.187596	0.002164	0.550292
C51	C	1.187589	0.002159	0.449790
C52	C	1.126276	0.059170	0.399542
C53	C	1.064976	0.116188	0.449798
C54	C	1.003668	0.173202	0.399552
C55	C	0.942363	0.230216	0.449806
C56	C	0.942377	0.230214	0.550305
C57	C	1.126262	0.059172	0.299044
C58	C	1.003657	0.173202	0.299047
H59	H	0.650298	0.117709	-0.244899
H60	H	0.650265	0.117706	0.244993
H61	H	0.791324	0.120213	0.157938
O62	O	0.472258	0.114407	0.258635
C63	C	0.376239	0.039847	0.359641
C64	C	0.427975	0.040809	0.263902
H65	H	0.340407	-0.019641	0.363922
H66	H	0.425953	0.040682	0.421890
H67	H	0.324000	0.097831	0.363960
H68	H	0.480214	-0.017164	0.259489
H69	H	0.378206	0.040018	0.201699
H70	H	0.479680	0.114673	-0.244886
H71	H	1.176224	0.012761	0.741959
O72	O	0.331178	0.112197	-0.171500
C73	C	0.214761	0.182996	-0.272501
C74	C	0.266492	0.183859	-0.176758
H75	H	0.162438	0.240920	-0.276775
H76	H	0.264473	0.183935	-0.334746
H77	H	0.179032	0.123451	-0.276832
H78	H	0.302224	0.243395	-0.172334
H79	H	0.216738	0.182876	-0.114558
H80	H	1.237516	-0.044251	0.591206
H81	H	0.791335	0.120205	-0.157877
O82	O	1.150109	-0.451313	0.158111
C83	C	1.289005	-0.471664	0.248761
C84	C	1.240667	-0.432623	0.158837
H85	H	1.362234	-0.456583	0.249367
H86	H	1.252819	-0.444356	0.315858
H87	H	1.287757	-0.543016	0.247594
H88	H	1.241900	-0.361272	0.159910
H89	H	1.276867	-0.459998	0.091779
H90	H	0.338616	0.112182	0.157952
H91	H	0.905657	-0.417087	-0.000041
H92	H	1.176180	0.012755	0.258131
O93	O	0.882709	0.285510	0.599081
C94	C	0.725962	0.334491	0.629832
C95	C	0.793433	0.271809	0.574544
H96	H	0.653768	0.323447	0.609999
H97	H	0.736430	0.324695	0.710302
H98	H	0.737749	0.401783	0.610075
H99	H	0.781687	0.204492	0.594221
H100	H	0.782949	0.281679	0.494088
O101	O	1.247166	-0.053307	0.401127
C102	C	1.368808	-0.166377	0.411729
C103	C	1.301376	-0.103618	0.466961
H104	H	1.412667	-0.207057	0.464932
H105	H	1.329927	-0.208465	0.364723
H106	H	1.413797	-0.130022	0.364632
H107	H	1.256371	-0.139904	0.514110
H108	H	1.340314	-0.061530	0.513906
O109	O	1.238495	-0.347761	-0.000205
C110	C	1.381650	-0.360765	-0.083342
C111	C	1.282947	-0.381788	-0.083241
H112	H	1.417623	-0.388281	-0.150460
H113	H	1.382441	-0.289353	-0.082762
H114	H	1.417976	-0.389148	-0.016830
H115	H	1.246562	-0.353459	-0.149742
H116	H	1.282221	-0.453207	-0.083771
O117	O	0.979755	-0.316259	-0.158007
C118	C	0.840390	-0.294734	-0.247740
C119	C	0.888795	-0.333780	-0.157856
H120	H	0.766846	-0.308900	-0.247658
H121	H	0.842666	-0.223503	-0.247337
H122	H	0.875853	-0.322945	-0.314811
H123	H	0.853370	-0.305635	-0.090737
H124	H	0.886528	-0.405010	-0.158343
H125	H	1.143112	-0.445628	-0.145371
H126	H	0.986778	-0.321874	0.145285
H127	H	0.953730	0.219627	0.258143
O128	O	0.882846	0.285519	0.400844
C129	C	0.828551	0.336085	0.246013
C130	C	0.895984	0.273400	0.301347
H131	H	0.839162	0.326321	0.165560
H132	H	0.756325	0.325016	0.265705
H133	H	0.840285	0.403376	0.265820
H134	H	0.884333	0.206085	0.281570
H135	H	0.968186	0.284543	0.281650
O136	O	0.944027	0.228499	0.749827
C137	C	0.787274	0.277476	0.780548
C138	C	0.854755	0.214795	0.725273
H139	H	0.715083	0.266429	0.760702
H140	H	0.797728	0.267682	0.861020
H141	H	0.799061	0.344768	0.760793
H142	H	0.843008	0.147477	0.744949
H143	H	0.844284	0.224662	0.644815
