data_functionalizedCrystal
_audit_creation_method	'MofGen! by Chris Wilmer'
_symmetry_space_group_name_H-M	'P1'
_symmetry_Int_Tables_number	1
_symmetry_cell_setting	triclinic
loop_
_symmetry_equiv_pos_as_xyz
  x,y,z
_cell_length_a	14.519709
_cell_length_b	16.109301
_cell_length_c	14.586319
_cell_angle_alpha	89.998390
_cell_angle_beta	89.999755
_cell_angle_gamma	83.570813
loop_
_atom_site_label
_atom_site_type_symbol
_atom_site_fract_x
_atom_site_fract_y
_atom_site_fract_z
O1	O	-1.223638	-0.108980	0.076124
O2	O	-0.723638	0.391020	0.576124
O3	O	-0.955134	-0.121814	0.076152
O4	O	-0.455134	0.378186	0.576152
O5	O	-1.096762	0.005621	0.076128
O6	O	-0.596762	0.505621	0.576128
O7	O	-1.082010	-0.236415	0.076148
O8	O	-0.582010	0.263585	0.576148
O9	O	-1.096745	0.005614	-0.076353
O10	O	-0.596745	0.505614	0.423647
O11	O	-0.955116	-0.121822	-0.076328
O12	O	-0.455116	0.378178	0.423672
O13	O	-1.223621	-0.108987	-0.076357
O14	O	-0.723621	0.391013	0.423643
Cu15	Cu	-1.089367	-0.115405	-0.090265
Cu16	Cu	-0.589367	0.384595	0.409735
Cu17	Cu	-1.089387	-0.115396	0.090061
Cu18	Cu	-0.589387	0.384604	0.590061
O19	O	-1.081992	-0.236423	-0.076333
O20	O	-0.581992	0.263577	0.423667
C21	C	-0.920766	-0.121220	-0.000085
C22	C	-0.420766	0.378780	0.499915
C23	C	-0.818389	-0.119427	-0.000074
C24	C	-0.318389	0.380573	0.499926
C25	C	-1.096156	0.036593	-0.000113
C26	C	-0.596156	0.536593	0.499887
C27	C	-1.094364	0.128892	-0.000114
C28	C	-0.594364	0.628892	0.499886
C29	C	-1.257988	-0.109582	-0.000118
C30	C	-0.757988	0.390418	0.499882
C31	C	-1.360365	-0.111374	-0.000122
C32	C	-0.860365	0.388626	0.499878
C33	C	-0.443507	-0.112829	-0.000116
C34	C	0.056493	0.387171	0.499884
C35	C	-0.547811	-0.114661	-0.000104
C36	C	-0.047811	0.385339	0.499896
C37	C	-0.630945	-0.116128	-0.000094
C38	C	-0.130945	0.383872	0.499906
C39	C	-0.735256	-0.117961	-0.000084
C40	C	-0.235256	0.382039	0.499916
C41	C	-1.082599	-0.267395	-0.000090
C42	C	-0.582599	0.232605	0.499910
C43	C	-1.084390	-0.359693	-0.000083
C44	C	-0.584390	0.140307	0.499917
N45	N	-1.089359	-0.115411	-0.217097
N46	N	-0.589359	0.384589	0.282903
C47	C	-1.174238	0.351026	-0.000108
C48	C	-0.674238	0.851026	0.499892
C49	C	-1.172547	0.437749	-0.000100
C50	C	-0.672547	0.937749	0.499900
C51	C	-1.004510	0.418166	-0.000086
C52	C	-0.504510	0.918166	0.499914
C53	C	-1.006202	0.331444	-0.000087
C54	C	-0.506202	0.831444	0.499913
C55	C	-1.091068	0.297877	-0.000103
C56	C	-0.591068	0.797877	0.499897
C57	C	-1.087686	0.471322	-0.000094
C58	C	-0.587686	0.971322	0.499906
C59	C	-1.085852	0.565351	-0.000085
C60	C	-0.585852	1.065351	0.499915
C61	C	-1.092902	0.203842	-0.000109
C62	C	-0.592902	0.703842	0.499891
C63	C	-1.145290	-0.165936	-0.452105
C64	C	-0.645290	0.334064	0.047895
C65	C	-1.145300	-0.165931	-0.548087
C66	C	-0.645300	0.334069	-0.048087
C67	C	-1.033469	-0.064853	-0.548093
C68	C	-0.533469	0.435147	-0.048093
C69	C	-1.033465	-0.064855	-0.452113
C70	C	-0.533465	0.435145	0.047887
C71	C	-1.089374	-0.115401	-0.404122
C72	C	-0.589374	0.384599	0.095878
C73	C	-1.089388	-0.115394	-0.596083
C74	C	-0.589388	0.384606	-0.096083
C75	C	-1.089398	-0.115387	-0.700150
C76	C	-0.589398	0.384613	-0.200150
C77	C	-1.089365	-0.115407	-0.300048
C78	C	-0.589365	0.384593	0.199952
N79	N	-1.089402	-0.115384	0.216893
N80	N	-0.589402	0.384616	0.716893
H81	H	-1.240272	0.481020	-0.000102
H82	H	-0.740272	0.981020	0.499898
H83	H	-0.938471	0.288168	-0.000080
H84	H	-0.438471	0.788168	0.499920
O85	O	-1.205595	-0.220445	-0.400339
O86	O	-0.705595	0.279555	0.099661
H87	H	-1.244485	-0.255578	-0.449834
H88	H	-0.744485	0.244422	0.050166
H89	H	-1.190833	-0.207080	-0.587150
H90	H	-0.690833	0.292920	-0.087150
O91	O	-0.973158	-0.010345	-0.599853
O92	O	-0.473158	0.489655	-0.099853
H93	H	-0.982545	-0.018840	-0.674655
H94	H	-0.482545	0.481160	-0.174655
H95	H	-0.987931	-0.023699	-0.413044
H96	H	-0.487931	0.476301	0.086956
O97	O	-0.912977	0.454369	-0.000089
O98	O	-0.412977	0.954369	0.499911
H99	H	-0.925772	0.523602	-0.000102
H100	H	-0.425772	1.023602	0.499898
H101	H	-1.243341	0.323699	-0.000119
H102	H	-0.743341	0.823699	0.499881
