data_functionalizedCrystal
_audit_creation_method	'MofGen! by Chris Wilmer'
_symmetry_space_group_name_H-M	'P1'
_symmetry_Int_Tables_number	1
_symmetry_cell_setting	triclinic
loop_
_symmetry_equiv_pos_as_xyz
  x,y,z
_cell_length_a	12.759401
_cell_length_b	11.169409
_cell_length_c	12.759399
_cell_angle_alpha	89.965848
_cell_angle_beta	90.014202
_cell_angle_gamma	89.979031
loop_
_atom_site_label
_atom_site_type_symbol
_atom_site_fract_x
_atom_site_fract_y
_atom_site_fract_z
Zn1	Zn	1.606275	-0.678540	-0.418207
Zn2	Zn	2.106275	-0.178540	0.081793
Zn3	Zn	1.606162	-0.477850	-0.593933
Zn4	Zn	2.106162	0.022150	-0.093933
Zn5	Zn	1.430571	-0.477873	-0.418266
Zn6	Zn	1.930571	0.022127	0.081734
Zn7	Zn	1.430565	-0.678494	-0.593842
Zn8	Zn	1.930565	-0.178494	-0.093842
O9	O	1.518393	-0.578189	-0.506062
O10	O	2.018393	-0.078189	-0.006062
O11	O	1.753281	-0.651928	-0.441531
O12	O	2.253281	-0.151928	0.058469
O13	O	1.582824	-0.309904	-0.570693
O14	O	2.082824	0.190096	-0.070693
O15	O	1.453928	-0.504521	-0.271237
O16	O	1.953928	-0.004521	0.228763
O17	O	1.753198	-0.504482	-0.570636
O18	O	2.253198	-0.004482	-0.070636
O19	O	1.583018	-0.651950	-0.271194
O20	O	2.083018	-0.151950	0.228806
O21	O	1.453818	-0.309920	-0.441631
O22	O	1.953818	0.190080	0.058369
O23	O	1.283549	-0.504476	-0.441543
O24	O	1.783549	-0.004476	0.058457
O25	O	1.453918	-0.846450	-0.570481
O26	O	1.953918	-0.346450	-0.070481
O27	O	1.283545	-0.651871	-0.570538
O28	O	1.783545	-0.151871	-0.070538
O29	O	1.583012	-0.846484	-0.441443
O30	O	2.083012	-0.346484	0.058557
O31	O	1.582818	-0.504437	-0.740942
O32	O	2.082818	-0.004437	-0.240942
O33	O	1.453808	-0.651849	-0.740875
O34	O	1.953808	-0.151849	-0.240875
C35	C	1.245426	-0.578172	-0.506038
C36	C	1.745426	-0.078172	-0.006038
C37	C	1.128649	-0.578193	-0.506052
C38	C	1.628649	-0.078193	-0.006052
C39	C	0.964094	-0.655094	-0.438973
C40	C	1.464094	-0.155094	0.061027
C41	C	1.073818	-0.655086	-0.438953
C42	C	1.573818	-0.155086	0.061047
C43	C	1.073750	-0.501310	-0.573185
C44	C	1.573750	-0.001310	-0.073185
C45	C	0.964028	-0.501325	-0.573210
C46	C	1.464028	-0.001325	-0.073210
C47	C	1.518477	-0.891232	-0.505946
C48	C	2.018477	-0.391232	-0.005946
C49	C	1.518513	-1.024632	-0.505896
C50	C	2.018513	-0.524632	-0.005896
C51	C	1.792426	-0.578208	-0.506087
C52	C	2.292426	-0.078208	-0.006087
C53	C	1.909203	-0.578216	-0.506098
C54	C	2.409203	-0.078216	-0.006098
C55	C	1.518329	-0.578162	-0.779029
C56	C	2.018329	-0.078162	-0.279029
C57	C	1.518397	-0.578190	-0.895806
C58	C	2.018397	-0.078190	-0.395806
C59	C	1.518370	-0.266365	-0.506102
C60	C	2.018370	0.233635	-0.006102
C61	C	1.518537	-0.132965	-0.505856
C62	C	2.018537	0.367035	-0.005856
C63	C	1.585650	-0.501520	-0.950668
C64	C	2.085650	-0.001520	-0.450668
C65	C	1.585717	-0.501561	-1.060392
C66	C	2.085717	-0.001561	-0.560392
C67	C	1.451271	-0.654944	-1.060383
C68	C	1.951271	-0.154944	-0.560383
C69	C	1.451209	-0.654909	-0.950661
C70	C	1.951209	-0.154909	-0.450661
C71	C	1.518486	-0.578243	-0.232029
C72	C	2.018486	-0.078243	0.267971
C73	C	1.518526	-0.578266	-0.115252
C74	C	2.018526	-0.078266	0.384748
H75	H	0.919459	-0.717703	-0.384326
H76	H	1.419459	-0.217703	0.115674
H77	H	1.396444	-0.717349	-0.905989
H78	H	1.896444	-0.217349	-0.405989
H79	H	1.118506	-0.717690	-0.384294
H80	H	1.618506	-0.217690	0.115706
H81	H	1.396567	-0.717404	-1.105059
H82	H	1.896567	-0.217404	-0.605059
H83	H	1.118402	-0.438707	-0.627823
H84	H	1.618402	0.061293	-0.127823
H85	H	0.919335	-0.438720	-0.627877
H86	H	1.419335	0.061280	-0.127877
H87	H	1.640360	-0.439053	-0.906008
H88	H	2.140360	0.060947	-0.406008
H89	H	1.640482	-0.439130	-1.105055
H90	H	2.140482	0.060870	-0.605055
