data_functionalizedCrystal
_audit_creation_method	'MofGen! by Chris Wilmer'
_symmetry_space_group_name_H-M	'P1'
_symmetry_Int_Tables_number	1
_symmetry_cell_setting	triclinic
loop_
_symmetry_equiv_pos_as_xyz
  x,y,z
_cell_length_a	19.077236
_cell_length_b	18.101397
_cell_length_c	19.076919
_cell_angle_alpha	87.731459
_cell_angle_beta	90.112677
_cell_angle_gamma	92.313125
loop_
_atom_site_label
_atom_site_type_symbol
_atom_site_fract_x
_atom_site_fract_y
_atom_site_fract_z
Zn1	Zn	1.058310	-0.268826	0.440528
Zn2	Zn	1.558310	0.231174	0.940528
Zn3	Zn	1.062958	-0.387506	0.323016
Zn4	Zn	1.562958	0.112494	0.823016
Zn5	Zn	0.945525	-0.268438	0.318308
Zn6	Zn	1.445525	0.231562	0.818308
Zn7	Zn	0.940778	-0.397386	0.435753
Zn8	Zn	1.440778	0.102614	0.935753
O9	O	1.001893	-0.330539	0.379401
O10	O	1.501893	0.169461	0.879401
O11	O	1.157260	-0.280597	0.428908
O12	O	1.657260	0.219403	0.928908
O13	O	1.051312	-0.367414	0.224061
O14	O	1.551312	0.132586	0.724061
O15	O	0.960528	-0.164856	0.334549
O16	O	1.460528	0.335144	0.834549
O17	O	1.160675	-0.367791	0.342572
O18	O	1.660675	0.132209	0.842572
O19	O	1.043390	-0.165141	0.424344
O20	O	1.543390	0.334859	0.924344
O21	O	0.965035	-0.279935	0.220602
O22	O	1.465035	0.220065	0.720602
O23	O	0.846562	-0.289515	0.329919
O24	O	1.346562	0.210485	0.829919
O25	O	0.952437	-0.384630	0.534717
O26	O	1.452437	0.115370	1.034717
O27	O	0.843074	-0.384253	0.416206
O28	O	1.343074	0.115747	0.916206
O29	O	1.038787	-0.290177	0.538225
O30	O	1.538787	0.209823	1.038225
O31	O	1.046709	-0.492450	0.337942
O32	O	1.546709	0.007550	0.837942
O33	O	0.956944	-0.499709	0.420770
O34	O	1.456944	0.000291	0.920770
C35	C	0.819321	-0.337915	0.372034
C36	C	1.319321	0.162085	0.872034
C37	C	0.741216	-0.341089	0.368899
C38	C	1.241216	0.158911	0.868899
C39	C	0.702742	-0.297261	0.412445
C40	C	1.202742	0.202739	0.912445
C41	C	0.629353	-0.300239	0.409493
C42	C	1.129353	0.199761	0.909493
C43	C	0.594441	-0.347050	0.362998
C44	C	1.094441	0.152950	0.862998
C45	C	0.632920	-0.390879	0.319447
C46	C	1.132920	0.109121	0.819447
C47	C	0.706307	-0.387896	0.322396
C48	C	1.206307	0.112104	0.822396
C49	C	0.375148	-0.360827	0.349348
C50	C	0.875148	0.139173	0.849348
C51	C	0.301756	-0.363808	0.346404
C52	C	0.801756	0.136192	0.846404
C53	C	0.298194	-0.273166	0.436449
C54	C	0.798194	0.226834	0.936449
C55	C	0.371583	-0.270191	0.439397
C56	C	0.871583	0.229809	0.939397
C57	C	0.410056	-0.314017	0.395843
C58	C	0.910056	0.185983	0.895843
N59	N	0.519426	-0.350097	0.359981
N60	N	1.019426	0.149903	0.859981
N61	N	0.485069	-0.310966	0.398857
N62	N	0.985069	0.189034	0.898857
C63	C	1.001834	-0.522950	0.379365
C64	C	1.501834	-0.022950	0.879365
C65	C	1.001872	-0.605263	0.379375
C66	C	1.501872	-0.105263	0.879375
C67	C	1.001959	-0.904353	0.379443
C68	C	1.501959	-0.404353	0.879443
C69	C	1.058291	-0.868430	0.327179
C70	C	1.558291	-0.368430	0.827179
C71	C	1.058473	-0.782810	0.327327
C72	C	1.558473	-0.282810	0.827327
C73	C	1.001916	-0.755971	0.379409
C74	C	1.501916	-0.255971	0.879409
C75	C	1.019012	-0.789424	0.454283
C76	C	1.519012	-0.289424	0.954283
C77	C	1.019443	-0.875039	0.454003
C78	C	1.519443	-0.375039	0.954003
C79	C	0.928361	-0.875038	0.357469
C80	C	1.428361	-0.375038	0.857469
C81	C	0.928795	-0.789301	0.355830
C82	C	1.428795	-0.289301	0.855830
C83	C	1.001890	-0.672112	0.379394
C84	C	1.501890	-0.172112	0.879394
C85	C	1.001987	-0.988213	0.379463
C86	C	1.501987	-0.488213	0.879463
C87	C	1.185177	-0.323135	0.386798
C88	C	1.685177	0.176865	0.886798
C89	C	1.263282	-0.319980	0.389950
C90	C	1.763282	0.180020	0.889950
C91	C	0.994564	-0.338549	0.562680
C92	C	1.494564	0.161451	1.062680
C93	C	0.991440	-0.341962	0.640783
C94	C	1.491440	0.158038	1.140783
C95	C	1.001970	-0.137376	0.379454
C96	C	1.501970	0.362624	0.879454
C97	C	1.002003	-0.055061	0.379477
C98	C	1.502003	0.444939	0.879477
C99	C	1.009234	-0.322505	0.196837
C100	C	1.509234	0.177495	0.696837
C101	C	1.012493	-0.318878	0.118741
C102	C	1.512493	0.181122	0.618741
C103	C	1.034929	-0.294391	0.679303
C104	C	1.534929	0.205609	1.179303
C105	C	1.031986	-0.297596	0.752688
C106	C	1.531986	0.202404	1.252688
C107	C	0.985557	-0.348375	0.787552
C108	C	1.485557	0.151625	1.287552
C109	C	0.942064	-0.395948	0.749027
C110	C	1.442064	0.104052	1.249027
C111	C	0.945004	-0.392739	0.675642
C112	C	1.445004	0.107261	1.175642
C113	C	0.971940	-0.363242	1.006831
C114	C	1.471940	0.136758	1.506831
C115	C	0.969005	-0.366448	1.080220
C116	C	1.469005	0.133552	1.580220
C117	C	1.058926	-0.268095	1.083877
C118	C	1.558926	0.231905	1.583877
C119	C	1.061864	-0.264894	1.010491
C120	C	1.561864	0.235106	1.510491
C121	C	1.018369	-0.312464	0.971972
C122	C	1.518369	0.187536	1.471972
N123	N	0.982549	-0.351654	0.862564
N124	N	1.482549	0.148346	1.362564
N125	N	1.021374	-0.309181	0.896962
N126	N	1.521374	0.190819	1.396962
H127	H	1.048123	-0.759941	0.271903
H128	H	1.548123	-0.259941	0.771903
C129	C	1.132208	-0.752787	0.347284
C130	C	1.632208	-0.252787	0.847284
N131	N	1.187748	-0.730175	0.362315
N132	N	1.687748	-0.230175	0.862315
C133	C	0.255868	-0.224947	0.484343
C134	C	0.755868	0.275053	0.984343
N135	N	0.223988	-0.188621	0.520413
N136	N	0.723988	0.311379	1.020413
C137	C	0.911300	-0.759512	0.281375
C138	C	1.411300	-0.259512	0.781375
N139	N	0.898123	-0.737068	0.225297
N140	N	1.398123	-0.237068	0.725297
C141	C	1.092003	-0.899933	0.478671
C142	C	1.592003	-0.399933	0.978671
N143	N	1.146659	-0.918679	0.497249
N144	N	1.646659	-0.418679	0.997249
C145	C	0.741139	-0.245764	0.463593
C146	C	1.241139	0.254236	0.963593
N147	N	0.770057	-0.206973	0.502117
N148	N	1.270057	0.293027	1.002117
H149	H	0.598031	-0.264551	0.444954
H150	H	1.098031	0.235449	0.944954
H151	H	1.048099	-0.887152	0.271596
H152	H	1.548099	-0.387152	0.771596
C153	C	0.871708	-0.906982	0.408843
C154	C	1.371708	-0.406982	0.908843
N155	N	0.829042	-0.931046	0.447540
N156	N	1.329042	-0.431046	0.947540
H157	H	1.112574	-0.888227	0.341798
H158	H	1.612574	-0.388227	0.841798
H159	H	0.931195	-0.407801	1.108604
H160	H	1.431195	0.092199	1.608604
H161	H	0.936533	-0.401987	0.975478
H162	H	1.436533	0.098013	1.475478
C163	C	1.106759	-0.215763	1.126254
C164	C	1.606759	0.284237	1.626254
N165	N	1.142785	-0.176340	1.158172
N166	N	1.642785	0.323660	1.658172
C167	C	1.086003	-0.238529	0.640960
C168	C	1.586003	0.261471	1.140960
N169	N	1.124472	-0.196449	0.612082
N170	N	1.624472	0.303551	1.112082
H171	H	0.980048	-0.899138	0.494448
H172	H	1.480048	-0.399138	0.994448
H173	H	0.406464	-0.396514	0.313884
H174	H	0.906464	0.103486	0.813884
C175	C	0.965107	-0.766482	0.508482
C176	C	1.465107	-0.266482	1.008482
N177	N	0.924506	-0.749199	0.549305
N178	N	1.424506	-0.249199	1.049305
C179	C	0.890985	-0.451799	0.787379
C180	C	1.390985	0.048201	1.287379
N181	N	0.852511	-0.493867	0.816265
N182	N	1.352511	0.006133	1.316265
C183	C	0.409981	-0.218688	0.490539
C184	C	0.909981	0.281312	0.990539
N185	N	0.438903	-0.179895	0.529059
N186	N	0.938903	0.320105	1.029059
H187	H	0.273332	-0.401930	0.308541
H188	H	0.773332	0.098070	0.808541
H189	H	1.072101	-0.766460	0.472796
H190	H	1.572101	-0.266460	0.972796
C191	C	0.594514	-0.442371	0.268301
C192	C	1.094514	0.057629	0.768301
N193	N	0.565586	-0.481157	0.229778
N194	N	1.065586	0.018843	0.729778
H195	H	0.737632	-0.423585	0.286935
H196	H	1.237632	0.076415	0.786935
C197	C	0.906576	-0.902138	0.284774
C198	C	1.406576	-0.402138	0.784774
N199	N	0.890175	-0.922549	0.230017
N200	N	1.390175	-0.422549	0.730017
H201	H	0.884806	-0.771253	0.390870
H202	H	1.384806	-0.271253	0.890870
C203	C	0.897165	-0.445072	0.633270
C204	C	1.397165	0.054928	1.133270
N205	N	0.861129	-0.484490	0.601357
N206	N	1.361129	0.015510	1.101357
H207	H	1.067400	-0.258861	0.784049
H208	H	1.567400	0.241139	1.284049
C209	C	1.112932	-0.209025	0.972147
C210	C	1.612932	0.290975	1.472147
N211	N	1.151397	-0.166944	0.943265
N212	N	1.651397	0.333056	1.443265
