data_functionalizedCrystal
_audit_creation_method	'MofGen! by Chris Wilmer'
_symmetry_space_group_name_H-M	'P1'
_symmetry_Int_Tables_number	1
_symmetry_cell_setting	triclinic
loop_
_symmetry_equiv_pos_as_xyz
  x,y,z
_cell_length_a	17.019383
_cell_length_b	17.019234
_cell_length_c	9.198806
_cell_angle_alpha	86.115517
_cell_angle_beta	86.120085
_cell_angle_gamma	83.129140
loop_
_atom_site_label
_atom_site_type_symbol
_atom_site_fract_x
_atom_site_fract_y
_atom_site_fract_z
O1	O	1.046545	0.100554	-0.264372
O2	O	0.816868	0.113358	-0.237254
O3	O	0.938122	-0.007885	-0.237224
O4	O	0.925291	0.221797	-0.264403
O5	O	0.938112	-0.007885	0.004563
O6	O	0.816858	0.113357	0.004532
O7	O	1.046535	0.100554	-0.022586
Cu8	Cu	0.931696	0.106956	0.013050
Cu9	Cu	0.931707	0.106956	-0.272890
O10	O	0.925281	0.221797	-0.022616
C11	C	0.787475	0.112870	-0.112625
C12	C	0.699907	0.111408	-0.101491
C13	C	0.658766	0.110723	-0.228047
C14	C	0.576485	0.109362	-0.217566
C15	C	0.535349	0.108680	-0.080526
C16	C	0.576495	0.109367	0.046040
C17	C	0.658774	0.110734	0.035556
C18	C	0.286921	0.104558	-0.042280
C19	C	0.204637	0.103189	-0.031806
C20	C	0.204633	0.103185	-0.295412
C21	C	0.286913	0.104547	-0.305883
C22	C	0.328052	0.105239	-0.179318
C23	C	0.451245	0.107286	-0.069809
C24	C	0.412153	0.106638	-0.190037
C25	C	0.937633	-0.037274	-0.112590
C26	C	0.936182	-0.124844	-0.101443
C27	C	0.927901	-0.620114	-0.031843
C28	C	0.929273	-0.537834	-0.042310
C29	C	0.929970	-0.496685	-0.179346
C30	C	0.929287	-0.537821	-0.305921
C31	C	0.927910	-0.620099	-0.295452
C32	C	0.934122	-0.248258	-0.217550
C33	C	0.935502	-0.165974	-0.228010
C34	C	0.935486	-0.165992	0.035603
C35	C	0.934113	-0.248273	0.046059
C36	C	0.933427	-0.289400	-0.080516
C37	C	0.931374	-0.412582	-0.190049
C38	C	0.932017	-0.373501	-0.069811
C39	C	1.075928	0.101042	-0.147219
C40	C	1.163496	0.102504	-0.158362
C41	C	0.925770	0.251186	-0.147253
C42	C	0.927221	0.338756	-0.158409
N43	N	0.931694	0.106955	0.214164
N44	N	0.931716	0.106951	-0.474004
C45	C	0.982607	0.055826	0.286402
C46	C	0.982619	0.055824	0.453813
H47	H	0.417743	0.106728	0.041770
H48	H	0.171143	0.102656	0.079792
F49	F	0.930042	-0.494027	-0.451767
H50	H	0.888111	0.150723	0.276258
F51	F	0.936213	-0.122215	0.170303
F52	F	0.702559	0.111466	0.170255
H53	H	1.026211	0.012053	0.515933
H54	H	0.445650	0.107198	-0.301615
H55	H	0.888127	0.150729	0.463883
H56	H	0.692254	0.111276	-0.339640
F57	F	0.931270	-0.417295	0.076028
F58	F	0.330688	0.105269	-0.451739
F59	F	0.532703	0.108634	-0.352266
F60	F	0.936245	-0.122183	-0.373868
H61	H	1.026184	0.012052	0.224312
H62	H	0.171128	0.102624	-0.398455
H63	H	0.929838	-0.504351	0.060752
H64	H	0.542995	0.108817	0.157620
F65	F	0.330694	0.105293	0.092424
H66	H	0.933550	-0.281771	0.157648
H67	H	0.927337	-0.653611	0.079746
F68	F	0.933397	-0.292019	-0.352264
H69	H	0.927352	-0.653585	-0.398515
H70	H	0.931946	-0.379071	-0.301624
