data_functionalizedCrystal
_audit_creation_method	'MofGen! by Chris Wilmer'
_symmetry_space_group_name_H-M	'P1'
_symmetry_Int_Tables_number	1
_symmetry_cell_setting	triclinic
loop_
_symmetry_equiv_pos_as_xyz
  x,y,z
_cell_length_a	12.759401
_cell_length_b	25.639239
_cell_length_c	12.759393
_cell_angle_alpha	89.963997
_cell_angle_beta	89.981287
_cell_angle_gamma	90.040211
loop_
_atom_site_label
_atom_site_type_symbol
_atom_site_fract_x
_atom_site_fract_y
_atom_site_fract_z
Zn1	Zn	1.606068	-0.208104	-0.593980
Zn2	Zn	1.605893	-0.295549	-0.418283
Zn3	Zn	1.430374	-0.208132	-0.418315
Zn4	Zn	1.430285	-0.295513	-0.593921
O5	O	1.518155	-0.251824	-0.506125
O6	O	1.753066	-0.219708	-0.570685
O7	O	1.582573	-0.283980	-0.271266
O8	O	1.453791	-0.134963	-0.441656
O9	O	1.752937	-0.283953	-0.441601
O10	O	1.582873	-0.134943	-0.570716
O11	O	1.453620	-0.219755	-0.271290
O12	O	1.283341	-0.219720	-0.441598
O13	O	1.453640	-0.283891	-0.740950
O14	O	1.283276	-0.283918	-0.570615
O15	O	1.582787	-0.219672	-0.740993
O16	O	1.582487	-0.368710	-0.441544
O17	O	1.453469	-0.368683	-0.570584
C18	C	1.245188	-0.251818	-0.506104
C19	C	1.128411	-0.251828	-0.506120
C20	C	1.073543	-0.285307	-0.573193
C21	C	0.963819	-0.285309	-0.573214
C22	C	0.963841	-0.218352	-0.439079
C23	C	1.073563	-0.218347	-0.439065
C24	C	0.813902	-0.304070	-0.697071
C25	C	0.759030	-0.337557	-0.764135
C26	C	0.794584	-0.388581	-0.780073
C27	C	0.885009	-0.406129	-0.728931
C28	C	0.939875	-0.372645	-0.661860
C29	C	0.904322	-0.321613	-0.645942
C30	C	1.223481	-0.199592	-0.315206
C31	C	1.278350	-0.166110	-0.248129
C32	C	1.242798	-0.115085	-0.232180
C33	C	1.152370	-0.097538	-0.283303
C34	C	1.097501	-0.131020	-0.350380
C35	C	1.133061	-0.182045	-0.366331
C36	C	1.517978	-0.387667	-0.506077
C37	C	1.517999	-0.445781	-0.506091
C38	C	1.585510	-0.806146	-0.439048
C39	C	1.585551	-0.860750	-0.439062
O40	O	1.642768	-0.888988	-0.382007
N41	N	1.518340	-0.888064	-0.506194
C42	C	1.451091	-0.860770	-0.573324
O43	O	1.393927	-0.889016	-0.630428
C44	C	1.451056	-0.806167	-0.573315
C45	C	1.518264	-0.778856	-0.506171
C46	C	1.652713	-0.778835	-0.371910
C47	C	1.652671	-0.724234	-0.371895
C48	C	1.585425	-0.696944	-0.439018
C49	C	1.518222	-0.724255	-0.506156
C50	C	1.383814	-0.778874	-0.640449
C51	C	1.383786	-0.724267	-0.640435
C52	C	1.450994	-0.696956	-0.573291
C53	C	1.450934	-0.642365	-0.573263
N54	N	1.518145	-0.615052	-0.506131
C55	C	1.585391	-0.642341	-0.439008
C56	C	1.451170	-0.975441	-0.573341
C57	C	1.451199	-1.030043	-0.573346
C58	C	1.585660	-1.030019	-0.439085
C59	C	1.585625	-0.975416	-0.439075
C60	C	1.518381	-0.948127	-0.506208
C61	C	1.585296	-0.527676	-0.438981
C62	C	1.585244	-0.473071	-0.438969
C63	C	1.450788	-0.473100	-0.573233
C64	C	1.450835	-0.527700	-0.573242
C65	C	1.518097	-0.554987	-0.506112
O66	O	1.393749	-0.614093	-0.630292
O67	O	1.642554	-0.614088	-0.381925
C68	C	1.792188	-0.251831	-0.506146
C69	C	1.908965	-0.251834	-0.506156
C70	C	1.518223	-0.251774	-0.780158
C71	C	1.518252	-0.251753	-0.896935
C72	C	1.518361	-0.115451	-0.506196
C73	C	1.518449	-0.057337	-0.506226
C74	C	1.451028	-0.285176	-0.951776
C75	C	1.451065	-0.285156	-1.061500
C76	C	1.585554	-0.218286	-1.061533
C77	C	1.585521	-0.218309	-0.951811
C78	C	1.413477	-0.346786	-1.211422
C79	C	1.346236	-0.380205	-1.266267
C80	C	1.243699	-0.388236	-1.230650
C81	C	1.208381	-0.362841	-1.140190
C82	C	1.275616	-0.329418	-1.085351
C83	C	1.378168	-0.321397	-1.120966
C84	C	1.623099	-0.156678	-0.801886
C85	C	1.690329	-0.123253	-0.747045
C86	C	1.792868	-0.115217	-0.782660
C87	C	1.828182	-0.140602	-0.873124
C88	C	1.760952	-0.174028	-0.927965
C89	C	1.658414	-0.182065	-0.892342
C90	C	1.518148	-0.251837	-0.233157
C91	C	1.518322	-0.251711	-0.116381
H92	H	0.685407	-0.323264	-0.805775
Cl93	Cl	1.670197	-1.064336	-0.354699
H94	H	1.329081	-0.801101	-0.695120
H95	H	0.784952	-0.262519	-0.684111
Cl96	Cl	1.268086	-0.263769	-0.335120
H97	H	1.396461	-1.052275	-0.628011
H98	H	1.023875	-0.116729	-0.392014
H99	H	1.639973	-0.450836	-0.384288
H100	H	1.123410	-0.055993	-0.270300
Cl101	Cl	1.366617	-0.941140	-0.657737
H102	H	1.329028	-0.702051	-0.695106
H103	H	1.396034	-0.450872	-0.627881
H104	H	0.919170	-0.191094	-0.384484
Cl105	Cl	1.231227	-0.297495	-0.971637
H106	H	1.789711	-0.194696	-1.001628
Cl107	Cl	1.366466	-0.327222	-0.882793
H108	H	1.640070	-0.549887	-0.384320
H109	H	1.707400	-0.702001	-0.317224
Cl110	Cl	1.494192	-0.166787	-0.757095
Cl111	Cl	1.737263	-0.813132	-0.287516
Cl112	Cl	1.542392	-0.336700	-1.256195
Cl113	Cl	1.366322	-0.562035	-0.657631
H114	H	1.124880	-0.369377	-1.111205
Cl115	Cl	0.929690	-0.470281	-0.748957
H116	H	1.911676	-0.134056	-0.902127
Cl117	Cl	1.877384	-0.073192	-0.713718
H118	H	1.118197	-0.312568	-0.627796
Cl119	Cl	1.311768	-0.072996	-0.147837
H120	H	1.661564	-0.102579	-0.673391
Cl121	Cl	1.670112	-0.176243	-1.130527
Cl122	Cl	1.159170	-0.430247	-1.299601
Cl123	Cl	0.725605	-0.430676	-0.864389
H124	H	1.640352	-0.953182	-0.384401
H125	H	1.013496	-0.386932	-0.620221
Cl126	Cl	1.392022	-0.188172	-0.183843
H127	H	1.375001	-0.400881	-1.339920
