data_functionalizedCrystal
_audit_creation_method	'MofGen! by Chris Wilmer'
_symmetry_space_group_name_H-M	'P1'
_symmetry_Int_Tables_number	1
_symmetry_cell_setting	triclinic
loop_
_symmetry_equiv_pos_as_xyz
  x,y,z
_cell_length_a	6.817900
_cell_length_b	11.102291
_cell_length_c	11.102233
_cell_angle_alpha	91.950861
_cell_angle_beta	108.604738
_cell_angle_gamma	108.605752
loop_
_atom_site_label
_atom_site_type_symbol
_atom_site_fract_x
_atom_site_fract_y
_atom_site_fract_z
V1	V	-4.111536	-0.396263	-0.175856
O2	O	-4.070571	-0.388716	0.008434
O3	O	-4.088311	-0.393558	-0.348676
O4	O	-4.088321	-0.569086	-0.173158
O5	O	-4.070561	-0.211973	-0.168299
V6	V	-4.588639	-0.374220	-0.153812
O7	O	-4.386879	-0.444617	-0.224211
O8	O	-4.763494	-0.325867	-0.105456
O9	O	-4.388658	-0.376926	0.019009
O10	O	-4.747001	-0.381768	-0.338101
O11	O	-4.747011	-0.558511	-0.161368
O12	O	-4.388648	-0.201398	-0.156509
C13	C	-3.938621	-0.387308	-0.390806
C14	C	-4.001087	-0.386247	-0.532089
C15	C	-3.905106	-0.378396	-0.724744
C16	C	-3.846418	-0.379404	-0.591995
C17	C	-4.214465	-0.392097	-0.604942
C18	C	-4.273155	-0.391098	-0.737689
C19	C	-3.692613	-0.371062	-0.717267
C20	C	-3.633924	-0.372070	-0.584519
C21	C	-3.938633	-0.611209	-0.166913
C22	C	-4.001102	-0.752492	-0.165851
C23	C	-4.214456	-0.825340	-0.171690
C24	C	-4.273128	-0.958087	-0.170667
C25	C	-3.905071	-0.945125	-0.157970
C26	C	-3.846398	-0.812380	-0.158984
C27	C	-4.426954	-0.832826	-0.179026
C28	C	-4.485626	-0.965572	-0.178003
C29	C	-4.201690	-0.383173	0.061132
C30	C	-4.118464	-0.384241	0.202414
C31	C	-4.201678	-0.159268	-0.162758
C32	C	-4.118446	-0.017984	-0.163814
H33	H	-3.597227	-0.276288	-0.741742
H34	H	-4.446429	-0.785727	-0.092765
H35	H	-3.490212	-0.280177	-0.531682
H36	H	-4.522349	-0.808365	-0.273805
H37	H	-4.522088	-0.994671	-0.087766
H38	H	-3.672671	-0.753072	-0.154231
H39	H	-4.629322	-1.018421	-0.269898
H40	H	-3.597452	-0.462302	-0.555410
H41	H	-4.446896	-0.395875	-0.796996
H42	H	-4.340401	-0.397680	-0.556158
H43	H	-3.673142	-0.457328	-0.764360
H44	H	-3.779124	-0.993902	-0.152377
