data_functionalizedCrystal
_audit_creation_method	'MofGen! by Chris Wilmer'
_symmetry_space_group_name_H-M	'P1'
_symmetry_Int_Tables_number	1
_symmetry_cell_setting	triclinic
loop_
_symmetry_equiv_pos_as_xyz
  x,y,z
_cell_length_a	12.759394
_cell_length_b	17.077404
_cell_length_c	17.077396
_cell_angle_alpha	90.019501
_cell_angle_beta	90.026316
_cell_angle_gamma	90.015062
loop_
_atom_site_label
_atom_site_type_symbol
_atom_site_fract_x
_atom_site_fract_y
_atom_site_fract_z
Zn1	Zn	-0.418260	1.200099	0.443855
Zn2	Zn	0.081740	1.700099	0.943855
Zn3	Zn	-0.593961	1.200024	0.312593
Zn4	Zn	-0.093961	1.700024	0.812593
Zn5	Zn	-0.418297	1.068830	0.312602
Zn6	Zn	0.081703	1.568830	0.812602
Zn7	Zn	-0.593898	1.068817	0.443817
Zn8	Zn	-0.093898	1.568817	0.943817
O9	O	-0.506104	1.134442	0.378217
O10	O	-0.006104	1.634442	0.878217
O11	O	-0.441578	1.309936	0.426454
O12	O	0.058422	1.809936	0.926454
O13	O	-0.570700	1.182595	0.202748
O14	O	-0.070700	1.682595	0.702748
O15	O	-0.271271	1.086280	0.330033
O16	O	0.228729	1.586280	0.830033
O17	O	-0.570664	1.309881	0.330017
O18	O	-0.070664	1.809881	0.830017
O19	O	-0.271244	1.182722	0.426463
O20	O	0.228756	1.682722	0.926463
O21	O	-0.441641	1.086208	0.202754
O22	O	0.058359	1.586208	0.702754
O23	O	-0.441580	0.958982	0.329996
O24	O	0.058420	1.458982	0.829996
O25	O	-0.570558	1.086257	0.553669
O26	O	-0.070558	1.586257	1.053669
O27	O	-0.570594	0.958972	0.426399
O28	O	-0.070594	1.458972	0.926399
O29	O	-0.441517	1.182709	0.553697
O30	O	0.058483	1.682709	1.053697
O31	O	-0.740974	1.182582	0.329981
O32	O	-0.240974	1.682582	0.829981
O33	O	-0.740928	1.086185	0.426391
O34	O	-0.240928	1.586185	0.926391
C35	C	-0.506085	0.930495	0.378195
C36	C	-0.006085	1.430495	0.878195
C37	C	-0.506102	0.843245	0.378205
C38	C	-0.006102	1.343245	0.878205
C39	C	-0.573381	0.802270	0.428321
C40	C	-0.073381	1.302270	0.928321
C41	C	-0.573383	0.720290	0.428334
C42	C	-0.073383	1.220290	0.928334
C43	C	-0.506111	0.679285	0.378225
C44	C	-0.006111	1.179285	0.878225
C45	C	-0.438825	0.720266	0.328107
C46	C	0.061175	1.220266	0.828107
C47	C	-0.438818	0.802245	0.328099
C48	C	0.061182	1.302245	0.828099
C49	C	-0.438846	0.549396	0.328125
C50	C	0.061154	1.049396	0.828125
C51	C	-0.438854	0.467411	0.328132
C52	C	0.061146	0.967411	0.828132
C53	C	-0.573411	0.467441	0.428360
C54	C	-0.073411	0.967441	0.928360
C55	C	-0.573404	0.549419	0.428352
C56	C	-0.073404	1.049419	0.928352
C57	C	-0.506119	0.590394	0.378233
C58	C	-0.006119	1.090394	0.878233
C59	C	-0.779072	1.134395	0.378198
C60	C	-0.279072	1.634395	0.878198
C61	C	-0.895848	1.134447	0.378216
C62	C	-0.395848	1.634447	0.878216
C63	C	-0.895843	1.234901	0.277900
C64	C	-0.395843	1.734901	0.777900
C65	C	-0.950701	1.285148	0.227751
C66	C	-0.450701	1.785148	0.727751
C67	C	-1.060422	1.285194	0.227773
C68	C	-0.560422	1.785194	0.727773
C69	C	-1.115288	1.234989	0.277950
C70	C	-0.615288	1.734989	0.777950
C71	C	-1.060430	1.184742	0.328099
C72	C	-0.560430	1.684742	0.828099
C73	C	-0.950706	1.184700	0.328070
C74	C	-0.450706	1.684700	0.828070
C75	C	-1.060436	1.084293	0.428417
C76	C	-0.560436	1.584293	0.928417
C77	C	-0.950714	1.084242	0.428393
C78	C	-0.450714	1.584242	0.928393
C79	C	-1.115302	1.034088	0.478594
C80	C	-0.615302	1.534088	0.978594
C81	C	-1.060444	0.983835	0.528740
C82	C	-0.560444	1.483835	1.028740
C83	C	-0.950716	0.983791	0.528716
C84	C	-0.450716	1.483791	1.028716
C85	C	-0.895856	1.033994	0.478542
C86	C	-0.395856	1.533994	0.978542
C87	C	-0.232071	1.134511	0.378253
C88	C	0.267929	1.634511	0.878253
C89	C	-0.115294	1.134540	0.378269
C90	C	0.384706	1.634540	0.878269
C91	C	-0.506027	1.134490	0.582961
C92	C	-0.006027	1.634490	1.082961
C93	C	-0.505994	1.134510	0.670211
C94	C	-0.005994	1.634510	1.170211
C95	C	-0.506124	1.339187	0.378239
C96	C	-0.006124	1.839187	0.878239
C97	C	-0.506132	1.426436	0.378249
C98	C	-0.006132	1.926436	0.878249
C99	C	-0.506105	1.134440	0.174269
C100	C	-0.006105	1.634440	0.674269
C101	C	-0.505842	1.134572	0.087020
C102	C	-0.005842	1.634572	0.587020
C103	C	-0.438797	1.184735	0.711217
C104	C	0.061203	1.684735	1.211217
C105	C	-0.438762	1.184744	0.793197
C106	C	0.061238	1.684744	1.293197
C107	C	-0.505930	1.134532	0.834171
C108	C	-0.005930	1.634532	1.334171
C109	C	-0.573130	1.084302	0.793159
C110	C	-0.073130	1.584302	1.293159
C111	C	-0.573159	1.084290	0.711180
C112	C	-0.073159	1.584290	1.211180
C113	C	-0.573067	1.084334	0.964029
C114	C	-0.073067	1.584334	1.464029
C115	C	-0.573039	1.084348	1.046014
C116	C	-0.073039	1.584348	1.546014
C117	C	-0.438670	1.184788	1.046047
C118	C	0.061330	1.684788	1.546047
C119	C	-0.438699	1.184776	0.964068
C120	C	0.061301	1.684776	1.464068
C121	C	-0.505900	1.134546	0.923062
C122	C	-0.005900	1.634546	1.423062
H123	H	-0.628169	0.686931	0.469143
H124	H	-0.128169	1.186931	0.969143
H125	H	-0.384028	0.835606	0.287293
H126	H	0.115972	1.335606	0.787293
H127	H	-0.906019	1.326027	0.186899
H128	H	-0.406019	1.826027	0.686899
C129	C	-0.647412	0.594522	0.483470
C130	C	-0.147412	1.094522	0.983470
N131	N	-0.703155	0.628494	0.524986
N132	N	-0.203155	1.128494	1.024986
C133	C	-0.647420	0.422367	0.483497
C134	C	-0.147420	0.922367	0.983497
N135	N	-0.703163	0.388413	0.525023
N136	N	-0.203163	0.888413	1.025023
H137	H	-0.384062	0.434028	0.287339
H138	H	0.115938	0.934028	0.787339
H139	H	-0.806502	1.234858	0.277868
H140	H	-0.306502	1.734858	0.777868
H141	H	-0.384046	0.582755	0.287319
H142	H	0.115954	1.082755	0.787319
H143	H	-1.204643	1.034132	0.478612
H144	H	-0.704643	1.534132	0.978612
H145	H	-0.627731	1.043459	1.079372
H146	H	-0.127731	1.543459	1.579372
C147	C	-0.646996	1.029082	0.918925
C148	C	-0.146996	1.529082	1.418925
N149	N	-0.702684	0.987470	0.884952
N150	N	-0.202684	1.487470	1.384952
H151	H	-0.627816	1.043416	0.826526
H152	H	-0.127816	1.543416	1.326526
C153	C	-1.120768	1.340468	0.172607
C154	C	-0.620768	1.840468	0.672607
N155	N	-1.166220	1.382100	0.131055
N156	N	-0.666220	1.882100	0.631055
H157	H	-0.627867	1.043384	0.677794
H158	H	-0.127867	1.543384	1.177794
H159	H	-0.384010	1.225667	0.930709
H160	H	0.115990	1.725667	1.430709
H161	H	-1.105125	0.942966	0.569594
H162	H	-0.605125	1.442966	1.069594
H163	H	-0.906056	0.942876	0.569557
H164	H	-0.406056	1.442876	1.069557
C165	C	-0.364746	1.240041	1.091154
C166	C	0.135254	1.740041	1.591154
N167	N	-0.309072	1.281657	1.125133
N168	N	0.190928	1.781657	1.625133
H169	H	-1.204629	1.235038	0.277970
H170	H	-0.704629	1.735038	0.777970
C171	C	-0.775160	1.033954	0.478514
C172	C	-0.275160	1.533954	0.978514
N173	N	-0.684249	1.033929	0.478495
N174	N	-0.184249	1.533929	0.978495
C175	C	-0.647387	0.847367	0.483445
C176	C	-0.147387	1.347367	0.983445
N177	N	-0.703128	0.881332	0.524968
N178	N	-0.203128	1.381332	1.024968
H179	H	-0.384047	0.686874	0.287311
H180	H	0.115953	1.186874	0.787311
H181	H	-0.384104	1.225625	0.677862
H182	H	0.115896	1.725625	1.177862
H183	H	-0.384046	1.225644	0.826581
H184	H	0.115954	1.725644	1.326581
