data_functionalizedCrystal
_audit_creation_method	'MofGen! by Chris Wilmer'
_symmetry_space_group_name_H-M	'P1'
_symmetry_Int_Tables_number	1
_symmetry_cell_setting	triclinic
loop_
_symmetry_equiv_pos_as_xyz
  x,y,z
_cell_length_a	21.295418
_cell_length_b	21.295418
_cell_length_c	16.625539
_cell_angle_alpha	90.031685
_cell_angle_beta	90.039782
_cell_angle_gamma	90.043213
loop_
_atom_site_label
_atom_site_type_symbol
_atom_site_fract_x
_atom_site_fract_y
_atom_site_fract_z
Zn1	Zn	0.962345	-0.250342	0.456304
Zn2	Zn	0.962260	-0.355616	0.321463
Zn3	Zn	0.857075	-0.250393	0.321439
Zn4	Zn	0.857043	-0.355607	0.456208
O5	O	0.909681	-0.302990	0.388854
O6	O	1.050423	-0.264289	0.438467
O7	O	0.948285	-0.341683	0.208628
O8	O	0.871088	-0.162297	0.339360
O9	O	1.050361	-0.341633	0.339400
O10	O	0.948429	-0.162260	0.438444
O11	O	0.871006	-0.264377	0.208610
O12	O	0.768982	-0.264368	0.339266
O13	O	0.871034	-0.341618	0.569053
O14	O	0.768958	-0.341667	0.438280
O15	O	0.948398	-0.264281	0.569124
O16	O	0.948254	-0.443704	0.339307
O17	O	0.870952	-0.443697	0.438303
C18	C	0.746129	-0.303023	0.388761
C19	C	0.676161	-0.303052	0.388740
C20	C	0.643299	-0.343355	0.440220
C21	C	0.577556	-0.343340	0.440256
C22	C	0.544679	-0.303028	0.388798
C23	C	0.577549	-0.262716	0.337315
C24	C	0.643290	-0.262729	0.337286
N25	N	0.441406	-0.298112	0.318275
N26	N	0.378955	-0.298104	0.318305
C27	C	0.346604	-0.302987	0.388884
N28	N	0.379064	-0.307891	0.459433
N29	N	0.441521	-0.307903	0.459402
C30	C	0.473393	-0.303010	0.388824
C31	C	0.242456	-0.343276	0.440407
C32	C	0.176712	-0.343256	0.440444
C33	C	0.176706	-0.262636	0.337496
C34	C	0.242449	-0.262653	0.337466
C35	C	0.275320	-0.302976	0.388920
C36	C	0.909607	-0.466541	0.388815
C37	C	0.909633	-0.536509	0.388826
C38	C	0.950083	-1.035950	0.337436
C39	C	0.950059	-0.970207	0.337417
C40	C	0.909769	-0.937349	0.388910
C41	C	0.869489	-0.970238	0.440411
C42	C	0.869510	-1.035979	0.440423
N43	N	0.904877	-0.834096	0.459463
N44	N	0.904861	-0.771644	0.459449
C45	C	0.909704	-0.739274	0.388876
N46	N	0.914576	-0.771714	0.318316
N47	N	0.914595	-0.834171	0.318330
C48	C	0.909742	-0.866063	0.388903
C49	C	0.949953	-0.635107	0.337354
C50	C	0.949924	-0.569363	0.337333
C51	C	0.869357	-0.569395	0.440334
C52	C	0.869382	-0.635138	0.440348
C53	C	0.909683	-0.667990	0.388858
C54	C	1.073871	-0.302957	0.388947
C55	C	1.143839	-0.302943	0.388987
C56	C	0.909722	-0.302943	0.599163
C57	C	0.909739	-0.302923	0.688784
C58	C	0.909772	-0.138799	0.388910
C59	C	0.909811	-0.068831	0.388934
C60	C	0.909676	-0.302991	0.179363
C61	C	0.909781	-0.302833	0.089742
C62	C	0.909768	-0.302852	1.016960
C63	C	0.909758	-0.302874	0.925651
C64	C	0.909754	-0.302888	0.852875
C65	C	0.909744	-0.302908	0.761560
H66	H	0.269206	-0.229836	0.295542
O67	O	0.542099	-0.386835	0.495750
H68	H	0.576001	-0.414886	0.531511
O69	O	0.542098	-0.219235	0.281809
H70	H	0.554666	-0.229969	0.218500
H71	H	0.982717	-0.542591	0.295393
O72	O	0.678741	-0.219269	0.281745
H73	H	0.644838	-0.191238	0.245961
H74	H	0.982898	-1.062694	0.295507
O75	O	0.993430	-0.670542	0.281834
H76	H	0.986691	-0.721781	0.290509
H77	H	0.836683	-0.943481	0.482336
O78	O	0.825900	-0.533966	0.495877
H79	H	0.832654	-0.482727	0.487222
H80	H	0.836715	-1.062751	0.482362
H81	H	0.149938	-0.229810	0.295602
O82	O	0.993517	-0.934735	0.281891
H83	H	0.986734	-0.883501	0.290538
O84	O	0.825949	-0.670610	0.495896
H85	H	0.836715	-0.657952	0.559195
O86	O	0.678750	-0.386837	0.495727
H87	H	0.666071	-0.436226	0.481794
O88	O	0.277917	-0.386756	0.495910
H89	H	0.244018	-0.414772	0.531725
H90	H	0.149957	-0.376075	0.482370
