data_functionalizedCrystal
_audit_creation_method	'MofGen! by Chris Wilmer'
_symmetry_space_group_name_H-M	'P1'
_symmetry_Int_Tables_number	1
_symmetry_cell_setting	triclinic
loop_
_symmetry_equiv_pos_as_xyz
  x,y,z
_cell_length_a	11.169417
_cell_length_b	17.077402
_cell_length_c	11.169409
_cell_angle_alpha	90.037934
_cell_angle_beta	90.022388
_cell_angle_gamma	90.021105
loop_
_atom_site_label
_atom_site_type_symbol
_atom_site_fract_x
_atom_site_fract_y
_atom_site_fract_z
Zn1	Zn	-1.834866	0.312482	-0.678554
Zn2	Zn	-1.501533	0.645816	-0.345221
Zn3	Zn	-1.168200	0.979149	-0.011887
Zn4	Zn	-1.834709	0.443776	-0.477851
Zn5	Zn	-1.501376	0.777109	-0.144518
Zn6	Zn	-1.168043	1.110442	0.188816
Zn7	Zn	-1.634150	0.312524	-0.477882
Zn8	Zn	-1.300816	0.645857	-0.144549
Zn9	Zn	-0.967483	0.979191	0.188785
Zn10	Zn	-1.634116	0.443706	-0.678490
Zn11	Zn	-1.300783	0.777039	-0.345156
Zn12	Zn	-0.967449	1.110373	-0.011823
O13	O	-1.734460	0.378122	-0.578194
O14	O	-1.401127	0.711455	-0.244861
O15	O	-1.067794	1.044789	0.088473
O16	O	-2.002795	0.329910	-0.651944
O17	O	-1.669462	0.663244	-0.318611
O18	O	-1.336129	0.996577	0.014722
O19	O	-1.808053	0.426412	-0.309905
O20	O	-1.474720	0.759745	0.023428
O21	O	-1.141386	1.093078	0.356761
O22	O	-1.660855	0.202671	-0.504541
O23	O	-1.327522	0.536005	-0.171208
O24	O	-0.994189	0.869338	0.162125
O25	O	-2.002680	0.426371	-0.504489
O26	O	-1.669346	0.759705	-0.171155
O27	O	-1.336013	1.093038	0.162178
O28	O	-1.808321	0.202641	-0.651974
O29	O	-1.474988	0.535974	-0.318641
O30	O	-1.141654	0.869308	0.014692
O31	O	-1.660703	0.329981	-0.309928
O32	O	-1.327369	0.663315	0.023405
O33	O	-0.994036	0.996648	0.356739
O34	O	-1.466196	0.329914	-0.504479
O35	O	-1.132862	0.663247	-0.171146
O36	O	-0.799529	0.996580	0.162188
O37	O	-1.660798	0.426252	-0.846448
O38	O	-1.327464	0.759586	-0.513115
O39	O	-0.994131	1.092919	-0.179781
O40	O	-1.466171	0.426293	-0.651864
O41	O	-1.132837	0.759626	-0.318531
O42	O	-0.799504	1.092959	0.014802
O43	O	-1.808288	0.329843	-0.846495
O44	O	-1.474955	0.663176	-0.513162
O45	O	-1.141621	0.996509	-0.179829
O46	O	-1.808020	0.553613	-0.504426
O47	O	-1.474687	0.886947	-0.171093
O48	O	-1.141354	1.220280	0.162240
O49	O	-1.660645	0.553562	-0.651834
O50	O	-1.327312	0.886895	-0.318501
O51	O	-0.993978	1.220229	0.014832
C52	C	-1.422636	0.378101	-0.578169
C53	C	-1.089302	0.711434	-0.244835
C54	C	-0.755969	1.044767	0.088498
C55	C	-1.289236	0.378110	-0.578186
C56	C	-0.955902	0.711444	-0.244853
C57	C	-0.622569	1.044777	0.088480
C58	C	-1.734345	0.582070	-0.578146
C59	C	-1.401011	0.915403	-0.244813
C60	C	-1.067678	1.248737	0.088520
C61	C	-1.734405	0.669320	-0.578166
C62	C	-1.401071	1.002653	-0.244832
C63	C	-1.067738	1.335986	0.088501
C64	C	-1.734557	0.378035	-0.891237
C65	C	-1.401223	0.711368	-0.557903
C66	C	-1.067890	1.044702	-0.224570
C67	C	-1.734598	0.377998	-1.024637
C68	C	-1.401264	0.711331	-0.691303
C69	C	-1.067931	1.044665	-0.357970
C70	C	-1.047503	0.378136	-0.578212
C71	C	-0.714169	0.711470	-0.244879
C72	C	-0.380836	1.044803	0.088454
C73	C	-1.180903	0.378123	-0.578200
C74	C	-0.847569	0.711456	-0.244866
C75	C	-0.514236	1.044790	0.088467
C76	C	-1.734609	0.173378	-0.578268
C77	C	-1.401276	0.506711	-0.244935
C78	C	-1.067943	0.840044	0.088398
C79	C	-1.734673	0.086128	-0.578300
C80	C	-1.401340	0.419461	-0.244967
C81	C	-1.068006	0.752795	0.088367
C82	C	-1.811221	0.710310	-0.501493
C83	C	-1.477888	1.043644	-0.168159
C84	C	-1.144555	1.376977	0.165174
C85	C	-1.811280	0.792291	-0.501523
C86	C	-1.477947	1.125624	-0.168190
C87	C	-1.144613	1.458958	0.165143
C88	C	-1.734515	0.833279	-0.578222
C89	C	-1.401182	1.166612	-0.244889
C90	C	-1.067849	1.499946	0.088445
C91	C	-1.657695	0.792282	-0.654903
C92	C	-1.324362	1.125616	-0.321570
C93	C	-0.991029	1.458949	0.011763
C94	C	-1.657643	0.710304	-0.654878
C95	C	-1.324310	1.043637	-0.321545
C96	C	-0.990977	1.376970	0.011789
C97	C	-1.657806	0.963152	-0.654949
C98	C	-1.324473	1.296486	-0.321616
C99	C	-0.991140	1.629819	0.011718
C100	C	-1.657856	1.045137	-0.654973
C101	C	-1.324523	1.378470	-0.321640
C102	C	-0.991190	1.711804	0.011693
C103	C	-1.811443	1.045140	-0.501594
C104	C	-1.478110	1.378473	-0.168261
C105	C	-1.144776	1.711806	0.165072
C106	C	-1.811391	0.963161	-0.501569
C107	C	-1.478058	1.296494	-0.168236
C108	C	-1.144725	1.629828	0.165098
C109	C	-1.734569	0.922170	-0.578249
C110	C	-1.401236	1.255503	-0.244916
C111	C	-1.067903	1.588837	0.088417
C112	C	-1.734434	0.378152	-0.266369
C113	C	-1.401100	0.711485	0.066964
C114	C	-1.067767	1.044819	0.400297
C115	C	-1.734625	0.377968	-0.132970
C116	C	-1.401292	0.711301	0.200363
C117	C	-1.067958	1.044635	0.533697
H118	H	-1.873727	0.676943	-0.439031
H119	H	-1.540393	1.010277	-0.105698
H120	H	-1.207060	1.343610	0.227636
Cl121	Cl	-1.907858	0.843819	-0.405134
Cl122	Cl	-1.574525	1.177152	-0.071800
Cl123	Cl	-1.241191	1.510485	0.261533
H124	H	-1.595254	0.929780	-0.717394
H125	H	-1.261920	1.263114	-0.384061
H126	H	-0.928587	1.596447	-0.050728
Cl127	Cl	-1.908008	1.096671	-0.405185
Cl128	Cl	-1.574674	1.430004	-0.071852
Cl129	Cl	-1.241341	1.763337	0.261482
Cl130	Cl	-1.907897	0.911634	-0.405146
Cl131	Cl	-1.574564	1.244967	-0.071813
Cl132	Cl	-1.241230	1.578300	0.261520
H133	H	-1.595370	1.078507	-0.717450
H134	H	-1.262037	1.411841	-0.384117
H135	H	-0.928703	1.745174	-0.050784
Cl136	Cl	-1.561197	0.843811	-0.751332
Cl137	Cl	-1.227864	1.177144	-0.417999
Cl138	Cl	-0.894530	1.510477	-0.084665
H139	H	-1.595093	0.676930	-0.717314
H140	H	-1.261760	1.010263	-0.383981
H141	H	-0.928427	1.343596	-0.050648
