data_functionalizedCrystal
_audit_creation_method	'MofGen! by Chris Wilmer'
_symmetry_space_group_name_H-M	'P1'
_symmetry_Int_Tables_number	1
_symmetry_cell_setting	triclinic
loop_
_symmetry_equiv_pos_as_xyz
  x,y,z
_cell_length_a	9.065215
_cell_length_b	16.992695
_cell_length_c	8.140239
_cell_angle_alpha	89.996131
_cell_angle_beta	89.997810
_cell_angle_gamma	87.841460
loop_
_atom_site_label
_atom_site_type_symbol
_atom_site_fract_x
_atom_site_fract_y
_atom_site_fract_z
O1	O	1.971074	0.115055	-0.136597
O2	O	2.471074	0.615055	0.363403
O3	O	1.542665	0.124495	-0.136604
O4	O	2.042665	0.624495	0.363396
O5	O	1.755152	0.005620	-0.136587
O6	O	2.255152	0.505620	0.363413
O7	O	1.758587	0.233930	-0.136613
O8	O	2.258587	0.733930	0.363387
O9	O	1.755140	0.005619	0.136640
O10	O	2.255140	0.505619	0.636640
O11	O	1.542652	0.124494	0.136623
O12	O	2.042652	0.624494	0.636623
O13	O	1.971062	0.115053	0.136630
O14	O	2.471062	0.615053	0.636630
Zn15	Zn	1.756855	0.119773	0.180007
Zn16	Zn	2.256855	0.619773	0.680007
Zn17	Zn	1.756872	0.119775	-0.179981
Zn18	Zn	2.256872	0.619775	0.320019
O19	O	1.758575	0.233928	0.136614
O20	O	2.258575	0.733928	0.636614
C21	C	1.487588	0.123588	0.000008
C22	C	1.987588	0.623588	0.500008
C23	C	1.323493	0.120876	0.000006
C24	C	1.823493	0.620876	0.500006
C25	C	1.750727	-0.023625	0.000026
C26	C	2.250727	0.476375	0.500026
C27	C	1.737544	-0.110762	0.000025
C28	C	2.237544	0.389238	0.500025
C29	C	1.864750	-0.160100	0.000029
C30	C	2.364750	0.339900	0.500029
C31	C	1.852353	-0.241975	0.000013
C32	C	2.352353	0.258025	0.500013
C33	C	1.712749	-0.274510	0.000005
C34	C	2.212749	0.225490	0.500005
C35	C	1.585534	-0.225166	-0.000004
C36	C	2.085534	0.274834	0.499996
C37	C	1.597932	-0.143293	0.000000
C38	C	2.097932	0.356707	0.500000
C39	C	1.661366	-0.518472	-0.000018
C40	C	2.161366	-0.018472	0.499982
C41	C	1.648977	-0.600352	-0.000017
C42	C	2.148977	-0.100352	0.499983
C43	C	1.915798	-0.617155	-0.000003
C44	C	2.415798	-0.117155	0.499997
C45	C	1.928183	-0.535280	0.000010
C46	C	2.428183	-0.035280	0.500010
C47	C	1.800968	-0.485943	-0.000007
C48	C	2.300968	0.014057	0.499993
N49	N	1.700075	-0.358199	-0.000006
N50	N	2.200075	0.141801	0.499994
N51	N	1.813644	-0.402256	-0.000008
N52	N	2.313644	0.097744	0.499992
C53	C	2.026139	0.115961	0.000014
C54	C	2.526139	0.615961	0.500014
C55	C	2.190234	0.118672	0.000006
C56	C	2.690234	0.618672	0.500006
C57	C	1.762999	0.263173	-0.000003
C58	C	2.262999	0.763173	0.499997
C59	C	1.776183	0.350311	-0.000013
C60	C	2.276183	0.850311	0.499987
N61	N	1.756854	0.119771	0.425690
N62	N	2.256854	0.619771	0.925690
N63	N	1.756883	0.119771	-0.425664
N64	N	2.256883	0.619771	0.074336
H65	H	1.978430	-0.133617	0.000046
H66	H	2.478430	0.366383	0.500046
N67	N	1.989553	-0.295190	0.000027
N68	N	2.489553	0.204810	0.500027
H69	H	2.079872	-0.262156	0.000048
H70	H	2.579872	0.237844	0.500048
H71	H	1.990202	-0.329529	0.101316
H72	H	2.490202	0.170471	0.601316
H73	H	1.494347	-0.103122	-0.000003
H74	H	1.994347	0.396878	0.499997
H75	H	2.041863	-0.508796	0.000017
H76	H	2.541863	-0.008796	0.500017
N77	N	2.053007	-0.670363	-0.000010
N78	N	2.553007	-0.170363	0.499990
H79	H	2.113483	-0.659792	0.101276
H80	H	2.613483	-0.159792	0.601276
H81	H	2.023863	-0.727146	-0.000079
H82	H	2.523863	-0.227146	0.499921
N83	N	1.524158	-0.465267	-0.000027
N84	N	2.024158	0.034733	0.499973
H85	H	1.523356	-0.430924	-0.101318
H86	H	2.023356	0.069076	0.398682
H87	H	1.433924	-0.498361	0.000034
H88	H	1.933924	0.001639	0.500034
H89	H	1.535290	-0.626838	0.000003
H90	H	2.035290	-0.126838	0.500003
N91	N	1.434958	-0.260253	-0.000023
N92	N	1.934958	0.239747	0.499977
H93	H	1.446404	-0.319606	-0.000019
H94	H	1.946404	0.180394	0.499981
H95	H	1.378863	-0.242274	0.101264
H96	H	1.878863	0.257726	0.601264
