data_functionalizedCrystal
_audit_creation_method	'MofGen! by Chris Wilmer'
_symmetry_space_group_name_H-M	'P1'
_symmetry_Int_Tables_number	1
_symmetry_cell_setting	triclinic
loop_
_symmetry_equiv_pos_as_xyz
  x,y,z
_cell_length_a	25.993458
_cell_length_b	25.993459
_cell_length_c	25.993511
_cell_angle_alpha	59.998162
_cell_angle_beta	89.999156
_cell_angle_gamma	60.000225
loop_
_atom_site_label
_atom_site_type_symbol
_atom_site_fract_x
_atom_site_fract_y
_atom_site_fract_z
O1	O	-0.438486	-0.368218	0.015293
O2	O	-0.363675	-0.262871	-0.015241
O3	O	-0.363672	-0.368217	0.090105
O4	O	-0.438489	-0.262872	-0.090053
O5	O	-0.278107	-0.453782	0.090105
O6	O	-0.278110	-0.348435	-0.015242
O7	O	-0.352922	-0.453782	0.015293
Cu8	Cu	-0.307703	-0.408922	0.000026
Cu9	Cu	-0.408893	-0.307732	0.000026
O10	O	-0.352925	-0.348436	-0.090054
C11	C	-0.277316	-0.161982	-0.022175
C12	C	-0.309062	-0.098492	-0.017804
C13	C	-0.215401	-0.192794	-0.022608
C14	C	-0.277319	-0.255138	-0.022182
C15	C	-0.309067	-0.291250	-0.017818
C16	C	-0.215403	-0.285808	-0.022615
C17	C	-0.184156	-0.255142	-0.022175
C18	C	-0.116294	-0.291259	-0.017803
C19	C	-0.308422	-0.192790	-0.022615
C20	C	-0.621955	-0.565869	0.037072
C21	C	-0.590709	-0.628219	0.037508
C22	C	-0.528796	-0.565867	0.037069
C23	C	-0.497692	-0.628217	0.037505
C24	C	-0.528795	-0.659029	0.037072
C25	C	-0.590710	-0.535199	0.037505
C26	C	-0.722642	-0.464940	0.029513
C27	C	-0.786264	-0.430643	0.024742
C28	C	-0.818173	-0.460083	0.022351
C29	C	-0.887157	-0.422897	0.017175
C30	C	-0.786465	-0.523827	0.024735
C31	C	-0.722845	-0.558124	0.029508
C32	C	-0.690936	-0.528678	0.031894
C33	C	-0.529037	-0.752158	0.029515
C34	C	-0.499712	-0.811010	0.024744
C35	C	-0.438364	-0.840525	0.022349
C36	C	-0.406566	-0.904333	0.017173
C37	C	-0.406330	-0.811198	0.024730
C38	C	-0.435652	-0.752352	0.029503
C39	C	-0.497006	-0.722832	0.031893
C40	C	-0.529039	-0.464935	0.029505
C41	C	-0.499717	-0.430630	0.024723
C42	C	-0.438369	-0.460069	0.022328
C43	C	-0.406571	-0.422880	0.017149
C44	C	-0.406337	-0.523807	0.024709
C45	C	-0.435656	-0.558111	0.029489
C46	C	-0.497007	-0.528673	0.031887
C47	C	-0.528800	-0.150795	-0.471170
C48	C	-0.590715	-0.088445	-0.502276
C49	C	-0.528801	-0.150794	-0.378010
C50	C	-0.590716	-0.088444	-0.409257
C51	C	-0.621962	-0.057634	-0.471172
C52	C	-0.497696	-0.181464	-0.409255
C53	C	-0.435430	-0.251726	-0.470926
C54	C	-0.405903	-0.286024	-0.500250
C55	C	-0.437736	-0.256585	-0.561599
C56	C	-0.405725	-0.293773	-0.593395
C57	C	-0.499096	-0.192842	-0.593635
C58	C	-0.528620	-0.158544	-0.564313
C59	C	-0.496787	-0.187988	-0.502959
C60	C	-0.722649	0.035493	-0.564543
C61	C	-0.786272	0.094345	-0.594071
C62	C	-0.818182	0.123861	-0.562238
C63	C	-0.887167	0.187669	-0.594249
C64	C	-0.786474	0.094536	-0.500878
C65	C	-0.722854	0.035690	-0.471354
C66	C	-0.690944	0.006168	-0.503186
C67	C	-0.435431	-0.251724	-0.277321
C68	C	-0.405908	-0.286027	-0.213695
C69	C	-0.437741	-0.256588	-0.181786
C70	C	-0.405731	-0.293774	-0.112801
C71	C	-0.499099	-0.192850	-0.213493
C72	C	-0.528625	-0.158547	-0.277116
C73	C	-0.496788	-0.187987	-0.309028
O74	O	0.090091	-0.453793	0.015309
O75	O	-0.090066	-0.348444	-0.015226
O76	O	0.015273	-0.453795	0.090120
O77	O	-0.015248	-0.348442	-0.090038
O78	O	0.015276	-0.368235	0.090127
O79	O	-0.090063	-0.262884	-0.015220
O80	O	0.090094	-0.368232	0.015315
Cu81	Cu	0.000016	-0.307746	0.000048
Cu82	Cu	0.000012	-0.408931	0.000041
O83	O	-0.015245	-0.262881	-0.090031
O84	O	-0.352917	0.074778	0.015314
O85	O	-0.278103	-0.074844	-0.015220
O86	O	-0.278107	-0.074853	0.090126
O87	O	-0.352914	0.074787	-0.090033
O88	O	-0.363674	-0.074850	0.090119
O89	O	-0.363670	-0.074840	-0.015227
O90	O	-0.438484	0.074782	0.015307
Cu91	Cu	-0.408890	-0.000029	0.000039
Cu92	Cu	-0.307697	-0.000033	0.000047
O93	O	-0.438481	0.074791	-0.090039
O94	O	-1.090075	0.358185	-0.636308
O95	O	-0.909918	0.208556	-0.561490
O96	O	-1.015259	0.208553	-0.561488
O97	O	-0.984734	0.358188	-0.636310
O98	O	-1.015257	0.208552	-0.647052
O99	O	-0.909916	0.208554	-0.647054
O100	O	-1.090073	0.358183	-0.721872
Cu101	Cu	-0.999994	0.283368	-0.692275
Cu102	Cu	-0.999997	0.283371	-0.591086
O103	O	-0.984732	0.358186	-0.721874
O104	O	-0.363672	-0.368217	-0.721856
O105	O	-0.438486	-0.262875	-0.647043
O106	O	-0.438485	-0.368220	-0.647039
O107	O	-0.363673	-0.262872	-0.721860
O108	O	-0.352919	-0.453785	-0.561473
O109	O	-0.352920	-0.348441	-0.561477
O110	O	-0.278106	-0.453783	-0.636290
Cu111	Cu	-0.307700	-0.408925	-0.591071
Cu112	Cu	-0.408892	-0.307733	-0.692262
O113	O	-0.278107	-0.348438	-0.636294
C114	C	-0.184157	-0.554680	0.277358
C115	C	-0.116295	-0.618172	0.309104
C116	C	-0.215402	-0.523869	0.308461
C117	C	-0.277317	-0.461519	0.184196
C118	C	-0.309064	-0.425404	0.116335
C119	C	-0.308422	-0.430850	0.215442
C120	C	-0.277317	-0.461519	0.277356
C121	C	-0.309064	-0.425404	0.309102
C122	C	-0.215403	-0.523869	0.215443
C123	C	0.022216	-0.461546	0.277378
C124	C	0.017847	-0.425434	0.309127
C125	C	0.022649	-0.523895	0.308480
C126	C	0.022218	-0.461539	0.184215
C127	C	0.017852	-0.425421	0.116353
C128	C	0.022651	-0.523888	0.215458
C129	C	0.022213	-0.554702	0.277373
C130	C	0.017842	-0.618193	0.309116
C131	C	0.022654	-0.430874	0.215464
C132	C	-0.277320	-0.255179	0.277365
C133	C	-0.309067	-0.291295	0.309105
C134	C	-0.215404	-0.285854	0.308471
C135	C	-0.277318	-0.162008	0.184211
C136	C	-0.309065	-0.098506	0.116351
C137	C	-0.215403	-0.192825	0.215459
C138	C	-0.184157	-0.255183	0.277372
C139	C	-0.116295	-0.291304	0.309120
C140	C	-0.308424	-0.192820	0.215452
C141	C	-0.036996	-0.057627	-0.471149
C142	C	-0.037431	-0.088434	-0.502256
C143	C	-0.037001	-0.150789	-0.377991
C144	C	-0.037436	-0.181455	-0.409239
C145	C	-0.036998	-0.150783	-0.471154
C146	C	-0.037433	-0.088440	-0.409234
C147	C	-0.029433	0.035497	-0.470902
C148	C	-0.024659	0.094348	-0.500225
C149	C	-0.022263	0.123866	-0.561574
C150	C	-0.017083	0.187673	-0.593369
C151	C	-0.024646	0.094544	-0.593611
C152	C	-0.029422	0.035698	-0.564291
C153	C	-0.031813	0.006175	-0.502936
C154	C	-0.029436	-0.158096	-0.564526
C155	C	-0.024665	-0.192189	-0.594055
C156	C	-0.022273	-0.255931	-0.562224
C157	C	-0.017096	-0.292903	-0.594236
C158	C	-0.024659	-0.285585	-0.500864
C159	C	-0.029433	-0.251492	-0.471338
C160	C	-0.031819	-0.187750	-0.503169
C161	C	-0.029443	-0.158113	-0.277301
C162	C	-0.024666	-0.192218	-0.213674
C163	C	-0.022275	-0.255960	-0.181767
C164	C	-0.017101	-0.292938	-0.112782
C165	C	-0.024655	-0.285608	-0.213475
C166	C	-0.029430	-0.251509	-0.277098
C167	C	-0.031824	-0.187761	-0.309009
O168	O	-0.015283	-0.348468	0.438547
O169	O	0.015263	-0.453813	0.363734
O170	O	-0.090086	-0.348466	0.363721
O171	O	0.090067	-0.453815	0.438560
O172	O	-0.090076	-0.262903	0.278160
O173	O	0.015274	-0.368250	0.278173
O174	O	-0.015273	-0.262904	0.352986
Cu175	Cu	0.000001	-0.307764	0.307767
Cu176	Cu	-0.000011	-0.408953	0.408953
O177	O	0.090077	-0.368251	0.352999
C178	C	-0.621954	0.434195	-0.471145
C179	C	-0.590708	0.464866	-0.502245
C180	C	-0.528793	0.341020	-0.377984
C181	C	-0.497688	0.371833	-0.409225
C182	C	-0.528792	0.434191	-0.471138
C183	C	-0.590709	0.371836	-0.409233
C184	C	-0.722643	0.441515	-0.470910
C185	C	-0.786267	0.475617	-0.500237
C186	C	-0.818176	0.539368	-0.561584
C187	C	-0.887162	0.576348	-0.593384
C188	C	-0.786467	0.569022	-0.593614
C189	C	-0.722846	0.534920	-0.564289
C190	C	-0.690937	0.471170	-0.502938
C191	C	-0.529033	0.535130	-0.564499
C192	C	-0.499707	0.569430	-0.594020
C193	C	-0.438357	0.539984	-0.562184
C194	C	-0.406558	0.577173	-0.594188
C195	C	-0.406323	0.476234	-0.500827
C196	C	-0.435646	0.441934	-0.471308
C197	C	-0.497001	0.471385	-0.503145
C198	C	-0.529036	0.247880	-0.277303
C199	C	-0.499713	0.189024	-0.213679
C200	C	-0.438364	0.159502	-0.181766
C201	C	-0.406566	0.095685	-0.112783
C202	C	-0.406331	0.188830	-0.213467
C203	C	-0.435651	0.247685	-0.277089
C204	C	-0.497003	0.277207	-0.309004
H205	H	-0.190318	-0.167005	-0.023309
H206	H	-0.190315	-0.549659	0.359334
Br207	Br	-0.393209	-0.149840	0.173631
H208	H	-0.409570	-0.728473	0.031438
H209	H	-0.578988	0.559109	-0.590430
Br210	Br	-0.392186	-0.644610	0.032716
H211	H	-0.359291	-0.380672	0.190350
H212	H	-0.356374	-0.835235	0.022774
H213	H	-0.525011	-0.168874	-0.643593
Br214	Br	0.023821	-0.347252	0.173653
Br215	Br	-0.323074	-0.563759	0.021452
H216	H	-0.022713	-0.337491	-0.474950
Br217	Br	-0.679344	-0.004568	-0.607748
H218	H	-0.190320	-0.335979	-0.023316
H219	H	-0.190317	-0.167038	0.190373
H220	H	-0.525801	-0.834882	0.022808
Br221	Br	0.023819	-0.566883	0.393270
Br222	Br	-0.173596	-0.566848	0.173633
Br223	Br	-0.632533	-0.045476	-0.587059
Br224	Br	-0.829292	-0.344140	0.021506
Br225	Br	-0.173612	-0.369446	0.393276
H226	H	-0.615803	0.346061	-0.384148
Br227	Br	0.023813	-0.566860	0.173644
H228	H	-0.038138	-0.231626	-0.384153
Br229	Br	-0.038601	-0.045451	-0.587046
Br230	Br	-0.038590	-0.045476	-0.367415
Br231	Br	-0.392225	-0.291686	-0.387659
Br232	Br	-0.829296	0.134143	-0.677343
H233	H	-0.578992	-0.440963	0.031461
H234	H	-0.022734	-0.168068	-0.187865
H235	H	-0.359295	-0.166998	-0.023320
Br236	Br	-0.412906	-0.671193	0.038666
Br237	Br	-0.032677	-0.071586	-0.607729
Br238	Br	-0.611878	-0.072020	-0.607797
Br239	Br	-0.032697	-0.071595	-0.320607
H240	H	-0.031386	0.011466	-0.420946
Br241	Br	-0.032686	-0.291721	-0.388075
H242	H	-0.022720	0.118216	-0.474136
H243	H	-0.022694	0.118587	-0.643568
Br244	Br	-0.032662	-0.004092	-0.607766
Br245	Br	-0.829785	0.134603	-0.457678
H246	H	-0.022725	-0.168036	-0.644015
Br247	Br	-0.632527	-0.045460	-0.367452
Br248	Br	-0.032651	-0.291751	-0.320129
H249	H	-0.615797	-0.654004	0.038210
Br250	Br	-0.021407	-0.372124	-0.170169
Br251	Br	-0.412893	0.328837	-0.367420
Br252	Br	-0.632512	0.548490	-0.587034
H253	H	-0.615799	-0.485024	0.038200
H254	H	-0.525022	-0.168881	-0.187507
H255	H	-0.409562	0.390028	-0.421351
H256	H	-0.525803	-0.378735	0.022786
Br257	Br	-0.679338	-0.424976	0.032753
Br258	Br	-0.543188	0.149226	-0.170659
Br259	Br	-0.679820	-0.004107	-0.388085
H260	H	-0.812456	-0.547794	0.022786
H261	H	-0.578991	0.271911	-0.303287
Br262	Br	-0.679809	-0.644636	0.032756
Br263	Br	-0.679338	0.354991	-0.387649
Br264	Br	-0.829294	0.435371	-0.456771
Br265	Br	-0.612302	-0.712100	0.032762
Br266	Br	-0.412911	-0.265092	-0.367438
H267	H	-0.812458	0.620936	-0.643570
Br268	Br	-0.679810	0.575155	-0.607756
Br269	Br	-0.322639	-0.372527	-0.170668
H270	H	-0.525795	0.621334	-0.643978
H271	H	-0.356363	0.452259	-0.474909
H272	H	-0.409566	0.271563	-0.302898
H273	H	-0.409504	-0.275698	-0.303301
H274	H	-0.355944	-0.337920	-0.474163
Br275	Br	-0.611898	-0.072049	-0.320147
Br276	Br	-0.323065	0.148766	-0.170154
