data_functionalizedCrystal
_audit_creation_method	'MofGen! by Chris Wilmer'
_symmetry_space_group_name_H-M	'P1'
_symmetry_Int_Tables_number	1
_symmetry_cell_setting	triclinic
loop_
_symmetry_equiv_pos_as_xyz
  x,y,z
_cell_length_a	14.519709
_cell_length_b	9.730223
_cell_length_c	10.654550
_cell_angle_alpha	89.995869
_cell_angle_beta	95.917476
_cell_angle_gamma	89.995074
loop_
_atom_site_label
_atom_site_type_symbol
_atom_site_fract_x
_atom_site_fract_y
_atom_site_fract_z
O1	O	1.224716	0.114107	-0.164625
O2	O	1.724716	0.614107	0.335375
O3	O	0.956339	0.114149	-0.184011
O4	O	1.456339	0.614149	0.315989
O5	O	1.096698	0.114122	0.008481
O6	O	1.596698	0.614122	0.508481
O7	O	1.084357	0.114134	-0.357117
O8	O	1.584357	0.614134	0.142883
O9	O	1.096696	-0.114458	0.008490
O10	O	1.596696	0.385542	0.508490
O11	O	0.956338	-0.114431	-0.184002
O12	O	1.456338	0.385569	0.315998
O13	O	1.224714	-0.114473	-0.164615
O14	O	1.724714	0.385527	0.335385
Zn15	Zn	1.090526	-0.150744	-0.174307
Zn16	Zn	1.590526	0.349256	0.325693
Zn17	Zn	1.090528	0.150420	-0.174320
Zn18	Zn	1.590528	0.650420	0.325680
O19	O	1.084355	-0.114446	-0.357107
O20	O	1.584355	0.385554	0.142893
C21	C	0.921974	-0.000136	-0.183103
C22	C	1.421974	0.499864	0.316897
C23	C	0.819579	-0.000120	-0.180396
C24	C	1.319579	0.499880	0.319604
N25	N	1.090531	-0.356280	-0.174298
N26	N	1.590531	0.143720	0.325702
C27	C	1.095791	-0.000166	0.055275
C28	C	1.595791	0.499834	0.555275
C29	C	1.093080	-0.000161	0.194692
C30	C	1.593080	0.499839	0.694692
C31	C	0.444631	-0.000183	-0.170428
C32	C	0.944631	0.499817	0.329572
C33	C	0.548954	-0.000165	-0.173196
C34	C	1.048954	0.499835	0.326804
C35	C	0.632102	-0.000150	-0.175412
C36	C	1.132102	0.499850	0.324588
C37	C	0.736431	-0.000135	-0.178180
C38	C	1.236431	0.499865	0.321820
C39	C	1.259079	-0.000185	-0.165524
C40	C	1.759079	0.499815	0.334476
C41	C	1.361475	-0.000192	-0.168231
C42	C	1.861475	0.499808	0.331769
N43	N	1.090530	0.355956	-0.174319
N44	N	1.590530	0.855956	0.325681
C45	C	1.152798	0.427871	-0.089249
C46	C	1.652798	0.927871	0.410751
C47	C	1.152801	0.571754	-0.089241
C48	C	1.652801	1.071754	0.410759
C49	C	1.028260	0.571795	-0.259377
C50	C	1.528260	1.071795	0.240623
C51	C	1.028262	0.427915	-0.259390
C52	C	1.528262	0.927915	0.240610
C53	C	1.224698	0.427848	0.008982
C54	C	1.724698	0.927848	0.508982
C55	C	1.224700	0.571731	0.008990
C56	C	1.724700	1.071731	0.508990
C57	C	1.085262	-0.000155	-0.403901
C58	C	1.585262	0.499845	0.096099
C59	C	1.087973	-0.000151	-0.543318
C60	C	1.587973	0.499849	-0.043318
C61	C	1.175721	-0.000178	0.274972
C62	C	1.675721	0.499822	0.774972
C63	C	1.173168	-0.000168	0.405968
C64	C	1.673168	0.499832	0.905968
C65	C	1.005326	-0.000130	0.376391
C66	C	1.505326	0.499870	0.876391
C67	C	1.007880	-0.000130	0.245397
C68	C	1.507880	0.499870	0.745397
C69	C	1.272623	-0.000206	0.292049
C70	C	1.772623	0.499794	0.792049
C71	C	1.270070	-0.000196	0.423046
C72	C	1.770070	0.499804	0.923046
H73	H	0.977567	0.369364	-0.328671
H74	H	1.477567	0.869364	0.171329
H75	H	0.935959	-0.000103	0.417692
H76	H	1.435959	0.499897	0.917692
F77	F	1.308348	0.128795	0.483074
F78	F	1.808348	0.628795	0.983074
H79	H	0.940586	-0.000097	0.180037
H80	H	1.440586	0.499903	0.680037
F81	F	1.322164	0.124810	0.254141
F82	F	1.822164	0.624810	0.754141
H83	H	0.977564	0.630400	-0.328640
H84	H	1.477564	1.130400	0.171360
H85	H	1.291611	0.616354	-0.021115
H86	H	1.791611	1.116354	0.478885
F87	F	1.204295	0.622757	0.135048
F88	F	1.704295	1.122757	0.635048
H89	H	1.202414	0.383204	0.100047
H90	H	1.702414	0.883204	0.600047
F91	F	1.317275	0.376803	-0.018485
F92	F	1.817275	0.876803	0.481515
F93	F	1.312942	-0.129221	0.245867
F94	F	1.812942	0.370779	0.745867
F95	F	1.317789	-0.125233	0.478099
F96	F	1.817789	0.374767	0.978099
