data_functionalizedCrystal
_audit_creation_method	'MofGen! by Chris Wilmer'
_symmetry_space_group_name_H-M	'P1'
_symmetry_Int_Tables_number	1
_symmetry_cell_setting	triclinic
loop_
_symmetry_equiv_pos_as_xyz
  x,y,z
_cell_length_a	14.044220
_cell_length_b	14.044190
_cell_length_c	13.448316
_cell_angle_alpha	89.988796
_cell_angle_beta	89.998357
_cell_angle_gamma	93.190328
loop_
_atom_site_label
_atom_site_type_symbol
_atom_site_fract_x
_atom_site_fract_y
_atom_site_fract_z
O1	O	1.277177	0.230171	-0.082606
O2	O	1.610510	0.563504	0.250727
O3	O	1.943844	0.896837	0.584060
O4	O	1.000505	0.221865	-0.082631
O5	O	1.333839	0.555198	0.250703
O6	O	1.667172	0.888532	0.584036
O7	O	1.134685	0.087682	-0.082599
O8	O	1.468018	0.421015	0.250734
O9	O	1.801351	0.754348	0.584067
O10	O	1.142997	0.364354	-0.082638
O11	O	1.476331	0.697688	0.250696
O12	O	1.809664	1.031021	0.584029
O13	O	1.134666	0.087671	0.082785
O14	O	1.467999	0.421004	0.416118
O15	O	1.801332	0.754338	0.749451
O16	O	1.000486	0.221855	0.082753
O17	O	1.333819	0.555188	0.416086
O18	O	1.667153	0.888521	0.749420
O19	O	1.277158	0.230160	0.082778
O20	O	1.610491	0.563494	0.416111
O21	O	1.943824	0.896827	0.749444
Cu22	Cu	1.138820	0.226006	0.097866
Cu23	Cu	1.472153	0.559340	0.431200
Cu24	Cu	1.805487	0.892673	0.764533
Cu25	Cu	1.138843	0.226019	-0.097719
Cu26	Cu	1.472176	0.559352	0.235614
Cu27	Cu	1.805509	0.892686	0.568947
O28	O	1.142978	0.364344	0.082746
O29	O	1.476312	0.697677	0.416079
O30	O	1.809645	1.031010	0.749413
C31	C	0.964874	0.218224	0.000058
C32	C	1.298207	0.551557	0.333392
C33	C	1.631540	0.884891	0.666725
C34	C	0.858731	0.207380	0.000050
C35	C	1.192064	0.540713	0.333383
C36	C	1.525397	0.874046	0.666717
C37	C	1.131039	0.052054	0.000095
C38	C	1.464372	0.385388	0.333429
C39	C	1.797705	0.718721	0.666762
C40	C	1.120191	-0.054089	0.000103
C41	C	1.453525	0.279245	0.333436
C42	C	1.786858	0.612578	0.666770
C43	C	1.177292	-0.299547	0.000069
C44	C	1.510625	0.033786	0.333402
C45	C	1.843958	0.367120	0.666736
C46	C	1.100375	-0.248422	0.000069
C47	C	1.433709	0.084912	0.333402
C48	C	1.767042	0.418245	0.666736
C49	C	1.111404	-0.140285	0.000088
C50	C	1.444737	0.193049	0.333421
C51	C	1.778070	0.526382	0.666755
C52	C	1.166265	-0.407694	0.000050
C53	C	1.499598	-0.074361	0.333384
C54	C	1.832932	0.258973	0.666717
C55	C	0.664392	0.187553	0.000072
C56	C	0.997726	0.520887	0.333406
C57	C	1.331059	0.854220	0.666739
C58	C	0.613264	0.264468	0.000066
C59	C	0.946598	0.597801	0.333399
C60	C	1.279931	0.931135	0.666733
C61	C	0.505128	0.253436	0.000078
C62	C	0.838461	0.586770	0.333412
C63	C	1.171795	0.920103	0.666745
C64	C	0.772539	0.198583	0.000060
C65	C	1.105872	0.531917	0.333393
C66	C	1.439205	0.865250	0.666726
C67	C	1.312789	0.233801	0.000086
C68	C	1.646123	0.567135	0.333420
C69	C	1.979456	0.900468	0.666753
C70	C	1.418932	0.244646	0.000088
C71	C	1.752266	0.577979	0.333422
C72	C	2.085599	0.911312	0.666755
C73	C	1.146624	0.399971	0.000049
C74	C	1.479958	0.733304	0.333383
C75	C	1.813291	1.066638	0.666716
C76	C	1.157472	0.506114	0.000035
C77	C	1.490805	0.839447	0.333369
C78	C	1.824138	1.172781	0.666702
N79	N	1.138811	0.225998	0.235430
N80	N	1.472144	0.559331	0.568764
N81	N	1.805478	0.892664	0.902097
N82	N	1.138859	0.226021	-0.235284
N83	N	1.472192	0.559354	0.098050
N84	N	1.805525	0.892687	0.431383
C85	C	1.198248	0.166610	0.287485
C86	C	1.531581	0.499943	0.620818
C87	C	1.864915	0.833276	0.954151
C88	C	1.198254	0.166609	0.391588
C89	C	1.531587	0.499943	0.724921
C90	C	1.864921	0.833276	1.058255
C91	C	1.138827	0.226003	0.443635
C92	C	1.472160	0.559336	0.776968
C93	C	1.805494	0.892669	1.110302
C94	C	1.079383	0.285393	0.391574
C95	C	1.412717	0.618727	0.724907
C96	C	1.746050	0.952060	1.058240
C97	C	1.079373	0.285388	0.287472
C98	C	1.412707	0.618721	0.620806
C99	C	1.746040	0.952055	0.954139
C100	C	1.079410	0.285402	0.608554
C101	C	1.412744	0.618735	0.941887
C102	C	1.746077	0.952069	1.275220
C103	C	1.079422	0.285409	0.712662
C104	C	1.412755	0.618742	1.045995
C105	C	1.746088	0.952075	1.379329
C106	C	1.198291	0.166623	0.712669
C107	C	1.531625	0.499957	1.046003
C108	C	1.864958	0.833290	1.379336
C109	C	1.198281	0.166618	0.608568
C110	C	1.531614	0.499951	0.941901
C111	C	1.864948	0.833285	1.275235
C112	C	1.138838	0.226010	0.556514
C113	C	1.472172	0.559343	0.889847
C114	C	1.805505	0.892677	1.223180
H115	H	1.026243	-0.285865	0.000057
H116	H	1.359576	0.047468	0.333390
H117	H	1.692910	0.380802	0.666724
C118	C	1.263654	0.101282	0.551318
C119	C	1.596987	0.434616	0.884652
C120	C	1.930320	0.767949	1.217985
N121	N	1.312891	0.052068	0.508198
N122	N	1.646224	0.385401	0.841531
N123	N	1.979557	0.718734	1.174865
C124	C	0.663844	0.364620	0.000034
C125	C	0.997177	0.697953	0.333367
C126	C	1.330510	1.031287	0.666701
N127	N	0.701944	0.440052	0.000004
N128	N	1.035278	0.773385	0.333338
N129	N	1.368611	1.106718	0.666671
C130	C	1.277435	-0.248965	0.000103
C131	C	1.610769	0.084369	0.333436
C132	C	1.944102	0.417702	0.666770
N133	N	1.352863	-0.210855	0.000136
N134	N	1.686196	0.122478	0.333469
N135	N	2.019529	0.455812	0.666802
H136	H	0.626954	0.113425	0.000088
H137	H	0.960287	0.446759	0.333421
H138	H	1.293620	0.780092	0.666755
H139	H	1.246645	0.118249	0.245115
H140	H	1.579978	0.451582	0.578448
H141	H	1.913311	0.784916	0.911782
C142	C	1.263675	0.101287	0.769931
C143	C	1.597008	0.434621	1.103264
C144	C	1.930342	0.767954	1.436598
N145	N	1.312922	0.052080	0.813065
N146	N	1.646255	0.385413	1.146399
N147	N	1.979589	0.718747	1.479732
H148	H	1.246651	0.118250	0.433970
H149	H	1.579985	0.451584	0.767303
H150	H	1.913318	0.784917	1.100637
C151	C	1.014043	0.350738	0.769912
C152	C	1.347376	0.684072	1.103245
C153	C	1.680710	1.017405	1.436579
N154	N	0.964797	0.399944	0.813032
N155	N	1.298131	0.733278	1.146366
N156	N	1.631464	1.066611	1.479699
H157	H	1.031002	0.333762	0.566174
H158	H	1.364336	0.667095	0.899508
H159	H	1.697669	1.000429	1.232841
C160	C	1.014003	0.350717	0.448829
C161	C	1.347337	0.684050	0.782162
C162	C	1.680670	1.017384	1.115496
N163	N	0.964757	0.399920	0.491953
N164	N	1.298091	0.733253	0.825286
N165	N	1.631424	1.066587	1.158620
C166	C	1.013996	0.350728	0.230213
C167	C	1.347329	0.684061	0.563546
C168	C	1.680663	1.017394	0.896880
N169	N	0.964752	0.399944	0.187087
N170	N	1.298086	0.733278	0.520420
N171	N	1.631419	1.066611	0.853753
