data_functionalizedCrystal
_audit_creation_method	'MofGen! by Chris Wilmer'
_symmetry_space_group_name_H-M	'P1'
_symmetry_Int_Tables_number	1
_symmetry_cell_setting	triclinic
loop_
_symmetry_equiv_pos_as_xyz
  x,y,z
_cell_length_a	11.792241
_cell_length_b	14.853567
_cell_length_c	13.330367
_cell_angle_alpha	89.994658
_cell_angle_beta	90.006192
_cell_angle_gamma	96.085827
loop_
_atom_site_label
_atom_site_type_symbol
_atom_site_fract_x
_atom_site_fract_y
_atom_site_fract_z
O1	O	1.506137	-0.123561	-0.083317
O2	O	1.175717	-0.136296	-0.083339
O3	O	1.349753	0.001267	-0.083331
O4	O	1.332101	-0.261123	-0.083326
O5	O	1.349757	0.001257	0.083516
O6	O	1.175721	-0.136306	0.083508
O7	O	1.506141	-0.123571	0.083530
Cu8	Cu	1.340931	-0.129939	0.098753
Cu9	Cu	1.340926	-0.129927	-0.098563
O10	O	1.332105	-0.261134	0.083521
C11	C	1.133433	-0.135501	0.000081
C12	C	1.007434	-0.133106	0.000072
C13	C	1.348955	0.034854	0.000090
C14	C	1.346558	0.134947	0.000081
N15	N	1.340923	-0.129912	-0.237344
C16	C	0.776749	-0.128704	0.000101
C17	C	0.905119	-0.131150	0.000085
C18	C	1.548425	-0.124366	0.000107
C19	C	1.674424	-0.126760	0.000110
C20	C	1.332903	-0.294720	0.000099
C21	C	1.335300	-0.394813	0.000101
C22	C	1.233046	0.547923	0.000092
C23	C	1.439804	0.568399	0.000106
C24	C	1.442058	0.474356	0.000101
C25	C	1.339804	0.417093	0.000092
C26	C	1.235296	0.453871	0.000090
C27	C	1.546563	0.437570	0.000113
C28	C	1.548821	0.343522	0.000109
C29	C	1.446566	0.286257	0.000093
C30	C	1.342054	0.323041	0.000090
C31	C	1.239800	0.265777	0.000081
C32	C	1.135287	0.302559	0.000070
C33	C	1.133041	0.396606	0.000074
C34	C	1.448812	0.192211	0.000089
C35	C	1.242051	0.171726	0.000078
C36	C	1.272170	-0.074779	-0.709974
C37	C	1.409713	-0.185107	-0.709928
C38	C	1.409709	-0.185102	-0.604910
C39	C	1.340935	-0.129934	-0.552419
C40	C	1.272166	-0.074771	-0.604946
C41	C	1.478486	-0.240258	-0.552375
C42	C	1.478485	-0.240254	-0.447351
C43	C	1.409705	-0.185090	-0.394857
C44	C	1.340932	-0.129925	-0.447391
C45	C	1.272158	-0.074757	-0.394899
C46	C	1.203378	-0.019597	-0.447431
C47	C	1.203385	-0.019607	-0.552452
C48	C	1.409697	-0.185080	-0.289836
C49	C	1.272154	-0.074748	-0.289871
N50	N	1.340943	-0.129948	0.237535
H51	H	1.158782	0.125107	0.000067
H52	H	1.047952	0.426563	0.000066
N53	N	1.126283	0.585474	0.000101
N54	N	1.034997	0.534332	0.000103
H55	H	0.959593	0.560852	0.000112
N56	N	1.030850	0.244049	0.000075
N57	N	1.032886	0.160082	0.000083
H58	H	0.959131	0.118755	0.000088
H59	H	1.465701	-0.229987	-0.247069
H60	H	1.534489	-0.285170	-0.404588
N61	N	1.544238	0.626901	0.000126
N62	N	1.542212	0.710868	0.000135
H63	H	1.615972	0.752190	0.000148
N64	N	1.201942	-0.018405	-0.763610
N65	N	1.140564	0.030861	-0.716727
H66	H	1.090973	0.070684	-0.754607
N67	N	1.650996	0.496074	0.000131
N68	N	1.648967	0.580041	0.000128
H69	H	1.722725	0.621365	0.000138
H70	H	1.147390	0.025304	-0.595233
N71	N	1.133112	0.036741	-0.393806
N72	N	1.027357	0.026662	-0.405532
H73	H	0.977731	0.066448	-0.367656
H74	H	1.533905	0.162267	0.000105
H75	H	1.465712	-0.230017	-0.752673
H76	H	1.216144	-0.029827	-0.247140
H77	H	1.633922	0.313583	0.000116
N78	N	1.548735	-0.296593	-0.606007
N79	N	1.548723	-0.296592	-0.699776
H80	H	1.598339	-0.336380	-0.737660
