data_functionalizedCrystal
_audit_creation_method	'MofGen! by Chris Wilmer'
_symmetry_space_group_name_H-M	'P1'
_symmetry_Int_Tables_number	1
_symmetry_cell_setting	triclinic
loop_
_symmetry_equiv_pos_as_xyz
  x,y,z
_cell_length_a	19.805407
_cell_length_b	21.295417
_cell_length_c	19.805399
_cell_angle_alpha	90.030843
_cell_angle_beta	90.019573
_cell_angle_gamma	90.030507
loop_
_atom_site_label
_atom_site_type_symbol
_atom_site_fract_x
_atom_site_fract_y
_atom_site_fract_z
Zn1	Zn	1.034716	-0.250624	0.382704
Zn2	Zn	1.368050	0.082710	0.716038
Zn3	Zn	1.701383	0.416043	1.049371
Zn4	Zn	1.034623	-0.355893	0.269510
Zn5	Zn	1.367956	-0.022559	0.602843
Zn6	Zn	1.701290	0.310774	0.936176
Zn7	Zn	0.921531	-0.250641	0.269529
Zn8	Zn	1.254864	0.082692	0.602862
Zn9	Zn	1.588198	0.416026	0.936196
Zn10	Zn	0.921486	-0.355859	0.382656
Zn11	Zn	1.254820	-0.022526	0.715990
Zn12	Zn	1.588153	0.310808	1.049323
O13	O	0.978089	-0.303254	0.326100
O14	O	1.311423	0.030079	0.659433
O15	O	1.644756	0.363413	0.992766
O16	O	1.129421	-0.264595	0.367701
O17	O	1.462754	0.068739	0.701034
O18	O	1.796087	0.402072	1.034367
O19	O	1.019601	-0.341952	0.174796
O20	O	1.352934	-0.008619	0.508129
O21	O	1.686268	0.324715	0.841462
O22	O	0.936603	-0.162549	0.284570
O23	O	1.269936	0.170784	0.617903
O24	O	1.603270	0.504117	0.951237
O25	O	1.129352	-0.341935	0.284537
O26	O	1.462685	-0.008602	0.617870
O27	O	1.796019	0.324732	0.951204
O28	O	1.019760	-0.162537	0.367719
O29	O	1.353093	0.170797	0.701053
O30	O	1.686426	0.504130	1.034386
O31	O	0.936513	-0.264624	0.174810
O32	O	1.269846	0.068709	0.508143
O33	O	1.603179	0.402042	0.841476
O34	O	0.826809	-0.264592	0.284523
O35	O	1.160142	0.068742	0.617857
O36	O	1.493475	0.402075	0.951190
O37	O	0.936527	-0.341878	0.477379
O38	O	1.269860	-0.008545	0.810713
O39	O	1.603194	0.324789	1.144046
O40	O	0.826776	-0.341895	0.367638
O41	O	1.160109	-0.008562	0.700971
O42	O	1.493442	0.324772	1.034304
O43	O	1.019717	-0.264562	0.477415
O44	O	1.353050	0.068771	0.810748
O45	O	1.686383	0.402104	1.144081
O46	O	1.019558	-0.443977	0.284491
O47	O	1.352891	-0.110644	0.617824
O48	O	1.686224	0.222689	0.951157
O49	O	0.936437	-0.443953	0.367619
O50	O	1.269770	-0.110620	0.700952
O51	O	1.603103	0.222714	1.034286
C52	C	0.802233	-0.303242	0.326078
C53	C	1.135567	0.030091	0.659411
C54	C	1.468900	0.363425	0.992745
C55	C	0.727001	-0.303252	0.326085
C56	C	1.060335	0.030081	0.659418
C57	C	1.393668	0.363415	0.992751
C58	C	0.978001	-0.466806	0.326062
C59	C	1.311334	-0.133472	0.659396
C60	C	1.644667	0.199861	0.992729
C61	C	0.978024	-0.536774	0.326069
C62	C	1.311358	-0.203441	0.659402
C63	C	1.644691	0.129893	0.992736
C64	C	0.691658	-0.343564	0.369292
C65	C	1.024991	-0.010231	0.702625
C66	C	1.358324	0.323102	1.035959
C67	C	0.620969	-0.343566	0.369302
C68	C	0.954303	-0.010232	0.702635
C69	C	1.287636	0.323101	1.035968
C70	C	0.585626	-0.303257	0.326100
C71	C	0.918959	0.030076	0.659433
C72	C	1.252292	0.363410	0.992766
C73	C	0.620974	-0.262940	0.282890
C74	C	0.954307	0.070393	0.616224
C75	C	1.287641	0.403726	0.949557
C76	C	0.691661	-0.262936	0.282885
C77	C	1.024995	0.070397	0.616218
C78	C	1.358328	0.403730	0.949551
C79	C	0.335901	-0.262954	0.282913
C80	C	0.669234	0.070379	0.616246
C81	C	1.002568	0.403713	0.949579
C82	C	0.265209	-0.262962	0.282920
C83	C	0.598542	0.070371	0.616254
C84	C	0.931875	0.403704	0.949587
C85	C	0.265209	-0.343583	0.369330
C86	C	0.598542	-0.010250	0.702663
C87	C	0.931876	0.323083	1.035996
C88	C	0.335896	-0.343579	0.369324
C89	C	0.669229	-0.010246	0.702657
C90	C	1.002563	0.323087	1.035991
C91	C	0.371238	-0.303261	0.326117
C92	C	0.704572	0.030073	0.659451
C93	C	1.037905	0.363406	0.992784
C94	C	0.447887	-0.303259	0.326109
C95	C	0.781220	0.030074	0.659442
C96	C	1.114553	0.363408	0.992775
C97	C	0.508979	-0.303261	0.326105
C98	C	0.842312	0.030072	0.659438
C99	C	1.175645	0.363405	0.992771
C100	C	1.021344	-0.569632	0.282828
C101	C	1.354677	-0.236299	0.616162
C102	C	1.688011	0.097034	0.949495
C103	C	1.021376	-0.635375	0.282844
C104	C	1.354709	-0.302042	0.616177
C105	C	1.688042	0.031292	0.949510
C106	C	0.978076	-0.668256	0.326092
C107	C	1.311409	-0.334923	0.659426
C108	C	1.644743	-0.001590	0.992759
C109	C	0.934753	-0.635390	0.369341
C110	C	1.268087	-0.302057	0.702675
C111	C	1.601420	0.031277	1.036008
C112	C	0.934728	-0.569649	0.369330
C113	C	1.268061	-0.236315	0.702663
C114	C	1.601394	0.097018	1.035996
N115	N	0.918865	-0.771522	0.331245
N116	N	1.252199	-0.438189	0.664578
N117	N	1.585532	-0.104856	0.997911
N118	N	0.918892	-0.833974	0.331252
N119	N	1.252225	-0.500640	0.664585
N120	N	1.585558	-0.167307	0.997919
C121	C	0.978152	-0.866331	0.326131
C122	C	1.311485	-0.532998	0.659464
C123	C	1.644818	-0.199664	0.992798
N124	N	1.037386	-0.833878	0.320989
N125	N	1.370719	-0.500544	0.654323
N126	N	1.704052	-0.167211	0.987656
N127	N	1.037358	-0.771421	0.320979
N128	N	1.370692	-0.438087	0.654312
N129	N	1.704025	-0.104754	0.987646
C130	C	0.978099	-0.739542	0.326110
C131	C	1.311433	-0.406208	0.659443
C132	C	1.644766	-0.072875	0.992777
C133	C	1.021509	-0.970475	0.282905
C134	C	1.354843	-0.637142	0.616238
C135	C	1.688176	-0.303808	0.949571
C136	C	1.021542	-1.036219	0.282925
C137	C	1.354875	-0.702885	0.616258
C138	C	1.688209	-0.369552	0.949591
C139	C	0.934914	-1.036233	0.369419
C140	C	1.268247	-0.702899	0.702752
C141	C	1.601580	-0.369566	1.036085
C142	C	0.934887	-0.970490	0.369402
C143	C	1.268220	-0.637157	0.702736
C144	C	1.601553	-0.303823	1.036069
C145	C	0.978184	-0.937615	0.326142
C146	C	1.311517	-0.604282	0.659475
C147	C	1.644850	-0.270949	0.992808
C148	C	1.154632	-0.303267	0.326122
C149	C	1.487965	0.030067	0.659455
C150	C	1.821299	0.363400	0.992789
C151	C	1.229864	-0.303272	0.326132
C152	C	1.563197	0.030061	0.659465
C153	C	1.896531	0.363395	0.992798
C154	C	0.978127	-0.303214	0.502643
C155	C	1.311461	0.030119	0.835976
C156	C	1.644794	0.363452	1.169309
C157	C	0.978143	-0.303198	0.577875
C158	C	1.311477	0.030136	0.911208
C159	C	1.644810	0.363469	1.244541
C160	C	0.978197	-0.139064	0.326152
C161	C	1.311530	0.194269	0.659486
C162	C	1.644863	0.527603	0.992819
C163	C	0.978243	-0.069096	0.326175
C164	C	1.311576	0.264238	0.659508
C165	C	1.644909	0.597571	0.992841
C166	C	0.978090	-0.303248	0.150244
C167	C	1.311424	0.030085	0.483577
C168	C	1.644757	0.363418	0.816910
C169	C	0.978205	-0.303088	0.075012
C170	C	1.311539	0.030246	0.408346
C171	C	1.644872	0.363579	0.741679
C172	C	1.021461	-0.262937	0.613238
C173	C	1.354795	0.070396	0.946572
C174	C	1.688128	0.403729	1.279905
C175	C	1.021468	-0.262919	0.683927
C176	C	1.354801	0.070414	1.017260
C177	C	1.688135	0.403748	1.350593
C178	C	0.978160	-0.303165	0.719250
C179	C	1.311494	0.030169	1.052584
C180	C	1.644827	0.363502	1.385917
C181	C	0.934838	-0.343427	0.683882
C182	C	1.268171	-0.010094	1.017215
C183	C	1.601504	0.323240	1.350548
C184	C	0.934828	-0.343442	0.613195
C185	C	1.268161	-0.010108	0.946528
C186	C	1.601494	0.323225	1.279861
C187	C	0.934876	-0.343368	0.968955
C188	C	1.268209	-0.010035	1.302289
C189	C	1.601543	0.323298	1.635622
C190	C	0.934891	-0.343352	1.039647
C191	C	1.268224	-0.010018	1.372981
C192	C	1.601557	0.323315	1.706314
C193	C	1.021516	-0.262846	1.039687
C194	C	1.354850	0.070488	1.373021
C195	C	1.688183	0.403821	1.706354
C196	C	1.021506	-0.262860	0.969000
C197	C	1.354840	0.070473	1.302333
C198	C	1.688173	0.403806	1.635667
C199	C	0.978182	-0.303120	0.933638
C200	C	1.311515	0.030214	1.266971
C201	C	1.644848	0.363547	1.600304
C202	C	0.978174	-0.303138	0.856989
C203	C	1.311507	0.030195	1.190323
C204	C	1.644840	0.363528	1.523656
C205	C	0.978171	-0.303150	0.795897
C206	C	1.311504	0.030183	1.129231
C207	C	1.644838	0.363517	1.462564
H208	H	0.592196	-0.376393	0.404485
H209	H	0.925529	-0.043059	0.737818
H210	H	1.258862	0.290274	1.071152
H211	H	1.056654	-0.662134	0.247632
H212	H	1.389988	-0.328800	0.580965
H213	H	1.723321	0.004533	0.914299
C214	C	1.069196	-1.072363	0.235357
C215	C	1.402529	-0.739030	0.568690
C216	C	1.735862	-0.405697	0.902024
H217	H	1.094971	-1.043366	0.209588
H218	H	1.428305	-0.710033	0.542922
H219	H	1.761638	-0.376700	0.876255
H220	H	1.098685	-1.097967	0.261277
H221	H	1.432018	-0.764633	0.594610
H222	H	1.765352	-0.431300	0.927944
H223	H	1.043324	-1.098050	0.205847
H224	H	1.376658	-0.764717	0.539181
H225	H	1.709991	-0.431384	0.872514
C226	C	0.374771	-0.387917	0.416848
C227	C	0.708104	-0.054583	0.750181
C228	C	1.041437	0.278750	1.083515
H229	H	0.343596	-0.411922	0.442588
H230	H	0.676930	-0.078588	0.775921
H231	H	1.010263	0.254745	1.109254
H232	H	0.402323	-0.415311	0.390903
H233	H	0.735656	-0.081978	0.724236
H234	H	1.068990	0.251355	1.057569
H235	H	0.402368	-0.363864	0.446386
H236	H	0.735701	-0.030530	0.779719
H237	H	1.069034	0.302803	1.113053
H238	H	0.899661	-1.063004	0.404636
H239	H	1.232994	-0.729671	0.737969
H240	H	1.566328	-0.396337	1.071302
H241	H	0.720429	-0.376391	0.404470
H242	H	1.053763	-0.043057	0.737803
H243	H	1.387096	0.290276	1.071137
H244	H	0.236425	-0.376411	0.404513
H245	H	0.569758	-0.043077	0.737846
H246	H	0.903091	0.290256	1.071180
H247	H	1.056601	-0.542868	0.247605
H248	H	1.389934	-0.209534	0.580938
H249	H	1.723267	0.123799	0.914271
C250	C	1.069169	-0.218556	1.078588
C251	C	1.402502	0.114777	1.411921
C252	C	1.735835	0.448111	1.745254
H253	H	1.062970	-0.224304	1.125746
H254	H	1.396303	0.109029	1.459079
H255	H	1.729636	0.442362	1.792412
H256	H	1.114637	-0.227777	1.067009
H257	H	1.447971	0.105557	1.400342
H258	H	1.781304	0.438890	1.733675
H259	H	1.059287	-0.176260	1.067013
H260	H	1.392621	0.157073	1.400347
H261	H	1.725954	0.490407	1.733680
C262	C	0.226332	-0.218616	0.235401
C263	C	0.559665	0.114717	0.568735
C264	C	0.892998	0.448051	0.902068
H265	H	0.257504	-0.194598	0.209673
H266	H	0.590837	0.138735	0.543006
H267	H	0.924170	0.472069	0.876340
H268	H	0.198732	-0.242659	0.205863
H269	H	0.532065	0.090675	0.539196
H270	H	0.865398	0.424008	0.872529
H271	H	0.198782	-0.191224	0.261360
H272	H	0.532115	0.142109	0.594693
H273	H	0.865449	0.475443	0.928027
H274	H	0.899608	-0.376159	0.940172
H275	H	1.232941	-0.042826	1.273505
H276	H	1.566275	0.290507	1.606838
H277	H	0.899547	-0.376219	0.584402
H278	H	1.232881	-0.042886	0.917736
H279	H	1.566214	0.290447	1.251069
H280	H	0.899573	-0.376193	0.712648
H281	H	1.232907	-0.042860	1.045981
H282	H	1.566240	0.290473	1.379314
C283	C	0.887124	-0.671554	0.416916
C284	C	1.220458	-0.338220	0.750249
C285	C	1.553791	-0.004887	1.083582
H286	H	0.861324	-0.642566	0.442672
H287	H	1.194657	-0.309232	0.776005
H288	H	1.527990	0.024101	1.109338
H289	H	0.857657	-0.697241	0.391003
H290	H	1.190991	-0.363908	0.724337
H291	H	1.524324	-0.030574	1.057670
H292	H	0.913015	-0.697158	0.446437
H293	H	1.246348	-0.363824	0.779770
H294	H	1.579681	-0.030491	1.113103
H295	H	0.899609	-0.943735	0.404610
H296	H	1.232942	-0.610402	0.737943
H297	H	1.566276	-0.277068	1.071277
C298	C	0.887073	-0.533500	0.416893
C299	C	1.220406	-0.200167	0.750226
C300	C	1.553740	0.133167	1.083560
H301	H	0.893262	-0.489638	0.410693
H302	H	1.226595	-0.156305	0.744027
H303	H	1.559928	0.177029	1.077360
H304	H	0.841606	-0.544319	0.406950
H305	H	1.174939	-0.210986	0.740283
H306	H	1.508272	0.122348	1.073617
H307	H	0.896963	-0.544234	0.462384
H308	H	1.230296	-0.210900	0.795717
H309	H	1.563629	0.122433	1.129051
C310	C	1.069140	-0.934310	0.235328
C311	C	1.402473	-0.600977	0.568662
C312	C	1.735807	-0.267644	0.901995
H313	H	1.094953	-0.963298	0.209584
H314	H	1.428286	-0.629965	0.542918
H315	H	1.761619	-0.296631	0.876251
H316	H	1.043258	-0.908706	0.205806
H317	H	1.376591	-0.575373	0.539140
H318	H	1.709924	-0.242040	0.872473
H319	H	1.098606	-0.908623	0.261249
H320	H	1.431939	-0.575289	0.594582
H321	H	1.765273	-0.241956	0.927915
H322	H	0.364668	-0.230129	0.247726
H323	H	0.698001	0.103205	0.581059
H324	H	1.031335	0.436538	0.914393
H325	H	0.592192	-0.230118	0.247718
H326	H	0.925525	0.103216	0.581051
H327	H	1.258858	0.436549	0.914384
C328	C	0.730539	-0.218592	0.235358
C329	C	1.063873	0.114741	0.568691
C330	C	1.397206	0.448075	0.902024
H331	H	0.699367	-0.194589	0.209625
H332	H	1.032700	0.138744	0.542959
H333	H	1.366034	0.472078	0.876292
H334	H	0.758138	-0.191196	0.261305
H335	H	1.091471	0.142138	0.594638
H336	H	1.424804	0.475471	0.927971
H337	H	0.758090	-0.242635	0.205813
H338	H	1.091424	0.090698	0.539146
H339	H	1.424757	0.424031	0.872479
C340	C	1.069097	-0.218663	0.574388
C341	C	1.402431	0.114670	0.907722
C342	C	1.735764	0.448003	1.241055
H343	H	1.094891	-0.194678	0.605576
H344	H	1.428224	0.138655	0.938910
H345	H	1.761558	0.471988	1.272243
H346	H	1.098571	-0.242746	0.546809
H347	H	1.431904	0.090587	0.880142
H348	H	1.765237	0.423920	1.213475
H349	H	1.043212	-0.191238	0.546820
H350	H	1.376546	0.142096	0.880154
H351	H	1.709879	0.475429	1.213487
H352	H	1.056743	-0.230136	0.712717
H353	H	1.390077	0.103197	1.046050
H354	H	1.723410	0.436530	1.379383
C355	C	1.069142	-0.218588	0.930148
C356	C	1.402476	0.114745	1.263481
C357	C	1.735809	0.448079	1.596814
H358	H	1.094938	-0.194603	0.961334
H359	H	1.428271	0.138731	1.294667
H360	H	1.761605	0.472064	1.628000
H361	H	1.098614	-0.242673	0.902568
H362	H	1.431947	0.090660	1.235901
H363	H	1.765281	0.423994	1.569235
H364	H	1.043257	-0.191163	0.902580
H365	H	1.376590	0.142170	1.235913
H366	H	1.709924	0.475504	1.569246
C367	C	0.887250	-0.387622	1.078505
C368	C	1.220583	-0.054289	1.411839
C369	C	1.553917	0.279044	1.745172
H370	H	0.893469	-0.381851	1.125669
H371	H	1.226802	-0.048518	1.459002
H372	H	1.560136	0.284815	1.792335
H373	H	0.841776	-0.378408	1.066920
H374	H	1.175110	-0.045075	1.400254
H375	H	1.508443	0.288258	1.733587
H376	H	0.897128	-0.429923	1.066907
H377	H	1.230462	-0.096590	1.400241
H378	H	1.563795	0.236743	1.733574
