data_functionalizedCrystal
_audit_creation_method	'MofGen! by Chris Wilmer'
_symmetry_space_group_name_H-M	'P1'
_symmetry_Int_Tables_number	1
_symmetry_cell_setting	triclinic
loop_
_symmetry_equiv_pos_as_xyz
  x,y,z
_cell_length_a	19.077068
_cell_length_b	19.077236
_cell_length_c	19.076919
_cell_angle_alpha	89.887323
_cell_angle_beta	94.470751
_cell_angle_gamma	94.708605
loop_
_atom_site_label
_atom_site_type_symbol
_atom_site_fract_x
_atom_site_fract_y
_atom_site_fract_z
Zn1	Zn	-0.256314	1.047584	-0.450390
Zn2	Zn	-0.369471	1.047497	-0.337231
Zn3	Zn	-0.255944	0.934815	-0.328156
Zn4	Zn	-0.378891	0.924923	-0.450332
O5	O	-0.315155	0.988705	-0.391527
O6	O	-0.267537	1.146064	-0.439202
O7	O	-0.350314	1.036653	-0.237539
O8	O	-0.157183	0.953950	-0.340597
O9	O	-0.350673	1.146000	-0.356065
O10	O	-0.157455	1.036801	-0.430402
O11	O	-0.266906	0.953866	-0.230872
O12	O	-0.276041	0.835011	-0.340540
O13	O	-0.366728	0.937090	-0.548828
O14	O	-0.366369	0.827743	-0.430302
O15	O	-0.276672	1.027209	-0.548871
O16	O	-0.469531	1.027061	-0.356008
O17	O	-0.476452	0.937006	-0.439102
C18	C	-0.322188	0.805839	-0.384430
C19	C	-0.325214	0.727607	-0.381412
C20	C	-0.283426	0.690881	-0.423350
C21	C	-0.286266	0.617374	-0.420507
C22	C	-0.330898	0.580594	-0.375730
C23	C	-0.372687	0.617325	-0.333787
C24	C	-0.369843	0.690831	-0.336626
C25	C	-0.344033	0.360752	-0.362585
C26	C	-0.346876	0.287240	-0.359750
C27	C	-0.260453	0.287295	-0.446471
C28	C	-0.257616	0.360802	-0.449309
C29	C	-0.299403	0.397527	-0.407363
N30	N	-0.333803	0.505458	-0.372825
N31	N	-0.296493	0.472662	-0.410265
C32	C	-0.498612	0.980969	-0.398550
C33	C	-0.577094	0.977723	-0.401580
C34	C	-0.610338	1.023118	-0.359779
C35	C	-0.684080	1.020069	-0.362634
C36	C	-0.724577	0.971621	-0.407285
C37	C	-0.691328	0.926224	-0.449090
C38	C	-0.617587	0.929277	-0.446239
C39	C	-0.945508	0.957462	-0.420451
C40	C	-1.019254	0.954411	-0.423297
C41	C	-1.012002	1.048258	-0.336841
C42	C	-0.938260	1.051303	-0.333991
C43	C	-0.905017	1.005909	-0.375798
N44	N	-0.799954	0.968502	-0.410202
N45	N	-0.829642	1.009032	-0.372885
C46	C	-0.130982	0.996489	-0.384494
C47	C	-0.052499	0.999806	-0.381497
C48	C	-0.322792	0.981056	-0.575100
C49	C	-0.326047	0.977797	-0.653328
C50	C	-0.308096	1.172284	-0.398652
C51	C	-0.305088	1.250515	-0.401689
C52	C	-0.280690	1.023183	-0.690103
C53	C	-0.283745	1.020112	-0.763606
C54	C	-0.332161	0.971657	-0.800332
C55	C	-0.377520	0.926266	-0.763552
C56	C	-0.374461	0.929334	-0.690050
C57	C	-0.346336	0.957447	-1.020156
C58	C	-0.349393	0.954384	-1.093664
C59	C	-0.255618	1.048229	-1.093712
C60	C	-0.252565	1.051296	-1.020209
C61	C	-0.297921	1.005902	-0.983435
N62	N	-0.335287	0.968519	-0.875464
N63	N	-0.294792	1.009038	-0.908304
C64	C	-0.307495	0.996366	-0.208668
C65	C	-0.304037	0.999770	-0.130439
H66	H	-0.378060	0.390644	-0.328430
H67	H	-0.241266	1.062642	-0.660206
H68	H	-0.221274	0.390744	-0.485775
H69	H	-0.711145	1.057034	-0.328595
H70	H	-0.388821	0.914924	-1.123564
O71	O	-0.730769	0.879182	-0.492404
C72	C	-0.847583	0.832911	-0.535140
C73	C	-0.803003	0.886211	-0.486046
H74	H	-0.905992	0.838586	-0.530027
H75	H	-0.834857	0.777266	-0.519974
H76	H	-0.834895	0.843456	-0.591807
H77	H	-0.815666	0.875732	-0.429364
H78	H	-0.815735	0.941839	-0.501272
O79	O	-0.239659	1.064275	-0.799222
C80	C	-0.146301	1.157657	-0.791512
C81	C	-0.196201	1.107693	-0.751091
H82	H	-0.111143	1.192763	-0.752614
H83	H	-0.178702	1.191699	-0.828574
H84	H	-0.112082	1.125458	-0.823276
H85	H	-0.230431	1.139837	-0.719287
H86	H	-0.163758	1.073649	-0.714071
H87	H	-0.403871	0.720732	-0.302475
H88	H	-1.052225	0.914967	-0.459670
H89	H	-0.577370	1.062567	-0.323416
O90	O	-0.585403	0.885110	-0.486870
C91	C	-0.600374	0.791743	-0.572963
C92	C	-0.636911	0.841705	-0.526968
H93	H	-0.642001	0.756647	-0.605405
H94	H	-0.565985	0.757690	-0.537900
H95	H	-0.566079	0.823943	-0.609674
H96	H	-0.671242	0.809560	-0.490250
H97	H	-0.671257	0.875760	-0.562074
H98	H	-0.383278	0.920494	-0.990225
H99	H	-0.905289	1.090754	-0.297632
H100	H	-0.213142	1.090754	-0.990311
O101	O	-0.424530	0.879258	-0.799336
C102	C	-0.470775	0.832912	-0.912543
C103	C	-0.417513	0.886192	-0.872109
H104	H	-0.465110	0.838490	-0.971386
H105	H	-0.526653	0.843464	-0.900798
H106	H	-0.459960	0.777296	-0.895370
H107	H	-0.428263	0.941828	-0.889258
H108	H	-0.361653	0.875579	-0.883856
H109	H	-0.218691	1.085185	-1.123662
H110	H	-0.918448	0.920499	-0.454491
H111	H	-0.409024	0.587372	-0.297324
H112	H	-0.247083	0.720822	-0.459815
H113	H	-0.252239	0.587475	-0.454660
H114	H	-0.226431	0.257386	-0.480619
O115	O	-0.418450	0.885278	-0.654214
C116	C	-0.455324	0.848441	-0.540959
C117	C	-0.405456	0.898368	-0.581454
H118	H	-0.444846	0.859017	-0.482126
H119	H	-0.445704	0.791596	-0.552678
H120	H	-0.512381	0.857780	-0.558105
H121	H	-0.348380	0.889092	-0.564331
H122	H	-0.415137	0.955196	-0.569733
H123	H	-0.383224	0.257296	-0.323286
H124	H	-1.039077	1.085216	-0.302805
