data_functionalizedCrystal
_audit_creation_method	'MofGen! by Chris Wilmer'
_symmetry_space_group_name_H-M	'P1'
_symmetry_Int_Tables_number	1
_symmetry_cell_setting	triclinic
loop_
_symmetry_equiv_pos_as_xyz
  x,y,z
_cell_length_a	16.120484
_cell_length_b	16.625548
_cell_length_c	16.625539
_cell_angle_alpha	89.979432
_cell_angle_beta	87.131385
_cell_angle_gamma	87.073374
loop_
_atom_site_label
_atom_site_type_symbol
_atom_site_fract_x
_atom_site_fract_y
_atom_site_fract_z
Zn1	Zn	-0.331882	-1.216388	0.472167
Zn2	Zn	-0.081882	-0.966388	0.722167
Zn3	Zn	0.168118	-0.716388	0.972167
Zn4	Zn	0.418118	-0.466388	1.222167
Zn5	Zn	-0.471307	-1.209447	0.344164
Zn6	Zn	-0.221307	-0.959447	0.594164
Zn7	Zn	0.028693	-0.709447	0.844164
Zn8	Zn	0.278693	-0.459447	1.094164
Zn9	Zn	-0.331914	-1.081548	0.337349
Zn10	Zn	-0.081914	-0.831548	0.587349
Zn11	Zn	0.168086	-0.581548	0.837349
Zn12	Zn	0.418086	-0.331548	1.087349
Zn13	Zn	-0.471259	-1.074678	0.478951
Zn14	Zn	-0.221259	-0.824678	0.728951
Zn15	Zn	0.028741	-0.574678	0.978951
Zn16	Zn	0.278741	-0.324678	1.228951
O17	O	-0.401591	-1.145515	0.408158
O18	O	-0.151591	-0.895515	0.658158
O19	O	0.098409	-0.645515	0.908158
O20	O	0.348409	-0.395515	1.158158
O21	O	-0.350384	-1.328299	0.455200
O22	O	-0.100384	-1.078299	0.705200
O23	O	0.149616	-0.828299	0.955200
O24	O	0.399616	-0.578299	1.205200
O25	O	-0.452849	-1.192451	0.230429
O26	O	-0.202849	-0.942451	0.480429
O27	O	0.047151	-0.692451	0.730429
O28	O	0.297151	-0.442451	0.980429
O29	O	-0.215244	-1.105215	0.349541
O30	O	0.034756	-0.855215	0.599541
O31	O	0.284756	-0.605215	0.849541
O32	O	0.534756	-0.355215	1.099541
O33	O	-0.452819	-1.323200	0.361156
O34	O	-0.202819	-1.073200	0.611156
O35	O	0.047181	-0.823200	0.861156
O36	O	0.297181	-0.573200	1.111156
O37	O	-0.215221	-1.204281	0.448592
O38	O	0.034779	-0.954281	0.698592
O39	O	0.284779	-0.704281	0.948592
O40	O	0.534779	-0.454281	1.198592
O41	O	-0.350438	-1.098484	0.225422
O42	O	-0.100438	-0.848484	0.475422
O43	O	0.149562	-0.598484	0.725422
O44	O	0.399562	-0.348484	0.975422
O45	O	-0.350392	-0.967805	0.356120
O46	O	-0.100392	-0.717805	0.606120
O47	O	0.149608	-0.467805	0.856120
O48	O	0.399608	-0.217805	1.106120
O49	O	-0.452737	-1.093506	0.590882
O50	O	-0.202737	-0.843506	0.840882
O51	O	0.047263	-0.593506	1.090882
O52	O	0.297263	-0.343506	1.340882
O53	O	-0.452768	-0.962757	0.460155
O54	O	-0.202768	-0.712757	0.710155
O55	O	0.047232	-0.462757	0.960155
O56	O	0.297232	-0.212757	1.210155
O57	O	-0.350338	-1.197620	0.585898
O58	O	-0.100338	-0.947620	0.835898
O59	O	0.149662	-0.697620	1.085898
O60	O	0.399662	-0.447620	1.335898
O61	O	-0.587966	-1.185789	0.367735
O62	O	-0.337966	-0.935789	0.617735
O63	O	-0.087966	-0.685789	0.867735
O64	O	0.162034	-0.435789	1.117735
O65	O	-0.587931	-1.086775	0.466763
O66	O	-0.337931	-0.836775	0.716763
O67	O	-0.087931	-0.586775	0.966763
O68	O	0.162069	-0.336775	1.216763
C69	C	-0.401579	-0.936025	0.408135
C70	C	-0.151579	-0.686025	0.658135
C71	C	0.098421	-0.436025	0.908135
C72	C	0.348421	-0.186025	1.158135
C73	C	-0.401594	-0.846403	0.408145
C74	C	-0.151594	-0.596403	0.658145
C75	C	0.098406	-0.346403	0.908145
C76	C	0.348406	-0.096403	1.158145
C77	C	-0.618199	-1.134805	0.418742
C78	C	-0.368199	-0.884805	0.668742
C79	C	-0.118199	-0.634805	0.918742
C80	C	0.131801	-0.384805	1.168742
C81	C	-0.710865	-1.130297	0.423297
C82	C	-0.460865	-0.880297	0.673297
C83	C	-0.210865	-0.630297	0.923297
C84	C	0.039135	-0.380297	1.173297
C85	C	-0.401529	-1.145571	0.618464
C86	C	-0.151529	-0.895571	0.868464
C87	C	0.098471	-0.645571	1.118464
C88	C	0.348471	-0.395571	1.368464
C89	C	-0.401502	-1.145594	0.708084
C90	C	-0.151502	-0.895594	0.958084
C91	C	0.098498	-0.645594	1.208084
C92	C	0.348498	-0.395594	1.458084
C93	C	-0.880527	-1.122072	0.431630
C94	C	-0.630527	-0.872072	0.681630
C95	C	-0.380527	-0.622072	0.931630
C96	C	-0.130527	-0.372072	1.181630
C97	C	-0.921814	-1.169103	0.384698
C98	C	-0.671814	-0.919103	0.634698
C99	C	-0.421814	-0.669103	0.884698
C100	C	-0.171814	-0.419103	1.134698
C101	C	-1.016220	-1.164526	0.389335
C102	C	-0.766220	-0.914526	0.639335
C103	C	-0.516220	-0.664526	0.889335
C104	C	-0.266220	-0.414526	1.139335
C105	C	-0.786113	-1.126648	0.426995
C106	C	-0.536113	-0.876648	0.676995
C107	C	-0.286113	-0.626648	0.926995
C108	C	-0.036113	-0.376648	1.176995
C109	C	-0.184136	-1.156289	0.397549
C110	C	0.065864	-0.906289	0.647549
C111	C	0.315864	-0.656289	0.897549
C112	C	0.565864	-0.406289	1.147549
C113	C	-0.091470	-1.160880	0.393029
C114	C	0.158530	-0.910880	0.643029
C115	C	0.408530	-0.660880	0.893029
C116	C	0.658530	-0.410880	1.143029
C117	C	-0.401603	-1.355823	0.408181
C118	C	-0.151603	-1.105823	0.658181
C119	C	0.098397	-0.855823	0.908181
C120	C	0.348397	-0.605823	1.158181
C121	C	-0.401609	-1.445444	0.408192
C122	C	-0.151609	-1.195444	0.658192
C123	C	0.098391	-0.945444	0.908192
C124	C	0.348391	-0.695444	1.158192
C125	C	-0.401599	-0.518227	0.408180
C126	C	-0.151599	-0.268227	0.658180
C127	C	0.098401	-0.018227	0.908180
C128	C	0.348401	0.231773	1.158180
C129	C	-0.401595	-0.609536	0.408167
C130	C	-0.151595	-0.359536	0.658167
C131	C	0.098405	-0.109536	0.908167
C132	C	0.348405	0.140464	1.158167
C133	C	-0.401597	-0.682312	0.408162
C134	C	-0.151597	-0.432312	0.658162
C135	C	0.098403	-0.182312	0.908162
C136	C	0.348403	0.067688	1.158162
C137	C	-0.401592	-0.773627	0.408150
C138	C	-0.151592	-0.523627	0.658150
C139	C	0.098408	-0.273627	0.908150
C140	C	0.348408	-0.023627	1.158150
C141	C	-0.401592	-1.145509	0.198667
C142	C	-0.151592	-0.895509	0.448667
C143	C	0.098408	-0.645509	0.698667
C144	C	0.348408	-0.395509	0.948667
C145	C	-0.401384	-1.145653	0.109036
C146	C	-0.151384	-0.895653	0.359036
C147	C	0.098616	-0.645653	0.609036
C148	C	0.348616	-0.395653	0.859036
C149	C	-0.401409	-1.145636	1.036255
C150	C	-0.151409	-0.895636	1.286255
C151	C	0.098591	-0.645636	1.536255
C152	C	0.348591	-0.395636	1.786255
C153	C	-0.401437	-1.145622	0.944948
C154	C	-0.151437	-0.895622	1.194948
C155	C	0.098563	-0.645622	1.444948
C156	C	0.348563	-0.395622	1.694948
C157	C	-0.401456	-1.145616	0.872172
C158	C	-0.151456	-0.895616	1.122172
C159	C	0.098544	-0.645616	1.372172
C160	C	0.348544	-0.395616	1.622172
C161	C	-0.401483	-1.145601	0.780859
C162	C	-0.151483	-0.895601	1.030859
C163	C	0.098517	-0.645601	1.280859
C164	C	0.348517	-0.395601	1.530859
H165	H	-0.916078	-1.078373	0.475288
H166	H	-0.666078	-0.828373	0.725288
H167	H	-0.416078	-0.578373	0.975288
H168	H	-0.166078	-0.328373	1.225288
H169	H	-0.886260	-1.212805	0.341036
H170	H	-0.636260	-0.962805	0.591036
H171	H	-0.386260	-0.712805	0.841036
H172	H	-0.136260	-0.462805	1.091036
