data_functionalizedCrystal
_audit_creation_method	'MofGen! by Chris Wilmer'
_symmetry_space_group_name_H-M	'P1'
_symmetry_Int_Tables_number	1
_symmetry_cell_setting	triclinic
loop_
_symmetry_equiv_pos_as_xyz
  x,y,z
_cell_length_a	18.101395
_cell_length_b	18.101398
_cell_length_c	16.120256
_cell_angle_alpha	92.887765
_cell_angle_beta	92.874436
_cell_angle_gamma	90.026661
loop_
_atom_site_label
_atom_site_type_symbol
_atom_site_fract_x
_atom_site_fract_y
_atom_site_fract_z
Zn1	Zn	-0.316171	1.110900	-0.471191
Zn2	Zn	0.017162	1.444233	-0.137857
Zn3	Zn	0.350496	1.777566	0.195476
Zn4	Zn	-0.433731	1.117074	-0.331781
Zn5	Zn	-0.100398	1.450407	0.001553
Zn6	Zn	0.232935	1.783741	0.334886
Zn7	Zn	-0.309900	0.993336	-0.331815
Zn8	Zn	0.023433	1.326669	0.001518
Zn9	Zn	0.356767	1.660002	0.334851
Zn10	Zn	-0.439965	0.987010	-0.471171
Zn11	Zn	-0.106631	1.320343	-0.137837
Zn12	Zn	0.226702	1.653677	0.195496
O13	O	-0.374942	1.052080	-0.401489
O14	O	-0.041608	1.385413	-0.068156
O15	O	0.291725	1.718747	0.265177
O16	O	-0.331781	1.215352	-0.452692
O17	O	0.001552	1.548685	-0.119358
O18	O	0.334885	1.882018	0.213975
O19	O	-0.412072	1.105891	-0.215121
O20	O	-0.078739	1.439225	0.118213
O21	O	0.254595	1.772558	0.451546
O22	O	-0.207100	1.008994	-0.350327
O23	O	0.126233	1.342327	-0.016993
O24	O	0.459567	1.675661	0.316340
O25	O	-0.418152	1.219888	-0.350268
O26	O	-0.084819	1.553222	-0.016934
O27	O	0.248514	1.886555	0.316399
O28	O	-0.211707	1.095368	-0.452725
O29	O	0.121626	1.428701	-0.119392
O30	O	0.454959	1.762034	0.213941
O31	O	-0.321094	1.014981	-0.215146
O32	O	0.012240	1.348314	0.118187
O33	O	0.345573	1.681648	0.451520
O34	O	-0.327138	0.888863	-0.350307
O35	O	0.006196	1.222197	-0.016974
O36	O	0.339529	1.555530	0.316360
O37	O	-0.428776	0.998213	-0.587838
O38	O	-0.095443	1.331546	-0.254504
O39	O	0.237891	1.664880	0.078829
O40	O	-0.422696	0.884216	-0.452691
O41	O	-0.089362	1.217549	-0.119357
O42	O	0.243971	1.550883	0.213976
O43	O	-0.337825	1.089234	-0.587853
O44	O	-0.004492	1.422567	-0.254519
O45	O	0.328841	1.755901	0.078814
O46	O	-0.538190	1.099758	-0.350248
O47	O	-0.204857	1.433091	-0.016915
O48	O	0.128477	1.766424	0.316419
O49	O	-0.542770	1.004200	-0.452657
O50	O	-0.209436	1.337534	-0.119324
O51	O	0.123897	1.670867	0.214009
C52	C	-0.374913	0.859669	-0.401501
C53	C	-0.041580	1.193002	-0.068168
C54	C	0.291754	1.526335	0.265166
C55	C	-0.374920	0.777354	-0.401526
C56	C	-0.041586	1.110687	-0.068192
C57	C	0.291747	1.444020	0.265141
C58	C	-0.374962	0.478264	-0.401491
C59	C	-0.041628	0.811597	-0.068157
C60	C	0.291705	1.144931	0.265176
C61	C	-0.435346	0.506704	-0.465590
C62	C	-0.102013	0.840038	-0.132257
C63	C	0.231320	1.173371	0.201077
C64	C	-0.435178	0.592311	-0.465853
C65	C	-0.101845	0.925644	-0.132520
C66	C	0.231488	1.258978	0.200813
C67	C	-0.374941	0.626646	-0.401508
C68	C	-0.041608	0.959979	-0.068175
C69	C	0.291725	1.293313	0.265159
C70	C	-0.298022	0.594510	-0.425515
C71	C	0.035312	0.927844	-0.092182
C72	C	0.368645	1.261177	0.241151
C73	C	-0.298388	0.508845	-0.425971
C74	C	0.034946	0.842178	-0.092638
C75	C	0.368279	1.175511	0.240696
C76	C	-0.390802	0.513787	-0.313230
C77	C	-0.057469	0.847120	0.020103
C78	C	0.275865	1.180453	0.353437
C79	C	-0.392535	0.599415	-0.313702
C80	C	-0.059201	0.932749	0.019632
C81	C	0.274132	1.266082	0.352965
C82	C	-0.374925	0.710505	-0.401517
C83	C	-0.041592	1.043838	-0.068183
C84	C	0.291741	1.377172	0.265150
C85	C	-0.374973	0.394405	-0.401485
C86	C	-0.041639	0.727738	-0.068151
C87	C	0.291694	1.061072	0.265182
C88	C	-0.567351	1.051982	-0.401465
C89	C	-0.234018	1.385315	-0.068131
C90	C	0.099315	1.718649	0.265202
C91	C	-0.649666	1.052006	-0.401482
C92	C	-0.316333	1.385340	-0.068149
C93	C	0.017001	1.718673	0.265185
C94	C	-0.948759	1.052167	-0.401527
C95	C	-0.615426	1.385500	-0.068194
C96	C	-0.282092	1.718834	0.265140
C97	C	-0.920353	0.992170	-0.466120
C98	C	-0.587020	1.325504	-0.132787
C99	C	-0.253687	1.658837	0.200547
C100	C	-0.834726	0.991908	-0.465918
C101	C	-0.501393	1.325241	-0.132585
C102	C	-0.168059	1.658575	0.200749
C103	C	-0.800376	1.052087	-0.401505
C104	C	-0.467042	1.385421	-0.068172
C105	C	-0.133709	1.718754	0.265161
C106	C	-0.827562	1.034915	-0.313645
C107	C	-0.494229	1.368248	0.019688
C108	C	-0.160896	1.701582	0.353021
C109	C	-0.913225	1.034530	-0.314032
C110	C	-0.579892	1.367863	0.019301
C111	C	-0.246558	1.701196	0.352635
C112	C	-0.918123	1.129496	-0.424021
C113	C	-0.584790	1.462829	-0.090687
C114	C	-0.251457	1.796162	0.242646
C115	C	-0.832559	1.128948	-0.425948
C116	C	-0.499226	1.462281	-0.092614
C117	C	-0.165892	1.795615	0.240719
C118	C	-0.716515	1.052044	-0.401488
C119	C	-0.383182	1.385377	-0.068155
C120	C	-0.049849	1.718710	0.265179
C121	C	-1.032619	1.052209	-0.401539
C122	C	-0.699286	1.385542	-0.068205
C123	C	-0.365952	1.718876	0.265128
C124	C	-0.181782	1.052198	-0.401532
C125	C	0.151552	1.385531	-0.068199
C126	C	0.484885	1.718864	0.265135
C127	C	-0.099468	1.052248	-0.401550
C128	C	0.233865	1.385581	-0.068217
C129	C	0.567198	1.718914	0.265116
C130	C	-0.384695	1.042329	-0.618941
C131	C	-0.051362	1.375662	-0.285607
C132	C	0.281971	1.708996	0.047726
C133	C	-0.388852	1.038174	-0.711605
C134	C	-0.055519	1.371507	-0.378272
C135	C	0.277815	1.704841	-0.044939
C136	C	-0.374971	1.245242	-0.401478
C137	C	-0.041638	1.578576	-0.068145
C138	C	0.291696	1.911909	0.265189
C139	C	-0.374983	1.327556	-0.401473
C140	C	-0.041650	1.660890	-0.068140
C141	C	0.291683	1.994223	0.265193
C142	C	-0.353247	1.073747	-0.922560
C143	C	-0.019914	1.407081	-0.589227
C144	C	0.313419	1.740414	-0.255893
C145	C	-0.396410	1.030563	-0.881260
C146	C	-0.063077	1.363896	-0.547926
C147	C	0.270257	1.697230	-0.214593
C148	C	-0.392203	1.034799	-0.786855
C149	C	-0.058870	1.368132	-0.453522
C150	C	0.274463	1.701466	-0.120189
C151	C	-0.357453	1.069512	-1.016973
C152	C	-0.024120	1.402845	-0.683640
C153	C	0.309214	1.736179	-0.350306
C154	C	-0.365173	1.061835	-0.184884
C155	C	-0.031839	1.395169	0.148449
C156	C	0.301494	1.728502	0.481783
C157	C	-0.360807	1.066134	-0.092220
C158	C	-0.027474	1.399467	0.241114
C159	C	0.305859	1.732801	0.574447
H160	H	-0.492343	0.613984	-0.450807
H161	H	-0.159009	0.947317	-0.117474
H162	H	0.174324	1.280650	0.215859
H163	H	-0.449116	0.620535	-0.295595
H164	H	-0.115783	0.953868	0.037738
H165	H	0.217550	1.287202	0.371071
H166	H	-0.351430	0.623082	-0.263378
H167	H	-0.018097	0.956415	0.069955
H168	H	0.315237	1.289749	0.403289
Cl169	Cl	-0.291312	1.135727	-0.867689
Cl170	Cl	0.042021	1.469061	-0.534356
Cl171	Cl	0.375354	1.802394	-0.201022
H172	H	-0.436517	0.990406	-0.916802
H173	H	-0.103184	1.323739	-0.583468
H174	H	0.230149	1.657073	-0.250135
Cl175	Cl	-0.942839	0.947439	-0.284612
Cl176	Cl	-0.609506	1.280772	0.048721
Cl177	Cl	-0.276173	1.614105	0.382054
Cl178	Cl	-0.322823	0.485828	-0.239491
Cl179	Cl	0.010510	0.819162	0.093842
Cl180	Cl	0.343844	1.152495	0.427175
H181	H	-0.492707	0.486759	-0.450712
H182	H	-0.159374	0.820093	-0.117379
H183	H	0.173959	1.153426	0.215955
Cl184	Cl	-0.419899	0.468958	-0.565970
Cl185	Cl	-0.086566	0.802291	-0.232637
Cl186	Cl	0.246767	1.135625	0.100696
H187	H	-0.251984	0.616912	-0.380285
H188	H	0.081350	0.950245	-0.046952
H189	H	0.414683	1.283578	0.286382
Cl190	Cl	-0.955777	1.154858	-0.521250
Cl191	Cl	-0.622444	1.488192	-0.187917
Cl192	Cl	-0.289110	1.821525	0.145416
Cl193	Cl	-0.806740	1.007784	-0.566502
Cl194	Cl	-0.473406	1.341117	-0.233169
Cl195	Cl	-0.140073	1.674451	0.100164
Cl196	Cl	-0.793195	0.948782	-0.283695
Cl197	Cl	-0.459862	1.282115	0.049638
Cl198	Cl	-0.126528	1.615448	0.382971
H199	H	-0.284486	0.485978	-0.490494
H200	H	0.048847	0.819311	-0.157160
H201	H	0.382181	1.152644	0.176173
Cl202	Cl	-0.419483	0.619423	-0.566819
Cl203	Cl	-0.086149	0.952757	-0.233486
Cl204	Cl	0.247184	1.286090	0.099847
H205	H	-0.804965	1.077414	-0.264207
H206	H	-0.471632	1.410747	0.069126
H207	H	-0.138299	1.744080	0.402460
H208	H	-0.252006	0.490129	-0.381425
H209	H	0.081327	0.823462	-0.048092
H210	H	0.414660	1.156796	0.285242
Cl211	Cl	-0.276039	0.623208	-0.524052
Cl212	Cl	0.057294	0.956541	-0.190718
Cl213	Cl	0.390628	1.289874	0.142615
Cl214	Cl	-0.941754	1.099392	-0.237189
Cl215	Cl	-0.608420	1.432726	0.096144
Cl216	Cl	-0.275087	1.766059	0.429477
H217	H	-0.445724	0.493156	-0.291412
H218	H	-0.112391	0.826489	0.041921
H219	H	0.220942	1.159822	0.375254
H220	H	-0.943850	1.002315	-0.531479
H221	H	-0.610516	1.335648	-0.198145
H222	H	-0.277183	1.668982	0.135188
H223	H	-0.815114	1.141970	-0.490608
H224	H	-0.481780	1.475303	-0.157274
H225	H	-0.148447	1.808636	0.176059
H226	H	-0.809183	1.175696	-0.382329
H227	H	-0.475849	1.509029	-0.048996
H228	H	-0.142516	1.842362	0.284337
H229	H	-0.941272	0.935117	-0.451409
H230	H	-0.607938	1.268450	-0.118076
H231	H	-0.274605	1.601784	0.215258
H232	H	-0.813626	0.934510	-0.451019
H233	H	-0.480293	1.267844	-0.117686
H234	H	-0.146960	1.601177	0.215647
Cl235	Cl	-0.946132	1.198437	-0.351400
Cl236	Cl	-0.612799	1.531770	-0.018067
Cl237	Cl	-0.279466	1.865103	0.315267
