data_functionalizedCrystal
_audit_creation_method	'MofGen! by Chris Wilmer'
_symmetry_space_group_name_H-M	'P1'
_symmetry_Int_Tables_number	1
_symmetry_cell_setting	triclinic
loop_
_symmetry_equiv_pos_as_xyz
  x,y,z
_cell_length_a	13.897449
_cell_length_b	16.959454
_cell_length_c	16.959447
_cell_angle_alpha	90.026736
_cell_angle_beta	89.985709
_cell_angle_gamma	89.978645
loop_
_atom_site_label
_atom_site_type_symbol
_atom_site_fract_x
_atom_site_fract_y
_atom_site_fract_z
Zn1	Zn	1.474625	0.314639	-0.446928
Zn2	Zn	1.474531	0.446831	-0.314757
Zn3	Zn	1.313333	0.314674	-0.314765
Zn4	Zn	1.313289	0.446782	-0.446896
O5	O	1.393945	0.380732	-0.380837
O6	O	1.609594	0.332181	-0.429405
O7	O	1.453126	0.429336	-0.204148
O8	O	1.334786	0.204058	-0.332313
O9	O	1.609525	0.429302	-0.332300
O10	O	1.453287	0.204033	-0.429413
O11	O	1.334694	0.332240	-0.204153
O12	O	1.178345	0.332192	-0.332283
O13	O	1.334713	0.429218	-0.557511
O14	O	1.178314	0.429252	-0.429359
O15	O	1.453245	0.332133	-0.557535
O16	O	1.453084	0.557436	-0.332269
O17	O	1.334621	0.557400	-0.429351
C18	C	1.143330	0.380721	-0.380819
C19	C	1.036116	0.380736	-0.380830
C20	C	1.393864	0.586098	-0.380823
C21	C	1.393917	0.673954	-0.380844
C22	C	1.393985	0.380666	-0.587005
C23	C	1.394002	0.380638	-0.674862
C24	C	0.839821	0.380738	-0.380850
C25	C	0.949054	0.380734	-0.380837
C26	C	1.645537	0.380743	-0.380855
C27	C	1.752751	0.380748	-0.380863
C28	C	1.394052	0.174563	-0.380867
C29	C	1.394098	0.086707	-0.380881
C30	C	1.332350	1.045441	-0.431382
C31	C	1.455808	1.045419	-0.330372
C32	C	1.455774	0.962873	-0.330365
C33	C	1.394026	0.921607	-0.380866
C34	C	1.332313	0.962888	-0.431374
C35	C	1.517480	0.921586	-0.279852
C36	C	1.517448	0.839036	-0.279842
C37	C	1.455704	0.797768	-0.330348
C38	C	1.393989	0.839054	-0.380859
C39	C	1.332241	0.797788	-0.431360
C40	C	1.270530	0.839072	-0.481875
C41	C	1.270569	0.921621	-0.481880
C42	C	1.455665	0.715220	-0.330343
C43	C	1.332204	0.715235	-0.431352
C44	C	1.332402	0.431103	-1.046328
C45	C	1.455832	0.330007	-1.046347
C46	C	1.455806	0.330024	-0.963801
C47	C	1.394079	0.380582	-0.922515
C48	C	1.332377	0.431123	-0.963774
C49	C	1.517513	0.279490	-0.922535
C50	C	1.517491	0.279505	-0.839984
C51	C	1.455758	0.330059	-0.798697
C52	C	1.394053	0.380602	-0.839961
C53	C	1.332326	0.431159	-0.798675
C54	C	1.270615	0.481698	-0.839938
C55	C	1.270644	0.481677	-0.922486
C56	C	1.455729	0.330081	-0.716148
C57	C	1.332300	0.431179	-0.716121
C58	C	1.393960	0.380740	-0.175470
C59	C	1.394130	0.380545	-0.087614
H60	H	1.281925	0.681641	-0.472480
C61	C	1.285276	1.070805	-0.565198
C62	C	1.264522	1.090818	-0.486908
H63	H	1.243404	1.098823	-0.599477
H64	H	1.276411	1.015743	-0.572412
H65	H	1.350086	1.084289	-0.576804
H66	H	1.199713	1.077328	-0.475300
H67	H	1.273379	1.145892	-0.479690
C68	C	1.585458	0.319138	-0.623321
C69	C	1.523559	0.274536	-0.670794
H70	H	1.627339	0.284843	-0.595326
H71	H	1.548689	0.349237	-0.586920
H72	H	1.622339	0.353572	-0.655524
H73	H	1.486674	0.240106	-0.638590
H74	H	1.560333	0.244423	-0.707198
C75	C	1.318963	0.537407	-1.139132
C76	C	1.264574	0.486656	-1.091678
H77	H	1.277087	0.571706	-1.167125
H78	H	1.355716	0.507294	-1.175533
H79	H	1.360964	0.567649	-1.106915
H80	H	1.222578	0.456410	-1.123895
H81	H	1.227805	0.516772	-1.055273
H82	H	1.567739	0.238352	-0.806395
H83	H	1.506093	0.288850	-1.079967
C84	C	1.148631	0.581610	-0.914175
C85	C	1.202822	0.537231	-0.967843
H86	H	1.106760	0.615904	-0.942181
H87	H	1.190630	0.611852	-0.881970
H88	H	1.111739	0.547170	-0.881988
H89	H	1.239720	0.571671	-1.000027
H90	H	1.160818	0.506987	-1.000062
C91	C	1.680877	0.240998	-0.947961
C92	C	1.585366	0.223921	-0.967913
H93	H	1.722766	0.206692	-0.975982
H94	H	1.689687	0.233777	-0.892900
H95	H	1.694953	0.294106	-0.961485
H96	H	1.571287	0.170814	-0.954384
H97	H	1.576551	0.231135	-1.022987
C98	C	1.202510	0.442188	-0.623290
C99	C	1.264444	0.486757	-0.670746
H100	H	1.160616	0.476501	-0.595283
H101	H	1.239253	0.412105	-0.586901
H102	H	1.165645	0.407738	-0.655506
H103	H	1.301314	0.521202	-0.638529
H104	H	1.227697	0.516853	-0.707139
H105	H	1.220250	0.805464	-0.522990
H106	H	1.220326	0.955241	-0.523006
C107	C	1.510616	1.171950	-0.285485
C108	C	1.523636	1.090776	-0.274829
H109	H	1.552486	1.199952	-0.251187
H110	H	1.445815	1.185498	-0.273899
H111	H	1.524735	1.185451	-0.338597
H112	H	1.509510	1.077274	-0.221719
H113	H	1.588452	1.077222	-0.286409
H114	H	1.505905	0.681610	-0.289210
C115	C	1.680832	0.947014	-0.241423
C116	C	1.585302	0.966987	-0.224339
H117	H	1.722689	0.975055	-0.207145
H118	H	1.694922	0.960492	-0.294537
H119	H	1.689675	0.891950	-0.234157
H120	H	1.576457	1.022050	-0.231610
H121	H	1.571207	0.953515	-0.171211
H122	H	1.567697	0.805427	-0.238711
H123	H	1.220361	0.522866	-0.806312
