data_functionalizedCrystal
_audit_creation_method	'MofGen! by Chris Wilmer'
_symmetry_space_group_name_H-M	'P1'
_symmetry_Int_Tables_number	1
_symmetry_cell_setting	triclinic
loop_
_symmetry_equiv_pos_as_xyz
  x,y,z
_cell_length_a	19.288840
_cell_length_b	11.026607
_cell_length_c	17.766277
_cell_angle_alpha	89.996915
_cell_angle_beta	89.983415
_cell_angle_gamma	95.856016
loop_
_atom_site_label
_atom_site_type_symbol
_atom_site_fract_x
_atom_site_fract_y
_atom_site_fract_z
O1	O	0.940532	0.151132	-0.062721
O2	O	0.740861	0.171570	-0.062695
O3	O	0.824148	-0.015209	-0.062703
O4	O	0.857245	0.337911	-0.062712
O5	O	0.824128	-0.015218	0.062486
O6	O	0.740841	0.171561	0.062494
O7	O	0.940512	0.151122	0.062468
Cu8	Cu	0.840675	0.161341	0.073912
Cu9	Cu	0.840698	0.161352	-0.074138
O10	O	0.857225	0.337902	0.062476
C11	C	0.714892	0.170913	-0.000097
C12	C	0.637539	0.168954	-0.000087
C13	C	0.601227	0.168018	-0.068329
C14	C	0.528545	0.166164	-0.068338
C15	C	0.492176	0.165221	-0.000101
C16	C	0.528497	0.166164	0.068150
C17	C	0.601179	0.168031	0.068157
C18	C	0.373457	0.091232	0.052169
C19	C	0.300776	0.089358	0.052159
C20	C	0.268003	0.159470	-0.000121
C21	C	0.307918	0.231441	-0.052403
C22	C	0.380600	0.233307	-0.052396
C23	C	0.413366	0.163198	-0.000102
C24	C	0.152881	0.156526	-0.068378
C25	C	0.080198	0.154679	-0.068384
C26	C	0.080151	0.154667	0.068106
C27	C	0.152834	0.156526	0.068110
C28	C	0.189194	0.157449	-0.000133
C29	C	0.818032	-0.060390	-0.000108
C30	C	0.799831	-0.195002	-0.000109
C31	C	0.850089	-0.269090	-0.000116
C32	C	0.831277	-0.408219	-0.000117
C33	C	0.966482	0.151780	-0.000131
C34	C	1.043835	0.153738	-0.000146
C35	C	0.863341	0.383083	-0.000120
C36	C	0.881543	0.517694	-0.000124
N37	N	0.840663	0.161332	0.178042
N38	N	0.840714	0.161351	-0.178269
C39	C	0.877563	0.078667	0.217425
C40	C	0.877566	0.078661	0.296227
C41	C	0.840679	0.161342	0.335643
C42	C	0.803771	0.244013	0.296250
C43	C	0.803763	0.244009	0.217449
C44	C	0.845394	0.271834	0.460478
C45	C	0.845407	0.271841	0.539277
C46	C	0.840700	0.161356	0.578689
C47	C	0.835993	0.050861	0.539292
C48	C	0.835985	0.050856	0.460492
C49	C	0.840683	0.161356	0.421088
C50	C	0.877605	0.078678	0.703518
C51	C	0.877603	0.078671	0.782321
C52	C	0.803812	0.244034	0.782343
C53	C	0.803810	0.244030	0.703541
C54	C	0.840709	0.161354	0.664133
H55	H	0.413096	0.291911	-0.094965
O56	O	0.493178	0.165084	-0.134585
C57	C	0.405925	0.057890	-0.213812
C58	C	0.445910	0.058976	-0.138754
H59	H	0.367710	-0.027901	-0.217215
H60	H	0.376089	0.141802	-0.217247
H61	H	0.444415	0.058933	-0.262571
H62	H	0.407467	0.057892	-0.089953
H63	H	0.475756	-0.024928	-0.135386
O64	O	0.262077	0.019274	0.102916
C65	C	0.229703	-0.183201	0.150579
C66	C	0.273575	-0.103969	0.093067
H67	H	0.238973	-0.282861	0.142625
H68	H	0.245481	-0.152958	0.210050
H69	H	0.172132	-0.172439	0.141604
H70	H	0.331156	-0.114692	0.101972
H71	H	0.257739	-0.134231	0.033617
H72	H	0.938501	-0.442742	-0.000188
H73	H	0.907607	0.011344	0.185342
O74	O	0.831302	-0.056406	0.422147
C75	C	0.765879	-0.187575	0.333272
C76	C	0.771122	-0.066043	0.376631
H77	H	0.717220	-0.195418	0.296474
H78	H	0.813970	-0.190815	0.296298
H79	H	0.762544	-0.266511	0.374994
H80	H	0.774435	0.012961	0.334963
H81	H	0.723030	-0.062909	0.413617
H82	H	0.742877	-0.234573	-0.000106
H83	H	0.774320	-0.447784	-0.000114
O84	O	0.913470	-0.001695	0.334378
C85	C	0.986622	-0.165763	0.326047
C86	C	0.946008	-0.074804	0.282751
H87	H	1.012927	-0.224912	0.284325
H88	H	1.027886	-0.113628	0.362901
H89	H	0.949072	-0.226146	0.362977
H90	H	0.983503	-0.014398	0.245780
H91	H	0.904734	-0.127015	0.245944
O92	O	0.044942	0.153810	0.134460
C93	C	0.052563	0.153924	0.269837
C94	C	0.092529	0.154919	0.194744
H95	H	0.091018	0.154795	0.318597
H96	H	0.022800	0.237920	0.273296
H97	H	0.014272	0.068224	0.273207
H98	H	0.130855	0.240563	0.191324
H99	H	0.122246	0.070866	0.191317
H100	H	0.907648	0.011354	0.671431
H101	H	0.281237	0.288538	-0.094972
H102	H	0.182488	0.157290	-0.123946
O103	O	0.636441	0.168974	-0.134686
C104	C	0.628809	0.168699	-0.270063
C105	C	0.588842	0.167643	-0.194969
H106	H	0.590341	0.167597	-0.318822
H107	H	0.667063	0.254439	-0.273531
H108	H	0.658615	0.084745	-0.273426
H109	H	0.558996	0.251538	-0.191556
H110	H	0.550630	0.081847	-0.191534
O111	O	0.831298	-0.056453	0.577595
C112	C	0.765980	-0.187590	0.666617
C113	C	0.771199	-0.066035	0.623273
H114	H	0.717401	-0.195364	0.703570
H115	H	0.762569	-0.266601	0.624952
H116	H	0.814143	-0.190755	0.703457
H117	H	0.723049	-0.062750	0.586431
H118	H	0.774644	0.012921	0.664978
H119	H	0.907648	0.011348	0.814388
O120	O	0.767909	0.324436	0.179305
C121	C	0.694686	0.488400	0.187642
C122	C	0.735272	0.397398	0.230935
H123	H	0.668276	0.547397	0.229366
H124	H	0.732201	0.548928	0.150755
H125	H	0.653491	0.436178	0.150746
H126	H	0.776468	0.449522	0.267872
H127	H	0.697713	0.336872	0.267775
O128	O	0.850095	0.379141	0.577580
C129	C	0.915411	0.510274	0.666556
C130	C	0.910199	0.388730	0.623212
H131	H	0.963994	0.518054	0.703471
H132	H	0.918809	0.589295	0.624892
H133	H	0.867250	0.513415	0.703434
H134	H	0.958346	0.385470	0.586332
H135	H	0.906768	0.309765	0.664917
H136	H	0.773775	0.311349	0.814434
H137	H	0.773766	0.311349	0.671473
H138	H	0.849216	0.361810	0.428396
H139	H	0.907042	-0.229519	-0.000119
H140	H	0.182399	0.157280	0.123681
H141	H	0.400134	0.034135	0.094746
O142	O	0.045027	0.153718	-0.134746
C143	C	0.052749	0.153972	-0.270122
C144	C	0.092666	0.155036	-0.195021
H145	H	0.091249	0.155063	-0.318874
H146	H	0.014495	0.068234	-0.273581
H147	H	0.022948	0.237928	-0.273504
H148	H	0.122507	0.071138	-0.191588
H149	H	0.130878	0.240829	-0.191594
O150	O	0.493241	0.165084	0.134483
C151	C	0.465677	0.059431	0.251119
C152	C	0.505652	0.060511	0.176029
H153	H	0.475685	-0.025120	0.284723
H154	H	0.484207	0.144587	0.284823
H155	H	0.407498	0.057991	0.239374
H156	H	0.563838	0.061909	0.187706
H157	H	0.487064	-0.024639	0.142348
H158	H	0.773736	0.311332	0.328346
H159	H	0.630743	0.168794	0.123730
