data_functionalizedCrystal
_audit_creation_method	'MofGen! by Chris Wilmer'
_symmetry_space_group_name_H-M	'P1'
_symmetry_Int_Tables_number	1
_symmetry_cell_setting	triclinic
loop_
_symmetry_equiv_pos_as_xyz
  x,y,z
_cell_length_a	15.538191
_cell_length_b	19.188930
_cell_length_c	14.185569
_cell_angle_alpha	76.885558
_cell_angle_beta	97.875798
_cell_angle_gamma	65.208438
loop_
_atom_site_label
_atom_site_type_symbol
_atom_site_fract_x
_atom_site_fract_y
_atom_site_fract_z
O1	O	1.229395	-0.205739	-0.083403
O2	O	0.954801	-0.125034	-0.083413
O3	O	1.100027	-0.269037	-0.083388
O4	O	1.084169	-0.061735	-0.083427
O5	O	1.142929	-0.311574	0.083454
O6	O	0.997702	-0.167570	0.083429
O7	O	1.272296	-0.248275	0.083439
Cu8	Cu	1.138916	-0.211807	0.098668
Cu9	Cu	1.088181	-0.161503	-0.098642
O10	O	1.127070	-0.104272	0.083415
C11	C	0.941121	-0.137858	0.000007
C12	C	0.836443	-0.112707	0.000004
C13	C	1.120966	-0.316188	0.000036
C14	C	1.119427	-0.393308	0.000045
C15	C	0.549690	-0.362580	0.000037
C16	C	0.451326	-0.338928	0.000032
C17	C	0.428328	-0.205894	0.000006
C18	C	0.526694	-0.229535	0.000016
C19	C	0.587368	-0.307879	0.000031
C20	C	0.564371	-0.174835	0.000010
C21	C	0.662727	-0.198474	0.000015
C22	C	0.723406	-0.276813	0.000026
C23	C	0.685724	-0.331518	0.000035
C24	C	0.503694	-0.096489	-0.000011
C25	C	0.541372	-0.041789	-0.000017
C26	C	0.639731	-0.065429	-0.000005
C27	C	0.700410	-0.143769	0.000006
C28	C	0.677414	-0.010724	-0.000015
C29	C	0.775770	-0.034363	-0.000010
C30	C	0.798766	-0.167408	0.000011
C31	C	1.204639	-0.459636	0.000053
C32	C	1.203188	-0.532092	0.000037
C33	C	1.116524	-0.538221	0.000033
C34	C	1.031299	-0.471879	0.000019
C35	C	1.032751	-0.399423	0.000025
N36	N	1.064881	-0.644063	0.056810
N37	N	1.063508	-0.712897	0.056806
C38	C	1.112146	-0.756526	0.000012
N39	N	1.162225	-0.728730	-0.056765
N40	N	1.163601	-0.659893	-0.056757
C41	C	1.114941	-0.616785	0.000025
C42	C	1.195790	-0.901421	0.000001
C43	C	1.194333	-0.973876	-0.000021
C44	C	1.022445	-0.913663	-0.000028
C45	C	1.023901	-0.841208	-0.000016
C46	C	1.110577	-0.835093	0.000003
C47	C	1.285976	-0.235450	0.000017
C48	C	1.390652	-0.260600	0.000014
C49	C	1.106131	-0.057120	-0.000012
C50	C	1.107668	0.020001	-0.000027
N51	N	1.174608	-0.247190	0.237446
N52	N	1.052497	-0.126126	-0.237419
C53	C	0.947635	-0.022200	0.605057
C54	C	0.974678	-0.049000	0.710083
C55	C	1.103301	-0.176486	0.710066
C56	C	1.076267	-0.149699	0.605037
C57	C	0.998434	-0.072555	0.552541
C58	C	1.127065	-0.200053	0.552522
C59	C	1.100036	-0.173266	0.447503
C60	C	1.022208	-0.096124	0.394999
C61	C	0.971404	-0.045768	0.447522
C62	C	1.204902	-0.277194	0.605020
C63	C	1.255701	-0.327549	0.552505
C64	C	1.228667	-0.300764	0.447484
C65	C	1.150839	-0.223623	0.394980
C66	C	1.279470	-0.351121	0.394961
C67	C	1.252441	-0.324334	0.289942
C68	C	1.123810	-0.196836	0.289961
H69	H	0.848172	-0.231205	0.000028
H70	H	0.951880	-0.918651	-0.000037
H71	H	1.226910	-0.299000	0.690534
H72	H	0.599096	-0.426377	0.000054
H73	H	1.263724	-1.027882	-0.000020
H74	H	1.293808	-0.365338	0.247183
H75	H	0.954513	-0.787202	-0.000017
O76	O	0.812231	0.018859	0.000031
C77	C	0.737583	0.093081	-0.000005
H78	H	0.678963	0.082380	0.031583
H79	H	0.770419	0.120424	0.048427
H80	H	0.703007	0.136457	-0.080051
O81	O	0.408131	-0.073581	-0.000151
C82	C	0.359355	-0.080126	-0.086565
H83	H	0.415342	-0.125252	-0.115358
H84	H	0.304200	-0.101964	-0.067127
H85	H	0.319083	-0.018457	-0.147085
O86	O	0.818900	-0.299654	-0.000103
C87	C	0.823239	-0.249048	-0.086529
H88	H	0.752441	-0.189235	-0.115347
H89	H	0.888388	-0.237119	-0.067098
H90	H	0.832398	-0.279867	-0.147028
O91	O	1.288903	-0.453821	0.000021
C92	C	1.363810	-0.527914	0.000051
H93	H	1.329458	-0.562680	-0.031542
H94	H	1.411886	-0.515682	-0.048380
H95	H	1.410658	-0.565292	0.080096
O96	O	1.285942	-0.596625	0.000185
C97	C	1.312465	-0.662366	0.086607
H98	H	1.245030	-0.654424	0.115400
H99	H	1.342822	-0.721106	0.067179
H100	H	1.370988	-0.664730	0.147122
O101	O	0.947140	-0.477894	-0.000117
C102	C	0.918929	-0.495946	-0.086540
H103	H	0.985923	-0.525591	-0.115343
H104	H	0.886533	-0.539115	-0.067111
H105	H	0.861519	-0.437733	-0.147049
O106	O	0.744589	-0.407586	-0.000126
C107	C	0.705324	-0.420261	-0.086515
H108	H	0.656021	-0.359444	-0.146918
H109	H	0.767768	-0.458580	-0.115512
H110	H	0.660436	-0.453007	-0.066971
O111	O	0.895898	0.029230	0.396561
C112	C	0.917518	0.088005	0.422225
H113	H	1.000435	0.061892	0.451084
H114	H	0.888751	0.143440	0.353153
H115	H	0.880850	0.106211	0.483186
O116	O	1.048303	-0.121838	0.239000
C117	C	1.069923	-0.063063	0.264664
H118	H	1.152840	-0.089176	0.293523
H119	H	1.041156	-0.007628	0.195592
H120	H	1.033255	-0.044857	0.325625
H121	H	0.491957	0.022000	-0.000033
H122	H	0.933305	-0.007987	0.752836
O123	O	0.872029	0.052774	0.554208
C124	C	0.832963	0.091470	0.623076
H125	H	0.890879	0.063391	0.697932
H126	H	0.810531	0.158668	0.592726
H127	H	0.765889	0.083642	0.634260
O128	O	0.950069	-0.334967	0.000156
C129	C	0.967977	-0.313311	0.086584
H130	H	1.050220	-0.335946	0.115400
H131	H	0.927632	-0.244661	0.067155
H132	H	0.940561	-0.341812	0.147083
O133	O	1.280049	-0.895596	-0.000042
C134	C	1.354954	-0.969683	-0.000028
H135	H	1.320600	-1.004450	-0.031617
H136	H	1.403017	-0.957443	-0.048469
H137	H	1.401814	-1.007066	0.080012
O138	O	0.414895	-0.392181	0.000081
C139	C	0.489534	-0.466388	0.000065
H140	H	0.564396	-0.471792	0.031656
H141	H	0.481610	-0.518434	0.048503
H142	H	0.482950	-0.468943	-0.079976
O143	O	0.995847	-0.069960	0.292983
C144	C	0.916242	0.008916	0.257913
H145	H	0.915201	0.039275	0.318434
H146	H	0.924610	0.045586	0.187644
H147	H	0.844546	0.005669	0.239301
H148	H	1.166676	-0.239296	0.752820
H149	H	1.342849	-0.413929	0.437717
O150	O	0.369265	-0.129836	0.000040
C151	C	0.274366	-0.120692	0.000009
H152	H	0.278933	-0.182686	0.031598
H153	H	0.242097	-0.081578	0.048442
H154	H	0.225330	-0.090419	-0.080036
H155	H	0.627997	0.053066	-0.000036
H156	H	1.319076	-0.390359	0.595259
