data_functionalizedCrystal
_audit_creation_method	'MofGen! by Chris Wilmer'
_symmetry_space_group_name_H-M	'P1'
_symmetry_Int_Tables_number	1
_symmetry_cell_setting	triclinic
loop_
_symmetry_equiv_pos_as_xyz
  x,y,z
_cell_length_a	18.215407
_cell_length_b	16.625545
_cell_length_c	18.215399
_cell_angle_alpha	90.027013
_cell_angle_beta	89.982632
_cell_angle_gamma	89.978520
loop_
_atom_site_label
_atom_site_type_symbol
_atom_site_fract_x
_atom_site_fract_y
_atom_site_fract_z
Zn1	Zn	1.125076	0.321065	-0.416072
Zn2	Zn	1.375076	0.571065	-0.166072
Zn3	Zn	1.625076	0.821065	0.083928
Zn4	Zn	1.875076	1.071065	0.333928
Zn5	Zn	1.124986	0.455905	-0.293008
Zn6	Zn	1.374986	0.705905	-0.043008
Zn7	Zn	1.624986	0.955905	0.206992
Zn8	Zn	1.874986	1.205905	0.456992
Zn9	Zn	1.002009	0.321084	-0.293025
Zn10	Zn	1.252009	0.571084	-0.043025
Zn11	Zn	1.502009	0.821084	0.206975
Zn12	Zn	1.752009	1.071084	0.456975
Zn13	Zn	1.001977	0.455853	-0.416038
Zn14	Zn	1.251977	0.705853	-0.166038
Zn15	Zn	1.501977	0.955853	0.083962
Zn16	Zn	1.751977	1.205853	0.333962
O17	O	1.063512	0.388477	-0.354536
O18	O	1.313512	0.638477	-0.104536
O19	O	1.563512	0.888477	0.145464
O20	O	1.813512	1.138477	0.395464
O21	O	1.228049	0.338965	-0.399755
O22	O	1.478049	0.588965	-0.149755
O23	O	1.728049	0.838965	0.100245
O24	O	1.978049	1.088965	0.350245
O25	O	1.108649	0.438051	-0.190026
O26	O	1.358649	0.688051	0.059974
O27	O	1.608649	0.938051	0.309974
O28	O	1.858649	1.188051	0.559974
O29	O	1.018385	0.208249	-0.309369
O30	O	1.268385	0.458249	-0.059369
O31	O	1.518385	0.708249	0.190631
O32	O	1.768385	0.958249	0.440631
O33	O	1.227983	0.438032	-0.309340
O34	O	1.477983	0.688032	-0.059340
O35	O	1.727983	0.938032	0.190660
O36	O	1.977983	1.188032	0.440660
O37	O	1.108802	0.208235	-0.399771
O38	O	1.358802	0.458235	-0.149771
O39	O	1.608802	0.708235	0.100229
O40	O	1.858802	0.958235	0.350229
O41	O	1.018298	0.338998	-0.190038
O42	O	1.268298	0.588998	0.059962
O43	O	1.518298	0.838998	0.309962
O44	O	1.768298	1.088998	0.559962
O45	O	0.899020	0.338948	-0.309336
O46	O	1.149020	0.588948	-0.059336
O47	O	1.399020	0.838948	0.190664
O48	O	1.649020	1.088948	0.440664
O49	O	1.018330	0.437943	-0.519027
O50	O	1.268330	0.687943	-0.269027
O51	O	1.518330	0.937943	-0.019027
O52	O	1.768330	1.187943	0.230973
O53	O	0.898997	0.437962	-0.399713
O54	O	1.148997	0.687962	-0.149713
O55	O	1.398997	0.937962	0.100287
O56	O	1.648997	1.187962	0.350287
O57	O	1.108771	0.338915	-0.519052
O58	O	1.358771	0.588915	-0.269052
O59	O	1.608771	0.838915	-0.019052
O60	O	1.858771	1.088915	0.230948
O61	O	1.108618	0.568731	-0.309307
O62	O	1.358618	0.818731	-0.059307
O63	O	1.608618	1.068731	0.190693
O64	O	1.858618	1.318731	0.440693
O65	O	1.018243	0.568693	-0.399697
O66	O	1.268243	0.818693	-0.149697
O67	O	1.518243	1.068693	0.100303
O68	O	1.768243	1.318693	0.350303
C69	C	0.872306	0.388452	-0.354523
C70	C	1.122306	0.638452	-0.104523
C71	C	1.372306	0.888452	0.145477
C72	C	1.622306	1.138452	0.395477
C73	C	0.790507	0.388461	-0.354535
C74	C	1.040507	0.638461	-0.104535
C75	C	1.290507	0.888461	0.145465
C76	C	1.540507	1.138461	0.395465
C77	C	0.602346	0.336983	-0.401688
C78	C	0.852346	0.586983	-0.151688
C79	C	1.102346	0.836983	0.098312
C80	C	1.352346	1.086983	0.348312
C81	C	0.525488	0.336990	-0.401691
C82	C	0.775488	0.586990	-0.151691
C83	C	1.025488	0.836990	0.098309
C84	C	1.275488	1.086990	0.348309
C85	C	0.525430	0.439993	-0.307396
C86	C	0.775430	0.689993	-0.057396
C87	C	1.025430	0.939993	0.192604
C88	C	1.275430	1.189993	0.442604
C89	C	0.602287	0.439982	-0.307391
C90	C	0.852287	0.689982	-0.057391
C91	C	1.102287	0.939982	0.192609
C92	C	1.352287	1.189982	0.442609
C93	C	0.640743	0.388478	-0.354541
C94	C	0.890743	0.638478	-0.104541
C95	C	1.140743	0.888478	0.145459
C96	C	1.390743	1.138478	0.395459
C97	C	0.487027	0.388496	-0.354549
C98	C	0.737027	0.638496	-0.104549
C99	C	0.987027	0.888496	0.145451
C100	C	1.237027	1.138496	0.395451
C101	C	0.403694	0.388504	-0.354551
C102	C	0.653694	0.638504	-0.104551
C103	C	0.903694	0.888504	0.145449
C104	C	1.153694	1.138504	0.395449
C105	C	0.724082	0.388469	-0.354538
C106	C	0.974082	0.638469	-0.104538
C107	C	1.224082	0.888469	0.145462
C108	C	1.474082	1.138469	0.395462
C109	C	1.063437	0.597968	-0.354512
C110	C	1.313437	0.847968	-0.104512
C111	C	1.563437	1.097968	0.145488
C112	C	1.813437	1.347968	0.395488
C113	C	1.063472	0.687589	-0.354527
C114	C	1.313472	0.937589	-0.104527
C115	C	1.563472	1.187589	0.145473
C116	C	1.813472	1.437589	0.395473
C117	C	1.063593	1.015764	-0.354615
C118	C	1.313593	1.265764	-0.104615
C119	C	1.563593	1.515764	0.145385
C120	C	1.813593	1.765764	0.395385
C121	C	1.063557	0.924456	-0.354592
C122	C	1.313557	1.174456	-0.104592
C123	C	1.563557	1.424456	0.145408
C124	C	1.813557	1.674456	0.395408
C125	C	1.063532	0.851680	-0.354570
C126	C	1.313532	1.101680	-0.104570
C127	C	1.563532	1.351680	0.145430
C128	C	1.813532	1.601680	0.395430
C129	C	1.063497	0.760365	-0.354549
C130	C	1.313497	1.010365	-0.104549
C131	C	1.563497	1.260365	0.145451
C132	C	1.813497	1.510365	0.395451
C133	C	1.255465	0.388502	-0.354549
C134	C	1.505465	0.638502	-0.104549
C135	C	1.755465	0.888502	0.145451
C136	C	2.005465	1.138502	0.395451
C137	C	1.337264	0.388513	-0.354555
C138	C	1.587264	0.638513	-0.104555
C139	C	1.837264	0.888513	0.145445
C140	C	2.087264	1.138513	0.395445
C141	C	1.063601	1.178168	-0.354584
C142	C	1.313601	1.428168	-0.104584
C143	C	1.563601	1.678168	0.145416
C144	C	1.813601	1.928168	0.395416
C145	C	1.063623	1.088547	-0.354627
C146	C	1.313623	1.338547	-0.104627
C147	C	1.563623	1.588547	0.145373
C148	C	1.813623	1.838547	0.395373
C149	C	1.063557	0.388421	-0.546489
C150	C	1.313557	0.638421	-0.296489
C151	C	1.563557	0.888421	-0.046489
C152	C	1.813557	1.138421	0.203511
C153	C	1.063576	0.388398	-0.628288
C154	C	1.313576	0.638398	-0.378288
C155	C	1.563576	0.888398	-0.128288
C156	C	1.813576	1.138398	0.121712
C157	C	1.110685	0.336785	-0.816496
C158	C	1.360685	0.586785	-0.566496
C159	C	1.610685	0.836785	-0.316496
C160	C	1.860685	1.086785	-0.066496
C161	C	1.110694	0.336762	-0.893355
C162	C	1.360694	0.586762	-0.643355
C163	C	1.610694	0.836762	-0.393355
C164	C	1.860694	1.086762	-0.143355
C165	C	1.016519	0.439885	-0.893317
C166	C	1.266519	0.689885	-0.643317
C167	C	1.516519	0.939885	-0.393317
C168	C	1.766519	1.189885	-0.143317
C169	C	1.016507	0.439904	-0.816460
C170	C	1.266507	0.689904	-0.566460
C171	C	1.516507	0.939904	-0.316460
C172	C	1.766507	1.189904	-0.066460
C173	C	1.063594	0.388355	-0.778051
C174	C	1.313594	0.638355	-0.528051
C175	C	1.563594	0.888355	-0.278051
C176	C	1.813594	1.138355	-0.028051
C177	C	1.063615	0.388313	-0.931767
C178	C	1.313615	0.638313	-0.681767
C179	C	1.563615	0.888313	-0.431767
C180	C	1.813615	1.138313	-0.181767
C181	C	1.063624	0.388288	-1.015101
C182	C	1.313624	0.638288	-0.765101
C183	C	1.563624	0.888288	-0.515101
C184	C	1.813624	1.138288	-0.265101
C185	C	1.063584	0.388379	-0.694712
C186	C	1.313584	0.638379	-0.444712
C187	C	1.563584	0.888379	-0.194712
C188	C	1.813584	1.138379	0.055288
C189	C	1.063510	0.388474	-0.163330
C190	C	1.313510	0.638474	0.086670
C191	C	1.563510	0.888474	0.336670
C192	C	1.813510	1.138474	0.586670
C193	C	1.063633	0.388271	-0.081531
C194	C	1.313633	0.638271	0.168469
C195	C	1.563633	0.888271	0.418469
C196	C	1.813633	1.138271	0.668469
H197	H	0.494228	0.295057	-0.440082
H198	H	0.744228	0.545057	-0.190082
H199	H	0.994228	0.795057	0.059918
H200	H	1.244228	1.045057	0.309918
O201	O	0.965698	0.495525	-0.775001
O202	O	1.215698	0.745525	-0.525001
O203	O	1.465698	0.995525	-0.275001
O204	O	1.715698	1.245525	-0.025001
H205	H	0.998600	0.536563	-0.739970
H206	H	1.248600	0.786563	-0.489970
H207	H	1.498600	1.036563	-0.239970
H208	H	1.748600	1.286563	0.010030
O209	O	0.643828	0.281425	-0.452530
O210	O	0.893828	0.531425	-0.202530
O211	O	1.143828	0.781425	0.047470
O212	O	1.393828	1.031425	0.297470
H213	H	0.604212	0.245612	-0.485308
H214	H	0.854212	0.495612	-0.235308
H215	H	1.104212	0.745612	0.014692
H216	H	1.354212	0.995612	0.264692
O217	O	0.643706	0.495521	-0.256530
O218	O	0.893706	0.745521	-0.006530
O219	O	1.143706	0.995521	0.243470
O220	O	1.393706	1.245521	0.493470
H221	H	0.678733	0.536580	-0.289397
H222	H	0.928733	0.786580	-0.039397
H223	H	1.178733	1.036580	0.210603
H224	H	1.428733	1.286580	0.460603
O225	O	0.483953	0.495546	-0.256546
O226	O	0.733953	0.745546	-0.006546
O227	O	0.983953	0.995546	0.243454
O228	O	1.233953	1.245546	0.493454
H229	H	0.424058	0.486910	-0.264474
H230	H	0.674058	0.736910	-0.014474
H231	H	0.924058	0.986910	0.235526
H232	H	1.174058	1.236910	0.485526
O233	O	1.161467	0.281187	-0.775065
O234	O	1.411467	0.531187	-0.525065
O235	O	1.661467	0.781187	-0.275065
O236	O	1.911467	1.031187	-0.025065
H237	H	1.148869	0.217900	-0.789822
H238	H	1.398869	0.467900	-0.539822
H239	H	1.648869	0.717900	-0.289822
H240	H	1.898869	0.967900	-0.039822
O241	O	1.161489	0.281145	-0.934823
O242	O	1.411489	0.531145	-0.684823
O243	O	1.661489	0.781145	-0.434823
O244	O	1.911489	1.031145	-0.184823
H245	H	1.194232	0.245310	-0.895200
H246	H	1.444232	0.495310	-0.645200
H247	H	1.694232	0.745310	-0.395200
H248	H	1.944232	0.995310	-0.145200
H249	H	0.978183	0.481856	-0.924599
H250	H	1.228183	0.731856	-0.674599
H251	H	1.478183	0.981856	-0.424599
H252	H	1.728183	1.231856	-0.174599
