data_functionalizedCrystal
_audit_creation_method	'MofGen! by Chris Wilmer'
_symmetry_space_group_name_H-M	'P1'
_symmetry_Int_Tables_number	1
_symmetry_cell_setting	triclinic
loop_
_symmetry_equiv_pos_as_xyz
  x,y,z
_cell_length_a	16.109318
_cell_length_b	11.792241
_cell_length_c	15.186229
_cell_angle_alpha	89.996105
_cell_angle_beta	90.000224
_cell_angle_gamma	83.830989
loop_
_atom_site_label
_atom_site_type_symbol
_atom_site_fract_x
_atom_site_fract_y
_atom_site_fract_z
O1	O	1.103809	0.145979	-0.073156
O2	O	1.603809	0.645979	0.426844
O3	O	0.861834	0.164114	-0.073173
O4	O	1.361834	0.664114	0.426827
O5	O	0.988693	-0.010175	-0.073158
O6	O	1.488693	0.489825	0.426842
O7	O	0.976949	0.320268	-0.073171
O8	O	1.476949	0.820268	0.426829
O9	O	0.988685	-0.010178	0.073299
O10	O	1.488685	0.489822	0.573299
O11	O	0.861825	0.164111	0.073284
O12	O	1.361825	0.664111	0.573284
O13	O	1.103800	0.145976	0.073302
O14	O	1.603800	0.645976	0.573302
Zn15	Zn	0.982811	0.155043	0.096546
Zn16	Zn	1.482811	0.655043	0.596546
Zn17	Zn	0.982823	0.155047	-0.096418
Zn18	Zn	1.482823	0.655047	0.403582
O19	O	0.976941	0.320265	0.073286
O20	O	1.476941	0.820265	0.573286
C21	C	0.830852	0.163374	0.000053
C22	C	1.330852	0.663374	0.500053
C23	C	0.738547	0.161162	0.000046
C24	C	1.238547	0.661162	0.500046
C25	C	0.439444	0.154017	-0.079772
C26	C	0.939444	0.654017	0.420228
C27	C	0.526175	0.156088	-0.079777
C28	C	1.026175	0.656088	0.420223
C29	C	0.526184	0.156070	0.079898
C30	C	1.026184	0.656070	0.579898
C31	C	0.439456	0.153990	0.079903
C32	C	0.939456	0.653990	0.579903
C33	C	0.396087	0.152969	0.000065
C34	C	0.896087	0.652969	0.500065
C35	C	0.569547	0.157121	0.000055
C36	C	1.069547	0.657121	0.500055
C37	C	0.663585	0.159367	0.000050
C38	C	1.163585	0.659367	0.500050
C39	C	0.302044	0.150721	0.000070
C40	C	0.802044	0.650721	0.500070
C41	C	0.987951	-0.052461	0.000070
C42	C	1.487951	0.447539	0.500070
C43	C	0.985743	-0.178456	0.000069
C44	C	1.485743	0.321544	0.500069
C45	C	0.981683	-0.409133	0.000054
C46	C	1.481683	0.090867	0.500054
C47	C	0.983939	-0.280767	0.000063
C48	C	1.483939	0.219233	0.500063
C49	C	1.134782	0.146716	0.000073
C50	C	1.634782	0.646716	0.500073
C51	C	1.227087	0.148928	0.000074
C52	C	1.727087	0.648928	0.500074
C53	C	0.977683	0.362551	0.000056
C54	C	1.477683	0.862551	0.500056
C55	C	0.979891	0.488546	0.000051
C56	C	1.479891	0.988546	0.500051
N57	N	0.982810	0.155040	0.228239
N58	N	1.482810	0.655040	0.728239
N59	N	0.982831	0.155041	-0.228110
N60	N	1.482831	0.655041	0.271890
C61	C	1.039002	0.077891	0.453968
C62	C	1.539002	0.577891	0.953968
C63	C	1.039005	0.077889	0.546158
C64	C	1.539005	0.577889	1.046158
C65	C	0.926632	0.232193	0.546153
C66	C	1.426632	0.732193	1.046153
C67	C	0.926626	0.232190	0.453965
C68	C	1.426626	0.732190	0.953965
C69	C	0.982816	0.155040	0.407875
C70	C	1.482816	0.655040	0.907875
C71	C	0.982825	0.155041	0.592253
C72	C	1.482825	0.655041	1.092253
C73	C	0.982827	0.155039	0.692209
C74	C	1.482827	0.655039	1.192209
C75	C	0.982813	0.155041	0.307913
C76	C	1.482813	0.655041	0.807913
H77	H	0.404136	0.153184	-0.144781
H78	H	0.904136	0.653184	0.355219
O79	O	1.093608	0.002835	0.409332
O80	O	1.593608	0.502835	0.909332
C81	C	1.205096	-0.150175	0.419071
C82	C	1.705096	0.349825	0.919071
C83	C	1.143287	-0.065248	0.469728
C84	C	1.643287	0.434752	0.969728
H85	H	1.245289	-0.205225	0.467879
H86	H	1.745289	0.294775	0.967879
H87	H	1.168987	-0.206970	0.375943
H88	H	1.668987	0.293030	0.875943
H89	H	1.246810	-0.101136	0.375881
H90	H	1.746810	0.398864	0.875881
H91	H	1.101558	-0.114193	0.512966
H92	H	1.601558	0.385807	1.012966
H93	H	1.179448	-0.008453	0.512801
H94	H	1.679448	0.491547	1.012801
O95	O	0.397457	0.153028	0.157541
O96	O	0.897457	0.653028	0.657541
C97	C	0.406618	0.153158	0.315917
C98	C	0.906618	0.653158	0.815917
C99	C	0.454281	0.154283	0.228063
C100	C	0.954281	0.654283	0.728063
H101	H	0.452542	0.154148	0.372957
H102	H	0.952542	0.654148	0.872957
H103	H	0.358783	0.231582	0.319971
H104	H	0.858783	0.731582	0.819971
H105	H	0.373242	0.072819	0.319858
H106	H	0.873242	0.572819	0.819858
H107	H	0.487707	0.234569	0.224063
H108	H	0.987707	0.734569	0.724063
H109	H	0.502069	0.075805	0.224046
H110	H	1.002069	0.575805	0.724046
O111	O	0.872013	0.307247	0.409321
O112	O	1.372013	0.807247	0.909321
C113	C	0.760520	0.460250	0.419037
C114	C	1.260520	0.960250	0.919037
C115	C	0.822336	0.375337	0.469706
C116	C	1.322336	0.875337	0.969706
H117	H	0.720328	0.515307	0.467836
H118	H	1.220328	1.015307	0.967836
H119	H	0.796623	0.517042	0.375892
H120	H	1.296623	1.017042	0.875892
H121	H	0.718805	0.411200	0.375861
H122	H	1.218805	0.911200	0.875861
H123	H	0.864066	0.424295	0.512930
H124	H	1.364066	0.924295	1.012930
H125	H	0.786181	0.318547	0.512795
H126	H	1.286181	0.818547	1.012795
O127	O	1.093507	0.002992	0.591069
O128	O	1.593507	0.502992	1.091069
C129	C	1.143353	-0.065351	0.733089
C130	C	1.643353	0.434649	1.233089
C131	C	1.081571	0.019518	0.682339
C132	C	1.581571	0.519518	1.182339
H133	H	1.133736	-0.052003	0.806890
H134	H	1.633736	0.447997	1.306890
H135	H	1.132113	-0.156288	0.715034
H136	H	1.632113	0.343712	1.215034
H137	H	1.209996	-0.050538	0.714906
H138	H	1.709996	0.449462	1.214906
H139	H	1.014904	0.004809	0.700495
H140	H	1.514904	0.504809	1.200495
H141	H	1.092884	0.110426	0.700398
H142	H	1.592884	0.610426	1.200398
O143	O	0.568158	0.157157	-0.157410
O144	O	1.068158	0.657157	0.342590
C145	C	0.558996	0.156894	-0.315786
C146	C	1.058996	0.656894	0.184214
C147	C	0.511345	0.155710	-0.227927
C148	C	1.011345	0.655710	0.272073
H149	H	0.513086	0.155700	-0.372821
H150	H	1.013086	0.655700	0.127179
H151	H	0.592327	0.237264	-0.319838
H152	H	1.092327	0.737264	0.180162
H153	H	0.606869	0.078504	-0.319735
H154	H	1.106869	0.578504	0.180265
H155	H	0.463432	0.234045	-0.223918
H156	H	0.963432	0.734045	0.276082
H157	H	0.478071	0.075288	-0.223911
H158	H	0.978071	0.575288	0.276089
H159	H	0.561505	0.156903	0.144899
H160	H	1.061505	0.656903	0.644899
O161	O	0.872138	0.307097	0.591064
O162	O	1.372138	0.807097	1.091064
C163	C	0.822314	0.375450	0.733081
C164	C	1.322314	0.875450	1.233081
C165	C	0.884085	0.290574	0.682334
C166	C	1.384085	0.790574	1.182334
H167	H	0.831941	0.362105	0.806882
H168	H	1.331941	0.862105	1.306882
H169	H	0.833556	0.466386	0.715011
H170	H	1.333556	0.966386	1.215011
H171	H	0.755667	0.360642	0.714911
H172	H	1.255667	0.860642	1.214911
H173	H	0.950756	0.305278	0.700477
H174	H	1.450756	0.805278	1.200477
H175	H	0.872771	0.199669	0.700409
H176	H	1.372771	0.699669	1.200409
