data_functionalizedCrystal
_audit_creation_method	'MofGen! by Chris Wilmer'
_symmetry_space_group_name_H-M	'P1'
_symmetry_Int_Tables_number	1
_symmetry_cell_setting	triclinic
loop_
_symmetry_equiv_pos_as_xyz
  x,y,z
_cell_length_a	16.959455
_cell_length_b	12.594516
_cell_length_c	16.959447
_cell_angle_alpha	90.025495
_cell_angle_beta	89.985678
_cell_angle_gamma	89.976322
loop_
_atom_site_label
_atom_site_type_symbol
_atom_site_fract_x
_atom_site_fract_y
_atom_site_fract_z
Zn1	Zn	1.208347	0.423808	-0.446935
Zn2	Zn	1.208254	0.601815	-0.314768
Zn3	Zn	1.076176	0.423841	-0.314773
Zn4	Zn	1.076125	0.601735	-0.446906
O5	O	1.142226	0.512800	-0.380845
O6	O	1.318946	0.447440	-0.429413
O7	O	1.190716	0.578254	-0.204157
O8	O	1.093769	0.274891	-0.332318
O9	O	1.318878	0.578221	-0.332310
O10	O	1.190874	0.274866	-0.429418
O11	O	1.093679	0.447497	-0.204161
O12	O	0.965558	0.447420	-0.332290
O13	O	1.093682	0.578086	-0.557521
O14	O	0.965521	0.578118	-0.429369
O15	O	1.190825	0.447363	-0.557542
O16	O	1.190667	0.750750	-0.332282
O17	O	1.093592	0.750692	-0.429364
C18	C	0.936859	0.512765	-0.380827
C19	C	0.849003	0.512775	-0.380838
C20	C	1.142135	0.789341	-0.380836
C21	C	1.142169	0.907646	-0.380859
C22	C	0.477522	0.444690	-0.330402
C23	C	0.477532	0.580998	-0.431334
C24	C	0.560078	0.580982	-0.431329
C25	C	0.601350	0.512821	-0.380859
C26	C	0.560076	0.444674	-0.330394
C27	C	0.601358	0.649135	-0.481787
C28	C	0.683909	0.649123	-0.481784
C29	C	0.725182	0.580956	-0.431317
C30	C	0.683903	0.512806	-0.380851
C31	C	0.725175	0.444644	-0.330382
C32	C	0.683897	0.376488	-0.279919
C33	C	0.601349	0.376507	-0.279928
C34	C	0.807731	0.580937	-0.431308
C35	C	0.807729	0.444629	-0.330374
C36	C	1.089356	0.976906	-0.433624
C37	C	1.070094	1.047768	-0.361498
C38	C	1.161474	1.047583	-0.452996
C39	C	1.122870	0.976950	-0.308695
C40	C	1.214283	0.976759	-0.400242
C41	C	1.195049	1.047589	-0.328066
C42	C	1.348394	0.512836	-0.380864
C43	C	1.436250	0.512851	-0.380872
C44	C	1.142258	0.512712	-0.587014
C45	C	1.142272	0.512674	-0.674870
C46	C	1.142303	1.235179	-0.380871
C47	C	1.142247	1.116874	-0.380878
C48	C	1.091789	0.580623	-1.046338
C49	C	1.192945	0.444501	-1.046355
C50	C	1.192924	0.444523	-0.963809
C51	C	1.142335	0.512598	-0.922524
C52	C	1.091768	0.580650	-0.963784
C53	C	1.243496	0.376480	-0.922542
C54	C	1.243478	0.376501	-0.839991
C55	C	1.192885	0.444571	-0.798704
C56	C	1.142314	0.512625	-0.839970
C57	C	1.091726	0.580699	-0.798685
C58	C	1.041151	0.648749	-0.839949
C59	C	1.041175	0.648720	-0.922497
C60	C	1.192861	0.444600	-0.716156
C61	C	1.091705	0.580726	-0.716131
C62	C	1.142238	0.512811	-0.175479
C63	C	1.142377	0.512548	-0.087623
H64	H	0.717512	0.320996	-0.238823
H65	H	1.284687	0.321064	-0.956163
H66	H	0.717511	0.704619	-0.522874
H67	H	1.177770	1.078610	-0.513994
H68	H	1.106502	0.946052	-0.247680
H69	H	0.567733	0.321019	-0.238843
O70	O	0.847915	0.646987	-0.480359
C71	C	0.895678	0.586466	-0.531499
H72	H	0.908049	0.505752	-0.503726
H73	H	0.953723	0.629825	-0.542031
H74	H	0.863885	0.574883	-0.590094
H75	H	1.284658	0.321090	-0.806401
O76	O	1.035890	0.939920	-0.486692
C77	C	0.959980	0.976131	-0.465976
H78	H	0.958540	0.996038	-0.400412
H79	H	0.914856	0.911438	-0.479113
H80	H	0.945163	1.050195	-0.501651
H81	H	1.234136	0.389083	-1.079974
O82	O	1.042478	0.646707	-0.675997
C83	C	0.991451	0.586123	-0.628236
H84	H	0.986609	0.502281	-0.653119
H85	H	0.930606	0.624610	-0.627296
H86	H	1.015877	0.582491	-0.565674
H87	H	1.239745	1.078429	-0.283401
O88	O	1.241899	0.378355	-0.676107
C89	C	1.224693	0.272262	-0.696311
H90	H	1.161557	0.266862	-0.719007
H91	H	1.231511	0.219696	-0.642031
H92	H	1.267099	0.244438	-0.744229
O93	O	0.997377	1.084859	-0.341832
C94	C	0.976661	1.047348	-0.266301
H95	H	1.011627	0.972251	-0.252657
H96	H	0.910903	1.028728	-0.264773
H97	H	0.990701	1.110732	-0.220399
O98	O	0.437484	0.647353	-0.480280
C99	C	0.457643	0.753406	-0.462897
H100	H	0.480308	0.758686	-0.399741
H101	H	0.403348	0.806012	-0.469657
H102	H	0.505572	0.781277	-0.505236
O103	O	0.847905	0.378564	-0.281307
C104	C	0.895605	0.439072	-0.230158
H105	H	0.907963	0.519779	-0.257932
H106	H	0.953660	0.395693	-0.219611
H107	H	0.863765	0.450671	-0.171571
O108	O	0.437308	0.378585	-0.281411
C109	C	0.355598	0.393184	-0.292253
H110	H	0.344310	0.475371	-0.318037
H111	H	0.324205	0.385865	-0.233060
H112	H	0.332204	0.330124	-0.334429
H113	H	1.275217	0.945547	-0.416654
O114	O	0.561227	0.715184	-0.530893
C115	C	0.513498	0.654664	-0.582007
H116	H	0.538407	0.570845	-0.586992
H117	H	0.512562	0.693259	-0.642789
H118	H	0.450930	0.650951	-0.557572
H119	H	0.999966	0.704180	-0.806323
H120	H	1.050610	0.636024	-1.079939
H121	H	1.000002	0.704125	-0.956102
