data_functionalizedCrystal
_audit_creation_method	'MofGen! by Chris Wilmer'
_symmetry_space_group_name_H-M	'P1'
_symmetry_Int_Tables_number	1
_symmetry_cell_setting	triclinic
loop_
_symmetry_equiv_pos_as_xyz
  x,y,z
_cell_length_a	16.120530
_cell_length_b	18.101395
_cell_length_c	16.120297
_cell_angle_alpha	87.127310
_cell_angle_beta	89.871860
_cell_angle_gamma	87.126665
loop_
_atom_site_label
_atom_site_type_symbol
_atom_site_fract_x
_atom_site_fract_y
_atom_site_fract_z
Zn1	Zn	1.247384	-0.375190	0.534565
Zn2	Zn	1.747384	0.124810	1.034565
Zn3	Zn	1.254317	-0.493082	0.395508
Zn4	Zn	1.754317	0.006918	0.895508
Zn5	Zn	1.115376	-0.362676	0.388483
Zn6	Zn	1.615376	0.137324	0.888483
Zn7	Zn	1.108274	-0.492400	0.527477
Zn8	Zn	1.608274	0.007600	1.027477
O9	O	1.181338	-0.430837	0.461508
O10	O	1.681338	0.069163	0.961508
O11	O	1.364669	-0.396351	0.522025
O12	O	1.864669	0.103649	1.022025
O13	O	1.241761	-0.470832	0.278211
O14	O	1.741761	0.029168	0.778211
O15	O	1.132958	-0.260707	0.407888
O16	O	1.632958	0.239293	0.907888
O17	O	1.369763	-0.482966	0.419860
O18	O	1.869763	0.017034	0.919860
O19	O	1.229944	-0.269901	0.515214
O20	O	1.729944	0.230099	1.015214
O21	O	1.139681	-0.375023	0.273050
O22	O	1.639681	0.124977	0.773050
O23	O	0.998069	-0.374361	0.401015
O24	O	1.498069	0.125639	0.901015
O25	O	1.120853	-0.481804	0.644783
O26	O	1.620853	0.018196	1.144783
O27	O	0.992851	-0.469669	0.503133
O28	O	1.492851	0.030331	1.003133
O29	O	1.223057	-0.395690	0.649990
O30	O	1.723057	0.104310	1.149990
O31	O	1.234873	-0.596620	0.412987
O32	O	1.734873	-0.096620	0.912987
O33	O	1.127576	-0.596119	0.509945
O34	O	1.627576	-0.096119	1.009945
C35	C	0.965287	-0.420584	0.450543
C36	C	1.465287	0.079416	0.950543
C37	C	0.872859	-0.416216	0.445872
C38	C	1.372859	0.083784	0.945872
C39	C	0.703631	-0.408225	0.437350
C40	C	1.203631	0.091775	0.937350
C41	C	0.659883	-0.453506	0.485727
C42	C	1.159883	0.046494	0.985727
C43	C	0.565718	-0.449060	0.480986
C44	C	1.065718	0.050940	0.980986
C45	C	0.797804	-0.412671	0.442091
C46	C	1.297804	0.087329	0.942091
C47	C	1.181228	-0.623241	0.461478
C48	C	1.681228	-0.123241	0.961478
C49	C	1.181256	-0.705558	0.461497
C50	C	1.681256	-0.205558	0.961497
C51	C	1.181436	-1.004659	0.461551
C52	C	1.681436	-0.504659	0.961551
C53	C	1.114068	-0.973063	0.522721
C54	C	1.614068	-0.473063	1.022721
C55	C	1.113774	-0.887422	0.522504
C56	C	1.613774	-0.387422	1.022504
C57	C	1.181346	-0.856271	0.461525
C58	C	1.681346	-0.356271	0.961525
C59	C	1.162064	-0.882548	0.372686
C60	C	1.662064	-0.382548	0.872686
C61	C	1.161632	-0.968190	0.373050
C62	C	1.661632	-0.468190	0.873050
C63	C	1.268265	-0.978132	0.488456
C64	C	1.768265	-0.478132	0.988456
C65	C	1.267650	-0.892539	0.490352
C66	C	1.767650	-0.392539	0.990352
C67	C	1.181297	-0.772409	0.461505
C68	C	1.681297	-0.272409	0.961505
C69	C	1.181483	-1.088521	0.461565
C70	C	1.681483	-0.588521	0.961565
C71	C	1.398232	-0.441131	0.472517
C72	C	1.898232	0.058869	0.972517
C73	C	1.490660	-0.445517	0.477208
C74	C	1.990660	0.054483	0.977208
C75	C	1.170389	-0.440067	0.678403
C76	C	1.670389	0.059933	1.178403
C77	C	1.165724	-0.444000	0.770830
C78	C	1.665724	0.056000	1.270830
C79	C	1.181470	-0.237683	0.461558
C80	C	1.681470	0.262317	0.961558
C81	C	1.181526	-0.155373	0.461579
C82	C	1.681526	0.344627	0.961579
C83	C	1.192292	-0.421592	0.245460
C84	C	1.692292	0.078408	0.745460
C85	C	1.197119	-0.417458	0.153042
C86	C	1.697119	0.082542	0.653042
C87	C	1.157175	-0.451163	0.940055
C88	C	1.657175	0.048837	1.440055
C89	C	1.205665	-0.410297	0.983822
C90	C	1.705665	0.089703	1.483822
C91	C	1.200908	-0.414283	1.077985
C92	C	1.700908	0.085717	1.577985
C93	C	1.161931	-0.447178	0.845884
C94	C	1.661931	0.052822	1.345884
H95	H	1.125459	-0.997097	0.588658
H96	H	1.625459	-0.497097	1.088658
H97	H	1.318402	-0.998637	0.443958
H98	H	1.818402	-0.498637	0.943958
H99	H	1.250750	-0.372317	0.950575
H100	H	1.750750	0.127683	1.450575
N101	N	1.097454	-0.501459	0.984098
N102	N	1.597454	-0.001459	1.484098
H103	H	1.129440	-0.538871	1.021857
H104	H	1.629440	-0.038871	1.521857
H105	H	1.065759	-0.528131	0.941728
H106	H	1.565759	-0.028131	1.441728
N107	N	1.028409	-0.855424	0.498420
N108	N	1.528409	-0.355424	0.998420
H109	H	1.004732	-0.825458	0.544902
H110	H	1.504732	-0.325458	1.044902
H111	H	0.990888	-0.897002	0.487887
H112	H	1.490888	-0.397002	0.987887
N113	N	1.224096	-0.995625	0.310279
N114	N	1.724096	-0.495625	0.810279
H115	H	1.224296	-1.051418	0.310020
H116	H	1.724296	-0.551418	0.810020
H117	H	1.281185	-0.980130	0.325545
H118	H	1.781185	-0.480130	0.825545
H119	H	1.209784	-0.862211	0.325672
H120	H	1.709784	-0.362211	0.825672
H121	H	1.282271	-0.875783	0.555755
H122	H	1.782271	-0.375783	1.055755
N123	N	0.703938	-0.509282	0.545307
N124	N	1.203938	-0.009282	1.045307
H125	H	0.765937	-0.504594	0.540291
H126	H	1.265937	-0.004594	1.040291
H127	H	0.689434	-0.560896	0.531507
H128	H	1.189434	-0.060896	1.031507
H129	H	0.670367	-0.366124	0.392376
H130	H	1.170367	0.133876	0.892376
N131	N	1.129065	-0.864128	0.609574
N132	N	1.629065	-0.364128	1.109574
H133	H	1.136058	-0.909528	0.648443
H134	H	1.636058	-0.409528	1.148443
H135	H	1.080241	-0.831878	0.628123
H136	H	1.580241	-0.331878	1.128123
N137	N	1.029204	-0.996747	0.498930
N138	N	1.529204	-0.496747	0.998930
H139	H	1.028935	-1.052600	0.501828
H140	H	1.528935	-0.552600	1.001828
H141	H	1.015575	-0.977242	0.440497
H142	H	1.515575	-0.477242	0.940497
H143	H	1.099423	-0.857320	0.350105
H144	H	1.599423	-0.357320	0.850105
N145	N	1.077736	-0.989633	0.343544
N146	N	1.577736	-0.489633	0.843544
H147	H	1.041381	-0.943473	0.330424
H148	H	1.541381	-0.443473	0.830424
H149	H	1.050819	-1.021074	0.388528
H150	H	1.550819	-0.521074	0.888528
N151	N	1.292706	-1.011590	0.573113
N152	N	1.792706	-0.511590	1.073113
H153	H	1.247735	-1.044288	0.594882
H154	H	1.747735	-0.544288	1.094882
H155	H	1.300206	-0.970713	0.612424
H156	H	1.800206	-0.470713	1.112424
H157	H	1.320141	-0.871648	0.449401
H158	H	1.820141	-0.371648	0.949401
