data_functionalizedCrystal
_audit_creation_method	'MofGen! by Chris Wilmer'
_symmetry_space_group_name_H-M	'P1'
_symmetry_Int_Tables_number	1
_symmetry_cell_setting	triclinic
loop_
_symmetry_equiv_pos_as_xyz
  x,y,z
_cell_length_a	11.026607
_cell_length_b	12.811415
_cell_length_c	9.482934
_cell_angle_alpha	94.017553
_cell_angle_beta	78.617402
_cell_angle_gamma	96.259367
loop_
_atom_site_label
_atom_site_type_symbol
_atom_site_fract_x
_atom_site_fract_y
_atom_site_fract_z
O1	O	1.639949	0.421212	-0.176428
O2	O	1.285372	0.371807	-0.169916
O3	O	1.468485	0.247484	-0.153518
O4	O	1.456837	0.545535	-0.192826
O5	O	1.431216	0.272791	0.084936
O6	O	1.248104	0.397115	0.068538
O7	O	1.602680	0.446519	0.062027
Cu8	Cu	1.421989	0.424128	0.087055
Cu9	Cu	1.466064	0.394199	-0.194945
O10	O	1.419568	0.570843	0.045629
C11	C	1.221293	0.375347	-0.049487
C12	C	1.085880	0.348176	-0.045906
C13	C	1.448055	0.221387	-0.029184
C14	C	1.442692	0.105920	-0.013965
C15	C	1.014005	0.423197	-0.055801
C16	C	0.874048	0.395117	-0.052100
C17	C	1.473227	-0.138640	-0.245360
C18	C	1.468189	-0.247132	-0.231068
C19	C	1.427569	-0.219558	0.028911
C20	C	1.432607	-0.111066	0.014619
C21	C	1.455439	-0.070611	-0.122521
C22	C	1.460485	0.037883	-0.136813
C23	C	1.419857	0.065454	0.123165
C24	C	1.414819	-0.043038	0.137457
C25	C	1.666760	0.442980	-0.058405
C26	C	1.802175	0.470149	-0.061996
C27	C	1.439998	0.596939	-0.078709
C28	C	1.445363	0.712405	-0.093937
N29	N	1.390998	0.445179	0.285399
C30	C	1.431143	0.417922	0.528607
C31	C	1.456919	0.400397	0.363501
N32	N	1.497055	0.373147	0.606712
H33	H	0.831981	0.310092	-0.040923
H34	H	1.479080	0.070820	-0.248479
O35	O	1.556946	0.332425	0.290181
H36	H	1.601300	0.302284	0.372511
H37	H	1.482670	-0.302518	-0.331096
O38	O	1.030155	0.235560	-0.031039
H39	H	1.075508	0.186132	-0.123063
O40	O	1.497850	-0.094993	-0.393264
H41	H	1.509369	-0.160527	-0.476283
O42	O	1.069734	0.535813	-0.070650
H43	H	1.024389	0.585231	0.021390
H44	H	1.408971	-0.252517	0.140564
H45	H	0.844244	0.555172	-0.073199
H46	H	1.572562	0.321835	0.551350
O47	O	1.390221	-0.086670	0.285368
H48	H	1.389721	-0.173540	0.274672
O49	O	1.400663	0.138826	0.255671
H50	H	1.407995	0.221065	0.222698
H51	H	1.355626	0.469226	0.583968
H52	H	1.315476	0.496486	0.340756
