data_functionalizedCrystal
_audit_creation_method	'MofGen! by Chris Wilmer'
_symmetry_space_group_name_H-M	'P1'
_symmetry_Int_Tables_number	1
_symmetry_cell_setting	triclinic
loop_
_symmetry_equiv_pos_as_xyz
  x,y,z
_cell_length_a	29.839131
_cell_length_b	18.215407
_cell_length_c	29.839125
_cell_angle_alpha	90.014050
_cell_angle_beta	89.988394
_cell_angle_gamma	89.958132
loop_
_atom_site_label
_atom_site_type_symbol
_atom_site_fract_x
_atom_site_fract_y
_atom_site_fract_z
Zn1	Zn	-0.178938	-1.124945	-0.254010
Zn2	Zn	0.154395	-0.791612	0.079323
Zn3	Zn	0.487729	-0.458279	0.412656
Zn4	Zn	-0.254042	-1.124831	-0.178880
Zn5	Zn	0.079291	-0.791497	0.154453
Zn6	Zn	0.412625	-0.458164	0.487787
Zn7	Zn	-0.178927	-1.001890	-0.178892
Zn8	Zn	0.154406	-0.668557	0.154441
Zn9	Zn	0.487739	-0.335224	0.487774
Zn10	Zn	-0.254042	-1.001808	-0.253981
Zn11	Zn	0.079291	-0.668475	0.079352
Zn12	Zn	0.412624	-0.335142	0.412686
O13	O	-0.216487	-1.063369	-0.216441
O14	O	0.116846	-0.730035	0.116892
O15	O	0.450179	-0.396702	0.450226
O16	O	-0.188905	-1.227914	-0.244051
O17	O	0.144428	-0.894581	0.089282
O18	O	0.477762	-0.561248	0.422616
O19	O	-0.244073	-1.108509	-0.116015
O20	O	0.089260	-0.775175	0.217319
O21	O	0.422593	-0.441842	0.550652
O22	O	-0.116062	-1.018296	-0.188874
O23	O	0.217272	-0.684963	0.144459
O24	O	0.550605	-0.351629	0.477793
O25	O	-0.244084	-1.227830	-0.188853
O26	O	0.089250	-0.894497	0.144480
O27	O	0.422583	-0.561163	0.477813
O28	O	-0.116069	-1.108704	-0.244063
O29	O	0.217264	-0.775371	0.089270
O30	O	0.550597	-0.442037	0.422604
O31	O	-0.188887	-1.018185	-0.116024
O32	O	0.144446	-0.684852	0.217310
O33	O	0.477780	-0.351518	0.550643
O34	O	-0.188887	-0.898895	-0.188846
O35	O	0.144446	-0.565562	0.144487
O36	O	0.477779	-0.232229	0.477821
O37	O	-0.244084	-1.018156	-0.316852
O38	O	0.089249	-0.684823	0.016481
O39	O	0.422583	-0.351490	0.349815
O40	O	-0.244074	-0.898835	-0.244013
O41	O	0.089259	-0.565502	0.089320
O42	O	0.422593	-0.232168	0.422653
O43	O	-0.188905	-1.108625	-0.316873
O44	O	0.144428	-0.775291	0.016460
O45	O	0.477761	-0.441958	0.349793
O46	O	-0.316909	-1.108429	-0.188825
O47	O	0.016424	-0.775096	0.144508
O48	O	0.349757	-0.441762	0.477842
O49	O	-0.316909	-1.018045	-0.244002
O50	O	0.016424	-0.684712	0.089332
O51	O	0.349757	-0.351378	0.422665
C52	C	-0.216480	-0.872162	-0.216428
C53	C	0.116854	-0.538829	0.116905
C54	C	0.450187	-0.205496	0.450239
C55	C	-0.216487	-0.790363	-0.216433
C56	C	0.116846	-0.457030	0.116900
C57	C	0.450179	-0.123697	0.450233
C58	C	-0.333210	-1.063236	-0.216419
C59	C	0.000123	-0.729902	0.116915
C60	C	0.333457	-0.396569	0.450248
C61	C	-0.383144	-1.063246	-0.216424
C62	C	-0.049811	-0.729913	0.116909
C63	C	0.283522	-0.396580	0.450243
C64	C	-0.216496	-1.063394	-0.333619
C65	C	0.116837	-0.730061	-0.000286
C66	C	0.450171	-0.396727	0.333047
C67	C	-0.216499	-1.063405	-0.383554
C68	C	0.116834	-0.730072	-0.050220
C69	C	0.450167	-0.396738	0.283113
C70	C	-0.692775	-1.110517	-0.187753
C71	C	-0.359442	-0.777184	0.145581
C72	C	-0.026108	-0.443850	0.478914
C73	C	-0.880448	-1.110608	-0.187770
C74	C	-0.547115	-0.777275	0.145563
C75	C	-0.213781	-0.443941	0.478897
O76	O	-0.904702	-1.150694	-0.163375
O77	O	-0.571369	-0.817361	0.169958
O78	O	-0.238035	-0.484027	0.503291
N79	N	-0.903929	-1.063521	-0.216475
N80	N	-0.570596	-0.730188	0.116859
N81	N	-0.237263	-0.396855	0.450192
C82	C	-0.880490	-1.016412	-0.245179
C83	C	-0.547156	-0.683078	0.088154
C84	C	-0.213823	-0.349745	0.421487
O85	O	-0.904768	-0.976369	-0.269598
O86	O	-0.571435	-0.643036	0.063735
O87	O	-0.238102	-0.309702	0.397068
C88	C	-0.692818	-1.016325	-0.245164
C89	C	-0.359484	-0.682992	0.088169
C90	C	-0.026151	-0.349659	0.421503
C91	C	-0.669339	-1.063410	-0.216454
C92	C	-0.336005	-0.730076	0.116879
C93	C	-0.002672	-0.396743	0.450213
C94	C	-0.669296	-1.157598	-0.159045
C95	C	-0.335963	-0.824265	0.174288
C96	C	-0.002629	-0.490932	0.507621
C97	C	-0.622381	-1.157572	-0.159040
C98	C	-0.289047	-0.824239	0.174294
C99	C	0.044286	-0.490906	0.507627
C100	C	-0.598944	-1.110465	-0.187741
C101	C	-0.265611	-0.777132	0.145592
C102	C	0.067722	-0.443798	0.478926
C103	C	-0.622423	-1.063384	-0.216448
C104	C	-0.289090	-0.730050	0.116885
C105	C	0.044244	-0.396717	0.450218
C106	C	-0.669379	-0.969220	-0.273870
C107	C	-0.336045	-0.635887	0.059463
C108	C	-0.002712	-0.302553	0.392796
C109	C	-0.622458	-0.969204	-0.273865
C110	C	-0.289124	-0.635871	0.059469
C111	C	0.044209	-0.302537	0.392802
C112	C	-0.598979	-1.016288	-0.245155
C113	C	-0.265645	-0.682955	0.088178
C114	C	0.067688	-0.349622	0.421512
C115	C	-0.552071	-1.016250	-0.245144
C116	C	-0.218738	-0.682917	0.088190
C117	C	0.114595	-0.349584	0.421523
N118	N	-0.528590	-1.063337	-0.216439
N119	N	-0.195257	-0.730004	0.116894
N120	N	0.138077	-0.396671	0.450228
C121	C	-0.552026	-1.110445	-0.187738
C122	C	-0.218693	-0.777111	0.145596
C123	C	0.114640	-0.443778	0.478929
C124	C	-0.979020	-1.016460	-0.245185
C125	C	-0.645687	-0.683126	0.088148
C126	C	-0.312354	-0.349793	0.421482
C127	C	-1.025938	-1.016480	-0.245188
C128	C	-0.692605	-0.683147	0.088145
C129	C	-0.359271	-0.349813	0.421478
C130	C	-1.025893	-1.110677	-0.187779
C131	C	-0.692560	-0.777344	0.145554
C132	C	-0.359227	-0.444011	0.478887
C133	C	-0.978975	-1.110653	-0.187774
C134	C	-0.645641	-0.777319	0.145559
C135	C	-0.312308	-0.443986	0.478893
C136	C	-0.955539	-1.063546	-0.216480
C137	C	-0.622206	-0.730213	0.116853
C138	C	-0.288872	-0.396880	0.450187
C139	C	-0.453501	-1.110386	-0.187727
C140	C	-0.120167	-0.777053	0.145606
C141	C	0.213166	-0.443719	0.478939
C142	C	-0.406581	-1.110354	-0.187723
C143	C	-0.073248	-0.777020	0.145611
C144	C	0.260086	-0.443687	0.478944
C145	C	-0.406630	-1.016159	-0.245133
C146	C	-0.073297	-0.682826	0.088200
C147	C	0.260037	-0.349493	0.421534
C148	C	-0.453545	-1.016189	-0.245136
C149	C	-0.120212	-0.682855	0.088197
C150	C	0.213121	-0.349522	0.421530
C151	C	-0.476980	-1.063308	-0.216432
C152	C	-0.143646	-0.729974	0.116902
C153	C	0.189687	-0.396641	0.450235
O154	O	-0.527788	-0.976191	-0.269529
O155	O	-0.194455	-0.642858	0.063804
O156	O	0.138878	-0.309525	0.397137
O157	O	-0.527740	-1.150493	-0.163329
O158	O	-0.194406	-0.817159	0.170004
O159	O	0.138927	-0.483826	0.503337
C160	C	-0.739691	-1.110543	-0.187758
C161	C	-0.406357	-0.777210	0.145575
C162	C	-0.073024	-0.443876	0.478908
C163	C	-0.763170	-1.063462	-0.216466
C164	C	-0.429836	-0.730128	0.116868
C165	C	-0.096503	-0.396795	0.450201
C166	C	-0.739733	-1.016354	-0.245167
C167	C	-0.406400	-0.683021	0.088166
C168	C	-0.073066	-0.349688	0.421500
C169	C	-0.810087	-1.063482	-0.216469
C170	C	-0.476754	-0.730149	0.116864
C171	C	-0.143421	-0.396816	0.450198
C172	C	-0.833524	-1.110590	-0.187768
C173	C	-0.500190	-0.777256	0.145566
C174	C	-0.166857	-0.443923	0.478899
C175	C	-0.810042	-1.157677	-0.159063
C176	C	-0.476709	-0.824343	0.174271
C177	C	-0.143376	-0.491010	0.507604
C178	C	-0.763127	-1.157650	-0.159057
C179	C	-0.429794	-0.824317	0.174276
C180	C	-0.096460	-0.490984	0.507610
C181	C	-0.763214	-0.969268	-0.273872
C182	C	-0.429881	-0.635934	0.059462
C183	C	-0.096548	-0.302601	0.392795
C184	C	-0.810130	-0.969297	-0.273875
C185	C	-0.476797	-0.635964	0.059458
C186	C	-0.143463	-0.302630	0.392792
C187	C	-0.833566	-1.016404	-0.245173
C188	C	-0.500233	-0.683071	0.088160
C189	C	-0.166900	-0.349738	0.421493
C190	C	-0.099309	-1.063522	-0.216473
C191	C	0.234024	-0.730189	0.116860
C192	C	0.567358	-0.396855	0.450194
C193	C	-0.049375	-1.063587	-0.216487
C194	C	0.283959	-0.730254	0.116846
C195	C	0.617292	-0.396921	0.450180
C196	C	-0.216495	-1.255322	-0.216454
C197	C	0.116838	-0.921988	0.116879
C198	C	0.450171	-0.588655	0.450213
C199	C	-0.216499	-1.337120	-0.216460
C200	C	0.116834	-1.003787	0.116874
C201	C	0.450168	-0.670454	0.450207
C202	C	-0.245268	-0.602157	-0.245123
C203	C	0.088065	-0.268824	0.088211
C204	C	0.421399	0.064509	0.421544
C205	C	-0.245269	-0.525299	-0.245128
C206	C	0.088064	-0.191965	0.088205
C207	C	0.421397	0.141368	0.421538
C208	C	-0.187715	-0.525332	-0.187769
C209	C	0.145618	-0.191999	0.145564
C210	C	0.478952	0.141335	0.478898
C211	C	-0.187712	-0.602189	-0.187766
C212	C	0.145622	-0.268856	0.145567
C213	C	0.478955	0.064477	0.478901
C214	C	-0.216491	-0.640600	-0.216442
C215	C	0.116843	-0.307267	0.116891
C216	C	0.450176	0.026067	0.450224
C217	C	-0.216495	-0.486884	-0.216451
C218	C	0.116838	-0.153551	0.116883
C219	C	0.450171	0.179783	0.450216
C220	C	-0.216497	-0.403550	-0.216457
C221	C	0.116837	-0.070217	0.116877
C222	C	0.450170	0.263116	0.450210
C223	C	-0.216489	-0.723939	-0.216437
C224	C	0.116844	-0.390606	0.116896
C225	C	0.450178	-0.057272	0.450230
C226	C	-0.245128	-1.016349	-0.740130
C227	C	0.088205	-0.683016	-0.406797
C228	C	0.421539	-0.349682	-0.073463
C229	C	-0.245180	-1.016323	-0.552457
C230	C	0.088154	-0.682989	-0.219123
C231	C	0.421487	-0.349656	0.114210
O232	O	-0.269605	-0.976242	-0.528183
O233	O	0.063728	-0.642909	-0.194849
O234	O	0.397061	-0.309575	0.138484
N235	N	-0.216458	-1.063421	-0.528999
N236	N	0.116875	-0.730088	-0.195666
N237	N	0.450209	-0.396755	0.137668
C238	C	-0.187719	-1.110526	-0.552462
C239	C	0.145614	-0.777193	-0.219129
C240	C	0.478948	-0.443860	0.114204
O241	O	-0.163287	-1.150581	-0.528204
O242	O	0.170046	-0.817247	-0.194870
O243	O	0.503380	-0.483914	0.138463
C244	C	-0.187665	-1.110548	-0.740135
C245	C	0.145668	-0.777215	-0.406801
C246	C	0.479001	-0.443882	-0.073468
C247	C	-0.216392	-1.063452	-0.763590
C248	C	0.116941	-0.730119	-0.430257
C249	C	0.450274	-0.396785	-0.096923
C250	C	-0.273852	-0.969256	-0.763585
C251	C	0.059481	-0.635923	-0.430252
C252	C	0.392814	-0.302589	-0.096919
C253	C	-0.273841	-0.969266	-0.810501
C254	C	0.059492	-0.635933	-0.477168
C255	C	0.392826	-0.302599	-0.143834
C256	C	-0.245105	-1.016369	-0.833961
C257	C	0.088228	-0.683036	-0.500628
C258	C	0.421562	-0.349702	-0.167294
C259	C	-0.216381	-1.063462	-0.810505
C260	C	0.116953	-0.730129	-0.477172
C261	C	0.450286	-0.396795	-0.143839
C262	C	-0.158924	-1.157649	-0.763597
C263	C	0.174409	-0.824316	-0.430264
C264	C	0.507742	-0.490983	-0.096930
C265	C	-0.158913	-1.157649	-0.810518
C266	C	0.174421	-0.824316	-0.477185
C267	C	0.507754	-0.490983	-0.143851
C268	C	-0.187640	-1.110553	-0.833973
C269	C	0.145694	-0.777220	-0.500640
C270	C	0.479027	-0.443886	-0.167307
C271	C	-0.187633	-1.110575	-0.880881
C272	C	0.145700	-0.777242	-0.547548
C273	C	0.479033	-0.443908	-0.214214
N274	N	-0.216355	-1.063476	-0.904339
N275	N	0.116978	-0.730143	-0.571005
N276	N	0.450311	-0.396810	-0.237672
C277	C	-0.245091	-1.016373	-0.880879
C278	C	0.088242	-0.683040	-0.547545
C279	C	0.421576	-0.349707	-0.214212
C280	C	-0.187750	-1.110512	-0.453932
C281	C	0.145584	-0.777179	-0.120598
C282	C	0.478917	-0.443846	0.212735
C283	C	-0.187764	-1.110508	-0.407014
C284	C	0.145570	-0.777175	-0.073680
C285	C	0.478903	-0.443841	0.259653
C286	C	-0.245224	-1.016303	-0.407012
C287	C	0.088109	-0.682970	-0.073678
C288	C	0.421443	-0.349636	0.259655
C289	C	-0.245212	-1.016312	-0.453930
C290	C	0.088121	-0.682979	-0.120597
C291	C	0.421455	-0.349645	0.212736
C292	C	-0.216472	-1.063414	-0.477389
C293	C	0.116862	-0.730081	-0.144056
C294	C	0.450195	-0.396747	0.189277
C295	C	-0.245065	-1.016398	-0.979405
C296	C	0.088268	-0.683065	-0.646071
C297	C	0.421602	-0.349732	-0.312738
C298	C	-0.245052	-1.016414	-1.026324
C299	C	0.088281	-0.683081	-0.692991
C300	C	0.421614	-0.349748	-0.359658
C301	C	-0.187590	-1.110616	-1.026322
C302	C	0.145743	-0.777283	-0.692989
C303	C	0.479076	-0.443950	-0.359656
C304	C	-0.187605	-1.110603	-0.979407
C305	C	0.145729	-0.777270	-0.646074
C306	C	0.479062	-0.443936	-0.312740
C307	C	-0.216343	-1.063488	-0.955949
C308	C	0.116990	-0.730155	-0.622616
C309	C	0.450323	-0.396821	-0.289282
O310	O	-0.163217	-1.150629	-0.905184
O311	O	0.170116	-0.817296	-0.571851
O312	O	0.503450	-0.483962	-0.238517
O313	O	-0.269512	-0.976314	-0.905145
O314	O	0.063821	-0.642980	-0.571812
O315	O	0.397154	-0.309647	-0.238479
C316	C	-0.245140	-1.016339	-0.693214
C317	C	0.088194	-0.683006	-0.359881
C318	C	0.421527	-0.349673	-0.026548
C319	C	-0.216415	-1.063432	-0.669759
C320	C	0.116918	-0.730099	-0.336426
C321	C	0.450251	-0.396766	-0.003092
C322	C	-0.187679	-1.110535	-0.693219
C323	C	0.145654	-0.777202	-0.359886
C324	C	0.478987	-0.443869	-0.026552
C325	C	-0.216429	-1.063428	-0.622841
C326	C	0.116904	-0.730094	-0.289508
C327	C	0.450238	-0.396761	0.043826
C328	C	-0.245165	-1.016325	-0.599381
C329	C	0.088168	-0.682991	-0.266048
C330	C	0.421502	-0.349658	0.067286
C331	C	-0.273887	-0.969226	-0.622839
C332	C	0.059446	-0.635893	-0.289506
C333	C	0.392780	-0.302560	0.043828
C334	C	-0.273875	-0.969236	-0.669754
C335	C	0.059458	-0.635903	-0.336421
C336	C	0.392791	-0.302570	-0.003088
C337	C	-0.158957	-1.157634	-0.669761
C338	C	0.174376	-0.824301	-0.336428
C339	C	0.507709	-0.490967	-0.003094
C340	C	-0.158972	-1.157621	-0.622846
C341	C	0.174362	-0.824287	-0.289512
C342	C	0.507695	-0.490954	0.043821
C343	C	-0.187707	-1.110518	-0.599386
C344	C	0.145626	-0.777184	-0.266052
C345	C	0.478959	-0.443851	0.067281
C346	C	-0.216447	-1.063386	-0.099718
C347	C	0.116887	-0.730052	0.233615
C348	C	0.450220	-0.396719	0.566948
C349	C	-0.216316	-1.063517	-0.049784
C350	C	0.117017	-0.730184	0.283549
C351	C	0.450350	-0.396851	0.616882
H352	H	-0.387466	-1.148695	-0.164342
H353	H	-0.054132	-0.815362	0.168991
H354	H	0.279201	-0.482029	0.502325
Br355	Br	-0.284324	-0.473129	-0.284056
Br356	Br	0.049009	-0.139796	0.049277
Br357	Br	0.382343	0.193538	0.382611
Br358	Br	-0.148660	-0.473198	-0.148853
Br359	Br	0.184674	-0.139865	0.184480
Br360	Br	0.518007	0.193468	0.517814
H361	H	-1.045051	-0.978132	-0.268563
H362	H	-0.711717	-0.644799	0.064771
H363	H	-0.378384	-0.311466	0.398104
H364	H	-0.268623	-0.977951	-0.387902
H365	H	0.064711	-0.644618	-0.054569
H366	H	0.398044	-0.311284	0.278764
H367	H	-0.164275	-0.633490	-0.164411
H368	H	0.169058	-0.300157	0.168923
H369	H	0.502392	0.033177	0.502256
Br370	Br	-0.284044	-0.952498	-1.058154
Br371	Br	0.049289	-0.619164	-0.724821
Br372	Br	0.382623	-0.285831	-0.391487
H373	H	-0.164376	-1.148866	-0.387920
H374	H	0.168957	-0.815533	-0.054587
H375	H	0.502291	-0.482200	0.278746
H376	H	-0.268701	-0.633429	-0.268474
H377	H	0.064633	-0.300096	0.064859
H378	H	0.397966	0.033238	0.398193
H379	H	-0.164345	-1.148872	-0.473028
H380	H	0.168988	-0.815538	-0.139694
H381	H	0.502322	-0.482205	0.193639
Br382	Br	-0.312830	-0.905346	-0.842326
Br383	Br	0.020503	-0.572013	-0.508993
Br384	Br	0.353837	-0.238680	-0.175659
Br385	Br	-0.284068	-0.952456	-0.947576
Br386	Br	0.049265	-0.619123	-0.614243
Br387	Br	0.382599	-0.285790	-0.280910
Br388	Br	-0.312855	-0.905320	-0.731756
Br389	Br	0.020478	-0.571986	-0.398422
Br390	Br	0.353811	-0.238653	-0.065089
Br391	Br	-0.284200	-0.952393	-0.485758
Br392	Br	0.049134	-0.619059	-0.152424
Br393	Br	0.382467	-0.285726	0.180909
H394	H	-0.297286	-0.930876	-0.603730
H395	H	0.036047	-0.597543	-0.270396
H396	H	0.369380	-0.264209	0.062937
Br397	Br	-0.119935	-1.221569	-0.731777
Br398	Br	0.213399	-0.888236	-0.398443
Br399	Br	0.546732	-0.554903	-0.065110
H400	H	-0.603267	-1.195915	-0.135663
H401	H	-0.269934	-0.862581	0.197670
H402	H	0.063400	-0.529248	0.531004
H403	H	-0.135506	-1.196003	-0.829616
H404	H	0.197827	-0.862670	-0.496283
H405	H	0.531161	-0.529336	-0.162949
H406	H	-0.164216	-1.148958	-0.960308
H407	H	0.169117	-0.815625	-0.626975
H408	H	0.502451	-0.482291	-0.293642
Br409	Br	-0.947222	-0.952523	-0.284147
Br410	Br	-0.613888	-0.619189	0.049187
Br411	Br	-0.280555	-0.285856	0.382520
Br412	Br	-0.485297	-1.174334	-0.148771
Br413	Br	-0.151963	-0.841001	0.184562
Br414	Br	0.181370	-0.507667	0.517896
Br415	Br	-0.148595	-1.174541	-1.058170
Br416	Br	0.184738	-0.841208	-0.724837
Br417	Br	0.518072	-0.507874	-0.391503
Br418	Br	-0.119984	-1.221548	-0.591019
Br419	Br	0.213349	-0.888215	-0.257686
Br420	Br	0.546683	-0.554881	0.075648
H421	H	-0.688373	-1.195963	-0.135673
H422	H	-0.355040	-0.862630	0.197660
H423	H	-0.021706	-0.529296	0.530994
Br424	Br	-0.947115	-1.174555	-0.148809
Br425	Br	-0.613782	-0.841221	0.184524
Br426	Br	-0.280449	-0.507888	0.517858
H427	H	-1.044983	-1.149034	-0.164410
H428	H	-0.711650	-0.815701	0.168924
H429	H	-0.378317	-0.482368	0.502257
H430	H	-0.688487	-0.930875	-0.297247
H431	H	-0.355154	-0.597542	0.036086
H432	H	-0.021820	-0.264208	0.369420
H433	H	-0.297268	-0.930885	-0.688848
H434	H	0.036066	-0.597552	-0.355514
H435	H	0.369399	-0.264219	-0.022181
H436	H	-0.603379	-0.930845	-0.297242
H437	H	-0.270045	-0.597512	0.036091
H438	H	0.063288	-0.264178	0.369425
H439	H	-0.472663	-0.977851	-0.268516
H440	H	-0.139330	-0.644517	0.064818
H441	H	0.194004	-0.311184	0.398151
H442	H	-0.829133	-1.196031	-0.135692
H443	H	-0.495799	-0.862698	0.197642
H444	H	-0.162466	-0.529364	0.530975
H445	H	-0.135557	-1.195991	-0.688858
H446	H	0.197777	-0.862658	-0.355524
H447	H	0.531110	-0.529325	-0.022191
H448	H	-0.387541	-0.977803	-0.268500
H449	H	-0.054207	-0.644469	0.064833
H450	H	0.279126	-0.311136	0.398167
H451	H	-0.744014	-1.195991	-0.135679
H452	H	-0.410681	-0.862658	0.197655
H453	H	-0.077347	-0.529325	0.530988
H454	H	-0.744136	-0.930908	-0.297245
H455	H	-0.410803	-0.597575	0.036089
H456	H	-0.077469	-0.264241	0.369422
Br457	Br	-0.841988	-0.905388	-0.312841
Br458	Br	-0.508655	-0.572055	0.020492
Br459	Br	-0.175322	-0.238721	0.353826
