data_functionalizedCrystal
_audit_creation_method	'MofGen! by Chris Wilmer'
_symmetry_space_group_name_H-M	'P1'
_symmetry_Int_Tables_number	1
_symmetry_cell_setting	triclinic
loop_
_symmetry_equiv_pos_as_xyz
  x,y,z
_cell_length_a	16.120444
_cell_length_b	16.120542
_cell_length_c	16.120297
_cell_angle_alpha	89.872913
_cell_angle_beta	95.615117
_cell_angle_gamma	89.835691
loop_
_atom_site_label
_atom_site_type_symbol
_atom_site_fract_x
_atom_site_fract_y
_atom_site_fract_z
Zn1	Zn	-0.422357	-1.224978	-0.554850
Zn2	Zn	-0.555041	-1.224871	-0.422156
Zn3	Zn	-0.408262	-1.093718	-0.408089
Zn4	Zn	-0.554263	-1.078868	-0.554085
O5	O	-0.484981	-1.155609	-0.484795
O6	O	-0.446182	-1.340999	-0.543455
O7	O	-0.529998	-1.213643	-0.303658
O8	O	-0.293501	-1.117389	-0.421990
O9	O	-0.543664	-1.340921	-0.445966
O10	O	-0.303856	-1.213825	-0.529814
O11	O	-0.422160	-1.117285	-0.293322
O12	O	-0.421406	-0.975712	-0.421248
O13	O	-0.542338	-1.092080	-0.670819
O14	O	-0.528671	-0.964803	-0.528511
O15	O	-0.445427	-1.199427	-0.671381
O16	O	-0.671568	-1.199244	-0.445224
O17	O	-0.670997	-1.091977	-0.542152
C18	C	-0.473425	-0.940171	-0.473271
C19	C	-0.468503	-0.848003	-0.468361
C20	C	-0.510488	-0.632809	-0.510215
C21	C	-0.459523	-0.679257	-0.459397
C22	C	-0.464521	-0.773156	-0.464386
C23	C	-0.505492	-0.538901	-0.505227
C24	C	-0.701526	-1.144009	-0.495151
C25	C	-0.794170	-1.139121	-0.499613
C26	C	-1.005331	-1.181159	-0.461837
C27	C	-0.963788	-1.130212	-0.507769
C28	C	-0.869403	-1.135170	-0.503230
C29	C	-1.099724	-1.176202	-0.466376
C30	C	-0.267592	-1.167275	-0.474418
C31	C	-0.174954	-1.172247	-0.469996
C32	C	-0.495368	-1.144109	-0.702187
C33	C	-0.499794	-1.139209	-0.794827
C34	C	-0.496577	-0.371889	-0.496353
C35	C	-0.501506	-0.464057	-0.501248
C36	C	-0.507855	-1.130232	-0.964438
C37	C	-0.461865	-1.181162	-1.006001
C38	C	-0.466351	-1.176168	-1.100378
C39	C	-0.503371	-1.135226	-0.870052
C40	C	-0.474577	-1.167115	-0.268248
C41	C	-0.469924	-1.172188	-0.175607
H42	H	-0.999106	-1.082870	-0.550502
C43	C	-0.983791	-1.325139	-0.427566
C44	C	-0.957660	-1.245060	-0.404144
H45	H	-0.954349	-1.364584	-0.391949
H46	H	-1.041876	-1.330148	-0.423083
H47	H	-0.972857	-1.334997	-0.483550
H48	H	-0.968600	-1.235199	-0.348162
H49	H	-0.899561	-1.240048	-0.408620
H50	H	-0.550594	-1.082883	-0.999732
H51	H	-0.557871	-0.663562	-0.557464
C52	C	-0.402967	-0.551411	-0.402899
C53	C	-0.395585	-0.637745	-0.395572
H54	H	-0.363508	-0.525782	-0.363484
H55	H	-0.392759	-0.534952	-0.457583
H56	H	-0.457640	-0.534947	-0.392584
H57	H	-0.340913	-0.654209	-0.405893
H58	H	-0.405786	-0.654210	-0.340875
H59	H	-0.419123	-1.228515	-0.970704
