data_functionalizedCrystal
_audit_creation_method	'MofGen! by Chris Wilmer'
_symmetry_space_group_name_H-M	'P1'
_symmetry_Int_Tables_number	1
_symmetry_cell_setting	triclinic
loop_
_symmetry_equiv_pos_as_xyz
  x,y,z
_cell_length_a	19.077105
_cell_length_b	17.638516
_cell_length_c	19.076919
_cell_angle_alpha	77.040002
_cell_angle_beta	89.923776
_cell_angle_gamma	99.427581
loop_
_atom_site_label
_atom_site_type_symbol
_atom_site_fract_x
_atom_site_fract_y
_atom_site_fract_z
Zn1	Zn	0.986788	-0.382148	0.506280
Zn2	Zn	1.486788	0.117852	1.006280
Zn3	Zn	0.967670	-0.509156	0.410662
Zn4	Zn	1.467670	-0.009156	0.910662
Zn5	Zn	0.875985	-0.371566	0.382249
Zn6	Zn	1.375985	0.128434	0.882249
Zn7	Zn	0.845581	-0.508679	0.523333
Zn8	Zn	1.345581	-0.008679	1.023333
O9	O	0.919006	-0.442887	0.455631
O10	O	1.419006	0.057113	0.955631
O11	O	1.081718	-0.403624	0.498350
O12	O	1.581718	0.096376	0.998350
O13	O	0.960231	-0.486675	0.307833
O14	O	1.460231	0.013325	0.807833
O15	O	0.911408	-0.262434	0.379675
O16	O	1.411408	0.237566	0.879675
O17	O	1.067672	-0.496936	0.428100
O18	O	1.567672	0.003064	0.928100
O19	O	0.992814	-0.270208	0.470799
O20	O	1.492814	0.229792	0.970799
O21	O	0.892870	-0.385588	0.286958
O22	O	1.392870	0.114412	0.786958
O23	O	0.774486	-0.385127	0.396210
O24	O	1.274486	0.114873	0.896210
O25	O	0.859589	-0.496124	0.620131
O26	O	1.359589	0.003876	1.120131
O27	O	0.752148	-0.485863	0.499864
O28	O	1.252148	0.014137	0.999864
O29	O	0.963333	-0.403162	0.607602
O30	O	1.463333	0.096838	1.107602
O31	O	0.930750	-0.619628	0.444636
O32	O	1.430750	-0.119628	0.944636
O33	O	0.841051	-0.619278	0.527415
O34	O	1.341051	-0.119278	1.027415
C35	C	0.738045	-0.434295	0.446805
C36	C	1.238045	0.065705	0.946805
C37	C	0.660624	-0.430640	0.443049
C38	C	1.160624	0.069360	0.943049
C39	C	0.612630	-0.481443	0.495193
C40	C	1.112630	0.018557	0.995193
C41	C	0.539887	-0.477998	0.491666
C42	C	1.039887	0.022002	0.991666
C43	C	0.515140	-0.423752	0.435991
C44	C	1.015140	0.076248	0.935991
C45	C	0.563141	-0.372943	0.383844
C46	C	1.063141	0.127057	0.883844
C47	C	0.635882	-0.376385	0.387375
C48	C	1.135882	0.123615	0.887375
C49	C	0.298832	-0.407822	0.419652
C50	C	0.798832	0.092178	0.919652
C51	C	0.226084	-0.404385	0.416124
C52	C	0.726084	0.095615	0.916124
C53	C	0.202835	-0.509440	0.523948
C54	C	0.702835	-0.009440	1.023948
C55	C	0.275579	-0.512880	0.527471
C56	C	0.775579	-0.012880	1.027471
C57	C	0.323574	-0.462068	0.475326
C58	C	0.823574	0.037932	0.975326
N59	N	0.440785	-0.420231	0.432382
N60	N	0.940785	0.079769	0.932382
N61	N	0.397928	-0.465586	0.478938
N62	N	0.897928	0.034414	0.978938
C63	C	0.880545	-0.648116	0.490975
C64	C	1.380545	-0.148116	0.990975
C65	C	0.864154	-0.735917	0.506123
C66	C	1.364154	-0.235917	1.006123
C67	C	1.043944	-1.025476	0.340633
C68	C	1.543944	-0.525476	0.840633
C69	C	1.028529	-1.107979	0.354877
C70	C	1.528529	-0.607979	0.854877
C71	C	0.935055	-1.107652	0.440999
C72	C	1.435055	-0.607652	0.940999
C73	C	0.950459	-1.025147	0.426760
C74	C	1.450459	-0.525147	0.926760
C75	C	1.004905	-0.984066	0.376577
C76	C	1.504905	-0.484066	0.876577
C77	C	0.911420	-0.983737	0.462703
C78	C	1.411420	-0.483737	0.962703
C79	C	0.926826	-0.901240	0.448468
C80	C	1.426826	-0.401240	0.948468
C81	C	0.981271	-0.860153	0.398288
C82	C	1.481271	-0.360153	0.898288
C83	C	1.020311	-0.901569	0.362341
C84	C	1.520311	-0.401569	0.862341
C85	C	0.856978	-1.024821	0.512890
C86	C	1.356978	-0.524821	1.012890
C87	C	0.817939	-0.983411	0.548833
C88	C	1.317939	-0.483411	1.048833
C89	C	0.833342	-0.900912	0.534594
C90	C	1.333342	-0.400912	1.034594
C91	C	0.887787	-0.859824	0.484415
C92	C	1.387787	-0.359824	0.984415
C93	C	0.794302	-0.859496	0.570542
C94	C	1.294302	-0.359496	1.070542
C95	C	0.809708	-0.776999	0.556306
C96	C	1.309708	-0.276999	1.056306
C97	C	0.903192	-0.777327	0.470179
C98	C	1.403192	-0.277327	0.970179
C99	C	1.100673	-0.451513	0.464492
C100	C	1.600673	0.048487	0.964492
C101	C	1.178089	-0.455189	0.468269
C102	C	1.678089	0.044811	0.968269
C103	C	0.910202	-0.450770	0.640270
C104	C	1.410202	0.049230	1.140270
C105	C	0.906450	-0.454129	0.718952
C106	C	1.406450	0.045871	1.218952
C107	C	0.957635	-0.236859	0.420165
C108	C	1.457635	0.263141	0.920165
C109	C	0.974097	-0.149062	0.405052
C110	C	1.474097	0.350938	0.905052
C111	C	0.927826	-0.434980	0.271703
C112	C	1.427826	0.065020	0.771703
C113	C	0.931755	-0.431405	0.192989
C114	C	1.431755	0.068595	0.692989
C115	C	0.958699	-0.407309	0.749395
C116	C	1.458699	0.092691	1.249395
C117	C	0.955166	-0.410462	0.823324
C118	C	1.455166	0.089538	1.323324
C119	C	0.899386	-0.460440	0.866810
C120	C	1.399386	0.039560	1.366810
C121	C	0.847132	-0.507261	0.836362
C122	C	1.347132	-0.007261	1.336362
C123	C	0.850663	-0.504104	0.762433
C124	C	1.350663	-0.004104	1.262433
C125	C	0.883032	-0.475069	1.088612
C126	C	1.383032	0.024931	1.588612
C127	C	0.879506	-0.478225	1.162546
C128	C	1.379506	0.021775	1.662546
C129	C	0.987539	-0.381424	1.149504
C130	C	1.487539	0.118576	1.649504
C131	C	0.991067	-0.378274	1.075575
C132	C	1.491067	0.121726	1.575575
C133	C	0.938811	-0.425093	1.045132
C134	C	1.438811	0.074907	1.545132
N135	N	0.895775	-0.463665	0.942378
N136	N	1.395775	0.036335	1.442378
N137	N	0.942421	-0.421863	0.969565
N138	N	1.442421	0.078137	1.469565
H139	H	0.163751	-0.550807	0.566402
H140	H	0.663751	-0.050807	1.066402
H141	H	0.337901	-0.366453	0.377188
H142	H	0.837901	0.133547	0.877188
Cl143	Cl	0.194974	-0.336191	0.346123
Cl144	Cl	0.694974	0.163809	0.846123
H145	H	0.542986	-0.328772	0.338514
H146	H	1.042986	0.171228	0.838514
Cl147	Cl	0.696220	-0.312513	0.321820
Cl148	Cl	1.196220	0.187487	0.821820
H149	H	1.064641	-0.868118	0.321471
H150	H	1.564641	-0.368118	0.821471
Cl151	Cl	0.749498	-1.035064	0.611921
Cl152	Cl	1.249498	-0.535064	1.111921
H153	H	0.777919	-0.743282	0.585576
H154	H	1.277919	-0.243282	1.085576
Cl155	Cl	0.817338	-0.533928	1.050351
Cl156	Cl	1.317338	-0.033928	1.550351
H157	H	1.088274	-0.992025	0.299763
H158	H	1.588274	-0.492025	0.799763
Cl159	Cl	0.809375	-0.541054	1.217212
Cl160	Cl	1.309375	-0.041054	1.717212
H161	H	0.947523	-0.743876	0.429309
H162	H	1.447523	-0.243876	0.929309
Cl163	Cl	1.077614	-1.160035	0.309686
Cl164	Cl	1.577614	-0.660035	0.809686
Cl165	Cl	0.725866	-0.911152	0.633635
Cl166	Cl	1.225866	-0.411152	1.133635
H167	H	1.004122	-0.366614	0.713994
H168	H	1.504122	0.133386	1.213994
H169	H	0.808111	-0.542222	0.737646
H170	H	1.308111	-0.042222	1.237646
Cl171	Cl	1.020877	-0.351636	0.861600
Cl172	Cl	1.520877	0.148364	1.361600
H173	H	0.801714	-0.547951	0.871773
H174	H	1.301714	-0.047951	1.371773
H175	H	0.890727	-1.141112	0.481860
H176	H	1.390727	-0.641112	0.981860
H177	H	0.993815	-0.792978	0.386700
H178	H	1.493815	-0.292978	0.886700
Cl179	Cl	1.061193	-0.315443	1.020912
Cl180	Cl	1.561193	0.184557	1.520912
H181	H	1.030082	-0.343306	1.174298
H182	H	1.530082	0.156694	1.674298
H183	H	0.632772	-0.525619	0.540528
H184	H	1.132772	-0.025619	1.040528
H185	H	0.500812	-0.519369	0.534127
H186	H	1.000812	-0.019369	1.034127
Cl187	Cl	0.837335	-1.128506	0.530476
Cl188	Cl	1.337335	-0.628506	1.030476
Cl189	Cl	0.306684	-0.581080	0.597464
Cl190	Cl	0.806684	-0.081080	1.097464
