data_functionalizedCrystal
_audit_creation_method	'MofGen! by Chris Wilmer'
_symmetry_space_group_name_H-M	'P1'
_symmetry_Int_Tables_number	1
_symmetry_cell_setting	triclinic
loop_
_symmetry_equiv_pos_as_xyz
  x,y,z
_cell_length_a	11.169417
_cell_length_b	19.076808
_cell_length_c	11.169409
_cell_angle_alpha	87.662578
_cell_angle_beta	89.980176
_cell_angle_gamma	92.324435
loop_
_atom_site_label
_atom_site_type_symbol
_atom_site_fract_x
_atom_site_fract_y
_atom_site_fract_z
Zn1	Zn	1.815643	-0.280145	-0.659291
Zn2	Zn	1.807414	-0.397873	-0.450518
Zn3	Zn	1.614926	-0.280188	-0.458623
Zn4	Zn	1.606822	-0.397816	-0.651167
O5	O	1.711201	-0.339006	-0.554900
O6	O	1.982501	-0.295768	-0.631605
O7	O	1.781828	-0.382304	-0.283641
O8	O	1.648387	-0.181685	-0.492034
O9	O	1.976455	-0.382262	-0.478221
O10	O	1.795853	-0.181654	-0.639464
O11	O	1.640408	-0.295841	-0.289595
O12	O	1.445902	-0.295786	-0.484156
O13	O	1.634575	-0.382165	-0.820197
O14	O	1.439948	-0.382206	-0.625617
O15	O	1.787995	-0.295713	-0.826166
O16	O	1.773969	-0.496363	-0.470343
O17	O	1.626595	-0.496321	-0.617758
C18	C	1.399377	-0.338995	-0.554885
C19	C	1.265977	-0.339007	-0.554906
C20	C	1.698543	-0.521881	-0.542316
C21	C	1.693237	-0.600116	-0.536972
C22	C	1.767464	-0.636794	-0.611283
C23	C	1.762474	-0.710304	-0.606264
C24	C	1.683262	-0.747134	-0.526928
C25	C	1.609026	-0.710451	-0.452614
C26	C	1.614011	-0.636943	-0.457640
C27	C	1.660121	-0.966990	-0.503666
C28	C	1.655144	-1.040503	-0.498643
C29	C	1.808591	-1.040351	-0.652296
C30	C	1.813574	-0.966841	-0.657309
C31	C	1.739334	-0.930164	-0.583000
N32	N	1.678162	-0.822273	-0.521794
N33	N	1.744429	-0.855026	-0.588141
C34	C	2.024243	-0.339017	-0.554915
C35	C	2.157643	-0.339022	-0.554922
C36	C	1.711299	-0.338927	-0.867948
C37	C	1.711340	-0.338894	-1.001350
C38	C	1.723942	-0.155416	-0.567559
C39	C	1.729372	-0.077181	-0.572954
C40	C	1.711177	-0.339033	-0.243073
C41	C	1.711381	-0.338868	-0.109685
H42	H	1.822928	-0.740164	-0.666767
C43	C	1.889377	-1.080131	-0.732847
C44	C	2.009358	-1.062216	-0.708036
C45	C	2.083809	-1.098852	-0.782218
H46	H	1.872733	-1.068080	-0.814332
H47	H	1.875149	-1.129192	-0.718493
H48	H	2.023581	-1.013165	-0.722399
H49	H	2.026040	-1.074269	-0.626565
H50	H	2.069581	-1.147913	-0.767864
H51	H	2.067154	-1.086797	-0.863698
H52	H	2.165224	-1.086706	-0.765386
H53	H	1.831973	-0.606811	-0.675882
H54	H	1.878075	-0.936855	-0.721911
C55	C	1.533477	-0.596991	-0.377096
C56	C	1.554770	-0.524733	-0.398500
C57	C	1.480587	-0.487909	-0.324340
H58	H	1.550191	-0.608979	-0.295602
H59	H	1.451986	-0.609032	-0.393782
H60	H	1.636242	-0.512697	-0.381805
H61	H	1.538049	-0.512724	-0.479980
H62	H	1.399097	-0.499949	-0.341026
H63	H	1.497307	-0.499902	-0.242850
H64	H	1.495016	-0.438878	-0.338860
H65	H	1.590634	-1.070489	-0.434037
C66	C	1.579331	-0.927269	-0.423034
C67	C	1.459355	-0.945217	-0.447807
C68	C	1.384898	-0.908646	-0.373533
H69	H	1.593471	-0.878203	-0.437304
H70	H	1.596058	-0.939364	-0.341567
H71	H	1.442635	-0.933117	-0.529255
H72	H	1.445178	-0.994276	-0.433531
H73	H	1.401624	-0.920741	-0.292067
H74	H	1.399048	-0.859582	-0.387809
H75	H	1.303486	-0.920823	-0.390324
C76	C	1.522825	-0.750400	-0.366628
C77	C	1.405270	-0.732585	-0.393898
C78	C	1.325829	-0.769377	-0.314719
H79	H	1.541084	-0.738410	-0.286780
H80	H	1.530407	-0.799439	-0.374284
H81	H	1.397692	-0.683557	-0.386231
H82	H	1.386973	-0.744576	-0.473732
H83	H	1.333412	-0.818416	-0.322376
H84	H	1.344099	-0.757384	-0.234876
H85	H	1.246059	-0.757300	-0.333218
