data_functionalizedCrystal
_audit_creation_method	'MofGen! by Chris Wilmer'
_symmetry_space_group_name_H-M	'P1'
_symmetry_Int_Tables_number	1
_symmetry_cell_setting	triclinic
loop_
_symmetry_equiv_pos_as_xyz
  x,y,z
_cell_length_a	11.792254
_cell_length_b	10.540510
_cell_length_c	10.268362
_cell_angle_alpha	89.997199
_cell_angle_beta	89.995475
_cell_angle_gamma	84.355954
loop_
_atom_site_label
_atom_site_type_symbol
_atom_site_fract_x
_atom_site_fract_y
_atom_site_fract_z
O1	O	1.507337	0.174071	-0.108292
O2	O	1.177043	0.191986	-0.108294
O3	O	1.349743	-0.001705	-0.108292
O4	O	1.334637	0.367762	-0.108293
O5	O	1.349728	-0.001713	0.108309
O6	O	1.177027	0.191978	0.108307
O7	O	1.507322	0.174063	0.108309
Cu8	Cu	1.342173	0.183020	0.128085
Cu9	Cu	1.342191	0.183029	-0.128070
O10	O	1.334621	0.367754	0.108308
C11	C	1.134741	0.190854	0.000006
C12	C	1.008720	0.187476	0.000005
C13	C	0.906377	0.184731	-0.000000
C14	C	0.777981	0.181299	-0.000001
C15	C	1.348609	-0.049009	0.000006
C16	C	1.345242	-0.189948	-0.000002
C17	C	1.465216	-0.407788	0.000495
C18	C	1.468808	-0.261204	-0.000000
C19	C	1.281996	-0.234499	-0.123690
C20	C	1.279279	-0.381251	-0.123786
C21	C	1.276688	-0.381061	0.122529
C22	C	1.282549	-0.234738	0.124157
C23	C	1.549623	0.175196	0.000006
C24	C	1.675644	0.178573	-0.000001
C25	C	1.335755	0.415058	0.000007
C26	C	1.339123	0.555997	0.000006
N27	N	1.342169	0.183012	0.308251
N28	N	1.342204	0.183027	-0.308236
C29	C	1.342185	0.183027	0.573922
C30	C	1.342172	0.183022	0.426084
H31	H	1.513350	-0.449901	0.089197
H32	H	1.518594	-0.232955	-0.088816
O33	O	1.522148	-0.459903	-0.104826
C34	C	1.448534	-0.529028	-0.178926
H35	H	1.356360	-0.491561	-0.157896
H36	H	1.462583	-0.634295	-0.151852
C37	C	1.586866	-0.558967	-0.350676
C38	C	1.473657	-0.512942	-0.324856
H39	H	1.602365	-0.549050	-0.440693
H40	H	1.636463	-0.512400	-0.300753
H41	H	1.598560	-0.646686	-0.328105
H42	H	1.461969	-0.425221	-0.347411
H43	H	1.424058	-0.559493	-0.374787
O44	O	1.334249	-0.197697	-0.233545
C45	C	1.256492	-0.117143	-0.307668
H46	H	1.186192	-0.071852	-0.241450
H47	H	1.217426	-0.175253	-0.386587
C48	C	1.405634	-0.067460	-0.452808
C49	C	1.319295	-0.011824	-0.371476
H50	H	1.444374	-0.002497	-0.492173
H51	H	1.458020	-0.121734	-0.402874
H52	H	1.373066	-0.115883	-0.518563
H53	H	1.351866	0.036585	-0.305714
H54	H	1.266916	0.042462	-0.421401
H55	H	1.186858	-0.403950	-0.129391
O56	O	1.323429	-0.431941	0.234254
C57	C	1.413307	-0.525345	0.203364
H58	H	1.446877	-0.506352	0.101817
H59	H	1.380853	-0.623691	0.205828
C60	C	1.468745	-0.543508	0.428189
C61	C	1.509983	-0.520175	0.303471
H62	H	1.528378	-0.540325	0.489942
H63	H	1.408190	-0.480584	0.449002
H64	H	1.441701	-0.625462	0.430224
H65	H	1.537013	-0.438216	0.301433
H66	H	1.570544	-0.583085	0.282660
O67	O	1.174981	-0.175738	0.133258
C68	C	1.163623	-0.106031	0.250503
H69	H	1.251253	-0.083252	0.284967
H70	H	1.123378	-0.165025	0.327792
C71	C	0.979581	-0.008940	0.185288
C72	C	1.087208	0.019046	0.227611
H73	H	0.932440	0.068211	0.171170
H74	H	0.987229	-0.055906	0.106299
H75	H	0.946058	-0.058104	0.249702
H76	H	1.120735	0.068196	0.163190
H77	H	1.079563	0.066024	0.306588
O78	O	1.173521	-0.177462	-0.129025
C79	C	1.153127	-0.096266	-0.020665
H80	H	1.237640	-0.067852	0.018031
H81	H	1.108460	-0.148131	0.058862
C82	C	0.973226	-0.010789	-0.109530
C83	C	1.077025	0.024117	-0.062009
H84	H	0.926279	0.063466	-0.135029
H85	H	0.986963	-0.065496	-0.182532
H86	H	0.936018	-0.054012	-0.043249
H87	H	1.114238	0.067324	-0.128295
H88	H	1.063293	0.078834	0.010981
H89	H	1.183913	-0.402913	0.123362
H90	H	1.518294	-0.232022	0.088662
H91	H	1.322513	-0.421602	-0.216244
H92	H	1.328569	-0.206277	0.215660
