data_functionalizedCrystal
_audit_creation_method	'MofGen! by Chris Wilmer'
_symmetry_space_group_name_H-M	'P1'
_symmetry_Int_Tables_number	1
_symmetry_cell_setting	triclinic
loop_
_symmetry_equiv_pos_as_xyz
  x,y,z
_cell_length_a	14.044220
_cell_length_b	17.699083
_cell_length_c	16.176319
_cell_angle_alpha	90.001389
_cell_angle_beta	89.992517
_cell_angle_gamma	91.764054
loop_
_atom_site_label
_atom_site_type_symbol
_atom_site_fract_x
_atom_site_fract_y
_atom_site_fract_z
O1	O	0.119850	-1.012346	-0.068632
O2	O	0.619850	-0.512346	0.431368
O3	O	0.135443	-0.793044	-0.068659
O4	O	0.635443	-0.293044	0.431341
O5	O	-0.010330	-0.899403	-0.068638
O6	O	0.489670	-0.399403	0.431362
O7	O	0.265624	-0.905987	-0.068653
O8	O	0.765624	-0.405987	0.431347
O9	O	-0.010340	-0.899387	0.068855
O10	O	0.489660	-0.399387	0.568855
O11	O	0.135434	-0.793027	0.068834
O12	O	0.635434	-0.293027	0.568834
O13	O	0.119841	-1.012330	0.068861
O14	O	0.619841	-0.512330	0.568861
Cu15	Cu	0.127637	-0.902677	0.081402
Cu16	Cu	0.627637	-0.402677	0.581402
Cu17	Cu	0.127648	-0.902696	-0.081200
Cu18	Cu	0.627648	-0.402696	0.418800
O19	O	0.265614	-0.905970	0.068840
O20	O	0.765614	-0.405970	0.568840
C21	C	-0.045643	-0.896513	0.000109
C22	C	0.454357	-0.396513	0.500109
C23	C	-0.150849	-0.887917	0.000109
C24	C	0.349151	-0.387917	0.500109
C25	C	0.134880	-0.764800	0.000084
C26	C	0.634880	-0.264800	0.500084
C27	C	0.133204	-0.680666	0.000074
C28	C	0.633204	-0.180666	0.500074
C29	C	0.120404	-1.040574	0.000116
C30	C	0.620404	-0.540574	0.500116
C31	C	0.122081	-1.124707	0.000121
C32	C	0.622081	-0.624707	0.500121
C33	C	-0.343474	-0.872202	0.000095
C34	C	0.156526	-0.372202	0.500095
C35	C	-0.401248	-0.933168	0.000100
C36	C	0.098752	-0.433168	0.500100
C37	C	-0.508431	-0.924424	0.000092
C38	C	-0.008431	-0.424424	0.500092
C39	C	-0.236281	-0.880945	0.000102
C40	C	0.263719	-0.380945	0.500102
C41	C	0.300927	-0.908860	0.000091
C42	C	0.800927	-0.408860	0.500091
C43	C	0.406133	-0.917456	0.000086
C44	C	0.906133	-0.417456	0.500086
N45	N	0.127628	-0.902668	0.195767
N46	N	0.627628	-0.402668	0.695767
C47	C	0.218769	-0.637948	0.000069
C48	C	0.718769	-0.137948	0.500069
C49	C	0.217189	-0.558895	0.000080
C50	C	0.717189	-0.058895	0.500080
C51	C	0.130041	-0.522563	0.000089
C52	C	0.630041	-0.022563	0.500089
C53	C	0.044469	-0.565287	0.000096
C54	C	0.544469	-0.065287	0.500096
C55	C	0.046050	-0.644338	0.000092
C56	C	0.546050	-0.144338	0.500092
C57	C	0.038089	-0.246484	0.000117
C58	C	0.538089	0.253516	0.500117
C59	C	0.036514	-0.167427	0.000120
C60	C	0.536514	0.332573	0.500120
C61	C	0.209227	-0.161041	0.000106
C62	C	0.709227	0.338959	0.500106
C63	C	0.210809	-0.240092	0.000101
C64	C	0.710809	0.259908	0.500101
C65	C	0.125237	-0.282809	0.000112
C66	C	0.625237	0.217191	0.500112
C67	C	0.126952	-0.368527	0.000102
C68	C	0.626952	0.131473	0.500102
C69	C	0.128325	-0.436847	0.000094
C70	C	0.628325	0.063153	0.500094
N71	N	0.127648	-0.902710	-0.195565
N72	N	0.627648	-0.402710	0.304435
C73	C	0.063106	-0.949782	0.239041
C74	C	0.563106	-0.449782	0.739041
C75	C	0.063105	-0.949786	0.325588
C76	C	0.563105	-0.449786	0.825588
C77	C	0.127632	-0.902679	0.368860
C78	C	0.627632	-0.402679	0.868860
C79	C	0.192157	-0.855561	0.325580
C80	C	0.692157	-0.355561	0.825580
C81	C	0.192153	-0.855554	0.239034
C82	C	0.692153	-0.355554	0.739034
C83	C	0.192175	-0.855588	0.674608
C84	C	0.692175	-0.355588	1.174608
C85	C	0.192176	-0.855600	0.761160
C86	C	0.692176	-0.355600	1.261160
C87	C	0.063127	-0.949820	0.761161
C88	C	0.563127	-0.449820	1.261161
C89	C	0.063123	-0.949813	0.674616
C90	C	0.563123	-0.449813	1.174616
C91	C	0.127644	-0.902692	0.631344
C92	C	0.627644	-0.402692	1.131344
C93	C	0.127643	-0.902687	0.537500
C94	C	0.627643	-0.402687	1.037500
C95	C	0.127638	-0.902687	0.462702
C96	C	0.627638	-0.402687	0.962702
H97	H	-0.374508	-0.813445	0.000085
H98	H	0.125492	-0.313445	0.500085
O99	O	-0.360150	-1.011008	0.000111
O100	O	0.139850	-0.511008	0.500111
H101	H	-0.384576	-1.042171	0.056151
H102	H	0.115424	-0.542171	0.556151
H103	H	0.010565	-0.988144	0.203814
H104	H	0.510565	-0.488144	0.703814
H105	H	0.289735	-0.667523	0.000061
H106	H	0.789735	-0.167523	0.500061
O107	O	0.261768	-0.804772	0.627941
O108	O	0.761768	-0.304772	1.127941
H109	H	0.335635	-0.819408	0.644536
H110	H	0.835635	-0.319408	1.144536
O111	O	0.261789	-0.804803	0.807837
O112	O	0.761789	-0.304803	1.307837
H113	H	0.306656	-0.772036	0.763208
H114	H	0.806656	-0.272036	1.263208
O115	O	-0.006474	-1.000644	0.807829
O116	O	0.493526	-0.500644	1.307829
H117	H	-0.052499	-0.965689	0.847264
H118	H	0.447501	-0.465689	1.347264
O119	O	0.309477	-0.512817	0.000075
O120	O	0.809477	-0.012817	0.500075
H121	H	0.370341	-0.551362	0.000058
H122	H	0.870341	-0.051362	0.500058
H123	H	-0.023626	-0.679119	0.000095
H124	H	0.476374	-0.179119	0.500095
O125	O	0.304802	-0.279282	0.000103
O126	O	0.804802	0.220718	0.500103
H127	H	0.364038	-0.236295	0.000113
H128	H	0.864038	0.263705	0.500113
O129	O	-0.006483	-1.000600	0.372268
O130	O	0.493517	-0.500600	0.872268
H131	H	0.033365	-1.040064	0.411694
H132	H	0.533365	-0.540064	0.911694
H133	H	0.278904	-0.126251	0.000101
H134	H	0.778904	0.373749	0.500101
O135	O	0.261737	-0.804739	0.192346
O136	O	0.761737	-0.304739	0.692346
H137	H	0.335610	-0.819366	0.208929
H138	H	0.835610	-0.319366	0.708929
H139	H	-0.034456	-0.137848	0.000128
H140	H	0.465544	0.362152	0.500128
H141	H	-0.026488	-0.535699	0.000116
H142	H	0.473512	-0.035699	0.500116
H143	H	0.244692	-0.817202	0.360817
H144	H	0.744692	-0.317202	0.860817
O145	O	-0.006477	-1.000615	0.627942
O146	O	0.493523	-0.500615	1.127942
H147	H	-0.051353	-1.033371	0.672573
H148	H	0.448647	-0.533371	1.172573
H149	H	-0.031590	-0.281255	0.000127
H150	H	0.468410	0.218745	0.500127
