data_functionalizedCrystal
_audit_creation_method	'MofGen! by Chris Wilmer'
_symmetry_space_group_name_H-M	'P1'
_symmetry_Int_Tables_number	1
_symmetry_cell_setting	triclinic
loop_
_symmetry_equiv_pos_as_xyz
  x,y,z
_cell_length_a	25.427154
_cell_length_b	25.426324
_cell_length_c	25.422586
_cell_angle_alpha	60.006367
_cell_angle_beta	60.012446
_cell_angle_gamma	59.992398
loop_
_atom_site_label
_atom_site_type_symbol
_atom_site_fract_x
_atom_site_fract_y
_atom_site_fract_z
O1	O	0.072968	-0.768436	0.642532
O2	O	0.027520	-0.598284	0.517710
O3	O	0.135268	-0.705940	0.517611
O4	O	-0.034780	-0.660780	0.642632
O5	O	0.171018	-0.670200	0.553260
O6	O	0.063270	-0.562544	0.553360
O7	O	0.108718	-0.732696	0.678182
Zn8	Zn	0.091670	-0.641945	0.621431
Zn9	Zn	0.044568	-0.689034	0.574461
O10	O	0.000970	-0.625039	0.678281
N11	N	0.123818	-0.609812	0.653490
N12	N	0.012426	-0.721173	0.542402
C13	C	0.168482	-0.466269	0.698103
C14	C	0.168494	-0.565177	0.698095
C15	C	0.193243	-0.540453	0.722807
C16	C	0.301113	-0.521853	0.665993
C17	C	0.368545	-0.544324	0.643486
C18	C	0.368579	-0.653434	0.685090
C19	C	0.301149	-0.630961	0.707599
C20	C	0.184722	-0.432539	0.631812
C21	C	0.162210	-0.365100	0.609357
C22	C	0.107225	-0.365129	0.719489
C23	C	0.129737	-0.432567	0.741943
C24	C	0.102194	-0.548896	0.714421
C25	C	0.079702	-0.571372	0.691949
C26	C	0.189805	-0.626409	0.636839
C27	C	0.212300	-0.603934	0.659303
C28	C	0.102289	-0.548918	0.830735
C29	C	0.079866	-0.571415	0.898171
C30	C	0.190015	-0.626466	0.898104
C31	C	0.212437	-0.603971	0.830666
C32	C	0.168573	-0.565195	0.796984
C33	C	0.267418	-0.565170	0.698047
C34	C	-0.130981	-0.765617	0.497386
C35	C	-0.032127	-0.765741	0.497606
C36	C	-0.056804	-0.790430	0.472789
C37	C	-0.075480	-0.898263	0.529507
C38	C	-0.053057	-0.965702	0.552014
C39	C	0.056052	-0.965829	0.510599
C40	C	0.033627	-0.898392	0.488091
C41	C	-0.164787	-0.781859	0.563659
C42	C	-0.232219	-0.759299	0.586018
C43	C	-0.232034	-0.704261	0.475827
C44	C	-0.164602	-0.726821	0.453469
C45	C	-0.048372	-0.699446	0.481299
C46	C	-0.025938	-0.677008	0.503867
C47	C	0.028987	-0.787155	0.559036
C48	C	0.006552	-0.809596	0.536475
C49	C	-0.048188	-0.699454	0.364860
C50	C	-0.025608	-0.677017	0.297425
C51	C	0.029406	-0.787170	0.297492
C52	C	0.006827	-0.809605	0.364929
C53	C	-0.031972	-0.765745	0.398611
C54	C	-0.032140	-0.864611	0.497548
N55	N	0.401319	-0.609788	0.653344
O56	O	0.621664	-0.620517	0.494685
O57	O	0.621901	-0.745740	0.664659
O58	O	0.621803	-0.745452	0.556857
O59	O	0.621762	-0.620805	0.602487
O60	O	0.514676	-0.709815	0.592658
O61	O	0.514774	-0.710104	0.700460
O62	O	0.514537	-0.584881	0.530485
Zn63	Zn	0.497647	-0.641834	0.621157
Zn64	Zn	0.638791	-0.688787	0.573988
O65	O	0.514635	-0.585169	0.638287
N66	N	0.735119	-0.720834	0.541794
N67	N	0.123794	-0.332357	0.653504
O68	O	-0.034774	-0.111885	0.642639
O69	O	0.135202	-0.111860	0.517412
O70	O	0.027364	-0.111888	0.517742
O71	O	0.073064	-0.111857	0.642310
O72	O	0.063120	-0.219026	0.553444
O73	O	0.170958	-0.218998	0.553115
O74	O	0.000983	-0.219022	0.678342
Zn75	Zn	0.091647	-0.236020	0.621397
Zn76	Zn	0.044537	-0.094862	0.574357
O77	O	0.108821	-0.218994	0.678013
N78	N	0.012383	0.001474	0.542251
N79	N	0.124036	-0.609854	0.930891
O80	O	0.113202	-0.768401	1.151342
O81	O	-0.011992	-0.598359	1.151385
O82	O	-0.011700	-0.706176	1.151343
O83	O	0.112910	-0.660584	1.151384
O84	O	0.023980	-0.670446	1.044212
O85	O	0.023689	-0.562630	1.044253
O86	O	0.148882	-0.732671	1.044211
Zn87	Zn	0.091951	-0.641977	1.027223
Zn88	Zn	0.044940	-0.689053	1.168373
O89	O	0.148590	-0.624854	1.044252
N90	N	0.012853	-0.721183	1.264704
C91	C	0.041135	-0.558973	0.518338
C92	C	0.174567	-0.692292	0.518215
C93	C	0.095103	-0.772007	0.677553
C94	C	-0.038330	-0.638687	0.677677
C95	C	0.568366	-0.745166	0.703974
C96	C	0.568246	-0.744810	0.570474
C97	C	0.568069	-0.585454	0.491172
C98	C	0.568192	-0.585812	0.624671
C99	C	0.174449	-0.165294	0.517975
C100	C	0.040949	-0.165460	0.518427
C101	C	-0.038309	-0.165456	0.677735
C102	C	0.095236	-0.165423	0.677328
C103	C	-0.011393	-0.559072	1.097824
C104	C	-0.011024	-0.692583	1.097752
C105	C	0.148283	-0.771958	1.097772
C106	C	0.147922	-0.638440	1.097820
H107	H	0.025889	-0.558152	0.925643
O108	O	-0.096540	-0.627260	0.724595
C109	C	-0.088065	-0.634461	0.778855
H110	H	-0.036683	-0.666685	0.778187
H111	H	-0.097265	-0.585205	0.777642
C112	C	-0.198898	-0.625755	0.841487
C113	C	-0.135791	-0.665338	0.840669
H114	H	-0.228339	-0.644799	0.879617
H115	H	-0.204608	-0.620901	0.804931
H116	H	-0.206555	-0.584712	0.840473
H117	H	-0.128132	-0.706377	0.841675
H118	H	-0.130080	-0.670200	0.877228
O119	O	-0.096545	-0.165373	0.724662
C120	C	-0.125052	-0.109872	0.741934
H121	H	-0.085988	-0.091365	0.728855
H122	H	-0.160227	-0.071026	0.714910
C123	C	-0.209426	-0.149453	0.831040
C124	C	-0.161445	-0.126725	0.814980
H125	H	-0.231877	-0.159846	0.876097
H126	H	-0.190222	-0.186844	0.819402
H127	H	-0.238731	-0.117077	0.808514
H128	H	-0.132137	-0.159103	0.837499
H129	H	-0.180645	-0.089339	0.826624
H130	H	0.568427	-0.784476	0.752793
H131	H	0.187590	-0.820792	1.097751
H132	H	0.568264	-0.783967	0.560707
O133	O	0.107026	-0.165453	0.723961
C134	C	0.170339	-0.165429	0.700475
H135	H	0.200792	-0.185703	0.659118
H136	H	0.169378	-0.114029	0.682513
C137	C	0.162256	-0.182550	0.805747
C138	C	0.199661	-0.207455	0.754955
H139	H	0.180343	-0.208471	0.839353
H140	H	0.119601	-0.182564	0.821570
H141	H	0.161459	-0.139717	0.790770
H142	H	0.200451	-0.250285	0.769931
H143	H	0.242317	-0.207450	0.739136
O144	O	0.568207	-0.539035	0.636197
C145	C	0.568105	-0.483425	0.580906
H146	H	0.588352	-0.497478	0.536612
H147	H	0.516689	-0.448418	0.586152
C148	C	0.585233	-0.433725	0.627662
C149	C	0.610105	-0.450986	0.573258
H150	H	0.611137	-0.413712	0.622944
H151	H	0.585299	-0.471189	0.664913
H152	H	0.542387	-0.404555	0.632027
H153	H	0.652947	-0.480161	0.568898
H154	H	0.610047	-0.413526	0.536005
O155	O	0.568007	-0.538628	0.432893
C156	C	0.567966	-0.561814	0.392815
H157	H	0.588305	-0.616685	0.410229
H158	H	0.516556	-0.545476	0.394606
C159	C	0.584911	-0.467697	0.301707
C160	C	0.609897	-0.535090	0.323092
H161	H	0.610774	-0.451210	0.258698
H162	H	0.584937	-0.452074	0.328709
H163	H	0.542070	-0.454090	0.303204
H164	H	0.652734	-0.548695	0.321602
H165	H	0.609880	-0.550714	0.296088
O166	O	-0.058225	-0.500787	1.097866
C167	C	-0.035034	-0.460699	1.097868
H168	H	0.006323	-0.491678	1.118149
H169	H	-0.017162	-0.428164	1.046477
C170	C	-0.140506	-0.380960	1.114985
C171	C	-0.089714	-0.419010	1.139900
H172	H	-0.174235	-0.355243	1.140909
H173	H	-0.156130	-0.407967	1.114981
H174	H	-0.125604	-0.353854	1.072160
H175	H	-0.104614	-0.446121	1.182721
H176	H	-0.074094	-0.392007	1.139912
O177	O	0.029624	-0.500637	0.471582
C178	C	0.073828	-0.472029	0.454212
H179	H	0.092686	-0.493362	0.495499
H180	H	0.115771	-0.481749	0.409400
C181	C	0.016820	-0.372632	0.389294
C182	C	0.039978	-0.398829	0.440005
H183	H	-0.004059	-0.327479	0.380527
H184	H	-0.012960	-0.391906	0.400993
H185	H	0.051777	-0.380738	0.351956
H186	H	0.005020	-0.390730	0.477344
H187	H	0.069751	-0.379552	0.428311
H188	H	0.187070	-0.628684	1.097824
H189	H	0.223406	-0.701920	0.478955
O190	O	0.232588	-0.164899	0.471014
C191	C	0.272661	-0.164779	0.494145
H192	H	0.241683	-0.144708	0.535647
H193	H	0.305440	-0.216108	0.511799
C194	C	0.352049	-0.147074	0.388531
C195	C	0.314001	-0.122418	0.439500
H196	H	0.377552	-0.120946	0.354823
H197	H	0.325052	-0.147157	0.372947
H198	H	0.379359	-0.189848	0.403250
H199	H	0.286686	-0.079648	0.424782
H200	H	0.340994	-0.122326	0.455080
H201	H	0.031160	-0.165463	0.479291
O202	O	-0.057629	-0.704291	1.097655
C203	C	-0.034164	-0.767613	1.097633
H204	H	0.020703	-0.784579	1.077385
H205	H	-0.050470	-0.800946	1.149014
C206	C	-0.128009	-0.748000	1.080425
C207	C	-0.060620	-0.768835	1.055550
H208	H	-0.144330	-0.748755	1.054469
H209	H	-0.143819	-0.705339	1.080442
H210	H	-0.141588	-0.775780	1.123242
H211	H	-0.047042	-0.741050	1.012738
H212	H	-0.044808	-0.811491	1.055525
H213	H	0.104814	-0.820885	0.716757
H214	H	0.066565	-0.517338	0.803314
H215	H	0.225736	-0.658027	0.925521
H216	H	0.266414	-0.617231	0.803190
H217	H	0.066522	-0.517340	0.746005
H218	H	-0.259745	-0.772522	0.639985
O219	O	0.015304	-0.555484	0.707696
C220	C	-0.001044	-0.521537	0.651058
H221	H	0.036945	-0.498706	0.610535
H222	H	-0.003293	-0.556208	0.636865
C223	C	-0.113839	-0.496503	0.712873
C224	C	-0.067184	-0.468457	0.663104
H225	H	-0.154638	-0.463762	0.720304
H226	H	-0.102826	-0.519376	0.751032
H227	H	-0.115705	-0.525395	0.701039
H228	H	-0.065313	-0.439572	0.674942
H229	H	-0.078198	-0.445578	0.624947
H230	H	0.225479	-0.657972	0.605261
H231	H	0.266286	-0.617183	0.646003
H232	H	0.273715	-0.666239	0.733700
H233	H	0.395978	-0.509050	0.617384
O234	O	0.401282	-0.717348	0.694323
C235	C	0.384792	-0.737936	0.664036
H236	H	0.335813	-0.703742	0.658323
H237	H	0.422713	-0.738040	0.614574
C238	C	0.441875	-0.848473	0.712503
C239	C	0.381715	-0.806478	0.705491
H240	H	0.439980	-0.890754	0.738071
H241	H	0.452987	-0.834603	0.732906
H242	H	0.473470	-0.848552	0.671281
H243	H	0.350124	-0.806393	0.746711
H244	H	0.370598	-0.820350	0.685095
O245	O	0.268449	-0.457927	0.656686
C246	C	0.312654	-0.424514	0.623551
H247	H	0.360739	-0.459124	0.631308
H248	H	0.319786	-0.403552	0.569904
C249	C	0.227290	-0.327068	0.639818
C250	C	0.286348	-0.369577	0.649350
H251	H	0.211064	-0.293179	0.655730
H252	H	0.197508	-0.349579	0.662140
H253	H	0.233242	-0.309607	0.595112
H254	H	0.280394	-0.387043	0.694056
H255	H	0.316129	-0.347068	0.627037
H256	H	0.216267	-0.459978	0.596113
H257	H	0.075686	-0.337687	0.755188
O258	O	0.177953	-0.332400	0.544943
C259	C	0.154852	-0.348860	0.516954
H260	H	0.148274	-0.397832	0.548921
H261	H	0.106644	-0.310911	0.511968
C262	C	0.211707	-0.291805	0.410672
C263	C	0.203633	-0.351955	0.449931
H264	H	0.241795	-0.293712	0.369328
H265	H	0.227269	-0.280713	0.429528
H266	H	0.171530	-0.260187	0.406524
H267	H	0.243808	-0.383570	0.454085
H268	H	0.188079	-0.363053	0.431074
O269	O	0.113927	-0.465238	0.806364
C270	C	0.074886	-0.421030	0.840243
H271	H	0.083462	-0.372950	0.808086
H272	H	0.022068	-0.413868	0.854805
C273	C	0.081472	-0.506412	0.940512
C274	C	0.092009	-0.447362	0.901019
H275	H	0.092031	-0.522655	0.978003
H276	H	0.107772	-0.536197	0.917688
H277	H	0.037456	-0.500436	0.952641
H278	H	0.136025	-0.453340	0.888885
H279	H	0.065716	-0.417579	0.923842
H280	H	-0.079784	-0.663733	0.392281
O281	O	0.067101	-0.829863	0.264878
C282	C	0.076553	-0.893184	0.309131
H283	H	0.068948	-0.893050	0.357226
H284	H	0.040661	-0.912448	0.316222
C285	C	0.154974	-0.936677	0.223854
C286	C	0.145639	-0.936513	0.282924
H287	H	0.197589	-0.963406	0.207688
H288	H	0.148605	-0.894017	0.194039
H289	H	0.125059	-0.952729	0.229771
H290	H	0.175548	-0.920454	0.277004
H291	H	0.152015	-0.979172	0.312737
O292	O	-0.085963	-0.656758	0.443576
C293	C	-0.095480	-0.593433	0.434016
H294	H	-0.088016	-0.593562	0.474727
H295	H	-0.059529	-0.574164	0.386024
C296	C	-0.173690	-0.549958	0.383404
C297	C	-0.164528	-0.550115	0.433410
H298	H	-0.216281	-0.523236	0.383028
H299	H	-0.167277	-0.592620	0.389843
H300	H	-0.143726	-0.533901	0.343417
H301	H	-0.194486	-0.566179	0.473397
H302	H	-0.170948	-0.507454	0.426978
O303	O	-0.041264	-0.612623	0.264615
C304	C	0.015422	-0.596394	0.225690
H305	H	0.055880	-0.634439	0.246098
H306	H	0.029686	-0.594177	0.174571
C307	C	-0.046266	-0.483542	0.199594
C308	C	0.003423	-0.530267	0.224662
H309	H	-0.053668	-0.442750	0.198956
H310	H	-0.084458	-0.494475	0.225816
H311	H	-0.034373	-0.481702	0.156996
H312	H	-0.008474	-0.532112	0.267261
H313	H	0.041612	-0.519332	0.198446
H314	H	0.020039	-0.863588	0.392405
O315	O	-0.041790	-0.612613	0.488132
C316	C	-0.075798	-0.596268	0.544769
H317	H	-0.098678	-0.634238	0.585251
H318	H	-0.041166	-0.594065	0.559051
C319	C	-0.100721	-0.483462	0.482940
C320	C	-0.128827	-0.530095	0.532659
H321	H	-0.133430	-0.442643	0.475471
H322	H	-0.077807	-0.494474	0.444782
H323	H	-0.071861	-0.481635	0.494848
H324	H	-0.157680	-0.531927	0.520748
H325	H	-0.151747	-0.519082	0.570815
H326	H	0.019779	-0.863579	0.549754
O327	O	0.066627	-0.829820	0.596713
C328	C	0.123210	-0.868853	0.562728
H329	H	0.114231	-0.869501	0.523416
H330	H	0.163787	-0.848630	0.539924
C331	C	0.153363	-0.937137	0.657797
C332	C	0.142333	-0.937938	0.609517
H333	H	0.165162	-0.979751	0.686659
H334	H	0.115244	-0.910839	0.680693
H335	H	0.187176	-0.920281	0.638786
H336	H	0.108516	-0.954786	0.628527
H337	H	0.180448	-0.964241	0.586625
O338	O	0.075803	-0.865772	0.456980
C339	C	0.121630	-0.882288	0.401414
H340	H	0.124791	-0.931238	0.407488
H341	H	0.106466	-0.844332	0.357682
C342	C	0.184022	-0.825359	0.384126
C343	C	0.187908	-0.885482	0.391589
H344	H	0.224905	-0.827327	0.378063
H345	H	0.153147	-0.814229	0.421561
H346	H	0.171383	-0.793735	0.347683
H347	H	0.200539	-0.917103	0.428036
H348	H	0.218788	-0.896618	0.354160
H349	H	0.109606	-0.993335	0.502902
H350	H	-0.088349	-0.993100	0.578027
H351	H	-0.129033	-0.870764	0.537213
H352	H	-0.137414	-0.813456	0.599420
H353	H	-0.259410	-0.672678	0.440065
H354	H	-0.137077	-0.713589	0.399501
