data_functionalizedCrystal
_audit_creation_method	'MofGen! by Chris Wilmer'
_symmetry_space_group_name_H-M	'P1'
_symmetry_Int_Tables_number	1
_symmetry_cell_setting	triclinic
loop_
_symmetry_equiv_pos_as_xyz
  x,y,z
_cell_length_a	9.065218
_cell_length_b	17.038272
_cell_length_c	8.140239
_cell_angle_alpha	89.996147
_cell_angle_beta	89.997198
_cell_angle_gamma	88.063721
loop_
_atom_site_label
_atom_site_type_symbol
_atom_site_fract_x
_atom_site_fract_y
_atom_site_fract_z
O1	O	1.971908	0.114742	-0.136620
O2	O	1.543567	0.124153	-0.136623
O3	O	1.755192	0.005614	-0.136608
O4	O	1.760283	0.233281	-0.136634
O5	O	1.755179	0.005612	0.136619
O6	O	1.543555	0.124152	0.136605
O7	O	1.971895	0.114740	0.136607
Zn8	Zn	1.757723	0.119446	0.179986
Zn9	Zn	1.757740	0.119448	-0.180002
O10	O	1.760271	0.233280	0.136593
C11	C	1.488484	0.123248	-0.000009
C12	C	1.324369	0.120544	-0.000010
C13	C	1.750555	-0.023549	0.000005
C14	C	1.736739	-0.110441	0.000005
C15	C	1.863587	-0.159639	0.000007
C16	C	1.850596	-0.241284	-0.000009
C17	C	1.710756	-0.273728	-0.000015
C18	C	1.583899	-0.224524	-0.000022
C19	C	1.596891	-0.142881	-0.000019
C20	C	1.664859	-0.519818	-0.000038
C21	C	1.651876	-0.601467	-0.000037
C22	C	1.918575	-0.618221	-0.000026
C23	C	1.931554	-0.536576	-0.000012
C24	C	1.804697	-0.487379	-0.000028
C25	C	1.697475	-0.357182	-0.000026
C26	C	1.817980	-0.403927	-0.000029
C27	C	2.026979	0.115646	-0.000010
C28	C	2.191093	0.118350	-0.000020
C29	C	1.764908	0.262442	-0.000024
C30	C	1.778724	0.349335	-0.000034
N31	N	1.757722	0.119444	0.425669
N32	N	1.757751	0.119443	-0.425685
H33	H	1.977459	-0.133230	0.000022
C34	C	1.399938	-0.511469	-0.000010
C35	C	1.525418	-0.465747	-0.000024
H36	H	1.313851	-0.478084	0.000013
H37	H	1.400418	-0.543654	-0.095289
H38	H	1.400438	-0.543669	0.095273
H39	H	1.524924	-0.433551	-0.095314
H40	H	1.524937	-0.433549	0.095264
H41	H	2.045426	-0.510166	-0.000007
C42	C	1.352596	-0.235378	-0.140500
C43	C	1.430185	-0.260187	-0.000038
H44	H	1.257703	-0.257399	-0.140509
H45	H	1.342178	-0.179721	-0.140488
H46	H	1.405282	-0.252203	-0.235766
H47	H	1.377505	-0.243358	0.095228
H48	H	1.440597	-0.315857	-0.000036
H49	H	1.493597	-0.102824	-0.000021
H50	H	1.583616	-0.383607	-0.000027
H51	H	2.021854	-0.658286	-0.000016
C52	C	1.987303	-0.321824	-0.140471
C53	C	1.971687	-0.368263	-0.000021
H54	H	2.082193	-0.299799	-0.140452
H55	H	1.976720	-0.353325	-0.235734
H56	H	1.913597	-0.280846	-0.140460
H57	H	2.045387	-0.409245	-0.000037
H58	H	1.982285	-0.336761	0.095267
C59	C	1.482576	-0.683571	-0.140499
C60	C	1.498158	-0.637137	-0.000050
H61	H	1.387686	-0.705597	-0.140495
H62	H	1.493180	-0.652067	-0.235763
H63	H	1.556282	-0.724549	-0.140471
H64	H	1.424457	-0.596155	-0.000085
H65	H	1.487539	-0.668643	0.095239
H66	H	1.953890	-0.281338	-0.000003
