data_functionalizedCrystal
_audit_creation_method	'MofGen! by Chris Wilmer'
_symmetry_space_group_name_H-M	'P1'
_symmetry_Int_Tables_number	1
_symmetry_cell_setting	triclinic
loop_
_symmetry_equiv_pos_as_xyz
  x,y,z
_cell_length_a	9.065215
_cell_length_b	10.654551
_cell_length_c	8.140239
_cell_angle_alpha	89.998240
_cell_angle_beta	89.997810
_cell_angle_gamma	84.750063
loop_
_atom_site_label
_atom_site_type_symbol
_atom_site_fract_x
_atom_site_fract_y
_atom_site_fract_z
O1	O	1.959395	0.184140	-0.136587
O2	O	1.530027	0.199249	-0.136594
O3	O	1.754582	0.008995	-0.136587
O4	O	1.734840	0.374395	-0.136594
O5	O	1.754569	0.008992	0.136640
O6	O	1.530014	0.199247	0.136633
O7	O	1.959382	0.184138	0.136640
Zn8	Zn	1.744696	0.191692	0.180017
Zn9	Zn	1.744713	0.191695	-0.179971
O10	O	1.734827	0.374393	0.136633
C11	C	1.475042	0.197797	0.000018
C12	C	1.311222	0.193458	0.000016
C13	C	1.753126	-0.037810	0.000024
C14	C	1.748788	-0.177271	0.000016
C15	C	1.746758	-0.242781	-0.148921
C16	C	1.742670	-0.373818	-0.148923
C17	C	1.742646	-0.373822	0.148964
C18	C	1.746724	-0.242787	0.148964
C19	C	1.650818	-0.544252	-0.327862
C20	C	1.648814	-0.609769	-0.476808
C21	C	1.736453	-0.575881	-0.608305
C22	C	1.826132	-0.476481	-0.590862
C23	C	1.828148	-0.410972	-0.441914
C24	C	1.740475	-0.444854	-0.310423
C25	C	1.838588	-0.072352	0.327893
C26	C	1.840616	-0.006841	0.476843
C27	C	1.752986	-0.040727	0.608354
C28	C	1.663330	-0.140134	0.590927
C29	C	1.661302	-0.205644	0.441977
C30	C	1.748930	-0.171749	0.310466
C31	C	2.014367	0.185590	0.000024
C32	C	2.178187	0.189929	0.000016
C33	C	1.736283	0.421197	0.000018
C34	C	1.740621	0.560658	0.000015
N35	N	1.744696	0.191689	0.425700
N36	N	1.744725	0.191688	-0.425654
H37	H	1.748434	-0.189441	-0.270204
C38	C	1.939232	0.102513	0.496025
C39	C	2.061106	0.095901	0.628332
C40	C	2.159712	0.205257	0.647516
C41	C	2.136444	0.321226	0.534394
C42	C	2.014563	0.327843	0.402078
C43	C	1.915957	0.218486	0.382893
H44	H	2.078336	0.010050	0.712080
H45	H	2.249936	0.200358	0.745466
H46	H	2.209438	0.402178	0.548596
H47	H	1.997334	0.413694	0.318330
H48	H	1.825733	0.223385	0.284943
H49	H	1.754657	0.012615	0.729641
H50	H	1.901165	-0.330044	-0.427712
C51	C	1.562676	-0.314991	0.422800
C52	C	1.466281	-0.352276	0.567454
C53	C	1.367659	-0.461622	0.548276
C54	C	1.365431	-0.533684	0.384443
C55	C	1.461830	-0.496400	0.239777
C56	C	1.560452	-0.387054	0.258955
H57	H	1.467926	-0.298931	0.688744
H58	H	1.296298	-0.489221	0.655368
H59	H	1.292425	-0.614628	0.370246
H60	H	1.460185	-0.549745	0.118488
H61	H	1.631813	-0.359455	0.151863
H62	H	1.909936	-0.044741	0.220804
H63	H	1.897505	-0.448909	-0.697940
H64	H	1.734819	-0.629235	-0.729580
H65	H	1.575788	-0.690700	-0.490999
H66	H	1.579434	-0.571842	-0.220803
H67	H	1.740969	-0.427182	0.270232
H68	H	1.591942	-0.167701	0.697999
