data_functionalizedCrystal
_audit_creation_method	'MofGen! by Chris Wilmer'
_symmetry_space_group_name_H-M	'P1'
_symmetry_Int_Tables_number	1
_symmetry_cell_setting	triclinic
loop_
_symmetry_equiv_pos_as_xyz
  x,y,z
_cell_length_a	19.188928
_cell_length_b	26.809956
_cell_length_c	19.188930
_cell_angle_alpha	90.000789
_cell_angle_beta	96.855705
_cell_angle_gamma	89.974501
loop_
_atom_site_label
_atom_site_type_symbol
_atom_site_fract_x
_atom_site_fract_y
_atom_site_fract_z
O1	O	-0.926151	0.041678	0.087150
O2	O	-0.722840	0.041638	0.098886
O3	O	-0.830363	0.041649	-0.008638
O4	O	-0.818629	0.041666	0.194674
O5	O	-0.830343	-0.041310	-0.008621
O6	O	-0.722820	-0.041322	0.098902
O7	O	-0.926131	-0.041281	0.087166
Zn8	Zn	-0.824472	-0.054473	0.093037
Zn9	Zn	-0.824499	0.054829	0.093015
O10	O	-0.818608	-0.041293	0.194690
C11	C	-0.696819	0.000153	0.098514
C12	C	-0.619314	0.000137	0.097374
C13	C	-0.574390	0.000148	0.160465
C14	C	-0.501566	0.000151	0.159394
C15	C	-0.473670	0.000152	0.095229
C16	C	-0.518603	0.000138	0.032129
C17	C	-0.591426	0.000130	0.033202
N18	N	-0.365696	0.028399	0.046177
N19	N	-0.296518	0.028407	0.045162
C20	C	-0.254261	0.000175	0.091992
N21	N	-0.283795	-0.028060	0.139886
N22	N	-0.352979	-0.028067	0.140903
C23	C	-0.394707	0.000160	0.094058
C24	C	-0.130372	0.000189	0.153927
C25	C	-0.057547	0.000189	0.152853
C26	C	-0.074586	0.000180	0.025586
C27	C	-0.147409	0.000175	0.026661
C28	C	-0.175298	0.000182	0.090833
N29	N	-0.824459	-0.129069	0.093051
C30	C	-0.872104	-0.473690	0.045415
C31	C	-0.872120	-0.682568	0.045405
O32	O	-0.912602	-0.709567	0.004908
N33	N	-0.824503	-0.708696	0.093000
C34	C	-0.776874	-0.682602	0.140598
O35	O	-0.736368	-0.709619	0.181075
C36	C	-0.776855	-0.473725	0.140605
C37	C	-0.824481	-0.447599	0.093011
C38	C	-0.919725	-0.447564	-0.002175
C39	C	-0.919723	-0.395348	-0.002169
C40	C	-0.872100	-0.369257	0.045427
C41	C	-0.824479	-0.395383	0.093017
C42	C	-0.729224	-0.447632	0.188199
C43	C	-0.729222	-0.395410	0.188195
C44	C	-0.776848	-0.369284	0.140602
C45	C	-0.776853	-0.317076	0.140618
N46	N	-0.824471	-0.290948	0.093023
C47	C	-0.872094	-0.317038	0.045428
C48	C	-0.776889	-0.792265	0.140592
C49	C	-0.776894	-0.844484	0.140591
C50	C	-0.872140	-0.844446	0.045397
C51	C	-0.872137	-0.792226	0.045402
C52	C	-0.824507	-0.766137	0.092997
C53	C	-0.872087	-0.207380	0.045444
C54	C	-0.872082	-0.155159	0.045455
C55	C	-0.776835	-0.155202	0.140647
C56	C	-0.776841	-0.207418	0.140638
C57	C	-0.824470	-0.233506	0.093030
O58	O	-0.736388	-0.290045	0.181089
O59	O	-0.912584	-0.290013	0.004946
C60	C	-0.872106	-0.525906	0.045410
C61	C	-0.824485	-0.552032	0.093000
C62	C	-0.776862	-0.525942	0.140596
C63	C	-0.824490	-0.604251	0.092999
C64	C	-0.872114	-0.630341	0.045403
C65	C	-0.919731	-0.604213	-0.002192
C66	C	-0.919729	-0.551997	-0.002186
C67	C	-0.729244	-0.552070	0.188191
C68	C	-0.729250	-0.604286	0.188182
C69	C	-0.776874	-0.630377	0.140586
C70	C	0.047848	0.000196	0.087540
C71	C	-0.029656	0.000189	0.088686
C72	C	-0.829973	0.000168	-0.034641
C73	C	-0.828832	0.000164	-0.112145
N74	N	-0.824518	0.129425	0.092995
C75	C	-0.891923	0.000174	-0.157070
C76	C	-0.890851	0.000182	-0.229893
C77	C	-0.826685	0.000169	-0.257789
C78	C	-0.763586	0.000162	-0.212855
C79	C	-0.764659	0.000159	-0.140033
N80	N	-0.777631	-0.028073	-0.365788
N81	N	-0.776615	-0.028072	-0.434967
C82	C	-0.823447	0.000179	-0.477198
N83	N	-0.871343	0.028421	-0.447639
N84	N	-0.872360	0.028417	-0.378454
C85	C	-0.825514	0.000172	-0.336752
C86	C	-0.885380	0.000198	-0.601087
C87	C	-0.884306	0.000209	-0.673912
C88	C	-0.757039	0.000184	-0.656872
C89	C	-0.758115	0.000178	-0.584049
C90	C	-0.822287	0.000183	-0.556161
C91	C	-0.818998	0.000189	0.220693
C92	C	-0.820139	0.000197	0.298197
H93	H	-0.910869	-0.228615	0.006676
H94	H	-0.935684	0.000220	-0.710489
H95	H	-0.944177	0.000179	-0.134369
H96	H	-0.910867	-0.133889	0.006699
H97	H	-0.738067	-0.228690	0.179399
N98	N	-0.958901	0.000194	-0.278360
H99	H	-0.999716	0.000197	-0.249643
H100	H	-0.961213	-0.030560	-0.308946
H101	H	-0.706739	0.000167	-0.547470
N102	N	-0.696612	0.000144	-0.091568
H103	H	-0.668612	0.030893	-0.100510
H104	H	-0.668654	-0.030634	-0.100542
H105	H	-0.597092	0.000155	0.212720
N106	N	-0.971088	-0.367173	-0.053505
H107	H	-1.001252	-0.391631	-0.083655
H108	H	-0.944454	-0.345517	-0.084307
H109	H	-0.704793	0.000176	-0.679584
H110	H	-0.711341	0.000153	-0.235573
N111	N	-0.195861	0.000171	-0.041392
H112	H	-0.226481	0.030920	-0.043790
H113	H	-0.226384	-0.030606	-0.043741
N114	N	-0.639878	0.000122	-0.034853
H115	H	-0.670496	0.030872	-0.037251
H116	H	-0.670402	-0.030654	-0.037199
H117	H	-0.153080	0.000187	0.206179
N118	N	-0.954590	0.000205	-0.571001
H119	H	-0.994397	0.000217	-0.610514
H120	H	-0.957815	0.030957	-0.541152
H121	H	-0.051874	0.000212	-0.026659
H122	H	-0.464982	0.000159	0.210772
N123	N	-0.488520	0.000133	-0.037079
H124	H	-0.435570	0.000140	-0.028186
H125	H	-0.504996	0.030882	-0.064689
H126	H	-0.958506	-0.468802	-0.040936
N127	N	-0.009089	0.000161	0.220904
H128	H	-0.037810	0.000154	0.261717
H129	H	0.021497	0.030906	0.223256
H130	H	-0.910918	-0.865698	0.006644
N131	N	-0.923495	-0.764044	-0.005932
H132	H	-0.973023	-0.773111	0.001985
H133	H	-0.915547	-0.773147	-0.055443
N134	N	-0.725531	-0.872660	0.191928
H135	H	-0.695361	-0.848203	0.222074
H136	H	-0.694751	-0.894335	0.165269
N137	N	-0.725510	-0.764129	0.191927
H138	H	-0.695350	-0.788610	0.222074
H139	H	-0.752135	-0.742452	0.222733
H140	H	-0.690443	-0.468897	0.226953
N141	N	-0.677845	-0.367270	0.239528
H142	H	-0.647678	-0.391748	0.269674
H143	H	-0.704471	-0.345596	0.270335
H144	H	-0.738062	-0.133951	0.179401
H145	H	-0.958510	-0.530729	-0.040941
H146	H	-0.958511	-0.625464	-0.040944
N147	N	-0.677877	-0.632462	0.239516
H148	H	-0.647707	-0.608006	0.269662
H149	H	-0.647098	-0.654133	0.212851
H150	H	-0.690462	-0.530831	0.226948
