data_functionalizedCrystal
_audit_creation_method	'MofGen! by Chris Wilmer'
_symmetry_space_group_name_H-M	'P1'
_symmetry_Int_Tables_number	1
_symmetry_cell_setting	triclinic
loop_
_symmetry_equiv_pos_as_xyz
  x,y,z
_cell_length_a	12.759401
_cell_length_b	13.032721
_cell_length_c	12.759393
_cell_angle_alpha	82.850774
_cell_angle_beta	90.020938
_cell_angle_gamma	97.205831
loop_
_atom_site_label
_atom_site_type_symbol
_atom_site_fract_x
_atom_site_fract_y
_atom_site_fract_z
Zn1	Zn	1.553113	-0.415945	0.647098
Zn2	Zn	1.530669	-0.590725	0.493722
Zn3	Zn	1.377404	-0.416001	0.471441
Zn4	Zn	1.355078	-0.590652	0.669350
O5	O	1.454066	-0.503331	0.570403
O6	O	1.697156	-0.439137	0.626765
O7	O	1.510289	-0.567601	0.343752
O8	O	1.419449	-0.269756	0.476105
O9	O	1.680666	-0.567547	0.514080
O10	O	1.548541	-0.269715	0.605160
O11	O	1.397686	-0.439232	0.327382
O12	O	1.227423	-0.439161	0.497681
O13	O	1.381397	-0.567423	0.813412
O14	O	1.211019	-0.567477	0.643084
O15	O	1.526892	-0.439067	0.797064
O16	O	1.488640	-0.736953	0.535656
O17	O	1.359634	-0.736899	0.664689
C18	C	1.181100	-0.503318	0.570380
C19	C	1.064321	-0.503338	0.570399
C20	C	1.419307	-0.774844	0.605028
C21	C	1.404533	-0.890999	0.619876
C22	C	1.000932	-0.570253	0.646017
C23	C	0.891208	-0.570257	0.646038
C24	C	0.908271	-0.436427	0.494813
C25	C	1.017994	-0.436419	0.494797
C26	C	1.461832	-0.942776	0.562700
C27	C	1.446564	-1.062828	0.578045
C28	C	1.728097	-0.503344	0.570426
C29	C	1.844873	-0.503350	0.570436
C30	C	1.454157	-0.503230	0.844423
C31	C	1.454196	-0.503188	0.961194
C32	C	1.488989	-0.230757	0.535665
C33	C	1.503872	-0.114602	0.520862
C34	C	1.454045	-0.503355	0.297438
C35	C	1.454247	-0.503104	0.180630
C36	C	1.529962	-0.436342	1.007544
C37	C	1.529986	-0.436297	1.117263
C38	C	1.378473	-0.569952	1.134273
C39	C	1.378446	-0.569991	1.024556
H40	H	1.038649	-0.624740	0.707579
C41	C	0.786688	-0.421744	0.351660
C42	C	0.857342	-0.362878	0.411711
H43	H	0.755254	-0.376336	0.300351
H44	H	0.733238	-0.461590	0.396697
H45	H	0.823663	-0.467217	0.317191
H46	H	0.820365	-0.317410	0.446187
H47	H	0.910800	-0.323015	0.366668
H48	H	1.316741	-0.624424	0.986817
H49	H	1.344178	-0.935548	0.680190
C50	C	0.885370	-0.702549	0.795505
C51	C	0.821530	-0.643818	0.729157
H52	H	0.842351	-0.747967	0.846816
H53	H	0.934006	-0.657066	0.829961
H54	H	0.923034	-0.742460	0.754731
H55	H	0.783872	-0.603901	0.769929
H56	H	0.772875	-0.689307	0.694699
C57	C	1.159373	-0.295819	0.462487
C58	C	1.087679	-0.362859	0.411670
H59	H	1.202388	-0.250404	0.411170
H60	H	1.202661	-0.335668	0.507502
H61	H	1.121688	-0.255907	0.503239
H62	H	1.125365	-0.402777	0.370924
H63	H	1.044386	-0.323006	0.366637
C64	C	1.679718	-0.304216	1.001754
C65	C	1.613216	-0.362902	0.937896
H66	H	1.731110	-0.258870	0.958755
H67	H	1.714082	-0.349733	1.050353
H68	H	1.639061	-0.264230	1.039449
H69	H	1.653872	-0.402894	0.900206
H70	H	1.578850	-0.317379	0.889278
C71	C	1.492002	-0.819992	0.405809
C72	C	1.543317	-0.882647	0.481278
H73	H	1.542309	-0.782878	0.355539
H74	H	1.458042	-0.771957	0.439696
H75	H	1.440864	-0.862654	0.370999
H76	H	1.594449	-0.839983	0.516094
H77	H	1.577294	-0.930686	0.447388
C78	C	1.365719	-1.230242	0.658909
C79	C	1.365072	-1.122953	0.659469
H80	H	1.315406	-1.267359	0.709172
H81	H	1.434052	-1.247997	0.676605
H82	H	1.348120	-1.248134	0.590572
H83	H	1.382679	-1.105060	0.727804
H84	H	1.296725	-1.105191	0.641780
H85	H	1.564240	-1.070058	0.460551
C86	C	1.562625	-0.295671	1.222716
C87	C	1.613269	-0.362812	1.168205
H88	H	1.614044	-0.250297	1.254157
H89	H	1.517534	-0.335449	1.276155
H90	H	1.521964	-0.255720	1.174797
H91	H	1.653925	-0.402769	1.216126
H92	H	1.658379	-0.323030	1.114760
C93	C	1.194056	-0.620830	1.174516
C94	C	1.295217	-0.643387	1.203924
H95	H	1.142659	-0.666166	1.217520
H96	H	1.183202	-0.630422	1.102548
H97	H	1.187695	-0.550607	1.183555
H98	H	1.301581	-0.713609	1.194877
H99	H	1.306074	-0.633805	1.275909
