data_functionalizedCrystal
_audit_creation_method	'MofGen! by Chris Wilmer'
_symmetry_space_group_name_H-M	'P1'
_symmetry_Int_Tables_number	1
_symmetry_cell_setting	triclinic
loop_
_symmetry_equiv_pos_as_xyz
  x,y,z
_cell_length_a	6.817900
_cell_length_b	14.858565
_cell_length_c	16.305550
_cell_angle_alpha	95.065908
_cell_angle_beta	103.455250
_cell_angle_gamma	104.523916
loop_
_atom_site_label
_atom_site_type_symbol
_atom_site_fract_x
_atom_site_fract_y
_atom_site_fract_z
V1	V	-4.031556	-0.129456	-0.263268
V2	V	-3.531556	0.370544	0.236732
O3	O	-4.013619	0.005413	-0.258014
O4	O	-3.513619	0.505413	0.241986
O5	O	-3.988195	-0.255912	-0.261700
O6	O	-3.488195	0.244088	0.238300
O7	O	-3.982895	-0.127819	-0.377982
O8	O	-3.482895	0.372181	0.122018
O9	O	-4.018955	-0.123567	-0.140928
O10	O	-3.518955	0.376433	0.359072
V11	V	-4.514565	-0.113282	-0.248607
V12	V	-4.014565	0.386718	0.251393
O13	O	-4.293942	-0.164934	-0.295429
O14	O	-3.793942	0.335066	0.204571
O15	O	-4.702376	-0.077803	-0.216446
O16	O	-4.202376	0.422197	0.283554
O17	O	-4.334720	0.013174	-0.250175
O18	O	-3.834720	0.513174	0.249825
O19	O	-4.649899	-0.248151	-0.253860
O20	O	-4.149899	0.251849	0.246140
O21	O	-4.644563	-0.119171	-0.370947
O22	O	-4.144563	0.380829	0.129053
O23	O	-4.340020	-0.114919	-0.133893
O24	O	-3.840020	0.385081	0.366107
C25	C	-3.834429	-0.286728	-0.257607
C26	C	-3.334429	0.213272	0.242393
C27	C	-3.880261	-0.390110	-0.257090
C28	C	-3.380261	0.109890	0.242910
C29	C	-4.048011	-0.768675	-0.255208
C30	C	-3.548011	-0.268675	0.244792
C31	C	-4.001329	-0.663347	-0.255731
C32	C	-3.501329	-0.163347	0.244269
C33	C	-3.964137	-0.579396	-0.256148
C34	C	-3.464137	-0.079396	0.243852
C35	C	-3.917454	-0.474061	-0.256673
C36	C	-3.417454	0.025939	0.243327
C37	C	-3.827668	-0.123331	-0.405935
C38	C	-3.327668	0.376669	0.094065
C39	C	-3.869199	-0.122830	-0.499716
C40	C	-3.369199	0.377170	0.000284
C41	C	-4.020207	-0.120886	-0.840458
C42	C	-3.520207	0.379114	-0.340458
C43	C	-3.783922	-0.115115	-0.799519
C44	C	-3.283922	0.384885	-0.299519
C45	C	-3.740766	-0.116022	-0.702026
C46	C	-3.240766	0.383978	-0.202026
C47	C	-3.945289	-0.121850	-0.671412
C48	C	-3.445289	0.378150	-0.171412
C49	C	-4.116090	-0.213696	-0.722206
C50	C	-3.616090	0.286304	-0.222206
C51	C	-4.157932	-0.213177	-0.819755
C52	C	-3.657932	0.286823	-0.319755
C53	C	-4.071461	-0.035544	-0.794459
C54	C	-3.571461	0.464456	-0.294459
C55	C	-4.023502	-0.034817	-0.696615
C56	C	-3.523502	0.465183	-0.196615
C57	C	-3.902961	-0.122398	-0.575875
C58	C	-3.402961	0.377602	-0.075875
C59	C	-4.062543	-0.120344	-0.935996
C60	C	-3.562543	0.379656	-0.435996
C61	C	-4.151827	0.043986	-0.254265
C62	C	-3.651827	0.543986	0.245735
C63	C	-4.085234	0.147367	-0.254788
C64	C	-3.585234	0.647367	0.245212
C65	C	-4.158588	-0.119409	-0.105935
C66	C	-3.658588	0.380591	0.394065
C67	C	-4.096296	-0.119906	-0.012154
C68	C	-3.596296	0.380094	0.487846
H69	H	-3.611559	-0.049985	-0.666881
H70	H	-3.111559	0.450015	-0.166881
H71	H	-3.676884	-0.178044	-0.685845
H72	H	-3.176884	0.321956	-0.185845
F73	F	-3.641637	-0.028319	-0.815407
F74	F	-3.141637	0.471681	-0.315407
F75	F	-3.728268	-0.195259	-0.840849
F76	F	-3.228268	0.304741	-0.340849
H77	H	-4.124437	-0.277783	-0.850254
H78	H	-3.624437	0.222217	-0.350254
H79	H	-4.170743	-0.033674	-0.675265
H80	H	-3.670743	0.466326	-0.175265
F81	F	-4.385570	-0.223688	-0.856362
F82	F	-3.885570	0.276312	-0.356362
F83	F	-4.296541	-0.039998	-0.829519
F84	F	-3.796541	0.460002	-0.329519
F85	F	-4.316688	-0.223614	-0.697508
F86	F	-3.816688	0.276386	-0.197508
H87	H	-4.063307	-0.278319	-0.705512
H88	H	-3.563307	0.221681	-0.205512
F89	F	-3.948268	0.055417	-0.811767
F90	F	-3.448268	0.555417	-0.311767
H91	H	-3.899668	0.033118	-0.662112
H92	H	-3.399668	0.533118	-0.162112
