data_functionalizedCrystal
_audit_creation_method	'MofGen! by Chris Wilmer'
_symmetry_space_group_name_H-M	'P1'
_symmetry_Int_Tables_number	1
_symmetry_cell_setting	triclinic
loop_
_symmetry_equiv_pos_as_xyz
  x,y,z
_cell_length_a	9.065218
_cell_length_b	9.565339
_cell_length_c	9.065218
_cell_angle_alpha	89.997921
_cell_angle_beta	85.015885
_cell_angle_gamma	90.003684
loop_
_atom_site_label
_atom_site_type_symbol
_atom_site_fract_x
_atom_site_fract_y
_atom_site_fract_z
O1	O	1.960401	0.116257	0.216346
O2	O	1.531116	0.116259	0.234093
O3	O	1.754631	0.116255	0.010577
O4	O	1.736885	0.116261	0.439862
O5	O	1.754614	-0.116265	0.010591
O6	O	1.531098	-0.116261	0.234107
O7	O	1.960383	-0.116263	0.216360
Zn8	Zn	1.745738	-0.153180	0.225236
Zn9	Zn	1.745761	0.153176	0.225217
O10	O	1.736867	-0.116259	0.439876
C11	C	1.476120	-0.000001	0.232394
C12	C	1.312277	-0.000000	0.227294
N13	N	1.745732	-0.362259	0.225247
C14	C	1.642332	-0.453460	0.328581
C15	C	1.776053	-0.546639	0.358994
C16	C	1.612069	-0.546635	0.194846
C17	C	1.879522	-0.453386	0.255728
C18	C	1.715449	-0.453374	0.091521
C19	C	1.849266	-0.546511	0.121879
C20	C	2.015378	0.000000	0.218059
C21	C	2.179221	0.000009	0.223158
C22	C	1.752917	-0.000003	-0.044403
C23	C	1.747817	0.000004	-0.208245
N24	N	1.745778	0.362255	0.225194
C25	C	1.738582	0.000002	0.494855
C26	C	1.743681	0.000004	0.658698
H27	H	1.554971	-0.412604	0.416049
H28	H	1.992604	-0.412598	0.281554
H29	H	1.801698	-0.587605	0.472061
H30	H	1.689763	-0.412376	-0.021510
H31	H	1.936825	-0.587111	0.034466
H32	H	1.499013	-0.587599	0.169156
