data_functionalizedCrystal
_audit_creation_method	'MofGen! by Chris Wilmer'
_symmetry_space_group_name_H-M	'P1'
_symmetry_Int_Tables_number	1
_symmetry_cell_setting	triclinic
loop_
_symmetry_equiv_pos_as_xyz
  x,y,z
_cell_length_a	13.339070
_cell_length_b	16.109301
_cell_length_c	14.586319
_cell_angle_alpha	89.998390
_cell_angle_beta	90.007320
_cell_angle_gamma	80.454613
loop_
_atom_site_label
_atom_site_type_symbol
_atom_site_fract_x
_atom_site_fract_y
_atom_site_fract_z
O1	O	1.342148	-0.416770	0.076285
O2	O	1.047639	-0.362066	0.076278
O3	O	1.202984	-0.270255	0.076272
O4	O	1.186803	-0.508581	0.076291
O5	O	1.202965	-0.270258	-0.076208
O6	O	1.047620	-0.362069	-0.076203
O7	O	1.342129	-0.416773	-0.076196
Cu8	Cu	1.194873	-0.389421	-0.090122
Cu9	Cu	1.194895	-0.389417	0.090204
O10	O	1.186784	-0.508584	-0.076190
C11	C	1.009943	-0.352827	0.000037
C12	C	0.897651	-0.325282	0.000034
C13	C	1.202319	-0.239130	0.000032
C14	C	1.200354	-0.146381	0.000030
N15	N	1.194864	-0.389425	-0.216954
C16	C	0.532787	-0.539450	0.000065
C17	C	0.638291	-0.565332	0.000070
C18	C	0.703136	-0.505322	0.000061
C19	C	0.662467	-0.419426	0.000046
C20	C	0.556952	-0.393541	0.000048
C21	C	0.727301	-0.359413	0.000044
C22	C	0.686632	-0.273517	0.000030
C23	C	0.581127	-0.247637	0.000030
C24	C	0.516283	-0.307647	0.000040
C25	C	0.832816	-0.385297	0.000043
C26	C	0.856981	-0.239388	0.000026
C27	C	0.751477	-0.213506	0.000020
C28	C	1.379825	-0.426012	0.000048
C29	C	1.492117	-0.453556	0.000057
C30	C	1.187449	-0.539708	0.000053
C31	C	1.189414	-0.632457	0.000060
C32	C	1.287963	0.055662	0.000047
C33	C	1.286109	0.142810	0.000054
C34	C	1.101798	0.165494	0.000046
C35	C	1.103653	0.078347	0.000045
C36	C	1.196739	0.023433	0.000041
C37	C	1.193029	0.197729	0.000049
C38	C	1.191018	0.292219	0.000058
C39	C	1.198750	-0.071064	0.000035
C40	C	1.256212	-0.454019	-0.451954
C41	C	1.256223	-0.454016	-0.547936
C42	C	1.133561	-0.324808	-0.547956
C43	C	1.133557	-0.324809	-0.451977
C44	C	1.194880	-0.389419	-0.403978
C45	C	1.194895	-0.389415	-0.595939
C46	C	1.194906	-0.389411	-0.700006
C47	C	1.194871	-0.389422	-0.299905
N48	N	1.194912	-0.389409	0.217036
H49	H	0.789042	-0.526400	0.000068
H50	H	0.909778	-0.190522	0.000022
H51	H	0.718348	-0.143568	0.000016
N52	N	1.322381	-0.523699	-0.599664
H53	H	1.278341	-0.554217	-0.639497
H54	H	1.371905	-0.498891	-0.639419
H55	H	1.083633	-0.272206	-0.587048
H56	H	1.026010	0.210216	0.000048
H57	H	0.671396	-0.635268	0.000089
N58	N	1.067410	-0.255126	-0.400223
H59	H	1.028558	-0.214199	-0.445192
H60	H	1.017949	-0.279944	-0.360405
N61	N	1.005250	0.043589	0.000032
H62	H	1.001910	0.007939	-0.056493
H63	H	1.001972	0.007976	0.056594
N64	N	0.462854	-0.604170	0.000083
H65	H	0.418554	-0.596675	0.056611
H66	H	0.418591	-0.596653	-0.056476
N67	N	0.876666	-0.477937	0.000060
H68	H	0.853009	-0.505328	-0.056460
H69	H	0.953337	-0.485165	0.000095
H70	H	0.430371	-0.286578	0.000035
N71	N	1.388358	-0.003569	0.000043
H72	H	1.445866	0.030076	0.000050
H73	H	1.393147	-0.040224	0.056569
H74	H	1.360393	0.169046	0.000061
H75	H	0.548018	-0.177695	0.000029
N76	N	1.322354	-0.523699	-0.400182
H77	H	1.361211	-0.564621	-0.445143
H78	H	1.371811	-0.498879	-0.360352
