data_functionalizedCrystal
_audit_creation_method	'MofGen! by Chris Wilmer'
_symmetry_space_group_name_H-M	'P1'
_symmetry_Int_Tables_number	1
_symmetry_cell_setting	triclinic
loop_
_symmetry_equiv_pos_as_xyz
  x,y,z
_cell_length_a	17.666332
_cell_length_b	19.188930
_cell_length_c	19.188930
_cell_angle_alpha	83.144779
_cell_angle_beta	90.011603
_cell_angle_gamma	90.023234
loop_
_atom_site_label
_atom_site_type_symbol
_atom_site_fract_x
_atom_site_fract_y
_atom_site_fract_z
O1	O	-0.063200	-0.926150	-0.087169
O2	O	0.436800	-0.426150	0.412831
O3	O	-0.063149	-0.722838	-0.098903
O4	O	0.436851	-0.222838	0.401097
O5	O	-0.063161	-0.830361	0.008620
O6	O	0.436839	-0.330361	0.508620
O7	O	-0.063188	-0.818627	-0.194692
O8	O	0.436812	-0.318627	0.305308
O9	O	0.062735	-0.830342	0.008625
O10	O	0.562735	-0.330342	0.508625
O11	O	0.062747	-0.722820	-0.098897
O12	O	0.562747	-0.222820	0.401103
O13	O	0.062697	-0.926131	-0.087163
O14	O	0.562697	-0.426131	0.412837
Cu15	Cu	0.074217	-0.824473	-0.093030
Cu16	Cu	0.574217	-0.324473	0.406970
Cu17	Cu	-0.074670	-0.824496	-0.093036
Cu18	Cu	0.425330	-0.324496	0.406964
O19	O	0.062709	-0.818608	-0.194686
O20	O	0.562709	-0.318608	0.305314
C21	C	-0.000194	-0.696818	-0.098520
C22	C	0.499806	-0.196818	0.401480
C23	C	-0.000174	-0.619313	-0.097380
C24	C	0.499826	-0.119313	0.402620
N25	N	0.178937	-0.824463	-0.093025
N26	N	0.678937	-0.324463	0.406975
N27	N	-0.179390	-0.824512	-0.093036
N28	N	0.320610	-0.324512	0.406964
C29	C	0.218541	-0.872089	-0.045437
C30	C	0.718541	-0.372089	0.454563
C31	C	0.297789	-0.872093	-0.045433
C32	C	0.797789	-0.372093	0.454567
C33	C	0.337429	-0.824478	-0.093030
C34	C	0.837429	-0.324478	0.406970
C35	C	0.297815	-0.776842	-0.140621
C36	C	0.797815	-0.276842	0.359379
C37	C	0.218569	-0.776835	-0.140619
C38	C	0.718569	-0.276835	0.359381
N39	N	0.461841	-0.815401	-0.154837
N40	N	0.961841	-0.315401	0.345163
N41	N	0.537121	-0.815413	-0.154837
N42	N	1.037121	-0.315413	0.345163
C43	C	0.576193	-0.824496	-0.093040
C44	C	1.076193	-0.324496	0.406960
N45	N	0.537140	-0.833582	-0.031239
N46	N	1.037140	-0.333582	0.468761
N47	N	0.461853	-0.833574	-0.031240
N48	N	0.961853	-0.333574	0.468760
C49	C	0.423358	-0.824480	-0.093038
C50	C	0.923358	-0.324480	0.406962
C51	C	0.701727	-0.872130	-0.045444
C52	C	1.201727	-0.372130	0.454556
C53	C	0.780976	-0.872129	-0.045440
C54	C	1.280976	-0.372129	0.454560
C55	C	0.781000	-0.776881	-0.140634
C56	C	1.281000	-0.276881	0.359366
C57	C	0.701753	-0.776878	-0.140632
C58	C	1.201753	-0.276878	0.359368
C59	C	0.662121	-0.824506	-0.093038
C60	C	1.162121	-0.324506	0.406962
C61	C	-0.000211	-0.829972	0.034634
C62	C	0.499789	-0.329972	0.534634
C63	C	-0.000204	-0.828831	0.112138
C64	C	0.499796	-0.328831	0.612138
C65	C	-0.000260	-0.952151	-0.087546
C66	C	0.499740	-0.452151	0.412454
C67	C	-0.000285	-1.029656	-0.088687
C68	C	0.499715	-0.529656	0.411313
C69	C	-0.000194	-0.574389	-0.160470
C70	C	0.499806	-0.074389	0.339530
C71	C	-0.000203	-0.501566	-0.159399
C72	C	0.499797	-0.001566	0.340601
C73	C	-0.000206	-0.473669	-0.095233
C74	C	0.499794	0.026331	0.404767
C75	C	-0.000181	-0.518603	-0.032133
C76	C	0.499819	-0.018603	0.467867
C77	C	-0.000166	-0.591425	-0.033207
C78	C	0.499834	-0.091425	0.466793
N79	N	-0.043078	-0.365695	-0.046188
N80	N	0.456922	0.134305	0.453812
N81	N	-0.043095	-0.296517	-0.045172
N82	N	0.456905	0.203483	0.454828
C83	C	-0.000252	-0.254260	-0.091994
C84	C	0.499748	0.245740	0.408006
N85	N	0.042599	-0.283795	-0.139881
N86	N	0.542599	0.216205	0.360119
N87	N	0.042612	-0.352979	-0.140899
N88	N	0.542612	0.147021	0.359101
C89	C	-0.000222	-0.394707	-0.094062
C90	C	0.499778	0.105293	0.405938
C91	C	-0.000280	-0.130372	-0.153928
C92	C	0.499720	0.369628	0.346072
C93	C	-0.000283	-0.057547	-0.152853
C94	C	0.499717	0.442453	0.347147
C95	C	-0.000270	-0.074586	-0.025586
C96	C	0.499730	0.425414	0.474414
C97	C	-0.000258	-0.147409	-0.026662
C98	C	0.499742	0.352591	0.473338
C99	C	-0.000267	-0.175298	-0.090835
C100	C	0.499733	0.324702	0.409165
C101	C	-0.000244	-0.818997	-0.220700
C102	C	0.499756	-0.318997	0.279300
C103	C	-0.000255	-0.820138	-0.298204
C104	C	0.499745	-0.320138	0.201796
C105	C	-0.000216	-0.891922	0.157062
C106	C	0.499784	-0.391922	0.657062
C107	C	-0.000228	-0.890850	0.229886
C108	C	0.499772	-0.390850	0.729886
C109	C	-0.000212	-0.826684	0.257782
C110	C	0.499788	-0.326684	0.757782
C111	C	-0.000205	-0.763585	0.212849
C112	C	0.499795	-0.263585	0.712849
C113	C	-0.000200	-0.764658	0.140026
C114	C	0.499800	-0.264658	0.640026
N115	N	0.042645	-0.777630	0.365789
N116	N	0.542645	-0.277630	0.865789
N117	N	0.042642	-0.776615	0.434968
N118	N	0.542642	-0.276615	0.934968
C119	C	-0.000227	-0.823446	0.477191
C120	C	0.499773	-0.323446	0.977191
N121	N	-0.043084	-0.871341	0.447624
N122	N	0.456916	-0.371341	0.947624
N123	N	-0.043079	-0.872359	0.378439
N124	N	0.456921	-0.372359	0.878439
C125	C	-0.000218	-0.825513	0.336745
C126	C	0.499782	-0.325513	0.836745
C127	C	-0.000253	-0.885379	0.601079
C128	C	0.499747	-0.385379	1.101079
C129	C	-0.000270	-0.884305	0.673904
C130	C	0.499730	-0.384305	1.173904
C131	C	-0.000239	-0.757038	0.656865
C132	C	0.499761	-0.257038	1.156865
C133	C	-0.000230	-0.758114	0.584042
C134	C	0.499770	-0.258114	1.084042
C135	C	-0.000233	-0.822287	0.556154
C136	C	0.499767	-0.322287	1.056154
H137	H	0.186275	-0.910869	-0.006681
H138	H	0.686275	-0.410869	0.493319
H139	H	0.330041	-0.910878	-0.006680
H140	H	0.830041	-0.410878	0.493320
H141	H	-0.000295	-0.020970	-0.204232
H142	H	0.499705	0.479030	0.295768
H143	H	-0.000194	-0.495885	0.020111
H144	H	0.499806	0.004115	0.520111
O145	O	-0.000286	-0.635039	0.028101
O146	O	0.499714	-0.135039	0.528101
C147	C	-0.065477	-0.622447	0.067079
C148	C	0.434523	-0.122447	0.567079
H149	H	-0.111058	-0.597466	0.030141
H150	H	0.388942	-0.097466	0.530141
H151	H	-0.087354	-0.674213	0.095234
H152	H	0.412646	-0.174213	0.595234
H153	H	-0.050737	-0.585482	0.107380
H154	H	0.449263	-0.085482	0.607380
O155	O	0.663195	-0.730716	-0.186897
O156	O	1.163195	-0.230716	0.313103
C157	C	0.617342	-0.767972	-0.229890
C158	C	1.117342	-0.267972	0.270110
H159	H	0.605446	-0.822688	-0.201943
H160	H	1.105446	-0.322688	0.298057
H161	H	0.561629	-0.738793	-0.241011
H162	H	1.061629	-0.238793	0.258989
H163	H	0.647870	-0.772562	-0.281480
H164	H	1.147870	-0.272562	0.218520
O165	O	-0.000323	-0.701237	0.239911
O166	O	0.499677	-0.201237	0.739911
C167	C	-0.065508	-0.662793	0.216908
C168	C	0.434492	-0.162793	0.716908
H169	H	-0.111088	-0.700328	0.201864
H170	H	0.388912	-0.200328	0.701864
H171	H	-0.087390	-0.633229	0.260931
H172	H	0.412610	-0.133229	0.760931
H173	H	-0.050758	-0.623737	0.169330
H174	H	0.449242	-0.123737	0.669330
O175	O	-0.000218	-0.703433	0.096284
O176	O	0.499782	-0.203433	0.596284
C177	C	-0.000194	-0.718141	0.026029
C178	C	0.499806	-0.218141	0.526029
H179	H	-0.024039	-0.772978	0.023398
H180	H	0.475961	-0.272978	0.523398
H181	H	-0.036733	-0.677918	-0.007099
H182	H	0.463267	-0.177918	0.492901
H183	H	0.060209	-0.715419	0.004976
H184	H	0.560209	-0.215419	0.504976
H185	H	-0.000259	-0.937632	0.578372
H186	H	0.499741	-0.437632	1.078372
H187	H	0.186322	-0.738051	-0.179371
H188	H	0.686322	-0.238051	0.320629
O189	O	0.336402	-0.730561	-0.186761
O190	O	0.836402	-0.230561	0.313239
C191	C	0.382263	-0.687601	-0.149475
C192	C	0.882263	-0.187601	0.350525
H193	H	0.394134	-0.715581	-0.094772
H194	H	0.894134	-0.215581	0.405228
H195	H	0.437988	-0.676472	-0.178647
H196	H	0.937988	-0.176472	0.321353
H197	H	0.351755	-0.636013	-0.144856
H198	H	0.851755	-0.136013	0.355144
H199	H	-0.000241	-0.942228	0.266470
H200	H	0.499759	-0.442228	0.766470
H201	H	-0.000246	-0.183988	0.024713
H202	H	0.499754	0.316012	0.524713
O203	O	-0.000249	-0.945659	0.717447
O204	O	0.499751	-0.445659	1.217447
C205	C	-0.000269	-1.002525	0.677212
C206	C	0.499731	-0.502525	1.177212
H207	H	0.023575	-0.984630	0.622810
H208	H	0.523575	-0.484630	1.122810
H209	H	0.036275	-1.046709	0.704219
H210	H	0.536275	-0.546709	1.204219
H211	H	-0.060669	-1.022220	0.672070
H212	H	0.439331	-0.522220	1.172070
H213	H	-0.000222	-0.944176	0.134360
H214	H	0.499778	-0.444176	0.634360
H215	H	-0.000230	-0.704792	0.679578
H216	H	0.499770	-0.204792	1.179578
H217	H	-0.000203	-0.597091	-0.212725
H218	H	0.499797	-0.097091	0.287275
O219	O	-0.000175	-0.696762	0.540498
O220	O	0.499825	-0.196762	1.040498
C221	C	-0.000182	-0.639896	0.580733
C222	C	0.499818	-0.139896	1.080733
H223	H	0.023643	-0.657781	0.635147
H224	H	0.523643	-0.157781	1.135147
H225	H	0.036382	-0.595698	0.553743
H226	H	0.536382	-0.095698	1.053743
H227	H	-0.060577	-0.620224	0.585844
H228	H	0.439423	-0.120224	1.085844
H229	H	0.669457	-0.910909	-0.006688
H230	H	1.169457	-0.410909	0.493312
O231	O	-0.000410	-0.157504	-0.216243
O232	O	0.499590	0.342496	0.283757
C233	C	-0.065595	-0.199166	-0.220672
C234	C	0.434405	0.300834	0.279328
H235	H	-0.111172	-0.182076	-0.184247
H236	H	0.388828	0.317924	0.315753
H237	H	-0.087481	-0.192472	-0.276966
H238	H	0.412519	0.307528	0.223034
H239	H	-0.050842	-0.256637	-0.204385
H240	H	0.449158	0.243363	0.295615
O241	O	0.819333	-0.918464	0.000815
O242	O	1.319333	-0.418464	0.500815
C243	C	0.767355	-0.960487	0.042830
C244	C	1.267355	-0.460487	0.542830
H245	H	0.710858	-0.961178	0.014206
H246	H	1.210858	-0.461178	0.514206
H247	H	0.790225	-1.016278	0.053611
H248	H	1.290225	-0.516278	0.553611
H249	H	0.758951	-0.937986	0.094647
H250	H	1.258951	-0.437986	0.594647
H251	H	-0.000217	-0.464982	-0.210776
H252	H	0.499783	0.035018	0.289224
O253	O	0.819580	-0.730596	-0.186774
O254	O	1.319580	-0.230596	0.313226
C255	C	0.865436	-0.687632	-0.149487
C256	C	1.365436	-0.187632	0.350513
H257	H	0.877308	-0.715610	-0.094784
H258	H	1.377308	-0.215610	0.405216
H259	H	0.921160	-0.676499	-0.178659
H260	H	1.421160	-0.176499	0.321341
H261	H	0.834922	-0.636047	-0.144869
H262	H	1.334922	-0.136047	0.355131
H263	H	-0.000319	-0.051874	0.026659
H264	H	0.499681	0.448126	0.526659
