data_functionalizedCrystal
_audit_creation_method	'MofGen! by Chris Wilmer'
_symmetry_space_group_name_H-M	'P1'
_symmetry_Int_Tables_number	1
_symmetry_cell_setting	triclinic
loop_
_symmetry_equiv_pos_as_xyz
  x,y,z
_cell_length_a	6.817900
_cell_length_b	26.454480
_cell_length_c	19.453114
_cell_angle_alpha	85.154884
_cell_angle_beta	78.290712
_cell_angle_gamma	104.562660
loop_
_atom_site_label
_atom_site_type_symbol
_atom_site_fract_x
_atom_site_fract_y
_atom_site_fract_z
V1	V	-4.011352	-0.072677	0.217853
O2	O	-3.994559	0.002934	0.214876
O3	O	-3.967398	-0.143569	0.215238
O4	O	-3.954212	-0.071804	0.313380
O5	O	-4.007836	-0.069328	0.116055
V6	V	-4.495536	-0.063604	0.205814
O7	O	-4.271159	-0.092579	0.244262
O8	O	-4.685925	-0.043702	0.179405
O9	O	-4.316283	0.007288	0.208429
O10	O	-4.629726	-0.139215	0.208791
O11	O	-4.616449	-0.066953	0.307612
O12	O	-4.329469	-0.064477	0.110287
C13	C	-3.813763	-0.160843	0.211511
C14	C	-3.859054	-0.218800	0.210009
C15	C	-3.796942	-0.069299	0.336700
C16	C	-3.831537	-0.069055	0.414786
C17	C	-4.133275	0.024560	0.212155
C18	C	-4.065988	0.083604	0.213700
C19	C	-4.062279	-0.248688	0.212762
C20	C	-4.104839	-0.303146	0.211358
C21	C	-3.944154	-0.327711	0.207187
C22	C	-3.740902	-0.297816	0.204438
C23	C	-3.698352	-0.243361	0.205849
N24	N	-3.853748	-0.406479	0.162303
N25	N	-3.894180	-0.458210	0.160962
C26	C	-4.072345	-0.491782	0.202937
N27	N	-4.208575	-0.471670	0.246297
N28	N	-4.168143	-0.419934	0.247636
C29	C	-3.990272	-0.386759	0.205657
C30	C	-4.321731	-0.580720	0.204169
C31	C	-4.364287	-0.635179	0.202770
C32	C	-4.000340	-0.629847	0.195842
C33	C	-3.957794	-0.575391	0.197249
C34	C	-4.118496	-0.550830	0.201409
V35	V	-4.216650	0.179669	0.209787
O36	O	-4.168749	0.256609	0.205095
O37	O	-4.204015	0.105822	0.211003
O38	O	-4.190182	0.177566	0.309174
O39	O	-4.182677	0.184368	0.106245
V40	V	-4.663545	0.203577	0.178458
O41	O	-4.476158	0.166697	0.227178
O42	O	-4.826275	0.229992	0.143586
O43	O	-4.466836	0.270759	0.185909
O44	O	-4.821552	0.130144	0.178592
O45	O	-4.807624	0.202384	0.277442
O46	O	-4.480668	0.199016	0.087739
C47	C	-4.150081	-0.066983	0.086964
C48	C	-4.094725	-0.067225	0.008877
C49	C	-4.289103	0.282924	0.196277
C50	C	-4.203598	0.340260	0.198600
C51	C	-4.048353	0.175119	0.338931
C52	C	-4.103165	0.175347	0.417030
C53	C	-4.029736	-0.071557	0.455004
C54	C	-4.062242	-0.071327	0.528374
C55	C	-3.896547	-0.068606	0.561526
C56	C	-3.698318	-0.066101	0.521298
C57	C	-3.665813	-0.066325	0.447928
N58	N	-3.838531	-0.096139	0.679881
N59	N	-3.869422	-0.095927	0.749580
C60	C	-3.994471	-0.067928	0.782585
N61	N	-4.087497	-0.040156	0.743260
N62	N	-4.056610	-0.040371	0.673555
C63	C	-3.931773	-0.068362	0.641083
C64	C	-4.227928	-0.070181	0.902359
C65	C	-4.260425	-0.069948	0.975730
C66	C	-3.896499	-0.064726	0.968654
C67	C	-3.864004	-0.064954	0.895283
C68	C	-4.029728	-0.067684	0.862141
C69	C	-4.306748	0.191409	0.071050
C70	C	-4.232463	0.190563	-0.006243
C71	C	-4.301666	0.178170	0.450321
C72	C	-4.353185	0.178392	0.523701
C73	C	-4.206205	0.175788	0.563790
C74	C	-4.007685	0.172966	0.530494
C75	C	-3.956164	0.172748	0.457114
C76	C	-4.037619	0.182290	-0.032161
C77	C	-3.967786	0.181500	-0.104786
C78	C	-4.092806	0.188979	-0.151491
C79	C	-4.287665	0.197254	-0.125569
C80	C	-4.357488	0.198048	-0.052946
H81	H	-4.193142	-0.228695	0.216154
H82	H	-4.248184	0.175966	0.623540
Cl83	Cl	-3.822942	0.169685	0.580903
Cl84	Cl	-4.619795	-0.672754	0.206236
H85	H	-3.935792	0.176200	0.005858
H86	H	-4.035866	0.188366	-0.210630
H87	H	-4.164684	-0.073778	0.428024
Cl88	Cl	-4.360345	-0.340727	0.214819
H89	H	-4.514841	0.180688	0.550800
H90	H	-4.421372	0.180290	0.417690
H91	H	-4.516153	0.204782	-0.031850
Cl92	Cl	-3.798334	-0.660725	0.190607
Cl93	Cl	-3.706611	0.169192	0.415273
Cl94	Cl	-4.444818	0.206651	-0.184292
Cl95	Cl	-3.538900	-0.328698	0.199198
Cl96	Cl	-3.722827	0.171091	-0.137356
Cl97	Cl	-3.442847	-0.205785	0.202386
H98	H	-4.223647	-0.073368	0.561126
H99	H	-3.792306	-0.551055	0.195003
Cl100	Cl	-4.523757	-0.549843	0.209415
H101	H	-3.563408	-0.063883	0.548295
H102	H	-3.504409	-0.064284	0.415182
H103	H	-4.421822	-0.071981	1.008474
Cl104	Cl	-4.436257	-0.073608	0.860690
Cl105	Cl	-3.614832	-0.061817	0.844723
Cl106	Cl	-3.688181	-0.061295	1.010322
