data_functionalizedCrystal
_audit_creation_method	'MofGen! by Chris Wilmer'
_symmetry_space_group_name_H-M	'P1'
_symmetry_Int_Tables_number	1
_symmetry_cell_setting	triclinic
loop_
_symmetry_equiv_pos_as_xyz
  x,y,z
_cell_length_a	9.616153
_cell_length_b	14.519709
_cell_length_c	14.519709
_cell_angle_alpha	96.319855
_cell_angle_beta	90.000970
_cell_angle_gamma	90.002330
loop_
_atom_site_label
_atom_site_type_symbol
_atom_site_fract_x
_atom_site_fract_y
_atom_site_fract_z
O1	O	0.115468	-1.223867	0.120885
O2	O	0.615468	-0.723867	0.620885
O3	O	0.115510	-0.955390	0.135122
O4	O	0.615510	-0.455390	0.635122
O5	O	0.115475	-1.096746	-0.006235
O6	O	0.615475	-0.596746	0.493765
O7	O	0.115503	-1.082510	0.262242
O8	O	0.615503	-0.582510	0.762242
O9	O	-0.115816	-1.096736	-0.006227
O10	O	0.384184	-0.596736	0.493773
O11	O	-0.115781	-0.955379	0.135130
O12	O	0.384219	-0.455379	0.635130
O13	O	-0.115824	-1.223856	0.120893
O14	O	0.384176	-0.723856	0.620893
Zn15	Zn	-0.152525	-1.089616	0.128013
Zn16	Zn	0.347475	-0.589616	0.628013
Zn17	Zn	0.152212	-1.089630	0.128002
Zn18	Zn	0.652212	-0.589630	0.628002
O19	O	-0.115789	-1.082499	0.262250
O20	O	0.384211	-0.582499	0.762250
C21	C	-0.000130	-0.921025	0.134462
C22	C	0.499870	-0.421025	0.634462
C23	C	-0.000114	-0.818643	0.132474
C24	C	0.499886	-0.318643	0.632474
C25	C	-0.000170	-1.096078	-0.040591
C26	C	0.499830	-0.596078	0.459409
C27	C	-0.000171	-1.094090	-0.142972
C28	C	0.499829	-0.594090	0.357028
N29	N	-0.360499	-1.089614	0.128019
N30	N	0.139501	-0.589614	0.628019
C31	C	-0.419522	-1.013964	0.203624
C32	C	0.080478	-0.513964	0.703624
C33	C	-0.580690	-1.013710	0.203410
C34	C	-0.080690	-0.513710	0.703410
C35	C	-0.581290	-1.068857	0.031613
C36	C	-0.081290	-0.568857	0.531613
C37	C	-0.420072	-1.068299	0.032074
C38	C	0.079928	-0.568299	0.532074
C39	C	-0.419898	-1.186279	0.147918
C40	C	0.080102	-0.686279	0.647918
C41	C	-0.581127	-1.185649	0.150085
C42	C	-0.081127	-0.685649	0.650085
N43	N	0.360186	-1.089640	0.127988
N44	N	0.860186	-0.589640	0.627988
C45	C	-0.000180	-1.258221	0.121553
C46	C	0.499820	-0.758221	0.621553
C47	C	-0.000187	-1.360602	0.123541
C48	C	0.499813	-0.860602	0.623541
C49	C	-0.000178	-0.443748	0.125154
C50	C	0.499822	0.056252	0.625154
C51	C	-0.000160	-0.548056	0.127187
C52	C	0.499840	-0.048056	0.627187
C53	C	-0.000145	-0.631192	0.128814
C54	C	0.499855	-0.131192	0.628814
C55	C	-0.000129	-0.735507	0.130847
C56	C	0.499871	-0.235507	0.630847
C57	C	-0.000134	-1.086770	-0.517868
C58	C	0.499866	-0.586770	-0.017868
C59	C	-0.000144	-1.088803	-0.413560
C60	C	0.499856	-0.588803	0.086440
C61	C	-0.000154	-1.090430	-0.330423
C62	C	0.499846	-0.590430	0.169577
C63	C	-0.000162	-1.092463	-0.226109
C64	C	0.499838	-0.592463	0.273891
C65	C	-0.000140	-1.083168	0.296606
C66	C	0.499860	-0.583168	0.796606
C67	C	-0.000130	-1.085156	0.398987
C68	C	0.499870	-0.585156	0.898987
H69	H	-0.620261	-1.026054	0.275032
H70	H	-0.120261	-0.526054	0.775032
Br71	Br	-0.648606	-0.952730	0.001812
Br72	Br	-0.148606	-0.452730	0.501812
H73	H	-0.379027	-0.942630	0.191034
H74	H	0.120973	-0.442630	0.691034
Br75	Br	-0.357416	-0.950811	0.002988
Br76	Br	0.142584	-0.450811	0.502988
Br77	Br	-0.645013	-0.894157	0.182113
Br78	Br	-0.145013	-0.394157	0.682113
Br79	Br	-0.645107	-1.158281	-0.064474
Br80	Br	-0.145107	-0.658281	0.435526
H81	H	-0.381025	-1.121315	-0.025905
H82	H	0.118975	-0.621315	0.474095
H83	H	-0.379247	-1.206295	0.216732
H84	H	0.120753	-0.706295	0.716732
Br85	Br	-0.354920	-1.034174	0.323417
Br86	Br	0.145080	-0.534174	0.823417
Br87	Br	-0.648204	-1.283869	0.064311
Br88	Br	-0.148204	-0.783869	0.564311
Br89	Br	-0.644870	-1.211944	0.268260
Br90	Br	-0.144870	-0.711944	0.768260
H91	H	-0.381718	-1.242573	0.092792
H92	H	0.118282	-0.742573	0.592792
