data_functionalizedCrystal
_audit_creation_method	'MofGen! by Chris Wilmer'
_symmetry_space_group_name_H-M	'P1'
_symmetry_Int_Tables_number	1
_symmetry_cell_setting	triclinic
loop_
_symmetry_equiv_pos_as_xyz
  x,y,z
_cell_length_a	19.077115
_cell_length_b	19.076808
_cell_length_c	19.076919
_cell_angle_alpha	89.878360
_cell_angle_beta	90.076897
_cell_angle_gamma	89.927626
loop_
_atom_site_label
_atom_site_type_symbol
_atom_site_fract_x
_atom_site_fract_y
_atom_site_fract_z
Zn1	Zn	1.045198	-0.339419	-0.426227
Zn2	Zn	1.378532	-0.006086	-0.092893
Zn3	Zn	1.711865	0.327247	0.240440
Zn4	Zn	1.045494	-0.452226	-0.304008
Zn5	Zn	1.378827	-0.118893	0.029326
Zn6	Zn	1.712160	0.214440	0.362659
Zn7	Zn	0.932778	-0.330021	-0.304414
Zn8	Zn	1.266111	0.003313	0.028919
Zn9	Zn	1.599445	0.336646	0.362253
Zn10	Zn	0.923332	-0.451803	-0.416779
Zn11	Zn	1.256665	-0.118470	-0.083446
Zn12	Zn	1.589998	0.214864	0.249887
O13	O	0.986700	-0.393367	-0.362857
O14	O	1.320034	-0.060034	-0.029524
O15	O	1.653367	0.273299	0.303810
O16	O	1.143411	-0.358494	-0.413798
O17	O	1.476744	-0.025160	-0.080464
O18	O	1.810078	0.308173	0.252869
O19	O	1.034619	-0.432259	-0.205887
O20	O	1.367952	-0.098926	0.127446
O21	O	1.701285	0.234408	0.460780
O22	O	0.951520	-0.233091	-0.324697
O23	O	1.284854	0.100243	0.008637
O24	O	1.618187	0.433576	0.341970
O25	O	1.143628	-0.441373	-0.324004
O26	O	1.476961	-0.108039	0.009329
O27	O	1.810295	0.225294	0.342663
O28	O	1.034115	-0.239996	-0.414192
O29	O	1.367448	0.093337	-0.080859
O30	O	1.700782	0.426671	0.252475
O31	O	0.951807	-0.342475	-0.206186
O32	O	1.285140	-0.009142	0.127148
O33	O	1.618474	0.324192	0.460481
O34	O	0.833352	-0.342065	-0.315536
O35	O	1.166685	-0.008732	0.017797
O36	O	1.500018	0.324602	0.351131
O37	O	0.935421	-0.440651	-0.516207
O38	O	1.268754	-0.107318	-0.182874
O39	O	1.602087	0.226015	0.150460
O40	O	0.826411	-0.431538	-0.398090
O41	O	1.159745	-0.098205	-0.064757
O42	O	1.493078	0.235129	0.268577
O43	O	1.024955	-0.358083	-0.523148
O44	O	1.358289	-0.024750	-0.189815
O45	O	1.691622	0.308583	0.143519
O46	O	1.025459	-0.550347	-0.314843
O47	O	1.358792	-0.217013	0.018490
O48	O	1.692126	0.116320	0.351824
O49	O	0.935707	-0.550036	-0.397696
O50	O	1.269041	-0.216703	-0.064363
O51	O	1.602374	0.116631	0.268971
C52	C	0.804426	-0.385736	-0.355832
C53	C	1.137760	-0.052403	-0.022499
C54	C	1.471093	0.280930	0.310834
C55	C	0.726447	-0.382489	-0.352843
C56	C	1.059780	-0.049156	-0.019510
C57	C	1.393114	0.284178	0.313824
C58	C	0.287895	-0.359170	-0.331412
C59	C	0.621228	-0.025837	0.001921
C60	C	0.954561	0.307497	0.335255
C61	C	0.361164	-0.362225	-0.334224
C62	C	0.694497	-0.028892	-0.000891
C63	C	1.027831	0.304441	0.332442
C64	C	0.394201	-0.410408	-0.378536
C65	C	0.727535	-0.077074	-0.045203
C66	C	1.060868	0.256259	0.288131
C67	C	0.353966	-0.455533	-0.420043
C68	C	0.687299	-0.122200	-0.086710
C69	C	1.020632	0.211134	0.246623
C70	C	0.280698	-0.452474	-0.417234
C71	C	0.614031	-0.119141	-0.083901
C72	C	0.947364	0.214193	0.249432
C73	C	0.612943	-0.424556	-0.391542
C74	C	0.946277	-0.091222	-0.058208
C75	C	1.279610	0.242111	0.275125
C76	C	0.686217	-0.427613	-0.394346
C77	C	1.019550	-0.094279	-0.061013
C78	C	1.352883	0.239054	0.272321
C79	C	0.693410	-0.334303	-0.308527
C80	C	1.026743	-0.000970	0.024806
C81	C	1.360077	0.332363	0.358139
C82	C	0.620140	-0.331252	-0.305719
C83	C	0.953474	0.002082	0.027614
C84	C	1.286807	0.335415	0.360948
C85	C	0.579911	-0.376375	-0.347229
C86	C	0.913244	-0.043041	-0.013896
C87	C	1.246577	0.290292	0.319438
N88	N	0.469094	-0.413533	-0.381410
N89	N	0.802428	-0.080200	-0.048077
N90	N	1.135761	0.253134	0.285257
N91	N	0.505019	-0.373245	-0.344358
N92	N	0.838353	-0.039912	-0.011025
N93	N	1.171686	0.293421	0.322308
C94	C	0.979609	-0.575649	-0.355216
C95	C	1.312942	-0.242315	-0.021883
C96	C	1.646275	0.091018	0.311450
C97	C	0.976638	-0.653633	-0.351974
C98	C	1.309971	-0.320300	-0.018640
C99	C	1.643305	0.013034	0.314693
C100	C	1.018210	-0.693805	-0.397080
C101	C	1.351543	-0.360472	-0.063747
C102	C	1.684876	-0.027138	0.269586
C103	C	1.015415	-0.767079	-0.394035
C104	C	1.348749	-0.433746	-0.060701
C105	C	1.682082	-0.100413	0.272632
C106	C	0.971053	-0.800181	-0.345878
C107	C	1.304386	-0.466847	-0.012545
C108	C	1.637719	-0.133514	0.320789
C109	C	0.929476	-0.760004	-0.300769
C110	C	1.262810	-0.426670	0.032564
C111	C	1.596143	-0.093337	0.365898
C112	C	0.932267	-0.686730	-0.303819
C113	C	1.265601	-0.353397	0.029515
C114	C	1.598934	-0.020064	0.362848
C115	C	0.958095	-1.018945	-0.331760
C116	C	1.291428	-0.685611	0.001574
C117	C	1.624761	-0.352278	0.334907
C118	C	0.955308	-1.092223	-0.328712
C119	C	1.288642	-0.758890	0.004621
C120	C	1.621975	-0.425557	0.337955
C121	C	1.041247	-1.099294	-0.421979
C122	C	1.374580	-0.765961	-0.088646
C123	C	1.707914	-0.432628	0.244688
C124	C	1.044037	-1.026019	-0.425021
C125	C	1.377371	-0.692686	-0.091688
C126	C	1.710704	-0.359353	0.241645
C127	C	1.002458	-0.985849	-0.379915
C128	C	1.335791	-0.652515	-0.046582
C129	C	1.669125	-0.319182	0.286751
N130	N	0.968197	-0.875079	-0.342762
N131	N	1.301530	-0.541746	-0.009429
N132	N	1.634864	-0.208412	0.323905
N133	N	1.005310	-0.910952	-0.383035
N134	N	1.338644	-0.577618	-0.049702
N135	N	1.671977	-0.244285	0.283632
C136	C	1.169686	-0.401029	-0.369909
C137	C	1.503020	-0.067695	-0.036576
C138	C	1.836353	0.265638	0.296757
C139	C	1.247664	-0.404294	-0.372915
C140	C	1.580997	-0.070960	-0.039581
C141	C	1.914331	0.262373	0.293752
C142	C	0.979101	-0.400369	-0.545845
C143	C	1.312435	-0.067035	-0.212511
C144	C	1.645768	0.266298	0.120822
C145	C	0.975863	-0.403352	-0.623823
C146	C	1.309196	-0.070019	-0.290490
C147	C	1.642530	0.263314	0.042843
C148	C	0.993838	-0.210375	-0.370543
C149	C	1.327172	0.122958	-0.037210
C150	C	1.660505	0.456291	0.296123
C151	C	0.996880	-0.132395	-0.373819
C152	C	1.330214	0.200938	-0.040486
C153	C	1.663547	0.534271	0.292848
C154	C	1.020955	-0.361767	-0.664072
C155	C	1.354289	-0.028434	-0.330739
C156	C	1.687622	0.304900	0.002594
C157	C	1.017904	-0.364567	-0.737341
C158	C	1.351237	-0.031234	-0.404008
C159	C	1.684571	0.302099	-0.070675
C160	C	0.969764	-0.408957	-0.770360
C161	C	1.303097	-0.075624	-0.437026
C162	C	1.636430	0.257710	-0.103693
C163	C	0.924667	-0.450544	-0.730105
C164	C	1.258000	-0.117210	-0.396772
C165	C	1.591333	0.216123	-0.063438
C166	C	0.927715	-0.447739	-0.656837
C167	C	1.261048	-0.114406	-0.323504
C168	C	1.594382	0.218927	0.009829
C169	C	0.955645	-0.421951	-0.989098
C170	C	1.288979	-0.088618	-0.655765
C171	C	1.622312	0.244716	-0.322431
C172	C	0.952602	-0.424754	-1.062371
C173	C	1.285935	-0.091420	-0.729038
C174	C	1.619269	0.241913	-0.395704
C175	C	1.045839	-0.338776	-1.069602
C176	C	1.379172	-0.005443	-0.736269
C177	C	1.712506	0.327891	-0.402936
C178	C	1.048886	-0.335979	-0.996333
C179	C	1.382219	-0.002645	-0.663000
C180	C	1.715552	0.330688	-0.329666
C181	C	1.003786	-0.377563	-0.956085
C182	C	1.337120	-0.044229	-0.622751
C183	C	1.670453	0.289104	-0.289418
N184	N	0.966645	-0.411822	-0.845252
N185	N	1.299979	-0.078489	-0.511919
N186	N	1.633312	0.254844	-0.178585
N187	N	1.006902	-0.374693	-0.881194
N188	N	1.340235	-0.041360	-0.547860
N189	N	1.673568	0.291973	-0.214527
C190	C	0.994312	-0.386344	-0.180585
C191	C	1.327646	-0.053011	0.152749
C192	C	1.660979	0.280322	0.486082
C193	C	0.997694	-0.383169	-0.102620
C194	C	1.331027	-0.049835	0.230713
C195	C	1.664361	0.283498	0.564047
H196	H	0.380871	-0.494761	-0.456126
H197	H	0.714204	-0.161428	-0.122793
H198	H	1.047537	0.171905	0.210541
Cl199	Cl	0.230122	-0.509200	-0.469415
Cl200	Cl	0.563455	-0.175867	-0.136081
Cl201	Cl	0.896789	0.157466	0.197252
H202	H	0.924241	-0.986243	-0.295031
H203	H	1.257574	-0.652910	0.038302
H204	H	1.590907	-0.319577	0.371636
Cl205	Cl	0.892074	-0.480558	-1.103878
Cl206	Cl	1.225407	-0.147225	-0.770545
Cl207	Cl	1.558741	0.186109	-0.437212
H208	H	0.918932	-0.455822	-0.956336
H209	H	1.252265	-0.122489	-0.623003
H210	H	1.585599	0.210844	-0.289670
Cl211	Cl	1.093511	-1.149798	-0.478683
Cl212	Cl	1.426845	-0.816465	-0.145350
Cl213	Cl	1.760178	-0.483132	0.187983
H214	H	0.593246	-0.292021	-0.269630
H215	H	0.926580	0.041312	0.063703
H216	H	1.259913	0.374645	0.397036
H217	H	0.726172	-0.297566	-0.274733
H218	H	1.059506	0.035767	0.058600
H219	H	1.392839	0.369100	0.391934
Cl220	Cl	0.864144	-0.506346	-0.771614
Cl221	Cl	1.197478	-0.173012	-0.438280
Cl222	Cl	1.530811	0.160321	-0.104947
Cl223	Cl	0.411736	-0.305491	-0.282052
Cl224	Cl	0.745070	0.027843	0.051281
Cl225	Cl	1.078403	0.361176	0.384615
H226	H	1.080161	-0.999070	-0.464234
H227	H	1.413494	-0.665737	-0.130901
H228	H	1.746828	-0.332403	0.202432
H229	H	1.054338	-0.666859	-0.436292
H230	H	1.387671	-0.333526	-0.102958
H231	H	1.721004	-0.000192	0.230375
Cl232	Cl	0.871023	-0.500018	-0.606238
Cl233	Cl	1.204356	-0.166684	-0.272905
Cl234	Cl	1.537690	0.166649	0.060429
Cl235	Cl	0.873698	-0.801617	-0.240236
Cl236	Cl	1.207031	-0.468283	0.093098
Cl237	Cl	1.540365	-0.134950	0.426431
H238	H	0.580197	-0.461300	-0.425339
H239	H	0.913531	-0.127967	-0.092006
H240	H	1.246864	0.205366	0.241327
Cl241	Cl	1.074624	-0.312319	-0.787937
Cl242	Cl	1.407958	0.021015	-0.454604
Cl243	Cl	1.741291	0.354348	-0.121271
Cl244	Cl	1.081481	-0.305964	-0.622571
Cl245	Cl	1.414815	0.027370	-0.289238
Cl246	Cl	1.748148	0.360703	0.044095
H247	H	0.919180	-1.119172	-0.289496
H248	H	1.252513	-0.785839	0.043837
H249	H	1.585846	-0.452505	0.377170
Cl250	Cl	0.246369	-0.298599	-0.275698
Cl251	Cl	0.579702	0.034735	0.057635
Cl252	Cl	0.913036	0.368068	0.390968
Cl253	Cl	1.109408	-0.280173	-0.954830
Cl254	Cl	1.442741	0.053161	-0.621497
Cl255	Cl	1.776075	0.386494	-0.288163
Cl256	Cl	0.727749	-0.488190	-0.450056
Cl257	Cl	1.061082	-0.154856	-0.116723
Cl258	Cl	1.394415	0.178477	0.216611
Cl259	Cl	1.102529	-0.286500	-1.120204
Cl260	Cl	1.435862	0.046833	-0.786870
Cl261	Cl	1.769196	0.380167	-0.453537
H262	H	1.049273	-0.799784	-0.430760
H263	H	1.382607	-0.466451	-0.097427
H264	H	1.715940	-0.133118	0.235906
Cl265	Cl	0.880002	-0.636228	-0.247111
Cl266	Cl	1.213335	-0.302895	0.086222
Cl267	Cl	1.546669	0.030438	0.419555
