data_functionalizedCrystal
_audit_creation_method	'MofGen! by Chris Wilmer'
_symmetry_space_group_name_H-M	'P1'
_symmetry_Int_Tables_number	1
_symmetry_cell_setting	triclinic
loop_
_symmetry_equiv_pos_as_xyz
  x,y,z
_cell_length_a	23.532355
_cell_length_b	22.010155
_cell_length_c	14.519709
_cell_angle_alpha	89.996686
_cell_angle_beta	83.253822
_cell_angle_gamma	90.002586
loop_
_atom_site_label
_atom_site_type_symbol
_atom_site_fract_x
_atom_site_fract_y
_atom_site_fract_z
O1	O	0.755787	0.050444	0.111708
O2	O	0.589993	0.050463	0.127957
O3	O	0.677286	0.050448	-0.014459
O4	O	0.668494	0.050460	0.254124
O5	O	0.677270	-0.050603	-0.014438
O6	O	0.589977	-0.050587	0.127978
O7	O	0.755771	-0.050607	0.111730
Cu8	Cu	0.672872	-0.059823	0.119856
Cu9	Cu	0.672891	0.059680	0.119831
O10	O	0.668478	-0.050591	0.254146
C11	C	0.568766	-0.000059	0.127561
C12	C	0.505542	-0.000052	0.126340
C13	C	0.113485	-0.055160	0.118679
C14	C	0.054080	-0.055163	0.117518
O15	O	0.023352	-0.102008	0.116895
N16	N	0.024378	-0.000081	0.116930
C17	C	0.054084	0.055008	0.117495
O18	O	0.023365	0.101859	0.116887
C19	C	0.113488	0.055010	0.118650
C20	C	0.143187	-0.000076	0.119247
C21	C	0.143184	-0.110242	0.119275
C22	C	0.202584	-0.110239	0.120439
C23	C	0.232286	-0.055155	0.121006
C24	C	0.202587	-0.000074	0.120410
C25	C	0.143194	0.110097	0.119208
C26	C	0.202602	0.110094	0.120362
C27	C	0.232300	0.055008	0.120959
C28	C	0.291689	0.055013	0.122141
N29	N	0.321392	-0.000069	0.122729
C30	C	0.291690	-0.055153	0.122161
C31	C	-0.070668	0.055000	0.115067
C32	C	-0.130072	0.054999	0.113919
C33	C	-0.130071	-0.055172	0.113940
C34	C	-0.070667	-0.055170	0.115095
C35	C	-0.040966	-0.000082	0.115655
C36	C	0.416435	-0.055144	0.124605
C37	C	0.475840	-0.055136	0.125773
C38	C	0.475835	0.055034	0.125746
C39	C	0.416435	0.055027	0.124584
C40	C	0.386736	-0.000067	0.124010
O41	O	0.322456	0.101834	0.122760
O42	O	0.322417	-0.101997	0.122757
N43	N	0.672863	-0.143876	0.119873
C44	C	0.711547	-0.563662	0.056778
C45	C	0.711549	-0.627270	0.056771
O46	O	0.744417	-0.660167	0.003138
N47	N	0.672891	-0.659083	0.119811
C48	C	0.634223	-0.627285	0.182855
O49	O	0.601341	-0.660186	0.236475
C50	C	0.634218	-0.563679	0.182857
C51	C	0.672883	-0.531869	0.119819
C52	C	0.750208	-0.531852	-0.006256
C53	C	0.750206	-0.468249	-0.006248
C54	C	0.711543	-0.436456	0.056793
C55	C	0.672881	-0.468266	0.119827
C56	C	0.595548	-0.531882	0.245896
C57	C	0.595547	-0.468271	0.245891
C58	C	0.634212	-0.436462	0.182853
C59	C	0.634216	-0.372869	0.182875
N60	N	0.672874	-0.341056	0.119836
C61	C	0.711538	-0.372849	0.056794
C62	C	0.634236	-0.760863	0.182847
C63	C	0.634243	-0.824468	0.182851
C64	C	0.711569	-0.824449	0.056765
C65	C	0.711564	-0.760842	0.056767
C66	C	0.672894	-0.729050	0.119807
C67	C	0.711531	-0.239278	0.056816
C68	C	0.711527	-0.175669	0.056832
C69	C	0.634200	-0.175695	0.182914
C70	C	0.634205	-0.239298	0.182901
C71	C	0.672873	-0.271088	0.119845
O72	O	0.601364	-0.339932	0.236479
O73	O	0.744410	-0.339941	0.003176
C74	C	0.776997	-0.000082	0.112125
C75	C	0.840222	-0.000086	0.113346
C76	C	0.676868	-0.000078	-0.048803
C77	C	0.675640	-0.000078	-0.151170
N78	N	0.672905	0.143733	0.119806
C79	C	0.671120	-0.000062	-0.526011
C80	C	0.672375	-0.000066	-0.421718
C81	C	0.673380	-0.000070	-0.338593
C82	C	0.674635	-0.000074	-0.234294
C83	C	0.668896	-0.000064	0.288490
C84	C	0.670124	-0.000060	0.390856
H85	H	0.392261	-0.100006	0.124147
N86	N	0.594743	-0.856957	0.247236
N87	N	0.559363	-0.892446	0.218274
H88	H	0.531461	-0.915389	0.263745
N89	N	-0.160407	-0.111448	0.113363
N90	N	-0.158963	-0.148330	0.178513
H91	H	-0.180387	-0.188073	0.178107
N92	N	0.232908	-0.166514	0.121034
N93	N	0.206373	-0.215688	0.120516
H94	H	0.227786	-0.255436	0.120929
H95	H	0.781693	-0.557733	-0.057595
H96	H	-0.046491	-0.100026	0.115582
H97	H	0.743048	-0.734946	0.005435
H98	H	0.602726	-0.265198	0.234241
H99	H	0.743015	-0.149772	0.005499
N100	N	0.506186	-0.111402	0.126369
N101	N	0.559224	-0.111398	0.127404
H102	H	0.580655	-0.151134	0.127823
N103	N	0.112860	-0.166519	0.118690
N104	N	0.139395	-0.215690	0.119219
H105	H	0.117982	-0.255440	0.118811
N106	N	0.751048	-0.856941	-0.007644
N107	N	0.751033	-0.913732	-0.007645
H108	H	0.778909	-0.936682	-0.053138
H109	H	0.602748	-0.734981	0.234190
H110	H	0.564064	-0.557773	0.297226
N111	N	0.594714	-0.143202	0.247304
N112	N	0.594721	-0.086411	0.247290
H113	H	0.566832	-0.063461	0.292762
N114	N	-0.040332	0.111274	0.115666
N115	N	-0.012373	0.123573	0.181325
H116	H	0.009051	0.163316	0.181747
H117	H	-0.154249	0.099855	0.113447
H118	H	0.119023	0.154954	0.118721
H119	H	0.564056	-0.442389	0.297225
N120	N	0.232932	0.166373	0.120926
N121	N	0.206403	0.215547	0.120390
H122	H	0.227822	0.255294	0.120789
H123	H	0.392251	0.099883	0.124113
N124	N	0.506189	0.111293	0.126340
N125	N	0.559227	0.111281	0.127380
H126	H	0.580666	0.151014	0.127797
H127	H	0.743017	-0.265155	0.005469
N128	N	0.789747	-0.435771	-0.070581
N129	N	0.824288	-0.464176	-0.126814
H130	H	0.852231	-0.441242	-0.172230
