data_functionalizedCrystal
_audit_creation_method	'MofGen! by Chris Wilmer'
_symmetry_space_group_name_H-M	'P1'
_symmetry_Int_Tables_number	1
_symmetry_cell_setting	triclinic
loop_
_symmetry_equiv_pos_as_xyz
  x,y,z
_cell_length_a	23.096457
_cell_length_b	23.096457
_cell_length_c	12.970454
_cell_angle_alpha	60.001708
_cell_angle_beta	89.998137
_cell_angle_gamma	60.000185
loop_
_atom_site_label
_atom_site_type_symbol
_atom_site_fract_x
_atom_site_fract_y
_atom_site_fract_z
Zr1	Zr	0.557781	0.633738	-0.135288
O2	O	0.465336	0.754522	-0.299897
O3	O	0.586118	0.512953	-0.084833
O4	O	0.586122	0.633738	-0.299914
O5	O	0.465332	0.633737	0.084851
O6	O	0.681403	0.633740	-0.299920
O7	O	0.465333	0.633737	-0.084816
O8	O	0.681396	0.417677	0.084820
O9	O	0.465339	0.849800	-0.299889
O10	O	0.669313	0.562635	-0.063311
O11	O	0.598206	0.562635	0.063313
O12	O	0.598211	0.704844	-0.189916
O13	O	0.527103	0.704843	-0.063291
Zr14	Zr	0.709741	0.633742	0.135301
Zr15	Zr	0.709742	0.633741	-0.135298
Zr16	Zr	0.557780	0.633739	0.135311
Zr17	Zr	0.557785	0.785696	-0.135277
Zr18	Zr	0.709738	0.481784	0.135289
O19	O	0.681404	0.754527	0.084846
O20	O	0.681406	0.754526	-0.299911
O21	O	0.465335	0.754523	0.084860
O22	O	0.802186	0.512958	0.299909
O23	O	0.802188	0.512957	-0.084847
O24	O	0.586117	0.512954	0.299923
O25	O	0.802191	0.633742	-0.084838
O26	O	0.681400	0.633742	0.299926
O27	O	0.586120	0.633740	0.299932
O28	O	0.802190	0.633743	0.084829
O29	O	0.586128	0.849802	-0.299897
O30	O	0.681395	0.417678	0.299910
O31	O	0.802184	0.417680	0.299902
O32	O	0.802185	0.417679	0.084812
O33	O	0.465338	0.849801	-0.084800
O34	O	0.586127	0.849803	-0.084808
O35	O	0.669312	0.562636	0.189929
O36	O	0.740419	0.562637	0.063304
O37	O	0.669317	0.704845	-0.063301
O38	O	0.598210	0.704844	0.063324
C39	C	0.633757	0.443664	-0.000008
C40	C	0.633755	0.379154	-0.000013
C41	C	0.670867	0.348854	-0.066114
C42	C	0.670874	0.288232	-0.066104
C43	C	0.633755	0.257924	-0.000009
C44	C	0.596641	0.288228	0.066107
C45	C	0.596641	0.348844	0.066105
N46	N	0.573351	0.195527	-0.009170
N47	N	0.573352	0.137946	-0.009175
C48	C	0.633754	0.075292	0.000002
N49	N	0.694154	0.072401	0.009161
N50	N	0.694151	0.129989	0.009159
C51	C	0.633751	0.192196	0.000001
C52	C	0.670877	-0.020743	-0.066091
C53	C	0.670886	-0.081370	-0.066072
C54	C	0.596646	-0.081366	0.066131
C55	C	0.596644	-0.020746	0.066120
C56	C	0.633758	0.009564	0.000002
C57	C	0.443681	0.633737	0.000019
C58	C	0.379170	0.633736	0.000023
C59	C	0.385979	0.559507	0.066097
C60	C	0.325363	0.559505	0.066103
C61	C	0.257939	0.633737	0.000009
C62	C	0.251132	0.707976	-0.066068
C63	C	0.311748	0.707975	-0.066061
N64	N	0.135145	0.688992	-0.107560
N65	N	0.077566	0.688988	-0.107564
C66	C	0.075306	0.633745	-0.000013
N67	N	0.132808	0.578493	0.107540
N68	N	0.190394	0.578495	0.107542
C69	C	0.192208	0.633747	-0.000005
C70	C	0.016392	0.559509	0.066073
C71	C	-0.044226	0.559511	0.066082
C72	C	-0.118457	0.707984	-0.066101
C73	C	-0.057839	0.707980	-0.066098
C74	C	0.009583	0.633741	-0.000014
C75	C	0.823842	0.633743	-0.000006
C76	C	0.888353	0.633744	-0.000010
C77	C	0.633763	0.633739	-0.338471
C78	C	0.633763	0.633738	-0.453347
C79	C	0.633766	0.823815	0.000021
C80	C	0.633768	0.888325	0.000025
C81	C	0.633760	0.633741	0.338484
C82	C	0.633760	0.633741	0.453360
C83	C	0.823837	0.443668	-0.000020
C84	C	0.888347	0.379159	-0.000029
C85	C	0.633755	0.443665	0.338470
C86	C	0.633753	0.379156	0.453341
C87	C	0.823835	0.443669	0.338457
C88	C	0.888345	0.379160	0.453324
C89	C	0.443687	0.823811	-0.338445
C90	C	0.379178	0.888320	-0.453312
C91	C	0.443686	0.823812	0.000033
C92	C	0.379176	0.888321	0.000042
C93	C	0.633767	0.823814	-0.338457
C94	C	0.633770	0.888324	-0.453328
C95	C	0.881525	0.348864	-0.066137
C96	C	0.942133	0.288259	-0.066171
C97	C	1.009562	0.257947	-0.000089
C98	C	1.016383	0.288248	0.066021
C99	C	0.955776	0.348855	0.066046
C100	C	0.670869	0.348862	0.573389
C101	C	0.670864	0.288257	0.681333
C102	C	0.633748	0.257943	0.669226
C103	C	0.596627	0.288242	0.549166
C104	C	0.596628	0.348850	0.441224
C105	C	0.955763	0.348867	0.441170
C106	C	1.016382	0.288263	0.549090
C107	C	1.009582	0.257949	0.669162
C108	C	0.942157	0.288248	0.681314
C109	C	0.881539	0.348855	0.573395
C110	C	0.311760	0.918620	-0.441158
C111	C	0.251141	0.979243	-0.549077
C112	C	0.257941	1.009560	-0.669149
C113	C	0.325366	0.979257	-0.681301
C114	C	0.385983	0.918639	-0.573383
C115	C	0.385998	0.918622	0.066138
C116	C	0.325390	0.979243	0.066142
C117	C	0.257960	1.009558	0.000057
C118	C	0.251140	0.979254	-0.066048
C119	C	0.311747	0.918638	-0.066058
C120	C	0.670893	0.918619	-0.441181
C121	C	0.670909	0.979225	-0.549104
C122	C	0.633797	1.009538	-0.669174
C123	C	0.596672	0.979237	-0.681319
C124	C	0.596660	0.918628	-0.573396
H125	H	0.566423	-0.106043	0.119947
N126	N	0.304780	0.783810	-0.133583
N127	N	0.273158	0.833514	-0.250116
H128	H	0.268237	0.887075	-0.297809
N129	N	-0.187322	0.783812	-0.133636
N130	N	-0.205399	0.833514	-0.250170
H131	H	-0.254038	0.887071	-0.297868
H132	H	0.196231	0.768416	-0.119881
H133	H	0.330958	1.003906	0.119977
H134	H	0.566456	1.003927	-0.779094
N135	N	0.935230	0.257267	0.803978
N136	N	0.989364	0.203148	0.900312
H137	H	0.984474	0.181260	0.986948
N138	N	0.182253	1.010225	-0.133520
N139	N	0.140158	1.003456	-0.075952
H140	H	0.091504	1.025328	-0.123596
N141	N	0.633756	0.196020	0.779480
N142	N	0.600622	0.168949	0.768666
H143	H	0.600632	0.125212	0.846536
N144	N	1.071460	0.195969	-0.000012
N145	N	1.065351	0.168883	-0.058961
H146	H	1.109064	0.125083	-0.058862
N147	N	0.708809	-0.112322	-0.133590
N148	N	0.741943	-0.085251	-0.192610
H149	H	0.768728	-0.107111	-0.240296
H150	H	0.196246	1.003906	-0.539158
H151	H	0.961313	0.373539	0.343411
N152	N	0.196010	1.071482	-0.779366
N153	N	0.135821	1.098523	-0.768482
H154	H	0.092080	1.142254	-0.846319
N155	N	0.332293	1.010241	-0.803965
N156	N	0.278159	1.064361	-0.900300
H157	H	0.283049	1.086244	-0.986936
N158	N	1.085243	0.257330	0.536637
N159	N	1.091299	0.284400	0.429418
H160	H	1.139930	0.262555	0.420618
N161	N	0.454841	0.483668	0.133609
N162	N	0.460906	0.417396	0.192604
H163	H	0.509541	0.363833	0.240288
N164	N	0.812651	0.379810	-0.133622
N165	N	0.794567	0.332449	-0.105604
H166	H	0.745926	0.354303	-0.153270
N167	N	0.085270	0.483689	0.133567
N168	N	0.127376	0.467127	0.076029
H169	H	0.176022	0.413580	0.123696
H170	H	0.566427	0.893968	-0.583305
H171	H	1.071292	0.263558	0.119822
H172	H	0.701094	0.263595	0.779081
H173	H	0.440897	0.893944	0.119962
N174	N	0.633822	1.071439	-0.779406
N175	N	0.690992	1.057892	-0.798054
H176	H	0.691013	1.101610	-0.875901
H177	H	0.701140	1.003890	-0.539191
H178	H	0.440877	0.893969	-0.583294
H179	H	0.701090	0.373529	-0.119948
N180	N	0.812680	0.379786	0.585844
N181	N	0.806626	0.352706	0.693064
H182	H	0.757995	0.374548	0.701866
H183	H	0.936565	0.263596	-0.120005
N184	N	0.196062	1.071478	0.000083
N185	N	0.202171	1.098520	0.059109
H186	H	0.158458	1.142251	0.059134
N187	N	0.304760	0.887698	-0.133583
N188	N	0.244548	0.914776	-0.192576
H189	H	0.239607	0.892928	-0.240271
H190	H	0.306209	0.893940	-0.343398
H191	H	0.961340	0.373513	0.119886
H192	H	-0.038676	0.499063	0.119897
H193	H	0.566408	0.263551	0.539327
N194	N	0.708773	0.257271	-0.133637
N195	N	0.708763	0.203154	-0.133628
H196	H	0.735528	0.181289	-0.181324
H197	H	0.566419	0.263547	0.119923
N198	N	-0.064804	0.783812	-0.133600
N199	N	-0.125007	0.850087	-0.192602
H200	H	-0.129929	0.903647	-0.240275
H201	H	0.566418	0.373515	0.119933
H202	H	0.566420	0.003927	0.119942
H203	H	0.701101	0.003934	-0.119924
H204	H	0.566406	0.373507	0.343480
N205	N	0.332324	0.483672	0.133609
N206	N	0.392525	0.417395	0.192609
H207	H	0.397444	0.363836	0.240285
N208	N	0.708771	0.379839	0.585753
N209	N	0.708770	0.433958	0.489381
H210	H	0.735536	0.455837	0.498120
N211	N	1.071513	0.196041	0.779379
N212	N	1.131701	0.169003	0.768495
H213	H	1.175443	0.125278	0.846331
H214	H	0.701115	0.893948	-0.343424
