data_functionalizedCrystal
_audit_creation_method	'MofGen! by Chris Wilmer'
_symmetry_space_group_name_H-M	'P1'
_symmetry_Int_Tables_number	1
_symmetry_cell_setting	triclinic
loop_
_symmetry_equiv_pos_as_xyz
  x,y,z
_cell_length_a	8.634740
_cell_length_b	7.088929
_cell_length_c	17.699083
_cell_angle_alpha	83.788102
_cell_angle_beta	88.073339
_cell_angle_gamma	82.825325
loop_
_atom_site_label
_atom_site_type_symbol
_atom_site_fract_x
_atom_site_fract_y
_atom_site_fract_z
O1	O	2.029280	0.159009	-0.253323
O2	O	1.580405	0.159010	-0.232636
O3	O	1.817526	0.158992	-0.133726
O4	O	1.792159	0.159026	-0.352233
O5	O	1.849215	-0.158985	-0.120472
O6	O	1.612094	-0.158968	-0.219383
O7	O	2.060969	-0.158968	-0.240069
Cu8	Cu	1.839425	-0.188002	-0.228516
Cu9	Cu	1.801949	0.188043	-0.244190
O10	O	1.823848	-0.158951	-0.338980
C11	C	1.538817	0.000021	-0.221323
C12	C	1.367686	0.000021	-0.207350
N13	N	1.865795	-0.452492	-0.217492
C14	C	2.102557	0.000025	-0.251382
C15	C	2.273686	0.000037	-0.265356
C16	C	1.832462	0.000003	-0.098835
C17	C	1.829735	0.000003	-0.014615
N18	N	1.775592	0.452533	-0.255208
C19	C	1.808912	0.000042	-0.373871
C20	C	1.811637	0.000055	-0.458090
C21	C	1.968920	-0.000000	0.023730
C22	C	1.966347	0.000017	0.102862
C23	C	1.824590	0.000023	0.143649
C24	C	1.685394	0.000031	0.105297
C25	C	1.687967	0.000028	0.026166
C26	C	1.675015	0.000047	0.424426
C27	C	1.672453	0.000045	0.503563
C28	C	1.953394	0.000035	0.501123
C29	C	1.955967	0.000032	0.421991
C30	C	1.816771	0.000051	0.383646
C31	C	1.819562	0.000036	0.297842
C32	C	1.821798	0.000024	0.229452
H33	H	1.324131	0.000029	-0.325705
H34	H	1.959297	-0.534155	-0.178411
F35	F	2.119801	-0.000025	-0.019670
H36	H	1.682107	-0.465814	-0.294292
F37	F	2.114486	0.000010	0.143669
H38	H	2.071401	0.000018	0.388787
H39	H	2.066733	0.000030	0.532352
F40	F	1.301752	0.000003	-0.128462
F41	F	1.521568	0.000054	0.546969
H42	H	1.561673	0.000062	0.393215
H43	H	1.569972	0.000049	0.138511
H44	H	1.574629	0.000031	-0.005054
