data_functionalizedCrystal
_audit_creation_method	'MofGen! by Chris Wilmer'
_symmetry_space_group_name_H-M	'P1'
_symmetry_Int_Tables_number	1
_symmetry_cell_setting	triclinic
loop_
_symmetry_equiv_pos_as_xyz
  x,y,z
_cell_length_a	8.497374
_cell_length_b	19.077105
_cell_length_c	19.077068
_cell_angle_alpha	89.884684
_cell_angle_beta	92.284024
_cell_angle_gamma	92.300019
loop_
_atom_site_label
_atom_site_type_symbol
_atom_site_fract_x
_atom_site_fract_y
_atom_site_fract_z
Zn1	Zn	1.016648	1.062860	0.323110
Zn2	Zn	0.762970	1.058079	0.440586
Zn3	Zn	0.741875	0.945387	0.318369
Zn4	Zn	1.015701	0.940595	0.435851
O5	O	0.884299	1.001730	0.379479
O6	O	0.992222	1.160556	0.342659
O7	O	0.539410	1.043135	0.424372
O8	O	0.769893	0.964977	0.220667
O9	O	0.805846	1.157044	0.428968
O10	O	0.971767	1.051283	0.224150
O11	O	0.523911	0.960341	0.334579
O12	O	0.768974	0.846421	0.329988
O13	O	1.236588	0.956809	0.420898
O14	O	0.970152	0.842901	0.416301
O15	O	1.237285	1.046636	0.338067
O16	O	0.804927	1.038488	0.538289
O17	O	0.990607	0.952173	0.534810
C18	C	0.867172	0.819165	0.372117
C19	C	0.859884	0.741062	0.368984
C20	C	0.961050	0.702552	0.412519
C21	C	0.954209	0.629166	0.409566
C22	C	0.846193	0.594292	0.363082
C23	C	0.745023	0.632808	0.319542
C24	C	0.751873	0.706192	0.322492
C25	C	0.814499	0.375011	0.349430
C26	C	0.807654	0.301621	0.346485
C27	C	1.016843	0.297985	0.436509
C28	C	1.023677	0.371371	0.439457
C29	C	0.922512	0.409880	0.395915
N30	N	0.839195	0.519280	0.360064
N31	N	0.929519	0.484891	0.398930
C32	C	0.899989	0.994311	0.562047
C33	C	0.906761	0.991201	0.640152
C34	C	1.295778	1.001725	0.379480
C35	C	1.474423	1.001726	0.379487
C36	C	0.901493	1.185009	0.386870
C37	C	0.908820	1.263111	0.390020
C38	C	0.868583	1.009198	0.196199
C39	C	0.861886	1.012380	0.118097
C40	C	0.813355	1.034715	0.678636
C41	C	0.819734	1.031794	0.752025
C42	C	0.919510	0.985356	0.786928
C43	C	1.012926	0.941841	0.748439
C44	C	1.006555	0.944765	0.675052
C45	C	0.948930	0.971789	1.006221
C46	C	0.955291	0.968866	1.079613
C47	C	0.762100	1.058821	1.083193
C48	C	0.755730	1.061739	1.009804
C49	C	0.849152	1.018226	0.971322
N50	N	0.926029	0.982368	0.861943
N51	N	0.842641	1.021218	0.896309
H52	H	0.719703	0.273229	0.308624
C53	C	0.735689	1.159552	0.930996
C54	C	0.646061	1.112785	0.971434
H55	H	0.667975	1.191060	0.907304
H56	H	0.809451	1.185266	0.960672
H57	H	0.790405	1.134044	0.897580
H58	H	0.591353	1.138293	1.004855
H59	H	0.572270	1.087068	0.941756
H60	H	0.686043	1.094248	1.114533
C61	C	0.607042	0.371224	0.260151
C62	C	0.703298	0.417334	0.301570
H63	H	0.538385	0.397356	0.230606
H64	H	0.670903	0.343694	0.232178
H65	H	0.546540	0.341357	0.289583
H66	H	0.763809	0.447198	0.272139
H67	H	0.639430	0.444876	0.329546
H68	H	0.743672	1.067227	0.783355
C69	C	1.222165	0.215076	0.443097
C70	C	1.128054	0.255653	0.484360
H71	H	1.290834	0.188946	0.472639
H72	H	1.156850	0.183809	0.415000
H73	H	1.282655	0.244959	0.413677
H74	H	1.067555	0.225769	0.513777
H75	H	1.193377	0.286924	0.512470
C76	C	0.641639	0.521931	0.275047
C77	C	0.626294	0.594476	0.268442
H78	H	0.568331	0.498269	0.243502
H79	H	0.745663	0.510331	0.264357
H80	H	0.621301	0.507993	0.321762
H81	H	0.646644	0.608414	0.221729
H82	H	0.522246	0.606081	0.279128
H83	H	1.036588	0.597814	0.445018
H84	H	0.669500	0.737547	0.287037
C85	C	0.623044	1.123340	0.689554
C86	C	0.703675	1.085762	0.640273
H87	H	0.555340	1.154858	0.665870
H88	H	0.562266	1.091606	0.716981
H89	H	0.696847	1.149050	0.719225
H90	H	0.629872	1.060047	0.610606
H91	H	0.764456	1.117500	0.612835
C92	C	1.145656	0.880253	1.068707
C93	C	1.064991	0.917825	1.117981
H94	H	1.213382	0.848748	1.092396
H95	H	1.071886	0.854535	1.039038
H96	H	1.206428	0.911998	1.041278
H97	H	1.004209	0.886080	1.145407
H98	H	1.138771	0.943544	1.147662
C99	C	1.231343	0.928709	0.830549
C100	C	1.122602	0.890795	0.786806
H101	H	1.299042	0.897192	0.854237
H102	H	1.292124	0.960436	0.803116
H103	H	1.176605	0.954203	0.863969
H104	H	1.177340	0.865305	0.753383
H105	H	1.061814	0.859055	0.814241
H106	H	1.082618	0.909333	0.643719
C107	C	1.167150	0.691579	0.501199
C108	C	1.079792	0.740882	0.463615
H109	H	1.240466	0.715242	0.532739
H110	H	1.097953	0.661865	0.526879
H111	H	1.222297	0.664200	0.469466
H112	H	1.024635	0.768257	0.495347
H113	H	1.148998	0.770608	0.437933
C114	C	1.229774	0.360402	0.528141
C115	C	1.142416	0.409702	0.490553
H116	H	1.303080	0.384068	0.559684
H117	H	1.160575	0.330686	0.553819
H118	H	1.284932	0.333025	0.496411
H119	H	1.087248	0.437076	0.522283
H120	H	1.211624	0.439430	0.464874
C121	C	1.024969	0.936331	0.892140
C122	C	1.051611	0.923958	0.963926
H123	H	1.088371	0.906802	0.866029
H124	H	0.916966	0.926564	0.879729
H125	H	1.051529	0.984017	0.881978
H126	H	1.025040	0.876273	0.974089
H127	H	1.159638	0.933720	0.976342
