data_functionalizedCrystal
_audit_creation_method	'MofGen! by Chris Wilmer'
_symmetry_space_group_name_H-M	'P1'
_symmetry_Int_Tables_number	1
_symmetry_cell_setting	triclinic
loop_
_symmetry_equiv_pos_as_xyz
  x,y,z
_cell_length_a	13.897449
_cell_length_b	12.759394
_cell_length_c	12.759379
_cell_angle_alpha	90.065158
_cell_angle_beta	89.956054
_cell_angle_gamma	89.983883
loop_
_atom_site_label
_atom_site_type_symbol
_atom_site_fract_x
_atom_site_fract_y
_atom_site_fract_z
Zn1	Zn	1.474943	0.417828	-0.594034
Zn2	Zn	1.474779	0.593648	-0.418352
Zn3	Zn	1.313567	0.417987	-0.418367
Zn4	Zn	1.313622	0.593469	-0.593987
O5	O	1.394228	0.505733	-0.506185
O6	O	1.609903	0.441159	-0.570743
O7	O	1.453303	0.570487	-0.271332
O8	O	1.335019	0.270945	-0.441696
O9	O	1.609783	0.570333	-0.441670
O10	O	1.453581	0.270828	-0.570758
O11	O	1.334860	0.441430	-0.271344
O12	O	1.178592	0.441257	-0.441650
O13	O	1.335113	0.570029	-0.741015
O14	O	1.178633	0.570183	-0.570678
O15	O	1.453635	0.440986	-0.741049
O16	O	1.453356	0.740645	-0.441624
O17	O	1.334954	0.740514	-0.570663
C18	C	1.394170	0.778701	-0.506160
C19	C	1.394233	0.895477	-0.506184
C20	C	1.143613	0.505719	-0.506161
C21	C	1.036399	0.505738	-0.506176
C22	C	1.394398	0.505470	-0.780219
C23	C	1.394471	0.505358	-0.896996
C24	C	0.840104	0.505742	-0.506203
C25	C	0.949337	0.505737	-0.506185
C26	C	1.645821	0.505748	-0.506210
C27	C	1.753034	0.505754	-0.506220
C28	C	1.394312	0.231700	-0.506233
C29	C	1.394348	0.114923	-0.506254
C30	C	1.517618	0.895560	-0.371917
C31	C	1.579335	0.950462	-0.304795
C32	C	1.579392	1.060184	-0.304824
C33	C	1.517726	1.115006	-0.371983
C34	C	1.456009	1.060103	-0.439104
C35	C	1.455957	0.950379	-0.439066
C36	C	1.332631	1.060021	-0.573375
C37	C	1.332568	0.950299	-0.573343
C38	C	1.270965	1.114842	-0.640535
C39	C	1.209241	1.059940	-0.707652
C40	C	1.209187	0.950212	-0.707620
C41	C	1.270850	0.895397	-0.640464
C42	C	1.394113	0.505919	-0.233217
C43	C	1.394228	0.505736	-0.116441
C44	C	1.270235	0.371959	0.102888
C45	C	1.208060	0.305349	0.047969
C46	C	1.207940	0.305531	-0.061752
C47	C	1.269999	0.372333	-0.116557
C48	C	1.332173	0.438943	-0.061638
C49	C	1.332289	0.438751	0.048085
C50	C	1.456402	0.572346	-0.061522
C51	C	1.456530	0.572160	0.048199
C52	C	1.518461	0.639148	-0.116327
C53	C	1.580643	0.705754	-0.061408
C54	C	1.580761	0.705568	0.048319
C55	C	1.518704	0.638770	0.103118
H56	H	1.517565	0.806219	-0.371873
H57	H	1.629545	0.905817	-0.250117
H58	H	1.271020	1.204183	-0.640558
C59	C	1.701344	1.049257	-0.172089
C60	C	1.647229	1.120539	-0.231042
H61	H	1.743218	1.086520	-0.126536
H62	H	1.738220	1.006367	-0.217881
H63	H	1.659290	1.006552	-0.131853
H64	H	1.689283	1.163239	-0.271284
H65	H	1.610351	1.163446	-0.185244
H66	H	1.157531	0.250962	0.092604
H67	H	1.631395	0.759807	0.093028
H68	H	1.517786	1.204347	-0.372009
H69	H	1.518798	0.638608	0.192458
C70	C	1.154552	1.228100	-0.767322
C71	C	1.141464	1.120200	-0.781466
H72	H	1.112703	1.265302	-0.812887
H73	H	1.219364	1.245987	-0.782766
H74	H	1.140450	1.246187	-0.696720
H75	H	1.155574	1.102112	-0.852066
H76	H	1.076638	1.102306	-0.766029
C77	C	1.044245	0.255696	-0.095338
C78	C	1.139597	0.232313	-0.122123
H79	H	1.002056	0.210489	-0.132604
H80	H	1.030569	0.326418	-0.113095
H81	H	1.035443	0.246021	-0.022147
H82	H	1.148401	0.241995	-0.195313
H83	H	1.153278	0.161574	-0.104373
C84	C	1.087240	0.961161	-0.840355
C85	C	1.141346	0.889867	-0.781406
H86	H	1.045355	0.923908	-0.885904
H87	H	1.129291	1.003858	-0.880584
H88	H	1.050366	1.004058	-0.794550
H89	H	1.178225	0.846975	-0.827211
H90	H	1.099289	0.847152	-0.741174
C91	C	1.178828	0.399195	0.260341
C92	C	1.270373	0.371756	0.223495
H93	H	1.178916	0.399075	0.334800
H94	H	1.132929	0.349963	0.235484
H95	H	1.162561	0.467166	0.235741
H96	H	1.286636	0.303782	0.248089
H97	H	1.316286	0.420990	0.248363
C98	C	1.246195	0.738387	-0.540448
C99	C	1.270795	0.774789	-0.640425
H100	H	1.246170	0.663928	-0.540424
H101	H	1.183964	0.763282	-0.522248
H102	H	1.291779	0.763251	-0.490871
H103	H	1.225206	0.749931	-0.690002
H104	H	1.333034	0.749884	-0.658638
C105	C	1.635612	0.765272	-0.229553
C106	C	1.648853	0.779174	-0.121650
H107	H	1.677729	0.810595	-0.266744
H108	H	1.570890	0.781196	-0.247339
H109	H	1.649254	0.694599	-0.247755
H110	H	1.635204	0.849846	-0.103447
H111	H	1.713590	0.763258	-0.103857
C112	C	1.202181	0.299972	-0.273794
C113	C	1.269862	0.372539	-0.237164
H114	H	1.202103	0.300098	-0.348253
H115	H	1.140090	0.318594	-0.248788
H116	H	1.218461	0.232004	-0.249197
H117	H	1.253577	0.440509	-0.261755
H118	H	1.331966	0.353922	-0.262182
H119	H	1.518354	0.639297	-0.205668
