data_functionalizedCrystal
_audit_creation_method	'MofGen! by Chris Wilmer'
_symmetry_space_group_name_H-M	'P1'
_symmetry_Int_Tables_number	1
_symmetry_cell_setting	triclinic
loop_
_symmetry_equiv_pos_as_xyz
  x,y,z
_cell_length_a	17.639054
_cell_length_b	29.839131
_cell_length_c	17.640968
_cell_angle_alpha	78.759880
_cell_angle_beta	70.330395
_cell_angle_gamma	101.220821
loop_
_atom_site_label
_atom_site_type_symbol
_atom_site_fract_x
_atom_site_fract_y
_atom_site_fract_z
Zn1	Zn	1.354520	0.059492	-0.721395
Zn2	Zn	1.326502	-0.034701	-0.583501
Zn3	Zn	1.188777	0.021407	-0.555632
Zn4	Zn	1.216583	-0.034662	-0.693374
O5	O	1.271595	0.002884	-0.638475
O6	O	1.466169	0.062919	-0.726493
O7	O	1.284870	-0.043213	-0.464449
O8	O	1.210853	0.089343	-0.577684
O9	O	1.445584	-0.006283	-0.625183
O10	O	1.332623	0.117324	-0.699469
O11	O	1.183684	-0.001991	-0.443974
O12	O	1.077100	-0.001954	-0.550513
O13	O	1.258243	-0.006217	-0.812446
O14	O	1.097529	-0.043147	-0.651712
O15	O	1.359585	0.062957	-0.833033
O16	O	1.311831	-0.097580	-0.598013
O17	O	1.231074	-0.097552	-0.678736
C18	C	1.057402	-0.026679	-0.595048
C19	C	0.965773	-0.039334	-0.576489
C20	C	0.825892	-0.093165	-0.497509
C21	C	0.911992	-0.081269	-0.514954
C22	C	0.933468	-0.009279	-0.620608
C23	C	0.847368	-0.021170	-0.603175
C24	C	0.793586	-0.063113	-0.541624
C25	C	0.815062	0.008881	-0.647290
C26	C	0.728969	-0.003008	-0.629855
C27	C	0.675182	-0.044948	-0.568305
C28	C	0.707493	-0.075002	-0.524189
C29	C	0.868844	0.050826	-0.708837
C30	C	0.836538	0.080877	-0.752952
C31	C	0.750445	0.068987	-0.735521
C32	C	0.696657	0.027046	-0.673971
C33	C	0.718133	0.099041	-0.779637
C34	C	0.632040	0.087152	-0.762202
C35	C	0.610564	0.015157	-0.656536
C36	C	1.271456	-0.113866	-0.638380
C37	C	1.271477	-0.163797	-0.638383
C38	C	1.335005	-0.458803	-0.701962
C39	C	1.335104	-0.646457	-0.702030
O40	O	1.388985	-0.658301	-0.756010
N41	N	1.271754	-0.684526	-0.638595
C42	C	1.208371	-0.675680	-0.575142
O43	O	1.154485	-0.712366	-0.521194
C44	C	1.208269	-0.488027	-0.575079
C45	C	1.271628	-0.449959	-0.638513
C46	C	1.398359	-0.420737	-0.765391
C47	C	1.398336	-0.373826	-0.765371
C48	C	1.334959	-0.364982	-0.701922
C49	C	1.271605	-0.403049	-0.638493
C50	C	1.144883	-0.479182	-0.511630
C51	C	1.144862	-0.432264	-0.511621
C52	C	1.208222	-0.394196	-0.575055
C53	C	1.208206	-0.347294	-0.575023
N54	N	1.271556	-0.309225	-0.638458
C55	C	1.334933	-0.318069	-0.701907
C56	C	1.208430	-0.774200	-0.575179
C57	C	1.208456	-0.821113	-0.575194
C58	C	1.335189	-0.791886	-0.702083
C59	C	1.335165	-0.744973	-0.702064
C60	C	1.271780	-0.736130	-0.638614
C61	C	1.334880	-0.219555	-0.701860
C62	C	1.334853	-0.172641	-0.701832
C63	C	1.208119	-0.201872	-0.574947
C64	C	1.208147	-0.248781	-0.574971
C65	C	1.271532	-0.257620	-0.638435
O66	O	1.154348	-0.335415	-0.521076
O67	O	1.388800	-0.281377	-0.755858
C68	C	1.335028	-0.505714	-0.701982
C69	C	1.271674	-0.543780	-0.638553
C70	C	1.208298	-0.534936	-0.575104
C71	C	1.271700	-0.590693	-0.638568
C72	C	1.335077	-0.599537	-0.702017
C73	C	1.398428	-0.561468	-0.765451
C74	C	1.398405	-0.514558	-0.765431
C75	C	1.144947	-0.573005	-0.511669
C76	C	1.144976	-0.619915	-0.511694
C77	C	1.208352	-0.628759	-0.575143
C78	C	1.486625	0.032562	-0.682073
C79	C	1.578258	0.045209	-0.700651
C80	C	1.315141	0.032622	-0.853486
C81	C	1.333697	0.045295	-0.945110
C82	C	1.271762	0.120095	-0.638593
C83	C	1.271833	0.170043	-0.638644
C84	C	1.130941	-0.093102	-1.192866
C85	C	1.148395	-0.081186	-1.278965
C86	C	1.253914	-0.009161	-1.300390
C87	C	1.236466	-0.021070	-1.214290
C88	C	1.174979	-0.063041	-1.160535
C89	C	1.280504	0.008991	-1.181959
C90	C	1.263060	-0.002918	-1.095868
C91	C	1.201578	-0.044888	-1.042108
C92	C	1.157535	-0.074950	-1.074444
C93	C	1.341994	0.050961	-1.235717
C94	C	1.386032	0.081021	-1.203386
C95	C	1.368585	0.069114	-1.117292
C96	C	1.307103	0.027144	-1.063532
C97	C	1.412627	0.099176	-1.084957
C98	C	1.395183	0.087267	-0.998865
C99	C	1.289659	0.015234	-0.977441
C100	C	1.228267	-0.026700	-0.424311
C101	C	1.209870	-0.039224	-0.332720
H102	H	0.782101	-0.127322	-0.447395
H103	H	0.605736	0.111624	-0.798122
Br104	Br	0.955835	-0.122063	-0.455087
Br105	Br	1.006463	0.047642	-0.704137
Br106	Br	1.122476	-0.872771	-0.489091
H107	H	1.080853	-0.127271	-1.149091
H108	H	1.450034	-0.568676	-0.817112
H109	H	1.356196	0.060655	-1.305818
Br110	Br	1.420850	-0.120979	-0.787924
Br111	Br	0.909534	0.137798	-0.836481
Br112	Br	1.421156	-0.693314	-0.788155
H113	H	1.449926	-0.342833	-0.817026
H114	H	1.156520	-0.194664	-0.523285
H115	H	1.156813	-0.767006	-0.523509
Br116	Br	1.421201	-0.803898	-0.788191
Br117	Br	1.058833	-0.420268	-0.425507
H118	H	1.449998	-0.483565	-0.817085
Br119	Br	1.206202	-0.041724	-0.904478
Br120	Br	1.058888	-0.530834	-0.425537
Br121	Br	1.088621	-0.121987	-1.322840
Br122	Br	1.058983	-0.671574	-0.425593
H123	H	0.761934	0.133193	-0.829746
H124	H	1.303978	0.025012	-1.344169
H125	H	1.156560	-0.279778	-0.523313
Br126	Br	1.469479	0.137979	-1.276347
H127	H	1.093337	-0.565810	-0.460002
H128	H	0.938945	0.060505	-0.723027
H129	H	1.462695	0.133346	-1.128738
Br130	Br	1.420904	-0.231543	-0.787988
Br131	Br	1.454955	0.128061	-0.954983
H132	H	1.449968	-0.427930	-0.817064
Br133	Br	1.074079	-0.131908	-1.001480
H134	H	1.187380	-0.054585	-0.972008
H135	H	0.605077	-0.054622	-0.554098
Br136	Br	0.537572	-0.041777	-0.573027
H137	H	0.663702	-0.109159	-0.474075
