data_functionalizedCrystal
_audit_creation_method	'MofGen! by Chris Wilmer'
_symmetry_space_group_name_H-M	'P1'
_symmetry_Int_Tables_number	1
_symmetry_cell_setting	triclinic
loop_
_symmetry_equiv_pos_as_xyz
  x,y,z
_cell_length_a	10.540510
_cell_length_b	10.540539
_cell_length_c	9.016244
_cell_angle_alpha	89.997712
_cell_angle_beta	90.003796
_cell_angle_gamma	84.519401
loop_
_atom_site_label
_atom_site_type_symbol
_atom_site_fract_x
_atom_site_fract_y
_atom_site_fract_z
O1	O	1.685908	0.178711	0.123342
O2	O	1.316491	0.195607	0.123342
O3	O	1.509627	0.002452	0.123340
O4	O	1.492771	0.371867	0.123344
O5	O	1.509612	0.002463	-0.123341
O6	O	1.316475	0.195619	-0.123339
O7	O	1.685893	0.178723	-0.123339
Cu8	Cu	1.501183	0.187172	-0.145863
Cu9	Cu	1.501201	0.187158	0.145866
O10	O	1.492756	0.371878	-0.123337
C11	C	1.269179	0.194354	0.000002
C12	C	1.128229	0.190587	0.000002
C13	C	1.508356	-0.044845	0.000003
C14	C	1.504574	-0.185793	0.000011
C15	C	0.910774	0.324771	0.000570
C16	C	1.057370	0.328789	0.000005
C17	C	1.083461	0.119847	-0.140862
C18	C	0.936700	0.116808	-0.140971
C19	C	0.936911	0.113917	0.139551
C20	C	1.083252	0.120472	0.141404
C21	C	1.359655	-0.369204	0.000564
C22	C	1.363489	-0.222587	0.000009
C23	C	1.572462	-0.247451	-0.140856
C24	C	1.567647	-0.393995	-0.140975
C25	C	1.570533	-0.394527	0.139547
C26	C	1.571833	-0.247545	0.141410
C27	C	1.733204	0.179976	0.000005
C28	C	1.874154	0.183743	0.000014
C29	C	1.494028	0.419175	0.000004
C30	C	1.497810	0.560123	0.000006
N31	N	1.501180	0.187181	-0.351049
C32	C	1.397819	0.290490	-0.414018
C33	C	1.397466	0.290193	-0.585909
C34	C	1.471623	0.054269	-0.586525
C35	C	1.470860	0.054898	-0.414581
C36	C	1.634444	0.215545	-0.414385
C37	C	1.633599	0.218522	-0.586342
N38	N	1.501214	0.187139	0.351052
H39	H	1.086722	0.384130	0.100986
H40	H	1.085767	0.384476	-0.101140
F41	F	0.855947	0.395145	0.132614
F42	F	1.502046	-0.430844	-0.278607
F43	F	1.147380	-0.011415	0.152520
H44	H	0.914757	0.010155	0.140503
F45	F	1.565470	-0.048719	-0.360124
F46	F	0.853898	0.394752	-0.130719
F47	F	0.884122	0.180013	-0.278598
F48	F	1.734994	0.117102	-0.361145
F49	F	0.906638	-0.018293	-0.149403
F50	F	1.145390	-0.013141	-0.147709
F51	F	1.420596	0.419959	-0.359989
H52	H	1.544890	-0.024541	-0.627352
H53	H	1.303929	-0.397803	0.101582
H54	H	1.672439	-0.441764	0.140494
F55	F	1.346026	0.021187	-0.642841
H56	H	1.669113	-0.441974	-0.147366
F57	F	1.120711	0.187714	0.277619
F58	F	1.123778	0.184071	-0.277886
F59	F	1.707887	-0.218250	-0.147708
H60	H	1.525291	-0.204842	-0.245685
F61	F	0.881330	0.170896	0.279107
H62	H	1.310070	-0.179982	0.100988
H63	H	1.304143	-0.399401	-0.099888
H64	H	1.309683	-0.180820	-0.101138
F65	F	1.510850	-0.435755	0.279102
H66	H	1.522160	-0.206687	0.245619
F67	F	1.671378	0.339614	-0.357718
F68	F	1.420625	0.419218	-0.641083
F69	F	1.706281	-0.215896	0.152538
F70	F	1.269304	0.266906	-0.357579
H71	H	1.298600	0.271881	-0.627071
F72	F	1.662929	0.346294	-0.639663
F73	F	1.343800	0.022575	-0.362191
H74	H	1.714186	0.148275	-0.629252
