data_functionalizedCrystal
_audit_creation_method	'MofGen! by Chris Wilmer'
_symmetry_space_group_name_H-M	'P1'
_symmetry_Int_Tables_number	1
_symmetry_cell_setting	triclinic
loop_
_symmetry_equiv_pos_as_xyz
  x,y,z
_cell_length_a	12.784893
_cell_length_b	14.048226
_cell_length_c	14.971486
_cell_angle_alpha	89.993360
_cell_angle_beta	101.639808
_cell_angle_gamma	90.005968
loop_
_atom_site_label
_atom_site_type_symbol
_atom_site_fract_x
_atom_site_fract_y
_atom_site_fract_z
O1	O	-1.410329	-0.079138	0.005594
O2	O	-0.910329	0.420862	0.505594
O3	O	-1.100922	-0.079145	0.043898
O4	O	-0.600922	0.420855	0.543898
O5	O	-1.263918	-0.079135	-0.106107
O6	O	-0.763918	0.420865	0.393893
O7	O	-1.247332	-0.079149	0.155598
O8	O	-0.747332	0.420851	0.655598
O9	O	-1.263899	0.079186	-0.106113
O10	O	-0.763899	0.579186	0.393887
O11	O	-1.100902	0.079176	0.043891
O12	O	-0.600902	0.579176	0.543891
O13	O	-1.410309	0.079183	0.005587
O14	O	-0.910309	0.579183	0.505587
Zn15	Zn	-1.255602	0.104316	0.024738
Zn16	Zn	-0.755602	0.604316	0.524738
Zn17	Zn	-1.255628	-0.104279	0.024747
Zn18	Zn	-0.755628	0.395721	0.524747
O19	O	-1.247313	0.079172	0.155592
O20	O	-0.747313	0.579172	0.655592
C21	C	-1.061316	0.000014	0.046386
C22	C	-0.561316	0.500014	0.546386
C23	C	-0.943331	0.000012	0.053799
C24	C	-0.443331	0.500012	0.553799
C25	C	-1.263167	0.000025	-0.139376
C26	C	-0.763167	0.500025	0.360624
C27	C	-1.260944	0.000025	-0.238499
C28	C	-0.760944	0.500025	0.261501
C29	C	-0.764472	0.000007	0.146698
C30	C	-0.264472	0.500007	0.646698
C31	C	-0.875329	0.000006	0.139739
C32	C	-0.375329	0.500006	0.639739
C33	C	-0.900470	0.000015	-0.025188
C34	C	-0.400470	0.500015	0.474812
C35	C	-0.789614	0.000015	-0.018229
C36	C	-0.289614	0.500015	0.481771
C37	C	-0.721618	0.000012	0.067717
C38	C	-0.221618	0.500012	0.567717
C39	C	-0.610760	0.000019	0.074675
C40	C	-0.110760	0.500019	0.574675
C41	C	-0.635904	0.000021	-0.090251
C42	C	-0.135904	0.500021	0.409749
C43	C	-0.746760	0.000021	-0.097210
C44	C	-0.246760	0.500021	0.402790
N45	N	-1.255593	0.246677	0.024731
N46	N	-0.755593	0.746677	0.524731
C47	C	-0.449915	0.000022	0.003100
C48	C	0.050085	0.500022	0.503100
C49	C	-0.567900	0.000022	-0.004311
C50	C	-0.067900	0.500022	0.495689
N51	N	-1.255647	-0.246639	0.024746
N52	N	-0.755647	0.253361	0.524746
C53	C	-1.327790	0.296500	-0.041668
C54	C	-0.827790	0.796500	0.458332
C55	C	-1.327797	0.396157	-0.041669
C56	C	-0.827797	0.896157	0.458331
C57	C	-1.255611	0.445991	0.024734
C58	C	-0.755611	0.945991	0.524734
C59	C	-1.183406	0.396161	0.091136
C60	C	-0.683406	0.896161	0.591136
C61	C	-1.183395	0.296505	0.091132
C62	C	-0.683395	0.796505	0.591132
C63	C	-1.183437	0.603875	0.091140
C64	C	-0.683437	1.103875	0.591140
C65	C	-1.183449	0.703538	0.091145
C66	C	-0.683449	1.203538	0.591145
C67	C	-1.327839	0.703527	-0.041661
C68	C	-0.827839	1.203527	0.458339
C69	C	-1.327828	0.603872	-0.041665
C70	C	-0.827828	1.103872	0.458335
C71	C	-1.255624	0.554049	0.024739
C72	C	-0.755624	1.054049	0.524739
C73	C	-1.356700	0.000027	-0.303258
C74	C	-0.856700	0.500027	0.196742
C75	C	-1.354605	0.000018	-0.396393
C76	C	-0.854605	0.500018	0.103607
C77	C	-1.256753	0.000012	-0.424766
C78	C	-0.756753	0.500012	0.075234
C79	C	-1.160990	0.000006	-0.359998
C80	C	-0.660990	0.500006	0.140002
C81	C	-1.163086	0.000009	-0.266865
C82	C	-0.663086	0.500009	0.233135
C83	C	-1.156628	0.000003	-0.554117
C84	C	-0.656628	0.500003	-0.054117
C85	C	-1.154531	0.000002	-0.647256
C86	C	-0.654531	0.500002	-0.147256
C87	C	-1.348147	0.000011	-0.683645
C88	C	-0.848147	0.500011	-0.183645
C89	C	-1.350243	0.000014	-0.590512
C90	C	-0.850243	0.500014	-0.090512
C91	C	-1.254479	0.000010	-0.525751
C92	C	-0.754479	0.500010	-0.025751
C93	C	-1.248064	0.000010	0.188862
C94	C	-0.748064	0.500010	0.688862
C95	C	-1.250287	0.000005	0.287984
C96	C	-0.750287	0.500005	0.787984
H97	H	-0.555399	0.000022	0.144657
H98	H	-0.055399	0.500022	0.644657
H99	H	-1.078646	-0.000003	-0.501390
H100	H	-0.578646	0.499997	-0.001390
H101	H	-0.802136	0.000020	-0.167184
H102	H	-0.302136	0.500020	0.332816
Br103	Br	-1.489506	0.000049	-0.264763
Br104	Br	-0.989506	0.500049	0.235237
H105	H	-1.124603	0.255940	0.145200
H106	H	-0.624603	0.755940	0.645200
H107	H	-0.601001	-0.000050	-0.154563
H108	H	-0.101001	0.499950	0.345437
Br109	Br	-1.484565	0.000021	-0.484279
Br110	Br	-0.984565	0.500021	0.015721
Br111	Br	-1.483043	0.000019	-0.552006
Br112	Br	-0.983043	0.500019	-0.052006
Br113	Br	-1.425771	0.228879	-0.131785
Br114	Br	-0.925771	0.728879	0.368215
Br115	Br	-1.425777	0.463777	-0.131785
Br116	Br	-0.925777	0.963777	0.368215
Br117	Br	-1.425834	0.771147	-0.131775
Br118	Br	-0.925834	1.271147	0.368225
Br119	Br	-1.478113	0.000015	-0.771534
Br120	Br	-0.978113	0.500015	-0.271534
Br121	Br	-1.021731	-0.000001	-0.685762
Br122	Br	-0.521731	0.499999	-0.185762
Br123	Br	-1.028188	-0.000017	-0.398503
Br124	Br	-0.528188	0.499983	0.101497
H125	H	-1.085111	0.000007	-0.214137
H126	H	-0.585111	0.500007	0.285863
H127	H	-0.910215	0.000004	0.204053
H128	H	-0.410215	0.500004	0.704053
Br129	Br	-0.672188	0.000025	0.263334
Br130	Br	-0.172188	0.500025	0.763334
Br131	Br	-0.992766	0.000013	-0.141819
Br132	Br	-0.492766	0.500013	0.358181
Br133	Br	-1.085478	0.771162	0.181266
Br134	Br	-0.585478	1.271162	0.681266
Br135	Br	-1.425803	0.536237	-0.131774
Br136	Br	-0.925803	1.036237	0.368226
Br137	Br	-1.085438	0.536261	0.181257
Br138	Br	-0.585438	1.036261	0.681257
H139	H	-1.124625	0.436741	0.145200
H140	H	-0.624625	0.936741	0.645200
