data_functionalizedCrystal
_audit_creation_method	'MofGen! by Chris Wilmer'
_symmetry_space_group_name_H-M	'P1'
_symmetry_Int_Tables_number	1
_symmetry_cell_setting	triclinic
loop_
_symmetry_equiv_pos_as_xyz
  x,y,z
_cell_length_a	23.532407
_cell_length_b	14.044220
_cell_length_c	22.610064
_cell_angle_alpha	89.989598
_cell_angle_beta	90.009150
_cell_angle_gamma	91.981222
loop_
_atom_site_label
_atom_site_type_symbol
_atom_site_fract_x
_atom_site_fract_y
_atom_site_fract_z
O1	O	0.137234	-1.256430	0.049133
O2	O	0.132281	-0.980507	0.049148
O3	O	0.052277	-1.126789	0.049129
O4	O	0.217238	-1.110148	0.049152
O5	O	0.052274	-1.126746	-0.049240
O6	O	0.132279	-0.980464	-0.049221
O7	O	0.137231	-1.256387	-0.049236
Zn8	Zn	0.134755	-1.118419	-0.064847
Zn9	Zn	0.134758	-1.118475	0.064759
O10	O	0.217236	-1.110105	-0.049217
C11	C	0.130113	-0.945192	-0.000035
C12	C	0.123647	-0.840027	-0.000030
C13	C	0.031037	-1.126344	-0.000057
C14	C	-0.032249	-1.125070	-0.000061
C15	C	0.139400	-1.291702	-0.000052
C16	C	0.145866	-1.396867	-0.000053
C17	C	-0.427094	-1.203645	-0.000033
C18	C	-0.486558	-1.202461	-0.000028
O19	O	-0.519355	-1.275302	-0.000010
N20	N	-0.513898	-1.115497	-0.000024
C21	C	-0.481770	-1.029710	-0.000019
O22	O	-0.510485	-0.955632	-0.000014
C23	C	-0.422307	-1.030895	-0.000019
C24	C	-0.394970	-1.117865	-0.000029
C25	C	-0.399757	-1.290608	-0.000042
C26	C	-0.340297	-1.291791	-0.000048
C27	C	-0.308173	-1.206011	-0.000044
C28	C	-0.335510	-1.119048	-0.000035
C29	C	-0.390180	-0.945110	-0.000009
C30	C	-0.330713	-0.946302	-0.000009
C31	C	-0.303376	-1.033272	-0.000019
C32	C	-0.243926	-1.034451	-0.000037
N33	N	-0.216586	-1.121416	-0.000041
C34	C	-0.248710	-1.207196	-0.000045
C35	C	-0.606647	-1.027229	-0.000017
C36	C	-0.666109	-1.026044	-0.000021
C37	C	-0.670893	-1.198795	-0.000029
C38	C	-0.611430	-1.199980	-0.000030
C39	C	-0.579307	-1.114194	-0.000021
C40	C	-0.123839	-1.209674	-0.000057
C41	C	-0.064373	-1.210849	-0.000065
C42	C	-0.059594	-1.038099	-0.000053
C43	C	-0.119055	-1.036923	-0.000048
C44	C	-0.151176	-1.122718	-0.000048
O45	O	-0.211093	-0.961650	-0.000052
O46	O	-0.219987	-1.281262	-0.000041
C47	C	0.238476	-1.110550	-0.000030
C48	C	0.301762	-1.111824	-0.000021
N49	N	0.134753	-1.118387	-0.153299
C50	C	0.111826	-0.647477	-0.000043
C51	C	0.157685	-0.589412	-0.000039
C52	C	0.151107	-0.482270	-0.000047
C53	C	0.118402	-0.754628	-0.000036
C54	C	0.172215	-1.175609	-0.561939
C55	C	0.172214	-1.175621	-0.623859
O56	O	0.204060	-1.224235	-0.655876
N57	N	0.134752	-1.118493	-0.654836
C58	C	0.097285	-1.061357	-0.623891
O59	O	0.065420	-1.012767	-0.655925
C60	C	0.097283	-1.061351	-0.561972
C61	C	0.134752	-1.118475	-0.530998
C62	C	0.209680	-1.232730	-0.530965
C63	C	0.209681	-1.232716	-0.469049
C64	C	0.172218	-1.175582	-0.438108
C65	C	0.134753	-1.118462	-0.469082
C66	C	0.059813	-1.004220	-0.531027
C67	C	0.059815	-1.004220	-0.469104
C68	C	0.097283	-1.061344	-0.438130
C69	C	0.097291	-1.061314	-0.376225
N70	N	0.134753	-1.118442	-0.345248
C71	C	0.172216	-1.175576	-0.376189
C72	C	0.097290	-1.061376	-0.753924
C73	C	0.097294	-1.061376	-0.815842
C74	C	0.172223	-1.175642	-0.815806
C75	C	0.172222	-1.175635	-0.753887
C76	C	0.134752	-1.118503	-0.722947
C77	C	0.172217	-1.175543	-0.246162
C78	C	0.172216	-1.175521	-0.184240
C79	C	0.097285	-1.061260	-0.184282
C80	C	0.097288	-1.061277	-0.246198
C81	C	0.134755	-1.118426	-0.277136
O82	O	0.065459	-1.012728	-0.344168
O83	O	0.204071	-1.224167	-0.344147
N84	N	0.134756	-1.118514	0.153211
H85	H	-0.042119	-1.281674	-0.000075
C86	C	0.213438	-1.238400	-0.280185
N87	N	0.244490	-1.285738	-0.305810
H88	H	0.201886	-0.620167	-0.000031
C89	C	-0.696172	-0.930370	-0.000017
N90	N	-0.718814	-0.858305	-0.000010
H91	H	0.066784	-1.014750	-0.271418
C92	C	0.055994	-0.998570	-0.150235
N93	N	0.024859	-0.951411	-0.124589
H94	H	-0.318045	-1.362611	-0.000054
C95	C	-0.295381	-0.851927	-0.000001
N96	N	-0.268771	-0.780845	0.000002
H97	H	-0.149985	-1.279537	-0.000054
C98	C	-0.435084	-1.384982	-0.000053
N99	N	-0.461688	-1.456070	-0.000067
H100	H	-0.589177	-1.270798	-0.000038
H101	H	-0.697059	-1.268642	-0.000030
C102	C	0.052116	-0.605930	-0.000050
N103	N	0.007143	-0.574625	-0.000052
H104	H	0.029301	-0.957696	-0.443916
C105	C	0.213434	-1.238369	-0.150172
N106	N	0.244477	-1.285708	-0.124514
H107	H	-0.033429	-0.968259	-0.000052
C108	C	-0.571317	-0.932852	-0.000015
N109	N	-0.544709	-0.861766	-0.000013
H110	H	0.240190	-1.279237	-0.443835
C111	C	0.250907	-1.295568	-0.564990
N112	N	0.281968	-1.342891	-0.590614
C113	C	-0.420237	-0.849434	0.000006
N114	N	-0.442874	-0.777365	0.000020
C115	C	0.213435	-1.238483	-0.719821
N116	N	0.244478	-1.285826	-0.694166
C117	C	-0.149126	-0.941252	-0.000041
N118	N	-0.171771	-0.869191	-0.000029
C119	C	0.213430	-1.238498	-0.849853
N120	N	0.244465	-1.285839	-0.875499
H121	H	0.066790	-1.014848	-0.841056
C122	C	0.056075	-0.998509	-0.719896
N123	N	0.025032	-0.951157	-0.694268
H124	H	0.029302	-0.957705	-0.556236
