data_functionalizedCrystal
_audit_creation_method	'MofGen! by Chris Wilmer'
_symmetry_space_group_name_H-M	'P1'
_symmetry_Int_Tables_number	1
_symmetry_cell_setting	triclinic
loop_
_symmetry_equiv_pos_as_xyz
  x,y,z
_cell_length_a	18.215407
_cell_length_b	15.297327
_cell_length_c	18.215399
_cell_angle_alpha	99.645421
_cell_angle_beta	89.983176
_cell_angle_gamma	99.707397
loop_
_atom_site_label
_atom_site_type_symbol
_atom_site_fract_x
_atom_site_fract_y
_atom_site_fract_z
Zn1	Zn	1.074338	-0.359142	-0.466791
Zn2	Zn	1.052949	-0.510019	-0.365013
Zn3	Zn	0.951272	-0.359178	-0.343743
Zn4	Zn	0.929941	-0.509963	-0.488030
O5	O	1.002125	-0.434575	-0.415894
O6	O	1.174484	-0.379165	-0.453303
O7	O	1.039437	-0.490049	-0.259213
O8	O	0.985476	-0.232926	-0.342275
O9	O	1.158769	-0.490014	-0.378527
O10	O	1.075892	-0.232900	-0.432678
O11	O	0.964736	-0.379226	-0.243586
O12	O	0.845460	-0.379171	-0.362870
O13	O	0.949119	-0.489917	-0.588192
O14	O	0.829787	-0.489952	-0.468877
O15	O	1.055208	-0.379110	-0.572587
O16	O	1.018753	-0.636259	-0.399122
O17	O	0.928379	-0.636217	-0.489502
C18	C	0.810921	-0.434560	-0.415871
C19	C	0.729120	-0.434575	-0.415882
C20	C	0.968950	-0.668972	-0.448941
C21	C	0.954825	-0.769248	-0.463103
C22	C	0.532772	-0.492350	-0.471033
C23	C	0.455913	-0.492352	-0.471043
C24	C	0.472228	-0.376818	-0.360774
C25	C	0.549086	-0.376811	-0.360768
C26	C	0.579356	-0.434582	-0.415897
C27	C	0.425638	-0.434592	-0.415913
C28	C	0.342304	-0.434594	-0.415923
C29	C	0.662695	-0.434578	-0.415888
C30	C	1.103383	-1.051871	-0.314927
C31	C	1.116654	-0.957656	-0.301617
C32	C	1.076198	-0.910550	-0.341987
C33	C	1.022468	-0.957666	-0.395670
C34	C	1.009192	-1.051890	-0.408977
C35	C	0.982007	-0.910569	-0.436037
C36	C	0.928278	-0.957686	-0.489720
C37	C	0.915004	-1.051900	-0.503025
C38	C	0.955460	-1.099007	-0.462654
C39	C	0.995284	-0.816346	-0.422730
C40	C	0.901093	-0.816365	-0.516781
C41	C	0.887822	-0.910579	-0.530090
C42	C	1.194076	-0.434592	-0.415918
C43	C	1.275874	-0.434598	-0.415928
C44	C	1.002170	-0.434503	-0.607837
C45	C	1.002189	-0.434473	-0.689632
C46	C	1.035450	-0.199263	-0.382735
C47	C	1.049651	-0.098987	-0.368604
C48	C	0.963337	-0.376728	-0.869684
C49	C	0.963353	-0.376710	-0.946540
C50	C	1.041144	-0.492109	-0.962802
C51	C	1.041124	-0.492131	-0.885948
C52	C	1.002222	-0.434436	-0.839390
C53	C	1.002258	-0.434396	-0.993101
C54	C	1.002275	-0.434376	-1.076432
C55	C	1.002204	-0.434456	-0.756054
C56	C	1.002132	-0.434582	-0.224689
C57	C	1.002291	-0.434359	-0.142859
H58	H	0.557415	-0.539388	-0.515925
O59	O	0.925472	-0.320695	-0.975890
C60	C	0.849326	-0.340428	-0.959890
H61	H	0.842881	-0.375126	-0.908975
H62	H	0.817978	-0.386795	-1.009674
C63	C	0.825118	-0.209859	-1.006476
C64	C	0.817203	-0.252469	-0.943937
H65	H	0.805301	-0.155603	-0.996639
H66	H	0.876418	-0.196566	-1.017259
H67	H	0.798995	-0.248508	-1.047957
H68	H	0.843333	-0.213825	-0.902460
H69	H	0.765906	-0.265754	-0.933147
H70	H	0.931661	-0.329749	-0.831779
H71	H	1.072817	-0.539082	-1.000718
O72	O	1.078965	-0.548220	-0.856634
C73	C	1.113294	-0.599150	-0.914206
H74	H	1.121093	-0.562184	-0.963787
H75	H	1.076644	-0.667664	-0.932029
C76	C	1.180189	-0.657569	-0.825149
C77	C	1.189773	-0.612163	-0.886042
H78	H	1.227363	-0.665601	-0.807776
H79	H	1.157059	-0.623260	-0.786361
H80	H	1.149645	-0.714659	-0.840010
H81	H	1.220309	-0.555070	-0.871178
H82	H	1.212911	-0.646463	-0.924827
H83	H	0.587017	-0.329764	-0.315869
O84	O	1.047425	-0.770681	-0.370502
C85	C	1.028119	-0.793767	-0.300400
H86	H	0.990185	-0.862204	-0.308516
H87	H	0.997762	-0.740798	-0.268097
C88	C	1.145872	-0.714036	-0.246527
C89	C	1.099285	-0.798095	-0.256496
H90	H	1.189770	-0.716702	-0.219443
H91	H	1.158878	-0.698479	-0.293755
H92	H	1.120566	-0.669904	-0.219610
H93	H	1.124588	-0.842223	-0.283420
H94	H	1.086285	-0.813659	-0.209271
H95	H	1.087006	-0.833836	-0.331147
O96	O	1.142779	-1.097543	-0.275738
C97	C	1.219377	-1.074479	-0.288626
H98	H	1.230553	-1.006040	-0.307243
H99	H	1.236670	-1.127452	-0.333968
C100	C	1.250867	-1.154232	-0.193439
C101	C	1.264595	-1.070170	-0.216299
H102	H	1.278761	-1.151578	-0.148826
H103	H	1.199262	-1.169774	-0.184757
H104	H	1.265278	-1.198368	-0.231230
H105	H	1.250176	-1.026038	-0.178512
H106	H	1.316199	-1.054620	-0.224972
O107	O	0.410574	-0.548514	-0.524504
C108	C	0.357874	-0.606737	-0.490741
H109	H	0.350851	-0.574835	-0.430516
H110	H	0.378031	-0.673580	-0.491987
C111	C	0.291187	-0.662322	-0.607502
C112	C	0.282558	-0.623135	-0.533534
H113	H	0.244730	-0.672441	-0.633899
H114	H	0.326694	-0.623098	-0.630250
H115	H	0.307988	-0.718019	-0.608530
H116	H	0.265767	-0.567434	-0.532506
H117	H	0.247047	-0.662350	-0.510786
H118	H	0.447573	-0.329784	-0.315889
H119	H	0.944660	-1.175724	-0.473490
O120	O	1.168745	-0.911853	-0.249392
C121	C	1.134545	-0.857420	-0.194145
H122	H	1.072576	-0.885875	-0.193567
H123	H	1.142061	-0.785996	-0.206807
C124	C	1.246854	-0.821059	-0.118181
C125	C	1.170744	-0.856011	-0.117468
H126	H	1.269185	-0.820185	-0.070884
H127	H	1.269897	-0.857728	-0.155403
H128	H	1.253108	-0.761541	-0.128736
H129	H	1.164492	-0.915531	-0.106923
H130	H	1.147701	-0.819352	-0.080242
O131	O	0.862892	-1.097628	-0.555267
C132	C	0.882177	-1.074510	-0.625363
H133	H	0.944625	-1.048549	-0.625465
H134	H	0.850413	-1.019842	-0.636844
C135	C	0.785094	-1.190059	-0.686162
C136	C	0.861795	-1.158180	-0.686289
H137	H	0.772519	-1.241668	-0.723745
H138	H	0.772099	-1.205632	-0.638937
H139	H	0.758634	-1.144494	-0.695727
H140	H	0.888254	-1.203740	-0.676715
H141	H	0.874794	-1.142616	-0.733514
O142	O	0.835712	-0.956313	-0.582332
C143	C	0.854995	-0.933198	-0.652430
H144	H	0.917442	-0.907230	-0.652531
H145	H	0.823226	-0.878538	-0.663914
C146	C	0.757921	-1.048762	-0.713226
C147	C	0.834621	-1.016873	-0.713352
H148	H	0.745351	-1.100374	-0.750807
H149	H	0.744928	-1.064333	-0.666000
H150	H	0.731456	-1.003203	-0.722794
H151	H	0.861085	-1.062427	-0.703775
H152	H	0.847619	-1.001312	-0.760579
O153	O	0.861902	-0.770575	-0.556075
C154	C	0.911466	-0.715979	-0.595922
H155	H	0.965432	-0.744313	-0.604522
H156	H	0.924076	-0.644589	-0.563088
C157	C	0.809392	-0.679699	-0.661623
C158	C	0.875671	-0.714505	-0.672191
H159	H	0.787312	-0.678786	-0.708668
H160	H	0.775999	-0.716479	-0.634775
H161	H	0.819909	-0.620211	-0.634258
H162	H	0.865152	-0.773995	-0.699547
H163	H	0.909061	-0.677734	-0.699045
