data_functionalizedCrystal
_audit_creation_method	'MofGen! by Chris Wilmer'
_symmetry_space_group_name_H-M	'P1'
_symmetry_Int_Tables_number	1
_symmetry_cell_setting	triclinic
loop_
_symmetry_equiv_pos_as_xyz
  x,y,z
_cell_length_a	17.038272
_cell_length_b	15.500227
_cell_length_c	16.109304
_cell_angle_alpha	87.169857
_cell_angle_beta	87.287097
_cell_angle_gamma	93.043705
loop_
_atom_site_label
_atom_site_type_symbol
_atom_site_fract_x
_atom_site_fract_y
_atom_site_fract_z
O1	O	1.040999	0.071827	0.176943
O2	O	0.813369	0.071852	0.174075
O3	O	0.933436	0.071839	0.054922
O4	O	0.920932	0.071840	0.296096
O5	O	0.926150	-0.072049	0.062122
O6	O	0.806084	-0.072036	0.181275
O7	O	1.033713	-0.072061	0.184143
Cu8	Cu	0.919233	-0.085186	0.183366
Cu9	Cu	0.927849	0.084978	0.174851
O10	O	0.913646	-0.072048	0.303296
C11	C	0.780598	-0.000088	0.175067
C12	C	0.693806	-0.000078	0.167288
C13	C	0.643692	-0.000079	0.238709
C14	C	0.562141	-0.000091	0.231395
C15	C	0.530706	-0.000096	0.152660
C16	C	0.580826	-0.000098	0.081234
C17	C	0.662375	-0.000092	0.088548
C18	C	0.284946	-0.000119	0.126818
C19	C	0.203391	-0.000122	0.119509
C20	C	0.184711	-0.000117	0.269671
C21	C	0.266263	-0.000106	0.276979
C22	C	0.316376	-0.000112	0.205553
C23	C	0.447348	-0.000106	0.145182
C24	C	0.399732	-0.000109	0.213032
N25	N	0.913178	-0.204871	0.189355
C26	C	0.964072	-0.250153	0.138887
C27	C	0.959501	-0.340725	0.143425
C28	C	0.904038	-0.386014	0.198435
C29	C	0.853138	-0.340725	0.248905
C30	C	0.857707	-0.250155	0.244363
C31	C	0.887579	-0.659479	0.214784
C32	C	0.883016	-0.750056	0.219325
C33	C	0.989378	-0.750050	0.113843
C34	C	0.993945	-0.659477	0.109309
C35	C	0.943043	-0.614197	0.159776
C36	C	0.899365	-0.478593	0.203076
C37	C	0.947712	-0.521619	0.155130
C38	C	1.066484	-0.000119	0.183150
C39	C	1.153277	-0.000123	0.190930
C40	C	0.929286	-0.000103	0.027511
C41	C	0.927767	-0.000097	-0.064892
N42	N	0.933910	0.204662	0.168856
C43	C	0.928228	0.078334	-0.281404
C44	C	0.926792	0.078333	-0.368226
C45	C	0.918853	-0.078541	-0.360372
C46	C	0.920282	-0.078540	-0.273552
C47	C	0.924974	-0.000100	-0.234070
C48	C	0.922109	-0.000102	-0.407713
C49	C	0.920553	-0.000103	-0.501849
C50	C	0.926528	-0.000098	-0.139927
C51	C	0.917796	-0.000104	0.330707
C52	C	0.919316	-0.000105	0.423110
H53	H	0.521341	-0.000090	0.289554
C54	C	1.054954	-0.609667	0.048789
N55	N	1.100908	-0.572149	0.003204
C56	C	0.930402	0.164616	-0.420291
N57	N	0.933132	0.229609	-0.459507
H58	H	0.915035	-0.142404	-0.392529
C59	C	0.916702	-0.164827	-0.221481
N60	N	0.914003	-0.229816	-0.182262
H61	H	0.854207	-0.515475	0.247868
C62	C	0.801725	-0.200345	0.299889
N63	N	0.759559	-0.162829	0.341714
C64	C	0.300834	-0.000114	0.363594
N65	N	0.326873	-0.000122	0.428834
C66	C	0.129580	-0.000120	0.348234
N67	N	0.088055	-0.000128	0.407412
C68	C	0.678262	-0.000074	0.325324
N69	N	0.704297	-0.000075	0.390566
H70	H	0.846134	-0.622619	0.255878
C71	C	1.015470	-0.390531	0.087884
N72	N	1.057621	-0.428045	0.046040
C73	C	0.168815	-0.000127	0.032890
N74	N	0.142772	-0.000129	-0.032348
C75	C	0.340061	-0.000121	0.048247
N76	N	0.381576	-0.000121	-0.010938
C77	C	1.045360	-0.799866	0.058326
N78	N	1.087526	-0.837387	0.016505
H79	H	0.837849	-0.786926	0.264124
C80	C	0.546244	-0.000105	-0.005376
N81	N	0.520199	-0.000108	-0.070613
H82	H	0.932045	0.142205	-0.249260
H83	H	0.425330	-0.000110	0.277138
C84	C	0.717501	-0.000089	0.009980
N85	N	0.759021	-0.000089	-0.049201
C86	C	0.792121	-0.390546	0.309409
N87	N	0.746161	-0.428070	0.354981
H88	H	0.421743	-0.000134	0.081076
H89	H	1.009239	-0.213285	0.094096
H90	H	0.992868	-0.484742	0.110337
