data_functionalizedCrystal
_audit_creation_method	'MofGen! by Chris Wilmer'
_symmetry_space_group_name_H-M	'P1'
_symmetry_Int_Tables_number	1
_symmetry_cell_setting	triclinic
loop_
_symmetry_equiv_pos_as_xyz
  x,y,z
_cell_length_a	19.121063
_cell_length_b	13.032951
_cell_length_c	13.032268
_cell_angle_alpha	89.114265
_cell_angle_beta	99.247498
_cell_angle_gamma	94.436940
loop_
_atom_site_label
_atom_site_type_symbol
_atom_site_fract_x
_atom_site_fract_y
_atom_site_fract_z
Zn1	Zn	-0.473708	-1.465014	-0.806619
Zn2	Zn	0.026292	-0.965014	-0.306619
Zn3	Zn	-0.578206	-1.479375	-0.640318
Zn4	Zn	-0.078206	-0.979375	-0.140318
Zn5	Zn	-0.444404	-1.316943	-0.611263
Zn6	Zn	0.055596	-0.816943	-0.111263
Zn7	Zn	-0.574407	-1.285892	-0.790231
Zn8	Zn	-0.074407	-0.785892	-0.290231
O9	O	-0.517681	-1.386806	-0.712108
O10	O	-0.017681	-0.886806	-0.212108
O11	O	-0.501424	-1.609860	-0.803576
O12	O	-0.001424	-1.109860	-0.303576
O13	O	-0.549783	-1.476833	-0.491968
O14	O	-0.049783	-0.976833	0.008032
O15	O	-0.350152	-1.343569	-0.631876
O16	O	0.149848	-0.843569	-0.131876
O17	O	-0.578198	-1.620411	-0.681396
O18	O	-0.078198	-1.120411	-0.181396
O19	O	-0.371681	-1.452356	-0.775403
O20	O	0.128319	-0.952356	-0.275403
O21	O	-0.451479	-1.357494	-0.470621
O22	O	0.048521	-0.857494	0.029379
O23	O	-0.447796	-1.169882	-0.615986
O24	O	0.052204	-0.669882	-0.115986
O25	O	-0.571724	-1.290648	-0.936902
O26	O	-0.071724	-0.790648	-0.436902
O27	O	-0.543309	-1.147069	-0.747473
O28	O	-0.043309	-0.647069	-0.247473
O29	O	-0.497740	-1.422248	-0.948941
O30	O	0.002260	-0.922248	-0.448941
O31	O	-0.675842	-1.446724	-0.665506
O32	O	-0.175842	-0.946724	-0.165506
O33	O	-0.673051	-1.304573	-0.775647
O34	O	-0.173051	-0.804573	-0.275647
C35	C	-0.491961	-1.121412	-0.676799
C36	C	0.008039	-0.621412	-0.176799
C37	C	-0.480976	-1.007871	-0.661719
C38	C	0.019024	-0.507871	-0.161719
C39	C	-0.699897	-1.373862	-0.721977
C40	C	-0.199897	-0.873862	-0.221977
C41	C	-0.777861	-1.368414	-0.726246
C42	C	-0.277861	-0.868414	-0.226246
C43	C	-0.523398	-0.945999	-0.719963
C44	C	-0.023398	-0.445999	-0.219963
C45	C	-0.512045	-0.828649	-0.704379
C46	C	-0.012045	-0.328649	-0.204379
C47	C	-0.815928	-1.439908	-0.670969
C48	C	-0.315928	-0.939908	-0.170969
C49	C	-0.889184	-1.434789	-0.674990
C50	C	-0.389184	-0.934789	-0.174990
C51	C	-0.924372	-1.358171	-0.734284
C52	C	-0.424372	-0.858171	-0.234284
C53	C	-0.886301	-1.286673	-0.789568
C54	C	-0.386301	-0.786673	-0.289568
C55	C	-0.813047	-1.291797	-0.785552
C56	C	-0.313047	-0.791797	-0.285552
C57	C	-1.145482	-1.338999	-0.749283
C58	C	-0.645482	-0.838999	-0.249283
C59	C	-1.218741	-1.333878	-0.753293
C60	C	-0.718741	-0.833878	-0.253293
C61	C	-1.221620	-1.481996	-0.638716
C62	C	-0.721620	-0.981996	-0.138716
C63	C	-1.148363	-1.487110	-0.634700
C64	C	-0.648363	-0.987110	-0.134700
C65	C	-1.110299	-1.415615	-0.689988
C66	C	-0.610299	-0.915615	-0.189988
C67	C	-0.999252	-1.352935	-0.738394
C68	C	-0.499252	-0.852935	-0.238394
C69	C	-1.035421	-1.420857	-0.685884
C70	C	-0.535421	-0.920857	-0.185884
C71	C	-0.334759	-1.399824	-0.702227
C72	C	0.165241	-0.899824	-0.202227
C73	C	-0.256808	-1.405372	-0.698016
C74	C	0.243192	-0.905372	-0.198016
C75	C	-0.537577	-1.351382	-0.981435
C76	C	-0.037577	-0.851382	-0.481435
C77	C	-0.546055	-1.336287	-1.096207
C78	C	-0.046055	-0.836287	-0.596207
C79	C	-0.543495	-0.653237	-0.747548
C80	C	-0.043495	-0.153237	-0.247548
C81	C	-0.554473	-0.766778	-0.762631
C82	C	-0.054473	-0.266778	-0.262631
C83	C	-0.513230	-1.394670	-1.153332
C84	C	-0.013230	-0.894670	-0.653332
C85	C	-0.521992	-1.379070	-1.271954
C86	C	-0.021992	-0.879070	-0.771954
C87	C	-0.497818	-1.422154	-0.443833
C88	C	0.002182	-0.922154	0.056167
C89	C	-0.489162	-1.437461	-0.329078
C90	C	0.010838	-0.937461	0.170922
H91	H	-0.568119	-0.979906	-0.781369
H92	H	-0.068119	-0.479906	-0.281369
F93	F	-1.036708	-1.271393	-0.801497
F94	F	-0.536708	-0.771393	-0.301497
H95	H	-0.454565	-1.498993	-1.290171
H96	H	0.045435	-0.998993	-0.790171
H97	H	-0.599196	-0.800678	-0.824044
H98	H	-0.099196	-0.300678	-0.324044
F99	F	-0.468001	-1.475081	-1.102473
F100	F	0.031999	-0.975081	-0.602473
H101	H	-0.580640	-1.274747	-1.135118
H102	H	-0.080640	-0.774747	-0.635118
F103	F	-0.422514	-0.963558	-0.581465
F104	F	0.077486	-0.463558	-0.081465
F105	F	-0.929695	-1.510887	-0.616160
F106	F	-0.429695	-1.010887	-0.116160
F107	F	-0.772534	-1.215705	-0.844389
F108	F	-0.272534	-0.715705	-0.344389
H109	H	-1.006770	-1.483243	-0.637611
H110	H	-0.506770	-0.983243	-0.137611
H111	H	-0.467316	-0.794746	-0.642976
H112	H	0.032684	-0.294746	-0.142976
H113	H	-1.119715	-1.549499	-0.586418
H114	H	-0.619715	-1.049499	-0.086418
F115	F	-0.778484	-1.521452	-0.607852
F116	F	-0.278484	-1.021452	-0.107852
F117	F	-0.567203	-1.298630	-1.322804
F118	F	-0.067203	-0.798630	-0.822804
H119	H	-1.252620	-1.540204	-0.593705
H120	H	-0.752620	-1.040204	-0.093705
H121	H	-1.247392	-1.271496	-0.801597
H122	H	-0.747392	-0.771496	-0.301597
H123	H	-1.114495	-1.280783	-0.794299
H124	H	-0.614495	-0.780783	-0.294299
F125	F	-0.923753	-1.205134	-0.852680
F126	F	-0.423753	-0.705134	-0.352680
