data_functionalizedCrystal
_audit_creation_method	'MofGen! by Chris Wilmer'
_symmetry_space_group_name_H-M	'P1'
_symmetry_Int_Tables_number	1
_symmetry_cell_setting	triclinic
loop_
_symmetry_equiv_pos_as_xyz
  x,y,z
_cell_length_a	23.532361
_cell_length_b	22.010155
_cell_length_c	17.699083
_cell_angle_alpha	90.003354
_cell_angle_beta	96.943659
_cell_angle_gamma	90.004127
loop_
_atom_site_label
_atom_site_type_symbol
_atom_site_fract_x
_atom_site_fract_y
_atom_site_fract_z
O1	O	0.755544	0.050465	-0.091699
O2	O	1.088878	0.383799	0.241634
O3	O	1.422211	0.717132	0.574968
O4	O	0.589716	0.050480	-0.105030
O5	O	0.923049	0.383814	0.228304
O6	O	1.256382	0.717147	0.561637
O7	O	0.677315	0.050467	0.011850
O8	O	1.010648	0.383800	0.345183
O9	O	1.343982	0.717134	0.678516
O10	O	0.667945	0.050479	-0.208578
O11	O	1.001278	0.383812	0.124755
O12	O	1.334612	0.717145	0.458088
O13	O	0.677299	-0.050583	0.011832
O14	O	1.010632	0.282750	0.345165
O15	O	1.343966	0.616083	0.678499
O16	O	0.589700	-0.050570	-0.105047
O17	O	0.923033	0.282763	0.228286
O18	O	1.256366	0.616097	0.561619
O19	O	0.755528	-0.050585	-0.091717
O20	O	1.088862	0.282748	0.241617
O21	O	1.422195	0.616082	0.574950
Cu22	Cu	0.672613	-0.059804	-0.098384
Cu23	Cu	1.005946	0.273529	0.234950
Cu24	Cu	1.339279	0.606862	0.568283
Cu25	Cu	0.672631	0.059700	-0.098363
Cu26	Cu	1.005965	0.393033	0.234971
Cu27	Cu	1.339298	0.726366	0.568304
O28	O	0.667929	-0.050572	-0.208596
O29	O	1.001262	0.282762	0.124737
O30	O	1.334596	0.616095	0.458071
C31	C	0.568490	-0.000043	-0.104705
C32	C	0.901823	0.333290	0.228629
C33	C	1.235157	0.666624	0.561962
C34	C	0.505269	-0.000038	-0.103701
C35	C	0.838602	0.333296	0.229632
C36	C	1.171935	0.666629	0.562966
N37	N	0.672604	-0.143857	-0.098398
N38	N	1.005937	0.189477	0.234936
N39	N	1.339270	0.522810	0.568269
C40	C	0.232021	0.055041	-0.099301
C41	C	0.565354	0.388374	0.234032
C42	C	0.898688	0.721708	0.567365
C43	C	0.291424	0.055043	-0.100251
C44	C	0.624757	0.388376	0.233082
C45	C	0.958090	0.721709	0.566415
O46	O	0.322158	0.101887	-0.100708
O47	O	0.655491	0.435220	0.232625
O48	O	0.988825	0.768554	0.565958
N49	N	0.321122	-0.000040	-0.100741
N50	N	0.654455	0.333293	0.232592
N51	N	0.987789	0.666626	0.565926
C52	C	0.291415	-0.055128	-0.100273
C53	C	0.624749	0.278205	0.233061
C54	C	0.958082	0.611539	0.566394
O55	O	0.322131	-0.101980	-0.100775
O56	O	0.655464	0.231353	0.232558
O57	O	0.988798	0.564687	0.565891
C58	C	0.232015	-0.055129	-0.099317
C59	C	0.565348	0.278204	0.234016
C60	C	0.898681	0.611538	0.567350
C61	C	0.202319	-0.000043	-0.098835
C62	C	0.535652	0.333291	0.234498
C63	C	0.868985	0.666624	0.567831
C64	C	0.202325	0.110123	-0.098819
C65	C	0.535658	0.443456	0.234515
C66	C	0.868992	0.776790	0.567848
C67	C	0.142926	0.110121	-0.097870
C68	C	0.476260	0.443454	0.235463
C69	C	0.809593	0.776788	0.568797
C70	C	0.113224	0.055037	-0.097404
C71	C	0.446557	0.388371	0.235929
C72	C	0.779891	0.721704	0.569263
C73	C	0.142920	-0.000044	-0.097887
C74	C	0.476253	0.333289	0.235447
C75	C	0.809587	0.666622	0.568780
C76	C	0.202310	-0.110216	-0.098843
C77	C	0.535643	0.223117	0.234490
C78	C	0.868977	0.556450	0.567823
C79	C	0.142905	-0.110212	-0.097887
C80	C	0.476238	0.223121	0.235446
C81	C	0.809572	0.556454	0.568780
C82	C	0.113209	-0.055126	-0.097405
C83	C	0.446542	0.278207	0.235928
C84	C	0.779876	0.611541	0.569261
C85	C	0.053819	-0.055130	-0.096472
C86	C	0.387152	0.278204	0.236861
C87	C	0.720486	0.611537	0.570195
N88	N	0.024121	-0.000047	-0.095982
N89	N	0.357454	0.333286	0.237351
N90	N	0.690787	0.666620	0.570684
C91	C	0.053823	0.055037	-0.096448
C92	C	0.387156	0.388370	0.236885
C93	C	0.720490	0.721703	0.570218
C94	C	0.416161	-0.055122	-0.102278
C95	C	0.749495	0.278211	0.231055
C96	C	1.082828	0.611545	0.564389
C97	C	0.475561	-0.055122	-0.103239
C98	C	0.808894	0.278212	0.230094
C99	C	1.142227	0.611545	0.563428
C100	C	0.475565	0.055049	-0.103216
C101	C	0.808898	0.388382	0.230117
C102	C	1.142231	0.721716	0.563450
C103	C	0.416164	0.055048	-0.102261
C104	C	0.749497	0.388382	0.231073
C105	C	1.082831	0.721715	0.564406
C106	C	0.386463	-0.000039	-0.101788
C107	C	0.719796	0.333294	0.231545
C108	C	1.053130	0.666627	0.564878
C109	C	-0.070918	0.055029	-0.094457
C110	C	0.262415	0.388362	0.238876
C111	C	0.595749	0.721695	0.572210
C112	C	-0.130322	0.055022	-0.093511
C113	C	0.203011	0.388355	0.239822
C114	C	0.536344	0.721689	0.573155
C115	C	-0.130321	-0.055148	-0.093530
C116	C	0.203013	0.278185	0.239803
C117	C	0.536346	0.611518	0.573137
C118	C	-0.070922	-0.055142	-0.094480
C119	C	0.262411	0.278191	0.238854
C120	C	0.595744	0.611524	0.572187
C121	C	-0.041222	-0.000049	-0.094940
C122	C	0.292111	0.333285	0.238393
C123	C	0.625445	0.666618	0.571726
O124	O	0.023047	-0.101950	-0.096011
O125	O	0.356380	0.231383	0.237322
O126	O	0.689714	0.564716	0.570655
O127	O	0.023101	0.101881	-0.095935
O128	O	0.356435	0.435214	0.237398
O129	O	0.689768	0.768547	0.570731
C130	C	0.711423	-0.563642	-0.046616
C131	C	1.044756	-0.230309	0.286717
C132	C	1.378089	0.103025	0.620051
C133	C	0.711425	-0.627249	-0.046611
C134	C	1.044759	-0.293916	0.286723
C135	C	1.378092	0.039417	0.620056
O136	O	0.744408	-0.660146	-0.002594
O137	O	1.077741	-0.326813	0.330739
O138	O	1.411075	0.006521	0.664073
N139	N	0.672631	-0.659064	-0.098347
N140	N	1.005964	-0.325730	0.234986
N141	N	1.339298	0.007603	0.568320
C142	C	0.633828	-0.627267	-0.150087
C143	C	0.967161	-0.293934	0.183247
C144	C	1.300494	0.039399	0.516580
O145	O	0.600830	-0.660168	-0.194091
O146	O	0.934163	-0.326835	0.139242
O147	O	1.267497	0.006498	0.472575
C148	C	0.633823	-0.563661	-0.150088
C149	C	0.967156	-0.230327	0.183246
C150	C	1.300490	0.103006	0.516579
C151	C	0.672624	-0.531850	-0.098353
C152	C	1.005957	-0.198516	0.234980
C153	C	1.339290	0.134817	0.568314
C154	C	0.750220	-0.531831	0.005115
C155	C	1.083553	-0.198497	0.338448
C156	C	1.416886	0.134836	0.671782
C157	C	0.750218	-0.468228	0.005109
C158	C	1.083551	-0.134894	0.338442
C159	C	1.416884	0.198439	0.671775
C160	C	0.711419	-0.436435	-0.046629
C161	C	1.044752	-0.103102	0.286705
C162	C	1.378085	0.230231	0.620038
C163	C	0.672621	-0.468247	-0.098360
C164	C	1.005955	-0.134913	0.234974
C165	C	1.339288	0.198420	0.568307
C166	C	0.595017	-0.531865	-0.201823
C167	C	0.928351	-0.198532	0.131510
C168	C	1.261684	0.134801	0.464843
C169	C	0.595015	-0.468255	-0.201819
C170	C	0.928349	-0.134921	0.131514
C171	C	1.261682	0.198412	0.464847
C172	C	0.633816	-0.436444	-0.150085
C173	C	0.967149	-0.103110	0.183248
C174	C	1.300483	0.230223	0.516582
C175	C	0.633820	-0.372851	-0.150103
C176	C	0.967154	-0.039518	0.183230
C177	C	1.300487	0.293816	0.516564
N178	N	0.672614	-0.341037	-0.098367
N179	N	1.005948	-0.007704	0.234966
N180	N	1.339281	0.325630	0.568300
C181	C	0.711414	-0.372829	-0.046630
C182	C	1.044747	-0.039496	0.286704
C183	C	1.378080	0.293838	0.620037
C184	C	0.633840	-0.760845	-0.150080
C185	C	0.967174	-0.427512	0.183254
C186	C	1.300507	-0.094178	0.516587
C187	C	0.633848	-0.824450	-0.150083
C188	C	0.967181	-0.491117	0.183250
C189	C	1.300514	-0.157784	0.516584
C190	C	0.711445	-0.824428	-0.046606
C191	C	1.044778	-0.491095	0.286728
C192	C	1.378111	-0.157762	0.620061
C193	C	0.711440	-0.760822	-0.046607
C194	C	1.044773	-0.427488	0.286727
C195	C	1.378106	-0.094155	0.620060
C196	C	0.672635	-0.729031	-0.098343
C197	C	1.005968	-0.395697	0.234990
C198	C	1.339301	-0.062364	0.568323
C199	C	0.711407	-0.239258	-0.046647
C200	C	1.044740	0.094076	0.286686
C201	C	1.378073	0.427409	0.620019
C202	C	0.711403	-0.175649	-0.046660
C203	C	1.044736	0.157685	0.286673
C204	C	1.378069	0.491018	0.620006
C205	C	0.633804	-0.175676	-0.150134
C206	C	0.967137	0.157657	0.183199
C207	C	1.300471	0.490990	0.516532
C208	C	0.633810	-0.239280	-0.150124
C209	C	0.967143	0.094054	0.183209
C210	C	1.300476	0.427387	0.516542
C211	C	0.672613	-0.271069	-0.098375
C212	C	1.005947	0.062265	0.234959
C213	C	1.339280	0.395598	0.568292
O214	O	0.600853	-0.339914	-0.194095
O215	O	0.934186	-0.006581	0.139238
O216	O	1.267520	0.326752	0.472571
O217	O	0.744401	-0.339920	-0.002626
O218	O	1.077734	-0.006587	0.330708
O219	O	1.411067	0.326747	0.664041
C220	C	0.776754	-0.000060	-0.092042
C221	C	1.110087	0.333273	0.241292
C222	C	1.443421	0.666606	0.574625
C223	C	0.839975	-0.000062	-0.093045
C224	C	1.173309	0.333272	0.240288
C225	C	1.506642	0.666605	0.573621
C226	C	0.676971	-0.000058	0.040036
C227	C	1.010305	0.333275	0.373369
C228	C	1.343638	0.666609	0.706703
C229	C	0.675964	-0.000058	0.124049
C230	C	1.009297	0.333275	0.457382
C231	C	1.342631	0.666608	0.790715
N232	N	0.672645	0.143752	-0.098343
N233	N	1.005978	0.477085	0.234991
N234	N	1.339312	0.810419	0.568324
C235	C	0.668273	-0.000045	-0.236782
C236	C	1.001606	0.333288	0.096551
C237	C	1.334939	0.666622	0.429884
C238	C	0.669280	-0.000041	-0.320795
C239	C	1.002613	0.333292	0.012538
C240	C	1.335947	0.666626	0.345872
C241	C	0.727383	-0.000064	0.172942
C242	C	1.060716	0.333270	0.506275
C243	C	1.394050	0.666603	0.839609
C244	C	0.726433	-0.000058	0.251880
C245	C	1.059767	0.333275	0.585214
C246	C	1.393100	0.666608	0.918547
C247	C	0.674064	-0.000052	0.281924
C248	C	1.007397	0.333282	0.615257
C249	C	1.340730	0.666615	0.948590
C250	C	0.622641	-0.000044	0.233024
C251	C	0.955974	0.333289	0.566358
C252	C	1.289307	0.666622	0.899691
C253	C	0.623591	-0.000046	0.154088
C254	C	0.956925	0.333288	0.487421
C255	C	1.290258	0.666621	0.820754
C256	C	0.618807	-0.000039	0.551367
C257	C	0.952140	0.333294	0.884700
C258	C	1.285473	0.666627	1.218034
C259	C	0.617860	-0.000040	0.630310
C260	C	0.951194	0.333293	0.963643
C261	C	1.284527	0.666627	1.296977
C262	C	0.721649	-0.000052	0.649160
C263	C	1.054982	0.333281	0.982493
C264	C	1.388316	0.666615	1.315827
C265	C	0.722599	-0.000053	0.570223
C266	C	1.055933	0.333280	0.903556
C267	C	1.389266	0.666614	1.236890
C268	C	0.671177	-0.000043	0.521331
C269	C	1.004510	0.333291	0.854664
C270	C	1.337843	0.666624	1.187997
C271	C	0.672207	-0.000047	0.435737
C272	C	1.005540	0.333286	0.769070
C273	C	1.338874	0.666619	1.102403
C274	C	0.673033	-0.000051	0.367516
C275	C	1.006366	0.333282	0.700849
C276	C	1.339699	0.666615	1.034183
H277	H	-0.154498	0.099882	-0.093121
H278	H	0.178835	0.433215	0.240212
H279	H	0.512168	0.766549	0.573545
H280	H	-0.046743	0.099891	-0.094833
H281	H	0.286590	0.433224	0.238500
H282	H	0.619923	0.766558	0.571833
N283	N	0.232651	0.166400	-0.099289
N284	N	0.565984	0.499733	0.234044
N285	N	0.899318	0.833067	0.567377
N286	N	0.206119	0.215571	-0.098856
N287	N	0.539452	0.548904	0.234478
N288	N	0.872785	0.882238	0.567811
H289	H	0.227532	0.255321	-0.099192
H290	H	0.560865	0.588654	0.234141
H291	H	0.894198	0.921988	0.567474
H292	H	0.499759	0.099901	-0.103595
H293	H	0.833093	0.433235	0.229738
H294	H	1.166426	0.766568	0.563071
H295	H	0.768304	-0.000064	0.291687
H296	H	1.101637	0.333269	0.625020
H297	H	1.434971	0.666603	0.958353
H298	H	0.602216	-0.149781	-0.192261
H299	H	0.935549	0.183552	0.141073
H300	H	1.268882	0.516885	0.474406
H301	H	0.781811	-0.442331	0.047237
H302	H	1.115144	-0.108997	0.380571
H303	H	1.448478	0.224336	0.713904
N304	N	0.776098	-0.000065	0.539548
N305	N	1.109432	0.333268	0.872881
N306	N	1.442765	0.666601	1.206215
N307	N	0.822006	-0.000070	0.583212
N308	N	1.155339	0.333264	0.916546
N309	N	1.488672	0.666597	1.249879
H310	H	0.859791	-0.000077	0.561550
H311	H	1.193124	0.333256	0.894883
H312	H	1.526458	0.666589	1.228217
H313	H	0.118754	0.154978	-0.097474
H314	H	0.452087	0.488311	0.235859
H315	H	0.785420	0.821645	0.569192
H316	H	0.391982	-0.099984	-0.101903
H317	H	0.725315	0.233350	0.231430
H318	H	1.058648	0.566683	0.564764
H319	H	0.499733	-0.099979	-0.103643
H320	H	0.833066	0.233355	0.229690
H321	H	1.166400	0.566688	0.563023
H322	H	0.602242	-0.734964	-0.192216
H323	H	0.935575	-0.401630	0.141117
H324	H	1.268909	-0.068297	0.474451
H325	H	0.770028	-0.000073	0.148487
H326	H	1.103362	0.333261	0.481821
H327	H	1.436695	0.666594	0.815154
N328	N	0.232626	-0.166492	-0.099325
N329	N	0.565959	0.166841	0.234008
N330	N	0.899293	0.500175	0.567342
N331	N	0.206089	-0.215664	-0.098895
N332	N	0.539422	0.117669	0.234438
N333	N	0.872755	0.451002	0.567772
H334	H	0.227499	-0.255413	-0.099230
H335	H	0.560832	0.077920	0.234104
H336	H	0.894165	0.411253	0.567437
N337	N	0.751063	-0.856919	0.006255
N338	N	1.084396	-0.523586	0.339588
N339	N	1.417730	-0.190253	0.672921
N340	N	0.751047	-0.913710	0.006255
N341	N	1.084381	-0.580377	0.339588
N342	N	1.417714	-0.247043	0.672922
H343	H	0.779022	-0.936659	0.043591
H344	H	1.112355	-0.603326	0.376924
H345	H	1.445688	-0.269993	0.710257
N346	N	-0.040571	-0.111400	-0.094992
N347	N	0.292763	0.221933	0.238342
N348	N	0.626096	0.555267	0.571675
N349	N	-0.012747	-0.123675	-0.148882
N350	N	0.320586	0.209658	0.184452
N351	N	0.653920	0.542992	0.517785
H352	H	0.008689	-0.163406	-0.149240
H353	H	0.342023	0.169927	0.184093
H354	H	0.675356	0.503261	0.517426
H355	H	0.581720	-0.000041	0.114279
H356	H	0.915054	0.333292	0.447612
H357	H	1.248387	0.666626	0.780945
N358	N	0.112577	-0.166490	-0.097399
N359	N	0.445910	0.166843	0.235934
N360	N	0.779243	0.500176	0.569267
N361	N	0.139103	-0.215665	-0.097828
N362	N	0.472436	0.117668	0.235505
N363	N	0.805770	0.451001	0.568839
H364	H	0.117685	-0.255412	-0.097485
H365	H	0.451019	0.077921	0.235849
H366	H	0.784352	0.411255	0.569182
N367	N	-0.160669	-0.111412	-0.093066
N368	N	0.172664	0.221921	0.240268
N369	N	0.505998	0.555254	0.573601
N370	N	-0.199146	-0.123700	-0.145893
N371	N	0.134188	0.209633	0.187440
N372	N	0.467521	0.542967	0.520773
H373	H	-0.220581	-0.163437	-0.145561
H374	H	0.112753	0.169896	0.187772
H375	H	0.446086	0.503230	0.521105
N376	N	0.385842	0.111322	-0.101769
N377	N	0.719175	0.444656	0.231564
N378	N	1.052508	0.777989	0.564897
N379	N	0.412376	0.160497	-0.102190
N380	N	0.745709	0.493831	0.231144
N381	N	1.079042	0.827164	0.564477
H382	H	0.390964	0.200244	-0.101841
H383	H	0.724297	0.533578	0.231492
H384	H	1.057630	0.866911	0.564825
N385	N	0.774173	-0.000063	0.699115
N386	N	1.107506	0.333270	1.032448
N387	N	1.440839	0.666604	1.365781
N388	N	0.773321	-0.000062	0.769593
N389	N	1.106654	0.333271	1.102926
N390	N	1.439987	0.666605	1.436259
H391	H	0.810414	-0.000072	0.804873
H392	H	1.143748	0.333261	1.138206
H393	H	1.477081	0.666594	1.471539
H394	H	0.563422	-0.557757	-0.243950
H395	H	0.896755	-0.224424	0.089384
H396	H	1.230089	0.108910	0.422717
N397	N	0.555370	-0.435791	-0.254671
N398	N	0.888703	-0.102458	0.078662
N399	N	1.222036	0.230875	0.411995
N400	N	0.520732	-0.464207	-0.300854
N401	N	0.854066	-0.130873	0.032480
N402	N	1.187399	0.202460	0.365813
H403	H	0.492733	-0.441281	-0.338182
H404	H	0.826066	-0.107948	-0.004848
H405	H	1.159400	0.225385	0.328485
N406	N	0.569141	-0.000049	0.263698
N407	N	0.902474	0.333284	0.597031
N408	N	1.235808	0.666618	0.930364
N409	N	0.523235	-0.000049	0.220031
N410	N	0.856568	0.333285	0.553365
N411	N	1.189902	0.666618	0.886698
H412	H	0.485449	-0.000056	0.241692
H413	H	0.818782	0.333277	0.575025
H414	H	1.152115	0.666611	0.908359
H415	H	0.743001	-0.149750	-0.004532
H416	H	1.076334	0.183583	0.328801
H417	H	1.409668	0.516916	0.662135
N418	N	0.751045	-0.271714	0.006221
N419	N	1.084378	0.061620	0.339554
N420	N	1.417711	0.394953	0.672887
N421	N	0.785679	-0.243293	0.052402
N422	N	1.119012	0.090040	0.385735
N423	N	1.452346	0.423373	0.719068
H424	H	0.813675	-0.266215	0.089738
H425	H	1.147009	0.067119	0.423071
H426	H	1.480342	0.400452	0.756405
H427	H	0.602220	-0.265181	-0.192259
H428	H	0.935553	0.068153	0.141075
H429	H	1.268887	0.401486	0.474408
N430	N	0.789857	-0.564290	0.057977
N431	N	1.123190	-0.230956	0.391310
N432	N	1.456524	0.102377	0.724643
N433	N	0.824489	-0.535867	0.104158
N434	N	1.157823	-0.202534	0.437491
N435	N	1.491156	0.130799	0.770825
H436	H	0.852489	-0.558787	0.141493
H437	H	1.185822	-0.225454	0.474826
H438	H	1.519155	0.107880	0.808159
N439	N	0.751040	-0.728322	0.006273
N440	N	1.084374	-0.394989	0.339606
N441	N	1.417707	-0.061656	0.672940
N442	N	0.750325	-0.735431	0.076219
N443	N	1.083658	-0.402098	0.409553
N444	N	1.416991	-0.068765	0.742886
H445	H	0.778282	-0.712475	0.113578
H446	H	1.111616	-0.379142	0.446911
H447	H	1.444949	-0.045809	0.780244
N448	N	0.594218	-0.856931	-0.202945
N449	N	0.927551	-0.523598	0.130389
N450	N	1.260885	-0.190264	0.463722
N451	N	0.559583	-0.828530	-0.249135
N452	N	0.892916	-0.495196	0.084199
N453	N	1.226249	-0.161863	0.417532
H454	H	0.531591	-0.851467	-0.286469
H455	H	0.864924	-0.518133	0.046864
H456	H	1.198258	-0.184800	0.380198
N457	N	0.564358	-0.000037	0.660987
N458	N	0.897691	0.333297	0.994320
N459	N	1.231025	0.666630	1.327654
N460	N	0.518449	-0.000029	0.617326
N461	N	0.851783	0.333305	0.950659
N462	N	1.185116	0.666638	1.283993
H463	H	0.480665	-0.000028	0.638991
H464	H	0.813998	0.333305	0.972325
H465	H	1.147332	0.666639	1.305658
H466	H	0.576935	-0.000031	0.511568
H467	H	0.910268	0.333302	0.844901
H468	H	1.243602	0.666636	1.178234
