data_functionalizedCrystal
_audit_creation_method	'MofGen! by Chris Wilmer'
_symmetry_space_group_name_H-M	'P1'
_symmetry_Int_Tables_number	1
_symmetry_cell_setting	triclinic
loop_
_symmetry_equiv_pos_as_xyz
  x,y,z
_cell_length_a	12.594516
_cell_length_b	10.685912
_cell_length_c	10.685314
_cell_angle_alpha	89.640079
_cell_angle_beta	85.661335
_cell_angle_gamma	85.618922
loop_
_atom_site_label
_atom_site_type_symbol
_atom_site_fract_x
_atom_site_fract_y
_atom_site_fract_z
Zn1	Zn	-0.358638	-1.863579	0.856630
Zn2	Zn	-0.522070	-1.879530	0.646869
Zn3	Zn	-0.356611	-1.669866	0.630770
Zn4	Zn	-0.549086	-1.653768	0.840468
O5	O	-0.446601	-1.766686	0.743684
O6	O	-0.369859	-2.041246	0.842306
O7	O	-0.487967	-1.865131	0.469189
O8	O	-0.207932	-1.695623	0.660757
O9	O	-0.489932	-2.052966	0.688196
O10	O	-0.209421	-1.837943	0.826695
O11	O	-0.366405	-1.711091	0.457360
O12	O	-0.392602	-1.492179	0.645085
O13	O	-0.535977	-1.668187	1.018156
O14	O	-0.534012	-1.480352	0.799149
O15	O	-0.396056	-1.822334	1.030030
O16	O	-0.674601	-1.849522	0.672524
O17	O	-0.694450	-1.683655	0.814760
C18	C	-0.466020	-1.440747	0.718617
C19	C	-0.474355	-1.301306	0.707923
C20	C	-0.723146	-1.766605	0.743665
C21	C	-0.841449	-1.766681	0.743708
C22	C	-0.921533	-1.676463	0.821011
C23	C	-0.986262	-1.654672	0.704198
C24	C	-0.987514	-1.788585	0.860549
C25	C	-0.904619	-1.744835	0.626830
C26	C	-0.905867	-1.878795	0.783262
C27	C	-0.970556	-1.857054	0.666374
C28	C	-0.168976	-1.766800	0.743733
C29	C	-0.050669	-1.766848	0.743754
C30	C	-0.469256	-1.741686	1.070883
C31	C	-0.478910	-1.731032	1.210316
C32	C	-0.427099	-1.093899	0.768838
C33	C	-0.418766	-1.233339	0.779528
C34	C	-0.423953	-1.791661	0.417764
C35	C	-0.413985	-1.802557	0.278350
H36	H	-0.364792	-1.281833	0.849010
C37	C	-0.891960	-1.573243	0.909167
H38	H	-0.919593	-1.493697	0.880872
H39	H	-0.921571	-1.587961	0.991884
H40	H	-0.816459	-1.574379	0.909107
C41	C	-0.547260	-1.235819	0.614053
H42	H	-0.581011	-1.297155	0.570558
H43	H	-0.600032	-1.181039	0.658072
H44	H	-0.505704	-1.188870	0.555595
H45	H	-0.541884	-1.661640	1.258744
H46	H	-0.351004	-1.871931	1.229926
C47	C	-1.033760	-1.526695	0.659020
H48	H	-1.017259	-1.462622	0.714016
H49	H	-1.004255	-1.510572	0.576565
H50	H	-1.109077	-1.527931	0.658637
H51	H	-0.868540	-1.726265	0.528002
H52	H	-0.992233	-1.933426	0.600940
H53	H	-1.023726	-1.807045	0.959342
C54	C	-0.858381	-2.006761	0.828460
H55	H	-0.886900	-2.022145	0.911513
H56	H	-0.876014	-2.071022	0.774390
H57	H	-0.782935	-2.006057	0.827386
