data_functionalizedCrystal
_audit_creation_method	'MofGen! by Chris Wilmer'
_symmetry_space_group_name_H-M	'P1'
_symmetry_Int_Tables_number	1
_symmetry_cell_setting	triclinic
loop_
_symmetry_equiv_pos_as_xyz
  x,y,z
_cell_length_a	19.805407
_cell_length_b	12.645330
_cell_length_c	19.805407
_cell_angle_alpha	90.008258
_cell_angle_beta	90.002724
_cell_angle_gamma	90.017692
loop_
_atom_site_label
_atom_site_type_symbol
_atom_site_fract_x
_atom_site_fract_y
_atom_site_fract_z
Zn1	Zn	1.034664	-0.422205	0.382747
Zn2	Zn	1.034629	-0.599441	0.269570
Zn3	Zn	0.921512	-0.422192	0.269572
Zn4	Zn	0.921459	-0.599427	0.382717
O5	O	0.978066	-0.510816	0.326152
O6	O	1.129376	-0.445727	0.367746
O7	O	1.019632	-0.575930	0.174854
O8	O	0.936558	-0.273847	0.284598
O9	O	1.129351	-0.575942	0.284596
O10	O	1.019691	-0.273856	0.367747
O11	O	0.936525	-0.445706	0.174855
O12	O	0.826789	-0.445692	0.284569
O13	O	0.936469	-0.575917	0.477438
O14	O	0.826750	-0.575905	0.367696
O15	O	1.019640	-0.445713	0.477460
O16	O	1.019581	-0.747787	0.284567
O17	O	0.936435	-0.747776	0.367695
C18	C	0.802210	-0.510796	0.326130
C19	C	0.726978	-0.510813	0.326136
C20	C	0.691632	-0.578717	0.369351
C21	C	0.620943	-0.578719	0.369360
C22	C	0.585603	-0.510821	0.326152
C23	C	0.620954	-0.442910	0.282935
C24	C	0.691641	-0.442903	0.282930
C25	C	0.335881	-0.442933	0.282958
C26	C	0.265189	-0.442947	0.282965
C27	C	0.265183	-0.578749	0.369388
C28	C	0.335870	-0.578742	0.369383
C29	C	0.371215	-0.510827	0.326169
C30	C	0.447864	-0.510825	0.326160
C31	C	0.508956	-0.510828	0.326157
C32	C	0.978017	-0.786246	0.326142
C33	C	0.978058	-0.904076	0.326161
C34	C	0.925966	-1.071677	0.378618
C35	C	0.925700	-0.949118	0.378449
C36	C	0.958772	-0.948638	0.254828
C37	C	0.958454	-1.071236	0.255147
C38	C	1.049753	-1.071174	0.344457
C39	C	1.049313	-0.948568	0.346017
C40	C	1.154609	-0.510837	0.326174
C41	C	1.229841	-0.510846	0.326183
C42	C	0.978052	-0.510815	0.502694
C43	C	0.978046	-0.510814	0.577926
C44	C	0.978134	-0.234311	0.326176
C45	C	0.978163	-0.116481	0.326186
C46	C	1.021343	-0.578636	1.039714
C47	C	1.021337	-0.578637	0.969026
C48	C	0.978066	-0.510835	0.933688
C49	C	0.934793	-0.443036	0.969042
C50	C	0.934796	-0.443042	1.039729
C51	C	0.934779	-0.443014	0.683969
C52	C	0.934781	-0.443012	0.613277
C53	C	1.021321	-0.578609	0.613265
C54	C	1.021324	-0.578614	0.683953
C55	C	0.978048	-0.510820	0.719301
C56	C	0.978054	-0.510821	0.795949
C57	C	0.978063	-0.510828	0.857041
C58	C	0.978074	-0.510841	1.150296
C59	C	0.978075	-0.510840	1.075064
H60	H	0.937763	-0.918988	0.431342
H61	H	0.899557	-0.387836	0.940264
C62	C	0.887709	-0.369493	1.078025
C63	C	0.820736	-0.392552	1.060812
C64	C	0.777338	-0.324814	1.096068
H65	H	0.893814	-0.379140	1.125194
H66	H	0.897590	-0.298247	1.066435
H67	H	0.810858	-0.463781	1.072405
H68	H	0.814610	-0.382899	1.013648
H69	H	0.787219	-0.253568	1.084479
H70	H	0.783449	-0.334466	1.143236
H71	H	0.731893	-0.340444	1.084389
C72	C	1.068260	-0.652401	0.574971
C73	C	1.053509	-0.757285	0.592171
C74	C	1.096741	-0.825286	0.556916
H75	H	1.062103	-0.642838	0.527801
H76	H	1.113753	-0.636954	0.586571
H77	H	1.008027	-0.772726	0.580567
H78	H	1.059670	-0.766881	0.639335
H79	H	1.142234	-0.809839	0.568516
H80	H	1.090580	-0.815714	0.509748
H81	H	1.086742	-0.896456	0.568586
H82	H	0.720420	-0.387603	0.247744
C83	C	0.582476	-0.652508	0.416165
C84	C	0.541864	-0.720337	0.377766
C85	C	0.506411	-0.788319	0.420860
H86	H	0.613566	-0.693054	0.441912
H87	H	0.554873	-0.612060	0.445693
H88	H	0.569465	-0.760781	0.348249
H89	H	0.510762	-0.679821	0.352020
H90	H	0.478808	-0.747871	0.450388
H91	H	0.537506	-0.828857	0.446605
H92	H	0.478847	-0.834342	0.394813
H93	H	0.899542	-0.387796	0.584507
H94	H	0.937919	-1.101113	0.431684
H95	H	1.090248	-0.917901	0.310609
C96	C	0.887904	-0.369362	0.722435
C97	C	0.926235	-0.301439	0.763048
C98	C	0.883072	-0.233591	0.798505
H99	H	0.862114	-0.328877	0.691347
H100	H	0.858419	-0.409901	0.750038
H101	H	0.955708	-0.260904	0.735447
H102	H	0.952023	-0.341894	0.794148
H103	H	0.853586	-0.274130	0.826108
H104	H	0.857284	-0.193114	0.767413
H105	H	0.909072	-0.187504	0.826070
H106	H	0.720401	-0.634011	0.404534
C107	C	0.888624	-1.109283	0.234533
C108	C	0.847118	-1.021885	0.221905
C109	C	0.782782	-1.056887	0.202924
H110	H	0.892014	-1.151113	0.194838
H111	H	0.869740	-1.150471	0.269930
H112	H	0.865997	-0.980715	0.186511
H113	H	0.843708	-0.980046	0.261591
H114	H	0.763898	-1.098075	0.238321
H115	H	0.786179	-1.098717	0.163230
H116	H	0.754610	-0.997593	0.194360
H117	H	0.364641	-0.634035	0.404565
H118	H	1.063857	-0.919441	0.398514
H119	H	1.056562	-0.633856	0.940248
C120	C	0.226685	-0.652363	0.416288
C121	C	0.157215	-0.637820	0.407063
C122	C	0.121732	-0.705605	0.450259
H123	H	0.238175	-0.723608	0.406345
H124	H	0.238241	-0.636950	0.461795
H125	H	0.145663	-0.653241	0.361566
H126	H	0.145705	-0.566589	0.417011
H127	H	0.133289	-0.690191	0.495766
H128	H	0.133228	-0.776846	0.440312
H129	H	0.074594	-0.695740	0.444010
C130	C	0.374372	-0.369250	0.236108
C131	C	0.443841	-0.383748	0.245360
C132	C	0.479323	-0.315879	0.202217
H133	H	0.362859	-0.384594	0.190589
H134	H	0.362837	-0.298025	0.246096
H135	H	0.455372	-0.454957	0.235367
H136	H	0.455375	-0.368397	0.290870
H137	H	0.467788	-0.244654	0.212205
H138	H	0.467805	-0.331229	0.156700
H139	H	0.526462	-0.325700	0.208492
H140	H	1.088640	-1.100144	0.306269
C141	C	1.068197	-0.652281	0.722409
C142	C	1.029861	-0.720206	0.762998
C143	C	1.073018	-0.788072	0.798441
H144	H	1.093984	-0.692762	0.691312
H145	H	1.097686	-0.611754	0.750026
H146	H	1.000384	-0.760729	0.735383
H147	H	1.004075	-0.679754	0.794107
H148	H	1.102506	-0.747545	0.826058
H149	H	1.098803	-0.828546	0.767339
H150	H	1.047014	-0.834160	0.825989
C151	C	0.582709	-0.369075	0.235996
C152	C	0.628796	-0.309586	0.198162
C153	C	0.593591	-0.241550	0.154918
H154	H	0.555122	-0.409441	0.206403
H155	H	0.555158	-0.322894	0.261924
H156	H	0.656336	-0.355761	0.172236
H157	H	0.656384	-0.269198	0.227737
H158	H	0.566040	-0.195369	0.180846
H159	H	0.566006	-0.281924	0.125329
H160	H	0.624856	-0.201171	0.129247
H161	H	1.056583	-0.633843	1.068481
H162	H	0.873224	-1.102573	0.366668
C163	C	0.226939	-0.369103	0.236028
C164	C	0.273022	-0.309602	0.198196
C165	C	0.237811	-0.241561	0.154959
H166	H	0.199352	-0.409466	0.206434
H167	H	0.199388	-0.322929	0.261962
H168	H	0.300561	-0.355769	0.172264
H169	H	0.300610	-0.269217	0.227772
H170	H	0.210260	-0.195388	0.180893
H171	H	0.210225	-0.281933	0.125369
H172	H	0.269072	-0.201175	0.129289
C173	C	0.854879	-0.910270	0.362396
C174	C	0.809912	-0.947699	0.411433
C175	C	0.744663	-0.911948	0.396658
H176	H	0.854367	-0.835157	0.362249
H177	H	0.841628	-0.935761	0.319258
H178	H	0.823160	-0.922202	0.454561
H179	H	0.810403	-1.022808	0.411588
H180	H	0.731411	-0.937439	0.353519
H181	H	0.744158	-0.836836	0.396511
H182	H	0.714144	-0.937346	0.429923
C183	C	1.006945	-1.110558	0.201218
C184	C	1.036400	-1.023925	0.168495
C185	C	1.081060	-1.060101	0.118804
H186	H	1.041229	-1.152211	0.221636
H187	H	0.982968	-1.152199	0.169280
H188	H	1.060376	-0.982301	0.200427
H189	H	1.002133	-0.982262	0.148062
H190	H	1.057084	-1.101743	0.086866
H191	H	1.115341	-1.101755	0.139227
H192	H	1.101047	-1.001327	0.096590
H193	H	0.995586	-0.919461	0.214695
C194	C	1.073125	-1.112184	0.412703
C195	C	1.027071	-1.081105	0.462526
C196	C	1.048576	-1.118852	0.525406
H197	H	1.075679	-1.187169	0.411459
H198	H	1.116400	-1.083867	0.422808
H199	H	0.983808	-1.109426	0.452423
H200	H	1.024511	-1.006125	0.463791
H201	H	1.091850	-1.090535	0.535511
H202	H	1.051129	-1.193836	0.524155
H203	H	1.017335	-1.097763	0.559219
H204	H	0.906986	-0.918019	0.239071
