data_functionalizedCrystal
_audit_creation_method	'MofGen! by Chris Wilmer'
_symmetry_space_group_name_H-M	'P1'
_symmetry_Int_Tables_number	1
_symmetry_cell_setting	triclinic
loop_
_symmetry_equiv_pos_as_xyz
  x,y,z
_cell_length_a	12.811415
_cell_length_b	14.044220
_cell_length_c	11.295692
_cell_angle_alpha	94.226647
_cell_angle_beta	89.158222
_cell_angle_gamma	88.595932
loop_
_atom_site_label
_atom_site_type_symbol
_atom_site_fract_x
_atom_site_fract_y
_atom_site_fract_z
O1	O	0.244475	1.251473	-0.125291
O2	O	0.744475	1.751473	0.374709
O3	O	0.235406	0.975523	-0.124342
O4	O	0.735406	1.475523	0.375658
O5	O	0.088926	1.121383	-0.108503
O6	O	0.588926	1.621383	0.391497
O7	O	0.390955	1.105613	-0.141130
O8	O	0.890955	1.605613	0.358870
O9	O	0.102514	1.132718	0.088074
O10	O	0.602514	1.632718	0.588074
O11	O	0.248994	0.986858	0.072235
O12	O	0.748994	1.486858	0.572235
O13	O	0.258063	1.262808	0.071286
O14	O	0.758063	1.762808	0.571286
Cu15	Cu	0.254770	1.125868	0.089710
Cu16	Cu	0.754770	1.625868	0.589710
Cu17	Cu	0.238700	1.112463	-0.142766
Cu18	Cu	0.738700	1.612463	0.357234
O19	O	0.404543	1.116948	0.055447
O20	O	0.904543	1.616948	0.555447
C21	C	0.238231	0.945885	-0.025629
C22	C	0.738231	1.445885	0.474371
C23	C	0.226392	0.840685	-0.024362
C24	C	0.726392	1.340685	0.475638
C25	C	0.204750	0.648074	-0.022000
C26	C	0.704750	1.148074	0.478000
C27	C	0.288714	0.590251	-0.031066
C28	C	0.788714	1.090251	0.468934
C29	C	0.276672	0.483076	-0.029752
C30	C	0.776672	0.983076	0.470248
C31	C	0.216790	0.755259	-0.023314
C32	C	0.716790	1.255259	0.476686
C33	C	0.056834	1.126515	-0.006017
C34	C	0.556834	1.626515	0.493983
C35	C	-0.059038	1.124906	0.006492
C36	C	0.440962	1.624906	0.506492
C37	C	-0.291578	1.109507	-0.184336
C38	C	0.208422	1.609507	0.315664
C39	C	-0.400450	1.107995	-0.172589
C40	C	0.099550	1.607995	0.327411
C41	C	-0.385656	1.120364	0.041733
C42	C	0.114344	1.620364	0.541733
C43	C	-0.276784	1.121875	0.029985
C44	C	0.223216	1.621875	0.529985
C45	C	-0.229749	1.116448	-0.083053
C46	C	0.270251	1.616448	0.416947
C47	C	-0.120875	1.117967	-0.094799
C48	C	0.379125	1.617967	0.405201
C49	C	-0.106083	1.130328	0.119521
C50	C	0.393917	1.630328	0.619521
C51	C	-0.214955	1.128816	0.131269
C52	C	0.285045	1.628816	0.631269
C53	C	0.436636	1.111816	-0.047042
C54	C	0.936636	1.611816	0.452958
C55	C	0.552507	1.113425	-0.059558
C56	C	1.052507	1.613425	0.440442
C57	C	0.255238	1.292446	-0.027430
C58	C	0.755238	1.792446	0.472570
C59	C	0.267077	1.397646	-0.028705
C60	C	0.767077	1.897646	0.471295
N61	N	0.266072	1.135303	0.253220
N62	N	0.766072	1.635303	0.753220
N63	N	0.227390	1.103035	-0.306276
N64	N	0.727390	1.603035	0.193724
C65	C	0.347487	1.203370	0.431411
C66	C	0.847487	1.703370	0.931411
C67	C	0.338939	1.196210	0.307675
C68	C	0.838939	1.696210	0.807675
C69	C	0.201751	1.081551	0.322512
C70	C	0.701751	1.581551	0.822512
C71	C	0.210299	1.088711	0.446248
C72	C	0.710299	1.588711	0.946248
C73	C	0.283169	1.149623	0.500694
C74	C	0.783169	1.649623	1.000694
C75	C	0.291711	1.156788	0.624433
C76	C	0.791711	1.656788	1.124433
C77	C	0.154529	1.042125	0.639267
C78	C	0.654529	1.542125	1.139267
C79	C	0.145981	1.034965	0.515531
C80	C	0.645981	1.534965	1.015531
H81	H	0.123829	0.617088	-0.013252
H82	H	0.623829	1.117088	0.486748
C83	C	-0.038061	1.137966	0.230941
C84	C	0.461939	1.637966	0.730941
N85	N	0.013173	1.143722	0.314859
N86	N	0.513173	1.643722	0.814859
H87	H	0.391316	1.239973	0.251269
H88	H	0.891316	1.739973	0.751269
H89	H	0.351043	1.206388	0.668760
H90	H	0.851043	1.706388	1.168760
C91	C	0.083773	0.983000	0.715489
C92	C	0.583773	1.483000	1.215489
N93	N	0.030480	0.938471	0.772900
N94	N	0.530480	1.438471	1.272900
H95	H	-0.082582	1.113551	-0.186840
H96	H	0.417418	1.613551	0.313160
H97	H	0.406814	1.252973	0.475742
H98	H	0.906814	1.752973	0.975742
H99	H	0.369642	0.621239	-0.039814
H100	H	0.869642	1.121239	0.460186
C101	C	0.121336	1.014818	0.262629
C102	C	0.621336	1.514818	0.762629
N103	N	0.060668	0.964652	0.217534
N104	N	0.560668	1.464652	0.717534
C105	C	-0.266705	1.134782	0.255604
C106	C	0.233295	1.634782	0.755604
N107	N	-0.305683	1.139277	0.349256
N108	N	0.194317	1.639277	0.849256
H109	H	0.086655	0.985369	0.471184
H110	H	0.586655	1.485369	0.971184
H111	H	-0.253282	1.105097	-0.276376
H112	H	0.246718	1.605097	0.223624
H113	H	-0.450788	1.102340	-0.255065
H114	H	0.049212	1.602340	0.244935
H115	H	-0.423970	1.124774	0.133763
H116	H	0.076030	1.624774	0.633763
