data_functionalizedCrystal
_audit_creation_method	'MofGen! by Chris Wilmer'
_symmetry_space_group_name_H-M	'P1'
_symmetry_Int_Tables_number	1
_symmetry_cell_setting	triclinic
loop_
_symmetry_equiv_pos_as_xyz
  x,y,z
_cell_length_a	17.699083
_cell_length_b	9.130307
_cell_length_c	10.654536
_cell_angle_alpha	89.985985
_cell_angle_beta	96.117501
_cell_angle_gamma	89.995487
loop_
_atom_site_label
_atom_site_type_symbol
_atom_site_fract_x
_atom_site_fract_y
_atom_site_fract_z
O1	O	1.005080	0.121629	-0.158804
O2	O	0.784832	0.121681	-0.179466
O3	O	0.900023	0.121604	0.013694
O4	O	0.889889	0.121706	-0.351964
O5	O	0.900019	-0.121995	0.013695
O6	O	0.784829	-0.121918	-0.179464
O7	O	1.005076	-0.121970	-0.158803
Cu8	Cu	0.894952	-0.144187	-0.169133
Cu9	Cu	0.894956	0.143897	-0.169135
O10	O	0.889886	-0.121893	-0.351962
C11	C	0.756629	-0.000112	-0.178725
C12	C	0.672597	-0.000095	-0.176503
N13	N	0.894954	-0.346809	-0.169131
C14	C	0.624695	-0.000064	-0.289884
C15	C	0.545738	-0.000083	-0.287790
C16	C	0.514685	-0.000123	-0.172313
C17	C	0.562593	-0.000159	-0.058924
C18	C	0.641548	-0.000150	-0.061020
C19	C	0.244176	-0.000197	-0.050470
C20	C	0.165215	-0.000202	-0.048383
C21	C	0.148366	-0.000131	-0.277240
C22	C	0.227322	-0.000122	-0.279335
C23	C	0.275223	-0.000165	-0.165947
C24	C	0.360836	-0.000147	-0.168219
C25	C	0.429073	-0.000131	-0.170040
C26	C	0.996997	-0.346868	0.001863
C27	C	1.048024	-0.423563	0.087356
C28	C	1.048032	-0.576897	0.087357
C29	C	0.997006	-0.653538	0.001858
C30	C	0.945979	-0.576842	-0.083635
C31	C	0.945979	-0.423505	-0.083629
C32	C	0.843933	-0.576784	-0.254621
C33	C	0.843928	-0.423451	-0.254630
C34	C	0.792907	-0.653425	-0.340120
C35	C	0.741883	-0.576729	-0.425621
C36	C	0.741878	-0.423387	-0.425619
C37	C	0.792902	-0.346755	-0.340123
C38	C	1.033280	-0.000174	-0.159544
C39	C	1.117312	-0.000182	-0.161765
C40	C	0.899278	-0.000205	0.060480
C41	C	0.897055	-0.000233	0.199885
N42	N	0.894960	0.346520	-0.169128
C43	C	1.034795	-0.000288	0.230267
C44	C	1.102617	-0.000333	0.310948
C45	C	1.100524	-0.000357	0.441930
C46	C	1.030601	-0.000332	0.492231
C47	C	0.962779	-0.000287	0.411550
C48	C	0.964879	-0.000267	0.280567
C49	C	0.825041	-0.000221	0.381168
C50	C	0.827132	-0.000208	0.250186
C51	C	0.755118	-0.000196	0.431469
C52	C	0.687294	-0.000162	0.350787
C53	C	0.689390	-0.000139	0.219798
C54	C	0.759310	-0.000163	0.169504
C55	C	0.890633	-0.000137	0.601253
C56	C	0.892863	-0.000266	0.461850
H57	H	0.649972	-0.000030	-0.383918
N58	N	0.260807	-0.000065	-0.403890
H59	H	0.243389	-0.090354	-0.453554
H60	H	0.318087	-0.000004	-0.387916
H61	H	0.109355	-0.000104	-0.369566
H62	H	1.028903	-0.000334	0.598885
H63	H	0.139935	-0.000237	0.045657
N64	N	0.494072	-0.000215	-0.410078
H65	H	0.525725	-0.000233	-0.483548
H66	H	0.460896	0.090031	-0.414287
H67	H	0.680550	-0.000174	0.031306
H68	H	0.792905	-0.221903	-0.340119
H69	H	0.283169	-0.000234	0.041858
H70	H	1.089568	-0.361149	0.156971
H71	H	0.700324	-0.360949	-0.495234
N72	N	1.103064	-0.659630	0.179565
H73	H	1.135388	-0.587818	0.233729
H74	H	1.136768	-0.723231	0.131541
N75	N	0.529105	-0.000226	0.065628
H76	H	0.471818	-0.000226	0.049754
H77	H	0.546579	0.090061	0.115240
H78	H	0.753419	-0.000207	0.538123
N79	N	0.996987	-0.181488	0.001843
H80	H	1.048498	-0.144550	-0.016335
H81	H	0.985508	-0.144685	0.087160
N82	N	0.997004	-0.818918	0.001858
H83	H	0.985555	-0.855874	0.087163
H84	H	1.048528	-0.855737	-0.016363
H85	H	1.155751	-0.000382	0.507622
H86	H	0.700338	-0.639140	-0.495223
H87	H	1.159547	-0.000366	0.269978
H88	H	1.036506	-0.000288	0.123616
H89	H	0.792913	-0.778277	-0.340110
H90	H	0.630369	-0.000132	0.391754
N91	N	0.616238	-0.000077	0.132780
H92	H	0.571630	-0.000062	0.184526
H93	H	0.614096	-0.090373	0.077780
H94	H	0.761023	-0.000153	0.062854
