data_functionalizedCrystal
_audit_creation_method	'MofGen! by Chris Wilmer'
_symmetry_space_group_name_H-M	'P1'
_symmetry_Int_Tables_number	1
_symmetry_cell_setting	triclinic
loop_
_symmetry_equiv_pos_as_xyz
  x,y,z
_cell_length_a	19.288864
_cell_length_b	15.995350
_cell_length_c	17.766277
_cell_angle_alpha	89.995869
_cell_angle_beta	89.976791
_cell_angle_gamma	83.314311
loop_
_atom_site_label
_atom_site_type_symbol
_atom_site_fract_x
_atom_site_fract_y
_atom_site_fract_z
O1	O	0.921624	0.104452	-0.062832
O2	O	0.719400	0.118542	-0.062780
O3	O	0.826040	-0.010412	-0.062807
O4	O	0.814984	0.233405	-0.062805
O5	O	0.826021	-0.010418	0.062382
O6	O	0.719381	0.118535	0.062408
O7	O	0.921605	0.104445	0.062357
Cu8	Cu	0.820492	0.111490	0.073813
Cu9	Cu	0.820514	0.111497	-0.074237
O10	O	0.814965	0.233399	0.062383
C11	C	0.693513	0.118085	-0.000179
C12	C	0.616406	0.116724	-0.000159
C13	C	0.571906	0.192388	-0.000171
C14	C	0.499456	0.191110	-0.000179
C15	C	0.471508	0.114163	-0.000191
C16	C	0.516018	0.038489	-0.000176
C17	C	0.588467	0.039769	-0.000160
C18	C	0.363096	0.053676	-0.044076
C19	C	0.290648	0.052398	-0.044097
C20	C	0.248053	0.110209	-0.000237
C21	C	0.277912	0.169312	0.043634
C22	C	0.350361	0.170593	0.043650
C23	C	0.392951	0.112765	-0.000208
C24	C	0.124993	0.184492	-0.000256
C25	C	0.052542	0.183210	-0.000260
C26	C	0.069106	0.030587	-0.000264
C27	C	0.141556	0.031871	-0.000253
C28	C	0.169495	0.108826	-0.000252
C29	C	0.825574	-0.041608	-0.000214
C30	C	0.824203	-0.134553	-0.000218
C31	C	0.819282	-0.472282	-0.000214
C32	C	0.743335	-0.424562	-0.000475
C33	C	0.744706	-0.327877	-0.000193
C34	C	0.821723	-0.304731	-0.000216
C35	C	0.859172	-0.345953	0.071262
C36	C	0.857264	-0.442582	0.071322
C37	C	0.858855	-0.442939	-0.071041
C38	C	0.858837	-0.345993	-0.071986
C39	C	0.823107	-0.210039	-0.000215
C40	C	0.817901	-0.566975	-0.000210
C41	C	0.947492	0.104902	-0.000246
C42	C	1.024600	0.106263	-0.000271
C43	C	0.815432	0.264595	-0.000211
C44	C	0.816802	0.357540	-0.000212
N45	N	0.820481	0.111484	0.177944
N46	N	0.820530	0.111497	-0.178367
C47	C	0.867717	0.054411	0.217319
C48	C	0.867721	0.054407	0.296120
C49	C	0.820496	0.111490	0.335544
C50	C	0.773251	0.168567	0.296160
C51	C	0.773244	0.168564	0.217359
C52	C	0.811395	0.187781	0.460384
C53	C	0.811407	0.187785	0.539183
C54	C	0.820514	0.111500	0.578590
C55	C	0.829624	0.035208	0.539190
C56	C	0.829617	0.035204	0.460389
C57	C	0.820498	0.111500	0.420990
C58	C	0.867757	0.054419	0.703411
C59	C	0.867756	0.054414	0.782215
C60	C	0.773290	0.168581	0.782252
C61	C	0.773288	0.168579	0.703451
C62	C	0.820525	0.111499	0.664035
H63	H	0.594649	0.255051	-0.000172
C64	C	0.409944	-0.009921	-0.092332
N65	N	0.445230	-0.057820	-0.128678
H66	H	0.734836	0.215056	0.814350
C67	C	0.919692	-0.008372	0.339442
N68	N	0.958840	-0.055653	0.372069
C69	C	0.257810	-0.012620	-0.092349
N70	N	0.233079	-0.061596	-0.128692
C71	C	0.820343	-0.467172	0.143522
N72	N	0.792531	-0.485688	0.197903
C73	C	0.721374	0.231425	0.660136
N74	N	0.682286	0.278782	0.627512
C75	C	0.934717	-0.325533	-0.077838
N76	N	0.991873	-0.310126	-0.082238
H77	H	0.016310	0.244828	-0.000265
C78	C	0.825318	-0.470552	-0.144232
N79	N	0.800050	-0.491349	-0.199356
C80	C	0.704930	-0.289323	-0.069409
N81	N	0.674966	-0.260288	-0.121543
C82	C	0.919710	-0.008389	0.825527
N83	N	0.958840	-0.055696	0.858151
C84	C	0.702505	-0.450855	0.068422
N85	N	0.671757	-0.470653	0.120322
H86	H	0.837032	-0.026916	0.428312
H87	H	0.734799	0.215044	0.328262
C88	C	0.801380	0.271708	0.582516
N89	N	0.793822	0.334921	0.615153
C90	C	0.932590	-0.486434	0.075693
N91	N	0.989324	-0.519460	0.078991
C92	C	0.038368	-0.054056	-0.000276
N93	N	0.015213	-0.117812	-0.000284
C94	C	0.702331	-0.449448	-0.069716
N95	N	0.671445	-0.468200	-0.121869
H96	H	0.177789	-0.029743	-0.000247
H97	H	0.374670	0.218713	0.079373
H98	H	0.837040	-0.026911	0.571273
H99	H	0.243232	0.216387	0.079349
C100	C	0.485275	-0.046153	-0.000190
N101	N	0.462119	-0.109909	-0.000198
H102	H	0.906218	0.007938	0.671318
H103	H	0.803967	0.249906	0.428305
H104	H	0.734778	0.215040	0.185299
H105	H	0.624700	-0.021848	-0.000151
H106	H	0.906178	0.007931	0.185229
C107	C	0.824010	-0.307490	0.143144
N108	N	0.797520	-0.278521	0.197284
C109	C	0.450497	0.274349	-0.000201
N110	N	0.413623	0.337046	-0.000221
C111	C	0.704650	-0.290082	0.069167
N112	N	0.674480	-0.261616	0.121413
H113	H	0.831457	-0.318638	-0.124863
C114	C	0.155729	0.269143	-0.000247
N115	N	0.178876	0.332903	-0.000238
H116	H	0.915755	-0.332041	0.073903
C117	C	0.934500	-0.486136	-0.071716
N118	N	0.991473	-0.518678	-0.072220
