data_functionalizedCrystal
_audit_creation_method	'MofGen! by Chris Wilmer'
_symmetry_space_group_name_H-M	'P1'
_symmetry_Int_Tables_number	1
_symmetry_cell_setting	triclinic
loop_
_symmetry_equiv_pos_as_xyz
  x,y,z
_cell_length_a	14.044220
_cell_length_b	14.044220
_cell_length_c	12.503572
_cell_angle_alpha	86.156832
_cell_angle_beta	86.160255
_cell_angle_gamma	86.811123
loop_
_atom_site_label
_atom_site_type_symbol
_atom_site_fract_x
_atom_site_fract_y
_atom_site_fract_z
O1	O	1.282207	-0.225110	-0.089324
O2	O	1.005535	-0.216804	-0.089326
O3	O	1.139717	-0.082622	-0.089314
O4	O	1.148024	-0.359292	-0.089336
O5	O	1.129628	-0.092731	0.089327
O6	O	0.995445	-0.226913	0.089315
O7	O	1.272117	-0.235219	0.089317
Cu8	Cu	1.132860	-0.231989	0.105627
Cu9	Cu	1.144792	-0.220034	-0.105636
O10	O	1.137934	-0.369402	0.089305
C11	C	0.964868	-0.218223	-0.000006
C12	C	0.858726	-0.207378	-0.000007
C13	C	1.131037	-0.052055	0.000007
C14	C	1.120192	0.054088	0.000008
C15	C	1.312784	-0.233800	-0.000005
C16	C	1.418927	-0.244644	-0.000012
C17	C	1.613264	-0.264470	-0.000012
C18	C	1.664394	-0.187556	-0.000006
C19	C	1.772530	-0.198588	-0.000006
C20	C	1.505118	-0.253440	-0.000012
C21	C	1.146615	-0.399968	-0.000018
C22	C	1.157460	-0.506111	-0.000026
N23	N	1.124474	-0.240398	0.254219
C24	C	1.100367	0.248427	-0.000008
C25	C	1.177281	0.299557	-0.000010
C26	C	1.166250	0.407693	-0.000019
C27	C	1.111396	0.140280	0.000001
N28	N	1.153185	-0.211618	-0.254228
C29	C	1.112139	-0.252777	0.473333
C30	C	1.165517	-0.199243	0.526665
C31	C	1.158653	-0.206130	0.648587
C32	C	1.119001	-0.245890	0.351399
H33	H	1.626959	-0.113419	-0.000078
H34	H	1.216370	-0.148239	0.480756
H35	H	1.650702	-0.338598	-0.000019
H36	H	1.251419	0.262121	-0.000082
C37	C	1.043450	-0.321685	0.535341
C38	C	1.035916	-0.327890	0.659022
C39	C	0.967231	-0.396801	0.721044
C40	C	0.906080	-0.459507	0.659384
C41	C	0.913612	-0.453305	0.535695
C42	C	0.982297	-0.384394	0.473673
H43	H	1.081186	-0.281468	0.704673
H44	H	0.961656	-0.401392	0.812607
H45	H	0.855236	-0.510520	0.705296
H46	H	0.868342	-0.499726	0.490044
H47	H	0.987872	-0.379803	0.382110
C48	C	1.000221	0.298997	-0.000011
C49	C	0.989190	0.408705	-0.000017
C50	C	0.889046	0.459288	-0.000019
C51	C	0.799933	0.400163	-0.000014
C52	C	0.810962	0.290449	-0.000007
C53	C	0.911106	0.239865	-0.000006
H54	H	1.055159	0.452478	-0.000021
H55	H	0.880882	0.540506	-0.000024
H56	H	0.725801	0.437608	-0.000015
H57	H	0.744993	0.246675	-0.000003
H58	H	0.919270	0.158647	-0.000001
