data_functionalizedCrystal
_audit_creation_method	'MofGen! by Chris Wilmer'
_symmetry_space_group_name_H-M	'P1'
_symmetry_Int_Tables_number	1
_symmetry_cell_setting	triclinic
loop_
_symmetry_equiv_pos_as_xyz
  x,y,z
_cell_length_a	19.121063
_cell_length_b	17.077404
_cell_length_c	17.077396
_cell_angle_alpha	90.021457
_cell_angle_beta	92.408800
_cell_angle_gamma	87.531824
loop_
_atom_site_label
_atom_site_type_symbol
_atom_site_fract_x
_atom_site_fract_y
_atom_site_fract_z
Zn1	Zn	-0.279630	-1.186696	-0.457193
Zn2	Zn	0.053703	-0.853363	-0.123860
Zn3	Zn	0.387036	-0.520030	0.209474
Zn4	Zn	-0.397087	-1.180992	-0.331518
Zn5	Zn	-0.063754	-0.847659	0.001816
Zn6	Zn	0.269579	-0.514326	0.335149
Zn7	Zn	-0.279653	-1.055427	-0.325938
Zn8	Zn	0.053681	-0.722094	0.007396
Zn9	Zn	0.387014	-0.388760	0.340729
Zn10	Zn	-0.397043	-1.049787	-0.462735
Zn11	Zn	-0.063710	-0.716454	-0.129401
Zn12	Zn	0.269623	-0.383120	0.203932
O13	O	-0.338354	-1.118226	-0.394346
O14	O	-0.005020	-0.784892	-0.061012
O15	O	0.328313	-0.451559	0.272321
O16	O	-0.295220	-1.295786	-0.440538
O17	O	0.038113	-0.962453	-0.107205
O18	O	0.371446	-0.629120	0.226129
O19	O	-0.381537	-1.164309	-0.220932
O20	O	-0.048204	-0.830976	0.112402
O21	O	0.285129	-0.497642	0.445735
O22	O	-0.181365	-1.077588	-0.338695
O23	O	0.151968	-0.744254	-0.005361
O24	O	0.485301	-0.410921	0.327972
O25	O	-0.381516	-1.291595	-0.348205
O26	O	-0.048182	-0.958262	-0.014871
O27	O	0.285151	-0.624929	0.318462
O28	O	-0.181349	-1.174031	-0.435127
O29	O	0.151984	-0.840697	-0.101794
O30	O	0.485318	-0.507364	0.231539
O31	O	-0.295259	-1.072057	-0.216832
O32	O	0.038075	-0.738723	0.116501
O33	O	0.371408	-0.405390	0.449835
O34	O	-0.295216	-0.944832	-0.344068
O35	O	0.038117	-0.611499	-0.010735
O36	O	0.371451	-0.278166	0.322599
O37	O	-0.381441	-1.067975	-0.571845
O38	O	-0.048107	-0.734642	-0.238512
O39	O	0.285226	-0.401309	0.094821
O40	O	-0.381462	-0.940689	-0.444572
O41	O	-0.048129	-0.607355	-0.111239
O42	O	0.285204	-0.274022	0.222095
O43	O	-0.295178	-1.168562	-0.567774
O44	O	0.038156	-0.835229	-0.234441
O45	O	0.371489	-0.501895	0.098893
O46	O	-0.495366	-1.158840	-0.353578
O47	O	-0.162033	-0.825507	-0.020245
O48	O	0.171301	-0.492174	0.313088
O49	O	-0.495334	-1.062444	-0.449983
O50	O	-0.162000	-0.729111	-0.116649
O51	O	0.171333	-0.395778	0.216684
C52	C	-0.338337	-0.914279	-0.394316
C53	C	-0.005004	-0.580945	-0.060983
C54	C	0.328329	-0.247612	0.272350
C55	C	-0.338347	-0.827028	-0.394323
C56	C	-0.005014	-0.493695	-0.060990
C57	C	0.328319	-0.160362	0.272343
C58	C	-0.383323	-0.783898	-0.446577
C59	C	-0.049989	-0.450565	-0.113244
C60	C	0.283344	-0.117231	0.220090
C61	C	-0.383323	-0.701918	-0.446587
C62	C	-0.049989	-0.368584	-0.113253
C63	C	0.283344	-0.035251	0.220080
C64	C	-0.338350	-0.663069	-0.394338
C65	C	-0.005017	-0.329735	-0.061005
C66	C	0.328316	0.003598	0.272328
C67	C	-0.293370	-0.706205	-0.342082
C68	C	0.039963	-0.372872	-0.008749
C69	C	0.373297	-0.039539	0.324585
C70	C	-0.293367	-0.788184	-0.342077
C71	C	0.039967	-0.454851	-0.008743
C72	C	0.373300	-0.121518	0.324590
C73	C	-0.293381	-0.535335	-0.342096
C74	C	0.039953	-0.202001	-0.008762
C75	C	0.373286	0.131332	0.324571
C76	C	-0.293385	-0.453350	-0.342100
C77	C	0.039949	-0.120017	-0.008766
C78	C	0.373282	0.213317	0.324567
C79	C	-0.383337	-0.449068	-0.446606
C80	C	-0.050003	-0.115735	-0.113272
C81	C	0.283330	0.217599	0.220061
C82	C	-0.383334	-0.531047	-0.446600
C83	C	-0.050000	-0.197714	-0.113267
C84	C	0.283333	0.135620	0.220066
C85	C	-0.338354	-0.574178	-0.394343
C86	C	-0.005021	-0.240844	-0.061010
C87	C	0.328313	0.092489	0.272324
C88	C	-0.520834	-1.109433	-0.403004
C89	C	-0.187501	-0.776099	-0.069671
C90	C	0.145833	-0.442766	0.263662
C91	C	-0.598900	-1.105743	-0.406735
C92	C	-0.265567	-0.772409	-0.073402
C93	C	0.067767	-0.439076	0.259932
C94	C	-0.635569	-1.154236	-0.358336
C95	C	-0.302236	-0.820903	-0.025003
C96	C	0.031098	-0.487570	0.308330
C97	C	-0.708920	-1.150771	-0.361850
C98	C	-0.375587	-0.817437	-0.028516
C99	C	-0.042253	-0.484104	0.304817
C100	C	-0.745601	-1.098807	-0.413758
C101	C	-0.412268	-0.765474	-0.080424
C102	C	-0.078934	-0.432140	0.252909
C103	C	-0.708927	-1.050311	-0.462162
C104	C	-0.375593	-0.716978	-0.128828
C105	C	-0.042260	-0.383645	0.204505
C106	C	-0.635577	-1.053781	-0.458652
C107	C	-0.302244	-0.720448	-0.125319
C108	C	0.031090	-0.387115	0.208015
C109	C	-0.967071	-1.085820	-0.426868
C110	C	-0.633737	-0.752487	-0.093534
C111	C	-0.300404	-0.419153	0.239799
C112	C	-1.040426	-1.082352	-0.430372
C113	C	-0.707092	-0.749018	-0.097039
C114	C	-0.373759	-0.415685	0.236295
C115	C	-1.040414	-1.182813	-0.330061
C116	C	-0.707080	-0.849479	0.003273
C117	C	-0.373747	-0.516146	0.336606
C118	C	-0.967063	-1.186275	-0.326552
C119	C	-0.633729	-0.852942	0.006781
C120	C	-0.300396	-0.519608	0.340115
C121	C	-0.930395	-1.137782	-0.374959
C122	C	-0.597061	-0.804449	-0.041625
C123	C	-0.263728	-0.471116	0.291708
C124	C	-0.820578	-1.095261	-0.417348
C125	C	-0.487244	-0.761928	-0.084015
C126	C	-0.153911	-0.428595	0.249318
C127	C	-0.855419	-1.141332	-0.371372
C128	C	-0.522086	-0.807999	-0.038038
C129	C	-0.188753	-0.474666	0.295295
C130	C	-0.155161	-1.127075	-0.385670
C131	C	0.178173	-0.793741	-0.052337
C132	C	0.511506	-0.460408	0.280996
C133	C	-0.077095	-1.130845	-0.381973
C134	C	0.256239	-0.797512	-0.048640
C135	C	0.589572	-0.464179	0.284693
C136	C	-0.338302	-1.118276	-0.599088
C137	C	-0.004968	-0.784942	-0.265754
C138	C	0.328365	-0.451609	0.067579
C139	C	-0.338280	-1.118297	-0.686336
C140	C	-0.004946	-0.784964	-0.353003
C141	C	0.328387	-0.451630	-0.019670
C142	C	-0.338366	-0.322969	-0.394367
C143	C	-0.005033	0.010364	-0.061034
C144	C	0.328301	0.343697	0.272300
C145	C	-0.338360	-0.410219	-0.394354
C146	C	-0.005027	-0.076886	-0.061020
C147	C	0.328307	0.256447	0.272313
C148	C	-0.293359	-1.170674	-0.725208
C149	C	0.039974	-0.837341	-0.391874
C150	C	0.373308	-0.504008	-0.058541
C151	C	-0.293336	-1.170685	-0.807187
C152	C	0.039998	-0.837352	-0.473854
C153	C	0.373331	-0.504018	-0.140520
C154	C	-0.338237	-1.118321	-0.850294
C155	C	-0.004904	-0.784988	-0.516961
C156	C	0.328430	-0.451655	-0.183627
C157	C	-0.383160	-1.065938	-0.811417
C158	C	-0.049826	-0.732605	-0.478084
C159	C	0.283507	-0.399272	-0.144750
C160	C	-0.383179	-1.065924	-0.729439
C161	C	-0.049846	-0.732591	-0.396106
C162	C	0.283488	-0.399258	-0.062772
C163	C	-0.383118	-1.065972	-0.982285
C164	C	-0.049784	-0.732639	-0.648952
C165	C	0.283549	-0.399305	-0.315618
C166	C	-0.383099	-1.065986	-1.064269
C167	C	-0.049766	-0.732653	-0.730936
C168	C	0.283567	-0.399320	-0.397602
C169	C	-0.293274	-1.170732	-1.060033
C170	C	0.040059	-0.837399	-0.726700
C171	C	0.373393	-0.504066	-0.393367
C172	C	-0.293293	-1.170719	-0.978055
C173	C	0.040040	-0.837385	-0.644722
C174	C	0.373373	-0.504052	-0.311389
C175	C	-0.338217	-1.118336	-0.939184
C176	C	-0.004884	-0.785003	-0.605851
C177	C	0.328449	-0.451670	-0.272517
C178	C	-0.338354	-1.118224	-0.190398
C179	C	-0.005021	-0.784890	0.142935
C180	C	0.328312	-0.451557	0.476269
C181	C	-0.338179	-1.118364	-0.103140
C182	C	-0.004845	-0.785030	0.230193
C183	C	0.328488	-0.451697	0.563526
H184	H	-0.419959	-0.413947	-0.489158
H185	H	-0.086625	-0.080614	-0.155824
H186	H	0.246708	0.252720	0.177509
H187	H	-0.738773	-1.190259	-0.322438
H188	H	-0.405440	-0.856926	0.010896
H189	H	-0.072106	-0.523592	0.344229
H190	H	-0.605722	-1.014294	-0.498064
H191	H	-0.272388	-0.680960	-0.164731
H192	H	0.060945	-0.347627	0.168603
H193	H	-0.256756	-0.421722	-0.299563
H194	H	0.076578	-0.088389	0.033770
H195	H	0.409911	0.244945	0.367103
O196	O	-0.431568	-1.009468	-0.940361
O197	O	-0.098234	-0.676135	-0.607028
O198	O	0.235099	-0.342801	-0.273695
H199	H	-0.467311	-1.042865	-0.904705
H200	H	-0.133977	-0.709532	-0.571372
H201	H	0.199356	-0.376198	-0.238038
H202	H	-0.419661	-1.023346	-1.099364
H203	H	-0.086327	-0.690012	-0.766031
H204	H	0.247006	-0.356679	-0.432698
O205	O	-0.431619	-1.009422	-0.687507
O206	O	-0.098286	-0.676089	-0.354173
O207	O	0.235047	-0.342756	-0.020840
H208	H	-0.462840	-0.973013	-0.731252
H209	H	-0.129507	-0.639679	-0.397919
H210	H	0.203827	-0.306346	-0.064586
H211	H	-0.256758	-1.213338	-0.838832
H212	H	0.076575	-0.880004	-0.505499
H213	H	0.409908	-0.546671	-0.172166
H214	H	-0.256735	-1.213362	-0.942960
H215	H	0.076599	-0.880029	-0.609627
H216	H	0.409932	-0.546695	-0.276293
O217	O	-0.927536	-1.033493	-0.479059
O218	O	-0.594203	-0.700160	-0.145726
O219	O	-0.260870	-0.366826	0.187607
H220	H	-0.941572	-1.046238	-0.541354
H221	H	-0.608239	-0.712905	-0.208020
H222	H	-0.274905	-0.379571	0.125313
H223	H	-0.419717	-1.023300	-0.846521
H224	H	-0.086383	-0.689967	-0.513188
H225	H	0.246950	-0.356633	-0.179854
H226	H	-0.937198	-1.228588	-0.284284
H227	H	-0.603865	-0.895255	0.049049
H228	H	-0.270532	-0.561921	0.382382
O229	O	-0.431826	-0.825799	-0.502934
O230	O	-0.098493	-0.492465	-0.169601
O231	O	0.234841	-0.159132	0.163733
H232	H	-0.463094	-0.782031	-0.539277
H233	H	-0.129761	-0.448698	-0.205943
H234	H	0.203572	-0.115365	0.127390
H235	H	-0.256750	-0.674568	-0.299544
H236	H	0.076584	-0.341235	0.033790
H237	H	0.409917	-0.007902	0.367123
H238	H	-1.070277	-1.222294	-0.290652
H239	H	-0.736943	-0.888960	0.042682
H240	H	-0.403610	-0.555627	0.376015
O241	O	-0.748484	-0.994253	-0.518142
O242	O	-0.415151	-0.660920	-0.184808
O243	O	-0.081818	-0.327587	0.148525
H244	H	-0.805650	-0.999977	-0.512443
H245	H	-0.472317	-0.666644	-0.179110
H246	H	-0.138983	-0.333310	0.154223
O247	O	-0.244875	-0.581859	-0.285727
O248	O	0.088459	-0.248525	0.047606
O249	O	0.421792	0.084808	0.380940
H250	H	-0.213610	-0.541073	-0.249387
H251	H	0.119723	-0.207740	0.083946
H252	H	0.453056	0.125593	0.417279
O253	O	-0.244864	-0.834703	-0.285706
O254	O	0.088469	-0.501370	0.047627
O255	O	0.421803	-0.168036	0.380960
H256	H	-0.189757	-0.821623	-0.296648
H257	H	0.143577	-0.488289	0.036685
H258	H	0.476910	-0.154956	0.370018
O259	O	-0.431964	-0.655470	-0.502869
O260	O	-0.098631	-0.322137	-0.169536
O261	O	0.234703	0.011197	0.163797
H262	H	-0.420093	-0.671794	-0.563963
H263	H	-0.086760	-0.338460	-0.230630
H264	H	0.246574	-0.005127	0.102704
O265	O	-0.431835	-0.572951	-0.502957
O266	O	-0.098501	-0.239618	-0.169624
O267	O	0.234832	0.093716	0.163709
H268	H	-0.486945	-0.554557	-0.492018
H269	H	-0.153611	-0.221224	-0.158685
H270	H	0.179722	0.112109	0.174649
O271	O	-0.596007	-1.210287	-0.302353
O272	O	-0.262673	-0.876953	0.030981
O273	O	0.070660	-0.543620	0.364314
H274	H	-0.633831	-1.243431	-0.269296
H275	H	-0.300498	-0.910098	0.064038
H276	H	0.032836	-0.576764	0.397371
H277	H	-1.070289	-1.040046	-0.472656
H278	H	-0.736956	-0.706713	-0.139322
H279	H	-0.403622	-0.373379	0.194011
O280	O	-0.815857	-1.197388	-0.315398
O281	O	-0.482524	-0.864054	0.017935
O282	O	-0.149190	-0.530721	0.351268
H283	H	-0.782487	-1.163858	-0.273831
H284	H	-0.449154	-0.830525	0.059502
H285	H	-0.115821	-0.497192	0.392836
H286	H	-0.850451	-1.052951	-0.459611
H287	H	-0.517118	-0.719617	-0.126277
H288	H	-0.183785	-0.386284	0.207056
H289	H	-0.256797	-1.213317	-0.690116
H290	H	0.076536	-0.879984	-0.356783
H291	H	0.409870	-0.546651	-0.023449
H292	H	-0.256694	-1.213383	-1.091686
H293	H	0.076639	-0.880049	-0.758353
H294	H	0.409972	-0.546716	-0.425019
