data_functionalizedCrystal
_audit_creation_method	'MofGen! by Chris Wilmer'
_symmetry_space_group_name_H-M	'P1'
_symmetry_Int_Tables_number	1
_symmetry_cell_setting	triclinic
loop_
_symmetry_equiv_pos_as_xyz
  x,y,z
_cell_length_a	10.489746
_cell_length_b	10.489716
_cell_length_c	9.565339
_cell_angle_alpha	90.004273
_cell_angle_beta	89.999333
_cell_angle_gamma	84.535218
loop_
_atom_site_label
_atom_site_type_symbol
_atom_site_fract_x
_atom_site_fract_y
_atom_site_fract_z
O1	O	1.694033	0.179992	-0.116152
O2	O	1.322837	0.196878	-0.116174
O3	O	1.516898	0.002836	-0.116168
O4	O	1.499972	0.374035	-0.116159
O5	O	1.516882	0.002848	0.116352
O6	O	1.322822	0.196890	0.116346
O7	O	1.694018	0.180004	0.116368
Zn8	Zn	1.508417	0.188449	0.153274
Zn9	Zn	1.508438	0.188433	-0.153081
O10	O	1.499957	0.374047	0.116361
C11	C	1.275298	0.195608	0.000083
C12	C	1.133669	0.191788	0.000074
C13	C	0.980822	0.066063	0.000090
C14	C	1.058203	0.128926	0.114732
C15	C	1.058174	0.128944	-0.114514
C16	C	0.958701	0.247909	0.114844
C17	C	0.958666	0.247909	-0.114505
C18	C	1.035998	0.310860	0.000165
C19	C	1.515618	-0.044690	0.000088
C20	C	1.511814	-0.186322	0.000075
C21	C	1.630818	-0.283993	0.000095
C22	C	1.567941	-0.361361	-0.114550
C23	C	1.567898	-0.361313	0.114697
C24	C	1.448986	-0.261824	-0.114664
C25	C	1.448961	-0.261771	0.114685
C26	C	1.385997	-0.339089	0.000013
C27	C	1.741557	0.181275	0.000108
C28	C	1.883186	0.185095	0.000108
C29	C	1.501236	0.421573	0.000103
C30	C	1.505041	0.563204	0.000106
N31	N	1.508413	0.188459	0.362354
N32	N	1.508452	0.188413	-0.362160
C33	C	1.418638	0.278168	0.453554
C34	C	1.534133	0.303980	0.546741
C35	C	1.392968	0.162657	0.546722
C36	C	1.623966	0.214330	0.453489
C37	C	1.482725	0.072956	0.453462
C38	C	1.598302	0.098721	0.546607
H39	H	1.060465	0.414440	0.000230
H40	H	0.956111	-0.037440	0.000203
H41	H	1.721634	0.236251	0.412707
H42	H	1.398784	-0.218526	-0.211695
H43	H	1.295323	0.140853	0.587680
H44	H	0.915168	0.298108	-0.211431
H45	H	1.460935	-0.024672	0.412459
H46	H	1.101677	0.078682	0.211654
H47	H	1.618153	-0.404780	0.211617
H48	H	1.674322	0.022834	0.587208
H49	H	0.915411	0.298129	0.211878
H50	H	1.101627	0.078667	-0.211438
H51	H	1.398762	-0.218248	0.211608
H52	H	1.342789	0.354102	0.412696
H53	H	1.555887	0.401639	0.587712
H54	H	1.734331	-0.259315	-0.000015
H55	H	1.618184	-0.404860	-0.211470
H56	H	1.282406	-0.363522	-0.000055
