data_functionalizedCrystal
_audit_creation_method	'MofGen! by Chris Wilmer'
_symmetry_space_group_name_H-M	'P1'
_symmetry_Int_Tables_number	1
_symmetry_cell_setting	triclinic
loop_
_symmetry_equiv_pos_as_xyz
  x,y,z
_cell_length_a	23.096457
_cell_length_b	20.016444
_cell_length_c	20.016444
_cell_angle_alpha	90.002879
_cell_angle_beta	60.002889
_cell_angle_gamma	60.004171
loop_
_atom_site_label
_atom_site_type_symbol
_atom_site_fract_x
_atom_site_fract_y
_atom_site_fract_z
Zr1	Zr	0.633752	-0.087641	0.643598
O2	O	0.754529	-0.194307	0.536929
O3	O	0.512969	-0.054946	0.676296
O4	O	0.633749	-0.194313	0.676299
O5	O	0.633754	0.055000	0.536927
O6	O	0.633754	-0.194313	0.786239
O7	O	0.633749	-0.054940	0.536926
O8	O	0.417700	0.054989	0.786233
O9	O	0.849807	-0.194302	0.536932
O10	O	0.562655	-0.040997	0.772291
O11	O	0.562655	0.041050	0.690244
O12	O	0.704858	-0.123037	0.690248
O13	O	0.704858	-0.040990	0.608201
Zr14	Zr	0.633767	0.087701	0.818941
Zr15	Zr	0.633759	-0.087641	0.818940
Zr16	Zr	0.633759	0.087701	0.643599
Zr17	Zr	0.785710	-0.087633	0.643603
Zr18	Zr	0.481809	0.087693	0.818936
O19	O	0.754550	0.055006	0.786243
O20	O	0.754540	-0.194307	0.786242
O21	O	0.754540	0.055006	0.536930
O22	O	0.512990	0.194367	0.925610
O23	O	0.512979	-0.054946	0.925609
O24	O	0.512979	0.194367	0.676297
O25	O	0.633765	-0.054940	0.925612
O26	O	0.633770	0.194373	0.786240
O27	O	0.633765	0.194373	0.676300
O28	O	0.633770	0.055000	0.925613
O29	O	0.849813	-0.194302	0.676305
O30	O	0.417706	0.194362	0.786234
O31	O	0.417712	0.194362	0.925607
O32	O	0.417706	0.054989	0.925606
O33	O	0.849813	-0.054929	0.536933
O34	O	0.849819	-0.054929	0.676306
O35	O	0.562661	0.123097	0.772291
O36	O	0.562661	0.041050	0.854338
O37	O	0.704864	-0.040990	0.772295
O38	O	0.704864	0.041057	0.690248
C39	C	0.443684	0.000021	0.731264
C40	C	0.379174	0.000018	0.731262
C41	C	0.633750	0.000030	0.511944
C42	C	0.633747	0.000030	0.437507
C43	C	0.633769	0.219355	0.731270
C44	C	0.633772	0.293792	0.731271
C45	C	0.348873	-0.042813	0.774084
C46	C	0.288251	-0.042806	0.774092
C47	C	0.257943	0.000020	0.731262
C48	C	0.288248	0.042860	0.688438
C49	C	0.348864	0.042859	0.688438
N50	N	0.195545	-0.005919	0.661564
N51	N	0.137964	-0.005922	0.661566
C52	C	0.075311	0.000027	0.731261
N53	N	0.072422	0.005964	0.800954
N54	N	0.130011	0.005963	0.800951
C55	C	0.192216	0.000026	0.731258
C56	C	-0.020724	-0.042798	0.774096
C57	C	-0.081351	-0.042786	0.774106
C58	C	-0.081346	0.042875	0.688444
C59	C	-0.020726	0.042868	0.688442
C60	C	0.009584	0.000027	0.731266
C61	C	0.823835	0.000039	0.731275
C62	C	0.888345	0.000042	0.731277
C63	C	0.633750	-0.219295	0.731269
C64	C	0.633747	-0.293732	0.731268
C65	C	0.707991	0.422235	0.688442
C66	C	0.707987	0.492181	0.688439
C67	C	0.559523	0.577823	0.774098
C68	C	0.559527	0.507878	0.774096
C69	C	0.633763	0.430085	0.731269
C70	C	0.633756	0.569975	0.731270
C71	C	0.633751	0.645813	0.731267
C72	C	0.633768	0.354242	0.731270
C73	C	0.559528	0.042856	0.309066
C74	C	0.559532	0.042858	0.239120
C75	C	0.707996	-0.042798	0.153475
C76	C	0.707992	-0.042794	0.223419
C77	C	0.633756	0.000031	0.301214
C78	C	0.633763	0.000029	0.161325
C79	C	0.633768	0.000031	0.085487
C80	C	0.633751	0.000030	0.377057
C81	C	0.633769	0.000030	0.950595
C82	C	0.633772	0.000030	1.025032
C83	C	0.443693	0.000020	0.950589
C84	C	0.379186	0.000017	1.025024
C85	C	0.443693	0.219346	0.731265
C86	C	0.379186	0.293780	0.731263
C87	C	0.443702	0.219346	0.950590
C88	C	0.379198	0.293780	1.025026
C89	C	0.823817	-0.219286	0.511949
C90	C	0.888320	-0.293720	0.437513
C91	C	0.823826	0.000039	0.511950
C92	C	0.888333	0.000043	0.437515
C93	C	0.823826	-0.219286	0.731274
C94	C	0.888333	-0.293720	0.731276
C95	C	0.348890	-0.042819	1.017152
C96	C	0.288287	-0.042839	1.087085
C97	C	0.257978	-0.000016	1.164890
C98	C	0.288281	0.042821	1.172760
C99	C	0.348886	0.042835	1.102828
C100	C	0.348897	0.371570	0.774090
C101	C	0.288294	0.441515	0.774086
C102	C	0.257978	0.433669	0.731258
C103	C	0.288274	0.355871	0.688426
C104	C	0.348879	0.285927	0.688426
C105	C	0.348907	0.285907	1.102816
C106	C	0.288307	0.355838	1.172763
C107	C	0.257996	0.433642	1.164917
C108	C	0.288294	0.441513	1.087118
C109	C	0.348896	0.371582	1.017173
C110	C	0.918619	-0.285847	0.359723
C111	C	0.979238	-0.355779	0.289776
C112	C	1.009552	-0.433582	0.297622
C113	C	0.979251	-0.441454	0.375421
C114	C	0.918637	-0.371523	0.445365
C115	C	0.918636	0.042872	0.445387
C116	C	0.979255	0.042872	0.375454
C117	C	1.009566	0.000047	0.297649
C118	C	0.979261	-0.042787	0.289779
C119	C	0.918647	-0.042792	0.359711
C120	C	0.918629	-0.285847	0.774112
C121	C	0.979232	-0.355779	0.774129
C122	C	1.009542	-0.433583	0.731306
C123	C	0.979239	-0.441454	0.688469
C124	C	0.918633	-0.371523	0.688456
H125	H	0.373548	-0.077695	0.808956
N126	N	0.257293	0.347878	0.644685
N127	N	0.203178	0.410340	0.644703
H128	H	0.181292	0.404698	0.613815
N129	N	0.483703	0.086613	0.247155
N130	N	0.417430	0.124847	0.316620
H131	H	0.363872	0.155753	0.322298
N132	N	0.483701	0.657290	0.817874
N133	N	0.434021	0.678138	0.893390
H134	H	0.380472	0.734264	0.924315
N135	N	0.483708	0.515881	0.817834
N136	N	0.467151	0.486402	0.780546
H137	H	0.413607	0.492051	0.811430
H138	H	0.893961	0.077750	0.508733
N139	N	0.196074	0.505071	1.236369
N140	N	0.128426	0.555401	1.248473
H141	H	0.084690	0.605846	1.298938
H142	H	0.893961	-0.222502	0.808983
H143	H	0.373552	0.378004	0.953836
H144	H	1.058891	-0.490519	0.731322
H145	H	0.373567	-0.077700	0.953806
H146	H	0.768437	-0.077665	0.090127
H147	H	0.208628	-0.000034	1.221826
H148	H	0.768439	0.358896	0.653568
N149	N	0.783816	0.484147	0.644683
N150	N	0.850089	0.414684	0.606447
H151	H	0.903647	0.409007	0.575540
H152	H	0.768441	-0.077666	0.217020
H153	H	0.499080	0.077736	0.372407
H154	H	0.263622	-0.077722	1.080661
H155	H	0.263605	0.504871	1.080743
H156	H	0.003953	-0.077679	0.808969
H157	H	0.893941	-0.222501	0.353319
N158	N	0.257306	0.086558	1.252244
N159	N	0.203190	0.086538	1.314670
H160	H	0.181308	0.117431	1.370808
H161	H	0.373546	0.077723	1.109249
N162	N	0.257282	0.086621	0.644702
N163	N	0.182873	0.143013	0.681985
H164	H	0.160999	0.173925	0.651099
H165	H	1.003926	-0.504811	0.653603
H166	H	1.058922	0.000057	0.240713
N167	N	0.379807	0.086618	0.644693
N168	N	0.352738	0.124861	0.606460
H169	H	0.374593	0.155767	0.575564
H170	H	0.003948	0.077742	0.653569
N171	N	1.010238	-0.086527	0.210295
N172	N	1.064355	-0.086507	0.147869
H173	H	1.086232	-0.117396	0.091731
H174	H	1.003899	-0.349354	0.809011
N175	N	0.887699	-0.379586	0.644692
N176	N	0.914775	-0.449062	0.606462
H177	H	0.892930	-0.454763	0.575552
N178	N	0.196071	0.505109	0.731253
N179	N	0.209595	0.517218	0.665301
H180	H	0.165871	0.567674	0.665300
N181	N	1.010185	0.086649	0.383506
N182	N	1.003416	0.143044	0.354038
H183	H	1.025257	0.173964	0.359726
H184	H	0.373573	0.377974	0.808966
H185	H	0.263635	0.504855	0.808968
N186	N	0.887704	-0.086546	0.351648
N187	N	0.914779	-0.124775	0.282171
H188	H	0.892930	-0.155680	0.276470
N189	N	0.379810	0.206462	0.644698
N190	N	0.433916	0.144011	0.644703
H191	H	0.455758	0.087889	0.613819
N192	N	0.379848	0.206444	1.110857
N193	N	0.352787	0.199441	1.180326
H194	H	0.374637	0.143323	1.186013
N195	N	1.010174	-0.347712	0.210320
N196	N	0.983089	-0.278237	0.203334
H197	H	1.004935	-0.272537	0.147221
H198	H	0.263645	0.349415	1.236103
N199	N	1.071469	-0.505003	0.226162
N200	N	1.098509	-0.497953	0.156713
H201	H	1.142237	-0.548391	0.106241
N202	N	1.010232	-0.520937	0.383413
N203	N	1.064349	-0.583361	0.320949
H204	H	1.086230	-0.639499	0.326591
N205	N	0.887672	-0.379573	0.524825
N206	N	0.813265	-0.350123	0.573394
H207	H	0.791396	-0.355814	0.629512
N208	N	0.257297	-0.086561	0.817842
N209	N	0.284365	-0.124804	0.856075
H210	H	0.262506	-0.155707	0.886974
H211	H	-0.106026	-0.077660	0.808982
H212	H	-0.106022	0.077746	0.653572
