data_functionalizedCrystal
_audit_creation_method	'MofGen! by Chris Wilmer'
_symmetry_space_group_name_H-M	'P1'
_symmetry_Int_Tables_number	1
_symmetry_cell_setting	triclinic
loop_
_symmetry_equiv_pos_as_xyz
  x,y,z
_cell_length_a	12.759399
_cell_length_b	12.759401
_cell_length_c	12.759393
_cell_angle_alpha	89.980316
_cell_angle_beta	89.968801
_cell_angle_gamma	90.014520
loop_
_atom_site_label
_atom_site_type_symbol
_atom_site_fract_x
_atom_site_fract_y
_atom_site_fract_z
Zn1	Zn	-0.418229	1.606250	-0.594017
Zn2	Zn	-0.593948	1.606142	-0.418339
Zn3	Zn	-0.418281	1.430552	-0.418353
Zn4	Zn	-0.593864	1.430539	-0.593976
O5	O	-0.506081	1.518371	-0.506171
O6	O	-0.441552	1.753257	-0.570724
O7	O	-0.570702	1.582811	-0.271319
O8	O	-0.271253	1.453910	-0.441679
O9	O	-0.570652	1.753178	-0.441654
O10	O	-0.271215	1.582994	-0.570738
O11	O	-0.441640	1.453805	-0.271330
O12	O	-0.441559	1.283529	-0.441639
O13	O	-0.570509	1.453887	-0.741003
O14	O	-0.570559	1.283519	-0.570669
O15	O	-0.441471	1.582981	-0.741033
O16	O	-0.740958	1.582797	-0.441614
O17	O	-0.740896	1.453782	-0.570654
C18	C	-0.506056	1.245404	-0.506151
C19	C	-0.506071	1.128627	-0.506168
C20	C	-0.438812	1.073739	-0.439106
C21	C	-0.438837	0.964015	-0.439119
C22	C	-0.573383	0.964076	-0.573266
C23	C	-0.573362	1.073798	-0.573246
C24	C	-0.371521	1.128568	-0.372027
C25	C	-0.304256	1.073680	-0.304960
C26	C	-0.304281	0.963956	-0.304974
C27	C	-0.371571	0.909120	-0.372054
C28	C	-0.779048	1.518305	-0.506151
C29	C	-0.895825	1.518373	-0.506178
C30	C	-1.060409	1.585700	-0.439093
C31	C	-0.950685	1.585632	-0.439062
C32	C	-0.950694	1.451171	-0.573321
C33	C	-1.060416	1.451235	-0.573346
C34	C	-1.115263	1.652971	-0.371980
C35	C	-1.060401	1.720172	-0.304835
C36	C	-0.950677	1.720103	-0.304804
C37	C	-0.895815	1.652833	-0.371919
C38	C	-0.232047	1.518466	-0.506215
C39	C	-0.115271	1.518506	-0.506233
C40	C	-0.505975	1.518444	-0.780205
C41	C	-0.505929	1.518476	-0.896982
C42	C	-0.506106	1.792404	-0.506192
C43	C	-0.506116	1.909181	-0.506201
C44	C	-0.438733	1.585705	-0.951861
C45	C	-0.438695	1.585730	-1.061585
C46	C	-0.573059	1.451294	-1.061541
C47	C	-0.573091	1.451265	-0.951819
C48	C	-0.371571	1.652916	-0.897024
C49	C	-0.304370	1.720151	-0.951903
C50	C	-0.304332	1.720176	-1.061627
C51	C	-0.371495	1.652966	-1.116472
C52	C	-0.506110	1.518358	-0.233204
C53	C	-0.505860	1.518530	-0.116428
H54	H	-0.249517	0.919269	-0.250358
H55	H	-0.806470	1.652771	-0.371876
H56	H	-0.906009	1.774813	-0.250125
O57	O	-0.239224	1.785395	-0.898470
C58	C	-0.179676	1.844884	-0.729458
C59	C	-0.253529	1.770962	-0.789836
H60	H	-0.191201	1.833225	-0.641616
H61	H	-0.198125	1.929623	-0.750956
H62	H	-0.094964	1.826477	-0.751112
H63	H	-0.338266	1.789274	-0.768213
H64	H	-0.234990	1.686245	-0.768332
O65	O	-0.638271	1.386118	-1.114976
C66	C	-0.697733	1.326551	-1.283992
C67	C	-0.623839	1.400430	-1.223610
H68	H	-0.686075	1.338081	-1.371832
H69	H	-0.782479	1.344969	-1.262475
H70	H	-0.679296	1.241845	-1.262358
H71	H	-0.642181	1.485161	-1.245211
H72	H	-0.539115	1.381922	-1.245131
O73	O	-0.371361	1.653155	-1.223059
C74	C	-0.297545	1.726916	-1.380540
C75	C	-0.297602	1.726817	-1.259835
H76	H	-0.237901	1.786449	-1.410310
H77	H	-0.378868	1.748758	-1.410365
H78	H	-0.275774	1.645545	-1.410304
H79	H	-0.319327	1.808164	-1.229982
H80	H	-0.216269	1.704916	-1.230081
H81	H	-0.906018	1.396404	-0.627964
H82	H	-0.627792	1.396505	-0.907135
O83	O	-0.638638	0.910649	-0.638396
C84	C	-0.698334	0.741641	-0.697837
C85	C	-0.624364	0.802014	-0.624037
H86	H	-0.686835	0.653799	-0.686238
H87	H	-0.679977	0.763182	-0.782604
H88	H	-0.783014	0.763258	-0.679251
H89	H	-0.539659	0.780429	-0.642528
H90	H	-0.642811	0.780468	-0.539292
O91	O	-1.113553	1.385935	-0.638669
C92	C	-1.101994	1.252524	-0.771795
C93	C	-1.041685	1.326443	-0.697890
H94	H	-1.043914	1.204390	-0.819679
H95	H	-1.153251	1.300713	-0.826853
H96	H	-1.153476	1.197692	-0.723504
H97	H	-0.990146	1.381290	-0.746096
H98	H	-0.990494	1.278189	-0.642829
O99	O	-0.638725	1.126961	-0.638493
C100	C	-0.772217	1.115452	-0.771512
C101	C	-0.698226	1.055115	-0.697693
H102	H	-0.820359	1.057391	-0.819379
H103	H	-0.724084	1.166824	-0.826589
H104	H	-0.827039	1.166821	-0.723154
H105	H	-0.643390	1.003688	-0.745966
H106	H	-0.746424	1.003809	-0.642613
H107	H	-1.204606	1.653037	-0.372000
O108	O	-1.113526	1.785544	-0.239543
C109	C	-1.101935	1.918946	-0.106416
C110	C	-1.041644	1.844947	-0.180291
H111	H	-1.043844	1.967008	-0.058508
H112	H	-1.153363	1.870825	-0.051380
H113	H	-1.153244	1.973842	-0.154732
H114	H	-0.990277	1.790037	-0.132059
H115	H	-0.990282	1.893134	-0.235330
H116	H	-0.371491	1.217911	-0.372011
H117	H	-0.371591	0.819775	-0.372054
H118	H	-0.249477	1.118335	-0.250340
H119	H	-0.371597	1.652905	-0.807681
H120	H	-0.249606	1.774914	-1.106307
