data_functionalizedCrystal
_audit_creation_method	'MofGen! by Chris Wilmer'
_symmetry_space_group_name_H-M	'P1'
_symmetry_Int_Tables_number	1
_symmetry_cell_setting	triclinic
loop_
_symmetry_equiv_pos_as_xyz
  x,y,z
_cell_length_a	17.699083
_cell_length_b	8.559649
_cell_length_c	16.776229
_cell_angle_alpha	89.994739
_cell_angle_beta	89.998886
_cell_angle_gamma	76.530840
loop_
_atom_site_label
_atom_site_type_symbol
_atom_site_fract_x
_atom_site_fract_y
_atom_site_fract_z
O1	O	0.992507	0.202110	-0.066174
O2	O	1.492507	0.702110	0.433826
O3	O	0.770623	0.228404	-0.066200
O4	O	1.270623	0.728404	0.433800
O5	O	0.901113	-0.017421	-0.066184
O6	O	1.401113	0.482579	0.433816
O7	O	0.862017	0.447935	-0.066190
O8	O	1.362017	0.947935	0.433810
O9	O	0.901098	-0.017436	0.066393
O10	O	1.401098	0.482564	0.566393
O11	O	0.770608	0.228389	0.066377
O12	O	1.270608	0.728389	0.566377
O13	O	0.992492	0.202095	0.066403
O14	O	1.492492	0.702095	0.566403
Zn15	Zn	0.881548	0.215240	0.087439
Zn16	Zn	1.381548	0.715240	0.587439
Zn17	Zn	0.881567	0.215259	-0.087236
Zn18	Zn	1.381567	0.715259	0.412764
O19	O	0.862002	0.447920	0.066387
O20	O	1.362002	0.947920	0.566387
C21	C	0.742473	0.227455	0.000085
C22	C	1.242473	0.727455	0.500085
C23	C	0.658616	0.224628	0.000075
C24	C	1.158616	0.724628	0.500075
C25	C	0.601734	0.368922	0.000074
C26	C	1.101734	0.868922	0.500074
C27	C	0.522943	0.366257	0.000084
C28	C	1.022943	0.866257	0.500084
C29	C	0.501037	0.219296	0.000090
C30	C	1.001037	0.719296	0.500090
C31	C	0.557926	0.074990	0.000094
C32	C	1.057926	0.574990	0.500094
C33	C	0.636715	0.077657	0.000090
C34	C	1.136715	0.577657	0.500090
C35	C	0.240179	0.064231	0.000114
C36	C	0.740179	0.564231	0.500114
C37	C	0.161383	0.061575	0.000116
C38	C	0.661383	0.561575	0.500116
C39	C	0.126407	0.352831	0.000108
C40	C	0.626407	0.852831	0.500108
C41	C	0.205196	0.355498	0.000104
C42	C	0.705196	0.855498	0.500104
C43	C	0.262078	0.211193	0.000112
C44	C	0.762078	0.711193	0.500112
C45	C	0.347512	0.214085	0.000102
C46	C	0.847512	0.714085	0.500102
C47	C	0.415605	0.216402	0.000094
C48	C	0.915605	0.716402	0.500094
C49	C	0.904069	-0.076970	0.000103
C50	C	1.404069	0.423030	0.500103
C51	C	0.912888	-0.254384	0.000100
C52	C	1.412888	0.245616	0.500100
C53	C	1.020643	0.203044	0.000116
C54	C	1.520643	0.703044	0.500116
C55	C	1.104499	0.205871	0.000120
C56	C	1.604499	0.705871	0.500120
C57	C	0.859047	0.507469	0.000098
C58	C	1.359047	1.007469	0.500098
C59	C	0.850227	0.684883	0.000096
C60	C	1.350227	1.184883	0.500096
N61	N	0.881540	0.215225	0.206650
N62	N	1.381540	0.715225	0.706650
N63	N	0.881581	0.215261	-0.206447
N64	N	1.381581	0.715261	0.293553
C65	C	0.939335	0.106418	0.248374
C66	C	1.439335	0.606418	0.748374
C67	C	0.939339	0.106417	0.331827
C68	C	1.439339	0.606417	0.831827
C69	C	0.881552	0.215231	0.373553
C70	C	1.381552	0.715231	0.873553
C71	C	0.823752	0.324043	0.331823
C72	C	1.323752	0.824043	0.831823
C73	C	0.823745	0.324036	0.248372
C74	C	1.323745	0.824036	0.748372
C75	C	0.823777	0.324075	0.668370
C76	C	1.323777	0.824075	1.168370
C77	C	0.823790	0.324077	0.751827
C78	C	1.323790	0.824077	1.251827
C79	C	0.939371	0.106456	0.751824
C80	C	1.439371	0.606456	1.251824
C81	C	0.939364	0.106448	0.668374
C82	C	1.439364	0.606448	1.168374
C83	C	0.881563	0.215254	0.626651
C84	C	1.381563	0.715254	1.126651
C85	C	0.881558	0.215252	0.536163
C86	C	1.381558	0.715252	1.036163
C87	C	0.881559	0.215242	0.464040
C88	C	1.381559	0.715242	0.964040
H89	H	0.080083	0.470330	0.000106
H90	H	0.580083	0.970330	0.500106
H91	H	0.143552	-0.058106	0.000123
H92	H	0.643552	0.441894	0.500123
H93	H	0.286484	-0.053271	0.000122
H94	H	0.786484	0.446729	0.500122
H95	H	0.776682	0.412635	0.214401
H96	H	1.276682	0.912635	0.714401
H97	H	0.540084	-0.044668	0.000111
H98	H	1.040084	0.455332	0.500111
H99	H	0.683029	-0.039842	0.000091
H100	H	1.183029	0.460158	0.500091
H101	H	0.619562	0.488595	0.000068
H102	H	1.119562	0.988595	0.500068
O103	O	0.995508	0.000560	0.207968
O104	O	1.495508	0.500560	0.707968
C105	C	1.046529	-0.095450	0.262695
C106	C	1.546529	0.404550	0.762695
H107	H	1.015604	-0.097165	0.322185
H108	H	1.515604	0.402835	0.822185
H109	H	1.065497	-0.223120	0.238592
H110	H	1.565497	0.276880	0.738592
H111	H	1.099742	-0.043704	0.271560
H112	H	1.599742	0.456296	0.771560
O113	O	0.778233	-0.215010	0.000048
O114	O	1.278233	0.284990	0.500048
C115	C	0.785158	-0.054216	0.000064
C116	C	1.285158	0.445784	0.500064
H117	H	0.844272	-0.048212	-0.025028
H118	H	1.344272	0.451788	0.474972
H119	H	0.737295	0.021581	-0.038436
H120	H	1.237295	0.521581	0.461564
H121	H	0.779504	-0.005994	0.063665
H122	H	1.279504	0.494006	0.563665
O123	O	0.984984	-0.354110	0.000005
O124	O	1.484984	0.145890	0.500005
C125	C	1.025618	-0.325275	-0.068666
C126	C	1.525618	0.174725	0.431334
H127	H	0.999749	-0.198720	-0.091566
H128	H	1.499749	0.301280	0.408434
H129	H	1.089448	-0.337406	-0.053218
H130	H	1.589448	0.162594	0.446782
H131	H	1.020515	-0.416378	-0.116742
H132	H	1.520515	0.083622	0.383258
H133	H	0.476631	0.483756	0.000082
H134	H	0.976631	0.983756	0.500082
H135	H	0.986399	0.017817	0.365798
H136	H	1.486399	0.517817	0.865798
O137	O	0.995536	0.000590	0.627965
O138	O	1.495536	0.500590	1.127965
C139	C	1.046560	-0.095424	0.682688
C140	C	1.546560	0.404576	1.182688
H141	H	1.015637	-0.097141	0.742180
H142	H	1.515637	0.402859	1.242180
H143	H	1.065525	-0.223093	0.658583
H144	H	1.565525	0.276907	1.158583
H145	H	1.099774	-0.043681	0.691551
H146	H	1.599774	0.456319	1.191551
O147	O	0.995420	0.000588	0.792393
O148	O	1.495420	0.500588	1.292393
C149	C	0.960620	-0.097882	0.840688
C150	C	1.460620	0.402118	1.340688
H151	H	0.901082	-0.100427	0.815545
H152	H	1.401082	0.399573	1.315545
H153	H	0.998892	-0.224996	0.841639
H154	H	1.498892	0.275004	1.341639
H155	H	0.953748	-0.047851	0.903932
H156	H	1.453748	0.452149	1.403932
H157	H	0.776729	0.412690	0.785799
H158	H	1.276729	0.912690	1.285799
H159	H	0.776714	0.412671	0.634406
H160	H	1.276714	0.912671	1.134406
H161	H	0.776697	0.412637	0.365802
H162	H	1.276697	0.912637	0.865802
H163	H	0.223027	0.475168	0.000095
H164	H	0.723027	0.975168	0.500095
