data_functionalizedCrystal
_audit_creation_method	'MofGen! by Chris Wilmer'
_symmetry_space_group_name_H-M	'P1'
_symmetry_Int_Tables_number	1
_symmetry_cell_setting	triclinic
loop_
_symmetry_equiv_pos_as_xyz
  x,y,z
_cell_length_a	27.732048
_cell_length_b	27.732048
_cell_length_c	26.809956
_cell_angle_alpha	89.999364
_cell_angle_beta	89.996742
_cell_angle_gamma	82.642655
loop_
_atom_site_label
_atom_site_type_symbol
_atom_site_fract_x
_atom_site_fract_y
_atom_site_fract_z
O1	O	0.640931	0.057510	-0.041421
O2	O	0.974264	0.390843	0.291913
O3	O	1.307598	0.724177	0.625246
O4	O	0.500138	0.066256	-0.041436
O5	O	0.833471	0.399589	0.291897
O6	O	1.166804	0.732922	0.625230
O7	O	0.574907	-0.008514	-0.041419
O8	O	0.908240	0.324820	0.291915
O9	O	1.241574	0.658153	0.625248
O10	O	0.566162	0.132280	-0.041439
O11	O	0.899495	0.465613	0.291895
O12	O	1.232828	0.798946	0.625228
O13	O	0.574893	-0.008502	0.041541
O14	O	0.908226	0.324831	0.374874
O15	O	1.241560	0.658164	0.708207
O16	O	0.500123	0.066267	0.041523
O17	O	0.833457	0.399600	0.374856
O18	O	1.166790	0.732934	0.708189
O19	O	0.640917	0.057522	0.041539
O20	O	0.974250	0.390855	0.374872
O21	O	1.307584	0.724188	0.708205
Zn22	Zn	0.570518	0.061896	0.054702
Zn23	Zn	0.903851	0.395229	0.388036
Zn24	Zn	1.237185	0.728563	0.721369
Zn25	Zn	0.570536	0.061881	-0.054600
Zn26	Zn	0.903870	0.395214	0.278733
Zn27	Zn	1.237203	0.728548	0.612067
O28	O	0.566147	0.132291	0.041521
O29	O	0.899481	0.465624	0.374854
O30	O	1.232814	0.798958	0.708187
C31	C	0.482124	0.066078	0.000041
C32	C	0.815457	0.399411	0.333375
C33	C	1.148790	0.732744	0.666708
C34	C	0.428469	0.065525	0.000036
C35	C	0.761802	0.398858	0.333369
C36	C	1.095135	0.732192	0.666702
C37	C	0.089654	0.106229	0.000051
C38	C	0.422987	0.439562	0.333385
C39	C	0.756320	0.772895	0.666718
C40	C	-0.112006	0.104178	0.000056
C41	C	0.221327	0.437511	0.333390
C42	C	0.554661	0.770844	0.666723
O43	O	-0.143262	0.141398	0.000073
O44	O	0.190072	0.474732	0.333406
O45	O	0.523405	0.808065	0.666739
N46	N	-0.131130	0.059843	0.000062
N47	N	0.202204	0.393176	0.333395
N48	N	0.535537	0.726509	0.666728
C49	C	-0.099835	0.016017	0.000069
C50	C	0.233498	0.349350	0.333402
C51	C	0.566832	0.682684	0.666736
O52	O	-0.120728	-0.021740	0.000079
O53	O	0.212605	0.311593	0.333412
O54	O	0.545938	0.644927	0.666746
C55	C	0.101824	0.018068	0.000068
C56	C	0.435157	0.351402	0.333401
C57	C	0.768490	0.684735	0.666735
C58	C	0.120944	0.062407	0.000057
C59	C	0.454278	0.395740	0.333391
C60	C	0.787611	0.729073	0.666724
C61	C	0.108775	0.150563	0.000042
C62	C	0.442108	0.483897	0.333375
C63	C	0.775442	0.817230	0.666708
C64	C	0.159187	0.151076	0.000038
C65	C	0.492520	0.484409	0.333371
C66	C	0.825853	0.817742	0.666704
C67	C	0.190477	0.107253	0.000044
C68	C	0.523811	0.440587	0.333377
C69	C	0.857144	0.773920	0.666710
C70	C	0.171356	0.062919	0.000054
C71	C	0.504690	0.396252	0.333387
C72	C	0.838023	0.729585	0.666720
C73	C	0.133117	-0.025757	0.000079
C74	C	0.466451	0.307577	0.333412
C75	C	0.799784	0.640910	0.666746
C76	C	0.183535	-0.025240	0.000080
C77	C	0.516868	0.308094	0.333413
C78	C	0.850201	0.641427	0.666747
C79	C	0.202655	0.019098	0.000069
C80	C	0.535989	0.352432	0.333403
C81	C	0.869322	0.685765	0.666736
C82	C	0.253059	0.019609	0.000056
C83	C	0.586392	0.352942	0.333389
C84	C	0.919725	0.686276	0.666722
N85	N	0.272183	0.063944	0.000050
N86	N	0.605516	0.397277	0.333384
N87	N	0.938849	0.730611	0.666717
C88	C	0.240892	0.107766	0.000044
C89	C	0.574225	0.441100	0.333378
C90	C	0.907559	0.774433	0.666711
C91	C	-0.205709	0.014943	0.000069
C92	C	0.127624	0.348276	0.333402
C93	C	0.460957	0.681610	0.666735
C94	C	-0.256124	0.014430	0.000068
C95	C	0.077210	0.347763	0.333401
C96	C	0.410543	0.681097	0.666735
C97	C	-0.268291	0.102591	0.000056
C98	C	0.065042	0.435924	0.333390
C99	C	0.398376	0.769258	0.666723
C100	C	-0.217876	0.103104	0.000053
C101	C	0.115458	0.436437	0.333387
C102	C	0.448791	0.769770	0.666720
C103	C	-0.186585	0.059278	0.000063
C104	C	0.146748	0.392612	0.333397
C105	C	0.480081	0.725945	0.666730
C106	C	0.346761	0.108839	0.000036
C107	C	0.680094	0.442172	0.333369
C108	C	1.013428	0.775505	0.666702
C109	C	0.397178	0.109347	0.000030
C110	C	0.730511	0.442681	0.333363
C111	C	1.063845	0.776014	0.666696
C112	C	0.409341	0.021186	0.000044
C113	C	0.742674	0.354520	0.333378
C114	C	1.076008	0.687853	0.666711
C115	C	0.358929	0.020678	0.000048
C116	C	0.692262	0.354011	0.333381
C117	C	1.025595	0.687344	0.666714
C118	C	0.327639	0.064508	0.000045
C119	C	0.660973	0.397841	0.333378
C120	C	0.994306	0.731175	0.666712
O121	O	0.284343	-0.017592	0.000045
O122	O	0.617676	0.315741	0.333378
O123	O	0.951009	0.649075	0.666712
O124	O	0.261794	0.145518	0.000045
O125	O	0.595128	0.478851	0.333379
O126	O	0.928461	0.812184	0.666712
C127	C	0.039242	0.105716	0.000055
C128	C	0.372575	0.439050	0.333389
C129	C	0.705908	0.772383	0.666722
C130	C	0.020120	0.061382	0.000065
C131	C	0.353454	0.394715	0.333399
C132	C	0.686787	0.728049	0.666732
C133	C	0.051411	0.017560	0.000071
C134	C	0.384744	0.350893	0.333405
C135	C	0.718078	0.684226	0.666738
C136	C	-0.030294	0.060869	0.000065
C137	C	0.303039	0.394202	0.333398
C138	C	0.636373	0.727536	0.666731
C139	C	-0.061585	0.104691	0.000059
C140	C	0.271749	0.438025	0.333392
C141	C	0.605082	0.771358	0.666725
C142	C	-0.042461	0.149026	0.000053
C143	C	0.290872	0.482360	0.333387
C144	C	0.624206	0.815693	0.666720
C145	C	0.007951	0.149539	0.000049
C146	C	0.341284	0.482872	0.333383
C147	C	0.674618	0.816205	0.666716
C148	C	0.032287	-0.026775	0.000077
C149	C	0.365621	0.306558	0.333410
C150	C	0.698954	0.639891	0.666743
C151	C	-0.018125	-0.027284	0.000080
C152	C	0.315208	0.306049	0.333413
C153	C	0.648541	0.639383	0.666747
C154	C	-0.049416	0.016538	0.000074
C155	C	0.283917	0.349871	0.333407
C156	C	0.617251	0.683205	0.666741
C157	C	0.574716	-0.026515	0.000062
C158	C	0.908050	0.306818	0.333396
C159	C	1.241383	0.640152	0.666729
C160	C	0.574164	-0.080170	0.000066
C161	C	0.907497	0.253163	0.333400
C162	C	1.240830	0.586497	0.666733
C163	C	0.614867	-0.418985	0.000045
C164	C	0.948201	-0.085652	0.333379
C165	C	1.281534	0.247682	0.666712
C166	C	0.612816	-0.620645	0.000038
C167	C	0.946150	-0.287311	0.333372
C168	C	1.279483	0.046022	0.666705
O169	O	0.650037	-0.651900	0.000021
O170	O	0.983370	-0.318567	0.333354
O171	O	1.316704	0.014766	0.666687
N172	N	0.568481	-0.639768	0.000034
N173	N	0.901814	-0.306435	0.333367
N174	N	1.235148	0.026898	0.666700
C175	C	0.524656	-0.608474	0.000028
C176	C	0.857989	-0.275140	0.333361
C177	C	1.191322	0.058193	0.666694
O178	O	0.486899	-0.629367	0.000019
O179	O	0.820232	-0.296033	0.333352
O180	O	1.153565	0.037300	0.666685
C181	C	0.526707	-0.406815	0.000031
C182	C	0.860040	-0.073482	0.333365
C183	C	1.193374	0.259852	0.666698
C184	C	0.571045	-0.387694	0.000041
C185	C	0.904378	-0.054361	0.333374
C186	C	1.237712	0.278972	0.666708
C187	C	0.659202	-0.399864	0.000054
C188	C	0.992535	-0.066530	0.333388
C189	C	1.325868	0.266803	0.666721
C190	C	0.659714	-0.349452	0.000059
C191	C	0.993047	-0.016118	0.333392
C192	C	1.326381	0.317215	0.666726
C193	C	0.615892	-0.318161	0.000054
C194	C	0.949225	0.015172	0.333388
C195	C	1.282559	0.348506	0.666721
C196	C	0.571557	-0.337282	0.000045
C197	C	0.904891	-0.003949	0.333379
C198	C	1.238224	0.329384	0.666712
C199	C	0.482882	-0.375521	0.000022
C200	C	0.816215	-0.042188	0.333355
C201	C	1.149549	0.291145	0.666688
C202	C	0.483399	-0.325104	0.000021
C203	C	0.816732	0.008229	0.333355
C204	C	1.150066	0.341563	0.666688
C205	C	0.527737	-0.305983	0.000031
C206	C	0.861070	0.027350	0.333364
C207	C	1.194404	0.360683	0.666698
C208	C	0.528247	-0.255580	0.000045
C209	C	0.861581	0.077754	0.333379
C210	C	1.194914	0.411087	0.666712
N211	N	0.572583	-0.236456	0.000050
N212	N	0.905916	0.096877	0.333383
N213	N	1.239249	0.430211	0.666717
C214	C	0.616405	-0.267747	0.000054
C215	C	0.949738	0.065587	0.333388
C216	C	1.283072	0.398920	0.666721
C217	C	0.523582	-0.714348	0.000027
C218	C	0.856915	-0.381014	0.333360
C219	C	1.190248	-0.047681	0.666693
C220	C	0.523069	-0.764762	0.000027
C221	C	0.856402	-0.431429	0.333360
C222	C	1.189735	-0.098096	0.666693
C223	C	0.611230	-0.776930	0.000036
C224	C	0.944563	-0.443596	0.333370
C225	C	1.277896	-0.110263	0.666703
C226	C	0.611742	-0.726514	0.000040
C227	C	0.945075	-0.393181	0.333373
C228	C	1.278409	-0.059848	0.666707
C229	C	0.567917	-0.695224	0.000031
C230	C	0.901250	-0.361891	0.333365
C231	C	1.234583	-0.028557	0.666698
C232	C	0.617477	-0.161878	0.000064
C233	C	0.950811	0.171456	0.333398
C234	C	1.284144	0.504789	0.666731
C235	C	0.617986	-0.111461	0.000071
C236	C	0.951319	0.221873	0.333404
C237	C	1.284652	0.555206	0.666738
C238	C	0.529825	-0.099298	0.000059
C239	C	0.863158	0.234036	0.333392
C240	C	1.196492	0.567369	0.666725
C241	C	0.529316	-0.149710	0.000055
C242	C	0.862650	0.183623	0.333388
C243	C	1.195983	0.516957	0.666721
C244	C	0.573147	-0.180999	0.000056
C245	C	0.906480	0.152334	0.333389
C246	C	1.239813	0.485667	0.666723
O247	O	0.491047	-0.224296	0.000057
O248	O	0.824380	0.109038	0.333391
O249	O	1.157713	0.442371	0.666724
O250	O	0.654156	-0.246844	0.000053
O251	O	0.987490	0.086489	0.333386
O252	O	1.320823	0.419823	0.666719
C253	C	0.614355	-0.469397	0.000041
C254	C	0.947688	-0.136064	0.333374
C255	C	1.281022	0.197270	0.666708
C256	C	0.570021	-0.488518	0.000032
C257	C	0.903354	-0.155185	0.333365
C258	C	1.236687	0.178148	0.666699
C259	C	0.526198	-0.457228	0.000027
C260	C	0.859532	-0.123894	0.333361
C261	C	1.192865	0.209439	0.666694
C262	C	0.569508	-0.538933	0.000032
C263	C	0.902841	-0.205599	0.333365
C264	C	1.236174	0.127734	0.666699
C265	C	0.613330	-0.570223	0.000036
C266	C	0.946663	-0.236890	0.333370
C267	C	1.279996	0.096443	0.666703
C268	C	0.657665	-0.551100	0.000041
C269	C	0.990998	-0.217766	0.333374
C270	C	1.324332	0.115567	0.666708
C271	C	0.658177	-0.500688	0.000045
C272	C	0.991511	-0.167354	0.333379
C273	C	1.324844	0.165979	0.666712
C274	C	0.481863	-0.476351	0.000023
C275	C	0.815197	-0.143018	0.333356
C276	C	1.148530	0.190315	0.666690
C277	C	0.481355	-0.526764	0.000019
C278	C	0.814688	-0.193430	0.333352
C279	C	1.148021	0.139903	0.666686
C280	C	0.525177	-0.558054	0.000023
C281	C	0.858510	-0.224721	0.333357
C282	C	1.191843	0.108612	0.666690
C283	C	0.658931	0.057699	0.000060
C284	C	0.992264	0.391033	0.333393
C285	C	1.325598	0.724366	0.666726
C286	C	0.712586	0.058252	0.000062
C287	C	1.045919	0.391586	0.333395
C288	C	1.379252	0.724919	0.666729
C289	C	0.566338	0.150292	0.000039
C290	C	0.899671	0.483626	0.333372
C291	C	1.233005	0.816959	0.666705
C292	C	0.566891	0.203947	0.000031
C293	C	0.900224	0.537280	0.333365
C294	C	1.233557	0.870614	0.666698
N295	N	0.570509	0.061906	0.129298
N296	N	0.903842	0.395239	0.462632
N297	N	1.237175	0.728573	0.795965
N298	N	0.570549	0.061867	-0.129196
N299	N	0.903883	0.395201	0.204137
N300	N	1.237216	0.728534	0.537471
C301	C	0.603640	0.028781	0.473932
C302	C	0.936973	0.362115	0.807266
C303	C	1.270307	0.695448	1.140599
C304	C	0.603652	0.028774	0.682810
C305	C	0.936985	0.362107	1.016143
C306	C	1.270318	0.695441	1.349477
O307	O	0.631801	0.000613	0.709820
O308	O	0.965135	0.333946	1.043154
O309	O	1.298468	0.667280	1.376487
N310	N	0.570539	0.061870	0.708925
N311	N	0.903873	0.395204	1.042259
N312	N	1.237206	0.728537	1.375592
C313	C	0.537419	0.094969	0.682818
C314	C	0.870753	0.428302	1.016151
C315	C	1.204086	0.761636	1.349485
O316	O	0.509252	0.123116	0.709824
O317	O	0.842585	0.456450	1.043157
O318	O	1.175919	0.789783	1.376490
C319	C	0.537406	0.094974	0.473941
C320	C	0.870739	0.428307	0.807275
C321	C	1.204073	0.761640	1.140608
C322	C	0.570524	0.061878	0.447829
C323	C	0.903857	0.395212	0.781162
C324	C	1.237191	0.728545	1.114495
C325	C	0.636755	-0.004312	0.447819
C326	C	0.970088	0.329022	0.781153
C327	C	1.303422	0.662355	1.114486
C328	C	0.636754	-0.004308	0.395603
C329	C	0.970087	0.329025	0.728936
C330	C	1.303420	0.662359	1.062270
C331	C	0.603637	0.028789	0.369500
C332	C	0.936971	0.362123	0.702833
C333	C	1.270304	0.695456	1.036166
C334	C	0.570522	0.061882	0.395612
C335	C	0.903856	0.395216	0.728946
C336	C	1.237189	0.728549	1.062279
C337	C	0.504284	0.128070	0.447835
C338	C	0.837618	0.461403	0.781168
C339	C	1.170951	0.794736	1.114502
C340	C	0.504283	0.128067	0.395613
C341	C	0.837616	0.461401	0.728946
C342	C	1.170950	0.794734	1.062279
C343	C	0.537401	0.094972	0.369500
C344	C	0.870734	0.428305	0.702833
C345	C	1.204068	0.761638	1.036167
C346	C	0.537405	0.094983	0.317293
C347	C	0.870738	0.428317	0.650626
C348	C	1.204071	0.761650	0.983959
N349	N	0.570517	0.061887	0.291177
N350	N	0.903850	0.395220	0.624510
N351	N	1.237184	0.728553	0.957844
C352	C	0.603633	0.028790	0.317281
C353	C	0.936967	0.362123	0.650614
C354	C	1.270300	0.695456	0.983947
C355	C	0.537429	0.094965	0.792481
C356	C	0.870763	0.428298	1.125815
C357	C	1.204096	0.761632	1.459148
C358	C	0.537433	0.094964	0.844700
C359	C	0.870767	0.428298	1.178034
C360	C	1.204100	0.761631	1.511367
C361	C	0.603665	0.028768	0.844689
C362	C	0.936998	0.362102	1.178022
C363	C	1.270332	0.695435	1.511355
C364	C	0.603663	0.028772	0.792469
C365	C	0.936996	0.362105	1.125802
C366	C	1.270330	0.695438	1.459135
C367	C	0.570542	0.061868	0.766366
C368	C	0.903875	0.395202	1.099699
C369	C	1.237209	0.728535	1.433033
C370	C	0.603628	0.028801	0.207623
C371	C	0.936961	0.362134	0.540956
C372	C	1.270295	0.695467	0.874289
C373	C	0.603625	0.028809	0.155402
C374	C	0.936958	0.362142	0.488735
C375	C	1.270292	0.695476	0.822068
C376	C	0.537392	0.095003	0.155418
C377	C	0.870725	0.428336	0.488751
C378	C	1.204058	0.761670	0.822085
C379	C	0.537396	0.094997	0.207635
C380	C	0.870730	0.428330	0.540968
C381	C	1.204063	0.761663	0.874301
C382	C	0.570516	0.061892	0.233735
C383	C	0.903850	0.395225	0.567069
C384	C	1.237183	0.728558	0.900402
O385	O	0.509266	0.123126	0.290250
O386	O	0.842599	0.456459	0.623583
O387	O	1.175933	0.789792	0.956916
O388	O	0.631789	0.000640	0.290266
O389	O	0.965123	0.333973	0.623599
O390	O	1.298456	0.667306	0.956933
C391	C	0.603642	0.028777	0.526149
C392	C	0.936975	0.362111	0.859482
C393	C	1.270308	0.695444	1.192815
C394	C	0.570527	0.061870	0.552261
C395	C	0.903860	0.395204	0.885595
C396	C	1.237193	0.728537	1.218928
C397	C	0.537410	0.094968	0.526158
C398	C	0.870744	0.428301	0.859491
C399	C	1.204077	0.761634	1.192824
C400	C	0.570531	0.061870	0.604480
C401	C	0.903864	0.395203	0.937814
C402	C	1.237197	0.728537	1.271147
C403	C	0.603647	0.028773	0.630584
C404	C	0.936980	0.362106	0.963917
C405	C	1.270314	0.695440	1.297250
C406	C	0.636759	-0.004324	0.604468
C407	C	0.970093	0.329010	0.937802
C408	C	1.303426	0.662343	1.271135
C409	C	0.636758	-0.004320	0.552252
C410	C	0.970091	0.329014	0.885585
C411	C	1.303425	0.662347	1.218919
C412	C	0.504298	0.128064	0.552273
C413	C	0.837631	0.461397	0.885606
C414	C	1.170965	0.794731	1.218940
C415	C	0.504303	0.128058	0.604489
C416	C	0.837636	0.461391	0.937823
C417	C	1.170969	0.794724	1.271156
C418	C	0.537419	0.094961	0.630593
C419	C	0.870752	0.428294	0.963926
C420	C	1.204086	0.761627	1.297260
H421	H	0.083302	0.186251	0.000038
H422	H	0.416636	0.519584	0.333372
H423	H	0.749969	0.852917	0.666705
H424	H	0.446177	-0.450879	0.000018
H425	H	0.779510	-0.117545	0.333351
H426	H	1.112844	0.215788	0.666685
N427	N	0.501713	0.130661	0.872860
N428	N	0.835047	0.463995	1.206193
N429	N	1.168380	0.797328	1.539527
H430	H	0.506737	0.125642	0.909903
H431	H	0.840070	0.458975	1.243236
H432	H	1.173403	0.792309	1.576569
H433	H	0.507037	0.164916	0.863730
H434	H	0.840370	0.498249	1.197064
H435	H	1.173704	0.831582	1.530397
N436	N	0.443093	-0.026078	0.000053
N437	N	0.776426	0.307255	0.333387
N438	N	1.109760	0.640588	0.666720
H439	H	0.464285	-0.027836	-0.030698
H440	H	0.797618	0.305497	0.302635
H441	H	1.130952	0.638830	0.635968
H442	H	0.464246	-0.027791	0.030828
H443	H	0.797579	0.305542	0.364161
H444	H	1.130912	0.638876	0.697495
H445	H	0.023514	0.185643	0.000042
H446	H	0.356847	0.518977	0.333375
H447	H	0.690181	0.852310	0.666708
N448	N	0.705998	-0.480067	0.000050
N449	N	1.039332	-0.146733	0.333383
N450	N	1.372665	0.186600	0.666717
H451	H	0.708175	-0.459423	0.030804
H452	H	1.041508	-0.126090	0.364138
H453	H	1.374842	0.207244	0.697471
H454	H	0.733650	-0.507570	0.000033
H455	H	1.066984	-0.174237	0.333366
H456	H	1.400317	0.159096	0.666699
N457	N	0.468556	0.163765	0.367463
N458	N	0.801889	0.497099	0.700796
N459	N	1.135222	0.830432	1.034130
H460	H	0.473863	0.198035	0.376553
H461	H	0.807196	0.531369	0.709886
H462	H	1.140529	0.864702	1.043220
H463	H	0.473593	0.158706	0.330428
H464	H	0.806926	0.492040	0.663762
H465	H	1.140260	0.825373	0.997095
H466	H	0.174750	0.187180	0.000029
H467	H	0.508083	0.520513	0.333362
H468	H	0.841417	0.853847	0.666696
N469	N	0.639348	-0.006887	0.127237
N470	N	0.972681	0.326447	0.460571
N471	N	1.306014	0.659780	0.793904
H472	H	0.660325	-0.027854	0.151701
H473	H	0.993658	0.305479	0.485034
H474	H	1.326992	0.638812	0.818367
H475	H	0.621004	-0.028129	0.105571
H476	H	0.954338	0.305204	0.438905
H477	H	1.287671	0.638537	0.772238
N478	N	-0.302035	0.149864	0.000075
N479	N	0.031299	0.483197	0.333409
N480	N	0.364632	0.816531	0.666742
H481	H	-0.295928	0.169236	-0.030671
H482	H	0.037406	0.502570	0.302662
H483	H	0.370739	0.835903	0.635995
H484	H	-0.336862	0.142779	0.000103
H485	H	-0.003528	0.476112	0.333436
H486	H	0.329805	0.809445	0.666770
H487	H	0.663725	-0.031269	0.530995
H488	H	0.997059	0.302064	0.864328
H489	H	1.330392	0.635397	1.197661
N490	N	-0.076209	0.196297	0.000062
N491	N	0.257125	0.529630	0.333395
N492	N	0.590458	0.862963	0.666728
H493	H	-0.070101	0.215662	-0.030690
H494	H	0.263232	0.548995	0.302643
H495	H	0.596566	0.882328	0.635976
H496	H	-0.111034	0.189206	0.000088
H497	H	0.222299	0.522540	0.333422
H498	H	0.555633	0.855873	0.666755
H499	H	0.510457	0.121917	0.771232
H500	H	0.843791	0.455251	1.104565
H501	H	1.177124	0.788584	1.437899
N502	N	-0.197254	0.150924	0.000040
N503	N	0.136079	0.484258	0.333374
N504	N	0.469412	0.817591	0.666707
H505	H	-0.224731	0.178605	0.000034
H506	H	0.108602	0.511938	0.333368
H507	H	0.441936	0.845272	0.666701
H508	H	-0.176606	0.153066	0.030794
H509	H	0.156728	0.486399	0.364128
H510	H	0.490061	0.819733	0.697461
N511	N	0.659563	-0.705893	0.000051
N512	N	0.992896	-0.372559	0.333384
N513	N	1.326230	-0.039226	0.666717
H514	H	0.687244	-0.733370	0.000055
H515	H	1.020577	-0.400036	0.333388
H516	H	1.353910	-0.066703	0.666722
H517	H	0.661705	-0.685242	-0.030704
H518	H	0.995038	-0.351909	0.302630
H519	H	1.328371	-0.018576	0.635963
H520	H	0.630630	0.001820	0.865951
H521	H	0.963964	0.335153	1.199284
H522	H	1.297297	0.668487	1.532617
N523	N	0.468577	0.163753	0.632651
N524	N	0.801910	0.497086	0.965984
N525	N	1.135243	0.830420	1.299317
H526	H	0.486879	0.185033	0.654318
H527	H	0.820212	0.518366	0.987652
H528	H	1.153545	0.851700	1.320985
H529	H	0.447607	0.184683	0.608153
H530	H	0.780940	0.518016	0.941487
H531	H	1.114274	0.851350	1.274820
N532	N	0.435062	-0.396141	0.000005
N533	N	0.768396	-0.062808	0.333338
N534	N	1.101729	0.270526	0.666671
H535	H	0.432872	-0.416788	0.030756
H536	H	0.766205	-0.083454	0.364089
H537	H	1.099539	0.249879	0.697422
H538	H	0.407409	-0.368639	-0.000021
H539	H	0.740742	-0.035306	0.333313
H540	H	1.074075	0.298028	0.666646
N541	N	0.639353	-0.006900	0.235771
N542	N	0.972686	0.326434	0.569104
N543	N	1.306020	0.659767	0.902438
H544	H	0.634049	-0.041170	0.226680
H545	H	0.967382	0.292163	0.560013
H546	H	1.300716	0.625497	0.893346
H547	H	0.673597	-0.001519	0.226664
H548	H	1.006931	0.331815	0.559997
H549	H	1.340264	0.665148	0.893330
N550	N	-0.038745	-0.075109	0.000088
N551	N	0.294588	0.258224	0.333421
N552	N	0.627922	0.591558	0.666755
H553	H	-0.011268	-0.102790	0.000093
H554	H	0.322065	0.230544	0.333426
H555	H	0.655398	0.563877	0.666759
H556	H	-0.059395	-0.077237	0.030846
H557	H	0.273938	0.256097	0.364179
H558	H	0.607271	0.589430	0.697512
H559	H	-0.271687	-0.021674	0.000069
H560	H	0.061646	0.311659	0.333402
H561	H	0.394980	0.644992	0.666736
N562	N	0.066033	-0.074043	0.000087
N563	N	0.399366	0.259290	0.333420
N564	N	0.732700	0.592623	0.666753
H565	H	0.046264	-0.102203	0.000092
H566	H	0.379597	0.231130	0.333425
H567	H	0.712930	0.564463	0.666758
H568	H	0.087216	-0.075758	-0.030668
H569	H	0.420549	0.257575	0.302665
H570	H	0.753883	0.590908	0.635998
N571	N	0.707539	-0.328838	0.000065
N572	N	1.040872	0.004495	0.333399
N573	N	1.374206	0.337829	0.666732
H574	H	0.726721	-0.340276	-0.030687
H575	H	1.060054	-0.006943	0.302646
H576	H	1.393387	0.326391	0.635979
H577	H	0.701184	-0.292155	0.000084
H578	H	1.034518	0.041178	0.333418
H579	H	1.367851	0.374512	0.666751
N580	N	0.672472	-0.040006	0.367442
N581	N	1.005805	0.293328	0.700776
N582	N	1.339138	0.626661	1.034109
H583	H	0.693447	-0.060971	0.391909
H584	H	1.026780	0.272362	0.725242
H585	H	1.360114	0.605695	1.058576
H586	H	0.654127	-0.061250	0.345780
H587	H	0.987460	0.272084	0.679113
H588	H	1.320793	0.605417	1.012446
H589	H	0.630630	0.001822	0.771211
H590	H	0.963964	0.335156	1.104544
H591	H	1.297297	0.668489	1.437877
H592	H	0.209009	-0.060929	0.000089
H593	H	0.542343	0.272405	0.333422
H594	H	0.875676	0.605738	0.666755
H595	H	0.693347	-0.576585	0.000047
H596	H	1.026680	-0.243252	0.333380
H597	H	1.360013	0.090081	0.666713
H598	H	0.654093	-0.095896	0.000080
H599	H	0.987426	0.237438	0.333413
H600	H	1.320759	0.570771	0.666747
H601	H	0.510433	0.121951	0.228896
H602	H	0.843767	0.455284	0.562229
H603	H	1.177100	0.788617	0.895563
N604	N	0.468556	0.163758	0.475991
N605	N	0.801890	0.497092	0.809325
N606	N	1.135223	0.830425	1.142658
H607	H	0.447576	0.184717	0.451523
H608	H	0.780909	0.518051	0.784857
H609	H	1.114242	0.851384	1.118190
H610	H	0.447330	0.145389	0.497653
H611	H	0.780664	0.478722	0.830986
H612	H	1.113997	0.812056	1.164319
H613	H	-0.180236	-0.020747	0.000077
H614	H	0.153097	0.312586	0.333410
H615	H	0.486430	0.645920	0.666744
N616	N	0.436125	-0.291362	0.000021
N617	N	0.769458	0.041971	0.333354
N618	N	1.102791	0.375305	0.666688
H619	H	0.434366	-0.270178	0.030777
H620	H	0.767699	0.063155	0.364110
H621	H	1.101033	0.396489	0.697444
H622	H	0.434399	-0.270201	-0.030749
H623	H	0.767732	0.063132	0.302584
H624	H	1.101065	0.396466	0.635917
H625	H	0.477330	0.155015	0.531024
H626	H	0.810663	0.488349	0.864357
H627	H	1.143997	0.821682	1.197690
H628	H	0.646911	-0.802415	0.000040
H629	H	0.980245	-0.469082	0.333374
H630	H	1.313578	-0.135749	0.666707
H631	H	0.445246	-0.542327	0.000015
H632	H	0.778580	-0.208993	0.333349
H633	H	1.111913	0.124340	0.666682
N634	N	0.501675	0.130699	0.127259
N635	N	0.835008	0.464033	0.460592
N636	N	1.168341	0.797366	0.793925
H637	H	0.506700	0.125675	0.090217
H638	H	0.840034	0.459008	0.423550
H639	H	1.173367	0.792342	0.756883
H640	H	0.467428	0.125347	0.136389
H641	H	0.800761	0.458680	0.469722
H642	H	1.134095	0.792013	0.803055
N643	N	0.672481	-0.040020	0.632628
N644	N	1.005814	0.293314	0.965961
N645	N	1.339147	0.626647	1.299295
H646	H	0.667453	-0.034996	0.669670
H647	H	1.000786	0.298337	1.003003
H648	H	1.334119	0.631671	1.336336
H649	H	0.667155	-0.074274	0.623502
H650	H	1.000488	0.259059	0.956836
H651	H	1.333821	0.592393	1.290169
H652	H	0.493213	-0.165279	0.000061
H653	H	0.826546	0.168055	0.333394
H654	H	1.159879	0.501388	0.666728
N655	N	0.672484	-0.040005	0.475969
N656	N	1.005817	0.293329	0.809302
N657	N	1.339150	0.626662	1.142636
H658	H	0.693460	-0.060963	0.451495
H659	H	1.026794	0.272370	0.784829
H660	H	1.360127	0.605704	1.118162
H661	H	0.693713	-0.021637	0.497625
H662	H	1.027047	0.311696	0.830958
H663	H	1.360380	0.645030	1.164292
N664	N	0.338297	-0.027140	0.000061
N665	N	0.671631	0.306194	0.333395
N666	N	1.004964	0.639527	0.666728
H667	H	0.317648	-0.029324	-0.030687
H668	H	0.650981	0.304009	0.302647
H669	H	0.984315	0.637342	0.635980
H670	H	0.365795	-0.054797	0.000083
H671	H	0.699129	0.278536	0.333417
H672	H	1.032462	0.611869	0.666750
H673	H	0.412743	0.145454	0.000021
H674	H	0.746076	0.478787	0.333354
H675	H	1.079410	0.812121	0.666687
H676	H	0.321291	0.144530	0.000035
H677	H	0.654624	0.477863	0.333368
H678	H	0.987957	0.811196	0.666702
H679	H	0.117558	-0.061861	0.000088
H680	H	0.450892	0.271472	0.333421
H681	H	0.784225	0.604805	0.666755
H682	H	0.653168	-0.187348	0.000063
H683	H	0.986501	0.145985	0.333397
H684	H	1.319835	0.479319	0.666730
N685	N	0.706470	-0.433611	0.000063
N686	N	1.039803	-0.100277	0.333396
N687	N	1.373137	0.233056	0.666729
H688	H	0.725838	-0.427496	-0.030686
H689	H	1.059171	-0.094162	0.302648
H690	H	1.392505	0.239171	0.635981
H691	H	0.725780	-0.427474	0.030841
H692	H	1.059114	-0.094141	0.364174
H693	H	1.392447	0.239192	0.697507
N694	N	0.475247	-0.785383	0.000030
N695	N	0.808581	-0.452049	0.333363
N696	N	1.141914	-0.118716	0.666697
H697	H	0.447566	-0.757906	0.000027
H698	H	0.780900	-0.424573	0.333361
H699	H	1.114233	-0.091239	0.666694
H700	H	0.473115	-0.806035	-0.030723
H701	H	0.806448	-0.472702	0.302610
H702	H	1.139781	-0.139369	0.635943
N703	N	0.476310	-0.680602	0.000019
N704	N	0.809643	-0.347269	0.333352
N705	N	1.142977	-0.013935	0.666685
H706	H	0.448150	-0.700372	0.000017
H707	H	0.781483	-0.367038	0.333351
H708	H	1.114817	-0.033705	0.666684
H709	H	0.474595	-0.659420	0.030773
H710	H	0.807929	-0.326086	0.364106
H711	H	1.141262	0.007247	0.697439
H712	H	0.494146	-0.073812	0.000057
H713	H	0.827480	0.259522	0.333390
H714	H	1.160813	0.592855	0.666724
