data_functionalizedCrystal
_audit_creation_method	'MofGen! by Chris Wilmer'
_symmetry_space_group_name_H-M	'P1'
_symmetry_Int_Tables_number	1
_symmetry_cell_setting	triclinic
loop_
_symmetry_equiv_pos_as_xyz
  x,y,z
_cell_length_a	11.026607
_cell_length_b	11.026607
_cell_length_c	9.482900
_cell_angle_alpha	101.400185
_cell_angle_beta	78.636152
_cell_angle_gamma	108.586017
loop_
_atom_site_label
_atom_site_type_symbol
_atom_site_fract_x
_atom_site_fract_y
_atom_site_fract_z
O1	O	1.742236	0.518010	-0.120892
O2	O	1.375656	0.457246	-0.120894
O3	O	1.528564	0.304339	-0.120888
O4	O	1.589328	0.670917	-0.120898
O5	O	1.497539	0.335557	0.120903
O6	O	1.344632	0.488465	0.120897
O7	O	1.711212	0.549228	0.120899
Cu8	Cu	1.525089	0.521697	0.142976
Cu9	Cu	1.561779	0.484778	-0.142971
O10	O	1.558304	0.702136	0.120893
C11	C	1.312485	0.461645	0.000001
C12	C	1.170471	0.428228	0.000000
C13	C	1.116822	0.520498	-0.000003
C14	C	0.970043	0.485962	-0.000004
C15	C	1.501842	0.272288	0.000006
C16	C	1.468426	0.130273	0.000000
C17	C	1.560695	0.076624	-0.000001
C18	C	1.526161	-0.070155	-0.000007
C19	C	1.774384	0.544829	0.000001
C20	C	1.916399	0.578244	-0.000008
C21	C	1.585026	0.734186	-0.000004
C22	C	1.618444	0.876199	-0.000008
N23	N	1.499293	0.547665	0.344095
N24	N	1.587583	0.458801	-0.344090
C25	C	1.554160	0.492428	0.416296
C26	C	1.532708	0.514046	0.583713
H27	H	1.665257	0.139358	0.000009
O28	O	1.424220	0.623168	0.417975
C29	C	1.292432	0.755982	0.402282
C30	C	1.377401	0.670482	0.318438
H31	H	1.254577	0.794282	0.321843
H32	H	1.207464	0.696374	0.473517
H33	H	1.352437	0.840666	0.473574
H34	H	1.317505	0.585787	0.247067
H35	H	1.462374	0.730181	0.247295
H36	H	1.421592	-0.132886	-0.000017
H37	H	0.907319	0.381388	-0.000039
H38	H	1.723028	-0.061087	-0.000117
H39	H	1.650436	0.395497	0.593788
O40	O	1.343737	0.055265	0.000059
C41	C	1.195649	-0.159436	-0.000047
C42	C	1.336908	-0.074641	-0.000077
H43	H	1.190086	-0.264485	-0.000188
H44	H	1.133131	-0.125330	0.101167
H45	H	1.159162	-0.151270	-0.101212
H46	H	1.373514	-0.082767	0.101019
H47	H	1.399339	-0.108770	-0.101358
O48	O	1.629139	0.416833	0.342416
C49	C	1.761053	0.284145	0.358109
C50	C	1.676144	0.369703	0.441953
H51	H	1.799102	0.246038	0.438548
H52	H	1.701094	0.199342	0.286902
H53	H	1.845903	0.343798	0.286789
H54	H	1.591282	0.310158	0.513352
H55	H	1.736194	0.454510	0.513068
O56	O	0.991026	0.703071	0.000053
C57	C	0.997422	0.923542	-0.000046
C58	C	0.912754	0.782238	-0.000081
H59	H	0.934178	0.987584	-0.000185
H60	H	1.047386	0.956952	0.101168
H61	H	1.073412	0.930682	-0.101210
H62	H	0.836696	0.774990	0.101015
H63	H	0.862884	0.748891	-0.101362
O64	O	1.095621	0.303468	-0.000256
C65	C	0.949019	0.121125	-0.125476
C66	C	1.033752	0.262411	-0.125383
H67	H	0.898954	0.087896	-0.226614
H68	H	1.012191	0.056949	-0.125569
H69	H	0.873109	0.113963	-0.024240
H70	H	1.109673	0.269697	-0.226601
H71	H	0.970496	0.326522	-0.125214
O72	O	1.457631	0.589553	0.657587
C73	C	1.325844	0.722367	0.641894
C74	C	1.410812	0.636868	0.558050
H75	H	1.287989	0.760667	0.561455
H76	H	1.240875	0.662759	0.713129
H77	H	1.385848	0.807051	0.713187
H78	H	1.350917	0.552172	0.486679
H79	H	1.495785	0.696567	0.486907
H80	H	1.179554	0.625061	0.000002
