data_functionalizedCrystal
_audit_creation_method	'MofGen! by Chris Wilmer'
_symmetry_space_group_name_H-M	'P1'
_symmetry_Int_Tables_number	1
_symmetry_cell_setting	triclinic
loop_
_symmetry_equiv_pos_as_xyz
  x,y,z
_cell_length_a	13.339070
_cell_length_b	13.261948
_cell_length_c	11.892283
_cell_angle_alpha	109.786716
_cell_angle_beta	85.052885
_cell_angle_gamma	99.426992
loop_
_atom_site_label
_atom_site_type_symbol
_atom_site_fract_x
_atom_site_fract_y
_atom_site_fract_z
O1	O	1.326643	0.540236	0.260168
O2	O	1.033309	0.469970	0.238555
O3	O	1.190626	0.352043	0.202287
O4	O	1.169327	0.658163	0.296436
O5	O	1.203715	0.342225	0.011265
O6	O	1.046398	0.460152	0.047533
O7	O	1.339732	0.530417	0.069147
Zn8	Zn	1.195144	0.493726	0.028011
Zn9	Zn	1.177898	0.506662	0.279690
O10	O	1.182416	0.648344	0.105414
C11	C	1.002366	0.453192	0.139393
C12	C	0.890665	0.417813	0.128511
C13	C	1.197183	0.307154	0.094483
C14	C	1.197209	0.188022	0.057850
C15	C	1.204344	0.126679	-0.063487
C16	C	1.204355	0.014748	-0.097887
C17	C	1.197224	-0.035853	-0.010953
C18	C	1.190082	0.025488	0.110387
C19	C	1.190078	0.137432	0.144790
C20	C	1.182959	-0.025100	0.197324
C21	C	1.175817	0.036241	0.318664
C22	C	1.175813	0.148174	0.353061
C23	C	1.182944	0.198775	0.266128
C24	C	1.182962	-0.137044	0.162921
C25	C	1.168697	-0.126291	0.371198
C26	C	1.168686	-0.014360	0.405598
C27	C	0.521201	0.692904	0.213134
C28	C	0.626149	0.726148	0.223363
C29	C	0.692283	0.649067	0.199650
C30	C	0.653459	0.538736	0.165708
C31	C	0.548500	0.505489	0.155487
C32	C	0.719582	0.461652	0.142003
C33	C	0.680758	0.351321	0.108061
C34	C	0.575809	0.318080	0.097841
C35	C	0.509675	0.395161	0.121553
C36	C	0.824541	0.494899	0.152224
C37	C	0.851840	0.307485	0.094577
C38	C	0.746892	0.274241	0.084348
C39	C	1.370675	0.547196	0.168311
C40	C	1.482376	0.582576	0.179200
C41	C	1.175859	0.693234	0.213221
C42	C	1.175832	0.812366	0.249861
N43	N	1.206920	0.484899	-0.143753
C44	C	1.288977	0.423454	-0.340154
C45	C	1.280722	0.429626	-0.219917
C46	C	1.141370	0.534005	-0.187833
C47	C	1.149625	0.527833	-0.308070
C48	C	1.223430	0.472554	-0.384227
C49	C	1.231679	0.466376	-0.504468
C50	C	1.092333	0.570761	-0.472380
C51	C	1.084078	0.576934	-0.352143
N52	N	1.166129	0.515483	0.451453
H53	H	1.188776	-0.186978	0.064126
C54	C	1.370160	0.362645	-0.423930
N55	N	1.431310	0.316845	-0.487029
C56	C	1.167968	0.215648	0.486539
N57	N	1.162058	0.266469	0.587075
H58	H	1.023990	0.621944	-0.290121
C59	C	1.197226	-0.158983	-0.048798
N60	N	1.197221	-0.251730	-0.077309
C61	C	0.668849	0.847507	0.260683
N62	N	0.701011	0.938920	0.288788
C63	C	0.867236	0.616259	0.189549
N64	N	0.899392	0.707675	0.217659
H65	H	1.162871	0.035600	0.504395
C66	C	0.533106	0.196713	0.060502
N67	N	0.500944	0.105299	0.032373
H68	H	1.210174	-0.035188	-0.196681
C69	C	1.020231	0.624782	-0.520866
N70	N	0.965925	0.665469	-0.557388
H71	H	0.467346	0.755651	0.232447
H72	H	1.210157	0.167890	-0.134255
H73	H	1.291772	0.421362	-0.566476
H74	H	1.334099	0.389645	-0.184037
C75	C	0.394224	0.358597	0.110302
N76	N	0.307264	0.331061	0.101830
H77	H	1.081287	0.579021	-0.125808
C78	C	1.160850	-0.181947	0.466833
N79	N	1.154941	-0.223875	0.538858
C80	C	1.182933	0.321907	0.303962
N81	N	1.182927	0.414651	0.332455
C82	C	0.924584	0.222689	0.068488
N83	N	0.979380	0.158827	0.048840
C84	C	0.704170	0.152879	0.047020
N85	N	0.671991	0.061469	0.018905
H86	H	0.777736	0.676141	0.207984
