data_functionalizedCrystal
_audit_creation_method	'MofGen! by Chris Wilmer'
_symmetry_space_group_name_H-M	'P1'
_symmetry_Int_Tables_number	1
_symmetry_cell_setting	triclinic
loop_
_symmetry_equiv_pos_as_xyz
  x,y,z
_cell_length_a	10.654556
_cell_length_b	17.699083
_cell_length_c	9.130313
_cell_angle_alpha	90.006094
_cell_angle_beta	89.998832
_cell_angle_gamma	83.885276
loop_
_atom_site_label
_atom_site_type_symbol
_atom_site_fract_x
_atom_site_fract_y
_atom_site_fract_z
O1	O	1.665968	0.106327	0.121747
O2	O	1.300313	0.116449	0.121763
O3	O	1.493471	0.001265	0.121742
O4	O	1.472810	0.221511	0.121768
O5	O	1.493470	0.001259	-0.121857
O6	O	1.300312	0.116444	-0.121836
O7	O	1.665966	0.106321	-0.121852
Cu8	Cu	1.483139	0.111382	-0.144086
Cu9	Cu	1.483141	0.111389	0.143997
O10	O	1.472808	0.221506	-0.121831
C11	C	1.253528	0.115702	-0.000035
C12	C	1.114124	0.113476	-0.000029
C13	C	0.917634	0.110343	0.132745
C14	C	1.048620	0.112431	0.132754
C15	C	1.048637	0.112425	-0.132831
C16	C	0.917655	0.110332	-0.132839
C17	C	1.492730	-0.026940	-0.000058
C18	C	1.490509	-0.110972	-0.000058
C19	C	1.603889	-0.158871	-0.000065
C20	C	1.601794	-0.237827	-0.000052
C21	C	1.486319	-0.268884	-0.000043
C22	C	1.372931	-0.220979	-0.000032
C23	C	1.375026	-0.142024	-0.000034
C24	C	1.364476	-0.539396	-0.000019
C25	C	1.362389	-0.618357	-0.000021
C26	C	1.591244	-0.635199	-0.000037
C27	C	1.593340	-0.556244	-0.000040
C28	C	1.479953	-0.508346	-0.000021
C29	C	1.482225	-0.422733	-0.000032
C30	C	1.484045	-0.354496	-0.000042
C31	C	1.712752	0.107068	-0.000051
C32	C	1.852156	0.109295	-0.000047
C33	C	1.473549	0.249710	-0.000028
C34	C	1.475770	0.333743	-0.000018
N35	N	1.483143	0.111388	0.346620
N36	N	1.483147	0.111377	-0.346709
C37	C	1.568832	0.060485	0.423263
C38	C	1.568837	0.060481	0.576599
C39	C	1.397453	0.162285	0.576638
C40	C	1.397455	0.162292	0.423304
H41	H	1.101981	0.113270	-0.240945
H42	H	1.327676	0.203747	0.360897
H43	H	1.697922	-0.133591	-0.000082
N44	N	0.846987	0.109222	0.275962
H45	H	0.908349	0.110201	0.360085
H46	H	0.802964	0.061518	0.281735
H47	H	1.638614	0.019033	0.638998
N48	N	1.305022	0.217175	0.659352
H49	H	1.250739	0.249423	0.587527
H50	H	1.352870	0.250963	0.722989
N51	N	1.119246	0.113555	0.275978
H52	H	1.057874	0.112578	0.360093
H53	H	1.163275	0.161256	0.281777
N54	N	1.717894	-0.522755	-0.000047
H55	H	1.723862	-0.490366	0.090254
H56	H	1.723791	-0.490416	-0.090410
H57	H	1.638606	0.019037	0.360831
N58	N	0.847022	0.109195	-0.276071
H59	H	0.908501	0.109648	-0.360189
H60	H	0.782945	0.155432	-0.282294
N61	N	1.724082	-0.289490	-0.000068
H62	H	1.797552	-0.257835	-0.000088
H63	H	1.728185	-0.322621	-0.090374
H64	H	1.268350	-0.643640	-0.000017
N65	N	1.713547	-0.686861	-0.000058
H66	H	1.694704	-0.741592	-0.000051
H67	H	1.763891	-0.676731	0.090238
H68	H	1.278908	-0.246271	-0.000015
N69	N	1.242186	-0.487741	-0.000005
H70	H	1.168719	-0.519398	-0.000006
H71	H	1.238068	-0.454620	-0.090310
N72	N	1.252739	-0.090358	-0.000018
H73	H	1.179267	-0.122011	-0.000013
H74	H	1.248619	-0.057235	-0.090321
