data_functionalizedCrystal
_audit_creation_method	'MofGen! by Chris Wilmer'
_symmetry_space_group_name_H-M	'P1'
_symmetry_Int_Tables_number	1
_symmetry_cell_setting	triclinic
loop_
_symmetry_equiv_pos_as_xyz
  x,y,z
_cell_length_a	6.817900
_cell_length_b	14.125469
_cell_length_c	10.943624
_cell_angle_alpha	94.577781
_cell_angle_beta	108.838799
_cell_angle_gamma	100.398878
loop_
_atom_site_label
_atom_site_type_symbol
_atom_site_fract_x
_atom_site_fract_y
_atom_site_fract_z
V1	V	-4.072455	-0.133089	-0.402053
O2	O	-4.075281	0.006421	-0.394912
O3	O	-4.008096	-0.263918	-0.398809
O4	O	-4.051083	-0.131030	-0.577627
O5	O	-4.031996	-0.127386	-0.214857
V6	V	-4.554648	-0.116403	-0.379722
O7	O	-4.336629	-0.169690	-0.451036
O8	O	-4.740671	-0.079802	-0.330739
O9	O	-4.395801	0.014426	-0.382966
O10	O	-4.669219	-0.255913	-0.386863
O11	O	-4.712504	-0.122106	-0.566918
O12	O	-4.352814	-0.118462	-0.204148
C13	C	-3.848340	-0.295811	-0.392339
C14	C	-3.877185	-0.402765	-0.390858
C15	C	-3.930069	-0.598591	-0.388165
C16	C	-4.116402	-0.650913	-0.393615
C17	C	-4.145829	-0.759877	-0.392116
C18	C	-3.900634	-0.489617	-0.389663
C19	C	-3.903173	-0.126299	-0.620437
C20	C	-3.966877	-0.125481	-0.763967
C21	C	-3.813488	-0.119977	-0.841135
C22	C	-3.976422	-0.201683	-0.946819
C23	C	-3.917476	-0.042328	-0.914029
C24	C	-4.128998	-0.207264	-0.867774
C25	C	-4.069995	-0.047837	-0.834961
C26	C	-4.233059	-0.129567	-0.940615
C27	C	-4.218898	0.046314	-0.389432
C28	C	-4.169292	0.153268	-0.390922
C29	C	-4.164064	-0.123196	-0.161331
C30	C	-4.079599	-0.124009	-0.017800
H31	H	-3.635563	-0.116032	-0.797701
H32	H	-3.792656	-0.635629	-0.382372
H33	H	-4.217813	-0.277047	-0.846968
H34	H	-3.937527	-0.266723	-0.995524
C35	C	-4.122417	0.040029	-0.769097
C36	C	-4.019632	0.144206	-0.779085
C37	C	-4.072027	0.232082	-0.713214
C38	C	-4.227208	0.215780	-0.637355
C39	C	-4.330004	0.111598	-0.627365
C40	C	-4.277608	0.023722	-0.693236
H41	H	-3.904748	0.156278	-0.835243
H42	H	-3.995931	0.309205	-0.720610
H43	H	-4.265995	0.280831	-0.588594
H44	H	-4.444887	0.099526	-0.571207
H45	H	-4.353705	-0.053400	-0.685839
C46	C	-3.797507	0.051849	-0.942365
C47	C	-3.921844	0.122871	-1.016152
C48	C	-3.801860	0.217043	-1.044484
C49	C	-3.557539	0.240191	-0.999028
C50	C	-3.433188	0.169167	-0.925237
C51	C	-3.553172	0.074995	-0.896905
H52	H	-4.102718	0.105737	-1.049805
H53	H	-3.893914	0.269619	-1.099109
H54	H	-3.468719	0.309903	-1.020001
H55	H	-3.252315	0.186301	-0.891584
H56	H	-3.461119	0.022419	-0.842280
H57	H	-4.411056	-0.133640	-0.983844
H58	H	-4.253825	-0.613872	-0.399404
