data_functionalizedCrystal
_audit_creation_method	'MofGen! by Chris Wilmer'
_symmetry_space_group_name_H-M	'P1'
_symmetry_Int_Tables_number	1
_symmetry_cell_setting	triclinic
loop_
_symmetry_equiv_pos_as_xyz
  x,y,z
_cell_length_a	16.120566
_cell_length_b	16.120484
_cell_length_c	16.120297
_cell_angle_alpha	95.614431
_cell_angle_beta	89.874982
_cell_angle_gamma	89.831930
loop_
_atom_site_label
_atom_site_type_symbol
_atom_site_fract_x
_atom_site_fract_y
_atom_site_fract_z
Zn1	Zn	-1.224984	-0.422255	-0.554879
Zn2	Zn	-1.224880	-0.554939	-0.422184
Zn3	Zn	-1.093724	-0.408172	-0.408115
Zn4	Zn	-1.078877	-0.554173	-0.554109
O5	O	-1.155616	-0.484885	-0.484822
O6	O	-1.341006	-0.446070	-0.543487
O7	O	-1.213651	-0.529897	-0.303685
O8	O	-1.117393	-0.293409	-0.422018
O9	O	-1.340929	-0.543553	-0.445997
O10	O	-1.213829	-0.303756	-0.529845
O11	O	-1.117292	-0.422067	-0.293349
O12	O	-0.975719	-0.421324	-0.421271
O13	O	-1.092089	-0.542247	-0.670843
O14	O	-0.964811	-0.528591	-0.528532
O15	O	-1.199433	-0.445327	-0.671409
O16	O	-1.199255	-0.671468	-0.445250
O17	O	-1.091988	-0.670905	-0.542174
C18	C	-0.940178	-0.473347	-0.473291
C19	C	-0.848011	-0.468432	-0.468379
C20	C	-1.144021	-0.701429	-0.495174
C21	C	-1.139134	-0.794074	-0.499635
C22	C	-0.679260	-0.459439	-0.459418
C23	C	-0.632809	-0.510402	-0.510236
C24	C	-0.538910	-0.505398	-0.505249
C25	C	-0.773167	-0.464442	-0.464403
C26	C	-0.371896	-0.496470	-0.496384
C27	C	-0.464063	-0.501412	-0.501277
C28	C	-1.130217	-0.963697	-0.507797
C29	C	-1.181163	-1.005240	-0.461868
C30	C	-1.176202	-1.099624	-0.466409
C31	C	-1.135178	-0.869304	-0.503257
C32	C	-1.144117	-0.495272	-0.702213
C33	C	-1.139216	-0.499699	-0.794853
C34	C	-1.167279	-0.267496	-0.474448
C35	C	-1.172249	-0.174858	-0.470027
C36	C	-1.130240	-0.507761	-0.964463
C37	C	-1.181169	-0.461767	-1.006028
C38	C	-1.176175	-0.466253	-1.100406
C39	C	-1.135233	-0.503276	-0.870078
C40	C	-1.167122	-0.474480	-0.268275
C41	C	-1.172196	-0.469827	-0.175634
H42	H	-0.648509	-0.412055	-0.412169
H43	H	-1.228521	-0.419021	-0.970734
O44	O	-1.067522	-0.564381	-1.011211
H45	H	-1.030977	-0.597382	-0.966206
H46	H	-0.663561	-0.557789	-0.557488
O47	O	-1.243874	-0.958467	-0.405258
H48	H	-1.237975	-0.890599	-0.410523
O49	O	-1.067494	-1.010468	-0.564384
H50	H	-1.073384	-1.078334	-0.559100
