data_functionalizedCrystal
_audit_creation_method	'MofGen! by Chris Wilmer'
_symmetry_space_group_name_H-M	'P1'
_symmetry_Int_Tables_number	1
_symmetry_cell_setting	triclinic
loop_
_symmetry_equiv_pos_as_xyz
  x,y,z
_cell_length_a	21.395362
_cell_length_b	16.625546
_cell_length_c	16.625539
_cell_angle_alpha	90.028532
_cell_angle_beta	90.036465
_cell_angle_gamma	90.038346
loop_
_atom_site_label
_atom_site_type_symbol
_atom_site_fract_x
_atom_site_fract_y
_atom_site_fract_z
Zn1	Zn	0.957849	-0.320673	0.456315
Zn2	Zn	1.291182	0.012660	0.789649
Zn3	Zn	1.624516	0.345993	1.122982
Zn4	Zn	0.957780	-0.455512	0.321478
Zn5	Zn	1.291114	-0.122179	0.654811
Zn6	Zn	1.624447	0.211155	0.988144
Zn7	Zn	0.853078	-0.320734	0.321450
Zn8	Zn	1.186411	0.012599	0.654784
Zn9	Zn	1.519744	0.345932	0.988117
Zn10	Zn	0.853048	-0.455505	0.456222
Zn11	Zn	1.186382	-0.122172	0.789555
Zn12	Zn	1.519715	0.211162	1.122888
O13	O	0.905439	-0.388106	0.388866
O14	O	1.238772	-0.054773	0.722200
O15	O	1.572106	0.278561	1.055533
O16	O	1.045518	-0.338537	0.438479
O17	O	1.378851	-0.005204	0.771813
O18	O	1.712185	0.328129	1.105146
O19	O	0.943875	-0.437662	0.208642
O20	O	1.277208	-0.104329	0.541975
O21	O	1.610542	0.229005	0.875308
O22	O	0.867017	-0.207894	0.339368
O23	O	1.200350	0.125439	0.672701
O24	O	1.533684	0.458773	1.006035
O25	O	1.045467	-0.437603	0.339415
O26	O	1.378801	-0.104269	0.672748
O27	O	1.712134	0.229064	1.006081
O28	O	0.943992	-0.207849	0.438453
O29	O	1.277325	0.125484	0.771786
O30	O	1.610659	0.458818	1.105120
O31	O	0.866950	-0.338642	0.208621
O32	O	1.200284	-0.005308	0.541955
O33	O	1.533617	0.328025	0.875288
O34	O	0.765396	-0.338635	0.339277
O35	O	1.098729	-0.005301	0.672611
O36	O	1.432063	0.328032	1.005944
O37	O	0.866967	-0.437591	0.569067
O38	O	1.200300	-0.104257	0.902400
O39	O	1.533634	0.229076	1.235733
O40	O	0.765374	-0.437650	0.438293
O41	O	1.098708	-0.104317	0.771627
O42	O	1.432041	0.229017	1.104960
O43	O	0.943964	-0.338530	0.569135
O44	O	1.277297	-0.005197	0.902469
O45	O	1.610630	0.328136	1.235802
O46	O	0.943846	-0.568343	0.339324
O47	O	1.277180	-0.235010	0.672657
O48	O	1.610513	0.098323	1.005991
O49	O	0.866900	-0.568338	0.438320
O50	O	1.200233	-0.235005	0.771653
O51	O	1.533567	0.098328	1.104987
C52	C	0.742651	-0.388149	0.388773
C53	C	1.075985	-0.054815	0.722106
C54	C	1.409318	0.278518	1.055439
C55	C	0.673010	-0.388186	0.388752
C56	C	1.006343	-0.054853	0.722085
C57	C	1.339677	0.278480	1.055418
C58	C	0.640302	-0.439812	0.440232
C59	C	0.973635	-0.106479	0.773566
C60	C	1.306969	0.226855	1.106899
C61	C	0.574867	-0.439792	0.440268
C62	C	0.908200	-0.106459	0.773602
C63	C	1.241533	0.226874	1.106935
C64	C	0.542142	-0.388155	0.388809
C65	C	0.875475	-0.054822	0.722143
C66	C	1.208808	0.278511	1.055476
C67	C	0.574858	-0.336520	0.337325
C68	C	0.908191	-0.003186	0.670659
C69	C	1.241524	0.330147	1.003992
C70	C	0.640292	-0.336535	0.337296
C71	C	0.973625	-0.003202	0.670630
C72	C	1.306958	0.330131	1.003963
C73	C	0.438424	-0.381673	0.316222
C74	C	0.771757	-0.048339	0.649555
C75	C	1.105090	0.284994	0.982888
C76	C	0.372991	-0.381663	0.316249
C77	C	0.706324	-0.048329	0.649582
C78	C	1.039657	0.285004	0.982916
C79	C	0.340321	-0.388103	0.388898
C80	C	0.673654	-0.054769	0.722232
C81	C	1.006988	0.278564	1.055565
C82	C	0.373092	-0.394570	0.461523
C83	C	0.706426	-0.061236	0.794856
C84	C	1.039759	0.272097	1.128189
C85	C	0.438526	-0.394585	0.461494
C86	C	0.771860	-0.061252	0.794827
C87	C	1.105193	0.272081	1.128161
C88	C	0.471189	-0.388132	0.388835
C89	C	0.804523	-0.054799	0.722168
C90	C	1.137856	0.278534	1.055502
C91	C	0.236660	-0.439710	0.440422
C92	C	0.569994	-0.106376	0.773755
C93	C	0.903327	0.226957	1.107089
C94	C	0.171224	-0.439684	0.440459
C95	C	0.504557	-0.106351	0.773793
C96	C	0.837891	0.226982	1.107126
C97	C	0.171216	-0.336416	0.337509
C98	C	0.504549	-0.003083	0.670842
C99	C	0.837883	0.330251	1.004176
C100	C	0.236651	-0.336437	0.337479
C101	C	0.569985	-0.003104	0.670812
C102	C	0.903318	0.330230	1.004146
C103	C	0.269370	-0.388088	0.388934
C104	C	0.602703	-0.054755	0.722268
C105	C	0.936036	0.278578	1.055601
C106	C	0.905380	-0.597597	0.388832
C107	C	1.238713	-0.264264	0.722166
C108	C	1.572046	0.069070	1.055499
C109	C	0.905412	-0.687218	0.388845
C110	C	1.238745	-0.353885	0.722178
C111	C	1.572078	-0.020551	1.055512
C112	C	0.905521	-1.015394	0.388929
C113	C	1.238854	-0.682060	0.722262
C114	C	1.572188	-0.348727	1.055596
C115	C	0.905488	-0.924085	0.388908
C116	C	1.238822	-0.590752	0.722241
C117	C	1.572155	-0.257419	1.055575
C118	C	0.905466	-0.851309	0.388887
C119	C	1.238799	-0.517975	0.722220
C120	C	1.572132	-0.184642	1.055553
C121	C	0.905434	-0.759995	0.388866
C122	C	1.238768	-0.426661	0.722200
C123	C	1.572101	-0.093328	1.055533
C124	C	1.068862	-0.388064	0.388961
C125	C	1.402196	-0.054731	0.722294
C126	C	1.735529	0.278603	1.055627
C127	C	1.138503	-0.388046	0.389001
C128	C	1.471837	-0.054713	0.722334
C129	C	1.805170	0.278621	1.055668
C130	C	0.905470	-0.388053	0.599175
C131	C	1.238803	-0.054720	0.932509
C132	C	1.572136	0.278614	1.265842
C133	C	0.905483	-0.388030	0.688796
C134	C	1.238816	-0.054697	1.022130
C135	C	1.572149	0.278636	1.355463
C136	C	0.905515	-0.177797	0.388918
C137	C	1.238849	0.155536	0.722251
C138	C	1.572182	0.488869	1.055584
C139	C	0.905548	-0.088176	0.388940
C140	C	1.238881	0.245157	0.722273
C141	C	1.572215	0.578491	1.055606
C142	C	0.905444	-0.388101	0.179375
C143	C	1.238778	-0.054768	0.512709
C144	C	1.572111	0.278566	0.846042
C145	C	0.905553	-0.387896	0.089755
C146	C	1.238886	-0.054563	0.423088
C147	C	1.572219	0.278770	0.756421
C148	C	0.905493	-0.388012	0.761579
C149	C	1.238826	-0.054679	1.094912
C150	C	1.572160	0.278654	1.428246
C151	C	0.905508	-0.387982	0.852887
C152	C	1.238841	-0.054649	1.186221
C153	C	1.572174	0.278684	1.519554
C154	C	0.905522	-0.387954	0.925664
C155	C	1.238856	-0.054621	1.258997
C156	C	1.572189	0.278713	1.592331
C157	C	0.905538	-0.387925	1.016978
C158	C	1.238871	-0.054592	1.350312
C159	C	1.572205	0.278742	1.683645
H160	H	0.144594	-0.481723	0.482386
H161	H	0.477927	-0.148389	0.815719
H162	H	0.811261	0.184944	1.149053
C163	C	0.676275	-0.279749	0.280664
C164	C	1.009608	0.053584	0.613998
C165	C	1.342941	0.386918	0.947331
H166	H	0.719931	-0.287152	0.288020
H167	H	1.053265	0.046181	0.621353
H168	H	1.386598	0.379515	0.954687
H169	H	0.665501	-0.291472	0.226472
H170	H	0.998835	0.041862	0.559806
H171	H	1.332168	0.375195	0.893139
H172	H	0.665598	-0.225583	0.292575
H173	H	0.998932	0.107750	0.625908
H174	H	1.332265	0.441083	0.959242
C175	C	0.538866	-0.279719	0.280721
C176	C	0.872199	0.053615	0.614054
C177	C	1.205533	0.386948	0.947388
H178	H	0.567720	-0.248969	0.250060
H179	H	0.901053	0.084365	0.583393
H180	H	1.234387	0.417698	0.916726
H181	H	0.513293	-0.310508	0.245543
H182	H	0.846626	0.022825	0.578877
H183	H	1.179960	0.356158	0.912210
H184	H	0.513387	-0.244620	0.311646
H185	H	0.846721	0.088714	0.644979
H186	H	1.180054	0.422047	0.978312
C187	C	0.336945	-0.374606	0.236364
C188	C	0.670278	-0.041273	0.569698
C189	C	1.003612	0.292060	0.903031
H190	H	0.293296	-0.375547	0.246783
H191	H	0.626630	-0.042213	0.580116
H192	H	0.959963	0.291120	0.913449
H193	H	0.347664	-0.325501	0.210632
H194	H	0.680998	0.007833	0.543965
H195	H	1.014331	0.341166	0.877299
H196	H	0.347632	-0.418449	0.202396
H197	H	0.680965	-0.085116	0.535729
H198	H	1.014298	0.248217	0.869062
H199	H	0.666937	-0.481869	0.482132
H200	H	1.000270	-0.148536	0.815466
H201	H	1.333604	0.184797	1.148799
H202	H	0.465018	-0.376425	0.257058
H203	H	0.798351	-0.043091	0.590391
H204	H	1.131684	0.290242	0.923724
H205	H	0.263301	-0.481763	0.482324
H206	H	0.596634	-0.148430	0.815658
H207	H	0.929968	0.184904	1.148991
H208	H	0.548231	-0.481832	0.482193
H209	H	0.881564	-0.148498	0.815526
H210	H	1.214897	0.184835	1.148860
H211	H	0.465206	-0.399848	0.520627
H212	H	0.798540	-0.066515	0.853960
H213	H	1.131873	0.266818	1.187294
H214	H	0.346494	-0.399812	0.520681
H215	H	0.679827	-0.066479	0.854014
H216	H	1.013161	0.266854	1.187348
H217	H	0.144572	-0.294368	0.295614
H218	H	0.477905	0.038965	0.628947
H219	H	0.811239	0.372298	0.962281
H220	H	0.263283	-0.294402	0.295554
H221	H	0.596616	0.038931	0.628887
H222	H	0.929949	0.372265	0.962221
