data_functionalizedCrystal
_audit_creation_method	'MofGen! by Chris Wilmer'
_symmetry_space_group_name_H-M	'P1'
_symmetry_Int_Tables_number	1
_symmetry_cell_setting	triclinic
loop_
_symmetry_equiv_pos_as_xyz
  x,y,z
_cell_length_a	19.288840
_cell_length_b	19.288865
_cell_length_c	17.766277
_cell_angle_alpha	89.988397
_cell_angle_beta	89.983415
_cell_angle_gamma	83.131131
loop_
_atom_site_label
_atom_site_type_symbol
_atom_site_fract_x
_atom_site_fract_y
_atom_site_fract_z
O1	O	0.921364	0.086566	-0.062729
O2	O	0.719101	0.098273	-0.062704
O3	O	0.826077	-0.008711	-0.062702
O4	O	0.814388	0.193550	-0.062730
O5	O	0.826058	-0.008717	0.062487
O6	O	0.719082	0.098267	0.062485
O7	O	0.921345	0.086560	0.062460
Cu8	Cu	0.820212	0.092413	0.073903
Cu9	Cu	0.820234	0.092420	-0.074147
O10	O	0.814369	0.193545	0.062458
C11	C	0.693215	0.097896	-0.000106
C12	C	0.616110	0.096774	-0.000096
C13	C	0.579917	0.096238	-0.068338
C14	C	0.507470	0.095176	-0.068347
C15	C	0.471221	0.094636	-0.000110
C16	C	0.507423	0.095176	0.068141
C17	C	0.579867	0.096245	0.068148
C18	C	0.361886	0.052256	0.052164
C19	C	0.289443	0.051183	0.052155
C20	C	0.247778	0.091342	-0.000129
C21	C	0.278565	0.132566	-0.052416
C22	C	0.351010	0.133635	-0.052408
C23	C	0.392667	0.093477	-0.000110
C24	C	0.133029	0.089655	-0.068386
C25	C	0.060580	0.088598	-0.068392
C26	C	0.060535	0.088591	0.068098
C27	C	0.132982	0.089656	0.068102
C28	C	0.169225	0.090185	-0.000142
C29	C	0.825692	-0.034591	-0.000105
C30	C	0.824563	-0.111694	-0.000099
C31	C	0.887331	-0.156396	-0.000103
C32	C	0.886270	-0.228843	-0.000114
C33	C	0.822438	-0.256585	-0.000107
C34	C	0.759661	-0.211873	-0.000107
C35	C	0.760723	-0.139428	-0.000103
C36	C	0.772251	-0.364870	0.043750
C37	C	0.771191	-0.437314	0.043750
C38	C	0.819158	-0.480030	-0.000123
C39	C	0.868196	-0.450295	-0.043988
C40	C	0.869259	-0.377849	-0.043984
C41	C	0.821278	-0.335139	-0.000112
C42	C	0.880781	-0.603288	-0.000141
C43	C	0.879717	-0.675736	-0.000158
C44	C	0.753106	-0.658764	-0.000143
C45	C	0.754171	-0.586318	-0.000134
C46	C	0.818010	-0.558584	-0.000130
C47	C	0.947232	0.086937	-0.000139
C48	C	1.024336	0.088059	-0.000154
C49	C	0.814755	0.219424	-0.000140
C50	C	0.815884	0.296527	-0.000152
N51	N	0.820202	0.092409	0.178034
N52	N	0.820250	0.092419	-0.178277
C53	C	0.867586	0.045059	0.217421
C54	C	0.867590	0.045056	0.296223
C55	C	0.820216	0.092414	0.335634
C56	C	0.772823	0.139767	0.296237
C57	C	0.772816	0.139764	0.217437
C58	C	0.810917	0.155703	0.460464
C59	C	0.810930	0.155706	0.539263
C60	C	0.820235	0.092422	0.578680
C61	C	0.829543	0.029132	0.539290
C62	C	0.829535	0.029129	0.460489
C63	C	0.820219	0.092422	0.421080
C64	C	0.867626	0.045065	0.703514
C65	C	0.867625	0.045061	0.782317
C66	C	0.772862	0.139779	0.782330
C67	C	0.772859	0.139777	0.703528
C68	C	0.820245	0.092421	0.664125
H69	H	0.244642	0.165270	-0.094987
H70	H	0.609422	0.096669	-0.123907
H71	H	0.734287	0.178336	0.814418
O72	O	0.913685	-0.000971	0.334378
C73	C	1.007645	-0.094946	0.326056
C74	C	0.955495	-0.042847	0.282755
H75	H	1.041452	-0.128826	0.284337
H76	H	1.042297	-0.065084	0.362907
H77	H	0.977754	-0.129533	0.362989
H78	H	0.985329	-0.008247	0.245781
H79	H	0.920843	-0.072752	0.245951
H80	H	0.709608	-0.103030	-0.000099
H81	H	0.376073	0.167202	-0.094980
O82	O	0.916792	-0.348875	-0.086644
C83	C	0.935610	-0.269450	-0.187273
C84	C	0.881707	-0.302198	-0.138998
H85	H	0.907265	-0.231716	-0.229623
H86	H	0.969753	-0.240002	-0.149371
H87	H	0.969725	-0.312435	-0.218597
H88	H	0.847545	-0.259257	-0.107666
H89	H	0.847614	-0.331663	-0.176938
H90	H	0.264382	0.017613	0.094726
O91	O	0.947311	-0.272178	-0.000083
C92	C	1.073002	-0.281371	-0.000128
C93	C	1.003927	-0.232218	-0.000147
H94	H	1.118795	-0.249084	-0.000196
H95	H	1.075703	-0.315709	0.052274
H96	H	1.075642	-0.315717	-0.052508
H97	H	1.001242	-0.197829	0.052198
H98	H	1.001255	-0.197928	-0.052584
O99	O	0.472413	0.094626	-0.134708
C100	C	0.480093	0.094781	-0.270084
C101	C	0.519880	0.095387	-0.194987
H102	H	0.518451	0.095411	-0.318839
H103	H	0.452716	0.045671	-0.273540
H104	H	0.439642	0.142869	-0.273464
H105	H	0.560365	0.047333	-0.191556
H106	H	0.547210	0.144530	-0.191563
O107	O	0.802008	0.217166	0.577560
C108	C	0.850693	0.292277	0.666529
C109	C	0.860897	0.222659	0.623191
H110	H	0.898290	0.296734	0.703444
H111	H	0.844069	0.337539	0.624861
H112	H	0.802134	0.294076	0.703407
H113	H	0.909458	0.220791	0.586312
H114	H	0.867480	0.177429	0.664900
H115	H	0.609335	0.096683	0.123721
O116	O	0.913580	-0.001014	0.665241
C117	C	0.954714	-0.121880	0.641096
C118	C	0.902623	-0.069785	0.684486
H119	H	0.945883	-0.177492	0.656651
H120	H	0.946553	-0.113775	0.578007
H121	H	1.010311	-0.112931	0.656546
H122	H	0.847005	-0.078702	0.669099
H123	H	0.910845	-0.077902	0.747565
H124	H	0.703058	-0.549920	-0.000127
O125	O	0.838548	-0.032409	0.422342
C126	C	0.857043	-0.157952	0.430674
C127	C	0.846831	-0.088311	0.473969
H128	H	0.863757	-0.203167	0.472396
H129	H	0.809422	-0.162503	0.393825
H130	H	0.905563	-0.159737	0.393738
H131	H	0.798337	-0.086479	0.510946
H132	H	0.894489	-0.083789	0.510770
H133	H	0.837120	-0.022400	0.571382
H134	H	0.162539	0.090094	-0.123954
O135	O	0.914888	-0.491763	-0.086522
C136	C	1.036134	-0.530191	-0.111864
C137	C	0.983333	-0.483203	-0.063635
H138	H	1.091484	-0.523276	-0.093389
H139	H	1.027010	-0.587093	-0.104327
H140	H	1.028994	-0.514953	-0.173626
H141	H	0.990443	-0.498380	-0.001856
H142	H	0.992472	-0.426313	-0.071236
H143	H	0.162451	0.090088	0.123672
O144	O	0.949300	-0.129376	-0.000208
C145	C	1.024012	-0.057462	-0.065096
C146	C	0.953801	-0.088002	-0.065059
H147	H	1.027681	-0.024016	-0.117531
H148	H	1.027682	-0.023934	-0.012741
H149	H	1.068679	-0.101875	-0.065066
H150	H	0.909094	-0.043634	-0.065115
H151	H	0.950193	-0.121549	-0.117410
O152	O	0.942852	-0.576458	-0.000184
C153	C	1.068318	-0.600935	-0.000170
C154	C	0.998073	-0.631410	-0.000135
H155	H	1.112984	-0.645349	-0.000114
H156	H	1.072031	-0.567455	-0.052572
H157	H	1.071941	-0.567431	0.052211
H158	H	0.994404	-0.664946	-0.052480
H159	H	0.994391	-0.664851	0.052301
H160	H	0.906168	0.006498	0.185341
H161	H	0.731258	-0.461518	0.079463
O162	O	0.691037	-0.685588	-0.000169
C163	C	0.565570	-0.661109	-0.000109
C164	C	0.635816	-0.630635	-0.000093
H165	H	0.520905	-0.616694	-0.000031
H166	H	0.561867	-0.694564	-0.052515
H167	H	0.561937	-0.694639	0.052267
H168	H	0.639496	-0.597074	-0.052434
H169	H	0.639489	-0.597220	0.052348
H170	H	0.031021	0.088156	0.123658
H171	H	0.477904	0.094738	0.123700
O172	O	0.726809	0.185846	0.665379
C173	C	0.632792	0.279763	0.673710
C174	C	0.684921	0.227639	0.717006
H175	H	0.598902	0.313557	0.715431
H176	H	0.662630	0.314431	0.636816
H177	H	0.598218	0.249851	0.636819
H178	H	0.719508	0.257494	0.753938
H179	H	0.655040	0.192971	0.753852
H180	H	0.930833	-0.712132	-0.000165
H181	H	0.031112	0.088165	-0.123965
O182	O	0.725619	-0.323481	0.086436
C183	C	0.629259	-0.318248	0.173419
C184	C	0.682040	-0.365201	0.125133
H185	H	0.594002	-0.351958	0.204706
H186	H	0.658528	-0.288213	0.215789
H187	H	0.596138	-0.279800	0.135461
H188	H	0.715176	-0.403688	0.163032
H189	H	0.652728	-0.395187	0.082757
O190	O	0.801908	0.217245	0.422294
C191	C	0.783432	0.342789	0.430584
C192	C	0.793639	0.273147	0.473903
H193	H	0.776729	0.388004	0.472292
H194	H	0.831049	0.347333	0.393696
H195	H	0.734905	0.344580	0.393687
H196	H	0.842140	0.271308	0.510842
H197	H	0.745986	0.268631	0.510744
O198	O	0.697697	-0.238901	-0.000199
C199	C	0.623013	-0.310800	-0.065075
C200	C	0.693221	-0.280252	-0.065050
H201	H	0.619365	-0.344227	-0.117509
H202	H	0.619331	-0.344348	-0.012719
H203	H	0.578343	-0.266391	-0.065034
H204	H	0.737932	-0.324617	-0.065117
H205	H	0.696842	-0.246686	-0.117401
H206	H	0.906209	0.006500	0.814387
O207	O	0.726777	0.185676	0.334601
C208	C	0.631856	0.200712	0.423575
C209	C	0.683980	0.148645	0.380189
H210	H	0.597232	0.170793	0.460431
H211	H	0.661699	0.235326	0.460494
H212	H	0.598017	0.234569	0.381870
H213	H	0.717832	0.114742	0.421839
H214	H	0.654094	0.114079	0.343258
H215	H	0.734229	0.178323	0.185366
O216	O	0.402258	0.013173	0.102983
C217	C	0.405399	-0.067643	0.206718
C218	C	0.359599	-0.023429	0.149201
H219	H	0.370927	-0.097235	0.244110
H220	H	0.444576	-0.106443	0.175690
H221	H	0.434604	-0.031938	0.242970
H222	H	0.330350	-0.059079	0.112933
H223	H	0.320466	0.015378	0.180276
