data_functionalizedCrystal
_audit_creation_method	'MofGen! by Chris Wilmer'
_symmetry_space_group_name_H-M	'P1'
_symmetry_Int_Tables_number	1
_symmetry_cell_setting	triclinic
loop_
_symmetry_equiv_pos_as_xyz
  x,y,z
_cell_length_a	13.033409
_cell_length_b	13.033855
_cell_length_c	13.032268
_cell_angle_alpha	89.130626
_cell_angle_beta	74.837427
_cell_angle_gamma	76.696889
loop_
_atom_site_label
_atom_site_type_symbol
_atom_site_fract_x
_atom_site_fract_y
_atom_site_fract_z
Zn1	Zn	1.643883	-0.662332	0.297617
Zn2	Zn	1.977216	-0.328999	0.630950
Zn3	Zn	2.310549	0.004334	0.964284
Zn4	Zn	1.688915	-0.817399	0.097473
Zn5	Zn	2.022248	-0.484065	0.430807
Zn6	Zn	2.355581	-0.150732	0.764140
Zn7	Zn	1.483112	-0.623026	0.148340
Zn8	Zn	1.816445	-0.289693	0.481673
Zn9	Zn	2.149779	0.043640	0.815007
Zn10	Zn	1.488826	-0.817359	0.297630
Zn11	Zn	1.822160	-0.484026	0.630964
Zn12	Zn	2.155493	-0.150693	0.964297
O13	O	1.576184	-0.730029	0.210265
O14	O	1.909517	-0.396696	0.543598
O15	O	2.242851	-0.063363	0.876932
O16	O	1.800877	-0.699368	0.249774
O17	O	2.134210	-0.366035	0.583108
O18	O	2.467544	-0.032702	0.916441
O19	O	1.678069	-0.775181	-0.042018
O20	O	2.011402	-0.441848	0.291315
O21	O	2.344736	-0.108515	0.624648
O22	O	1.483201	-0.482015	0.189424
O23	O	1.816535	-0.148682	0.522757
O24	O	2.149868	0.184651	0.856091
O25	O	1.833962	-0.813295	0.102730
O26	O	2.167295	-0.479961	0.436063
O27	O	2.500628	-0.146628	0.769396
O28	O	1.601319	-0.510894	0.299097
O29	O	1.934652	-0.177560	0.632431
O30	O	2.267985	0.155773	0.965764
O31	O	1.526867	-0.632377	-0.004647
O32	O	1.860200	-0.299043	0.328686
O33	O	2.193533	0.034290	0.662020
O34	O	1.332849	-0.632339	0.189437
O35	O	1.666183	-0.299006	0.522770
O36	O	1.999516	0.034328	0.856103
O37	O	1.492940	-0.813228	0.443868
O38	O	1.826274	-0.479895	0.777201
O39	O	2.159607	-0.146562	1.110534
O40	O	1.337048	-0.775115	0.299120
O41	O	1.670381	-0.441781	0.632453
O42	O	2.003714	-0.108448	0.965786
O43	O	1.606860	-0.699331	0.443858
O44	O	1.940193	-0.365997	0.777191
O45	O	2.273526	-0.032664	1.110525
O46	O	1.683610	-0.963618	0.102742
O47	O	2.016943	-0.630285	0.436076
O48	O	2.350277	-0.296952	0.769409
O49	O	1.536606	-0.963590	0.249797
O50	O	1.869939	-0.630256	0.583130
O51	O	2.203273	-0.296923	0.916463
C52	C	1.295791	-0.699458	0.249800
C53	C	1.629124	-0.366125	0.583133
C54	C	1.962457	-0.032791	0.916467
C55	C	1.175838	-0.686408	0.266734
C56	C	1.509171	-0.353074	0.600068
C57	C	1.842505	-0.019741	0.933401
C58	C	1.014745	-0.723361	0.218948
C59	C	1.348078	-0.390028	0.552282
C60	C	1.681412	-0.056695	0.885615
C61	C	1.138724	-0.736853	0.201440
C62	C	1.472057	-0.403519	0.534774
C63	C	1.805390	-0.070186	0.868107
C64	C	1.615641	-1.001524	0.170770
C65	C	1.948975	-0.668191	0.504103
C66	C	2.282308	-0.334857	0.837437
C67	C	1.632616	-1.117685	0.153895
C68	C	1.965949	-0.784352	0.487228
C69	C	2.299283	-0.451019	0.820561
C70	C	1.567407	-1.169482	0.219081
C71	C	1.900740	-0.836149	0.552415
C72	C	2.234073	-0.502816	0.885748
C73	C	1.584949	-1.289541	0.201642
C74	C	1.918283	-0.956208	0.534975
C75	C	2.251616	-0.622875	0.868308
C76	C	1.857672	-0.760720	0.170576
C77	C	2.191006	-0.427387	0.503910
C78	C	2.524339	-0.094054	0.837243
C79	C	1.977626	-0.773799	0.153663
C80	C	2.310959	-0.440466	0.486997
C81	C	2.644293	-0.107133	0.820330
C82	C	1.545514	-0.760660	0.482841
C83	C	1.878848	-0.427326	0.816175
C84	C	2.212181	-0.093993	1.149508
C85	C	1.532445	-0.773712	0.598997
C86	C	1.865778	-0.440379	0.932330
C87	C	2.199111	-0.107046	1.265664
C88	C	1.536599	-0.457480	0.249933
C89	C	1.869933	-0.124147	0.583267
C90	C	2.203266	0.209187	0.916600
C91	C	1.519731	-0.341336	0.266837
C92	C	1.853064	-0.008002	0.600171
C93	C	2.186398	0.325331	0.933504
C94	C	1.606786	-0.699449	-0.061249
C95	C	1.940119	-0.366116	0.272085
C96	C	2.273452	-0.032783	0.605418
C97	C	1.620021	-0.686125	-0.177390
C98	C	1.953355	-0.352792	0.155943
C99	C	2.286688	-0.019458	0.489276
C100	C	1.582983	-0.723177	0.650778
C101	C	1.916316	-0.389844	0.984112
C102	C	2.249650	-0.056511	1.317445
C103	C	1.569476	-0.736667	0.770831
C104	C	1.902809	-0.403334	1.104165
C105	C	2.236143	-0.070000	1.437498
H106	H	0.954739	-0.670196	0.287806
H107	H	1.288073	-0.336863	0.621140
H108	H	1.621406	-0.003529	0.954473
F109	F	1.652584	-0.653548	0.592564
F110	F	1.985917	-0.320215	0.925897
F111	F	2.319250	0.013118	1.259230
H112	H	1.037632	-0.826976	0.084814
H113	H	1.370965	-0.493642	0.418147
H114	H	1.704299	-0.160309	0.751481
H115	H	1.198727	-0.790033	0.132586
H116	H	1.532060	-0.456699	0.465919
H117	H	1.865393	-0.123366	0.799252
H118	H	1.498587	-1.124946	0.287799
H119	H	1.831920	-0.791613	0.621132
H120	H	2.165254	-0.458280	0.954465
H121	H	1.450907	-1.296802	0.335559
H122	H	1.784240	-0.963469	0.668892
H123	H	2.117573	-0.630136	1.002226
H124	H	1.516197	-0.789915	0.815376
H125	H	1.849531	-0.456581	1.148710
H126	H	2.182864	-0.123248	1.482043
H127	H	1.115836	-0.633237	0.335596
H128	H	1.449170	-0.299903	0.668930
H129	H	1.782503	0.033430	1.002263
H130	H	1.673286	-0.632863	0.778070
H131	H	2.006619	-0.299530	1.111403
H132	H	2.339952	0.033804	1.444736
H133	H	1.701429	-1.162222	0.085172
H134	H	2.034762	-0.828889	0.418506
H135	H	2.368095	-0.495556	0.751839
H136	H	1.653767	-1.334074	0.132915
H137	H	1.987100	-1.000741	0.466248
H138	H	2.320434	-0.667408	0.799581
H139	H	1.479170	-0.826956	0.643546
H140	H	1.812503	-0.493623	0.976879
H141	H	2.145836	-0.160290	1.310213
