data_functionalizedCrystal
_audit_creation_method	'MofGen! by Chris Wilmer'
_symmetry_space_group_name_H-M	'P1'
_symmetry_Int_Tables_number	1
_symmetry_cell_setting	triclinic
loop_
_symmetry_equiv_pos_as_xyz
  x,y,z
_cell_length_a	15.995350
_cell_length_b	16.109301
_cell_length_c	14.586319
_cell_angle_alpha	90.000787
_cell_angle_beta	89.998440
_cell_angle_gamma	96.523072
loop_
_atom_site_label
_atom_site_type_symbol
_atom_site_fract_x
_atom_site_fract_y
_atom_site_fract_z
O1	O	0.107624	-1.103160	-0.076178
O2	O	0.607624	-0.603160	0.423822
O3	O	0.121018	-0.861101	-0.076192
O4	O	0.621018	-0.361101	0.423808
O5	O	-0.007569	-0.988747	-0.076184
O6	O	0.492431	-0.488747	0.423816
O7	O	0.236210	-0.975514	-0.076186
O8	O	0.736210	-0.475514	0.423814
O9	O	-0.007570	-0.988739	0.076297
O10	O	0.492430	-0.488739	0.576297
O11	O	0.121016	-0.861093	0.076289
O12	O	0.621016	-0.361093	0.576289
O13	O	0.107622	-1.103151	0.076303
O14	O	0.607622	-0.603151	0.576303
Cu15	Cu	0.114319	-0.982121	0.090219
Cu16	Cu	0.614319	-0.482121	0.590219
Cu17	Cu	0.114321	-0.982131	-0.090107
Cu18	Cu	0.614321	-0.482131	0.409893
O19	O	0.236208	-0.975505	0.076295
O20	O	0.736208	-0.475505	0.576295
C21	C	0.120474	-0.830122	0.000047
C22	C	0.620474	-0.330122	0.500047
C23	C	0.118848	-0.737826	0.000041
C24	C	0.618848	-0.237826	0.500041
C25	C	-0.038764	-0.988196	0.000055
C26	C	0.461236	-0.488196	0.500055
C27	C	-0.131714	-0.986556	0.000050
C28	C	0.368286	-0.486556	0.500050
N29	N	0.114317	-0.982120	0.217050
N30	N	0.614317	-0.482120	0.717050
C31	C	-0.469460	-0.980665	0.000053
C32	C	0.030540	-0.480665	0.500053
C33	C	-0.422001	-0.889758	-0.000295
C34	C	0.077999	-0.389758	0.499705
C35	C	-0.325311	-0.891399	0.000049
C36	C	0.174689	-0.391399	0.500049
C37	C	-0.301900	-0.983587	0.000051
C38	C	0.198100	-0.483587	0.500051
C39	C	-0.342991	-1.028421	0.087126
C40	C	0.157009	-0.528421	0.587126
C41	C	-0.439626	-1.026137	0.087198
C42	C	0.060374	-0.526137	0.587198
C43	C	-0.439983	-1.028025	-0.086201
C44	C	0.060017	-0.528025	0.413799
C45	C	-0.343037	-1.028003	-0.087351
C46	C	0.156963	-0.528003	0.412649
C47	C	-0.207203	-0.985243	0.000053
C48	C	0.292797	-0.485243	0.500053
C49	C	-0.564157	-0.979012	0.000057
C50	C	-0.064157	-0.479012	0.500057
C51	C	0.267404	-0.976056	0.000054
C52	C	0.767404	-0.476056	0.500054
C53	C	0.360354	-0.977697	0.000053
C54	C	0.860354	-0.477697	0.500053
C55	C	0.108166	-1.134130	0.000062
C56	C	0.608166	-0.634130	0.500062
C57	C	0.109792	-1.226426	0.000062
C58	C	0.609792	-0.726426	0.500062
C59	C	0.191366	-0.515573	0.000051
C60	C	0.691366	-0.015573	0.500051
C61	C	0.189831	-0.428853	0.000057
C62	C	0.689831	0.071147	0.500057
C63	C	0.037268	-0.448686	0.000055
C64	C	0.537268	0.051314	0.500055
C65	C	0.038804	-0.535405	0.000055
C66	C	0.538804	-0.035405	0.500055
C67	C	0.115855	-0.568846	0.000049
C68	C	0.615855	-0.068846	0.500049
C69	C	0.112785	-0.395406	0.000054
C70	C	0.612785	0.104594	0.500054
C71	C	0.111120	-0.301380	0.000061
C72	C	0.611120	0.198620	0.500061
C73	C	0.117520	-0.662879	0.000044
C74	C	0.617520	-0.162879	0.500044
N75	N	0.114317	-0.982139	-0.216939
N76	N	0.614317	-0.482139	0.283061
C77	C	0.057398	-1.038660	0.452061
C78	C	0.557398	-0.538660	0.952061
C79	C	0.057396	-1.038662	0.548042
C80	C	0.557396	-0.538662	1.048042
C81	C	0.171238	-0.925593	0.548044
C82	C	0.671238	-0.425593	1.048044
C83	C	0.171236	-0.925587	0.452064
C84	C	0.671236	-0.425587	0.952064
C85	C	0.114316	-0.982125	0.404075
C86	C	0.614316	-0.482125	0.904075
C87	C	0.114317	-0.982134	0.596036
C88	C	0.614317	-0.482134	1.096036
C89	C	0.114315	-0.982136	0.700103
C90	C	0.614315	-0.482136	1.200103
C91	C	0.114317	-0.982122	0.300001
C92	C	0.614317	-0.482122	0.800001
H93	H	-0.440522	-0.853427	-0.062738
H94	H	0.059478	-0.353427	0.437262
O95	O	0.274467	-0.551647	0.000063
O96	O	0.774467	-0.051647	0.500063
H97	H	0.326716	-0.500030	0.000078
H98	H	0.826716	-0.000030	0.500078
H99	H	-0.460513	-0.998307	-0.152198
H100	H	0.039487	-0.498307	0.347802
H101	H	-0.471762	-1.095050	-0.086785
H102	H	0.028238	-0.595050	0.413215
H103	H	-0.471892	-1.092879	0.091150
H104	H	0.028108	-0.592879	0.591150
O105	O	0.232638	-0.864623	0.599802
O106	O	0.732638	-0.364623	1.099802
H107	H	0.223086	-0.874131	0.674605
H108	H	0.723086	-0.374131	1.174605
O109	O	-0.045832	-0.412611	0.000058
O110	O	0.454168	0.087389	0.500058
H111	H	-0.098082	-0.464227	0.000067
H112	H	0.401918	0.035773	0.500067
O113	O	-0.463868	-0.982814	0.173407
O114	O	0.036132	-0.482814	0.673407
H115	H	-0.406595	-0.963685	0.214650
H116	H	0.093405	-0.463685	0.714650
O117	O	0.271276	-0.371394	0.000065
O118	O	0.771276	0.128606	0.500065
H119	H	0.274228	-0.331401	-0.062076
H120	H	0.774228	0.168599	0.437924
H121	H	0.011047	-1.084697	0.587109
H122	H	0.511047	-0.584697	1.087109
O123	O	-0.042644	-0.592873	0.000060
O124	O	0.457356	-0.092873	0.500060
H125	H	-0.079516	-0.580997	-0.062092
H126	H	0.420484	-0.080997	0.437908
O127	O	-0.004013	-1.099625	0.400310
O128	O	0.495987	-0.599625	0.900310
H129	H	-0.044712	-1.064614	0.356593
H130	H	0.455288	-0.564614	0.856593
H131	H	0.217586	-0.879546	0.412992
H132	H	0.717586	-0.379546	0.912992
O133	O	-0.306865	-0.984652	-0.172687
O134	O	0.193135	-0.484652	0.327313
H135	H	-0.259780	-0.931694	-0.152945
H136	H	0.240220	-0.431694	0.347055
O137	O	-0.322723	-1.117059	-0.094314
O138	O	0.177277	-0.617059	0.405686
H139	H	-0.288434	-1.125231	-0.159261
H140	H	0.211566	-0.625231	0.340739
O141	O	-0.287645	-0.844700	-0.082620
O142	O	0.212355	-0.344700	0.417380
H143	H	-0.314669	-0.875010	-0.146000
H144	H	0.185331	-0.375010	0.354000
O145	O	-0.447928	-0.841838	0.081960
O146	O	0.052072	-0.341838	0.581960
H147	H	-0.516789	-0.838301	0.079522
H148	H	-0.016789	-0.338301	0.579522
O149	O	-0.288379	-0.844412	0.082875
O150	O	0.211621	-0.344412	0.582875
H151	H	-0.339592	-0.820434	0.122844
H152	H	0.160408	-0.320434	0.622844
H153	H	-0.314602	-0.997274	0.151923
H154	H	0.185398	-0.497274	0.651923
O155	O	-0.324301	-1.118132	0.091436
O156	O	0.175699	-0.618132	0.591436
H157	H	-0.285431	-1.131748	0.031419
H158	H	0.214569	-0.631748	0.531419
