data_functionalizedCrystal
_audit_creation_method	'MofGen! by Chris Wilmer'
_symmetry_space_group_name_H-M	'P1'
_symmetry_Int_Tables_number	1
_symmetry_cell_setting	triclinic
loop_
_symmetry_equiv_pos_as_xyz
  x,y,z
_cell_length_a	19.077236
_cell_length_b	13.897447
_cell_length_c	19.076919
_cell_angle_alpha	92.274152
_cell_angle_beta	89.887323
_cell_angle_gamma	92.312415
loop_
_atom_site_label
_atom_site_type_symbol
_atom_site_fract_x
_atom_site_fract_y
_atom_site_fract_z
Zn1	Zn	1.058313	-0.350146	-0.440553
Zn2	Zn	1.062962	-0.504728	-0.323052
Zn3	Zn	0.945528	-0.349641	-0.318333
Zn4	Zn	0.940782	-0.517596	-0.435790
O5	O	1.001897	-0.430528	-0.379432
O6	O	1.157263	-0.365478	-0.428934
O7	O	1.051317	-0.478558	-0.224095
O8	O	0.960530	-0.214725	-0.334565
O9	O	1.160679	-0.479048	-0.342606
O10	O	1.043392	-0.215096	-0.424359
O11	O	0.965038	-0.364616	-0.220628
O12	O	0.846565	-0.377094	-0.329946
O13	O	0.952441	-0.500981	-0.534753
O14	O	0.843079	-0.500490	-0.416241
O15	O	1.038790	-0.377956	-0.538252
O16	O	1.046715	-0.641418	-0.337988
O17	O	0.956950	-0.650872	-0.420817
C18	C	0.819325	-0.440135	-0.372065
C19	C	0.741220	-0.444269	-0.368930
C20	C	0.702745	-0.387183	-0.412473
C21	C	0.629357	-0.391062	-0.409521
C22	C	0.594445	-0.452033	-0.363030
C23	C	0.632925	-0.509121	-0.319483
C24	C	0.706312	-0.505236	-0.322432
C25	C	0.375152	-0.469977	-0.349381
C26	C	0.301760	-0.473860	-0.346438
C27	C	0.298197	-0.355800	-0.436475
C28	C	0.371586	-0.351924	-0.439422
C29	C	0.410060	-0.409008	-0.395873
N30	N	0.519430	-0.456002	-0.360014
N31	N	0.485073	-0.405034	-0.398886
C32	C	1.001840	-0.681144	-0.379414
C33	C	1.001879	-0.788357	-0.379432
C34	C	1.001913	-0.875426	-0.379449
C35	C	1.001961	-0.984657	-0.379469
C36	C	1.185181	-0.420884	-0.386828
C37	C	1.263285	-0.416775	-0.389980
C38	C	0.994568	-0.440960	-0.562712
C39	C	0.991444	-0.445406	-0.640815
C40	C	1.001972	-0.178932	-0.379467
C41	C	1.002004	-0.071718	-0.379482
C42	C	1.034932	-0.383445	-0.679330
C43	C	1.031989	-0.387619	-0.752716
C44	C	0.985561	-0.453760	-0.787585
C45	C	0.942069	-0.515723	-0.749063
C46	C	0.945009	-0.511544	-0.675679
C47	C	0.971944	-0.473123	-1.006865
C48	C	0.969009	-0.477300	-1.080254
C49	C	1.058929	-0.349194	-1.083902
C50	C	1.061868	-0.345025	-1.010516
C51	C	1.018373	-0.406985	-0.972001
N52	N	0.982553	-0.458030	-0.862596
N53	N	1.021377	-0.402709	-0.896991
C54	C	1.009237	-0.420064	-0.196867
C55	C	1.012497	-0.415339	-0.118770
H56	H	0.400006	-0.302279	-0.477282
O57	O	0.918926	-0.548634	-1.117867
H58	H	0.889170	-0.591010	-1.078757
O59	O	0.891987	-0.587057	-0.786666
H60	H	0.897251	-0.579561	-0.844166
H61	H	0.909589	-0.561990	-0.644320
H62	H	0.936538	-0.523589	-0.975515
H63	H	1.072741	-0.329590	-0.650946
O64	O	0.740400	-0.321415	-0.462612
H65	H	0.701314	-0.282363	-0.492387
O66	O	1.078897	-0.320797	-0.794261
H67	H	1.111683	-0.274114	-0.757687
O68	O	0.747809	-0.566806	-0.275464
H69	H	0.804705	-0.553853	-0.285318
H70	H	0.598034	-0.344579	-0.444979
H71	H	0.266864	-0.309324	-0.471929
H72	H	0.406469	-0.516461	-0.313921
O73	O	0.264100	-0.539618	-0.296287
H74	H	0.303182	-0.578653	-0.266494
H75	H	1.099676	-0.291169	-0.982131
H76	H	0.604494	-0.558760	-0.281626
H77	H	1.094339	-0.298749	-1.115268
