data_functionalizedCrystal
_audit_creation_method	'MofGen! by Chris Wilmer'
_symmetry_space_group_name_H-M	'P1'
_symmetry_Int_Tables_number	1
_symmetry_cell_setting	triclinic
loop_
_symmetry_equiv_pos_as_xyz
  x,y,z
_cell_length_a	27.732064
_cell_length_b	27.731996
_cell_length_c	15.500227
_cell_angle_alpha	92.797931
_cell_angle_beta	87.186563
_cell_angle_gamma	82.635407
loop_
_atom_site_label
_atom_site_type_symbol
_atom_site_fract_x
_atom_site_fract_y
_atom_site_fract_z
O1	O	0.643172	0.055300	-0.071800
O2	O	0.502380	0.064037	-0.071837
O3	O	0.577161	-0.010729	-0.071799
O4	O	0.568391	0.130066	-0.071838
O5	O	0.572623	-0.006210	0.072088
O6	O	0.497842	0.068556	0.072049
O7	O	0.638634	0.059820	0.072087
Cu8	Cu	0.567824	0.064600	0.085206
Cu9	Cu	0.573190	0.059256	-0.084956
O10	O	0.563853	0.134585	0.072048
C11	C	0.482104	0.066111	0.000102
C12	C	0.428450	0.065555	0.000088
C13	C	0.051384	0.017589	0.000151
C14	C	0.253045	0.019634	0.000128
O15	O	0.284303	-0.017587	0.000171
N16	N	0.272165	0.063969	0.000112
C17	C	0.240866	0.107796	0.000107
O18	O	0.261755	0.145553	0.000101
C19	C	0.039206	0.105750	0.000136
C20	C	0.020089	0.061412	0.000144
C21	C	0.032267	-0.026746	0.000160
C22	C	-0.018145	-0.027257	0.000161
C23	C	-0.049440	0.016566	0.000153
C24	C	-0.030323	0.060901	0.000145
C25	C	0.007907	0.149576	0.000137
C26	C	-0.042510	0.149061	0.000147
C27	C	-0.061627	0.104723	0.000154
C28	C	-0.112030	0.104213	0.000138
N29	N	-0.131150	0.059878	0.000155
C30	C	-0.099855	0.016055	0.000162
C31	C	0.346740	0.108867	0.000090
C32	C	0.397155	0.109378	0.000081
C33	C	0.409331	0.021216	0.000104
C34	C	0.358915	0.020705	0.000106
C35	C	0.327621	0.064532	0.000106
C36	C	-0.205724	0.014985	0.000164
C37	C	-0.256141	0.014478	0.000161
C38	C	-0.268312	0.102639	0.000143
C39	C	-0.217900	0.103147	0.000141
C40	C	-0.186606	0.059316	0.000154
O41	O	-0.143317	0.141414	0.000105
O42	O	-0.120754	-0.021696	0.000187
C43	C	0.101796	0.018100	0.000150
C44	C	0.120913	0.062434	0.000142
C45	C	0.089618	0.106257	0.000134
C46	C	0.171328	0.062946	0.000133
C47	C	0.202623	0.019122	0.000140
C48	C	0.183504	-0.025213	0.000157
C49	C	0.133091	-0.025724	0.000158
C50	C	0.108738	0.150592	0.000118
C51	C	0.159151	0.151100	0.000116
C52	C	0.190446	0.107276	0.000123
C53	C	0.574712	-0.026477	0.000148
C54	C	0.574169	-0.080133	0.000156
C55	C	0.573229	-0.415314	-0.078319
C56	C	0.571169	-0.616973	-0.078335
O57	O	0.572985	-0.645139	-0.145040
N58	N	0.568439	-0.639727	0.000096
C59	C	0.566221	-0.612062	0.078538
O60	O	0.563848	-0.636042	0.145248
C61	C	0.568278	-0.410404	0.078552
C62	C	0.571013	-0.387653	0.000116
C63	C	0.575963	-0.392564	-0.156750
C64	C	0.576481	-0.342152	-0.156745
C65	C	0.574265	-0.314491	-0.078310
C66	C	0.571531	-0.337242	0.000120
C67	C	0.566057	-0.382739	0.156993
C68	C	0.566571	-0.332322	0.156990
C69	C	0.569305	-0.309571	0.078553
C70	C	0.569832	-0.259170	0.078560
N71	N	0.572562	-0.236416	0.000129
C72	C	0.574778	-0.264077	-0.078306
C73	C	0.565143	-0.717936	0.078524
C74	C	0.564629	-0.768350	0.078521
C75	C	0.569576	-0.773258	-0.078352
C76	C	0.570092	-0.722843	-0.078348
C77	C	0.567872	-0.695182	0.000093
C78	C	0.575865	-0.158209	-0.078291
C79	C	0.576385	-0.107794	-0.078279
C80	C	0.571436	-0.102890	0.078594
C81	C	0.570919	-0.153302	0.078583
C82	C	0.573132	-0.180960	0.000133
O83	O	0.568012	-0.230973	0.145230
O84	O	0.577141	-0.240087	-0.145007
C85	C	0.572711	-0.465726	-0.078324
C86	C	0.569978	-0.488476	0.000106
C87	C	0.567761	-0.460815	0.078541
C88	C	0.569464	-0.538891	0.000103
C89	C	0.571680	-0.566551	-0.078332
C90	C	0.574410	-0.543798	-0.156764
C91	C	0.574928	-0.493386	-0.156759
C92	C	0.565032	-0.483569	0.156973
C93	C	0.564515	-0.533981	0.156962
C94	C	0.566731	-0.561641	0.078527
C95	C	0.658910	0.057745	0.000146
C96	C	0.712564	0.058301	0.000154
C97	C	0.566302	0.150333	0.000100
C98	C	0.566845	0.203989	0.000086
N99	N	0.564053	0.068359	0.204889
N100	N	0.576965	0.055493	-0.204639
C101	C	0.595751	0.036690	0.250182
C102	C	0.592904	0.039537	0.340753
C103	C	0.558360	0.074056	0.386030
C104	C	0.526658	0.105727	0.340731
C105	C	0.529504	0.102877	0.250161
C106	C	0.548109	0.084314	0.659492
C107	C	0.545267	0.087163	0.750068
C108	C	0.611512	0.020972	0.750084
C109	C	0.614357	0.018127	0.659512
C110	C	0.582653	0.049796	0.614221
C111	C	0.555449	0.076968	0.478608
C112	C	0.585562	0.046881	0.521644
H113	H	-0.202335	0.139250	0.000134
H114	H	0.618715	0.013749	0.377630
H115	H	0.623883	0.008583	0.213323
C116	C	0.028929	0.198349	0.000148
C117	C	0.064262	0.208496	-0.074561
C118	C	0.085284	0.257271	-0.074542
C119	C	0.070973	0.295899	0.000185
C120	C	0.035638	0.285752	0.074900
C121	C	0.014616	0.236977	0.074881
H122	H	0.074858	0.179901	-0.129883
H123	H	0.111441	0.264782	-0.129851
H124	H	0.086534	0.332005	0.000199
H125	H	0.025043	0.314347	0.130222
H126	H	-0.011541	0.229466	0.130190
H127	H	0.637323	-0.004812	0.786968
H128	H	0.642485	-0.009981	0.622650
C129	C	0.494635	0.137715	0.200336
C130	C	0.456654	0.175702	0.250136
C131	C	0.421783	0.210540	0.200312
C132	C	0.424893	0.207390	0.100689
C133	C	0.462876	0.169401	0.050884
C134	C	0.497747	0.134564	0.100707
H135	H	0.454351	0.178036	0.323888
H136	H	0.393666	0.238662	0.237182
H137	H	0.399080	0.233179	0.063807
H138	H	0.465180	0.167068	-0.022868
H139	H	0.525864	0.106442	0.063838
H140	H	0.568697	-0.171827	0.142452
H141	H	0.057743	-0.062434	0.000169
H142	H	0.571380	-0.795788	-0.142217
C143	C	0.507263	0.125135	0.799870
C144	C	0.523908	0.163938	0.862108
C145	C	0.485907	0.201910	0.911910
C146	C	0.431262	0.201079	0.899473
C147	C	0.414615	0.162274	0.837232
C148	C	0.452616	0.124302	0.787431
H149	H	0.564362	0.164555	0.871317
H150	H	0.498231	0.230636	0.957984
H151	H	0.403132	0.229188	0.936339
H152	H	0.374161	0.161657	0.828023
H153	H	0.440292	0.095577	0.741356
H154	H	0.563337	-0.695419	0.142404
C155	C	0.312321	0.157081	0.000083
C156	C	0.316583	0.191168	-0.074647
C157	C	0.282167	0.239382	-0.074658
C158	C	0.243488	0.253509	0.000062
C159	C	0.239225	0.219422	0.074797
C160	C	0.273641	0.171207	0.074808
H161	H	0.345216	0.180710	-0.129964
H162	H	0.285323	0.264616	-0.129982
H163	H	0.218011	0.289201	0.000054
H164	H	0.210591	0.229879	0.130114
H165	H	0.270484	0.145974	0.130132
H166	H	0.527324	0.105075	0.515480
C167	C	0.443762	-0.026990	0.000118
C168	C	0.444210	-0.065778	-0.074580
C169	C	0.478643	-0.113981	-0.074558
C170	C	0.512628	-0.123396	0.000162
C171	C	0.512181	-0.084607	0.074866
C172	C	0.477748	-0.036404	0.074844
H173	H	0.419051	-0.058810	-0.129897
H174	H	0.478973	-0.142695	-0.129859
H175	H	0.538117	-0.159079	0.000178
H176	H	0.537340	-0.091575	0.130183
H177	H	0.477417	-0.007689	0.130145
H178	H	-0.271702	-0.021629	0.000165
H179	H	-0.180250	-0.020707	0.000174
H180	H	-0.033704	-0.063361	0.000171
H181	H	-0.067989	0.184751	0.000151
H182	H	0.562410	-0.786870	0.142392
H183	H	0.522295	0.110101	0.622622
C184	C	-0.302744	0.150843	0.000139
C185	C	-0.336734	0.160269	-0.074571
C186	C	-0.371168	0.208472	-0.074567
C187	C	-0.371612	0.247250	0.000147
C188	C	-0.337621	0.237826	0.074862
C189	C	-0.303187	0.189622	0.074858
H190	H	-0.336406	0.131562	-0.129884
H191	H	-0.396330	0.215449	-0.129877
H192	H	-0.397102	0.282933	0.000150
H193	H	-0.337949	0.266532	0.130175
H194	H	-0.278025	0.182645	0.130168
C195	C	0.112068	-0.074497	0.000172
C196	C	0.121682	-0.108445	0.074898
C197	C	0.100663	-0.157221	0.074913
C198	C	0.070031	-0.172049	0.000203
C199	C	0.060416	-0.138101	-0.074528
C200	C	0.081435	-0.089325	-0.074544
H201	H	0.144359	-0.097469	0.130208
H202	H	0.107781	-0.182352	0.130235
H203	H	0.054472	-0.208156	0.000215
H204	H	0.037739	-0.149077	-0.129838
H205	H	0.074317	-0.064194	-0.129865
H206	H	0.498529	0.133832	0.377600
H207	H	0.343355	-0.015399	0.000113
H208	H	0.208993	-0.060895	0.000158
H209	H	0.412715	0.145482	0.000063
C210	C	0.579391	-0.082769	-0.164565
C211	C	0.623348	-0.097535	-0.229264
C212	C	0.626353	-0.072513	-0.315547
C213	C	0.585399	-0.032724	-0.337130
C214	C	0.541438	-0.017957	-0.272429
C215	C	0.538433	-0.042979	-0.186146
H216	H	0.653668	-0.126990	-0.213288
H217	H	0.658896	-0.083445	-0.363443
H218	H	0.587622	-0.014201	-0.401002
H219	H	0.511118	0.011499	-0.288405
H220	H	0.505890	-0.032047	-0.138251
H221	H	0.174710	0.187208	0.000103
H222	H	0.613686	0.018774	0.484777
H223	H	0.083262	0.186280	0.000113
C224	C	0.578304	-0.188629	-0.164584
C225	C	0.622409	-0.189522	-0.229270
C226	C	0.624851	-0.219943	-0.315562
C227	C	0.583188	-0.249471	-0.337167
C228	C	0.539080	-0.248579	-0.272479
C229	C	0.536638	-0.218158	-0.186187
H230	H	0.653253	-0.167663	-0.213278
H231	H	0.657503	-0.220603	-0.363448
H232	H	0.584996	-0.271990	-0.401045
H233	H	0.508235	-0.270438	-0.288471
H234	H	0.503985	-0.217498	-0.138301
H235	H	0.572318	-0.704323	-0.142218
H236	H	0.577766	-0.415080	-0.220625
C237	C	0.563061	-0.407749	0.243285
C238	C	0.519107	-0.392979	0.307991
C239	C	0.516116	-0.417984	0.394293
C240	C	0.557080	-0.457759	0.415889
C241	C	0.601037	-0.472531	0.351182
C242	C	0.604028	-0.447526	0.264880
H243	H	0.488780	-0.363533	0.292006
H244	H	0.483576	-0.407049	0.442194
H245	H	0.554866	-0.476269	0.479775
H246	H	0.631364	-0.501976	0.367167
H247	H	0.636568	-0.458461	0.216979
C248	C	0.564129	-0.301895	0.243278
C249	C	0.520026	-0.300999	0.307969
C250	C	0.517586	-0.270574	0.394255
C251	C	0.559249	-0.241045	0.415850
C252	C	0.603356	-0.241940	0.351157
C253	C	0.605796	-0.272365	0.264871
H254	H	0.489181	-0.322860	0.291985
H255	H	0.484935	-0.269912	0.442145
H256	H	0.557443	-0.218522	0.479725
H257	H	0.634200	-0.220080	0.367142
H258	H	0.638447	-0.273027	0.216981
C259	C	0.568994	-0.072455	0.164868
C260	C	0.524888	-0.071554	0.229554
C261	C	0.522440	-0.041116	0.315828
C262	C	0.564099	-0.011580	0.337416
C263	C	0.608209	-0.012481	0.272729
C264	C	0.610657	-0.042918	0.186454
H265	H	0.494046	-0.093419	0.213575
H266	H	0.489787	-0.040450	0.363714
H267	H	0.562288	0.010952	0.401282
H268	H	0.639051	0.009385	0.288708
H269	H	0.643310	-0.043585	0.138569
H270	H	0.578706	-0.323633	-0.220616
H271	H	0.577154	-0.474868	-0.220631
H272	H	0.576216	-0.566328	-0.220629
C273	C	0.561508	-0.559000	0.243253
C274	C	0.518480	-0.587173	0.264818
C275	C	0.515469	-0.612188	0.351107
C276	C	0.555487	-0.609030	0.415832
C277	C	0.598518	-0.580855	0.394269
C278	C	0.601529	-0.555840	0.307979
H279	H	0.488854	-0.589512	0.216903
H280	H	0.483614	-0.633045	0.367069
H281	H	0.553258	-0.627547	0.479708
H282	H	0.628144	-0.578516	0.442183
H283	H	0.633384	-0.534983	0.292017
H284	H	0.563228	-0.461053	0.220846
