data_functionalizedCrystal
_audit_creation_method	'MofGen! by Chris Wilmer'
_symmetry_space_group_name_H-M	'P1'
_symmetry_Int_Tables_number	1
_symmetry_cell_setting	triclinic
loop_
_symmetry_equiv_pos_as_xyz
  x,y,z
_cell_length_a	27.440279
_cell_length_b	31.640172
_cell_length_c	27.440280
_cell_angle_alpha	90.008206
_cell_angle_beta	60.011579
_cell_angle_gamma	60.011241
loop_
_atom_site_label
_atom_site_type_symbol
_atom_site_fract_x
_atom_site_fract_y
_atom_site_fract_z
Zr1	Zr	0.533213	0.407337	-0.063770
O2	O	0.634854	0.339876	-0.141568
O3	O	0.431572	0.427997	-0.039937
O4	O	0.533200	0.428025	-0.141577
O5	O	0.533235	0.339849	0.040266
O6	O	0.533190	0.497582	-0.141566
O7	O	0.533225	0.339848	-0.039928
O8	O	0.351395	0.497531	0.040250
O9	O	0.715030	0.339899	-0.141551
O10	O	0.473370	0.488742	-0.029745
O11	O	0.473385	0.436833	0.030094
O12	O	0.593040	0.436867	-0.089574
O13	O	0.593054	0.384958	-0.029735
Zr14	Zr	0.533211	0.518274	0.064146
Zr15	Zr	0.533196	0.518272	-0.063753
Zr16	Zr	0.533228	0.407338	0.064129
Zr17	Zr	0.661084	0.407374	-0.063742
Zr18	Zr	0.405340	0.518237	0.064118
O19	O	0.634852	0.497614	0.040312
O20	O	0.634831	0.497612	-0.141544
O21	O	0.634875	0.339878	0.040288
O22	O	0.431570	0.585735	0.141944
O23	O	0.431549	0.585733	-0.039912
O24	O	0.431593	0.427999	0.141920
O25	O	0.533189	0.585762	-0.039890
O26	O	0.533224	0.497586	0.141953
O27	O	0.533234	0.428029	0.141942
O28	O	0.533199	0.585763	0.040303
O29	O	0.715017	0.428078	-0.141537
O30	O	0.351407	0.497533	0.141913
O31	O	0.351394	0.585711	0.141926
O32	O	0.351382	0.585710	0.040264
O33	O	0.715041	0.339901	-0.039888
O34	O	0.715029	0.428079	-0.039875
O35	O	0.473384	0.488744	0.089950
O36	O	0.473370	0.540653	0.030110
O37	O	0.593039	0.488777	-0.029719
O38	O	0.593054	0.436868	0.030121
C39	C	0.373265	0.462759	0.000153
C40	C	0.318980	0.462743	0.000141
C41	C	0.084229	0.435703	0.031427
C42	C	0.135259	0.435693	0.031419
O43	O	0.161642	0.412659	0.057996
N44	N	0.160777	0.462781	0.000176
C45	C	0.135256	0.489886	-0.031056
O46	O	0.161646	0.512927	-0.057631
C47	C	0.084224	0.489899	-0.031045
C48	C	0.058714	0.462804	0.000196
C49	C	0.058719	0.408611	0.062665
C50	C	0.007693	0.408620	0.062672
C51	C	-0.017823	0.435722	0.031441
C52	C	0.007688	0.462814	0.000202
C53	C	0.058701	0.517007	-0.062273
C54	C	0.007664	0.517018	-0.062258
C55	C	-0.017846	0.489923	-0.031018
C56	C	-0.068853	0.489925	-0.031022
N57	N	-0.094371	0.462836	0.000221
C58	C	-0.068855	0.435735	0.031452
C59	C	0.242428	0.489858	-0.031078
C60	C	0.293463	0.489842	-0.031093
C61	C	0.293461	0.435649	0.031383
C62	C	0.242429	0.435662	0.031395
C63	C	0.216910	0.462769	0.000165
C64	C	-0.176013	0.435756	0.031464
C65	C	-0.227041	0.435766	0.031466
C66	C	-0.227037	0.489961	-0.031008
C67	C	-0.176011	0.489949	-0.031013
C68	C	-0.150501	0.462846	0.000228
O69	O	-0.095270	0.512949	-0.057583
O70	O	-0.095258	0.412704	0.058029
C71	C	0.533232	0.324042	0.000166
C72	C	0.533239	0.276947	0.000159
C73	C	0.470739	0.012019	0.031430
C74	C	0.470727	-0.164966	0.031442
O75	O	0.417602	-0.164822	0.058024
N76	N	0.533193	-0.214174	0.000211
C77	C	0.595666	-0.219135	-0.031022
O78	O	0.648797	-0.265050	-0.057581
C79	C	0.595677	-0.042150	-0.031030
C80	C	0.533208	0.007057	0.000198
C81	C	0.408275	0.061225	0.062656
C82	C	0.408278	0.105468	0.062650
C83	C	0.470747	0.100506	0.031418
C84	C	0.533211	0.051301	0.000192
C85	C	0.658150	-0.047112	-0.062259
C86	C	0.658147	-0.002861	-0.062257
C87	C	0.595677	0.046347	-0.031029
C88	C	0.595683	0.090582	-0.031046
N89	N	0.533217	0.139790	0.000185
C90	C	0.470749	0.144752	0.031417
C91	C	0.595656	-0.312052	-0.031017
C92	C	0.595653	-0.356298	-0.031016
C93	C	0.470714	-0.302126	0.031449
C94	C	0.470718	-0.257879	0.031444
C95	C	0.533190	-0.262844	0.000214
C96	C	0.470762	0.237664	0.031402
C97	C	0.470771	0.281909	0.031391
C98	C	0.595709	0.227733	-0.031071
C99	C	0.595700	0.183492	-0.031063
C100	C	0.533221	0.188461	0.000178
O101	O	0.648781	0.090478	-0.057608
O102	O	0.417627	0.190672	0.057983
C103	C	0.470736	-0.032224	0.031436
C104	C	0.533200	-0.081429	0.000210
C105	C	0.595669	-0.086391	-0.031022
C106	C	0.533198	-0.125675	0.000211
C107	C	0.470730	-0.120713	0.031443
C108	C	0.408264	-0.071505	0.062674
C109	C	0.408268	-0.027262	0.062668
C110	C	0.658134	-0.135600	-0.062253
C111	C	0.658125	-0.179841	-0.062245
C112	C	0.595657	-0.174879	-0.031013
C113	C	0.693159	0.462852	0.000223
C114	C	0.747444	0.462868	0.000235
C115	C	0.533193	0.462803	-0.159795
C116	C	0.533187	0.462803	-0.214091
C117	C	0.533192	0.601569	0.000209
C118	C	0.533185	0.648664	0.000216
C119	C	0.595689	0.435732	-0.582056
C120	C	0.595693	0.435733	-0.633078
O121	O	0.648818	0.412720	-0.686026
N122	N	0.533228	0.462811	-0.627365
C123	C	0.470755	0.489893	-0.570625
O124	O	0.417623	0.512925	-0.570451
C125	C	0.470751	0.489894	-0.519604
C126	C	0.533221	0.462810	-0.525322
C127	C	0.658154	0.408651	-0.587771
C128	C	0.658150	0.408649	-0.536752
C129	C	0.595681	0.435727	-0.480018
C130	C	0.533217	0.462808	-0.474303
C131	C	0.408279	0.516978	-0.462866
C132	C	0.408281	0.516978	-0.411844
C133	C	0.470751	0.489894	-0.417562
C134	C	0.470744	0.489885	-0.366550
N135	N	0.533210	0.462807	-0.372263
C136	C	0.595678	0.435728	-0.428997
C137	C	0.470766	0.489889	-0.677775
C138	C	0.470768	0.489885	-0.728795
C139	C	0.595707	0.435726	-0.791244
C140	C	0.595704	0.435727	-0.740223
C141	C	0.533231	0.462811	-0.683488
C142	C	0.595665	0.435726	-0.321851
C143	C	0.595655	0.435724	-0.270825
C144	C	0.470717	0.489885	-0.208380
C145	C	0.470726	0.489884	-0.259402
C146	C	0.533206	0.462804	-0.316139
O147	O	0.417647	0.512888	-0.313583
O148	O	0.648801	0.412706	-0.429160
C149	C	0.533231	0.462807	0.160170
C150	C	0.533237	0.462808	0.214467
C151	C	0.373244	0.601522	0.000174
C152	C	0.318953	0.648601	0.000169
C153	C	0.373283	0.462761	0.160135
C154	C	0.319005	0.462746	0.214420
C155	C	0.373263	0.601524	0.160156
C156	C	0.318978	0.648604	0.214448
C157	C	0.693161	0.324087	-0.159781
C158	C	0.747446	0.277007	-0.214073
C159	C	0.693179	0.324089	0.000201
C160	C	0.747471	0.277010	0.000206
C161	C	0.693141	0.462850	-0.159760
C162	C	0.747419	0.462865	-0.214044
C163	C	0.293457	0.643613	-0.031082
C164	C	0.242452	0.687845	-0.031098
C165	C	0.216939	0.737064	0.000141
C166	C	0.242440	0.742051	0.031393
C167	C	0.293448	0.697820	0.031405
C168	C	0.293515	0.489835	0.271162
C169	C	0.242522	0.489819	0.322173
C170	C	0.217016	0.462716	0.316441
C171	C	0.242511	0.435623	0.259693
C172	C	0.293507	0.435636	0.208683
C173	C	0.293478	0.697814	0.208709
C174	C	0.242478	0.742054	0.259717
C175	C	0.216976	0.737084	0.316464
C176	C	0.242482	0.687869	0.322202
C177	C	0.293484	0.643630	0.271195
C178	C	0.772953	0.227797	-0.208333
C179	C	0.823968	0.183556	-0.259341
C180	C	0.849472	0.188527	-0.316089
C181	C	0.823963	0.237742	-0.321827
C182	C	0.772952	0.281981	-0.270819
C183	C	0.772972	0.281997	0.031452
C184	C	0.823992	0.237766	0.031454
C185	C	0.849506	0.188547	0.000214
C186	C	0.824003	0.183560	-0.031036
C187	C	0.772988	0.227791	-0.031042
C188	C	0.772908	0.489974	-0.208293
C189	C	0.823902	0.489998	-0.259294
C190	C	0.849408	0.462911	-0.316046
C191	C	0.823914	0.435802	-0.321797
C192	C	0.772918	0.435780	-0.270796
H193	H	0.079486	0.386541	0.088101
H194	H	0.419890	0.511941	-0.631579
C195	C	0.744857	0.519777	-0.145870
N196	N	0.723729	0.542230	-0.098855
H197	H	0.709000	-0.219907	-0.087681
C198	C	0.402047	0.519672	-0.722497
N199	N	0.350283	0.542111	-0.717751
C200	C	0.852019	0.243200	-0.384255
N201	N	0.873148	0.247310	-0.431277
H202	H	0.752202	0.322070	0.056896
H203	H	0.844729	0.143488	-0.254658
H204	H	0.314229	0.603541	-0.056528
C205	C	0.160913	0.462712	0.372559
N206	N	0.118652	0.462713	0.414830
C207	C	0.160867	0.785755	0.372569
N208	N	0.118603	0.822415	0.414824
H209	H	0.752190	0.223741	-0.162132
H210	H	0.646569	0.223702	-0.056501
C211	C	0.339549	-0.066055	0.097030
N212	N	0.287795	-0.061954	0.122909
H213	H	0.357410	0.539034	-0.458198
H214	H	-0.247807	0.413700	0.056905
C215	C	0.905581	0.139856	-0.372193
N216	N	0.947839	0.103196	-0.414449
H217	H	0.891046	0.152535	0.000223
C218	C	0.339554	0.546771	-0.349435
N219	N	0.287789	0.569210	-0.302430
C220	C	0.744893	0.336111	-0.277143
N221	N	0.723759	0.376881	-0.281910
H222	H	0.752170	0.413703	-0.275487
H223	H	0.844748	0.241836	0.056904
C224	C	0.402046	0.336038	0.065748
N225	N	0.350284	0.376806	0.091626
H226	H	0.646528	0.413667	-0.275487
H227	H	0.221770	0.511883	0.368374
H228	H	0.221660	0.782131	0.056827
C229	C	0.726874	-0.008328	-0.096616
N230	N	0.778638	-0.012446	-0.122498
C231	C	0.852067	0.129414	-0.065389
N232	N	0.873200	0.088630	-0.091258
H233	H	0.079463	0.539070	-0.087711
C234	C	0.321481	0.703315	0.065793
N235	N	0.342592	0.707458	0.091697
C236	C	0.214417	0.682411	0.384630
N237	N	0.193273	0.678301	0.431652
C238	C	0.744934	0.222296	-0.065409
N239	N	0.723806	0.218153	-0.091296
H240	H	0.646542	0.413674	-0.368043
C241	C	0.851940	0.519818	-0.252956
N242	N	0.873057	0.542279	-0.248180
H243	H	0.890933	0.462932	-0.357570
H244	H	0.844689	0.413748	-0.368011
C245	C	0.214425	0.796186	0.253391
N246	N	0.193295	0.836956	0.248625
C247	C	-0.020407	0.378853	0.097085
N248	N	-0.041586	0.356446	0.123024
C249	C	-0.147958	0.405940	0.065829
N250	N	-0.126825	0.383480	0.091709
H251	H	0.175405	0.773076	0.000126
C252	C	-0.147946	0.519751	-0.065382
N253	N	-0.126815	0.542203	-0.091265
C254	C	0.214360	0.405867	0.065774
N255	N	0.193217	0.383428	0.091674
H256	H	0.314244	0.413582	0.056814
H257	H	0.221695	0.683774	-0.056548
H258	H	0.221737	0.413556	0.255034
H259	H	-0.247818	0.512025	-0.056438
H260	H	0.419858	0.511931	-0.254745
H261	H	0.314237	0.511899	-0.056540
H262	H	-0.013112	0.539093	-0.087688
C263	C	0.214375	0.519669	-0.065448
N264	N	0.193250	0.542120	-0.091337
H265	H	0.419885	0.241718	0.056842
H266	H	0.357409	0.145532	0.088077
H267	H	0.357403	0.065274	0.088092
H268	H	0.419849	-0.217815	0.056878
H269	H	0.314234	0.701870	0.162507
H270	H	0.709004	-0.139648	-0.087688
H271	H	0.419850	-0.298092	0.056876
C272	C	0.664385	-0.317523	-0.065383
N273	N	0.716153	-0.321646	-0.091272
C274	C	0.664420	0.129362	-0.065418
N275	N	0.716181	0.088593	-0.091289
H276	H	0.709019	0.386597	-0.541415
C277	C	0.726873	-0.101233	-0.096611
N278	N	0.778639	-0.141998	-0.122486
H279	H	0.646522	-0.396362	-0.056453
H280	H	0.357398	0.012802	0.088098
H281	H	0.709026	0.386600	-0.633963
C282	C	0.664425	0.405938	-0.746519
N283	N	0.716188	0.383501	-0.751266
H284	H	0.419857	0.511930	-0.162179
H285	H	0.314276	0.511906	0.275840
H286	H	0.646572	0.413676	-0.837448
H287	H	0.314254	0.413579	0.162483
H288	H	0.314240	0.603563	0.275876
