data_functionalizedCrystal
_audit_creation_method	'MofGen! by Chris Wilmer'
_symmetry_space_group_name_H-M	'P1'
_symmetry_Int_Tables_number	1
_symmetry_cell_setting	triclinic
loop_
_symmetry_equiv_pos_as_xyz
  x,y,z
_cell_length_a	16.992694
_cell_length_b	10.489741
_cell_length_c	16.053802
_cell_angle_alpha	92.592148
_cell_angle_beta	87.249047
_cell_angle_gamma	87.603699
loop_
_atom_site_label
_atom_site_type_symbol
_atom_site_fract_x
_atom_site_fract_y
_atom_site_fract_z
O1	O	1.045194	0.265584	-0.069324
O2	O	0.816893	0.262613	-0.069348
O3	O	0.936238	0.078953	-0.069330
O4	O	0.925849	0.449244	-0.069341
O5	O	0.929669	0.089018	0.069528
O6	O	0.810324	0.272678	0.069510
O7	O	1.038624	0.275649	0.069534
Zn8	Zn	0.923431	0.275761	0.091569
Zn9	Zn	0.932086	0.262501	-0.091383
O10	O	0.919279	0.459309	0.069516
C11	C	0.784374	0.263826	0.000078
C12	C	0.697266	0.252430	0.000068
C13	C	0.932169	0.036385	0.000098
C14	C	0.929821	-0.105448	0.000096
C15	C	0.647647	0.362379	0.000066
C16	C	0.565799	0.351666	0.000078
C17	C	0.533573	0.231001	0.000086
C18	C	0.583199	0.121044	0.000091
C19	C	0.665044	0.131759	0.000085
C20	C	0.289723	0.186590	0.000110
C21	C	0.207871	0.175882	0.000113
C22	C	0.190477	0.406505	0.000101
C23	C	0.272325	0.417210	0.000090
C24	C	0.321944	0.307253	0.000100
N25	N	0.449912	0.220047	0.000096
N26	N	0.405603	0.318209	0.000096
C27	C	0.853885	-0.180196	0.000082
C28	C	0.886518	-0.264235	0.068550
C29	C	0.893013	-0.274131	-0.068353
C30	C	0.962482	-0.187615	0.068621
C31	C	0.968969	-0.197507	-0.068344
C32	C	1.001656	-0.281513	0.000141
C33	C	1.071143	0.274436	0.000107
C34	C	1.158252	0.285831	0.000110
C35	C	0.923349	0.501876	0.000086
C36	C	0.925697	0.643710	0.000083
N37	N	0.917530	0.284811	0.216428
N38	N	0.937994	0.253441	-0.216242
C39	C	0.968330	0.206695	0.260130
C40	C	0.964209	0.213038	0.347536
C41	C	0.909292	0.297505	0.391239
C42	C	0.858486	0.375625	0.347531
C43	C	0.862603	0.369274	0.260127
C44	C	0.891306	0.325210	0.652646
C45	C	0.887193	0.331557	0.740056
C46	C	0.992917	0.168969	0.740055
C47	C	0.997032	0.162631	0.652649
C48	C	0.946224	0.240745	0.608949
N49	N	0.905080	0.303994	0.480582
N50	N	0.950432	0.234249	0.519607
H51	H	0.673878	0.460637	0.000058
C52	C	0.839420	-0.304250	0.146737
H53	H	0.872546	-0.355591	0.178975
H54	H	0.795871	-0.351653	0.130276
H55	H	0.820796	-0.230179	0.179203
H56	H	0.298558	0.515467	0.000074
C57	C	1.028739	0.113779	0.212064
H58	H	1.058398	0.068156	0.250613
H59	H	1.063262	0.160565	0.177956
H60	H	1.001819	0.055267	0.177979
C61	C	0.511221	0.472610	0.000072
H62	H	0.542136	0.546006	0.000056
H63	H	0.476649	0.476742	0.048498
H64	H	0.481215	0.469708	-0.048354
H65	H	1.005574	0.149429	0.383117
H66	H	0.849937	0.388816	0.617072
H67	H	0.991843	-0.149790	0.126570
H68	H	0.842470	0.400346	0.775635
C69	C	1.016008	-0.157371	-0.146530
H70	H	1.060106	-0.111296	-0.130082
H71	H	0.983114	-0.104718	-0.178173
H72	H	1.033823	-0.231325	-0.179569
H73	H	0.556953	0.022797	0.000110
C74	C	1.086067	-0.340947	0.000200
H75	H	1.110607	-0.311129	0.048882
H76	H	1.115524	-0.317034	-0.047969
H77	H	1.084141	-0.431355	-0.000255
C78	C	0.853295	-0.325421	-0.146551
H79	H	0.800797	-0.290495	-0.146467
H80	H	0.852514	-0.415897	-0.146267
H81	H	0.882065	-0.301485	-0.195166
H82	H	1.041751	0.093852	0.617068
C83	C	0.798079	0.468538	0.395602
H84	H	0.802907	0.461144	0.453917
H85	H	0.746316	0.448255	0.381289
H86	H	0.807759	0.553553	0.381265
H87	H	1.034282	0.105370	0.775644
H88	H	0.705444	0.042226	0.000087
H89	H	0.791448	-0.135972	0.000144
H90	H	0.821235	0.432883	0.224546
H91	H	0.181636	0.077618	0.000119
C92	C	0.344297	0.065644	0.000108
H93	H	0.397657	0.089300	0.000111
H94	H	0.336739	0.013004	-0.048314
H95	H	0.332172	0.020020	0.048538
H96	H	0.150069	0.496026	0.000095
