data_functionalizedCrystal
_audit_creation_method	'MofGen! by Chris Wilmer'
_symmetry_space_group_name_H-M	'P1'
_symmetry_Int_Tables_number	1
_symmetry_cell_setting	triclinic
loop_
_symmetry_equiv_pos_as_xyz
  x,y,z
_cell_length_a	19.188933
_cell_length_b	27.732064
_cell_length_c	18.266242
_cell_angle_alpha	89.997719
_cell_angle_beta	89.992377
_cell_angle_gamma	82.897496
loop_
_atom_site_label
_atom_site_type_symbol
_atom_site_fract_x
_atom_site_fract_y
_atom_site_fract_z
O1	O	0.925769	0.060352	-0.060850
O2	O	1.425769	0.560352	0.439150
O3	O	0.722406	0.068475	-0.060856
O4	O	1.222406	0.568475	0.439144
O5	O	0.830397	-0.005964	-0.060856
O6	O	1.330397	0.494036	0.439144
O7	O	0.817778	0.134790	-0.060850
O8	O	1.317778	0.634790	0.439150
O9	O	0.830379	-0.005967	0.060906
O10	O	1.330379	0.494033	0.560906
O11	O	0.722388	0.068471	0.060906
O12	O	1.222388	0.568471	0.560906
O13	O	0.925750	0.060348	0.060912
O14	O	1.425750	0.560348	0.560912
Zn15	Zn	0.824066	0.064409	0.080241
Zn16	Zn	1.324066	0.564409	0.580241
Zn17	Zn	0.824090	0.064414	-0.080185
Zn18	Zn	1.324090	0.564414	0.419815
O19	O	0.817759	0.134786	0.060912
O20	O	1.317759	0.634786	0.560912
C21	C	0.696388	0.068210	0.000024
C22	C	1.196388	0.568210	0.500024
C23	C	0.618889	0.067419	0.000022
C24	C	1.118889	0.567419	0.500022
C25	C	0.830122	-0.023973	0.000023
C26	C	1.330122	0.476027	0.500023
C27	C	0.829319	-0.077630	0.000016
C28	C	1.329319	0.422370	0.500016
C29	C	0.065678	0.061783	-0.066343
C30	C	0.565678	0.561783	0.433657
C31	C	0.138498	0.062522	-0.066346
C32	C	0.638498	0.562522	0.433654
C33	C	0.174903	0.062892	0.000026
C34	C	0.674903	0.562892	0.500026
C35	C	0.138484	0.062510	0.066406
C36	C	0.638484	0.562510	0.566406
C37	C	0.065667	0.061766	0.066407
C38	C	0.565667	0.561766	0.566407
N39	N	0.283735	0.091565	0.049431
N40	N	0.783735	0.591565	0.549431
N41	N	0.352908	0.092273	0.049426
N42	N	0.852908	0.592273	0.549426
C43	C	0.394297	0.065134	0.000028
C44	C	0.894297	0.565134	0.500028
N45	N	0.363899	0.037265	-0.049376
N46	N	0.863899	0.537265	0.450624
N47	N	0.294719	0.036559	-0.049373
N48	N	0.794719	0.536559	0.450627
C49	C	0.253861	0.063699	0.000033
C50	C	0.753861	0.563699	0.500033
C51	C	0.509667	0.066314	-0.066351
C52	C	1.009667	0.566314	0.433649
C53	C	0.582489	0.067050	-0.066351
C54	C	1.082489	0.567050	0.433649
C55	C	0.582473	0.067043	0.066403
C56	C	1.082473	0.567043	0.566403
C57	C	0.509653	0.066302	0.066401
C58	C	1.009653	0.566302	0.566401
C59	C	0.473255	0.065940	0.000022
C60	C	0.973255	0.565940	0.500022
C61	C	0.760035	-0.454915	0.000011
C62	C	1.260035	0.045085	0.500011
C63	C	0.762990	-0.253246	0.000010
C64	C	1.262990	0.246754	0.500010
O65	O	0.709228	-0.222158	-0.000020
O66	O	1.209228	0.277842	0.499980
N67	N	0.827027	-0.233922	0.000012
N68	N	1.327027	0.266078	0.500012
C69	C	0.890329	-0.265019	0.000009
C70	C	1.390329	0.234981	0.500009
O71	O	0.944864	-0.243956	0.000003
O72	O	1.444864	0.256044	0.500003
C73	C	0.887373	-0.466688	0.000005
C74	C	1.387373	0.033312	0.500005
C75	C	0.823332	-0.486008	0.000011
C76	C	1.323332	0.013992	0.500011
C77	C	0.695999	-0.474236	0.000016
C78	C	1.195999	0.025764	0.500016
C79	C	0.695261	-0.524650	0.000020
C80	C	1.195261	-0.024650	0.500020
C81	C	0.758558	-0.555744	0.000020
C82	C	1.258558	-0.055744	0.500020
C83	C	0.822594	-0.536423	0.000015
C84	C	1.322594	-0.036423	0.500015
C85	C	0.950674	-0.497784	-0.000003
C86	C	1.450674	0.002216	0.499997
C87	C	0.949930	-0.548204	-0.000006
C88	C	1.449930	-0.048204	0.499994
C89	C	0.885889	-0.567524	-0.000000
C90	C	1.385889	-0.067524	0.500000
C91	C	0.885153	-0.617930	0.000019
C92	C	1.385153	-0.117930	0.500019
N93	N	0.821116	-0.637254	0.000017
N94	N	1.321116	-0.137254	0.500017
C95	C	0.757819	-0.606160	0.000017
C96	C	1.257819	-0.106160	0.500017
C97	C	0.891877	-0.159140	0.000013
C98	C	1.391877	0.340860	0.500013
C99	C	0.892616	-0.108723	0.000016
C100	C	1.392616	0.391277	0.500016
C101	C	0.765277	-0.096953	0.000015
C102	C	1.265277	0.403047	0.500015
C103	C	0.764538	-0.147371	0.000018
C104	C	1.264538	0.352629	0.500018
C105	C	0.827840	-0.178464	0.000011
C106	C	1.327840	0.321536	0.500011
C107	C	0.756273	-0.712035	0.000027
C108	C	1.256273	-0.212035	0.500027
C109	C	0.755541	-0.762454	0.000034
C110	C	1.255541	-0.262454	0.500034
C111	C	0.882880	-0.774220	0.000031
C112	C	1.382880	-0.274220	0.500031
C113	C	0.883613	-0.723805	0.000027
C114	C	1.383613	-0.223805	0.500027
C115	C	0.820304	-0.692713	0.000023
C116	C	1.320304	-0.192713	0.500023
O117	O	0.938887	-0.649047	0.000041
O118	O	1.438887	-0.149047	0.500041
O119	O	0.703292	-0.627233	0.000007
O120	O	1.203292	-0.127233	0.500007
C121	C	0.760773	-0.404500	0.000007
C122	C	1.260773	0.095500	0.500007
C123	C	0.824808	-0.385179	0.000002
C124	C	1.324808	0.114821	0.500002
C125	C	0.888106	-0.416273	0.000002
C126	C	1.388106	0.083727	0.500002
C127	C	0.825548	-0.334763	0.000005
C128	C	1.325548	0.165237	0.500005
C129	C	0.762250	-0.303669	0.000005
C130	C	1.262250	0.196331	0.500005
C131	C	0.698214	-0.322993	0.000004
C132	C	1.198214	0.177007	0.500004
C133	C	0.697475	-0.373407	0.000008
C134	C	1.197475	0.126593	0.500008
C135	C	0.952143	-0.396949	0.000003
C136	C	1.452143	0.103051	0.500003
C137	C	0.952876	-0.346534	0.000000
C138	C	1.452876	0.153466	0.500000
C139	C	0.889578	-0.315441	0.000001
C140	C	1.389578	0.184559	0.500001
C141	C	0.951769	0.060613	0.000030
C142	C	1.451769	0.560613	0.500030
C143	C	1.029268	0.061403	0.000028
C144	C	1.529268	0.561403	0.500028
C145	C	0.818035	0.152796	0.000031
C146	C	1.318035	0.652796	0.500031
C147	C	0.818838	0.206453	0.000033
C148	C	1.318838	0.706453	0.500033
N149	N	0.824055	0.064405	0.189728
N150	N	1.324055	0.564405	0.689728
N151	N	0.824107	0.064414	-0.189672
N152	N	1.324107	0.564414	0.310328
C153	C	0.871889	0.031460	0.228037
C154	C	1.371889	0.531460	0.728037
C155	C	0.871894	0.031458	0.304682
C156	C	1.371894	0.531458	0.804682
C157	C	0.824071	0.064409	0.343015
C158	C	1.324071	0.564409	0.843015
C159	C	0.776228	0.097357	0.304697
C160	C	1.276228	0.597357	0.804697
C161	C	0.776220	0.097355	0.228054
C162	C	1.276220	0.597355	0.728054
N163	N	0.814726	0.107199	0.463349
N164	N	1.314726	0.607199	0.963349
N165	N	0.814738	0.107199	0.536157
N166	N	1.314738	0.607199	1.036157
C167	C	0.824090	0.064416	0.573938
C168	C	1.324090	0.564416	1.073938
N169	N	0.833445	0.021631	0.536160
N170	N	1.333445	0.521631	1.036160
N171	N	0.833437	0.021631	0.463345
N172	N	1.333437	0.521631	0.963345
C173	C	0.824074	0.064414	0.426122
C174	C	1.324074	0.564414	0.926122
C175	C	0.871932	0.031466	0.695354
C176	C	1.371932	0.531466	1.195354
C177	C	0.871931	0.031463	0.772000
C178	C	1.371931	0.531463	1.272000
C179	C	0.776269	0.097366	0.772013
C180	C	1.276269	0.597366	1.272013
C181	C	0.776266	0.097365	0.695368
C182	C	1.276266	0.597365	1.195368
C183	C	0.824101	0.064415	0.657043
C184	C	1.324101	0.564415	1.157043
H185	H	0.036047	0.061486	-0.120394
H186	H	0.536047	0.561486	0.379606
H187	H	0.703389	-0.778182	0.000042
H188	H	1.203389	-0.278182	0.500042
Cl189	Cl	0.932020	-0.009964	0.179858
Cl190	Cl	1.432020	0.490036	0.679858
Cl191	Cl	0.463876	0.065833	0.149844
Cl192	Cl	0.963876	0.565833	0.649844
H193	H	0.612133	0.067355	-0.120401
H194	H	1.112133	0.567355	0.379599
H195	H	0.612113	0.067342	0.120444
H196	H	1.112113	0.567342	0.620444
Cl197	Cl	0.184280	0.063000	-0.149791
Cl198	Cl	0.684280	0.563000	0.350209
Cl199	Cl	0.676684	-0.672955	0.000024
Cl200	Cl	1.176684	-0.172955	0.500024
H201	H	0.168130	0.062810	0.120447
H202	H	0.668130	0.562810	0.620447
H203	H	0.737267	0.124183	0.196862
H204	H	1.237267	0.624183	0.696862
Cl205	Cl	0.716133	0.138786	0.647204
Cl206	Cl	1.216133	0.638786	1.147204
Cl207	Cl	0.971465	-0.198222	0.000010
Cl208	Cl	1.471465	0.301778	0.500010
Cl209	Cl	0.019892	0.061291	0.149852
Cl210	Cl	0.519892	0.561291	0.649852
H211	H	0.643112	-0.540376	0.000019
H212	H	1.143112	-0.040376	0.500019
Cl213	Cl	0.932063	-0.009959	0.647172
Cl214	Cl	1.432063	0.490041	1.147172
H215	H	0.480030	0.066017	-0.120401
H216	H	0.980030	0.566017	0.379599
Cl217	Cl	0.616414	-0.435155	0.000016
Cl218	Cl	1.116414	0.064845	0.500016
Cl219	Cl	0.684027	-0.171654	0.000023
Cl220	Cl	1.184027	0.328346	0.500023
H221	H	0.713738	-0.071628	0.000019
H222	H	1.213738	0.428372	0.500019
Cl223	Cl	0.973128	-0.084441	0.000019
Cl224	Cl	1.473128	0.415559	0.500019
H225	H	0.910881	0.004632	0.803192
H226	H	1.410881	0.504632	1.303192
Cl227	Cl	1.031188	-0.473508	-0.000028
Cl228	Cl	1.531188	0.026492	0.499972
H229	H	1.001479	-0.573518	-0.000015
H230	H	1.501479	-0.073518	0.499985
H231	H	0.737328	0.124193	0.803223
H232	H	1.237328	0.624193	1.303223
H233	H	0.935760	-0.708074	0.000033
H234	H	1.435760	-0.208074	0.500033
H235	H	0.645327	-0.389133	0.000013
H236	H	1.145327	0.110867	0.500013
H237	H	0.934415	-0.799545	0.000034
H238	H	1.434415	-0.299545	0.500034
H239	H	1.005029	-0.330809	0.000001
H240	H	1.505029	0.169191	0.500001
Cl241	Cl	0.618641	-0.283895	0.000007
Cl242	Cl	1.118641	0.216105	0.500007
Cl243	Cl	1.031725	-0.436031	0.000006
Cl244	Cl	1.531725	0.063969	0.500006
Cl245	Cl	0.932034	-0.009962	0.352850
Cl246	Cl	1.432034	0.490038	0.852850
Cl247	Cl	0.716105	0.138779	0.352885
Cl248	Cl	1.216105	0.638779	0.852885
