data_functionalizedCrystal
_audit_creation_method	'MofGen! by Chris Wilmer'
_symmetry_space_group_name_H-M	'P1'
_symmetry_Int_Tables_number	1
_symmetry_cell_setting	triclinic
loop_
_symmetry_equiv_pos_as_xyz
  x,y,z
_cell_length_a	11.026607
_cell_length_b	10.489741
_cell_length_c	9.482900
_cell_angle_alpha	99.430409
_cell_angle_beta	78.636152
_cell_angle_gamma	96.562595
loop_
_atom_site_label
_atom_site_type_symbol
_atom_site_fract_x
_atom_site_fract_y
_atom_site_fract_z
O1	O	1.633618	0.519526	-0.120902
O2	O	1.279780	0.458584	-0.120903
O3	O	1.464749	0.305229	-0.120894
O4	O	1.448649	0.672881	-0.120911
O5	O	1.427179	0.336539	0.120897
O6	O	1.242210	0.489894	0.120887
O7	O	1.596048	0.550836	0.120889
Cu8	Cu	1.415698	0.523224	0.142965
Cu9	Cu	1.460129	0.486196	-0.142980
O10	O	1.411079	0.704190	0.120879
C11	C	1.215686	0.462996	-0.000008
C12	C	1.080679	0.429482	-0.000008
C13	C	1.007683	0.522021	-0.000014
C14	C	0.868146	0.487384	-0.000014
C15	C	1.444748	0.273085	0.000000
C16	C	1.441110	0.130655	-0.000002
C17	C	1.323420	0.036624	-0.000013
C18	C	1.360492	-0.027831	0.119202
C19	C	1.397561	-0.058669	-0.119184
C20	C	1.478215	0.068088	0.119312
C21	C	1.515284	0.037242	-0.119182
C22	C	1.552438	-0.027163	0.000063
C23	C	1.660143	0.546423	-0.000010
C24	C	1.795151	0.579936	-0.000019
C25	C	1.431080	0.736334	-0.000018
C26	C	1.434720	0.878763	-0.000025
N27	N	1.384457	0.549268	0.344084
N28	N	1.491380	0.460144	-0.344099
C29	C	1.450906	0.493869	0.416286
C30	C	1.424922	0.515551	0.583703
H31	H	1.039876	0.324608	-0.000041
C32	C	1.313241	-0.000373	0.380032
C33	C	1.272133	-0.066876	0.255260
H34	H	1.258681	-0.024473	0.464022
H35	H	1.394569	-0.021927	0.380152
H36	H	1.314330	0.090384	0.380550
H37	H	1.271052	-0.157635	0.254737
H38	H	1.190783	-0.045331	0.255141
C39	C	1.527147	0.275739	0.254341
C40	C	1.524210	0.142112	0.255532
H41	H	1.555531	0.321437	0.338443
H42	H	1.581814	0.298453	0.169800
H43	H	1.446079	0.297954	0.253997
H44	H	1.605281	0.119895	0.255866
H45	H	1.469542	0.119389	0.340095
C46	C	1.167469	0.582560	0.391288
C47	C	1.281682	0.634961	0.427942
H48	H	1.104019	0.635461	0.443065
H49	H	1.171455	0.579245	0.289795
H50	H	1.149467	0.497440	0.416172
H51	H	1.299688	0.720078	0.403048
H52	H	1.277698	0.638291	0.529457
H53	H	1.348785	0.579029	0.645823
H54	H	1.649280	-0.055274	0.000129
H55	H	1.527029	0.430383	0.354162
H56	H	1.048490	0.626890	-0.000010
H57	H	0.827348	0.382504	-0.000046
C58	C	1.567366	0.248946	0.609141
C59	C	1.594124	0.374323	0.572233
H60	H	1.630783	0.195931	0.557533
H61	H	1.563294	0.252411	0.710670
H62	H	1.489882	0.213460	0.584226
H63	H	1.671605	0.409812	0.597158
H64	H	1.598211	0.370862	0.470682
C65	C	1.561172	0.011636	-0.379971
C66	C	1.603593	0.076325	-0.255245
H67	H	1.615682	0.035773	-0.463976
H68	H	1.558933	-0.079351	-0.381435
H69	H	1.480137	0.034635	-0.379099
H70	H	1.684625	0.053319	-0.256112
H71	H	1.605846	0.167333	-0.253781
H72	H	1.226636	0.065005	0.000107
H73	H	1.363411	-0.113642	-0.219981
C74	C	0.830767	0.766348	-0.124332
C75	C	0.850206	0.721522	-0.000032
H76	H	0.864746	0.853758	-0.124334
H77	H	0.870149	0.714082	-0.208628
H78	H	0.744216	0.761621	-0.124317
H79	H	0.936757	0.726239	-0.000052
H80	H	0.810827	0.773802	0.084286
