data_functionalizedCrystal
_audit_creation_method	'MofGen! by Chris Wilmer'
_symmetry_space_group_name_H-M	'P1'
_symmetry_Int_Tables_number	1
_symmetry_cell_setting	triclinic
loop_
_symmetry_equiv_pos_as_xyz
  x,y,z
_cell_length_a	23.532407
_cell_length_b	14.044220
_cell_length_c	12.503572
_cell_angle_alpha	93.835250
_cell_angle_beta	93.496478
_cell_angle_gamma	91.981222
loop_
_atom_site_label
_atom_site_type_symbol
_atom_site_fract_x
_atom_site_fract_y
_atom_site_fract_z
O1	O	0.134222	-1.261903	-0.089227
O2	O	0.129269	-0.985982	-0.089253
O3	O	0.049265	-1.132262	-0.089219
O4	O	0.214225	-1.115623	-0.089260
O5	O	0.055293	-1.121261	0.089420
O6	O	0.135296	-0.974981	0.089386
O7	O	0.140249	-1.250902	0.089413
Cu8	Cu	0.138323	-1.111937	0.105711
Cu9	Cu	0.131195	-1.124947	-0.105551
O10	O	0.220253	-1.104622	0.089379
C11	C	0.130115	-0.945188	0.000063
C12	C	0.123648	-0.840023	0.000054
C13	C	0.031040	-1.126337	0.000103
C14	C	-0.032246	-1.125063	0.000111
C15	C	0.139403	-1.291696	0.000094
C16	C	0.145869	-1.396861	0.000096
C17	C	-0.427092	-1.203641	0.000060
C18	C	-0.486556	-1.202458	0.000051
O19	O	-0.519354	-1.275300	0.000019
N20	N	-0.513896	-1.115494	0.000044
C21	C	-0.481769	-1.029708	0.000034
O22	O	-0.510484	-0.955630	0.000026
C23	C	-0.422305	-1.030893	0.000034
C24	C	-0.394968	-1.117862	0.000053
C25	C	-0.399754	-1.290603	0.000077
C26	C	-0.340294	-1.291786	0.000087
C27	C	-0.308170	-1.206006	0.000080
C28	C	-0.335508	-1.119044	0.000063
C29	C	-0.390179	-0.945109	0.000016
C30	C	-0.330712	-0.946301	0.000016
C31	C	-0.303375	-1.033270	0.000035
C32	C	-0.243924	-1.034447	0.000066
N33	N	-0.216584	-1.121411	0.000074
C34	C	-0.248707	-1.207191	0.000081
C35	C	-0.606646	-1.027228	0.000031
C36	C	-0.666108	-1.026042	0.000038
C37	C	-0.670891	-1.198792	0.000053
C38	C	-0.611428	-1.199976	0.000054
C39	C	-0.579306	-1.114192	0.000038
C40	C	-0.123835	-1.209668	0.000103
C41	C	-0.064369	-1.210842	0.000118
C42	C	-0.059591	-1.038093	0.000097
C43	C	-0.119052	-1.036917	0.000088
C44	C	-0.151173	-1.122713	0.000087
O45	O	-0.211090	-0.961644	0.000095
O46	O	-0.219985	-1.281258	0.000075
C47	C	0.238478	-1.110547	0.000054
C48	C	0.301763	-1.111822	0.000039
N49	N	0.143337	-1.102793	0.254301
C50	C	0.111828	-0.647472	0.000078
C51	C	0.157687	-0.589407	0.000072
C52	C	0.151110	-0.482265	0.000085
C53	C	0.118404	-0.754624	0.000065
N54	N	0.126177	-1.134098	-0.254141
C55	C	0.150717	-1.089342	0.473413
C56	C	0.118799	-1.147546	0.526753
C57	C	0.122905	-1.140062	0.648675
C58	C	0.146611	-1.096825	0.351480
H59	H	-0.042114	-1.281666	0.000136
O60	O	0.210463	-0.625930	0.000090
C61	C	0.251808	-0.550842	0.000052
H62	H	0.233652	-0.481728	0.033893
H63	H	0.264044	-0.542012	-0.085656
C64	C	0.327270	-0.659000	0.028513
C65	C	0.304972	-0.574113	0.070085
H66	H	0.360066	-0.673355	0.071707
H67	H	0.299415	-0.709589	0.028534
H68	H	0.337462	-0.651630	-0.042911
H69	H	0.294774	-0.581487	0.141501
H70	H	0.332827	-0.523525	0.070077
H71	H	-0.697057	-1.268638	0.000055
O72	O	0.082392	-1.213602	0.472164
C73	C	0.026222	-1.196819	0.499737
H74	H	0.023230	-1.119049	0.530665
H75	H	0.014332	-1.245426	0.565016
C76	C	-0.011360	-1.313396	0.361908
C77	C	-0.015036	-1.217876	0.399886
H78	H	-0.036810	-1.326389	0.300318
H79	H	0.026483	-1.324707	0.343333
H80	H	-0.021267	-1.353891	0.416316
H81	H	-0.005122	-1.177384	0.345483
H82	H	-0.052878	-1.206559	0.418449
H83	H	-0.688360	-0.955222	0.000041
H84	H	-0.033425	-0.968253	0.000095
O85	O	0.059140	-0.610635	0.000042
C86	C	0.064221	-0.510307	0.000076
H87	H	0.106346	-0.488883	-0.033745
H88	H	0.062981	-0.477546	0.085781
C89	C	-0.037195	-0.500223	-0.028434
C90	C	0.014542	-0.473910	-0.069982
H91	H	-0.067840	-0.477770	-0.071645
H92	H	-0.040619	-0.567815	-0.028453
H93	H	-0.038220	-0.472920	0.042986
H94	H	0.015569	-0.501222	-0.141396
H95	H	0.017965	-0.406321	-0.069977
H96	H	0.181126	-1.033896	0.519308
H97	H	-0.149982	-1.279531	0.000099
O98	O	-0.584907	-1.284493	-0.000129
C99	C	-0.604026	-1.342451	-0.092629
H100	H	-0.621148	-1.295566	-0.157297
H101	H	-0.639332	-1.394326	-0.071704
C102	C	-0.533058	-1.456608	-0.055155
C103	C	-0.554083	-1.399021	-0.134585
H104	H	-0.502252	-1.491507	-0.081034
H105	H	-0.520178	-1.417563	0.007166
H106	H	-0.562485	-1.499829	-0.037725
H107	H	-0.524658	-1.355794	-0.152004
H108	H	-0.566957	-1.438061	-0.196910
O109	O	-0.313777	-1.376306	-0.000096
C110	C	-0.332896	-1.434258	-0.092600
H111	H	-0.350012	-1.387367	-0.157267
H112	H	-0.368207	-1.486128	-0.071681
C113	C	-0.261937	-1.548430	-0.055123
C114	C	-0.282955	-1.490836	-0.134552
H115	H	-0.231133	-1.583334	-0.081000
H116	H	-0.249057	-1.509388	0.007201
H117	H	-0.291368	-1.591646	-0.037698
H118	H	-0.253527	-1.447614	-0.151966
H119	H	-0.295829	-1.529872	-0.196881
O120	O	-0.575528	-0.943799	0.000078
C121	C	-0.612417	-0.866799	0.000045
H122	H	-0.654366	-0.889206	0.033864
H123	H	-0.620892	-0.845391	-0.085659
C124	C	-0.533075	-0.753819	0.028562
C125	C	-0.584596	-0.781337	0.070107
H126	H	-0.515913	-0.701100	0.071775
H127	H	-0.508222	-0.805695	0.028580
H128	H	-0.540144	-0.735985	-0.042857
H129	H	-0.577525	-0.799182	0.141520
H130	H	-0.609447	-0.729462	0.070103
H131	H	-0.412427	-0.874290	-0.000005
O132	O	-0.299444	-0.863018	0.000146
C133	C	-0.261803	-0.852814	0.092683
H134	H	-0.253931	-0.926081	0.123542
H135	H	-0.281362	-0.805744	0.157457
C136	C	-0.214567	-0.716293	0.026675
C137	C	-0.204894	-0.806282	0.064572
H138	H	-0.179464	-0.687586	0.009339
H139	H	-0.239928	-0.723165	-0.035666
H140	H	-0.230868	-0.677080	0.080661
H141	H	-0.188601	-0.845497	0.010583
H142	H	-0.179529	-0.799415	0.126905
H143	H	-0.425903	-1.360460	0.000079
H144	H	-0.141310	-0.966098	0.000102
