data_functionalizedCrystal
_audit_creation_method	'MofGen! by Chris Wilmer'
_symmetry_space_group_name_H-M	'P1'
_symmetry_Int_Tables_number	1
_symmetry_cell_setting	triclinic
loop_
_symmetry_equiv_pos_as_xyz
  x,y,z
_cell_length_a	14.519731
_cell_length_b	9.065218
_cell_length_c	8.140239
_cell_angle_alpha	90.001686
_cell_angle_beta	89.997185
_cell_angle_gamma	95.647631
loop_
_atom_site_label
_atom_site_type_symbol
_atom_site_fract_x
_atom_site_fract_y
_atom_site_fract_z
O1	O	1.225270	-0.193542	-0.136610
O2	O	1.558604	0.139791	0.196723
O3	O	1.891937	0.473125	0.530056
O4	O	0.956963	-0.216284	-0.136612
O5	O	1.290296	0.117050	0.196721
O6	O	1.623629	0.450383	0.530055
O7	O	1.096662	0.009833	-0.136608
O8	O	1.429996	0.343166	0.196726
O9	O	1.763329	0.676499	0.530059
O10	O	1.085571	-0.419659	-0.136614
O11	O	1.418904	-0.086325	0.196719
O12	O	1.752237	0.247008	0.530052
O13	O	1.096654	0.009835	0.136619
O14	O	1.429988	0.343169	0.469953
O15	O	1.763321	0.676502	0.803286
O16	O	0.956955	-0.216281	0.136615
O17	O	1.290288	0.117052	0.469948
O18	O	1.623621	0.450385	0.803282
O19	O	1.225262	-0.193539	0.136617
O20	O	1.558596	0.139794	0.469950
O21	O	1.891929	0.473127	0.803284
Zn22	Zn	1.091107	-0.204910	0.179997
Zn23	Zn	1.424441	0.128423	0.513330
Zn24	Zn	1.757774	0.461757	0.846663
Zn25	Zn	1.091118	-0.204913	-0.179992
Zn26	Zn	1.424451	0.128420	0.153342
Zn27	Zn	1.757784	0.461753	0.486675
O28	O	1.085563	-0.419656	0.136613
O29	O	1.418896	-0.086323	0.469946
O30	O	1.752229	0.247011	0.803279
C31	C	0.922591	-0.215217	0.000001
C32	C	1.255925	0.118116	0.333335
C33	C	1.589258	0.451450	0.666668
C34	C	0.820188	-0.212024	0.000000
C35	C	1.153521	0.121310	0.333334
C36	C	1.486854	0.454643	0.666667
C37	C	0.737025	-0.209429	-0.000006
C38	C	1.070358	0.123904	0.333327
C39	C	1.403691	0.457237	0.666661
C40	C	0.632692	-0.206187	-0.000007
C41	C	0.966025	0.127146	0.333327
C42	C	1.299359	0.460480	0.666660
C43	C	0.549534	-0.203614	-0.000007
C44	C	0.882868	0.129719	0.333327
C45	C	1.216201	0.463053	0.666660
C46	C	0.445195	-0.200372	-0.000010
C47	C	0.778528	0.132961	0.333323
C48	C	1.111862	0.466294	0.666657
C49	C	1.095592	0.064801	0.000003
C50	C	1.428926	0.398134	0.333337
C51	C	1.762259	0.731468	0.666670
C52	C	1.092405	0.228584	-0.000005
C53	C	1.425738	0.561918	0.333329
C54	C	1.759072	0.895251	0.666662
C55	C	1.259634	-0.194606	-0.000000
C56	C	1.592967	0.138727	0.333333
C57	C	1.926300	0.472060	0.666667
C58	C	1.362037	-0.197799	-0.000010
C59	C	1.695371	0.135534	0.333323
C60	C	2.028704	0.468867	0.666657
C61	C	1.086633	-0.474624	-0.000002
C62	C	1.419966	-0.141291	0.333331
C63	C	1.753299	0.192043	0.666665
C64	C	1.089820	-0.638408	-0.000005
C65	C	1.423153	-0.305074	0.333329
C66	C	1.756487	0.028259	0.666662
N67	N	1.091107	-0.204907	0.425679
N68	N	1.424440	0.128427	0.759013
N69	N	1.757774	0.461760	1.092346
N70	N	1.091125	-0.204905	-0.425674
N71	N	1.424458	0.128429	-0.092341
N72	N	1.757792	0.461762	0.240992
