data_functionalizedCrystal
_audit_creation_method	'MofGen! by Chris Wilmer'
_symmetry_space_group_name_H-M	'P1'
_symmetry_Int_Tables_number	1
_symmetry_cell_setting	triclinic
loop_
_symmetry_equiv_pos_as_xyz
  x,y,z
_cell_length_a	13.897448
_cell_length_b	13.897449
_cell_length_c	13.897449
_cell_angle_alpha	90.008641
_cell_angle_beta	90.010270
_cell_angle_gamma	90.018519
loop_
_atom_site_label
_atom_site_type_symbol
_atom_site_fract_x
_atom_site_fract_y
_atom_site_fract_z
Zn1	Zn	-0.384156	1.474562	0.545449
Zn2	Zn	-0.545421	1.474498	0.384151
Zn3	Zn	-0.384144	1.313293	0.384160
Zn4	Zn	-0.545413	1.313233	0.545396
O5	O	-0.464784	1.393896	0.464789
O6	O	-0.405557	1.609535	0.524071
O7	O	-0.524025	1.453112	0.249170
O8	O	-0.249164	1.334738	0.405582
O9	O	-0.524037	1.609488	0.405566
O10	O	-0.249173	1.453221	0.524080
O11	O	-0.405535	1.334675	0.249177
O12	O	-0.405528	1.178303	0.405530
O13	O	-0.524025	1.334636	0.680384
O14	O	-0.524012	1.178259	0.523989
O15	O	-0.405550	1.453163	0.680424
O16	O	-0.680401	1.453054	0.405514
O17	O	-0.680396	1.334573	0.523980
C18	C	-0.464769	1.143282	0.464755
C19	C	-0.464786	1.036068	0.464764
C20	C	-0.464789	0.948998	0.464780
C21	C	-0.464796	0.839766	0.464809
C22	C	-0.715398	1.393826	0.464761
C23	C	-0.822612	1.393884	0.464781
C24	C	-1.018907	1.393985	0.464842
C25	C	-0.909674	1.393926	0.464811
C26	C	-0.213191	1.393993	0.464838
C27	C	-0.105977	1.394035	0.464859
C28	C	-0.464788	1.393900	0.716382
C29	C	-0.464789	1.393902	0.823596
C30	C	-0.464799	1.645489	0.464823
C31	C	-0.464806	1.752703	0.464838
C32	C	-0.464794	1.393877	1.019891
C33	C	-0.464794	1.393888	0.910658
C34	C	-0.464799	1.393884	1.214175
C35	C	-0.464791	1.393876	1.106961
