data_functionalizedCrystal
_audit_creation_method	'MofGen! by Chris Wilmer'
_symmetry_space_group_name_H-M	'P1'
_symmetry_Int_Tables_number	1
_symmetry_cell_setting	triclinic
loop_
_symmetry_equiv_pos_as_xyz
  x,y,z
_cell_length_a	6.817900
_cell_length_b	10.943925
_cell_length_c	10.943624
_cell_angle_alpha	91.772910
_cell_angle_beta	108.838799
_cell_angle_gamma	108.844289
loop_
_atom_site_label
_atom_site_type_symbol
_atom_site_fract_x
_atom_site_fract_y
_atom_site_fract_z
V1	V	-4.115532	-0.178599	-0.402534
O2	O	-4.073202	0.008617	-0.394889
O3	O	-4.093518	-0.354165	-0.399763
O4	O	-4.093494	-0.175837	-0.578100
O5	O	-4.073227	-0.170946	-0.215317
V6	V	-4.592325	-0.156208	-0.380143
O7	O	-4.391553	-0.227716	-0.451649
O8	O	-4.766501	-0.107090	-0.331028
O9	O	-4.391132	0.019359	-0.382914
O10	O	-4.752051	-0.343424	-0.387788
O11	O	-4.752026	-0.163861	-0.567359
O12	O	-4.391156	-0.158970	-0.204576
C13	C	-3.944085	-0.396965	-0.393408
C14	C	-4.007548	-0.540493	-0.392314
C15	C	-4.274915	-0.717225	-0.397745
C16	C	-4.085582	-0.611235	-0.288089
C17	C	-4.196062	-0.644571	-0.501935
C18	C	-3.931139	-0.690208	-0.280609
C19	C	-4.041699	-0.723567	-0.494552
C20	C	-3.852230	-0.617606	-0.384865
C21	C	-3.944052	-0.169487	-0.620894
C22	C	-4.007492	-0.168390	-0.764420
C23	C	-3.852320	-0.161003	-0.841568
C24	C	-4.041701	-0.270649	-0.947548
C25	C	-3.931176	-0.056802	-0.914182
C26	C	-4.196083	-0.278139	-0.868523
C27	C	-4.085478	-0.064195	-0.835134
C28	C	-4.274995	-0.173872	-0.941083
C29	C	-4.203907	0.062152	-0.389265
C30	C	-4.119684	0.205678	-0.390368
C31	C	-4.203939	-0.165324	-0.161776
C32	C	-4.119737	-0.166414	-0.018248
H33	H	-3.819723	-0.710753	-0.186971
H34	H	-3.672911	-0.574321	-0.379394
H35	H	-4.103238	0.023090	-0.786158
C36	C	-4.109896	-0.546108	-0.171836
C37	C	-4.330645	-0.596846	-0.179055
C38	C	-4.353149	-0.536875	-0.072002
H39	H	-4.017382	-0.562498	-0.093227
H40	H	-4.067966	-0.454611	-0.172944
H41	H	-4.372549	-0.688321	-0.177934
H42	H	-4.423202	-0.580457	-0.257641
H43	H	-4.311219	-0.445378	-0.073110
H44	H	-4.260625	-0.553269	0.006599
H45	H	-4.502930	-0.571283	-0.076892
C46	C	-4.344783	-0.616851	-0.626519
C47	C	-4.456646	-0.540795	-0.594624
C48	C	-4.593697	-0.515249	-0.709349
H49	H	-4.257372	-0.571020	-0.674159
H50	H	-4.449316	-0.696955	-0.678330
H51	H	-4.352127	-0.460705	-0.542835
H52	H	-4.544098	-0.586602	-0.547001
H53	H	-4.698231	-0.595353	-0.761160
H54	H	-4.506269	-0.469422	-0.756980
H55	H	-4.669628	-0.463653	-0.687725
C56	C	-3.783062	0.067973	-0.941996
C57	C	-3.912760	0.137794	-1.009427
C58	C	-3.776385	0.252727	-1.035082
H59	H	-3.678581	0.119912	-0.861967
H60	H	-3.707077	0.046629	-0.993713
H61	H	-3.988708	0.159141	-0.957711
H62	H	-4.017237	0.085894	-1.089469
H63	H	-3.700401	0.231384	-1.086799
H64	H	-3.671910	0.304655	-0.955047
H65	H	-3.864367	0.300110	-1.080847
C66	C	-4.017450	-0.386901	-1.012716
C67	C	-3.796708	-0.379689	-0.962031
C68	C	-3.774262	-0.486742	-1.022038
H69	H	-4.109960	-0.465511	-0.996315
H70	H	-4.059419	-0.385786	-1.104213
H71	H	-3.754764	-0.380816	-0.870556
H72	H	-3.704154	-0.301102	-0.978431
H73	H	-3.816231	-0.485627	-1.113534
H74	H	-3.866782	-0.565344	-1.005633
H75	H	-3.624486	-0.481857	-0.987666
C76	C	-4.513938	-0.180882	-0.998782
C77	C	-4.521272	-0.069325	-1.056610
C78	C	-4.741343	-0.075734	-1.109764
H79	H	-4.597482	-0.256444	-1.062896
H80	H	-4.574693	-0.185319	-0.931483
H81	H	-4.460546	-0.064901	-1.123902
H82	H	-4.437774	0.006254	-0.992523
H83	H	-4.802099	-0.080171	-1.042465
H84	H	-4.824869	-0.151300	-1.173873
H85	H	-4.746347	-0.000040	-1.148996
C86	C	-4.513864	-0.775494	-0.404876
C87	C	-4.571249	-0.910429	-0.404931
C88	C	-4.791348	-0.964153	-0.411508
H89	H	-4.529854	-0.736813	-0.331440
H90	H	-4.608262	-0.759103	-0.482758
H91	H	-4.476878	-0.926809	-0.327058
H92	H	-4.555311	-0.949145	-0.478362
H93	H	-4.885747	-0.947762	-0.489390
H94	H	-4.807317	-0.925462	-0.338071
H95	H	-4.830318	-1.055713	-0.411559
H96	H	-4.023893	-0.772507	-0.581841
H97	H	-3.673119	-0.155709	-0.798120
H98	H	-4.307485	-0.371785	-0.847969
