data_functionalizedCrystal
_audit_creation_method	'MofGen! by Chris Wilmer'
_symmetry_space_group_name_H-M	'P1'
_symmetry_Int_Tables_number	1
_symmetry_cell_setting	triclinic
loop_
_symmetry_equiv_pos_as_xyz
  x,y,z
_cell_length_a	10.685194
_cell_length_b	19.121321
_cell_length_c	10.686551
_cell_angle_alpha	92.145275
_cell_angle_beta	98.415440
_cell_angle_gamma	92.130881
loop_
_atom_site_label
_atom_site_type_symbol
_atom_site_fract_x
_atom_site_fract_y
_atom_site_fract_z
Zn1	Zn	-0.539437	1.075963	0.589614
Zn2	Zn	-0.766437	1.056527	0.362690
Zn3	Zn	-0.545320	0.949641	0.387860
Zn4	Zn	-0.741191	0.949661	0.583768
O5	O	-0.648096	1.007948	0.480983
O6	O	-0.577653	1.170974	0.551425
O7	O	-0.750133	1.034207	0.189073
O8	O	-0.367566	0.974524	0.427603
O9	O	-0.744429	1.156695	0.384705
O10	O	-0.363244	1.067332	0.575831
O11	O	-0.587678	0.955678	0.207565
O12	O	-0.563199	0.852054	0.421935
O13	O	-0.701401	0.974557	0.761500
O14	O	-0.707105	0.852068	0.565868
O15	O	-0.553173	1.067350	0.765795
O16	O	-0.940061	1.034225	0.379037
O17	O	-0.921514	0.955711	0.541462
C18	C	-0.633052	0.826757	0.495999
C19	C	-0.626644	0.749243	0.502451
C20	C	-0.585947	0.311218	0.543367
C21	C	-0.591992	0.384050	0.537296
C22	C	-0.681722	0.413022	0.447337
C23	C	-0.765421	0.369159	0.363452
C24	C	-0.759381	0.296329	0.369530
C25	C	-0.704303	0.632549	0.424643
C26	C	-0.710334	0.705385	0.418570
C27	C	-0.536905	0.720271	0.592416
C28	C	-0.530868	0.647439	0.598480
C29	C	-0.614572	0.603582	0.514600
C30	C	-0.687901	0.487467	0.441127
C31	C	-0.608398	0.529138	0.520817
C32	C	-0.976674	0.992881	0.456909
C33	C	-1.117243	0.986501	0.446648
C34	C	-0.318235	1.023094	0.505177
C35	C	-0.177668	1.029548	0.515487
C36	C	-0.623815	1.023124	0.810813
C37	C	-0.613468	1.029590	0.951367
C38	C	-0.663201	1.189846	0.465909
C39	C	-0.669637	1.267361	0.459486
C40	C	-0.672195	0.992876	0.152439
C41	C	-0.682198	0.986560	0.011901
H42	H	-0.523846	0.419756	0.605605
C43	C	-0.972996	1.081529	0.598706
C44	C	-1.102338	1.085898	0.605650
H45	H	-0.926489	1.116321	0.654365
H46	H	-0.946238	1.036484	0.622584
H47	H	-0.958544	1.088833	0.514460
H48	H	-1.116792	1.078589	0.689895
H49	H	-1.129105	1.130954	0.581780
H50	H	-0.748960	0.944774	0.956198
C51	C	-0.530175	1.081709	1.155916
C52	C	-0.523331	1.086005	1.026561
H53	H	-0.474521	1.116533	1.202336
H54	H	-0.614412	1.089001	1.170416
H55	H	-0.506210	1.036680	1.182727
H56	H	-0.547305	1.131033	0.999748
H57	H	-0.439076	1.078718	1.012054
H58	H	-0.772457	0.596849	0.356339
H59	H	-0.512872	0.287635	0.616614
C60	C	-1.153100	0.863749	0.391693
C61	C	-1.192578	0.930148	0.356481
H62	H	-1.199615	0.828960	0.336033
H63	H	-1.065361	0.860798	0.386987
H64	H	-1.167573	0.856454	0.475936
H65	H	-1.178097	0.937445	0.272241
H66	H	-1.280338	0.933101	0.361174
C67	C	-0.360053	0.669472	0.769715
C68	C	-0.432236	0.615595	0.697368
H69	H	-0.299164	0.649811	0.830766
H70	H	-0.318000	0.697559	0.715883
H71	H	-0.414046	0.697577	0.811580
H72	H	-0.378244	0.587493	0.655496
H73	H	-0.474291	0.587496	0.751208
H74	H	-0.838486	0.392754	0.290210
H75	H	-0.468760	0.755987	0.660707
C76	C	-0.930814	0.715149	0.339086
C77	C	-0.808981	0.737238	0.319695
H78	H	-0.991708	0.734819	0.278053
H79	H	-0.939200	0.665504	0.330686
H80	H	-0.944164	0.730154	0.421665
H81	H	-0.795627	0.722228	0.237118
H82	H	-0.800591	0.786894	0.328083
H83	H	-0.535344	0.505546	0.594065
C84	C	-0.976127	0.261230	0.293759
C85	C	-0.851376	0.248118	0.277323
H86	H	-1.032923	0.231469	0.236829
H87	H	-0.987519	0.252360	0.378311
H88	H	-0.992548	0.308753	0.277261
H89	H	-0.834952	0.200596	0.293830
H90	H	-0.839978	0.256983	0.192751
C91	C	-0.866072	0.560756	0.403978
C92	C	-0.786521	0.519321	0.342239
H93	H	-0.926950	0.580426	0.342929
H94	H	-0.908139	0.532659	0.457786
H95	H	-0.817075	0.597292	0.453075
H96	H	-0.835517	0.482781	0.293150
H97	H	-0.744452	0.547420	0.288409
