data_functionalizedCrystal
_audit_creation_method	'MofGen! by Chris Wilmer'
_symmetry_space_group_name_H-M	'P1'
_symmetry_Int_Tables_number	1
_symmetry_cell_setting	triclinic
loop_
_symmetry_equiv_pos_as_xyz
  x,y,z
_cell_length_a	12.759401
_cell_length_b	16.120484
_cell_length_c	16.120256
_cell_angle_alpha	84.383827
_cell_angle_beta	87.118528
_cell_angle_gamma	92.925560
loop_
_atom_site_label
_atom_site_type_symbol
_atom_site_fract_x
_atom_site_fract_y
_atom_site_fract_z
Zn1	Zn	1.552086	-0.356756	0.489390
Zn2	Zn	1.551954	-0.489442	0.356699
Zn3	Zn	1.385776	-0.349689	0.349642
Zn4	Zn	1.366964	-0.496488	0.496431
O5	O	1.464195	-0.423094	0.423040
O6	O	1.699088	-0.374366	0.471795
O7	O	1.537727	-0.464997	0.238800
O8	O	1.415765	-0.233661	0.362280
O9	O	1.698991	-0.471850	0.374308
O10	O	1.537952	-0.238853	0.464952
O11	O	1.415637	-0.362321	0.233615
O12	O	1.236260	-0.369153	0.369107
O13	O	1.383704	-0.483859	0.612459
O14	O	1.222440	-0.477006	0.476952
O15	O	1.519712	-0.381199	0.607286
O16	O	1.519487	-0.607342	0.381135
O17	O	1.383576	-0.612519	0.483795
C18	C	1.191229	-0.423078	0.423028
C19	C	1.074451	-0.423092	0.423044
C20	C	1.012420	-0.479332	0.479115
C21	C	0.902695	-0.479343	0.479124
C22	C	0.917041	-0.366871	0.366985
C23	C	1.026764	-0.366857	0.366980
C24	C	1.004136	-0.544269	0.543855
C25	C	0.894411	-0.544280	0.543865
C26	C	1.449503	-0.640259	0.434013
C27	C	1.443312	-0.733165	0.438735
C28	C	1.432013	-0.903265	0.447374
C29	C	1.496563	-0.942082	0.398720
C30	C	1.490277	-1.036732	0.403527
C31	C	1.438298	-0.808607	0.442569
C32	C	1.738226	-0.423110	0.423053
C33	C	1.855002	-0.423117	0.423058
C34	C	1.449624	-0.434103	0.641048
C35	C	1.443415	-0.438795	0.733950
C36	C	1.478972	-0.205081	0.412043
C37	C	1.485269	-0.112177	0.407357
C38	C	1.478773	-0.412067	0.205878
C39	C	1.485202	-0.407140	0.112964
C40	C	1.496575	-0.398606	0.942874
C41	C	1.432046	-0.447326	0.904035
C42	C	1.438373	-0.442578	0.809391
C43	C	1.490248	-0.403353	1.037526
H44	H	0.878201	-0.321086	0.321341
C45	C	0.844987	-0.517297	0.625415
C46	C	0.915682	-0.494163	0.695286
C47	C	0.866256	-0.467176	0.776832
C48	C	0.746135	-0.463323	0.788508
C49	C	0.675432	-0.486458	0.718635
C50	C	0.724858	-0.513445	0.637089
H51	H	1.004610	-0.497014	0.686645
H52	H	0.918596	-0.450050	0.828557
H53	H	0.709547	-0.443345	0.848873
H54	H	0.586505	-0.483606	0.727276
H55	H	0.672519	-0.530571	0.585365
C56	C	1.577633	-0.337451	0.891776
C57	C	1.583929	-0.332739	0.795768
C58	C	1.664991	-0.271589	0.744658
C59	C	1.739757	-0.215152	0.789557
C60	C	1.733465	-0.219862	0.885571
C61	C	1.652403	-0.281012	0.936680
H62	H	1.528580	-0.374520	0.762526
H63	H	1.669648	-0.268103	0.673583
H64	H	1.799764	-0.169885	0.751723
H65	H	1.788814	-0.178081	0.918812
H66	H	1.647745	-0.284498	1.007755
C67	C	0.849845	-0.630507	0.524710
C68	C	0.773060	-0.682685	0.588545
C69	C	0.728495	-0.768907	0.569391
C70	C	0.760716	-0.802952	0.486401
C71	C	0.837505	-0.750773	0.422561
C72	C	0.882069	-0.664551	0.441715
H73	H	0.749205	-0.657483	0.649984
H74	H	0.671651	-0.807533	0.616650
H75	H	0.727726	-0.866779	0.472222
H76	H	0.861360	-0.775974	0.361122
H77	H	0.938914	-0.625925	0.394456
C78	C	1.350982	-0.508492	0.955127
C79	C	1.353887	-0.602927	0.948035
C80	C	1.272824	-0.664090	0.999127
C81	C	1.188856	-0.630816	1.057311
C82	C	1.185948	-0.536376	1.064405
C83	C	1.267011	-0.475214	1.013313
H84	H	1.416048	-0.627562	0.904961
H85	H	1.274977	-0.734001	0.993874
H86	H	1.128848	-0.676093	1.095132
H87	H	1.123787	-0.511741	1.107479
H88	H	1.264858	-0.405302	1.018566
C89	C	1.577589	-0.890953	0.337561
C90	C	1.583835	-0.794939	0.332770
C91	C	1.664852	-0.743806	0.271608
C92	C	1.739623	-0.788688	0.215237
C93	C	1.733380	-0.884707	0.220026
C94	C	1.652363	-0.935840	0.281188
H95	H	1.528483	-0.761710	0.374501
H96	H	1.669473	-0.672726	0.268064
H97	H	1.799596	-0.750836	0.169962
H98	H	1.788732	-0.917936	0.178295
H99	H	1.647742	-1.006921	0.284732
C100	C	1.350978	-0.954395	0.508515
C101	C	1.267050	-1.012679	0.475222
C102	C	1.186013	-1.063821	0.536359
C103	C	1.188905	-1.056678	0.630790
C104	C	1.272836	-0.998391	0.664088
C105	C	1.353873	-0.947249	0.602951
H106	H	1.264906	-1.017969	0.405314
H107	H	1.123882	-1.106969	0.511709
H108	H	1.128917	-1.094536	0.676048
H109	H	1.274980	-0.993101	0.733996
H110	H	1.416004	-0.904101	0.627601
C111	C	1.094992	-0.304991	0.305298
C112	C	1.085849	-0.210336	0.307473
C113	C	1.154074	-0.148469	0.245784
C114	C	1.231443	-0.181257	0.181919
C115	C	1.240590	-0.275917	0.179741
C116	C	1.172364	-0.337784	0.241430
H117	H	1.028573	-0.186061	0.354752
H118	H	1.147302	-0.078396	0.247396
H119	H	1.281947	-0.135459	0.136253
H120	H	1.297866	-0.300192	0.132462
H121	H	1.179136	-0.407857	0.239818
H122	H	1.030756	-0.530302	0.607746
H123	H	1.035575	-0.604544	0.523668
