data_functionalizedCrystal
_audit_creation_method	'MofGen! by Chris Wilmer'
_symmetry_space_group_name_H-M	'P1'
_symmetry_Int_Tables_number	1
_symmetry_cell_setting	triclinic
loop_
_symmetry_equiv_pos_as_xyz
  x,y,z
_cell_length_a	17.917603
_cell_length_b	12.970454
_cell_length_c	12.970454
_cell_angle_alpha	120.000713
_cell_angle_beta	90.000926
_cell_angle_gamma	57.011542
loop_
_atom_site_label
_atom_site_type_symbol
_atom_site_fract_x
_atom_site_fract_y
_atom_site_fract_z
Zr1	Zr	0.754908	1.033601	0.087842
O2	O	0.629787	1.264423	0.260333
O3	O	0.793264	0.813688	0.034963
O4	O	0.793268	1.028777	0.250054
O5	O	0.629780	1.049335	-0.124424
O6	O	0.922225	1.012562	0.241946
O7	O	0.629783	1.049334	0.045243
O8	O	0.922218	0.627807	-0.142812
O9	O	0.629787	1.434090	0.260334
O10	O	0.905862	0.888000	0.006361
O11	O	0.809621	0.900102	-0.114208
O12	O	0.809625	1.153342	0.139033
O13	O	0.713384	1.165443	0.018464
Zr14	Zr	0.960575	1.007743	-0.195688
Zr15	Zr	0.960580	1.007741	0.074910
Zr16	Zr	0.754903	1.033603	-0.182756
Zr17	Zr	0.754908	1.304201	0.087843
Zr18	Zr	0.960575	0.737143	-0.195689
O19	O	0.922219	1.227656	-0.142809
O20	O	0.922225	1.227653	0.241947
O21	O	0.629780	1.264426	-0.124423
O22	O	1.085696	0.776921	-0.368179
O23	O	1.085703	0.776918	0.016577
O24	O	0.793258	0.813691	-0.349793
O25	O	1.085703	0.992008	0.016578
O26	O	0.922215	1.012567	-0.357900
O27	O	0.793258	1.028782	-0.349792
O28	O	1.085700	0.992010	-0.153089
O29	O	0.793268	1.413535	0.250056
O30	O	0.922215	0.627809	-0.357902
O31	O	1.085696	0.607253	-0.368180
O32	O	1.085700	0.607252	-0.153091
O33	O	0.629783	1.434092	0.045245
O34	O	0.793264	1.413537	0.034966
O35	O	0.905858	0.888002	-0.246879
O36	O	1.002099	0.875900	-0.126310
O37	O	0.905862	1.141242	0.006362
O38	O	0.809621	1.153344	-0.114207
C39	C	0.857741	0.682193	-0.053925
C40	C	0.857741	0.567316	-0.053925
C41	C	0.600478	1.053019	-0.037748
C42	C	0.513165	1.063998	-0.032258
C43	C	0.353321	1.084051	-0.022233
C44	C	0.362155	0.957299	-0.085610
C45	C	0.273213	0.968457	-0.080032
C46	C	0.442270	1.072896	-0.027810
C47	C	1.115005	0.988325	-0.070098
C48	C	1.202318	0.977346	-0.075588
C49	C	0.857747	1.020669	0.284554
C50	C	0.857749	1.020668	0.399430
C51	C	0.857741	1.359151	-0.053921
C52	C	0.857741	1.474028	-0.053921
C53	C	0.857739	1.020674	0.607600
C54	C	0.857746	1.020673	0.492723
C55	C	1.115005	0.649845	-0.070100
C56	C	1.202318	0.523990	-0.075590
C57	C	0.857736	0.682195	-0.392402
C58	C	0.857734	0.567320	-0.507278
C59	C	1.114999	0.649848	-0.408577
C60	C	1.202310	0.523994	-0.528943
C61	C	0.600483	1.391496	0.300731
C62	C	0.513172	1.517350	0.421097
C63	C	0.600478	1.391498	-0.037746
C64	C	0.513165	1.517354	-0.032256
C65	C	0.857747	1.359148	0.284556
C66	C	0.857749	1.474024	0.399432
C67	C	1.193087	0.471203	-0.008904
C68	C	1.275118	0.352965	-0.014037
C69	C	1.366381	0.287508	-0.085864
C70	C	1.375611	0.340306	-0.152551
C71	C	1.293580	0.458550	-0.147411
C72	C	1.293558	0.458573	-0.522533
C73	C	1.375604	0.340334	-0.635620
C74	C	1.366400	0.287510	-0.755116
C75	C	1.275142	0.352942	-0.761523
C76	C	1.193099	0.471187	-0.648437
C77	C	0.421925	1.582784	0.414687
C78	C	0.339879	1.701057	0.527774
C79	C	0.349083	1.753886	0.647270
C80	C	0.440340	1.688447	0.653677
C81	C	0.522384	1.570183	0.540591
C82	C	0.522396	1.570152	-0.098931
C83	C	0.440364	1.688420	-0.093768
C84	C	0.349102	1.753880	-0.021937
C85	C	0.339872	1.701077	0.044745
C86	C	0.421903	1.582819	0.039589
H87	H	0.278965	1.200937	0.036211
O88	O	1.464338	0.276493	-0.222313
C89	C	1.534750	0.160832	-0.212518
H90	H	1.502757	0.117685	-0.186149
H91	H	1.560416	0.209238	-0.135001
C92	C	1.659506	0.080383	-0.374541
C93	C	1.620213	0.027379	-0.342164
H94	H	1.712226	-0.001935	-0.454509
H95	H	1.612069	0.158309	-0.381137
H96	H	1.680887	0.120721	-0.309933
H97	H	1.598822	-0.012939	-0.406763
H98	H	1.667649	-0.050557	-0.335582
H99	H	0.414412	1.539778	0.317398
O100	O	0.251267	1.764407	0.114412
C101	C	0.240734	1.650559	0.066438
H102	H	0.314579	1.533294	0.013415
H103	H	0.201548	1.654040	-0.002472
C104	C	0.091711	1.823927	0.243867
C105	C	0.182409	1.679901	0.178754
H106	H	0.055730	1.842028	0.313147
H107	H	0.098805	1.900631	0.276187
H108	H	0.059068	1.826810	0.186429
H109	H	0.215055	1.677027	0.236188
H110	H	0.175320	1.603197	0.146447
O111	O	0.450914	0.817924	-0.155428
C112	C	0.501327	0.803782	-0.251319
H113	H	0.469894	0.922540	-0.221555
H114	H	0.494594	0.739293	-0.345748
C115	C	0.646559	0.569163	-0.305266
C116	C	0.607957	0.715024	-0.268705
H117	H	0.712334	0.514408	-0.315997
H118	H	0.612594	0.578687	-0.240667
H119	H	0.640939	0.515442	-0.383954
H120	H	0.613566	0.768749	-0.190012
H121	H	0.641925	0.705507	-0.333293
H122	H	1.433213	0.191226	-0.847187
O123	O	1.104512	0.534652	0.060981
C124	C	1.113975	0.462663	0.118707
H125	H	1.187183	0.408987	0.127189
H126	H	1.107253	0.369760	0.057194
C127	C	0.944581	0.647959	0.242983
C128	C	1.034495	0.582044	0.253410
H129	H	0.895553	0.721596	0.326072
H130	H	0.938205	0.696457	0.204089
H131	H	0.938994	0.570526	0.191717
H132	H	1.040086	0.659474	0.304662
H133	H	1.040870	0.533562	0.292316
H134	H	1.267585	0.309992	0.040269
H135	H	0.282315	1.850173	-0.017750
H136	H	1.433168	0.191226	-0.090040
O137	O	1.302726	0.509581	-0.212328
C138	C	1.400869	0.426463	-0.276797
H139	H	1.444605	0.311575	-0.292603
H140	H	1.425043	0.494212	-0.216380
C141	C	1.362624	0.540453	-0.388070
C142	C	1.416340	0.399340	-0.407493
H143	H	1.372168	0.523728	-0.468687
H144	H	1.296502	0.596456	-0.344633
H145	H	1.382775	0.596896	-0.337719
H146	H	1.396181	0.342909	-0.457829
H147	H	1.482459	0.343327	-0.450942
O148	O	0.413099	1.531383	0.104312
C149	C	0.505063	1.412932	0.084338
H150	H	0.559458	1.423800	0.056598
H151	H	0.525953	1.297419	0.003879
C152	C	0.437012	1.411555	0.242749
C153	C	0.503820	1.424910	0.208689
H154	H	0.436246	1.418937	0.319451
H155	H	0.375054	1.491353	0.256203
H156	H	0.454428	1.315293	0.175689
H157	H	0.486397	1.521177	0.275740
H158	H	0.565776	1.345128	0.195249
H159	H	1.301071	0.501564	-0.425244
H160	H	0.265581	1.754318	0.522532
H161	H	0.282270	1.850184	0.739341
O162	O	1.464298	0.276528	-0.629554
C163	C	1.514770	0.118939	-0.691189
H164	H	1.483455	0.077081	-0.762791
H165	H	1.507952	0.099193	-0.616553
C166	C	1.659877	0.081427	-0.674673
C167	C	1.621421	0.030013	-0.762623
H168	H	1.725665	0.026572	-0.718733
H169	H	1.625873	0.187598	-0.633144
H170	H	1.654187	0.064969	-0.612483
H171	H	1.627101	0.046489	-0.824802
H172	H	1.655428	-0.076158	-0.804165
O173	O	0.611093	1.506517	0.546598
C174	C	0.681545	1.390785	0.421172
H175	H	0.649588	1.412487	0.351611
H176	H	0.707221	1.274661	0.392078
C177	C	0.806236	1.365261	0.502867
C178	C	0.766988	1.391923	0.417432
H179	H	0.858944	1.365957	0.500559
H180	H	0.758772	1.443228	0.587369
H181	H	0.827625	1.268493	0.478612
H182	H	0.745589	1.488698	0.441697
H183	H	0.814451	1.313973	0.332933
O184	O	0.611114	1.506369	-0.168690
C185	C	0.681552	1.390691	-0.158931
H186	H	0.649588	1.347489	-0.132598
H187	H	0.707211	1.439099	-0.081404
C188	C	0.806271	1.310362	-0.320915
C189	C	0.767014	1.257291	-0.288582
H190	H	0.858990	1.228076	-0.400887
H191	H	0.758817	1.388300	-0.327487
H192	H	0.827646	1.350702	-0.256299
H193	H	0.745629	1.216970	-0.353190
H194	H	0.814467	1.179342	-0.282024
H195	H	1.267663	0.309915	-0.858831
H196	H	0.447898	1.731392	-0.148075
H197	H	1.118804	0.524438	-0.653674
H198	H	0.447823	1.731476	0.750984
