data_functionalizedCrystal
_audit_creation_method	'MofGen! by Chris Wilmer'
_symmetry_space_group_name_H-M	'P1'
_symmetry_Int_Tables_number	1
_symmetry_cell_setting	triclinic
loop_
_symmetry_equiv_pos_as_xyz
  x,y,z
_cell_length_a	14.519709
_cell_length_b	14.519709
_cell_length_c	12.996460
_cell_angle_alpha	89.999398
_cell_angle_beta	90.001234
_cell_angle_gamma	96.319855
loop_
_atom_site_label
_atom_site_type_symbol
_atom_site_fract_x
_atom_site_fract_y
_atom_site_fract_z
O1	O	0.120885	-1.223870	0.085435
O2	O	0.454218	-0.890537	0.418768
O3	O	0.787552	-0.557204	0.752102
O4	O	0.135121	-0.955394	0.085467
O5	O	0.468455	-0.622060	0.418800
O6	O	0.801788	-0.288727	0.752133
O7	O	-0.006235	-1.096750	0.085441
O8	O	0.327098	-0.763417	0.418774
O9	O	0.660431	-0.430084	0.752108
O10	O	0.262242	-1.082514	0.085461
O11	O	0.595575	-0.749180	0.418794
O12	O	0.928908	-0.415847	0.752128
O13	O	-0.006227	-1.096732	-0.085693
O14	O	0.327106	-0.763399	0.247640
O15	O	0.660440	-0.430065	0.580974
O16	O	0.135130	-0.955375	-0.085667
O17	O	0.468463	-0.622042	0.247666
O18	O	0.801796	-0.288709	0.581000
O19	O	0.120893	-1.223852	-0.085699
O20	O	0.454226	-0.890519	0.247635
O21	O	0.787560	-0.557186	0.580968
Cu22	Cu	0.128012	-1.089612	-0.101309
Cu23	Cu	0.461345	-0.756279	0.232025
Cu24	Cu	0.794679	-0.422945	0.565358
Cu25	Cu	0.128002	-1.089634	0.101077
Cu26	Cu	0.461336	-0.756300	0.434410
Cu27	Cu	0.794669	-0.422967	0.767744
O28	O	0.262250	-1.082496	-0.085673
O29	O	0.595583	-0.749162	0.247661
O30	O	0.928916	-0.415829	0.580994
C31	C	-0.040591	-1.096078	-0.000126
C32	C	0.292742	-0.762744	0.333207
C33	C	0.626076	-0.429411	0.666541
C34	C	-0.142972	-1.094090	-0.000126
C35	C	0.190361	-0.760756	0.333207
C36	C	0.523694	-0.427423	0.666540
C37	C	0.134462	-0.921025	-0.000096
C38	C	0.467795	-0.587691	0.333237
C39	C	0.801129	-0.254358	0.666571
C40	C	0.132474	-0.818643	-0.000084
C41	C	0.465807	-0.485310	0.333249
C42	C	0.799141	-0.151977	0.666582
C43	C	0.121553	-1.258221	-0.000134
C44	C	0.454886	-0.924888	0.333200
C45	C	0.788219	-0.591554	0.666533
C46	C	0.123541	-1.360602	-0.000139
C47	C	0.456874	-1.027269	0.333195
C48	C	0.790207	-0.693936	0.666528
C49	C	-0.517868	-1.086770	-0.000099
C50	C	-0.184535	-0.753437	0.333234
C51	C	0.148799	-0.420103	0.666568
C52	C	-0.413560	-1.088803	-0.000107
C53	C	-0.080227	-0.755469	0.333226
C54	C	0.253107	-0.422136	0.666560
C55	C	-0.330423	-1.090430	-0.000114
C56	C	0.002910	-0.757096	0.333220
C57	C	0.336243	-0.423763	0.666553
C58	C	-0.226109	-1.092463	-0.000120
C59	C	0.107224	-0.759129	0.333214
C60	C	0.440558	-0.425796	0.666547
C61	C	0.296606	-1.083168	-0.000103
C62	C	0.629939	-0.749835	0.333230
C63	C	0.963272	-0.416501	0.666563
C64	C	0.398987	-1.085156	-0.000096
C65	C	0.732320	-0.751823	0.333237
C66	C	1.065653	-0.418490	0.666570
N67	N	0.128018	-1.089604	-0.243656
N68	N	0.461352	-0.756270	0.089678
N69	N	0.794685	-0.422937	0.423011
C70	C	0.125154	-0.443748	-0.000132
C71	C	0.458488	-0.110414	0.333202
C72	C	0.791821	0.222919	0.666535
C73	C	0.127187	-0.548056	-0.000118
C74	C	0.460520	-0.214722	0.333215
C75	C	0.793854	0.118611	0.666549
C76	C	0.128814	-0.631192	-0.000107
C77	C	0.462147	-0.297859	0.333226
C78	C	0.795481	0.035474	0.666560
C79	C	0.130847	-0.735507	-0.000095
C80	C	0.464180	-0.402173	0.333238
C81	C	0.797514	-0.068840	0.666571
C82	C	0.128021	-1.089608	-0.336762
C83	C	0.461354	-0.756275	-0.003428
C84	C	0.794687	-0.422941	0.329905
C85	C	0.128015	-1.089616	-0.453567
C86	C	0.461348	-0.756283	-0.120234
C87	C	0.794681	-0.422950	0.213100
C88	C	0.128004	-1.089628	-0.546665
C89	C	0.461338	-0.756295	-0.213332
C90	C	0.794671	-0.422961	0.120001
C91	C	0.127999	-1.089638	-0.663478
C92	C	0.461332	-0.756304	-0.330144
C93	C	0.794666	-0.422971	0.003189
N94	N	0.127989	-1.089649	0.243424
N95	N	0.461322	-0.756316	0.576757
N96	N	0.794656	-0.422983	0.910091
