data_functionalizedCrystal
_audit_creation_method	'MofGen! by Chris Wilmer'
_symmetry_space_group_name_H-M	'P1'
_symmetry_Int_Tables_number	1
_symmetry_cell_setting	triclinic
loop_
_symmetry_equiv_pos_as_xyz
  x,y,z
_cell_length_a	16.625548
_cell_length_b	12.594516
_cell_length_c	16.625539
_cell_angle_alpha	90.025003
_cell_angle_beta	90.020568
_cell_angle_gamma	90.012884
loop_
_atom_site_label
_atom_site_type_symbol
_atom_site_fract_x
_atom_site_fract_y
_atom_site_fract_z
Zn1	Zn	1.232740	-0.423710	0.455928
Zn2	Zn	1.732740	0.076290	0.955928
Zn3	Zn	1.232668	-0.601711	0.321103
Zn4	Zn	1.732668	-0.101711	0.821103
Zn5	Zn	1.097902	-0.423750	0.321108
Zn6	Zn	1.597902	0.076250	0.821108
Zn7	Zn	1.097897	-0.601650	0.455893
Zn8	Zn	1.597897	-0.101650	0.955893
O9	O	1.165302	-0.512705	0.388508
O10	O	1.665302	-0.012705	0.888508
O11	O	1.345563	-0.447331	0.438055
O12	O	1.845563	0.052669	0.938055
O13	O	1.214763	-0.578147	0.208271
O14	O	1.714763	-0.078147	0.708271
O15	O	1.115820	-0.274799	0.339010
O16	O	1.615820	0.225201	0.839010
O17	O	1.345510	-0.578107	0.339000
O18	O	1.845510	-0.078107	0.839000
O19	O	1.214885	-0.274769	0.438061
O20	O	1.714885	0.225231	0.938061
O21	O	1.115751	-0.447400	0.208275
O22	O	1.615751	0.052600	0.708275
O23	O	0.985069	-0.447341	0.338975
O24	O	1.485069	0.052659	0.838975
O25	O	1.115813	-0.578003	0.568730
O26	O	1.615813	-0.078003	1.068730
O27	O	0.985066	-0.578043	0.438001
O28	O	1.485066	-0.078043	0.938001
O29	O	1.214881	-0.447271	0.568756
O30	O	1.714881	0.052729	1.068756
O31	O	1.214759	-0.750649	0.338966
O32	O	1.714759	-0.250649	0.838966
O33	O	1.115743	-0.750604	0.437996
O34	O	1.615743	-0.250604	0.937996
C35	C	0.955811	-0.512690	0.388485
C36	C	1.455811	-0.012690	0.888485
C37	C	0.866190	-0.512709	0.388495
C38	C	1.366190	-0.012709	0.888495
C39	C	0.538014	-0.512716	0.388529
C40	C	1.038014	-0.012716	0.888529
C41	C	0.629323	-0.512711	0.388517
C42	C	1.129323	-0.012711	0.888517
C43	C	0.702099	-0.512713	0.388512
C44	C	1.202099	-0.012713	0.888512
C45	C	0.793414	-0.512707	0.388501
C46	C	1.293414	-0.012707	0.888501
C47	C	1.165265	-0.789246	0.388494
C48	C	1.665265	-0.289246	0.888494
C49	C	1.165322	-0.907552	0.388515
C50	C	1.665322	-0.407552	0.888515
C51	C	1.219240	-0.976791	0.334710
C52	C	1.719240	-0.476791	0.834710
C53	C	1.238943	-1.047491	0.408305
C54	C	1.738943	-0.547491	0.908305
C55	C	1.145720	-1.047650	0.314967
C56	C	1.645720	-0.547650	0.814967
C57	C	1.185064	-0.976694	0.462148
C58	C	1.685064	-0.476694	0.962148
C59	C	1.091806	-0.976846	0.368761
C60	C	1.591806	-0.476846	0.868761
C61	C	1.111482	-1.047515	0.442406
C62	C	1.611482	-0.547515	0.942406
C63	C	1.375611	-0.512721	0.388531
C64	C	1.875611	-0.012721	0.888531
C65	C	1.465232	-0.512728	0.388541
C66	C	1.965232	-0.012728	0.888541
C67	C	1.165354	-0.512626	0.598817
C68	C	1.665354	-0.012626	1.098817
C69	C	1.165377	-0.512592	0.688438
C70	C	1.665377	-0.012592	1.188438
C71	C	1.165361	-0.235085	0.388540
C72	C	1.665361	0.264915	0.888540
C73	C	1.165387	-0.116779	0.388553
C74	C	1.665387	0.383221	0.888553
C75	C	1.165296	-0.512708	0.179017
C76	C	1.665296	-0.012708	0.679017
C77	C	1.165430	-0.512441	0.089396
C78	C	1.665430	-0.012441	0.589396
C79	C	1.165414	-0.512473	1.016614
C80	C	1.665414	-0.012473	1.516614
C81	C	1.165401	-0.512510	0.925305
C82	C	1.665401	-0.012510	1.425305
C83	C	1.165396	-0.512534	0.852529
C84	C	1.665396	-0.012534	1.352529
C85	C	1.165382	-0.512568	0.761215
C86	C	1.665382	-0.012568	1.261215
H87	H	1.301142	-1.078526	0.425034
H88	H	1.801142	-0.578526	0.925034
H89	H	1.065913	-1.078374	0.487976
H90	H	1.565913	-0.578374	0.987976
O91	O	1.279631	-0.935642	0.274485
O92	O	1.779631	-0.435642	0.774485
H93	H	1.324908	-0.885870	0.305922
H94	H	1.824908	-0.385870	0.805922
O95	O	1.207167	-0.935601	0.544583
O96	O	1.707167	-0.435601	1.044583
H97	H	1.206999	-0.847477	0.543910
H98	H	1.706999	-0.347477	1.043910
H99	H	1.029625	-0.945789	0.352009
H100	H	1.529625	-0.445789	0.852009
H101	H	1.129113	-1.078816	0.252753
H102	H	1.629113	-0.578816	0.752753
