data_functionalizedCrystal
_audit_creation_method	'MofGen! by Chris Wilmer'
_symmetry_space_group_name_H-M	'P1'
_symmetry_Int_Tables_number	1
_symmetry_cell_setting	triclinic
loop_
_symmetry_equiv_pos_as_xyz
  x,y,z
_cell_length_a	17.699083
_cell_length_b	23.532357
_cell_length_c	16.776229
_cell_angle_alpha	89.987808
_cell_angle_beta	89.998886
_cell_angle_gamma	83.055654
loop_
_atom_site_label
_atom_site_type_symbol
_atom_site_fract_x
_atom_site_fract_y
_atom_site_fract_z
O1	O	1.003696	0.072022	-0.066186
O2	O	0.783268	0.081392	-0.066214
O3	O	0.900149	-0.006208	-0.066183
O4	O	0.886815	0.159621	-0.066217
O5	O	0.900133	-0.006213	0.066394
O6	O	0.783252	0.081386	0.066363
O7	O	1.003680	0.072016	0.066390
Zn8	Zn	0.893464	0.076700	0.087426
Zn9	Zn	0.893484	0.076708	-0.087249
O10	O	0.886800	0.159616	0.066359
C11	C	0.755065	0.081053	0.000071
C12	C	0.671052	0.080046	0.000062
C13	C	0.899807	-0.027428	0.000108
C14	C	0.898805	-0.090650	0.000115
C15	C	0.622158	0.131465	0.000051
C16	C	0.543220	0.130515	0.000062
C17	C	0.513177	0.078146	0.000077
C18	C	0.562077	0.026723	0.000090
C19	C	0.641014	0.027673	0.000085
C20	C	0.243735	0.022889	0.000110
C21	C	0.164792	0.021942	0.000113
C22	C	0.145940	0.125731	0.000087
C23	C	0.224877	0.126681	0.000082
C24	C	0.273770	0.075259	0.000099
C25	C	0.359364	0.076289	0.000089
C26	C	0.427585	0.077115	0.000081
C27	C	0.892518	-0.482676	-0.072196
C28	C	0.891565	-0.542078	-0.072201
O29	O	0.891053	-0.572794	-0.133661
N30	N	0.891084	-0.571794	0.000066
C31	C	0.891548	-0.542103	0.072342
O32	O	0.891051	-0.572833	0.133809
C33	C	0.892496	-0.482701	0.072345
C34	C	0.892985	-0.452990	0.000074
C35	C	0.893006	-0.452964	-0.144461
C36	C	0.893960	-0.393566	-0.144456
C37	C	0.894427	-0.363880	-0.072186
C38	C	0.893939	-0.393592	0.000079
C39	C	0.892955	-0.453011	0.144620
C40	C	0.893902	-0.393606	0.144618
C41	C	0.894391	-0.363894	0.072347
C42	C	0.895360	-0.304508	0.072354
N43	N	0.895842	-0.274792	0.000088
C44	C	0.895375	-0.304479	-0.072182
C45	C	0.889557	-0.666850	0.072328
C46	C	0.888614	-0.726252	0.072325
C47	C	0.888630	-0.726222	-0.072217
C48	C	0.889577	-0.666821	-0.072214
C49	C	0.890038	-0.637135	0.000062
C50	C	0.897380	-0.179739	-0.072166
C51	C	0.898338	-0.120336	-0.072155
C52	C	0.898319	-0.120370	0.072387
C53	C	0.897365	-0.179768	0.072376
C54	C	0.896893	-0.209451	0.000093
O55	O	0.895869	-0.273754	0.133784
O56	O	0.895862	-0.273740	-0.133640
C57	C	1.031883	0.072355	0.000104
C58	C	1.115896	0.073362	0.000108
C59	C	0.887141	0.180836	0.000067
C60	C	0.888144	0.244058	0.000054
N61	N	0.893456	0.076695	0.206637
N62	N	0.893499	0.076708	-0.206461
C63	C	0.945226	0.037922	0.248368
C64	C	0.945230	0.037922	0.331820
C65	C	0.893467	0.076697	0.373540
C66	C	0.841691	0.115473	0.331803
C67	C	0.841684	0.115470	0.248353
C68	C	0.841718	0.115484	0.668351
C69	C	0.841731	0.115485	0.751807
C70	C	0.945265	0.037935	0.751818
C71	C	0.945258	0.037933	0.668367
C72	C	0.893479	0.076706	0.626638
C73	C	0.893474	0.076705	0.536150
C74	C	0.893475	0.076701	0.464027
H75	H	0.646612	0.174111	0.000038
H76	H	0.987381	0.006349	0.214405
N77	N	0.785889	0.157305	0.796803
H78	H	0.752562	0.135568	0.831441
H79	H	0.814667	0.182489	0.831367
N80	N	0.896855	-0.211816	0.150326
H81	H	0.943385	-0.241147	0.153548
H82	H	0.897274	-0.183953	0.196059
H83	H	0.503413	0.172386	0.000052
H84	H	0.987423	0.006363	0.785803
N85	N	1.001079	-0.003893	0.623365
H86	H	1.034416	0.017837	0.588727
H87	H	1.033825	-0.028449	0.662512
H88	H	0.249333	0.169326	0.000066
H89	H	0.106121	0.167602	0.000077
H90	H	0.892623	-0.477128	-0.203316
N91	N	0.890070	-0.634841	0.150291
H92	H	0.937389	-0.614881	0.153521
H93	H	0.843508	-0.605540	0.153473
H94	H	0.987385	0.006349	0.365797
N95	N	0.785871	0.157298	0.623349
H96	H	0.753083	0.181862	0.662443
H97	H	0.814637	0.182450	0.588706
N98	N	0.693749	-0.027788	0.000101
H99	H	0.684135	-0.050641	-0.049039
H100	H	0.748292	-0.019194	0.000129
H101	H	0.889974	-0.642633	-0.131063
N102	N	0.898829	-0.088346	0.150333
H103	H	0.899505	-0.046208	0.139363
H104	H	0.851732	-0.094046	0.181885
H105	H	0.140335	-0.020706	0.000126
N106	N	0.785854	0.157292	0.376797
H107	H	0.793715	0.151412	0.435995
H108	H	0.794277	0.197687	0.362193
N109	N	0.785842	0.157286	0.203339
H110	H	0.753052	0.181852	0.242430
H111	H	0.814613	0.182437	0.168699
H112	H	0.283535	-0.018983	0.000125
H113	H	0.894266	-0.369438	0.203475
N114	N	0.892429	-0.485048	0.222571
H115	H	0.892864	-0.457219	0.268347
H116	H	0.845107	-0.505008	0.225713
H117	H	0.537611	-0.015918	0.000114
N118	N	0.898857	-0.088278	-0.150098
H119	H	0.945616	-0.103291	-0.181696
H120	H	0.851736	-0.093930	-0.181634
N121	N	0.896893	-0.211751	-0.150126
H122	H	0.897355	-0.183909	-0.195899
H123	H	0.943431	-0.241076	-0.153257
H124	H	0.894356	-0.369380	-0.203307
H125	H	0.888228	-0.750439	0.131176
N126	N	0.888126	-0.758247	-0.150169
H127	H	0.887449	-0.800385	-0.139199
H128	H	0.841369	-0.743175	-0.181734
