data_functionalizedCrystal
_audit_creation_method	'MofGen! by Chris Wilmer'
_symmetry_space_group_name_H-M	'P1'
_symmetry_Int_Tables_number	1
_symmetry_cell_setting	triclinic
loop_
_symmetry_equiv_pos_as_xyz
  x,y,z
_cell_length_a	10.654559
_cell_length_b	19.188930
_cell_length_c	9.130313
_cell_angle_alpha	90.007937
_cell_angle_beta	90.004967
_cell_angle_gamma	83.816733
loop_
_atom_site_label
_atom_site_type_symbol
_atom_site_fract_x
_atom_site_fract_y
_atom_site_fract_z
O1	O	1.665760	0.098091	0.121826
O2	O	2.165760	0.598091	0.621826
O3	O	1.300085	0.107426	0.121829
O4	O	1.800085	0.607426	0.621829
O5	O	1.493475	0.001172	0.121799
O6	O	1.993475	0.501172	0.621799
O7	O	1.472370	0.204345	0.121856
O8	O	1.972370	0.704345	0.621856
O9	O	1.493457	0.001173	-0.121800
O10	O	1.993457	0.501173	0.378200
O11	O	1.300067	0.107427	-0.121770
O12	O	1.800067	0.607427	0.378230
O13	O	1.665741	0.098091	-0.121773
O14	O	2.165741	0.598091	0.378227
Cu15	Cu	1.482902	0.102759	-0.144014
Cu16	Cu	1.982902	0.602759	0.355986
Cu17	Cu	1.482924	0.102758	0.144070
Cu18	Cu	1.982924	0.602758	0.644070
O19	O	1.472351	0.204346	-0.121743
O20	O	1.972351	0.704346	0.378257
C21	C	1.253293	0.106740	0.000029
C22	C	1.753293	0.606740	0.500029
C23	C	1.113894	0.104685	0.000029
C24	C	1.613894	0.604685	0.500029
C25	C	1.063718	0.040193	0.000007
C26	C	1.563718	0.540193	0.500007
C27	C	0.932737	0.038266	0.000017
C28	C	1.432737	0.538266	0.500017
C29	C	0.902116	0.165330	0.000066
C30	C	1.402116	0.665330	0.500066
C31	C	1.033095	0.167256	0.000066
C32	C	1.533095	0.667256	0.500066
C33	C	1.081396	-0.033167	-0.000027
C34	C	1.581396	0.466833	0.499973
C35	C	0.950415	-0.035093	-0.000017
C36	C	1.450415	0.464907	0.499983
C37	C	1.492782	-0.024843	-0.000005
C38	C	1.992782	0.475157	0.499995
C39	C	1.490731	-0.102361	-0.000018
C40	C	1.990731	0.397639	0.499982
C41	C	1.604206	-0.146541	-0.000026
C42	C	2.104206	0.353459	0.499974
C43	C	1.602278	-0.219377	-0.000002
C44	C	2.102278	0.280623	0.499998
C45	C	1.486869	-0.248031	-0.000000
C46	C	1.986869	0.251969	0.500000
C47	C	1.373380	-0.203841	0.000016
C48	C	1.873380	0.296159	0.500016
C49	C	1.375310	-0.131006	0.000007
C50	C	1.875310	0.368994	0.500007
N51	N	1.398647	-0.356614	-0.082901
N52	N	1.898647	0.143386	0.417099
N53	N	1.396820	-0.425805	-0.082895
N54	N	1.896820	0.074195	0.417105
C55	C	1.481045	-0.467478	0.000030
C56	C	1.981045	0.032522	0.500030
N57	N	1.567184	-0.437347	0.082931
N58	N	2.067184	0.062653	0.582931
N59	N	1.569015	-0.368151	0.082919
N60	N	2.069015	0.131849	0.582919
C61	C	1.484763	-0.327007	0.000010
C62	C	1.984763	0.172993	0.500010
C63	C	1.592438	-0.590635	0.000049
C64	C	2.092438	-0.090635	0.500049
C65	C	1.590506	-0.663473	0.000082
C66	C	2.090506	-0.163473	0.500082
C67	C	1.361604	-0.647935	0.000085
C68	C	1.861604	-0.147935	0.500085
C69	C	1.363539	-0.575099	0.000067
C70	C	1.863539	-0.075099	0.500067
C71	C	1.478960	-0.546454	0.000042
C72	C	1.978960	-0.046454	0.500042
C73	C	1.712534	0.098778	0.000030
C74	C	2.212534	0.598778	0.500030
C75	C	1.851933	0.100833	0.000039
C76	C	2.351933	0.600833	0.500039
C77	C	1.473044	0.230361	0.000064
C78	C	1.973044	0.730361	0.500064
C79	C	1.475096	0.307879	0.000086
C80	C	1.975096	0.807879	0.500086
N81	N	1.482896	0.102759	-0.346637
N82	N	1.982896	0.602759	0.153363
C83	C	1.397252	0.149788	-0.423313
C84	C	1.897252	0.649788	0.076687
C85	C	1.397277	0.149787	-0.576650
C86	C	1.897277	0.649787	-0.076650
C87	C	1.568593	0.055722	-0.576621
C88	C	2.068593	0.555722	-0.076621
C89	C	1.568574	0.055727	-0.423287
C90	C	2.068574	0.555727	0.076713
C91	C	1.298340	0.204093	-0.423331
C92	C	1.798340	0.704093	0.076669
C93	C	1.298365	0.204092	-0.576668
C94	C	1.798365	0.704092	-0.076668
N95	N	1.482940	0.102753	0.346692
N96	N	1.982940	0.602753	0.846692
H97	H	1.127499	-0.055329	-0.105216
H98	H	1.627499	0.444671	0.394784
H99	H	1.267636	-0.671264	0.000094
H100	H	1.767636	-0.171264	0.500094
H101	H	1.271136	-0.539127	0.000066
H102	H	1.771136	-0.039127	0.500066
H103	H	0.921645	-0.063779	-0.101971
H104	H	1.421645	0.436221	0.398029
H105	H	1.279413	-0.227176	0.000021
H106	H	1.779413	0.272824	0.500021
H107	H	1.638351	0.017430	-0.639046
H108	H	2.138351	0.517430	-0.139046
H109	H	1.123737	-0.060812	0.101905
H110	H	1.623737	0.439188	0.601905
H111	H	0.915288	-0.058459	0.105158
H112	H	1.415288	0.441541	0.605158
H113	H	0.836315	0.216273	0.000096
H114	H	1.336315	0.716273	0.500096
H115	H	1.282902	-0.095035	0.000013
H116	H	1.782902	0.404965	0.500013
H117	H	1.698190	-0.123223	-0.000041
H118	H	2.198190	0.376777	0.499959
H119	H	1.638323	0.017439	-0.360858
H120	H	2.138323	0.517439	0.139142
H121	H	1.694686	-0.255355	-0.000003
H122	H	2.194686	0.244645	0.499997
H123	H	1.686420	-0.567311	0.000036
H124	H	2.186420	-0.067311	0.500036
H125	H	1.682914	-0.699444	0.000083
H126	H	2.182914	-0.199444	0.500083
H127	H	1.318639	0.257760	-0.381705
H128	H	1.818639	0.757760	0.118295
H129	H	1.207511	0.187088	-0.375798
H130	H	1.707511	0.687088	0.124202
H131	H	1.327814	0.254800	-0.624206
H132	H	1.827814	0.754800	-0.124206
H133	H	1.073941	0.219772	0.000109
H134	H	1.573941	0.719772	0.500109
H135	H	1.202110	0.192129	-0.618312
H136	H	1.702110	0.692129	-0.118312
