data_functionalizedCrystal
_audit_creation_method	'MofGen! by Chris Wilmer'
_symmetry_space_group_name_H-M	'P1'
_symmetry_Int_Tables_number	1
_symmetry_cell_setting	triclinic
loop_
_symmetry_equiv_pos_as_xyz
  x,y,z
_cell_length_a	12.594517
_cell_length_b	12.594516
_cell_length_c	12.759393
_cell_angle_alpha	89.971950
_cell_angle_beta	89.983965
_cell_angle_gamma	90.016010
loop_
_atom_site_label
_atom_site_type_symbol
_atom_site_fract_x
_atom_site_fract_y
_atom_site_fract_z
Zn1	Zn	1.627285	-0.423692	-0.593901
Zn2	Zn	1.627171	-0.601708	-0.418228
Zn3	Zn	1.449284	-0.423744	-0.418251
Zn4	Zn	1.449271	-0.601629	-0.593880
O5	O	1.538253	-0.512693	-0.506065
O6	O	1.776216	-0.447318	-0.570596
O7	O	1.603531	-0.578155	-0.271210
O8	O	1.472949	-0.274791	-0.441569
O9	O	1.776131	-0.578105	-0.441530
O10	O	1.603726	-0.274753	-0.570618
O11	O	1.472838	-0.447406	-0.271227
O12	O	1.300336	-0.447329	-0.441549
O13	O	1.472928	-0.577970	-0.740904
O14	O	1.300327	-0.578020	-0.570584
O15	O	1.603714	-0.447241	-0.740919
O16	O	1.603519	-0.750643	-0.441511
O17	O	1.472817	-0.750585	-0.570562
C18	C	1.261712	-0.512672	-0.506067
C19	C	1.143406	-0.512689	-0.506093
C20	C	1.538183	-0.789234	-0.506055
C21	C	1.538250	-0.907539	-0.506085
C22	C	1.003415	-0.583901	-0.576145
C23	C	1.074183	-0.609812	-0.480260
C24	C	1.074210	-0.486826	-0.601968
C25	C	1.003388	-0.538685	-0.410126
C26	C	1.003409	-0.415654	-0.531899
C27	C	1.074145	-0.441527	-0.435948
C28	C	1.467155	-0.976800	-0.576227
C29	C	1.441218	-1.047668	-0.480362
C30	C	1.564284	-1.047470	-0.601967
C31	C	1.512263	-0.976850	-0.410170
C32	C	1.635373	-0.976645	-0.531839
C33	C	1.609474	-1.047482	-0.435908
C34	C	1.815873	-0.512714	-0.506063
C35	C	1.934179	-0.512724	-0.506062
C36	C	1.538332	-0.512591	-0.780098
C37	C	1.538366	-0.512547	-0.896875
C38	C	1.538352	-0.235072	-0.506098
C39	C	1.538394	-0.116767	-0.506112
C40	C	1.606472	-0.444466	-0.951746
C41	C	1.606490	-0.444420	-1.061471
C42	C	1.470294	-0.580546	-1.061442
C43	C	1.470271	-0.580586	-0.951720
C44	C	1.644597	-0.318841	-1.211440
C45	C	1.712719	-0.250769	-1.266315
C46	C	1.816574	-0.234451	-1.230714
C47	C	1.852329	-0.286220	-1.140240
C48	C	1.784212	-0.354300	-1.085371
C49	C	1.680342	-0.370598	-1.120970
C50	C	1.432175	-0.706166	-0.801749
C51	C	1.364063	-0.774252	-0.746877
C52	C	1.260206	-0.790582	-0.782476
C53	C	1.224455	-0.738831	-0.872954
C54	C	1.292567	-0.670745	-0.927825
C55	C	1.396423	-0.654414	-0.892219
C56	C	1.538234	-0.512718	-0.233098
C57	C	1.538407	-0.512462	-0.116321
H58	H	0.972359	-0.644154	-0.635324
H59	H	1.359150	-1.078888	-0.458601
O60	O	1.485916	-0.939826	-0.313494
C61	C	1.456347	-0.786092	-0.205005
C62	C	1.486177	-0.827879	-0.314539
H63	H	1.456570	-0.695578	-0.205807
H64	H	1.373845	-0.815904	-0.182902
H65	H	1.516620	-0.815870	-0.145187
H66	H	1.425975	-0.798118	-0.374429
H67	H	1.568706	-0.798076	-0.336553
H68	H	1.105319	-0.464935	-0.683062
H69	H	1.669658	-1.078322	-0.376535
H70	H	1.661916	-0.389061	-0.907095
O71	O	1.111226	-0.707789	-0.454365
C72	C	1.117156	-0.893608	-0.498880
C73	C	1.075165	-0.782703	-0.528332
H74	H	1.088000	-0.954209	-0.558653
H75	H	1.207668	-0.892520	-0.498440
H76	H	1.086827	-0.916207	-0.417684
H77	H	1.105415	-0.760036	-0.609533
H78	H	0.984655	-0.783850	-0.528699
O79	O	1.733306	-0.939573	-0.557913
C80	C	1.912826	-0.983693	-0.606578
C81	C	1.801962	-1.025821	-0.577072
H82	H	1.968371	-1.053403	-0.622055
H83	H	1.906727	-0.932606	-0.680113
H84	H	1.945472	-0.933868	-0.539331
H85	H	1.769251	-1.075691	-0.644251
H86	H	1.808127	-1.076850	-0.503504
O87	O	1.953274	-0.270557	-1.105736
C88	C	2.122166	-0.350377	-1.065011
C89	C	2.007879	-0.368261	-1.104123
H90	H	2.166341	-0.429360	-1.063673
H91	H	2.164778	-0.292886	-1.119777
H92	H	2.119961	-0.315646	-0.982547
H93	H	2.009988	-0.403027	-1.186571
H94	H	1.965313	-0.425715	-1.049285
H95	H	1.586245	-1.078491	-0.683042
H96	H	1.516742	-0.692868	-0.772750
O97	O	1.395227	-0.939942	-0.646900
C98	C	1.262854	-0.984458	-0.775939
C99	C	1.344257	-1.026343	-0.695928
H100	H	1.221638	-1.054292	-0.815616
H101	H	1.201301	-0.933533	-0.733955
H102	H	1.305421	-0.934529	-0.837536
H103	H	1.301782	-1.076318	-0.634310
H104	H	1.405805	-1.077210	-0.737986
H105	H	1.813324	-0.396453	-1.011712
H106	H	1.414856	-0.635943	-1.106111
H107	H	1.872039	-0.179024	-1.275401
O108	O	1.678095	-0.200598	-1.354303
C109	C	1.702752	-0.173447	-1.539677
C110	C	1.742048	-0.230347	-1.440115
H111	H	1.754453	-0.197460	-1.609077
H112	H	1.616834	-0.196806	-1.555780
H113	H	1.707917	-0.083878	-1.527859
H114	H	1.736953	-0.319926	-1.451858
H115	H	1.827947	-0.206900	-1.424043
H116	H	0.972410	-0.560674	-0.329010
O117	O	1.543638	-0.334577	-1.245874
C118	C	1.356967	-0.320588	-1.206802
C119	C	1.471248	-0.302688	-1.167679
H120	H	1.298409	-0.294836	-1.143593
H121	H	1.343040	-0.271872	-1.280859
H122	H	1.344854	-0.408392	-1.224897
H123	H	1.483441	-0.214912	-1.149523
H124	H	1.485121	-0.351472	-1.093657
O125	O	1.257657	-0.620517	-1.015670
C126	C	1.112020	-0.592614	-1.134975
C127	C	1.151408	-0.649542	-1.035464
H128	H	1.026122	-0.616077	-1.151022
H129	H	1.117115	-0.503029	-1.123237
H130	H	1.163701	-0.616649	-1.204383
H131	H	1.099759	-0.625594	-0.966008
H132	H	1.146337	-0.739115	-1.047290
O133	O	1.110843	-0.369569	-0.365249
C134	C	1.114965	-0.186192	-0.311613
C135	C	1.073309	-0.267568	-0.391741
H136	H	1.084655	-0.103703	-0.333016
H137	H	1.085677	-0.208363	-0.229931
H138	H	1.205477	-0.186263	-0.312611
H139	H	0.982800	-0.267540	-0.390837
H140	H	1.102679	-0.245368	-0.473386
O141	O	1.123521	-0.754771	-0.907373
C142	C	0.956743	-0.844012	-0.878754
C143	C	1.071015	-0.826027	-0.839646
H144	H	0.914265	-0.901639	-0.824028
H145	H	0.912418	-0.765110	-0.879991
H146	H	0.958974	-0.878657	-0.961252
H147	H	1.068881	-0.791416	-0.757135
H148	H	1.115293	-0.904955	-0.838486
H149	H	0.972298	-0.333602	-0.553774
O150	O	1.398627	-0.824470	-0.658893
C151	C	1.374035	-0.851498	-0.473494
C152	C	1.334767	-0.794585	-0.573060
H153	H	1.322437	-0.827340	-0.404068
H154	H	1.368823	-0.941084	-0.485173
H155	H	1.459978	-0.828145	-0.457521
H156	H	1.248816	-0.817850	-0.589089
H157	H	1.340058	-0.705011	-0.561331
H158	H	1.204754	-0.846033	-0.737795
