data_functionalizedCrystal
_audit_creation_method	'MofGen! by Chris Wilmer'
_symmetry_space_group_name_H-M	'P1'
_symmetry_Int_Tables_number	1
_symmetry_cell_setting	triclinic
loop_
_symmetry_equiv_pos_as_xyz
  x,y,z
_cell_length_a	16.625548
_cell_length_b	16.625539
_cell_length_c	18.215405
_cell_angle_alpha	89.970092
_cell_angle_beta	90.025953
_cell_angle_gamma	89.982945
loop_
_atom_site_label
_atom_site_type_symbol
_atom_site_fract_x
_atom_site_fract_y
_atom_site_fract_z
Zn1	Zn	1.232639	-0.455890	-0.292976
Zn2	Zn	1.232545	-0.321049	-0.416045
Zn3	Zn	1.097809	-0.321070	-0.293000
Zn4	Zn	1.097766	-0.455839	-0.416007
O5	O	1.165190	-0.388462	-0.354507
O6	O	1.345459	-0.438015	-0.309307
O7	O	1.214651	-0.208219	-0.399749
O8	O	1.115752	-0.338985	-0.190012
O9	O	1.345390	-0.338948	-0.399726
O10	O	1.214811	-0.438036	-0.189994
O11	O	1.115661	-0.208235	-0.309348
O12	O	0.984971	-0.338935	-0.309311
O13	O	1.115678	-0.568678	-0.399661
O14	O	0.984939	-0.437949	-0.399684
O15	O	1.214769	-0.568716	-0.309270
O16	O	1.214608	-0.338899	-0.519025
O17	O	1.115587	-0.437928	-0.518997
C18	C	0.955699	-0.388440	-0.354496
C19	C	0.866078	-0.388449	-0.354510
C20	C	0.537902	-0.388483	-0.354514
C21	C	0.629210	-0.388471	-0.354511
C22	C	0.701987	-0.388466	-0.354512
C23	C	0.793301	-0.388455	-0.354508
C24	C	1.165229	-0.598771	-0.354458
C25	C	1.165246	-0.688392	-0.354438
C26	C	1.165259	-0.761175	-0.354421
C27	C	1.165278	-0.852483	-0.354394
C28	C	1.165297	-0.925260	-0.354368
C29	C	1.165317	-1.016574	-0.354341
C30	C	1.375498	-0.388485	-0.354518
C31	C	1.465120	-0.388495	-0.354523
C32	C	1.165104	-0.388423	-0.545713
C33	C	1.165142	-0.388434	-0.627512
C34	C	1.165197	-0.178971	-0.354502
C35	C	1.165336	-0.089351	-0.354316
C36	C	1.216823	-0.336964	-0.815696
C37	C	1.216859	-0.336983	-0.892555
C38	C	1.113659	-0.440018	-0.892566
C39	C	1.113627	-0.440002	-0.815708
C40	C	1.165209	-0.388470	-0.777276
C41	C	1.165276	-0.388506	-0.930992
C42	C	1.165315	-0.388528	-1.014325
C43	C	1.165171	-0.388450	-0.693937
C44	C	1.165297	-0.388519	-0.162554
C45	C	1.165343	-0.388543	-0.080755
H46	H	1.258825	-0.295005	-0.784406
H47	H	1.258891	-0.295043	-0.923834
F48	F	1.058764	-0.494857	-0.933475
H49	H	1.071596	-0.481949	-0.784424
