data_functionalizedCrystal
_audit_creation_method	'MofGen! by Chris Wilmer'
_symmetry_space_group_name_H-M	'P1'
_symmetry_Int_Tables_number	1
_symmetry_cell_setting	triclinic
loop_
_symmetry_equiv_pos_as_xyz
  x,y,z
_cell_length_a	18.215407
_cell_length_b	18.050589
_cell_length_c	18.215399
_cell_angle_alpha	89.973988
_cell_angle_beta	89.983176
_cell_angle_gamma	90.028669
loop_
_atom_site_label
_atom_site_type_symbol
_atom_site_fract_x
_atom_site_fract_y
_atom_site_fract_z
Zn1	Zn	1.125033	-0.295641	-0.416138
Zn2	Zn	1.124941	-0.419841	-0.293081
Zn3	Zn	1.001972	-0.295670	-0.293085
Zn4	Zn	1.001924	-0.419794	-0.416106
O5	O	1.063468	-0.357736	-0.354603
O6	O	1.228005	-0.312123	-0.399826
O7	O	1.108610	-0.403401	-0.190097
O8	O	1.018355	-0.191742	-0.309424
O9	O	1.227937	-0.403372	-0.309417
O10	O	1.108767	-0.191720	-0.399830
O11	O	1.018265	-0.312173	-0.190101
O12	O	0.898981	-0.312128	-0.309393
O13	O	1.018274	-0.403293	-0.519095
O14	O	0.898946	-0.403322	-0.399775
O15	O	1.108721	-0.312078	-0.519118
O16	O	1.108564	-0.523759	-0.309385
O17	O	1.018184	-0.523725	-0.399771
C18	C	0.872261	-0.357724	-0.354582
C19	C	0.790462	-0.357736	-0.354590
C20	C	1.063379	-0.550689	-0.354590
C21	C	1.063408	-0.633234	-0.354610
C22	C	0.602269	-0.405295	-0.401593
C23	C	0.525411	-0.405298	-0.401602
C24	C	0.525418	-0.310191	-0.307628
C25	C	0.602275	-0.310185	-0.307623
C26	C	0.640699	-0.357742	-0.354605
C27	C	0.486983	-0.357750	-0.354619
C28	C	0.403649	-0.357752	-0.354628
C29	C	0.724038	-0.357739	-0.354596
C30	C	1.014308	-0.832693	-0.403744
C31	C	0.996372	-0.882137	-0.336590
C32	C	1.063480	-0.784365	-0.354619
C33	C	1.081453	-0.882003	-0.421781
C34	C	1.063549	-0.930350	-0.354635
C35	C	1.045509	-0.832721	-0.287430
C36	C	1.130621	-0.832583	-0.372666
C37	C	1.112710	-0.882004	-0.305466
C38	C	1.063439	-0.700266	-0.354612
C39	C	1.063590	-1.014446	-0.354635
C40	C	1.255420	-0.357750	-0.354624
C41	C	1.337219	-0.357755	-0.354634
C42	C	1.063502	-0.357677	-0.546556
C43	C	1.063517	-0.357652	-0.628355
C44	C	1.063577	-0.164031	-0.354631
C45	C	1.063623	-0.081485	-0.354643
C46	C	1.016515	-0.310117	-0.816551
C47	C	1.016527	-0.310103	-0.893410
C48	C	1.110608	-0.405098	-0.893396
C49	C	1.110591	-0.405116	-0.816539
C50	C	1.063545	-0.357621	-0.778118
C51	C	1.063575	-0.357588	-0.931834
C52	C	1.063589	-0.357572	-1.015168
C53	C	1.063530	-0.357638	-0.694779
C54	C	1.063475	-0.357742	-0.163396
C55	C	1.063603	-0.357558	-0.081598
H56	H	0.494125	-0.444019	-0.439866
H57	H	0.633552	-0.444017	-0.439850
H58	H	1.030269	-0.811162	-0.230622
H59	H	0.494124	-0.271473	-0.269377
C60	C	0.644550	-0.257875	-0.255932
H61	H	0.610660	-0.229561	-0.227945
H62	H	0.674557	-0.225551	-0.284136
H63	H	0.674508	-0.286249	-0.223817
C64	C	1.168923	-0.911078	-0.249292
H65	H	1.156060	-0.894113	-0.201631
H66	H	1.216450	-0.893361	-0.261699
H67	H	1.168924	-0.963704	-0.249881
C68	C	0.964797	-0.257845	-0.935683
H69	H	0.936782	-0.229560	-0.901791
H70	H	0.932720	-0.286242	-0.965656
H71	H	0.992978	-0.225479	-0.965674
H72	H	1.148911	-0.443765	-0.924687
C73	C	0.958054	-0.803435	-0.459784
H74	H	0.910396	-0.820405	-0.446844
H75	H	0.970329	-0.821033	-0.507368
H76	H	0.958725	-0.750809	-0.459699
H77	H	1.148891	-0.443802	-0.785246
C78	C	0.919711	-0.911544	-0.315972
H79	H	0.884804	-0.894666	-0.350918
H80	H	0.906629	-0.893946	-0.268604
H81	H	0.920404	-0.964169	-0.315692
H82	H	1.187355	-0.810802	-0.387948
C83	C	1.101955	-0.911246	-0.498500
H84	H	1.066945	-0.894353	-0.533335
H85	H	1.102274	-0.963867	-0.497850
H86	H	1.149292	-0.893543	-0.511650
H87	H	0.978207	-0.271445	-0.785272
