data_functionalizedCrystal
_audit_creation_method	'MofGen! by Chris Wilmer'
_symmetry_space_group_name_H-M	'P1'
_symmetry_Int_Tables_number	1
_symmetry_cell_setting	triclinic
loop_
_symmetry_equiv_pos_as_xyz
  x,y,z
_cell_length_a	17.699083
_cell_length_b	10.540539
_cell_length_c	16.776229
_cell_angle_alpha	89.995514
_cell_angle_beta	89.998886
_cell_angle_gamma	83.904253
loop_
_atom_site_label
_atom_site_type_symbol
_atom_site_fract_x
_atom_site_fract_y
_atom_site_fract_z
O1	O	1.005122	0.160520	-0.066173
O2	O	0.784880	0.181404	-0.066198
O3	O	0.900026	-0.013836	-0.066184
O4	O	0.889976	0.355761	-0.066187
O5	O	0.900010	-0.013848	0.066393
O6	O	0.784864	0.181392	0.066378
O7	O	1.005107	0.160508	0.066404
Zn8	Zn	0.894983	0.170948	0.087440
Zn9	Zn	0.895003	0.170964	-0.087235
O10	O	0.889961	0.355749	0.066389
C11	C	0.756670	0.180650	0.000087
C12	C	0.672637	0.178405	0.000077
C13	C	0.899264	-0.061131	0.000103
C14	C	0.897009	-0.202038	0.000098
C15	C	0.624761	0.293007	0.000076
C16	C	0.545804	0.290890	0.000086
C17	C	0.514725	0.174170	0.000092
C18	C	0.562607	0.059559	0.000095
C19	C	0.641562	0.061677	0.000090
C20	C	0.244188	0.051014	0.000115
C21	C	0.165226	0.048904	0.000117
C22	C	0.148430	0.280227	0.000111
C23	C	0.227386	0.282345	0.000106
C24	C	0.275261	0.167735	0.000113
C25	C	0.360875	0.170032	0.000104
C26	C	0.429112	0.171872	0.000096
C27	C	0.810610	-0.383885	-0.000209
C28	C	0.812896	-0.237308	0.000089
C29	C	0.937480	-0.264443	0.075811
C30	C	0.934609	-0.410935	0.075874
C31	C	0.936337	-0.411471	-0.074890
C32	C	0.937112	-0.264503	-0.075891
C33	C	1.033316	0.161263	0.000117
C34	C	1.117349	0.163508	0.000122
C35	C	0.890722	0.403044	0.000101
C36	C	0.892977	0.543951	0.000100
N37	N	0.894974	0.170937	0.206652
N38	N	0.895018	0.170966	-0.206446
C39	C	0.945977	0.084520	0.248375
C40	C	0.945981	0.084519	0.331827
C41	C	0.894986	0.170942	0.373555
C42	C	0.843978	0.257363	0.331825
C43	C	0.843971	0.257357	0.248375
C44	C	0.844005	0.257388	0.668372
C45	C	0.844018	0.257390	0.751829
C46	C	0.946016	0.084550	0.751825
C47	C	0.946009	0.084544	0.668374
C48	C	0.894998	0.170960	0.626652
C49	C	0.894993	0.170958	0.536164
C50	C	0.894994	0.170950	0.464041
H51	H	0.506826	0.384211	0.000085
H52	H	0.997092	-0.459808	-0.075392
C53	C	0.634738	0.490844	-0.068080
C54	C	0.658917	0.421314	0.000070
H55	H	0.655820	0.570061	-0.068079
H56	H	0.651133	0.443675	-0.114305
H57	H	0.580862	0.505968	-0.068068
H58	H	0.712793	0.406182	0.000054
H59	H	0.642527	0.468494	0.046306
H60	H	0.777513	-0.413492	0.053774
C61	C	0.991280	0.007770	0.459750
C62	C	1.002045	-0.010473	0.377691
H63	H	1.025890	-0.050884	0.488062
H64	H	0.999955	0.092460	0.473417
H65	H	0.940696	-0.005916	0.473423
H66	H	1.052628	0.003223	0.364017
H67	H	0.993376	-0.095183	0.364018
H68	H	0.802438	0.327725	0.214404
H69	H	0.907500	-0.223098	-0.131901
C70	C	0.943593	-0.533286	0.196875
C71	C	0.894206	-0.448282	0.152260
H72	H	0.918647	-0.556330	0.244034
H73	H	0.958105	-0.607576	0.166151
H74	H	0.987516	-0.493590	0.210708
H75	H	0.850285	-0.487982	0.138422
H76	H	0.879683	-0.373979	0.182990
H77	H	0.987536	0.014174	0.634403
H78	H	0.252686	0.377390	0.000098
H79	H	0.680543	-0.031644	0.000090
C80	C	0.109796	0.476753	-0.068050
C81	C	0.095802	0.406211	0.000109
H82	H	0.077303	0.554523	-0.068054
H83	H	0.161260	0.494712	-0.068049
H84	H	0.100301	0.428867	-0.114273
H85	H	0.105302	0.454094	0.046332
H86	H	0.044325	0.388255	0.000116
H87	H	0.802489	0.327768	0.785802
C88	C	0.771436	-0.047665	0.074102
C89	C	0.769594	-0.180140	0.073471
H90	H	0.744698	-0.012375	0.119406
H91	H	0.822684	-0.028774	0.076330
H92	H	0.748161	-0.012003	0.027004
H93	H	0.792873	-0.215804	0.120567
H94	H	0.718335	-0.199042	0.071250
H95	H	0.987506	0.014150	0.214406
H96	H	0.139925	-0.046149	0.000122
H97	H	0.987549	0.014181	0.785804
H98	H	0.781051	-0.194118	-0.054185
H99	H	0.283159	-0.042309	0.000121
H100	H	0.537295	-0.035477	0.000111
C101	C	0.811576	-0.510312	-0.119318
C102	C	0.765754	-0.421675	-0.073498
H103	H	0.783880	-0.533654	-0.164561
H104	H	0.855526	-0.473408	-0.136336
H105	H	0.826388	-0.583998	-0.088132
H106	H	0.750946	-0.347985	-0.104683
H107	H	0.721790	-0.458578	-0.056481
C108	C	0.743190	0.428246	0.676770
C109	C	0.787942	0.352385	0.622519
H110	H	0.708581	0.486901	0.648458
H111	H	0.715689	0.375467	0.709325
H112	H	0.774953	0.473835	0.709312
H113	H	0.756180	0.306789	0.589981
H114	H	0.815445	0.405172	0.589950
C115	C	1.067558	-0.384876	0.083261
C116	C	1.016268	-0.477194	0.080535
H117	H	1.117968	-0.425781	0.086146
H118	H	1.062107	-0.333725	0.036581
H119	H	1.057388	-0.332528	0.128913
H120	H	1.026434	-0.529537	0.034879
H121	H	1.021722	-0.528368	0.127220
C122	C	0.936203	-0.262845	0.218925
C123	C	0.899513	-0.206263	0.151867
H124	H	0.912763	-0.226921	0.265876
H125	H	0.932542	-0.352087	0.218137
H126	H	0.988188	-0.247879	0.218245
H127	H	0.847529	-0.221238	0.152544
H128	H	0.903167	-0.117001	0.152655
C129	C	1.036504	-0.157050	-0.017373
C130	C	1.019903	-0.233333	-0.082055
H131	H	1.087620	-0.137818	-0.021173
H132	H	1.003318	-0.080078	-0.018021
H133	H	1.029844	-0.201534	0.030942
H134	H	1.026558	-0.188846	-0.130370
H135	H	1.053099	-0.310318	-0.081415
H136	H	0.802453	0.327726	0.365804
H137	H	0.999250	-0.243219	0.078633
H138	H	0.909121	-0.442521	-0.132275
