data_functionalizedCrystal
_audit_creation_method	'MofGen! by Chris Wilmer'
_symmetry_space_group_name_H-M	'P1'
_symmetry_Int_Tables_number	1
_symmetry_cell_setting	triclinic
loop_
_symmetry_equiv_pos_as_xyz
  x,y,z
_cell_length_a	10.723024
_cell_length_b	15.944551
_cell_length_c	9.798715
_cell_angle_alpha	89.995900
_cell_angle_beta	89.996609
_cell_angle_gamma	83.983304
loop_
_atom_site_label
_atom_site_type_symbol
_atom_site_fract_x
_atom_site_fract_y
_atom_site_fract_z
O1	O	1.655699	0.117808	-0.113485
O2	O	1.292404	0.129085	-0.113490
O3	O	1.483972	0.001228	-0.113475
O4	O	1.464131	0.245664	-0.113500
O5	O	1.483958	0.001228	0.113507
O6	O	1.292390	0.129084	0.113492
O7	O	1.655685	0.117808	0.113497
Zn8	Zn	1.474035	0.123446	0.149533
Zn9	Zn	1.474054	0.123446	-0.149526
O10	O	1.464116	0.245664	0.113482
C11	C	1.245908	0.128264	0.000000
C12	C	1.107384	0.125809	-0.000001
C13	C	1.031498	0.197350	-0.000009
C14	C	0.888327	0.194814	-0.000011
C15	C	1.483141	-0.030070	0.000016
C16	C	1.480672	-0.123331	0.000017
C17	C	1.356026	-0.338901	-0.000004
C18	C	1.413901	-0.399587	0.111913
C19	C	1.476205	-0.294082	0.000006
C20	C	1.413943	-0.399570	-0.111874
C21	C	1.471880	-0.459020	-0.000010
C22	C	1.534112	-0.353540	0.112015
C23	C	1.534137	-0.353517	-0.111872
C24	C	1.592099	-0.414184	0.000072
C25	C	1.478692	-0.199066	0.000016
C26	C	1.469402	-0.554035	-0.000011
C27	C	1.702181	0.118629	0.000003
C28	C	1.840704	0.121084	-0.000004
C29	C	1.464947	0.276963	-0.000012
C30	C	1.467417	0.370223	-0.000022
N31	N	1.474031	0.123445	0.353632
N32	N	1.474067	0.123441	-0.353626
C33	C	1.554469	0.069525	0.421415
C34	C	1.554489	0.069522	0.578578
H35	H	1.066360	0.062682	-0.000030
C36	C	1.381012	0.185810	0.432404
C37	C	1.383484	0.281454	0.412882
C38	C	1.290462	0.343821	0.491650
C39	C	1.194968	0.310543	0.589940
C40	C	1.192493	0.214893	0.609467
C41	C	1.285515	0.152526	0.530699
H42	H	1.454178	0.306093	0.340118
H43	H	1.292295	0.414627	0.477195
H44	H	1.126108	0.356710	0.648249
H45	H	1.121799	0.190254	0.682231
H46	H	1.283682	0.081720	0.545154
H47	H	0.823120	0.256060	-0.000024
H48	H	1.623316	0.023361	0.363098
C49	C	1.221272	-0.294668	0.000137
C50	C	1.131861	-0.309424	0.118700
C51	C	0.997111	-0.265190	0.118848
C52	C	0.951773	-0.206201	0.000433
C53	C	1.041186	-0.191443	-0.118139
C54	C	1.175935	-0.235676	-0.118287
H55	H	1.165422	-0.353093	0.206366
H56	H	0.930922	-0.276115	0.206624
H57	H	0.852023	-0.173456	0.000543
H58	H	1.007625	-0.147773	-0.205805
H59	H	1.242124	-0.224751	-0.206063
H60	H	1.363103	-0.419938	-0.206497
C61	C	1.086910	0.282634	-0.000027
C62	C	1.172353	0.305167	0.117830
C63	C	1.227763	0.390453	0.117808
C64	C	1.197730	0.453207	-0.000071
C65	C	1.112282	0.430676	-0.117937
C66	C	1.056872	0.345390	-0.117915
H67	H	1.194590	0.258711	0.205100
H68	H	1.291018	0.407131	0.205061
H69	H	1.238747	0.516341	-0.000087
H70	H	1.090045	0.477132	-0.205206
H71	H	0.993617	0.328712	-0.205168
H72	H	1.363064	-0.419986	0.206528
C73	C	0.928776	0.038336	0.000005
C74	C	0.923259	-0.025053	0.117877
C75	C	1.011341	-0.107800	0.117886
C76	C	1.104940	-0.127159	0.000024
C77	C	1.110461	-0.063769	-0.117857
C78	C	1.022379	0.018979	-0.117866
H79	H	0.853968	-0.010724	0.205134
H80	H	1.007254	-0.154726	0.205150
H81	H	1.170144	-0.188414	0.000031
H82	H	1.179752	-0.078098	-0.205114
H83	H	1.026466	0.065904	-0.205130
C84	C	1.602710	-0.326150	0.239984
C85	C	1.617666	-0.232253	0.263670
C86	C	1.686258	-0.204861	0.391638
C87	C	1.739894	-0.271365	0.495921
C88	C	1.724939	-0.365267	0.472238
C89	C	1.656348	-0.392660	0.344269
H90	H	1.577961	-0.183018	0.186471
H91	H	1.697328	-0.135348	0.409169
H92	H	1.790670	-0.251087	0.590650
H93	H	1.764645	-0.414503	0.549436
H94	H	1.645278	-0.462173	0.326738
H95	H	1.623359	0.023362	0.636869
C96	C	1.726973	-0.458213	0.000149
C97	C	1.816372	-0.443283	0.118626
C98	C	1.951244	-0.487312	0.118708
C99	C	1.996718	-0.546270	0.000313
C100	C	1.907318	-0.561203	-0.118174
C101	C	1.772446	-0.517175	-0.118256
H102	H	1.782710	-0.399636	0.206278
H103	H	2.017424	-0.476257	0.206421
H104	H	2.096559	-0.578863	0.000374
H105	H	1.940980	-0.604851	-0.205825
H106	H	1.706266	-0.528229	-0.205968
H107	H	1.584930	-0.333095	-0.206492
H108	H	1.405203	0.169609	0.588092
