data_functionalizedCrystal
_audit_creation_method	'MofGen! by Chris Wilmer'
_symmetry_space_group_name_H-M	'P1'
_symmetry_Int_Tables_number	1
_symmetry_cell_setting	triclinic
loop_
_symmetry_equiv_pos_as_xyz
  x,y,z
_cell_length_a	11.792241
_cell_length_b	13.339070
_cell_length_c	12.376457
_cell_angle_alpha	104.410245
_cell_angle_beta	101.354533
_cell_angle_gamma	80.088645
loop_
_atom_site_label
_atom_site_type_symbol
_atom_site_fract_x
_atom_site_fract_y
_atom_site_fract_z
O1	O	0.554298	-1.364732	-0.094048
O2	O	0.479486	-1.069793	-0.094041
O3	O	0.353927	-1.224419	-0.094037
O4	O	0.679857	-1.210107	-0.094053
O5	O	0.385262	-1.185776	0.093974
O6	O	0.510821	-1.031151	0.093970
O7	O	0.585633	-1.326090	0.093963
Zn8	Zn	0.553202	-1.172485	0.123817
Zn9	Zn	0.511917	-1.223398	-0.123896
O10	O	0.711191	-1.171464	0.093958
C11	C	0.482516	-1.012713	-0.000035
C12	C	0.444848	-0.900204	-0.000032
C13	C	0.327027	-1.204198	-0.000032
C14	C	0.200184	-1.201507	-0.000033
N15	N	0.581379	-1.137745	0.292874
C16	C	-0.032056	-1.196562	-0.000052
C17	C	0.097178	-1.199310	-0.000042
C18	C	0.738092	-1.191685	-0.000049
C19	C	0.864933	-1.194378	-0.000056
C20	C	0.582602	-1.383170	-0.000046
C21	C	0.620269	-1.495681	-0.000057
C22	C	0.737736	-0.537024	-0.000064
C23	C	0.773131	-0.642733	-0.000070
C24	C	0.691063	-0.707105	-0.000060
C25	C	0.573595	-0.665760	-0.000045
C26	C	0.538195	-0.560044	-0.000047
C27	C	0.491522	-0.730125	-0.000044
C28	C	0.374054	-0.688780	-0.000028
C29	C	0.338661	-0.583073	-0.000030
C30	C	0.420728	-0.518700	-0.000040
C31	C	0.526922	-0.835841	-0.000041
C32	C	0.327381	-0.858861	-0.000025
C33	C	0.291986	-0.753152	-0.000018
N34	N	0.483733	-1.258146	-0.292953
C35	C	0.418302	-1.338788	0.647865
C36	C	0.398579	-1.363097	0.529526
C37	C	0.444277	-1.306760	0.470357
C38	C	0.509702	-1.226112	0.529539
C39	C	0.529435	-1.201806	0.647890
C40	C	0.555410	-1.169779	0.470382
C41	C	0.620835	-1.089130	0.529564
C42	C	0.640564	-1.064828	0.647903
C43	C	0.594866	-1.121164	0.707072
C44	C	0.535677	-1.194085	0.352031
C45	C	0.646810	-1.057103	0.352056
C46	C	0.666533	-1.032794	0.470396
H47	H	0.622565	-0.869493	-0.000049
H48	H	0.693848	-0.999168	0.696090
H49	H	0.610920	-1.101370	0.803434
H50	H	0.391916	-0.432622	-0.000035
H51	H	0.381108	-1.384655	0.696048
H52	H	0.482408	-1.259749	0.303856
H53	H	0.719805	-0.967129	0.518596
Cl54	Cl	0.920797	-0.694703	-0.000094
Cl55	Cl	0.735562	-0.839996	-0.000064
H56	H	0.260553	-0.911274	-0.000021
Cl57	Cl	0.840889	-0.456100	-0.000094
H58	H	0.243008	-0.549416	-0.000030
H59	H	0.684024	-1.011231	0.303882
H60	H	0.196340	-0.719476	-0.000015
H61	H	0.345312	-1.428760	0.481344
Cl62	Cl	0.419477	-1.337318	0.321586
