data_functionalizedCrystal
_audit_creation_method	'MofGen! by Chris Wilmer'
_symmetry_space_group_name_H-M	'P1'
_symmetry_Int_Tables_number	1
_symmetry_cell_setting	triclinic
loop_
_symmetry_equiv_pos_as_xyz
  x,y,z
_cell_length_a	13.033293
_cell_length_b	19.121111
_cell_length_c	13.032268
_cell_angle_alpha	80.750656
_cell_angle_beta	89.079182
_cell_angle_gamma	80.076709
loop_
_atom_site_label
_atom_site_type_symbol
_atom_site_fract_x
_atom_site_fract_y
_atom_site_fract_z
Zn1	Zn	1.482851	0.220867	-0.793494
Zn2	Zn	1.982851	0.720867	-0.293494
Zn3	Zn	1.497382	0.322887	-0.627070
Zn4	Zn	1.997382	0.822887	-0.127070
Zn5	Zn	1.332976	0.217118	-0.599466
Zn6	Zn	1.832976	0.717118	-0.099466
Zn7	Zn	1.301541	0.352481	-0.778719
Zn8	Zn	1.801541	0.852481	-0.278719
O9	O	1.403688	0.278338	-0.699688
O10	O	1.903688	0.778338	-0.199688
O11	O	1.629462	0.223584	-0.789154
O12	O	2.129462	0.723584	-0.289154
O13	O	1.494811	0.294902	-0.478741
O14	O	1.994811	0.794902	0.021259
O15	O	1.359931	0.118270	-0.619836
O16	O	1.859931	0.618270	-0.119836
O17	O	1.640138	0.298537	-0.666882
O18	O	2.140138	0.798537	-0.166882
O19	O	1.470043	0.121024	-0.762387
O20	O	1.970043	0.621024	-0.262387
O21	O	1.374022	0.217194	-0.458461
O22	O	1.874022	0.717194	0.041539
O23	O	1.184123	0.245891	-0.605509
O24	O	1.684123	0.745891	-0.105509
O25	O	1.306355	0.348977	-0.925347
O26	O	1.806355	0.848977	-0.425347
O27	O	1.161028	0.345342	-0.737206
O28	O	1.661028	0.845342	-0.237206
O29	O	1.439563	0.252280	-0.936202
O30	O	1.939563	0.752280	-0.436202
O31	O	1.464330	0.426159	-0.652555
O32	O	1.964330	0.926159	-0.152555
O33	O	1.320446	0.447901	-0.763972
O34	O	1.820446	0.947901	-0.263972
C35	C	1.135060	0.298421	-0.666759
C36	C	1.635060	0.798421	-0.166759
C37	C	1.020136	0.307032	-0.652698
C38	C	1.520136	0.807032	-0.152698
C39	C	0.963599	0.273862	-0.707027
C40	C	1.463599	0.773862	-0.207027
C41	C	0.844818	0.282761	-0.692495
C42	C	1.344818	0.782761	-0.192495
C43	C	1.390579	0.462789	-0.709682
C44	C	1.890579	0.962789	-0.209682
C45	C	1.385061	0.541694	-0.714003
C46	C	1.885061	1.041694	-0.214003
C47	C	1.457425	0.567422	-0.658086
C48	C	1.957425	1.067422	-0.158086
C49	C	1.452241	0.641563	-0.662158
C50	C	1.952241	1.141563	-0.162158
C51	C	1.374687	0.689974	-0.722141
C52	C	1.874687	1.189974	-0.222141
C53	C	1.302319	0.664243	-0.778064
C54	C	1.802319	1.164243	-0.278064
C55	C	1.307509	0.590103	-0.773998
C56	C	1.807509	1.090103	-0.273998
C57	C	1.355272	0.914395	-0.737322
C58	C	1.855272	1.414395	-0.237322
C59	C	1.350086	0.988538	-0.741382
C60	C	1.850086	1.488538	-0.241382
C61	C	1.500009	0.965853	-0.625476
C62	C	2.000009	1.465853	-0.125476
C63	C	1.505188	0.891714	-0.621410
C64	C	2.005188	1.391714	-0.121410
C65	C	1.432824	0.865988	-0.677338
C66	C	1.932824	1.365988	-0.177338
C67	C	1.369384	0.765758	-0.726301
C68	C	1.869384	1.265758	-0.226301
C69	C	1.438132	0.790206	-0.673183
C70	C	1.938132	1.290206	-0.173183
C71	C	1.673363	0.258178	-0.732745
C72	C	2.173363	0.758178	-0.232745
C73	C	1.788283	0.249586	-0.746832
C74	C	2.288283	0.749586	-0.246832
C75	C	1.367831	0.304348	-0.969334
C76	C	1.867831	0.804348	-0.469334
C77	C	1.352552	0.315431	-1.084241
C78	C	1.852552	0.815431	-0.584241
C79	C	1.416862	1.093169	-0.689693
C80	C	1.916862	1.593169	-0.189693
C81	C	1.422450	1.014266	-0.685465
C82	C	1.922450	1.514266	-0.185465
C83	C	1.411648	0.272529	-1.140841
C84	C	1.911648	0.772529	-0.640841
C85	C	1.395857	0.283984	-1.259604
C86	C	1.895857	0.783984	-0.759604
C87	C	1.439467	0.252374	-0.431095
C88	C	1.939467	0.752374	0.068905
C89	C	1.454961	0.241076	-0.316202
C90	C	1.954961	0.741076	0.183798
H91	H	0.805290	0.317748	-0.635217
H92	H	1.305290	0.817748	-0.135217
H93	H	1.333562	0.329193	-1.299064
H94	H	1.833562	0.829193	-0.799064
C95	C	1.264780	1.041791	-0.807376
C96	C	1.764780	1.541791	-0.307376
H97	H	1.222432	1.015852	-0.840112
H98	H	1.722432	1.515852	-0.340112
H99	H	1.222996	1.070301	-0.763868
H100	H	1.722996	1.570301	-0.263868
H101	H	1.296295	1.072067	-0.858877
H102	H	1.796295	1.572067	-0.358877
H103	H	1.290261	0.360637	-1.123706
H104	H	1.790261	0.860637	-0.623706
H105	H	1.239177	0.703666	-0.826909
H106	H	1.739177	1.203666	-0.326909
H107	H	0.980604	0.342017	-0.595424
H108	H	1.480604	0.842017	-0.095424
C109	C	1.284075	0.819010	-0.792277
C110	C	1.784075	1.319010	-0.292277
H111	H	1.241718	0.793073	-0.825004
H112	H	1.741718	1.293073	-0.325004
H113	H	1.242300	0.847522	-0.748765
H114	H	1.742300	1.347522	-0.248765
H115	H	1.315585	0.849284	-0.843785
H116	H	1.815585	1.349284	-0.343785
C117	C	0.841667	0.202316	-0.824207
C118	C	1.341667	0.702316	-0.324207
H119	H	0.790793	0.182656	-0.856401
H120	H	1.290793	0.682656	-0.356401
H121	H	0.875903	0.230722	-0.875779
H122	H	1.375903	0.730722	-0.375779
H123	H	0.891232	0.164397	-0.788163
H124	H	1.391232	0.664397	-0.288163
C125	C	1.542736	0.514175	-0.592106
C126	C	2.042736	1.014175	-0.092106
H127	H	1.585097	0.540119	-0.559395
H128	H	2.085097	1.040119	-0.059395
H129	H	1.511243	0.483896	-0.540601
H130	H	2.011243	0.983896	-0.040601
H131	H	1.584519	0.485669	-0.635627
H132	H	2.084519	0.985669	-0.135627
C133	C	1.227910	0.561803	-0.835509
C134	C	1.727910	1.061803	-0.335509
H135	H	1.180973	0.601252	-0.871810
H136	H	1.680973	1.101252	-0.371810
H137	H	1.263462	0.534238	-0.883839
H138	H	1.763462	1.034238	-0.383839
H139	H	1.190173	0.532467	-0.788822
H140	H	1.690173	1.032467	-0.288822
C141	C	1.495786	0.211448	-1.087540
C142	C	1.995786	0.711448	-0.587540
H143	H	1.530808	0.186013	-1.138450
H144	H	2.030808	0.686013	-0.638450
H145	H	1.544463	0.231198	-1.052398
H146	H	2.044463	0.731198	-0.552398
H147	H	1.463984	0.179438	-1.038900
H148	H	1.963984	0.679438	-0.538900
H149	H	1.511167	0.662506	-0.616623
H150	H	2.011167	1.162506	-0.116623
C151	C	1.590503	0.838466	-0.555436
C152	C	2.090503	1.338466	-0.055436
H153	H	1.632865	0.864407	-0.522723
H154	H	2.132865	1.364407	-0.022723
H155	H	1.559007	0.808186	-0.503933
H156	H	2.059007	1.308186	-0.003933
H157	H	1.632284	0.809960	-0.598959
H158	H	2.132284	1.309960	-0.098959
C159	C	1.016989	0.226598	-0.784400
C160	C	1.516989	0.726598	-0.284400
H161	H	0.966116	0.206938	-0.816597
H162	H	1.466116	0.706938	-0.316597
H163	H	1.051223	0.255006	-0.835971
H164	H	1.551223	0.755006	-0.335971
H165	H	1.066556	0.188678	-0.748359
H166	H	1.566556	0.688678	-0.248359
C167	C	1.579609	0.994154	-0.563970
C168	C	2.079609	1.494154	-0.063970
H169	H	1.565419	1.045242	-0.574986
H170	H	2.065419	1.545242	-0.074986
H171	H	1.574625	0.976459	-0.491984
H172	H	2.074625	1.476459	0.008016
H173	H	1.647900	0.978228	-0.587012
H174	H	2.147900	1.478228	-0.087012
C175	C	1.539110	0.179994	-1.262909
C176	C	2.039110	0.679994	-0.762909
H177	H	1.574132	0.154561	-1.313821
H178	H	2.074132	0.654561	-0.813821
H179	H	1.587786	0.199748	-1.227770
H180	H	2.087786	0.699748	-0.727770
H181	H	1.507315	0.147982	-1.214266
H182	H	2.007315	0.647982	-0.714266
C183	C	1.523438	0.736959	-0.607204
C184	C	2.023438	1.236959	-0.107204
H185	H	1.565800	0.762896	-0.574483
H186	H	2.065800	1.262896	-0.074483
H187	H	1.491934	0.706680	-0.555707
H188	H	1.991934	1.206680	-0.055707
H189	H	1.565221	0.708453	-0.650725
H190	H	2.065221	1.208453	-0.150725
H191	H	1.296348	0.893455	-0.782859
H192	H	1.796348	1.393455	-0.282859
