data_functionalizedCrystal
_audit_creation_method	'MofGen! by Chris Wilmer'
_symmetry_space_group_name_H-M	'P1'
_symmetry_Int_Tables_number	1
_symmetry_cell_setting	triclinic
loop_
_symmetry_equiv_pos_as_xyz
  x,y,z
_cell_length_a	10.540539
_cell_length_b	17.699092
_cell_length_c	16.176319
_cell_angle_alpha	89.994879
_cell_angle_beta	89.994664
_cell_angle_gamma	83.905930
loop_
_atom_site_label
_atom_site_type_symbol
_atom_site_fract_x
_atom_site_fract_y
_atom_site_fract_z
O1	O	1.683947	0.106661	-0.068704
O2	O	2.183947	0.606661	0.431296
O3	O	1.314350	0.116711	-0.068714
O4	O	1.814350	0.616711	0.431286
O5	O	1.509585	0.001565	-0.068707
O6	O	2.009585	0.501565	0.431293
O7	O	1.488712	0.221807	-0.068711
O8	O	1.988712	0.721807	0.431289
O9	O	1.509558	0.001558	0.068786
O10	O	2.009558	0.501558	0.568786
O11	O	1.314324	0.116703	0.068779
O12	O	1.814324	0.616703	0.568779
O13	O	1.683920	0.106654	0.068789
O14	O	2.183920	0.606654	0.568789
Cu15	Cu	1.499119	0.111678	0.081338
Cu16	Cu	1.999119	0.611678	0.581338
Cu17	Cu	1.499151	0.111687	-0.081263
Cu18	Cu	1.999151	0.611687	0.418737
O19	O	1.488685	0.221799	0.068782
O20	O	1.988685	0.721799	0.568782
C21	C	1.267048	0.115953	0.000031
C22	C	1.767048	0.615953	0.500031
C23	C	1.126141	0.113699	0.000027
C24	C	1.626141	0.613699	0.500027
C25	C	1.508822	-0.026640	0.000038
C26	C	2.008822	0.473360	0.500038
C27	C	1.506573	-0.110673	0.000034
C28	C	2.006573	0.389327	0.500034
C29	C	1.505534	-0.150143	-0.074914
C30	C	2.005534	0.349857	0.425086
C31	C	1.503412	-0.229100	-0.074915
C32	C	2.003412	0.270900	0.425085
C33	C	1.502339	-0.268586	0.000033
C34	C	2.002339	0.231414	0.500033
C35	C	1.503375	-0.229110	0.074988
C36	C	2.003375	0.270890	0.574988
C37	C	1.505487	-0.150154	0.074988
C38	C	2.005487	0.349846	0.574988
C39	C	1.494854	-0.547530	0.074989
C40	C	1.994854	-0.047530	0.574989
C41	C	1.492746	-0.626492	0.074983
C42	C	1.992746	-0.126492	0.574983
C43	C	1.492780	-0.626476	-0.074914
C44	C	1.992780	-0.126476	0.425086
C45	C	1.494892	-0.547520	-0.074914
C46	C	1.994892	-0.047520	0.425086
C47	C	1.495921	-0.508051	0.000040
C48	C	1.995921	-0.008051	0.500040
C49	C	1.498219	-0.422437	0.000040
C50	C	1.998219	0.077563	0.500040
C51	C	1.500051	-0.354199	0.000034
C52	C	2.000051	0.145801	0.500034
C53	C	0.944290	0.027300	0.000350
C54	C	1.444290	0.527300	0.500350
C55	C	1.090866	0.029585	0.000032
C56	C	1.590866	0.529585	0.500032
C57	C	1.063745	0.154182	-0.078486
C58	C	1.563745	0.654182	0.421514
C59	C	0.917253	0.151311	-0.078543
C60	C	1.417253	0.651311	0.421457
C61	C	0.916703	0.153014	0.077813
C62	C	1.416703	0.653014	0.577813
C63	C	1.063671	0.153788	0.078842
C64	C	1.563671	0.653788	0.578842
C65	C	1.731223	0.107411	0.000042
C66	C	2.231223	0.607411	0.500042
C67	C	1.872130	0.109666	0.000040
C68	C	2.372130	0.609666	0.500040
C69	C	1.489448	0.250005	0.000035
C70	C	1.989448	0.750005	0.500035
C71	C	1.491697	0.334037	0.000033
C72	C	1.991697	0.834037	0.500033
N73	N	1.499106	0.111671	0.195703
N74	N	1.999106	0.611671	0.695703
N75	N	1.499174	0.111687	-0.195629
N76	N	1.999174	0.611687	0.304371
C77	C	1.585582	0.060706	0.238971
C78	C	2.085582	0.560706	0.738971
C79	C	1.585589	0.060705	0.325518
C80	C	2.085589	0.560705	0.825518
C81	C	1.499124	0.111674	0.368796
C82	C	1.999124	0.611674	0.868796
C83	C	1.412639	0.162641	0.325523
C84	C	1.912639	0.662641	0.825523
C85	C	1.412628	0.162638	0.238977
C86	C	1.912628	0.662638	0.738977
C87	C	1.412683	0.162656	0.674551
C88	C	1.912683	0.662656	1.174551
C89	C	1.412703	0.162657	0.761103
C90	C	1.912703	0.662657	1.261103
C91	C	1.585644	0.060723	0.761092
C92	C	2.085644	0.560723	1.261092
C93	C	1.585632	0.060719	0.674546
C94	C	2.085632	0.560719	1.174546
C95	C	1.499143	0.111684	0.631280
C96	C	1.999143	0.611684	1.131280
C97	C	1.499136	0.111683	0.537436
C98	C	1.999136	0.611683	1.037436
C99	C	1.499137	0.111679	0.462639
C100	C	1.999137	0.611679	0.962639
H101	H	1.506415	-0.118000	-0.135946
H102	H	2.006415	0.382000	0.364054
H103	H	1.506315	-0.118017	0.136019
H104	H	2.006315	0.381983	0.636019
H105	H	1.342209	0.204138	0.203750
H106	H	1.842209	0.704138	0.703750
Br107	Br	1.491384	-0.680046	-0.176640
Br108	Br	1.991384	-0.180046	0.323360
Br109	Br	1.502000	-0.282664	-0.176635
Br110	Br	2.002000	0.217336	0.323365
H111	H	1.342232	0.204139	0.360765
H112	H	1.842232	0.704139	0.860765
H113	H	1.491869	-0.658639	0.136018
H114	H	1.991869	-0.158639	0.636018
Br115	Br	0.835456	0.252133	-0.084484
Br116	Br	1.335456	0.752133	0.415516
H117	H	1.342263	0.204154	0.639331
H118	H	1.842263	0.704154	1.139331
H119	H	1.656043	0.019219	0.639312
H120	H	2.156043	0.519219	1.139312
H121	H	1.655997	0.019204	0.203739
H122	H	2.155997	0.519204	0.703739
H123	H	1.495717	-0.515405	0.136020
H124	H	1.995717	-0.015405	0.636020
H125	H	1.342289	0.204163	0.796338
H126	H	1.842289	0.704163	1.296338
Br127	Br	1.496359	-0.493937	-0.176633
Br128	Br	1.996359	0.006063	0.323367
H129	H	1.502493	-0.261265	0.136012
H130	H	2.002493	0.238735	0.636012
H131	H	1.134050	-0.002268	0.056313
H132	H	1.634050	0.497732	0.556313
Br133	Br	0.897633	-0.028092	0.094199
Br134	Br	1.397633	0.471908	0.594199
H135	H	0.914697	-0.005786	-0.055641
H136	H	1.414697	0.494214	0.444359
Br137	Br	1.161396	-0.023631	-0.094099
Br138	Br	1.661396	0.476369	0.405901
H139	H	0.889600	0.121397	-0.137231
H140	H	1.389600	0.621397	0.362769
H141	H	1.656003	0.019205	0.360746
H142	H	2.156003	0.519205	0.860746
H143	H	1.084972	0.215952	-0.081408
H144	H	1.584972	0.715952	0.418592
H145	H	1.106858	0.126066	-0.136916
H146	H	1.606858	0.626066	0.363084
Br147	Br	0.864940	0.107636	0.177005
Br148	Br	1.364940	0.607636	0.677005
Br149	Br	1.132646	0.104410	0.175653
Br150	Br	1.632646	0.604410	0.675653
H151	H	1.086777	0.215112	0.083581
H152	H	1.586777	0.715112	0.583581
H153	H	1.656064	0.019222	0.796328
H154	H	2.156064	0.519222	1.296328
Br155	Br	0.836147	0.254275	0.078695
Br156	Br	1.336147	0.754275	0.578695
