data_functionalizedCrystal
_audit_creation_method	'MofGen! by Chris Wilmer'
_symmetry_space_group_name_H-M	'P1'
_symmetry_Int_Tables_number	1
_symmetry_cell_setting	triclinic
loop_
_symmetry_equiv_pos_as_xyz
  x,y,z
_cell_length_a	19.805407
_cell_length_b	19.805405
_cell_length_c	11.169409
_cell_angle_alpha	90.037171
_cell_angle_beta	90.024953
_cell_angle_gamma	90.028666
loop_
_atom_site_label
_atom_site_type_symbol
_atom_site_fract_x
_atom_site_fract_y
_atom_site_fract_z
Zn1	Zn	1.034765	-0.269373	0.678667
Zn2	Zn	1.534765	0.230627	1.178667
Zn3	Zn	1.034670	-0.382583	0.477967
Zn4	Zn	1.534670	0.117417	0.977967
Zn5	Zn	0.921570	-0.269417	0.477983
Zn6	Zn	1.421570	0.230583	0.977983
Zn7	Zn	0.921542	-0.382530	0.678594
Zn8	Zn	1.421542	0.117470	1.178594
O9	O	0.978137	-0.325975	0.578302
O10	O	1.478137	0.174025	1.078302
O11	O	1.129469	-0.284395	0.652067
O12	O	1.629469	0.215605	1.152067
O13	O	1.019639	-0.367611	0.310019
O14	O	1.519639	0.132389	0.810019
O15	O	0.936637	-0.174694	0.504642
O16	O	1.436637	0.325306	1.004642
O17	O	1.129399	-0.367569	0.504614
O18	O	1.629399	0.132431	1.004614
O19	O	1.019801	-0.174662	0.652083
O20	O	1.519801	0.325338	1.152083
O21	O	0.936545	-0.284469	0.310031
O22	O	1.436545	0.215531	0.810031
O23	O	0.826850	-0.284417	0.504571
O24	O	1.326850	0.215583	1.004571
O25	O	0.936589	-0.367479	0.846553
O26	O	1.436589	0.132521	1.346553
O27	O	0.826829	-0.367521	0.651958
O28	O	1.326829	0.132479	1.151958
O29	O	1.019773	-0.284343	0.846607
O30	O	1.519773	0.215657	1.346607
O31	O	1.019612	-0.477292	0.504543
O32	O	1.519612	0.022708	1.004543
O33	O	0.936497	-0.477253	0.651942
O34	O	1.436497	0.022747	1.151942
C35	C	0.802281	-0.325968	0.578259
C36	C	1.302281	0.174032	1.078259
C37	C	0.727049	-0.325982	0.578269
C38	C	1.227049	0.174018	1.078269
C39	C	0.265297	-0.282748	0.655245
C40	C	0.765297	0.217252	1.155245
C41	C	0.335986	-0.282749	0.655237
C42	C	0.835986	0.217251	1.155237
C43	C	0.371287	-0.325986	0.578341
C44	C	0.871287	0.174014	1.078341
C45	C	0.335896	-0.369229	0.501458
C46	C	0.835896	0.130771	1.001458
C47	C	0.265209	-0.369231	0.501473
C48	C	0.765209	0.130769	1.001473
C49	C	0.620969	-0.369224	0.501394
C50	C	1.120969	0.130776	1.001394
C51	C	0.691661	-0.369218	0.501382
C52	C	1.191661	0.130782	1.001382
C53	C	0.691746	-0.282742	0.655158
C54	C	1.191746	0.217258	1.155158
C55	C	0.621059	-0.282744	0.655173
C56	C	1.121059	0.217256	1.155173
C57	C	0.585674	-0.325989	0.578295
C58	C	1.085674	0.174011	1.078295
C59	C	0.509026	-0.325988	0.578307
C60	C	1.009026	0.174012	1.078307
C61	C	0.447934	-0.325984	0.578322
C62	C	0.947934	0.174016	1.078322
C63	C	0.978060	-0.501832	0.578259
C64	C	1.478060	-0.001832	1.078259
C65	C	0.978089	-0.577064	0.578281
C66	C	1.478089	-0.077064	1.078281
C67	C	1.021366	-0.612333	0.655113
C68	C	1.521366	-0.112333	1.155113
C69	C	1.021391	-0.683021	0.655136
C70	C	1.521391	-0.183021	1.155136
C71	C	0.978140	-0.718439	0.578318
C72	C	1.478140	-0.218439	1.078318
C73	C	0.934858	-0.683165	0.501482
C74	C	1.434858	-0.183165	1.001482
C75	C	0.934831	-0.612478	0.501467
C76	C	1.434831	-0.112478	1.001467
C77	C	0.934967	-0.968238	0.501543
C78	C	1.434967	-0.468238	1.001543
C79	C	0.934999	-1.038930	0.501562
C80	C	1.434999	-0.538930	1.001562
C81	C	1.021527	-1.038782	0.655213
C82	C	1.521527	-0.538782	1.155213
C83	C	1.021499	-0.968094	0.655197
C84	C	1.521499	-0.468094	1.155197
C85	C	0.978215	-0.932826	0.578366
C86	C	1.478215	-0.432826	1.078366
C87	C	0.978188	-0.856178	0.578344
C88	C	1.478188	-0.356178	1.078344
C89	C	0.978170	-0.795086	0.578333
C90	C	1.478170	-0.295086	1.078333
C91	C	1.154679	-0.325983	0.578347
C92	C	1.654679	0.174017	1.078347
C93	C	1.229911	-0.325986	0.578366
C94	C	1.729911	0.174014	1.078366
C95	C	0.978189	-0.325900	0.891345
C96	C	1.478189	0.174100	1.391345
C97	C	0.978211	-0.325868	1.024745
C98	C	1.478211	0.174132	1.524745
C99	C	0.978233	-0.149433	0.578372
C100	C	1.478233	0.350567	1.078372
C101	C	0.978273	-0.074201	0.578402
C102	C	1.478273	0.425799	1.078402
C103	C	0.978124	-0.326002	0.266478
C104	C	1.478124	0.173998	0.766478
C105	C	0.978233	-0.325843	0.133078
C106	C	1.478233	0.174157	0.633078
H107	H	0.720402	-0.404429	0.438762
H108	H	1.220402	0.095571	0.938762
H109	H	0.899724	-0.939528	0.438983
H110	H	1.399724	-0.439528	0.938983
H111	H	0.236398	-0.404442	0.438872
H112	H	0.736398	0.095558	0.938872
Br113	Br	1.080201	-0.920031	0.759447
Br114	Br	1.580201	-0.420031	1.259447
Br115	Br	0.383804	-0.427914	0.397106
Br116	Br	0.883804	0.072086	0.897106
H117	H	0.899640	-0.712008	0.438941
H118	H	1.399640	-0.212008	0.938941
H119	H	0.899776	-1.067765	0.439006
H120	H	1.399776	-0.567765	0.939006
Br121	Br	1.080270	-1.086649	0.759488
Br122	Br	1.580270	-0.586649	1.259488
H123	H	0.364794	-0.247542	0.717844
H124	H	0.864794	0.252458	1.217844
Br125	Br	1.080072	-0.564273	0.759362
Br126	Br	1.580072	-0.064273	1.259362
H127	H	0.899589	-0.583762	0.438903
H128	H	1.399589	-0.083762	0.938903
H129	H	1.056637	-0.711734	0.717692
H130	H	1.556637	-0.211734	1.217692
Br131	Br	0.572956	-0.427894	0.397023
Br132	Br	1.072956	0.072106	0.897023
H133	H	0.592320	-0.247533	0.717785
H134	H	1.092320	0.252467	1.217785
Br135	Br	0.217396	-0.224060	0.759600
Br136	Br	0.717396	0.275940	1.259600
H137	H	0.720565	-0.247531	0.717759
H138	H	1.220565	0.252469	1.217759
