data_functionalizedCrystal
_audit_creation_method	'MofGen! by Chris Wilmer'
_symmetry_space_group_name_H-M	'P1'
_symmetry_Int_Tables_number	1
_symmetry_cell_setting	triclinic
loop_
_symmetry_equiv_pos_as_xyz
  x,y,z
_cell_length_a	19.188905
_cell_length_b	19.188930
_cell_length_c	18.266242
_cell_angle_alpha	90.011475
_cell_angle_beta	89.983837
_cell_angle_gamma	96.860332
loop_
_atom_site_label
_atom_site_type_symbol
_atom_site_fract_x
_atom_site_fract_y
_atom_site_fract_z
O1	O	0.926160	-0.087085	-0.061010
O2	O	1.426160	0.412915	0.438990
O3	O	0.722847	-0.098838	-0.060986
O4	O	1.222847	0.401162	0.439014
O5	O	0.830371	0.008694	-0.060984
O6	O	1.330371	0.508694	0.439016
O7	O	0.818636	-0.194618	-0.061011
O8	O	1.318636	0.305382	0.438989
O9	O	0.830353	0.008700	0.060778
O10	O	1.330353	0.508700	0.560778
O11	O	0.722828	-0.098833	0.060776
O12	O	1.222828	0.401167	0.560776
O13	O	0.926142	-0.087080	0.060752
O14	O	1.426142	0.412920	0.560752
Zn15	Zn	0.824482	-0.092955	0.080097
Zn16	Zn	1.324482	0.407045	0.580097
Zn17	Zn	0.824506	-0.092963	-0.080330
Zn18	Zn	1.324506	0.407037	0.419670
O19	O	0.818618	-0.194612	0.060751
O20	O	1.318618	0.305388	0.560751
C21	C	0.696826	-0.098458	-0.000102
C22	C	1.196826	0.401542	0.499898
C23	C	0.619321	-0.097324	-0.000092
C24	C	1.119321	0.402676	0.499908
C25	C	0.582939	-0.096782	-0.066466
C26	C	1.082939	0.403218	0.433534
C27	C	0.510115	-0.095709	-0.066475
C28	C	1.010115	0.404291	0.433525
C29	C	0.473678	-0.095164	-0.000106
C30	C	0.973678	0.404836	0.499894
C31	C	0.510068	-0.095709	0.066277
C32	C	1.010068	0.404291	0.566277
C33	C	0.582890	-0.096789	0.066284
C34	C	1.082890	0.403211	0.566284
N35	N	0.364651	-0.053733	0.049292
N36	N	0.864651	0.446267	0.549292
N37	N	0.295474	-0.052705	0.049280
N38	N	0.795474	0.447295	0.549280
C39	C	0.254272	-0.091911	-0.000123
C40	C	0.754272	0.408089	0.499877
N41	N	0.284861	-0.132174	-0.049526
N42	N	0.784861	0.367826	0.450474
N43	N	0.354045	-0.133199	-0.049517
N44	N	0.854045	0.366801	0.450483
C45	C	0.394716	-0.093993	-0.000106
C46	C	0.894716	0.406007	0.499894
C47	C	0.138926	-0.090207	-0.066512
C48	C	0.638926	0.409793	0.433488
C49	C	0.066100	-0.089138	-0.066518
C50	C	0.566100	0.410862	0.433482
C51	C	0.066056	-0.089132	0.066236
C52	C	0.566056	0.410868	0.566236
C53	C	0.138879	-0.090207	0.066240
C54	C	0.638879	0.409793	0.566240
C55	C	0.175310	-0.090742	-0.000136
C56	C	0.675310	0.409258	0.499864
C57	C	0.829982	0.034708	-0.000101
C58	C	1.329982	0.534708	0.499899
C59	C	0.828841	0.112213	-0.000095
C60	C	1.328841	0.612213	0.499905
C61	C	0.952163	-0.087460	-0.000134
C62	C	1.452163	0.412540	0.499866
C63	C	1.029668	-0.088594	-0.000148
C64	C	1.529668	0.411406	0.499852
C65	C	0.819007	-0.220626	-0.000134
C66	C	1.319007	0.279374	0.499866
C67	C	0.820148	-0.298131	-0.000145
C68	C	1.320148	0.201869	0.499855
N69	N	0.824471	-0.092950	0.189583
N70	N	1.324471	0.407050	0.689583
C71	C	0.891933	0.157142	-0.000099
C72	C	1.391933	0.657142	0.499901
C73	C	0.890861	0.229966	-0.000110
C74	C	1.390861	0.729966	0.499890
C75	C	0.826694	0.257857	-0.000103
C76	C	1.326694	0.757857	0.499897
C77	C	0.763594	0.212917	-0.000103
C78	C	1.263594	0.712917	0.499897
C79	C	0.764668	0.140095	-0.000099
C80	C	1.264668	0.640095	0.499901
N81	N	0.777640	0.365859	0.041341
N82	N	1.277640	0.865859	0.541341
N83	N	0.776624	0.435038	0.041338
N84	N	1.276624	0.935038	0.541338
C85	C	0.823456	0.477265	-0.000118
C86	C	1.323456	0.977265	0.499882
N87	N	0.871352	0.447702	-0.041561
N88	N	1.371352	0.947702	0.458439
N89	N	0.872369	0.378517	-0.041556
N90	N	1.372369	0.878517	0.458444
C91	C	0.825523	0.336819	-0.000108
C92	C	1.325523	0.836819	0.499892
C93	C	0.885390	0.601159	-0.000135
C94	C	1.385390	1.101159	0.499865
C95	C	0.884315	0.673984	-0.000151
C96	C	1.384315	1.173984	0.499849
C97	C	0.757047	0.656933	-0.000137
C98	C	1.257047	1.156933	0.499863
C99	C	0.758123	0.584110	-0.000128
C100	C	1.258123	1.084110	0.499872
C101	C	0.822296	0.556228	-0.000124
C102	C	1.322296	1.056228	0.499876
N103	N	0.824523	-0.092962	-0.189817
N104	N	1.324523	0.407038	0.310183
C105	C	0.872098	-0.045358	0.227893
C106	C	1.372098	0.454642	0.727893
C107	C	0.872103	-0.045355	0.304538
C108	C	1.372103	0.454645	0.804538
C109	C	0.824487	-0.092956	0.342870
C110	C	1.324487	0.407044	0.842870
C111	C	0.776851	-0.140551	0.304552
C112	C	1.276851	0.359449	0.804552
C113	C	0.776843	-0.140549	0.227908
C114	C	1.276843	0.359451	0.727908
N115	N	0.815411	-0.154764	0.463195
N116	N	1.315411	0.345236	0.963195
N117	N	0.815423	-0.154764	0.536003
N118	N	1.315423	0.345236	1.036003
C119	C	0.824506	-0.092966	0.573793
C120	C	1.324506	0.407034	1.073793
N121	N	0.833592	-0.031165	0.536024
N122	N	1.333592	0.468835	1.036024
N123	N	0.833584	-0.031165	0.463209
N124	N	1.333584	0.468835	0.963209
C125	C	0.824490	-0.092963	0.425977
C126	C	1.324490	0.407037	0.925977
C127	C	0.872141	-0.045366	0.695210
C128	C	1.372141	0.454634	1.195210
C129	C	0.872141	-0.045362	0.771856
C130	C	1.372141	0.454638	1.271856
C131	C	0.776892	-0.140565	0.771868
C132	C	1.276892	0.359435	1.271868
C133	C	0.776889	-0.140563	0.695223
C134	C	1.276889	0.359437	1.195223
C135	C	0.824517	-0.092964	0.656898
C136	C	1.324517	0.407036	1.156898
H137	H	0.036389	-0.088692	0.120275
H138	H	0.536389	0.411308	0.620275
N139	N	0.472854	-0.095136	0.134071
N140	N	0.972854	0.404864	0.634071
N141	N	0.487568	-0.046049	0.178520
N142	N	0.987568	0.453951	0.678520
H143	H	0.461285	-0.045646	0.226402
H144	H	0.961285	0.454354	0.726402
N145	N	0.176157	-0.090759	-0.134301
N146	N	0.676157	0.409241	0.365699
N147	N	0.223394	-0.042158	-0.149102
N148	N	0.723394	0.457842	0.350898
H149	H	0.249689	-0.042549	-0.196977
H150	H	0.749689	0.457451	0.303023
N151	N	0.728184	-0.189168	0.188783
N152	N	1.228184	0.310832	0.688783
N153	N	0.685667	-0.231662	0.223013
N154	N	1.185667	0.268338	0.723013
H155	H	0.651301	-0.266002	0.195380
H156	H	1.151301	0.233998	0.695380
H157	H	0.713289	0.103513	-0.000096
H158	H	1.213289	0.603513	0.499904
H159	H	0.910921	-0.006606	0.664004
H160	H	1.410921	0.493394	1.164004
N161	N	0.620045	-0.097348	0.134094
N162	N	1.120045	0.402652	0.634094
N163	N	0.587507	-0.096869	0.193349
N164	N	1.087507	0.403131	0.693349
H165	H	0.613748	-0.097263	0.241241
H166	H	1.113748	0.402737	0.741241
N167	N	0.920792	0.003266	0.810979
N168	N	1.420792	0.503266	1.310979
N169	N	0.963309	0.045759	0.776748
N170	N	1.463309	0.545759	1.276748
H171	H	0.997671	0.080104	0.804379
H172	H	1.497671	0.580104	1.304379
N173	N	0.472933	-0.095143	-0.134271
N174	N	0.972933	0.404857	0.365729
N175	N	0.407915	-0.094174	-0.134265
N176	N	0.907915	0.405826	0.365735
H177	H	0.381655	-0.093773	-0.182145
H178	H	0.881655	0.406227	0.317855
N179	N	0.920801	0.003246	0.188793
N180	N	1.420801	0.503246	0.688793
N181	N	0.920114	0.067788	0.197377
N182	N	1.420114	0.567788	0.697377
H183	H	0.954532	0.102106	0.169776
H184	H	1.454532	0.602106	0.669776
N185	N	0.028944	-0.088595	-0.134328
N186	N	0.528944	0.411405	0.365672
N187	N	0.061484	-0.089076	-0.193583
N188	N	0.561484	0.410924	0.306417
H189	H	0.035242	-0.088693	-0.241476
H190	H	0.535242	0.411307	0.258524
H191	H	0.704801	0.679641	-0.000135
H192	H	1.204801	1.179641	0.499865
N193	N	0.176036	-0.090755	0.134048
N194	N	0.676036	0.409245	0.634048
N195	N	0.143498	-0.090269	0.193302
N196	N	0.643498	0.409731	0.693302
H197	H	0.169739	-0.090657	0.241195
H198	H	0.669739	0.409343	0.741195
N199	N	0.728234	-0.189183	0.656098
N200	N	1.228234	0.310817	1.156098
N201	N	0.685719	-0.231678	0.690328
N202	N	1.185719	0.268322	1.190328
H203	H	0.651352	-0.266017	0.662697
H204	H	1.151352	0.233983	1.162697
H205	H	0.706747	0.547527	-0.000121
H206	H	1.206747	1.047527	0.499879
N207	N	0.620140	-0.097329	-0.134272
N208	N	1.120140	0.402671	0.365728
N209	N	0.587641	-0.096846	-0.193531
N210	N	1.087641	0.403154	0.306469
H211	H	0.613915	-0.097233	-0.241420
H212	H	1.113915	0.402767	0.258580
N213	N	0.728241	-0.189178	0.811012
N214	N	1.228241	0.310822	1.311012
N215	N	0.684974	-0.167135	0.853799
N216	N	1.184974	0.332865	1.353799
H217	H	0.650609	-0.201467	0.881447
H218	H	1.150609	0.298533	1.381447
H219	H	0.937644	0.578456	-0.000135
H220	H	1.437644	1.078456	0.499865
H221	H	0.935694	0.710565	-0.000158
H222	H	1.435694	1.210565	0.499842
H223	H	0.944187	0.134445	-0.000097
H224	H	1.444187	0.634445	0.499903
H225	H	0.942239	0.266555	-0.000116
H226	H	1.442239	0.766555	0.499884
H227	H	0.711349	0.235631	-0.000099
H228	H	1.211349	0.735631	0.499901
H229	H	0.910888	-0.006598	0.335735
H230	H	1.410888	0.493402	0.835735
H231	H	0.738080	-0.179308	0.335766
H232	H	1.238080	0.320692	0.835766
