data_functionalizedCrystal
_audit_creation_method	'MofGen! by Chris Wilmer'
_symmetry_space_group_name_H-M	'P1'
_symmetry_Int_Tables_number	1
_symmetry_cell_setting	triclinic
loop_
_symmetry_equiv_pos_as_xyz
  x,y,z
_cell_length_a	18.050590
_cell_length_b	18.050589
_cell_length_c	16.625539
_cell_angle_alpha	89.975378
_cell_angle_beta	90.004910
_cell_angle_gamma	89.976137
loop_
_atom_site_label
_atom_site_type_symbol
_atom_site_fract_x
_atom_site_fract_y
_atom_site_fract_z
Zn1	Zn	1.135301	0.295873	0.455593
Zn2	Zn	1.635301	0.795873	0.955593
Zn3	Zn	1.135185	0.420071	0.320769
Zn4	Zn	1.635185	0.920071	0.820769
Zn5	Zn	1.011107	0.295875	0.320810
Zn6	Zn	1.511107	0.795875	0.820810
Zn7	Zn	1.011054	0.420002	0.455596
Zn8	Zn	1.511054	0.920002	0.955596
O9	O	1.073162	0.357955	0.388192
O10	O	1.573162	0.857955	0.888192
O11	O	1.239210	0.312376	0.437690
O12	O	1.739210	0.812376	0.937690
O13	O	1.118700	0.403626	0.207942
O14	O	1.618700	0.903626	0.707942
O15	O	1.027653	0.191951	0.338706
O16	O	1.527653	0.691951	0.838706
O17	O	1.239125	0.403623	0.338635
O18	O	1.739125	0.903623	0.838635
O19	O	1.118897	0.191949	0.437730
O20	O	1.618897	0.691949	0.937730
O21	O	1.027541	0.312380	0.207972
O22	O	1.527541	0.812380	0.707972
O23	O	0.907176	0.312313	0.338708
O24	O	1.407176	0.812313	0.838708
O25	O	1.027561	0.403506	0.568428
O26	O	1.527561	0.903506	1.068428
O27	O	0.907136	0.403509	0.437735
O28	O	1.407136	0.903509	0.937735
O29	O	1.118845	0.312309	0.568426
O30	O	1.618845	0.812309	1.068426
O31	O	1.118648	0.523986	0.338638
O32	O	1.618648	1.023986	0.838638
O33	O	1.027449	0.523936	0.437694
O34	O	1.527449	1.023936	0.937694
C35	C	0.880210	0.357905	0.388227
C36	C	1.380210	0.857905	0.888227
C37	C	0.797664	0.357901	0.388261
C38	C	1.297664	0.857901	0.888261
C39	C	0.598213	0.407635	0.441983
C40	C	1.098213	0.907635	0.941983
C41	C	0.548830	0.339918	0.461819
C42	C	1.048830	0.839918	0.961819
C43	C	0.646533	0.357942	0.388221
C44	C	1.146533	0.857942	0.888221
C45	C	0.548835	0.425698	0.368385
C46	C	1.048835	0.925698	0.868385
C47	C	0.500548	0.357988	0.388185
C48	C	1.000548	0.857988	0.888185
C49	C	0.598237	0.290189	0.408096
C50	C	1.098237	0.790189	0.908096
C51	C	0.598247	0.376015	0.314627
C52	C	1.098247	0.876015	0.814627
C53	C	0.548886	0.308251	0.334435
C54	C	1.048886	0.808251	0.834435
C55	C	0.730632	0.357917	0.388244
C56	C	1.230632	0.857917	0.888244
C57	C	0.416452	0.358006	0.388162
C58	C	0.916452	0.858006	0.888162
C59	C	1.073050	0.550907	0.388179
C60	C	1.573050	1.050907	0.888179
C61	C	1.073070	0.633453	0.388201
C62	C	1.573070	1.133453	0.888201
C63	C	1.023503	0.832903	0.442050
C64	C	1.523503	1.332903	0.942050
C65	C	1.005393	0.882342	0.368479
C66	C	1.505393	1.382342	0.868479
C67	C	1.073126	0.784584	0.388212
C68	C	1.573126	1.284584	0.888212
C69	C	1.091256	0.882227	0.461791
C70	C	1.591256	1.382227	0.961791
C71	C	1.073179	0.930569	0.388229
C72	C	1.573179	1.430569	0.888229
C73	C	1.054981	0.832935	0.314603
C74	C	1.554981	1.332935	0.814603
C75	C	1.140876	0.832815	0.407964
C76	C	1.640876	1.332815	0.907964
C77	C	1.122791	0.882231	0.334343
C78	C	1.622791	1.382231	0.834343
C79	C	1.073094	0.700485	0.388203
C80	C	1.573094	1.200485	0.888203
C81	C	1.073211	1.014665	0.388230
C82	C	1.573211	1.514665	0.888230
C83	C	1.266867	0.358007	0.388158
C84	C	1.766867	0.858007	0.888158
C85	C	1.349413	0.358029	0.388143
C86	C	1.849413	0.858029	0.888143
C87	C	1.073210	0.357900	0.598501
C88	C	1.573210	0.857900	1.098501
C89	C	1.073231	0.357876	0.688122
C90	C	1.573231	0.857876	1.188122
C91	C	1.073265	1.164250	0.388223
C92	C	1.573265	1.664250	0.888223
C93	C	1.073237	1.081704	0.388239
C94	C	1.573237	1.581704	0.888239
C95	C	1.073156	0.357957	0.178701
C96	C	1.573156	0.857957	0.678701
C97	C	1.073280	0.357771	0.089080
C98	C	1.573280	0.857771	0.589080
C99	C	1.073265	0.357793	1.016298
C100	C	1.573265	0.857793	1.516298
C101	C	1.073253	0.357819	0.924989
C102	C	1.573253	0.857819	1.424989
C103	C	1.073248	0.357835	0.852213
C104	C	1.573248	0.857835	1.352213
C105	C	1.073236	0.357860	0.760899
C106	C	1.573236	0.857860	1.260899
H107	H	0.619874	0.449585	0.487499
H108	H	1.119874	0.949585	0.987499
H109	H	0.948124	0.904113	0.351788
H110	H	1.448124	1.404113	0.851788
N111	N	0.520069	0.319686	0.544233
N112	N	1.020069	0.819686	1.044233
H113	H	0.538005	0.357235	0.584821
H114	H	1.038005	0.857235	1.084821
H115	H	0.464123	0.319371	0.543397
H116	H	0.964123	0.819371	1.043397
H117	H	1.198131	0.811046	0.424691
H118	H	1.698131	1.311046	0.924691
H119	H	1.106570	0.903879	0.524010
H120	H	1.606570	1.403879	1.024010
N121	N	1.178404	0.910753	0.273979
N122	N	1.678404	1.410753	0.773979
H123	H	1.217014	0.941519	0.302540
H124	H	1.717014	1.441519	0.802540
H125	H	1.203166	0.867504	0.246366
H126	H	1.703166	1.367504	0.746366
N127	N	1.034611	0.804382	0.232162
N128	N	1.534611	1.304382	0.732162
H129	H	1.034695	0.748430	0.232669
H130	H	1.534695	1.248430	0.732669
H131	H	0.983634	0.822889	0.217175
H132	H	1.483634	1.322889	0.717175
H133	H	0.527132	0.482979	0.351624
H134	H	1.027132	0.982979	0.851624
N135	N	0.967853	0.804194	0.502270
N136	N	1.467853	1.304194	1.002270
H137	H	0.981001	0.822894	0.557709
H138	H	1.481001	1.322894	1.057709
H139	H	0.916728	0.822216	0.487179
H140	H	1.416728	1.322216	0.987179
N141	N	0.626858	0.214292	0.430393
N142	N	1.126858	0.714292	0.930393
H143	H	0.658004	0.217954	0.480704
H144	H	1.158004	0.717954	0.980704
H145	H	0.583653	0.179975	0.440413
H146	H	1.083653	0.679975	0.940413
H147	H	0.527363	0.266199	0.288955
H148	H	1.027363	0.766199	0.788955
N149	N	0.627017	0.396260	0.232226
N150	N	1.127017	0.896260	0.732226
H151	H	0.609076	0.447459	0.217301
H152	H	1.109076	0.947459	0.717301
H153	H	0.682962	0.395570	0.232777
H154	H	1.182962	0.895570	0.732777
