data_functionalizedCrystal
_audit_creation_method	'MofGen! by Chris Wilmer'
_symmetry_space_group_name_H-M	'P1'
_symmetry_Int_Tables_number	1
_symmetry_cell_setting	triclinic
loop_
_symmetry_equiv_pos_as_xyz
  x,y,z
_cell_length_a	16.120530
_cell_length_b	18.101397
_cell_length_c	16.120297
_cell_angle_alpha	87.130973
_cell_angle_beta	89.871860
_cell_angle_gamma	87.115827
loop_
_atom_site_label
_atom_site_type_symbol
_atom_site_fract_x
_atom_site_fract_y
_atom_site_fract_z
Zn1	Zn	1.247464	-0.375192	0.534538
Zn2	Zn	1.580797	-0.041859	0.867872
Zn3	Zn	1.914131	0.291474	1.201205
Zn4	Zn	1.254422	-0.493085	0.395472
Zn5	Zn	1.587756	-0.159752	0.728806
Zn6	Zn	1.921089	0.173581	1.062139
Zn7	Zn	1.115454	-0.362678	0.388457
Zn8	Zn	1.448787	-0.029345	0.721791
Zn9	Zn	1.782120	0.303989	1.055124
Zn10	Zn	1.108379	-0.492403	0.527442
Zn11	Zn	1.441712	-0.159070	0.860775
Zn12	Zn	1.775045	0.174263	1.194108
O13	O	1.181430	-0.430840	0.461477
O14	O	1.514763	-0.097506	0.794811
O15	O	1.848096	0.235827	1.128144
O16	O	1.364754	-0.396354	0.521997
O17	O	1.698087	-0.063020	0.855330
O18	O	2.031420	0.270313	1.188663
O19	O	1.241861	-0.470835	0.278177
O20	O	1.575194	-0.137501	0.611510
O21	O	1.908527	0.195832	0.944843
O22	O	1.133014	-0.260709	0.407869
O23	O	1.466347	0.072624	0.741203
O24	O	1.799681	0.405958	1.074536
O25	O	1.369866	-0.482969	0.419826
O26	O	1.703199	-0.149636	0.753159
O27	O	2.036532	0.183697	1.086492
O28	O	1.230001	-0.269903	0.515194
O29	O	1.563335	0.063430	0.848528
O30	O	1.896668	0.396764	1.181861
O31	O	1.139761	-0.375025	0.273023
O32	O	1.473094	-0.041692	0.606356
O33	O	1.806428	0.291642	0.939689
O34	O	0.998148	-0.374364	0.400988
O35	O	1.331482	-0.041030	0.734321
O36	O	1.664815	0.292303	1.067655
O37	O	1.120956	-0.481807	0.644748
O38	O	1.454289	-0.148474	0.978082
O39	O	1.787622	0.184860	1.311415
O40	O	0.992950	-0.469672	0.503099
O41	O	1.326284	-0.136339	0.836433
O42	O	1.659617	0.196994	1.169766
O43	O	1.223141	-0.395692	0.649962
O44	O	1.556474	-0.062359	0.983295
O45	O	1.889808	0.270974	1.316629
O46	O	1.235000	-0.596624	0.412944
O47	O	1.568334	-0.263291	0.746278
O48	O	1.901667	0.070043	1.079611
O49	O	1.127703	-0.596123	0.509902
O50	O	1.461036	-0.262790	0.843235
O51	O	1.794369	0.070544	1.176568
C52	C	0.965377	-0.420587	0.450513
C53	C	1.298710	-0.087253	0.783846
C54	C	1.632044	0.246080	1.117180
C55	C	0.872948	-0.416219	0.445842
C56	C	1.206281	-0.082886	0.779175
C57	C	1.539614	0.250448	1.112509
C58	C	1.181360	-0.623245	0.461434
C59	C	1.514694	-0.289912	0.794767
C60	C	1.848027	0.043421	1.128100
C61	C	1.181406	-0.705562	0.461446
C62	C	1.514739	-0.372229	0.794780
C63	C	1.848072	-0.038895	1.128113
C64	C	0.703717	-0.408228	0.437321
C65	C	1.037051	-0.074894	0.770654
C66	C	1.370384	0.258439	1.103988
C67	C	0.659979	-0.453509	0.485695
C68	C	0.993312	-0.120176	0.819028
C69	C	1.326646	0.213158	1.152361
C70	C	0.565814	-0.449063	0.480954
C71	C	0.899147	-0.115729	0.814287
C72	C	1.232480	0.217604	1.147620
C73	C	0.797891	-0.412673	0.442061
C74	C	1.131225	-0.079340	0.775394
C75	C	1.464558	0.253994	1.108728
C76	C	1.181508	-1.004661	0.461528
C77	C	1.514841	-0.671328	0.794861
C78	C	1.848175	-0.337995	1.128194
C79	C	1.248846	-0.973605	0.400344
C80	C	1.582179	-0.640271	0.733677
C81	C	1.915513	-0.306938	1.067010
C82	C	1.249060	-0.888004	0.400522
C83	C	1.582393	-0.554670	0.733855
C84	C	1.915726	-0.221337	1.067188
C85	C	1.181457	-0.856275	0.461487
C86	C	1.514791	-0.522941	0.794820
C87	C	1.848124	-0.189608	1.128153
C88	C	1.200770	-0.892157	0.550340
C89	C	1.534103	-0.558824	0.883673
C90	C	1.867436	-0.225490	1.217006
C91	C	1.201283	-0.977810	0.550014
C92	C	1.534617	-0.644477	0.883347
C93	C	1.867950	-0.311144	1.216681
C94	C	1.094648	-0.968039	0.434609
C95	C	1.427981	-0.634706	0.767942
C96	C	1.761314	-0.301373	1.101275
C97	C	1.095182	-0.882327	0.432674
C98	C	1.428515	-0.548993	0.766007
C99	C	1.761848	-0.215660	1.099341
C100	C	1.181427	-0.772413	0.461469
C101	C	1.514760	-0.439080	0.794802
C102	C	1.848094	-0.105746	1.128135
C103	C	1.181540	-1.088523	0.461552
C104	C	1.514873	-0.755190	0.794885
C105	C	1.848207	-0.421856	1.128218
C106	C	1.398326	-0.441134	0.472485
C107	C	1.731659	-0.107800	0.805819
C108	C	2.064993	0.225533	1.139152
C109	C	1.490754	-0.445520	0.477176
C110	C	1.824088	-0.112187	0.810510
C111	C	2.157421	0.221147	1.143843
C112	C	1.170483	-0.440070	0.678371
C113	C	1.503816	-0.106736	1.011704
C114	C	1.837150	0.226597	1.345038
C115	C	1.165818	-0.444003	0.770798
C116	C	1.499152	-0.110669	1.104131
C117	C	1.832485	0.222664	1.437465
C118	C	1.181521	-0.237685	0.461541
C119	C	1.514854	0.095648	0.794874
C120	C	1.848187	0.428982	1.128208
C121	C	1.181560	-0.155374	0.461568
C122	C	1.514893	0.177960	0.794901
C123	C	1.848226	0.511293	1.128235
C124	C	1.192381	-0.421595	0.245430
C125	C	1.525715	-0.088261	0.578763
C126	C	1.859048	0.245072	0.912097
C127	C	1.197207	-0.417461	0.153012
C128	C	1.530541	-0.084127	0.486345
C129	C	1.863874	0.249206	0.819678
C130	C	1.157271	-0.451166	0.940022
C131	C	1.490604	-0.117832	1.273356
C132	C	1.823938	0.215501	1.606689
C133	C	1.205752	-0.410300	0.983793
C134	C	1.539085	-0.076966	1.317126
C135	C	1.872419	0.256367	1.650460
C136	C	1.200996	-0.414285	1.077955
C137	C	1.534330	-0.080952	1.411288
C138	C	1.867663	0.252381	1.744622
C139	C	1.162026	-0.447181	0.845851
C140	C	1.495359	-0.113848	1.179185
C141	C	1.828692	0.219486	1.512518
H142	H	0.693254	-0.495614	0.530670
H143	H	1.026587	-0.162280	0.864004
H144	H	1.359921	0.171053	1.197337
H145	H	1.044530	-0.988050	0.479117
H146	H	1.377864	-0.654717	0.812451
H147	H	1.711197	-0.321384	1.145784
O148	O	1.097566	-0.501473	0.984055
O149	O	1.430900	-0.168140	1.317388
O150	O	1.764233	0.165193	1.650722
H151	H	1.062778	-0.530796	0.937467
H152	H	1.396111	-0.197463	1.270801
H153	H	1.729445	0.135871	1.604134
O154	O	1.333734	-1.006938	0.424152
O155	O	1.667068	-0.673605	0.757485
O156	O	2.000401	-0.340272	1.090818
H157	H	1.380799	-0.984650	0.380572
H158	H	1.714132	-0.651317	0.713905
H159	H	2.047466	-0.317984	1.047239
O160	O	0.659653	-0.352477	0.377722
O161	O	0.992986	-0.019143	0.711056
O162	O	1.326320	0.314190	1.044389
H163	H	0.591536	-0.357708	0.383291
H164	H	0.924870	-0.024374	0.716624
H165	H	1.258203	0.308959	1.049958
O166	O	1.233755	-0.855613	0.313437
O167	O	1.567089	-0.522280	0.646770
O168	O	1.900422	-0.188946	0.980103
H169	H	1.226136	-0.901090	0.270815
H170	H	1.559470	-0.567756	0.604148
H171	H	1.892803	-0.234423	0.937481
O172	O	1.234272	-0.996950	0.313163
O173	O	1.567605	-0.663616	0.646497
O174	O	1.900939	-0.330283	0.979830
H175	H	1.178814	-1.030856	0.312485
H176	H	1.512148	-0.697522	0.645818
H177	H	1.845481	-0.364189	0.979152
H178	H	1.313491	-0.871185	0.418685
H179	H	1.646824	-0.537851	0.752018
H180	H	1.980157	-0.204518	1.085352
H181	H	1.264642	-1.001591	0.572299
H182	H	1.597975	-0.668258	0.905632
H183	H	1.931308	-0.334925	1.238966
H184	H	1.250829	-0.372319	0.950548
H185	H	1.584162	-0.038986	1.283881
H186	H	1.917496	0.294347	1.617215
H187	H	1.042670	-0.860418	0.473617
H188	H	1.376004	-0.527085	0.806950
H189	H	1.709337	-0.193751	1.140283
O190	O	1.138825	-1.005294	0.612774
O191	O	1.472159	-0.671960	0.946107
O192	O	1.805492	-0.338627	1.279440
H193	H	1.155874	-0.988202	0.675414
H194	H	1.489208	-0.654869	1.008747
H195	H	1.822541	-0.321536	1.342081
O196	O	1.137546	-0.865142	0.612614
O197	O	1.470879	-0.531808	0.945947
O198	O	1.804212	-0.198475	1.279280
H199	H	1.091580	-0.825757	0.580819
H200	H	1.424913	-0.492424	0.914153
H201	H	1.758247	-0.159090	1.247486
H202	H	1.263392	-0.874491	0.572910
H203	H	1.596725	-0.541158	0.906243
H204	H	1.930058	-0.207825	1.239576
O205	O	1.070240	-0.991799	0.349958
O206	O	1.403574	-0.658466	0.683291
O207	O	1.736907	-0.325132	1.016624
H208	H	1.066565	-1.052925	0.351780
H209	H	1.399898	-0.719592	0.685113
H210	H	1.733231	-0.386258	1.018446
H211	H	1.080539	-0.858460	0.367264
H212	H	1.413872	-0.525127	0.700597
H213	H	1.747206	-0.191793	1.033930
