data_functionalizedCrystal
_audit_creation_method	'MofGen! by Chris Wilmer'
_symmetry_space_group_name_H-M	'P1'
_symmetry_Int_Tables_number	1
_symmetry_cell_setting	triclinic
loop_
_symmetry_equiv_pos_as_xyz
  x,y,z
_cell_length_a	19.188930
_cell_length_b	18.266242
_cell_length_c	19.188930
_cell_angle_alpha	89.989745
_cell_angle_beta	96.855221
_cell_angle_gamma	90.022820
loop_
_atom_site_label
_atom_site_type_symbol
_atom_site_fract_x
_atom_site_fract_y
_atom_site_fract_z
O1	O	0.926149	0.061124	-0.087167
O2	O	0.722838	0.061075	-0.098902
O3	O	0.830361	0.061087	0.008621
O4	O	0.818627	0.061113	-0.194690
O5	O	0.830343	-0.060675	0.008624
O6	O	0.722820	-0.060687	-0.098899
O7	O	0.926131	-0.060638	-0.087164
Zn8	Zn	0.824473	-0.079994	-0.093031
Zn9	Zn	0.824497	0.080432	-0.093035
O10	O	0.818608	-0.060649	-0.194687
C11	C	0.696818	0.000188	-0.098520
C12	C	0.619313	0.000169	-0.097380
C13	C	0.574389	0.000188	-0.160470
C14	C	0.501566	0.000196	-0.159399
C15	C	0.473669	0.000199	-0.095233
C16	C	0.518603	0.000175	-0.032133
C17	C	0.591425	0.000160	-0.033207
N18	N	0.365695	0.041663	-0.046187
N19	N	0.296517	0.041679	-0.045171
C20	C	0.254260	0.000243	-0.091994
N21	N	0.283795	-0.041200	-0.139882
N22	N	0.352980	-0.041213	-0.140900
C23	C	0.394707	0.000215	-0.094062
C24	C	0.130372	0.000270	-0.153928
C25	C	0.057547	0.000274	-0.152853
C26	C	0.074586	0.000261	-0.025586
C27	C	0.147409	0.000250	-0.026662
C28	C	0.175298	0.000258	-0.090835
N29	N	0.824461	-0.189481	-0.093028
C30	C	0.866670	-0.227768	-0.135273
C31	C	0.866682	-0.304413	-0.135271
C32	C	0.824471	-0.342768	-0.093032
C33	C	0.782260	-0.304473	-0.050778
C34	C	0.782254	-0.227829	-0.050776
N35	N	0.763324	-0.463136	-0.091312
N36	N	0.763330	-0.535944	-0.091318
C37	C	0.824485	-0.573691	-0.093035
N38	N	0.885634	-0.535878	-0.094759
N39	N	0.885626	-0.463064	-0.094757
C40	C	0.824472	-0.425875	-0.093029
C41	C	0.866711	-0.695084	-0.135280
C42	C	0.866724	-0.771730	-0.135273
C43	C	0.782295	-0.771789	-0.050784
C44	C	0.782288	-0.695144	-0.050787
C45	C	0.824495	-0.656796	-0.093039
C46	C	0.952151	0.000252	-0.087546
C47	C	1.029656	0.000276	-0.088687
C48	C	0.829972	0.000204	0.034634
C49	C	0.828831	0.000197	0.112138
N50	N	0.824513	0.189919	-0.093033
C51	C	0.818997	0.000236	-0.220700
C52	C	0.820138	0.000247	-0.298204
C53	C	0.891922	0.000209	0.157062
C54	C	0.890850	0.000220	0.229886
C55	C	0.826684	0.000206	0.257782
C56	C	0.763585	0.000198	0.212849
C57	C	0.764658	0.000194	0.140026
N58	N	0.777631	-0.041244	0.365788
N59	N	0.776615	-0.041242	0.434967
C60	C	0.823446	0.000220	0.477191
N61	N	0.871341	0.041669	0.447625
N62	N	0.872359	0.041664	0.378440
C63	C	0.825513	0.000210	0.336745
C64	C	0.885379	0.000245	0.601079
C65	C	0.884305	0.000261	0.673904
C66	C	0.757038	0.000231	0.656865
C67	C	0.758114	0.000222	0.584042
C68	C	0.822287	0.000226	0.556154
H69	H	0.464982	0.000210	-0.210776
H70	H	0.706738	0.000208	0.547464
O71	O	0.160454	0.000265	-0.223141
H72	H	0.193246	0.049891	-0.226683
O73	O	0.961139	0.000225	0.126991
H74	H	0.964673	-0.049406	0.094234
H75	H	0.597091	0.000196	-0.212725
H76	H	0.901054	-0.335591	-0.169675
O77	O	0.958901	0.000220	0.278353
H78	H	0.989641	0.049846	0.268455
O79	O	0.736744	-0.186533	-0.005188
H80	H	0.743842	-0.126795	-0.012274
O81	O	0.912239	-0.653714	-0.180840
H82	H	0.941602	-0.693217	-0.210208
O83	O	0.009093	0.000289	-0.220908
H84	H	-0.046231	0.000288	-0.209382
O85	O	0.736758	-0.653855	-0.005217
H86	H	0.770349	-0.618938	0.032397
O87	O	0.044504	0.000255	0.043622
H88	H	0.087981	0.000235	0.087314
O89	O	0.954589	0.000263	0.570991
H90	H	0.998282	0.000287	0.614467
H91	H	0.747892	-0.335707	-0.016386
H92	H	0.901100	-0.802902	-0.169673
H93	H	0.935683	0.000274	0.710481
H94	H	0.747927	-0.803018	-0.016391
O95	O	0.687830	0.000210	0.686947
H96	H	0.657531	0.049832	0.668880
O97	O	0.696604	0.000171	0.091572
H98	H	0.694051	0.049797	0.057976
O99	O	0.694375	0.000173	0.242930
H100	H	0.704227	0.000168	0.301116
H101	H	0.628003	0.000145	0.018171
O102	O	0.488521	0.000179	0.037077
H103	H	0.430335	0.000200	0.027225
H104	H	0.183988	0.000238	0.024713
O105	O	0.912193	-0.186405	-0.180841
H106	H	0.941549	-0.225909	-0.210214
