data_functionalizedCrystal
_audit_creation_method	'MofGen! by Chris Wilmer'
_symmetry_space_group_name_H-M	'P1'
_symmetry_Int_Tables_number	1
_symmetry_cell_setting	triclinic
loop_
_symmetry_equiv_pos_as_xyz
  x,y,z
_cell_length_a	17.699092
_cell_length_b	15.625711
_cell_length_c	16.776229
_cell_angle_alpha	71.936501
_cell_angle_beta	89.995030
_cell_angle_gamma	96.209886
loop_
_atom_site_label
_atom_site_type_symbol
_atom_site_fract_x
_atom_site_fract_y
_atom_site_fract_z
O1	O	0.098896	-1.195835	0.279211
O2	O	0.110650	-0.933371	0.203380
O3	O	-0.005396	-1.072014	0.243439
O4	O	0.214942	-1.057191	0.239152
O5	O	-0.005403	-1.071996	0.376010
O6	O	0.110643	-0.933352	0.335951
O7	O	0.098889	-1.195817	0.411783
Zn8	Zn	0.104765	-1.064582	0.394915
Zn9	Zn	0.104774	-1.064606	0.220247
O10	O	0.214935	-1.057173	0.371724
C11	C	0.110111	-0.899779	0.259963
C12	C	0.108506	-0.799716	0.231052
C13	C	-0.033598	-1.071473	0.309569
C14	C	-0.117620	-1.069876	0.309104
C15	C	0.103249	-0.470476	0.497194
C16	C	0.101756	-0.376449	0.469991
C17	C	0.101764	-0.376516	0.325481
C18	C	0.103261	-0.470544	0.352672
C19	C	0.104003	-0.517517	0.438529
C20	C	0.104015	-0.517585	0.294007
C21	C	0.105508	-0.611606	0.321196
C22	C	0.106247	-0.658586	0.407050
C23	C	0.105496	-0.611538	0.465719
C24	C	0.103268	-0.470612	0.208150
C25	C	0.104022	-0.517652	0.149485
C26	C	0.105520	-0.611674	0.176674
C27	C	0.106259	-0.658654	0.262528
C28	C	0.106272	-0.658722	0.118005
C29	C	0.107764	-0.752743	0.145195
C30	C	0.107752	-0.752675	0.289717
C31	C	-0.157085	-1.069137	0.236622
C32	C	-0.236032	-1.067631	0.236186
C33	C	-0.275513	-1.066869	0.308234
C34	C	-0.236042	-1.067605	0.380721
C35	C	-0.157095	-1.069105	0.381154
C36	C	-0.554423	-1.061554	0.378974
C37	C	-0.633375	-1.060057	0.378536
C38	C	-0.633360	-1.060080	0.234006
C39	C	-0.554413	-1.061580	0.234439
C40	C	-0.514948	-1.062311	0.306924
C41	C	-0.429345	-1.063943	0.307395
C42	C	-0.361116	-1.065244	0.307765
C43	C	0.243137	-1.057715	0.305591
C44	C	0.327159	-1.059312	0.306051
N45	N	0.104758	-1.064572	0.514124
C46	C	0.099423	-0.229409	0.355210
C47	C	0.101012	-0.329475	0.384151
N48	N	0.104775	-1.064623	0.101041
C49	C	0.053394	-1.125982	0.573584
C50	C	0.053393	-1.125987	0.657038
C51	C	0.104761	-1.064585	0.681030
C52	C	0.156127	-1.003169	0.621562
C53	C	0.156124	-1.003160	0.538109
C54	C	0.156142	-1.003201	0.958119
C55	C	0.156143	-1.003216	1.041580
C56	C	0.053412	-1.126028	1.077048
C57	C	0.053408	-1.126019	0.993594
C58	C	0.104772	-1.064600	0.934133
C59	C	0.104771	-1.064594	0.843643
C60	C	0.104766	-1.064595	0.771520
H61	H	0.108367	-0.790921	0.359630
H62	H	-0.124962	-1.069693	0.440173
O63	O	0.101152	-0.330963	0.242055
C64	C	0.167032	-0.343603	0.201765
H65	H	0.189947	-0.408415	0.241058
H66	H	0.152365	-0.349171	0.137258
H67	H	0.212053	-0.283447	0.194397
O68	O	-0.516172	-1.062165	0.449409
C69	C	-0.526971	-0.983755	0.470725
H70	H	-0.581453	-0.956638	0.442332
H71	H	-0.531604	-1.001265	0.541893
H72	H	-0.476591	-0.929959	0.445187
O73	O	-0.274512	-1.066906	0.450650
C74	C	-0.352654	-1.065406	0.434722
H75	H	-0.366531	-1.093733	0.380795
H76	H	-0.387414	-1.108581	0.493349
H77	H	-0.367203	-0.992694	0.417143
H78	H	0.011568	-1.175986	0.554058
O79	O	0.003479	-1.185738	0.714702
C80	C	-0.041865	-1.239923	0.675628
H81	H	-0.010835	-1.240853	0.616405
H82	H	-0.053280	-1.311937	0.720530
H83	H	-0.098146	-1.210797	0.658355
O84	O	0.108603	-0.798530	0.088287
C85	C	0.174973	-0.842565	0.096699
H86	H	0.197026	-0.853167	0.162515
H87	H	0.161295	-0.911023	0.085915
H88	H	0.220265	-0.799115	0.048469
H89	H	0.011587	-1.176036	1.125471
O90	O	0.003367	-1.185473	0.970212
C91	C	-0.043405	-1.137174	0.908113
H92	H	-0.013271	-1.066640	0.875181
H93	H	-0.055497	-1.174808	0.860323
H94	H	-0.099266	-1.131017	0.938620
H95	H	0.197974	-0.953213	1.061110
H96	H	0.103864	-0.508723	0.567107
O97	O	0.206111	-0.943512	0.900480
C98	C	0.251437	-0.889310	0.939553
H99	H	0.252352	-0.926275	1.009709
H100	H	0.311859	-0.875420	0.911424
H101	H	0.226754	-0.822408	0.929120
H102	H	0.197949	-0.953170	0.641100
H103	H	0.197948	-0.953153	0.489695
O104	O	0.107589	-0.749936	0.433375
C105	C	0.042581	-0.791700	0.405829
H106	H	0.019894	-0.740986	0.348956
H107	H	0.058306	-0.852303	0.387835
H108	H	-0.003022	-0.815582	0.458421
O109	O	0.106083	-0.657159	0.549137
C110	C	0.040230	-0.644483	0.589448
H111	H	-0.005956	-0.625872	0.541784
H112	H	0.019225	-0.709772	0.641104
H113	H	0.054172	-0.587557	0.618055
O114	O	0.103410	-0.472099	0.066060
C115	C	0.169289	-0.484740	0.025769
H116	H	0.192204	-0.549552	0.065063
H117	H	0.154623	-0.490308	-0.038738
H118	H	0.214310	-0.424584	0.018402
H119	H	-0.522273	-1.062205	0.175771
H120	H	0.105660	-0.620464	0.048100
O121	O	0.101061	-0.330887	0.527093
C122	C	0.102014	-0.392516	0.608701
H123	H	0.127023	-0.455768	0.605808
H124	H	0.138291	-0.359533	0.649712
H125	H	0.041499	-0.412079	0.636574
O126	O	0.101757	-0.379289	0.181595
C127	C	0.101262	-0.347917	0.093238
H128	H	0.078206	-0.405909	0.069086
H129	H	0.063519	-0.290840	0.072342
H130	H	0.161660	-0.321632	0.066837
O131	O	-0.118759	-1.069712	0.166561
C132	C	-0.129588	-0.991322	0.099948
H133	H	-0.145359	-0.936365	0.126363
H134	H	-0.074825	-0.966113	0.059875
H135	H	-0.177334	-1.008098	0.059739
O136	O	-0.274482	-1.066876	0.165838
C137	C	-0.352629	-1.065407	0.180906
H138	H	-0.360315	-1.036660	0.234708
H139	H	-0.377872	-1.021101	0.121946
H140	H	-0.382893	-1.137269	0.198248
O141	O	-0.671718	-1.059194	0.163565
C142	C	-0.708910	-0.980297	0.136459
H143	H	-0.679186	-0.926203	0.161840
H144	H	-0.706958	-0.954093	0.064970
H145	H	-0.770661	-0.996796	0.160648
H146	H	-0.665518	-1.059434	0.437209
