data_functionalizedCrystal
_audit_creation_method	'MofGen! by Chris Wilmer'
_symmetry_space_group_name_H-M	'P1'
_symmetry_Int_Tables_number	1
_symmetry_cell_setting	triclinic
loop_
_symmetry_equiv_pos_as_xyz
  x,y,z
_cell_length_a	12.759395
_cell_length_b	16.120484
_cell_length_c	12.759387
_cell_angle_alpha	92.862335
_cell_angle_beta	89.982262
_cell_angle_gamma	92.925231
loop_
_atom_site_label
_atom_site_type_symbol
_atom_site_fract_x
_atom_site_fract_y
_atom_site_fract_z
Zn1	Zn	1.584967	-0.331855	-0.615139
Zn2	Zn	2.084967	0.168145	-0.115139
Zn3	Zn	1.575920	-0.471294	-0.448352
Zn4	Zn	2.075920	0.028706	0.051648
Zn5	Zn	1.409268	-0.331900	-0.439482
Zn6	Zn	1.909268	0.168100	0.060518
Zn7	Zn	1.400319	-0.471228	-0.623990
Zn8	Zn	1.900319	0.028772	-0.123990
O9	O	1.492618	-0.401569	-0.531740
O10	O	1.992618	0.098431	-0.031740
O11	O	1.730788	-0.350362	-0.593022
O12	O	2.230788	0.149638	-0.093022
O13	O	1.553772	-0.452850	-0.300157
O14	O	2.053772	0.047150	0.199843
O15	O	1.440106	-0.215229	-0.455366
O16	O	1.940106	0.284771	0.044634
O17	O	1.724141	-0.452807	-0.470484
O18	O	2.224141	0.047193	0.029516
O19	O	1.569192	-0.215196	-0.584421
O20	O	2.069192	0.284804	-0.084421
O21	O	1.431333	-0.350437	-0.293640
O22	O	1.931333	0.149563	0.206360
O23	O	1.261060	-0.350373	-0.463949
O24	O	1.761060	0.149627	0.036051
O25	O	1.424854	-0.452694	-0.769834
O26	O	1.924854	0.047306	-0.269834
O27	O	1.254485	-0.452737	-0.599506
O28	O	1.754485	0.047263	-0.099506
O29	O	1.560514	-0.350297	-0.763331
O30	O	2.060514	0.149703	-0.263331
O31	O	1.545095	-0.587951	-0.479067
O32	O	2.045095	-0.087951	0.020933
O33	O	1.416081	-0.587902	-0.608107
O34	O	1.916081	-0.087902	-0.108107
C35	C	1.219652	-0.401553	-0.531726
C36	C	1.719652	0.098447	-0.031726
C37	C	1.102874	-0.401566	-0.531747
C38	C	1.602874	0.098434	-0.031747
C39	C	1.109766	-0.295062	-0.659573
C40	C	1.609766	0.204938	-0.159573
C41	C	1.058350	-0.241820	-0.723496
C42	C	1.558350	0.258180	-0.223496
C43	C	0.948627	-0.241835	-0.723510
C44	C	1.448627	0.258165	-0.223510
C45	C	0.890318	-0.295096	-0.659592
C46	C	1.390318	0.204904	-0.159592
C47	C	0.941734	-0.348337	-0.595670
C48	C	1.441734	0.151663	-0.095670
C49	C	1.051459	-0.348319	-0.595665
C50	C	1.551459	0.151681	-0.095665
C51	C	0.934843	-0.454836	-0.467839
C52	C	1.434843	0.045164	0.032161
C53	C	1.044565	-0.454826	-0.467829
C54	C	1.544565	0.045174	0.032171
C55	C	0.876533	-0.508096	-0.403921
C56	C	1.376533	-0.008096	0.096079
C57	C	0.927949	-0.561343	-0.340003
C58	C	1.427949	-0.061343	0.159997
C59	C	1.037678	-0.561327	-0.339992
C60	C	1.537678	-0.061327	0.160008
C61	C	1.095981	-0.508068	-0.403907
C62	C	1.595981	-0.008068	0.096093
C63	C	1.478664	-0.618176	-0.545533
C64	C	1.978664	-0.118176	-0.045533
C65	C	1.472790	-0.710842	-0.551468
C66	C	1.972790	-0.210842	-0.051468
C67	C	1.462072	-0.880502	-0.562327
C68	C	1.962072	-0.380502	-0.062327
C69	C	1.523353	-0.921796	-0.501171
C70	C	2.023353	-0.421796	-0.001171
C71	C	1.517390	-1.016201	-0.507213
C72	C	2.017390	-0.516201	-0.007213
C73	C	1.468034	-0.786089	-0.556287
C74	C	1.968034	-0.286089	-0.056287
C75	C	1.766651	-0.401587	-0.531755
C76	C	2.266651	0.098413	-0.031755
C77	C	1.883427	-0.401594	-0.531761
C78	C	2.383427	0.098406	-0.031761
C79	C	1.492695	-0.401483	-0.805768
C80	C	1.992695	0.098517	-0.305768
C81	C	1.492728	-0.401447	-0.922543
C82	C	1.992728	0.098553	-0.422543
C83	C	1.506656	-0.184117	-0.517917
C84	C	2.006656	0.315883	-0.017917
C85	C	1.512638	-0.091451	-0.512026
C86	C	2.012638	0.408549	-0.012026
C87	C	1.365242	-0.294797	-0.915775
C88	C	1.865242	0.205203	-0.415775
C89	C	1.301519	-0.241456	-0.967251
C90	C	1.801519	0.258544	-0.467251
C91	C	1.301552	-0.241426	-1.076971
C92	C	1.801552	0.258574	-0.576971
C93	C	1.365313	-0.294744	-1.135218
C94	C	1.865313	0.205256	-0.635218
C95	C	1.429036	-0.348086	-1.083742
C96	C	1.929036	0.151914	-0.583742
C97	C	1.428998	-0.348108	-0.974019
C98	C	1.928998	0.151892	-0.474019
C99	C	1.556515	-0.454738	-1.090510
C100	C	2.056515	0.045262	-0.590510
C101	C	1.556489	-0.454765	-0.980790
C102	C	2.056489	0.045235	-0.480790
C103	C	1.620276	-0.508057	-1.148756
C104	C	2.120276	-0.008057	-0.648756
C105	C	1.684006	-0.561395	-1.097280
C106	C	2.184006	-0.061395	-0.597280
C107	C	1.683970	-0.561423	-0.987553
C108	C	2.183970	-0.061423	-0.487553
C109	C	1.620211	-0.508107	-0.929314
C110	C	2.120211	-0.008107	-0.429314
C111	C	1.492606	-0.401595	-0.258774
C112	C	1.992606	0.098405	0.241226
C113	C	1.492792	-0.401397	-0.141986
C114	C	1.992792	0.098603	0.358014
H115	H	1.199108	-0.295041	-0.659563
H116	H	1.699108	0.204959	-0.159563
Cl117	Cl	1.620166	-0.508133	-0.791378
Cl118	Cl	2.120166	-0.008133	-0.291378
H119	H	1.735910	-0.604806	-1.144713
H120	H	2.235910	-0.104806	-0.644713
H121	H	1.365217	-0.294810	-0.826435
H122	H	1.865217	0.205190	-0.326435
Cl123	Cl	1.611265	-0.866916	-0.413324
Cl124	Cl	2.111265	-0.366916	0.086676
Cl125	Cl	1.620307	-0.508027	-1.286691
Cl126	Cl	2.120307	-0.008027	-0.786691
Cl127	Cl	1.102306	-0.628261	-0.259623
Cl128	Cl	1.602306	-0.128261	0.240377
Cl129	Cl	1.764078	-0.628490	-0.922851
Cl130	Cl	2.264078	-0.128490	-0.422851
H131	H	1.405133	-0.916048	-0.619217
H132	H	1.905133	-0.416048	-0.119217
Cl133	Cl	1.221385	-0.174416	-0.894022
Cl134	Cl	1.721385	0.325584	-0.394022
Cl135	Cl	0.752381	-0.295102	-0.659598
Cl136	Cl	1.252381	0.204898	-0.159598
H137	H	0.906765	-0.198476	-0.775554
H138	H	1.406765	0.301524	-0.275554
Cl139	Cl	1.365333	-0.294719	-1.273153
Cl140	Cl	1.865333	0.205281	-0.773153
Cl141	Cl	1.131657	-0.174867	-0.803844
Cl142	Cl	1.631657	0.325133	-0.303844
H143	H	1.249662	-0.197992	-1.118883
H144	H	1.749662	0.302008	-0.618883
H145	H	0.880465	-0.604700	-0.287962
H146	H	1.380465	-0.104700	0.212038
Cl147	Cl	0.738596	-0.508112	-0.403934
Cl148	Cl	1.238596	-0.008112	0.096066
H149	H	1.185323	-0.508046	-0.403899
H150	H	1.685323	-0.008046	0.096101
