data_functionalizedCrystal
_audit_creation_method	'MofGen! by Chris Wilmer'
_symmetry_space_group_name_H-M	'P1'
_symmetry_Int_Tables_number	1
_symmetry_cell_setting	triclinic
loop_
_symmetry_equiv_pos_as_xyz
  x,y,z
_cell_length_a	11.792254
_cell_length_b	12.503572
_cell_length_c	14.044220
_cell_angle_alpha	86.156832
_cell_angle_beta	91.306263
_cell_angle_gamma	86.456155
loop_
_atom_site_label
_atom_site_type_symbol
_atom_site_fract_x
_atom_site_fract_y
_atom_site_fract_z
O1	O	-1.525103	0.089354	0.124589
O2	O	-1.025103	0.589354	0.624589
O3	O	-1.196020	0.089350	0.137974
O4	O	-0.696020	0.589350	0.637974
O5	O	-1.355622	0.089342	-0.006728
O6	O	-0.855622	0.589342	0.493272
O7	O	-1.365502	0.089363	0.269291
O8	O	-0.865502	0.589363	0.769291
O9	O	-1.343620	-0.089300	0.004173
O10	O	-0.843620	0.410700	0.504173
O11	O	-1.184019	-0.089291	0.148874
O12	O	-0.684019	0.410709	0.648874
O13	O	-1.513102	-0.089287	0.135490
O14	O	-1.013102	0.410713	0.635490
Cu15	Cu	-1.347465	-0.105600	0.143177
Cu16	Cu	-0.847465	0.394400	0.643177
Cu17	Cu	-1.361658	0.105664	0.130286
Cu18	Cu	-0.861658	0.605664	0.630286
O19	O	-1.353501	-0.089278	0.280192
O20	O	-0.853501	0.410722	0.780192
C21	C	-1.147650	0.000029	0.142581
C22	C	-0.647650	0.500029	0.642581
C23	C	-1.021400	0.000027	0.140057
C24	C	-0.521400	0.500027	0.640057
C25	C	-0.918871	0.000029	0.138007
C26	C	-0.418871	0.500029	0.638007
C27	C	-0.790244	0.000027	0.135443
C28	C	-0.290244	0.500027	0.635443
N29	N	-1.337491	-0.254192	0.152244
N30	N	-0.837491	0.245808	0.652244
C31	C	-1.322819	-0.473306	0.165589
C32	C	-0.822819	0.026694	0.665589
C33	C	-1.386308	-0.526637	0.107870
C34	C	-0.886308	-0.026637	0.607870
C35	C	-1.378145	-0.648560	0.115296
C36	C	-0.878145	-0.148560	0.615296
C37	C	-1.330981	-0.351373	0.158165
C38	C	-0.830981	0.148627	0.658165
C39	C	-0.561473	0.000032	0.130883
C40	C	-0.061473	0.500032	0.630883
C41	C	-0.687722	0.000025	0.133407
C42	C	-0.187722	0.500025	0.633407
C43	C	-1.345297	0.000021	-0.036615
C44	C	-0.845297	0.500021	0.463385
C45	C	-1.332398	0.000019	-0.141907
C46	C	-0.832398	0.500019	0.358093
N47	N	-1.371640	0.254255	0.121212
N48	N	-0.871640	0.754255	0.621212
C49	C	-1.308817	0.000034	-0.334691
C50	C	-0.808817	0.500034	0.165309
C51	C	-1.400302	0.000039	-0.391851
C52	C	-0.900302	0.500039	0.108149
C53	C	-1.387181	0.000047	-0.499123
C54	C	-0.887181	0.500047	0.000877
C55	C	-1.321936	0.000026	-0.227409
C56	C	-0.821936	0.500026	0.272591
C57	C	-1.363826	0.000045	0.310078
C58	C	-0.863826	0.500045	0.810078
C59	C	-1.376726	0.000054	0.415370
C60	C	-0.876726	0.500054	0.915370
H61	H	-1.446795	-0.480727	0.052880
H62	H	-0.946795	0.019273	0.552880
H63	H	-1.488483	0.000112	-0.360228
H64	H	-0.988483	0.500112	0.139772
H65	H	-1.220647	0.000036	-0.366317
H66	H	-0.720647	0.500036	0.133683
H67	H	-1.262338	-0.519211	0.220577
H68	H	-0.762338	-0.019211	0.720577
