data_functionalizedCrystal
_audit_creation_method	'MofGen! by Chris Wilmer'
_symmetry_space_group_name_H-M	'P1'
_symmetry_Int_Tables_number	1
_symmetry_cell_setting	triclinic
loop_
_symmetry_equiv_pos_as_xyz
  x,y,z
_cell_length_a	17.699083
_cell_length_b	19.188930
_cell_length_c	16.776229
_cell_angle_alpha	89.988225
_cell_angle_beta	89.998886
_cell_angle_gamma	83.213899
loop_
_atom_site_label
_atom_site_type_symbol
_atom_site_fract_x
_atom_site_fract_y
_atom_site_fract_z
O1	O	1.003962	0.088294	-0.066185
O2	O	0.783569	0.099782	-0.066213
O3	O	0.900126	-0.007611	-0.066183
O4	O	0.887405	0.195686	-0.066215
O5	O	0.900110	-0.007617	0.066394
O6	O	0.783553	0.099775	0.066364
O7	O	1.003947	0.088288	0.066391
Zn8	Zn	0.893748	0.094030	0.087427
Zn9	Zn	0.893768	0.094039	-0.087249
O10	O	0.887390	0.195680	0.066361
C11	C	0.755365	0.099367	0.000072
C12	C	0.671348	0.098132	0.000062
C13	C	0.899706	-0.033625	0.000108
C14	C	0.898469	-0.111131	0.000114
C15	C	0.622644	0.161169	0.000053
C16	C	0.543702	0.160004	0.000063
C17	C	0.513466	0.095802	0.000078
C18	C	0.562176	0.032761	0.000090
C19	C	0.641117	0.033926	0.000085
C20	C	0.243819	0.028060	0.000111
C21	C	0.164873	0.026900	0.000113
C22	C	0.146405	0.154139	0.000088
C23	C	0.225345	0.155304	0.000084
C24	C	0.274049	0.092263	0.000100
C25	C	0.359646	0.093526	0.000090
C26	C	0.427870	0.094538	0.000082
C27	C	0.966861	-0.155978	0.000127
C28	C	0.965699	-0.228804	0.000114
C29	C	0.896142	-0.256778	0.000105
C30	C	0.827741	-0.211921	0.000088
C31	C	0.828905	-0.139098	0.000093
N32	N	0.842969	-0.364845	0.045216
N33	N	0.841868	-0.434025	0.045213
C34	C	0.892632	-0.476191	0.000088
N35	N	0.944550	-0.446565	-0.045024
N36	N	0.945653	-0.377379	-0.045018
C37	C	0.894873	-0.335742	0.000099
C38	C	0.959769	-0.600004	0.000085
C39	C	0.958604	-0.672830	0.000067
C40	C	0.820644	-0.655946	0.000049
C41	C	0.821811	-0.583121	0.000059
C42	C	0.891375	-0.555155	0.000081
C43	C	1.032151	0.088703	0.000104
C44	C	1.116167	0.089938	0.000109
C45	C	0.887810	0.221695	0.000069
C46	C	0.889046	0.299201	0.000057
N47	N	0.893739	0.094024	0.206638
N48	N	0.893782	0.094040	-0.206460
C49	C	0.945366	0.046490	0.248368
C50	C	0.945370	0.046490	0.331821
C51	C	0.893751	0.094027	0.373541
C52	C	0.842118	0.141563	0.331805
C53	C	0.842111	0.141559	0.248354
C54	C	0.842146	0.141576	0.668352
C55	C	0.842158	0.141578	0.751808
C56	C	0.945405	0.046507	0.751818
C57	C	0.945398	0.046503	0.668368
C58	C	0.893763	0.094037	0.626639
C59	C	0.893758	0.094036	0.536150
C60	C	0.893759	0.094031	0.464028
H61	H	0.647256	0.213450	0.000040
H62	H	0.987447	0.007800	0.785803
C63	C	0.744130	-0.686706	0.000036
H64	H	0.703564	-0.649562	0.000027
H65	H	0.740801	-0.714776	0.046264
H66	H	0.740816	-0.714750	-0.046207
H67	H	1.021394	-0.265325	0.000121
H68	H	0.987404	0.007783	0.214405
C69	C	0.751230	-0.242690	0.000081
H70	H	0.760332	-0.292485	0.000088
H71	H	0.723084	-0.227279	-0.046155
H72	H	0.723076	-0.227295	0.046316
C73	C	0.490131	0.229345	0.000050
H74	H	0.519445	0.267748	0.000030
H75	H	0.458955	0.231537	0.046284
H76	H	0.458951	0.231535	-0.046186
C77	C	0.753671	-0.089763	0.000087
H78	H	0.712077	-0.116851	0.000083
H79	H	0.751263	-0.060990	-0.046141
H80	H	0.751254	-0.061019	0.046330
C81	C	1.036285	-0.569237	0.000100
H82	H	1.076851	-0.606380	0.000094
H83	H	1.039602	-0.541192	0.046336
H84	H	1.039610	-0.541168	-0.046134
H85	H	1.014299	-0.709345	0.000073
C86	C	0.785360	0.193858	0.797700
H87	H	0.754599	0.222160	0.760896
H88	H	0.812478	0.222898	0.830247
H89	H	0.753951	0.168761	0.830260
H90	H	0.249959	0.207584	0.000068
H91	H	0.766119	-0.546605	0.000054
C92	C	1.002167	-0.005791	0.377721
H93	H	1.032917	-0.034095	0.340922
H94	H	0.975052	-0.034828	0.410289
H95	H	1.033588	0.019301	0.410261
H96	H	0.987434	0.007797	0.634402
C97	C	0.092833	0.223486	0.000076
H98	H	0.122148	0.261888	0.000056
H99	H	0.061655	0.225681	0.046308
H100	H	0.061655	0.225675	-0.046162
H101	H	0.140258	-0.025384	0.000126
C102	C	0.785356	0.193867	0.622460
H103	H	0.754623	0.222182	0.659262
H104	H	0.753930	0.168789	0.589917
H105	H	0.812485	0.222901	0.589896
H106	H	0.283465	-0.023272	0.000125
H107	H	0.800085	0.180266	0.365778
H108	H	0.537552	-0.019514	0.000113
C109	C	0.694694	-0.035413	0.000095
H110	H	0.746038	-0.025524	0.000099
H111	H	0.685553	-0.061745	-0.046130
H112	H	0.685552	-0.061743	0.046340
C113	C	1.043379	-0.125219	0.000136
H114	H	1.083944	-0.162363	0.000134
H115	H	1.046699	-0.097168	0.046368
H116	H	1.046703	-0.097156	-0.046103
H117	H	0.800070	0.180265	0.214378
