data_functionalizedCrystal
_audit_creation_method	'MofGen! by Chris Wilmer'
_symmetry_space_group_name_H-M	'P1'
_symmetry_Int_Tables_number	1
_symmetry_cell_setting	triclinic
loop_
_symmetry_equiv_pos_as_xyz
  x,y,z
_cell_length_a	6.817900
_cell_length_b	11.168121
_cell_length_c	12.257928
_cell_angle_alpha	87.766217
_cell_angle_beta	72.012007
_cell_angle_gamma	108.508496
loop_
_atom_site_label
_atom_site_type_symbol
_atom_site_fract_x
_atom_site_fract_y
_atom_site_fract_z
V1	V	-4.103874	-0.174982	0.357669
O2	O	-4.063573	0.008123	0.350851
O3	O	-4.080202	-0.346685	0.355232
O4	O	-4.077544	-0.172415	0.513657
O5	O	-4.066249	-0.167353	0.191330
V6	V	-4.581438	-0.153065	0.337772
O7	O	-4.378204	-0.223057	0.401314
O8	O	-4.757305	-0.104990	0.294128
O9	O	-4.381903	0.018638	0.340209
O10	O	-4.739135	-0.336171	0.344591
O11	O	-4.736459	-0.160694	0.504112
O12	O	-4.384561	-0.155632	0.181785
C13	C	-3.930505	-0.388539	0.349592
C14	C	-3.992584	-0.528909	0.348640
C15	C	-4.195009	-0.597606	0.353656
C16	C	-4.259176	-0.742686	0.352671
C17	C	-3.927112	-0.166239	0.551677
C18	C	-3.987032	-0.165276	0.679198
C19	C	-4.096697	-0.163516	0.912671
C20	C	-4.035663	-0.164495	0.782750
C21	C	-4.194943	0.060485	0.345846
C22	C	-4.112102	0.200854	0.346806
C23	C	-4.205297	-0.161806	1.143758
C24	C	-4.145363	-0.162741	1.016233
H25	H	-4.432579	-0.801738	0.356952
H26	H	-3.938686	-0.740099	0.342508
H27	H	-4.320811	-0.549013	0.358685
H28	H	-3.866789	-0.577504	0.343623
