data_functionalizedCrystal
_audit_creation_method	'MofGen! by Chris Wilmer'
_symmetry_space_group_name_H-M	'P1'
_symmetry_Int_Tables_number	1
_symmetry_cell_setting	triclinic
loop_
_symmetry_equiv_pos_as_xyz
  x,y,z
_cell_length_a	19.288864
_cell_length_b	14.044220
_cell_length_c	18.366186
_cell_angle_alpha	89.993222
_cell_angle_beta	89.977106
_cell_angle_gamma	88.162561
loop_
_atom_site_label
_atom_site_type_symbol
_atom_site_fract_x
_atom_site_fract_y
_atom_site_fract_z
O1	O	0.928948	0.118214	-0.060787
O2	O	0.727712	0.134161	-0.060738
O3	O	0.825310	-0.011784	-0.060755
O4	O	0.831351	0.264160	-0.060770
O5	O	0.825291	-0.011791	0.060345
O6	O	0.727694	0.134154	0.060362
O7	O	0.928930	0.118207	0.060312
Zn8	Zn	0.828309	0.126180	0.079564
Zn9	Zn	0.828333	0.126189	-0.079990
O10	O	0.831332	0.264152	0.060329
C11	C	0.701794	0.133645	-0.000182
C12	C	0.624591	0.132104	-0.000163
C13	C	0.585397	0.217738	-0.000179
C14	C	0.512857	0.216291	-0.000187
C15	C	0.479514	0.129205	-0.000193
C16	C	0.518717	0.043560	-0.000173
C17	C	0.591256	0.045010	-0.000157
C18	C	0.366860	0.060749	-0.042640
C19	C	0.294322	0.059303	-0.042660
C20	C	0.255781	0.124731	-0.000237
C21	C	0.289785	0.191621	0.042196
C22	C	0.362323	0.193071	0.042212
C23	C	0.400858	0.127624	-0.000209
C24	C	0.137930	0.208802	-0.000261
C25	C	0.065389	0.207351	-0.000264
C26	C	0.071251	0.034617	-0.000257
C27	C	0.143790	0.036071	-0.000247
C28	C	0.177126	0.123165	-0.000252
C29	C	0.822656	-0.047091	-0.000204
C30	C	0.814768	-0.152283	-0.000201
C31	C	0.800348	-0.344882	-0.000208
C32	C	0.856291	-0.402755	-0.000224
C33	C	0.848267	-0.509924	-0.000228
C34	C	0.808370	-0.237703	-0.000204
C35	C	0.954848	0.118724	-0.000245
C36	C	1.032051	0.120264	-0.000269
C37	C	0.833986	0.299459	-0.000223
C38	C	0.841874	0.404651	-0.000231
N39	N	0.828297	0.126173	0.188455
N40	N	0.828350	0.126188	-0.188881
C41	C	0.871531	0.061580	0.226548
C42	C	0.871535	0.061575	0.302776
C43	C	0.828313	0.126180	0.340908
C44	C	0.785071	0.190778	0.302806
C45	C	0.785063	0.190774	0.226579
C46	C	0.824562	0.212524	0.461665
C47	C	0.824575	0.212529	0.537890
C48	C	0.828333	0.126192	0.576015
C49	C	0.832093	0.039847	0.537907
C50	C	0.832085	0.039843	0.461681
C51	C	0.828316	0.126191	0.423563
C52	C	0.871574	0.061589	0.696763
C53	C	0.871573	0.061584	0.772993
C54	C	0.785113	0.190795	0.773021
C55	C	0.785110	0.190792	0.696793
C56	C	0.828344	0.126190	0.658669
H57	H	0.480939	0.286027	-0.000198
O58	O	0.728929	-0.385866	-0.000183
H59	H	0.700327	-0.361414	-0.049532
H60	H	0.835145	-0.030463	0.430656
H61	H	0.906733	0.008975	0.195510
H62	H	0.266642	0.004840	-0.077215
O63	O	0.918174	-0.008085	0.343877
H64	H	0.948240	-0.053001	0.304560
H65	H	0.044104	-0.036290	-0.000308
H66	H	0.491565	-0.027346	-0.000188
H67	H	0.906777	0.008980	0.804009
H68	H	0.910212	-0.371814	-0.000286
O69	O	0.918172	-0.008113	0.655628
H70	H	0.954396	0.031639	0.620870
H71	H	0.835153	-0.030457	0.568947
O72	O	0.248225	0.262198	0.087957
H73	H	0.262456	0.252696	0.146116
O74	O	0.399004	0.265175	0.088005
H75	H	0.360024	0.310417	0.117517
H76	H	0.165073	0.279719	-0.000254
H77	H	0.749918	0.243394	0.804067
O78	O	0.738423	0.260442	0.185492
H79	H	0.745675	0.249579	0.126082
H80	H	0.749908	0.243394	0.665776
O81	O	0.738464	0.260477	0.343927
H82	H	0.683579	0.248595	0.329337
H83	H	0.821518	0.282836	0.568912
O84	O	0.820514	0.305649	0.420544
H85	H	0.817914	0.365689	0.459847
H86	H	0.175703	-0.033662	-0.000237
H87	H	0.033478	0.277088	-0.000273
H88	H	0.398235	0.007467	-0.077190
O89	O	0.621353	0.311671	-0.000164
H90	H	0.581907	0.370976	-0.000165
O91	O	0.633537	-0.047356	-0.000143
H92	H	0.598168	-0.108158	-0.000151
