data_functionalizedCrystal
_audit_creation_method	'MofGen! by Chris Wilmer'
_symmetry_space_group_name_H-M	'P1'
_symmetry_Int_Tables_number	1
_symmetry_cell_setting	triclinic
loop_
_symmetry_equiv_pos_as_xyz
  x,y,z
_cell_length_a	19.805407
_cell_length_b	19.805404
_cell_length_c	19.805399
_cell_angle_alpha	89.973446
_cell_angle_beta	89.983490
_cell_angle_gamma	90.026912
loop_
_atom_site_label
_atom_site_type_symbol
_atom_site_fract_x
_atom_site_fract_y
_atom_site_fract_z
Zn1	Zn	-1.034697	0.269539	0.382724
Zn2	Zn	-0.701364	0.602872	0.716058
Zn3	Zn	-0.368031	0.936206	1.049391
Zn4	Zn	-1.034609	0.382730	0.269541
Zn5	Zn	-0.701275	0.716063	0.602874
Zn6	Zn	-0.367942	1.049397	0.936207
Zn7	Zn	-0.921517	0.269553	0.269550
Zn8	Zn	-0.588184	0.602886	0.602883
Zn9	Zn	-0.254851	0.936220	0.936216
Zn10	Zn	-0.921467	0.382684	0.382688
Zn11	Zn	-0.588133	0.716017	0.716022
Zn12	Zn	-0.254800	1.049350	1.049355
O13	O	-0.978072	0.326126	0.326126
O14	O	-0.644739	0.659460	0.659459
O15	O	-0.311406	0.992793	0.992792
O16	O	-1.129402	0.284568	0.367722
O17	O	-0.796069	0.617901	0.701055
O18	O	-0.462735	0.951234	1.034388
O19	O	-1.019591	0.367742	0.174825
O20	O	-0.686258	0.701075	0.508159
O21	O	-0.352924	1.034409	0.841492
O22	O	-0.936589	0.174834	0.284581
O23	O	-0.603256	0.508168	0.617915
O24	O	-0.269922	0.841501	0.951248
O25	O	-1.129337	0.367729	0.284566
O26	O	-0.796004	0.701062	0.617900
O27	O	-0.462670	1.034395	0.951233
O28	O	-1.019742	0.174824	0.367730
O29	O	-0.686408	0.508158	0.701063
O30	O	-0.353075	0.841491	1.034397
O31	O	-0.936503	0.284591	0.174832
O32	O	-0.603170	0.617925	0.508165
O33	O	-0.269836	0.951258	0.841498
O34	O	-0.826794	0.284546	0.284546
O35	O	-0.493461	0.617880	0.617880
O36	O	-0.160127	0.951213	0.951213
O37	O	-0.936503	0.367650	0.477410
O38	O	-0.603170	0.700983	0.810743
O39	O	-0.269836	1.034316	1.144076
O40	O	-0.826757	0.367663	0.367669
O41	O	-0.493424	0.700996	0.701002
O42	O	-0.160090	1.034330	1.034336
O43	O	-1.019693	0.284523	0.477436
O44	O	-0.686360	0.617856	0.810769
O45	O	-0.353026	0.951189	1.144103
O46	O	-1.019542	0.477441	0.284531
O47	O	-0.686209	0.810774	0.617865
O48	O	-0.352875	1.144107	0.951198
O49	O	-0.936417	0.477407	0.367660
O50	O	-0.603084	0.810740	0.700994
O51	O	-0.269751	1.144073	1.034327
C52	C	-0.802216	0.326102	0.326105
C53	C	-0.468883	0.659435	0.659438
C54	C	-0.135550	0.992768	0.992772
C55	C	-0.726985	0.326107	0.326112
C56	C	-0.393651	0.659441	0.659446
C57	C	-0.060318	0.992774	0.992779
C58	C	-0.691675	0.282881	0.369476
C59	C	-0.358341	0.616215	0.702810
C60	C	-0.025008	0.949548	1.036143
C61	C	-0.620986	0.282883	0.369477
C62	C	-0.287653	0.616217	0.702810
C63	C	0.045680	0.949550	1.036144
C64	C	-0.585609	0.326116	0.326117
C65	C	-0.252276	0.659449	0.659450
C66	C	0.081058	0.992782	0.992784
C67	C	-0.620924	0.369344	0.282748
C68	C	-0.287590	0.702677	0.616081
C69	C	0.045743	1.036010	0.949415
C70	C	-0.691611	0.369337	0.282744
C71	C	-0.358277	0.702671	0.616078
C72	C	-0.024944	1.036004	0.949411
C73	C	-0.335850	0.369368	0.282762
C74	C	-0.002517	0.702701	0.616095
C75	C	0.330816	1.036035	0.949429
C76	C	-0.265158	0.369372	0.282771
C77	C	0.068175	0.702706	0.616104
C78	C	0.401509	1.036039	0.949437
C79	C	-0.265226	0.282914	0.369495
C80	C	0.068107	0.616247	0.702828
C81	C	0.401441	0.949581	1.036161
C82	C	-0.335913	0.282908	0.369491
C83	C	-0.002580	0.616241	0.702824
C84	C	0.330754	0.949575	1.036158
C85	C	-0.371222	0.326133	0.326120
C86	C	-0.037888	0.659467	0.659453
C87	C	0.295445	0.992800	0.992787
C88	C	-0.447870	0.326129	0.326119
C89	C	-0.114537	0.659463	0.659452
C90	C	0.218797	0.992796	0.992785
C91	C	-0.508962	0.326123	0.326121
C92	C	-0.175628	0.659457	0.659455
C93	C	0.157705	0.992790	0.992788
C94	C	-0.977983	0.501983	0.326106
C95	C	-0.644650	0.835316	0.659439
C96	C	-0.311316	1.168649	0.992772
C97	C	-0.978007	0.577214	0.326120
C98	C	-0.644673	0.910548	0.659453
C99	C	-0.311340	1.243881	0.992786
C100	C	-0.154615	0.326147	0.326141
C101	C	0.178718	0.659480	0.659474
C102	C	0.512051	0.992813	0.992807
C103	C	-0.229847	0.326142	0.326132
C104	C	0.103486	0.659476	0.659465
C105	C	0.436819	0.992809	0.992798
C106	C	-0.978102	0.326079	0.502669
C107	C	-0.644769	0.659413	0.836002
C108	C	-0.311436	0.992746	1.169335
C109	C	-0.978115	0.326059	0.577901
C110	C	-0.644782	0.659393	0.911234
C111	C	-0.311448	0.992726	1.244567
C112	C	-1.021507	1.039001	0.282960
C113	C	-0.688174	1.372334	0.616293
C114	C	-0.354841	1.705667	0.949626
C115	C	-1.021477	0.968312	0.282944
C116	C	-0.688144	1.301646	0.616277
C117	C	-0.354810	1.634979	0.949611
C118	C	-0.978149	0.932976	0.326182
C119	C	-0.644816	1.266309	0.659516
C120	C	-0.311482	1.599643	0.992849
C121	C	-0.934843	0.968332	0.369434
C122	C	-0.601510	1.301665	0.702768
C123	C	-0.268177	1.634999	1.036101
C124	C	-0.934871	1.039019	0.369446
C125	C	-0.601537	1.372353	0.702779
C126	C	-0.268204	1.705686	1.036113
C127	C	-0.934731	0.683259	0.369387
C128	C	-0.601398	1.016592	0.702721
C129	C	-0.268065	1.349926	1.036054
C130	C	-0.934709	0.612567	0.369374
C131	C	-0.601375	0.945900	0.702707
C132	C	-0.268042	1.279233	1.036040
C133	C	-1.021338	0.612552	0.282885
C134	C	-0.688004	0.945885	0.616219
C135	C	-0.354671	1.279219	0.949552
C136	C	-1.021365	0.683239	0.282897
C137	C	-0.688032	1.016572	0.616230
C138	C	-0.354698	1.349906	0.949564
C139	C	-0.978057	0.718589	0.326146
C140	C	-0.644724	1.051922	0.659480
C141	C	-0.311391	1.385255	0.992813
C142	C	-0.978090	0.795237	0.326162
C143	C	-0.644756	1.128571	0.659495
C144	C	-0.311423	1.461904	0.992828
C145	C	-0.978119	0.856329	0.326171
C146	C	-0.644786	1.189662	0.659504
C147	C	-0.311453	1.522996	0.992837
C148	C	-0.978176	1.149584	0.326169
C149	C	-0.644842	1.482917	0.659503
C150	C	-0.311509	1.816250	0.992836
C151	C	-0.978207	1.074352	0.326210
C152	C	-0.644873	1.407685	0.659543
C153	C	-0.311540	1.741018	0.992876
C154	C	-0.978082	0.326124	0.150270
C155	C	-0.644749	0.659458	0.483603
C156	C	-0.311415	0.992791	0.816936
C157	C	-0.978200	0.325954	0.075038
C158	C	-0.644867	0.659287	0.408371
C159	C	-0.311534	0.992620	0.741705
C160	C	-0.934863	0.282759	0.613248
C161	C	-0.601530	0.616092	0.946581
C162	C	-0.268197	0.949425	1.279914
C163	C	-0.934873	0.282746	0.683936
C164	C	-0.601539	0.616079	1.017269
C165	C	-0.268206	0.949412	1.350603
C166	C	-0.978137	0.326030	0.719276
C167	C	-0.644804	0.659364	1.052610
C168	C	-0.311471	0.992697	1.385943
C169	C	-1.021391	0.369336	0.683924
C170	C	-0.688058	0.702669	1.017258
C171	C	-0.354724	1.036002	1.350591
C172	C	-1.021378	0.369352	0.613237
C173	C	-0.688044	0.702685	0.946570
C174	C	-0.354711	1.036019	1.279904
C175	C	-1.021445	0.369272	0.968998
C176	C	-0.688111	0.702606	1.302331
C177	C	-0.354778	1.035939	1.635664
C178	C	-1.021456	0.369252	1.039690
C179	C	-0.688123	0.702585	1.373023
C180	C	-0.354789	1.035918	1.706357
C181	C	-0.934940	0.282666	1.039697
C182	C	-0.601606	0.616000	1.373030
C183	C	-0.268273	0.949333	1.706363
C184	C	-0.934926	0.282682	0.969009
C185	C	-0.601593	0.616016	1.302343
C186	C	-0.268260	0.949349	1.635676
C187	C	-0.978177	0.325990	0.933664
C188	C	-0.644844	0.659323	1.266997
C189	C	-0.311510	0.992657	1.600330
C190	C	-0.978165	0.326005	0.857015
C191	C	-0.644832	0.659338	1.190349
C192	C	-0.311499	0.992671	1.523682
C193	C	-0.978153	0.326013	0.795923
C194	C	-0.644820	0.659346	1.129257
C195	C	-0.311486	0.992679	1.462590
H196	H	-0.364590	0.404565	0.247447
H197	H	-0.031257	0.737899	0.580781
H198	H	0.302077	1.071232	0.914114
H199	H	-1.056794	1.067766	0.247754
H200	H	-0.723461	1.401100	0.581087
H201	H	-0.390127	1.734433	0.914420
C202	C	-1.068829	0.417103	0.722801
C203	C	-0.735496	0.750436	1.056134
C204	C	-0.402162	1.083769	1.389467
N205	N	-1.104507	0.453135	0.752082
N206	N	-0.771173	0.786468	1.085415
N207	N	-0.437840	1.119802	1.418748
C208	C	-0.226244	0.416928	0.235063
C209	C	0.107089	0.750261	0.568396
C210	C	0.440422	1.083594	0.901730
N211	N	-0.196934	0.452744	0.199131
N212	N	0.136399	0.786077	0.532464
N213	N	0.469732	1.119410	0.865797
H214	H	-1.056655	0.404544	0.940228
H215	H	-0.723321	0.737877	1.273561
H216	H	-0.389988	1.071210	1.606894
H217	H	-1.056603	0.404607	0.584458
H218	H	-0.723269	0.737940	0.917792
H219	H	-0.389936	1.071273	1.251125
C220	C	-0.730451	0.416891	0.235042
C221	C	-0.397118	0.750224	0.568375
C222	C	-0.063784	1.083558	0.901709
N223	N	-0.759705	0.452709	0.199110
N224	N	-0.426371	0.786042	0.532443
N225	N	-0.093038	1.119375	0.865777
H226	H	-0.236469	0.247716	0.404807
H227	H	0.096864	0.581049	0.738140
H228	H	0.430197	0.914382	1.071474
C229	C	-0.730584	0.235321	0.417176
C230	C	-0.397250	0.568654	0.750509
C231	C	-0.063917	0.901988	1.083843
N232	N	-0.759888	0.199495	0.453103
N233	N	-0.426554	0.532828	0.786436
N234	N	-0.093221	0.866162	1.119770
C235	C	-0.887047	0.573699	0.416947
C236	C	-0.553714	0.907032	0.750280
C237	C	-0.220380	1.240365	1.083613
N238	N	-0.851153	0.544423	0.452780
N239	N	-0.517820	0.877756	0.786113
N240	N	-0.184486	1.211090	1.119446
H241	H	-0.899462	0.712032	0.404599
H242	H	-0.566129	1.045366	0.737932
H243	H	-0.232796	1.378699	1.071265
H244	H	-1.056599	0.583762	0.247667
H245	H	-0.723266	0.917096	0.581001
H246	H	-0.389933	1.250429	0.914334
C247	C	-0.582149	0.235333	0.417183
C248	C	-0.248816	0.568667	0.750516
C249	C	0.084518	0.902000	1.083850
N250	N	-0.552897	0.199517	0.453118
N251	N	-0.219564	0.532850	0.786451
N252	N	0.113770	0.866183	1.119784
C253	C	-0.582006	0.416898	0.235050
C254	C	-0.248672	0.750232	0.568384
C255	C	0.084661	1.083565	0.901717
N256	N	-0.552694	0.452720	0.199125
N257	N	-0.219360	0.786053	0.532459
N258	N	0.113973	1.119386	0.865792
C259	C	-0.887182	0.929460	0.416998
C260	C	-0.553849	1.262793	0.750331
C261	C	-0.220516	1.596127	1.083664
N262	N	-0.851285	0.900182	0.452826
N263	N	-0.517952	1.233515	0.786159
N264	N	-0.184618	1.566849	1.119492
H265	H	-1.056650	0.712006	0.247690
H266	H	-0.723316	1.045339	0.581024
H267	H	-0.389983	1.378673	0.914357
C268	C	-1.069097	0.929429	0.235351
C269	C	-0.735764	1.262763	0.568685
C270	C	-0.402431	1.596096	0.902018
N271	N	-1.104962	0.900143	0.199497
N272	N	-0.771628	1.233476	0.532830
N273	N	-0.438295	1.566810	0.866164
C274	C	-0.887268	0.235141	0.574380
C275	C	-0.553934	0.568475	0.907713
C276	C	-0.220601	0.901808	1.241047
N277	N	-0.851415	0.199277	0.545107
N278	N	-0.518081	0.532610	0.878440
N279	N	-0.184748	0.865943	1.211773
C280	C	-0.374824	0.235347	0.417188
C281	C	-0.041491	0.568680	0.750521
C282	C	0.291842	0.902014	1.083855
N283	N	-0.404131	0.199520	0.453111
N284	N	-0.070798	0.532853	0.786445
N285	N	0.262535	0.866187	1.119778
C286	C	-0.887238	1.077905	0.417026
C287	C	-0.553904	1.411238	0.750359
C288	C	-0.220571	1.744572	1.083693
N289	N	-0.851358	1.107193	0.452863
N290	N	-0.518025	1.440526	0.786197
N291	N	-0.184691	1.773860	1.119530
H292	H	-0.899650	0.247488	0.712712
H293	H	-0.566317	0.580822	1.046046
H294	H	-0.232984	0.914155	1.379379
C295	C	-0.887331	0.235067	0.930139
C296	C	-0.553998	0.568400	1.263473
C297	C	-0.220664	0.901733	1.596806
N298	N	-0.851479	0.199204	0.900863
N299	N	-0.518145	0.532537	1.234196
N300	N	-0.184812	0.865870	1.567530
C301	C	-0.887357	0.235031	1.078583
C302	C	-0.554024	0.568365	1.411917
C303	C	-0.220691	0.901698	1.745250
N304	N	-0.851520	0.199153	1.107872
N305	N	-0.518187	0.532486	1.441205
N306	N	-0.184854	0.865819	1.774538
C307	C	-1.069048	0.416875	1.078563
C308	C	-0.735715	0.750208	1.411896
C309	C	-0.402382	1.083541	1.745229
N310	N	-1.104893	0.452743	1.107842
N311	N	-0.771559	0.786077	1.441175
N312	N	-0.438226	1.119410	1.774508
