data_functionalizedCrystal
_audit_creation_method	'MofGen! by Chris Wilmer'
_symmetry_space_group_name_H-M	'P1'
_symmetry_Int_Tables_number	1
_symmetry_cell_setting	triclinic
loop_
_symmetry_equiv_pos_as_xyz
  x,y,z
_cell_length_a	16.109302
_cell_length_b	23.532357
_cell_length_c	15.186229
_cell_angle_alpha	89.990735
_cell_angle_beta	89.994701
_cell_angle_gamma	83.145036
loop_
_atom_site_label
_atom_site_type_symbol
_atom_site_fract_x
_atom_site_fract_y
_atom_site_fract_z
O1	O	1.102535	0.073206	-0.073279
O2	O	1.435869	0.406539	0.260054
O3	O	1.769202	0.739872	0.593388
O4	O	0.860400	0.082315	-0.073273
O5	O	1.193733	0.415649	0.260060
O6	O	1.527066	0.748982	0.593393
O7	O	0.988791	-0.005146	-0.073258
O8	O	1.322124	0.328187	0.260075
O9	O	1.655457	0.661520	0.593408
O10	O	0.974144	0.160667	-0.073294
O11	O	1.307478	0.494000	0.260039
O12	O	1.640811	0.827334	0.593373
O13	O	0.988782	-0.005147	0.073199
O14	O	1.322116	0.328186	0.406532
O15	O	1.655449	0.661519	0.739866
O16	O	0.860391	0.082314	0.073184
O17	O	1.193724	0.415647	0.406517
O18	O	1.527058	0.748981	0.739851
O19	O	1.102527	0.073204	0.073178
O20	O	1.435860	0.406538	0.406512
O21	O	1.769194	0.739871	0.739845
Zn22	Zn	0.981458	0.077759	0.096434
Zn23	Zn	1.314791	0.411092	0.429768
Zn24	Zn	1.648124	0.744426	0.763101
Zn25	Zn	0.981469	0.077761	-0.096529
Zn26	Zn	1.314802	0.411094	0.236804
Zn27	Zn	1.648136	0.744427	0.570137
O28	O	0.974136	0.160666	0.073163
O29	O	1.307469	0.493999	0.406496
O30	O	1.640802	0.827333	0.739830
C31	C	0.829423	0.081946	-0.000044
C32	C	1.162757	0.415279	0.333290
C33	C	1.496090	0.748612	0.666623
C34	C	0.737137	0.080839	-0.000041
C35	C	1.070470	0.414172	0.333292
C36	C	1.403804	0.747506	0.666626
C37	C	0.524812	0.078280	0.079785
C38	C	0.858146	0.411613	0.413118
C39	C	1.191479	0.744946	0.746451
C40	C	0.438101	0.077234	0.079782
C41	C	0.771434	0.410567	0.413115
C42	C	1.104768	0.743901	0.746449
C43	C	0.438121	0.077238	-0.079894
C44	C	0.771454	0.410572	0.253440
C45	C	1.104787	0.743905	0.586773
C46	C	0.524831	0.078280	-0.079890
C47	C	0.858165	0.411613	0.253443
C48	C	1.191498	0.744947	0.586777
C49	C	0.568174	0.078804	-0.000048
C50	C	0.901508	0.412137	0.333285
C51	C	1.234841	0.745470	0.666619
C52	C	0.394752	0.076716	-0.000055
C53	C	0.728085	0.410049	0.333279
C54	C	1.061419	0.743383	0.666612
C55	C	0.300736	0.075582	-0.000058
C56	C	0.634069	0.408916	0.333275
C57	C	0.967402	0.742249	0.666608
C58	C	0.662197	0.079937	-0.000044
C59	C	0.995530	0.413270	0.333289
C60	C	1.328864	0.746603	0.666623
C61	C	0.988420	-0.026365	-0.000027
C62	C	1.321754	0.306969	0.333306
C63	C	1.655087	0.640302	0.666640
C64	C	0.987319	-0.089587	-0.000019
C65	C	1.320652	0.243746	0.333315
C66	C	1.653985	0.577079	0.666648
C67	C	0.980408	-0.481624	-0.079900
C68	C	1.313742	-0.148290	0.253434
C69	C	1.647075	0.185043	0.586767
C70	C	0.979361	-0.541027	-0.079905
C71	C	1.312695	-0.207694	0.253429
C72	C	1.646028	0.125640	0.586762
O73	O	0.978796	-0.571745	-0.147800
O74	O	1.312129	-0.238411	0.185533
O75	O	1.645462	0.094922	0.518866
N76	N	0.978838	-0.570741	-0.000072
N77	N	1.312171	-0.237407	0.333261
N78	N	1.645504	0.095926	0.666595
C79	C	0.979352	-0.541047	0.079771
C80	C	1.312686	-0.207714	0.413104
C81	C	1.646019	0.125619	0.746438
O82	O	0.978810	-0.571776	0.147674
O83	O	1.312143	-0.238442	0.481008
O84	O	1.645477	0.094891	0.814341
C85	C	0.980393	-0.481644	0.079775
C86	C	1.313727	-0.148311	0.413108
C87	C	1.647060	0.185022	0.746442
C88	C	0.980926	-0.451935	-0.000063
C89	C	1.314259	-0.118601	0.333270
C90	C	1.647592	0.214732	0.666604
C91	C	0.980940	-0.451913	-0.159731
C92	C	1.314273	-0.118580	0.173602
C93	C	1.647607	0.214753	0.506935
C94	C	0.981988	-0.392514	-0.159726
C95	C	1.315322	-0.059181	0.173607
C96	C	1.648655	0.274152	0.506941
C97	C	0.982506	-0.362825	-0.079889
C98	C	1.315839	-0.029492	0.253444
C99	C	1.649172	0.303841	0.586778
C100	C	0.981974	-0.392535	-0.000058
C101	C	1.315308	-0.059202	0.333276
C102	C	1.648641	0.274131	0.666609
C103	C	0.980902	-0.451952	0.159617
C104	C	1.314236	-0.118618	0.492950
C105	C	1.647569	0.214715	0.826284
C106	C	0.981943	-0.392545	0.159614
C107	C	1.315276	-0.059211	0.492948
C108	C	1.648609	0.274122	0.826281
C109	C	0.982475	-0.362835	0.079776
C110	C	1.315808	-0.029502	0.413110
C111	C	1.649142	0.303832	0.746443
C112	C	0.983540	-0.303447	0.079785
C113	C	1.316873	0.029886	0.413118
C114	C	1.650207	0.363219	0.746451
N115	N	0.984064	-0.273734	-0.000048
N116	N	1.317397	0.059600	0.333285
N117	N	1.650731	0.392933	0.666618
C118	C	0.983547	-0.303423	-0.079885
C119	C	1.316880	0.029911	0.253448
C120	C	1.650213	0.363244	0.586782
C121	C	0.977165	-0.665797	0.079756
C122	C	1.310498	-0.332464	0.413090
C123	C	1.643831	0.000870	0.746423
C124	C	0.976130	-0.725199	0.079753
C125	C	1.309463	-0.391866	0.413086
C126	C	1.642796	-0.058532	0.746420
C127	C	0.976137	-0.725174	-0.079923
C128	C	1.309470	-0.391841	0.253410
C129	C	1.642804	-0.058508	0.586744
C130	C	0.977178	-0.665772	-0.079919
C131	C	1.310511	-0.332438	0.253414
C132	C	1.643845	0.000895	0.586748
C133	C	0.977688	-0.636083	-0.000076
C134	C	1.311022	-0.302750	0.333257
C135	C	1.644355	0.030584	0.666590
C136	C	0.985749	-0.178680	-0.079868
C137	C	1.319083	0.154653	0.253465
C138	C	1.652416	0.487986	0.586799
C139	C	0.986802	-0.119276	-0.079855
C140	C	1.320135	0.214057	0.253478
C141	C	1.653468	0.547390	0.586811
C142	C	0.986789	-0.119306	0.079820
C143	C	1.320123	0.214028	0.413153
C144	C	1.653456	0.547361	0.746487
C145	C	0.985742	-0.178705	0.079808
C146	C	1.319075	0.154628	0.413142
C147	C	1.652408	0.487962	0.746475
C148	C	0.985219	-0.208391	-0.000043
C149	C	1.318552	0.124943	0.333290
C150	C	1.651886	0.458276	0.666624
O151	O	0.984103	-0.272692	0.147645
O152	O	1.317436	0.060642	0.480979
O153	O	1.650770	0.393975	0.814312
O154	O	0.984078	-0.272686	-0.147777
O155	O	1.317412	0.060647	0.185556
O156	O	1.650745	0.393981	0.518889
C157	C	1.133503	0.073574	-0.000053
C158	C	1.466836	0.406907	0.333280
C159	C	1.800170	0.740241	0.666613
C160	C	1.225789	0.074681	-0.000062
C161	C	1.559123	0.408014	0.333271
C162	C	1.892456	0.741347	0.666605
C163	C	0.974506	0.181884	-0.000070
C164	C	1.307840	0.515218	0.333263
C165	C	1.641173	0.848551	0.666596
C166	C	0.975608	0.245107	-0.000084
C167	C	1.308941	0.578440	0.333249
C168	C	1.642274	0.911774	0.666582
N169	N	0.981456	0.077758	0.228127
N170	N	1.314789	0.411091	0.561460
N171	N	1.648123	0.744424	0.894794
N172	N	0.981477	0.077758	-0.228222
N173	N	1.314810	0.411091	0.105111
N174	N	1.648144	0.744424	0.438445
C175	C	1.038327	0.039043	0.453857
C176	C	1.371660	0.372376	0.787190
C177	C	1.704993	0.705709	1.120523
C178	C	1.038329	0.039041	0.546046
C179	C	1.371663	0.372375	0.879380
C180	C	1.704996	0.705708	1.212713
C181	C	0.924600	0.116474	0.546042
C182	C	1.257934	0.449808	0.879375
C183	C	1.591267	0.783141	1.212709
C184	C	0.924594	0.116473	0.453854
C185	C	1.257928	0.449806	0.787187
C186	C	1.591261	0.783139	1.120521
C187	C	0.981462	0.077757	0.407764
C188	C	1.314796	0.411091	0.741097
C189	C	1.648129	0.744424	1.074430
C190	C	0.981471	0.077758	0.592141
C191	C	1.314804	0.411091	0.925475
C192	C	1.648138	0.744425	1.258808
C193	C	0.981473	0.077757	0.692097
C194	C	1.314807	0.411090	1.025431
C195	C	1.648140	0.744423	1.358764
C196	C	0.981459	0.077758	0.307801
C197	C	1.314792	0.411091	0.641134
C198	C	1.648126	0.744424	0.974468
H199	H	0.402820	0.076813	-0.144898
H200	H	0.736153	0.410146	0.188435
H201	H	1.069487	0.743479	0.521768
H202	H	0.560138	0.078705	-0.144904
H203	H	0.893471	0.412038	0.188430
H204	H	1.226805	0.745372	0.521763
N205	N	0.866505	0.156030	0.406780
N206	N	1.199839	0.489363	0.740113
N207	N	1.533172	0.822697	1.073447
N208	N	0.867195	0.208672	0.417059
N209	N	1.200528	0.542005	0.750393
N210	N	1.533861	0.875339	1.083726
H211	H	0.826169	0.236608	0.383814
H212	H	1.159503	0.569941	0.717148
H213	H	1.492836	0.903274	1.050481
H214	H	0.402799	0.076808	0.144790
H215	H	0.736133	0.410141	0.478123
H216	H	1.069466	0.743474	0.811457
N217	N	0.987352	-0.088939	-0.161420
N218	N	1.320685	0.244395	0.171914
N219	N	1.654018	0.577728	0.505247
N220	N	0.986889	-0.115458	-0.232695
N221	N	1.320223	0.217875	0.100638
N222	N	1.653556	0.551208	0.433972
H223	H	0.987278	-0.094035	-0.290299
H224	H	1.320611	0.239299	0.043034
H225	H	1.653944	0.572632	0.376368
H226	H	0.560100	0.078706	0.144797
H227	H	0.893433	0.412040	0.478131
H228	H	1.226766	0.745373	0.811464
H229	H	0.980470	-0.476131	0.224630
H230	H	1.313803	-0.142798	0.557963
H231	H	1.647137	0.190535	0.891297
H232	H	0.985316	-0.202897	0.144819
H233	H	1.318649	0.130437	0.478152
H234	H	1.651983	0.463770	0.811485
H235	H	0.985320	-0.202843	-0.144890
H236	H	1.318653	0.130490	0.188443
H237	H	1.651986	0.463824	0.521776
N238	N	0.982529	-0.362180	-0.241287
N239	N	1.315862	-0.028846	0.092046
N240	N	1.649195	0.304487	0.425379
N241	N	0.982064	-0.388704	-0.312558
N242	N	1.315397	-0.055371	0.020776
N243	N	1.648730	0.277962	0.354109
H244	H	0.982442	-0.367284	-0.370166
H245	H	1.315776	-0.033950	-0.036832
H246	H	1.649109	0.299383	0.296501
N247	N	0.980406	-0.482225	-0.241298
N248	N	1.313740	-0.148891	0.092035
N249	N	1.647073	0.184442	0.425369
N250	N	0.980878	-0.455679	-0.312563
N251	N	1.314211	-0.122346	0.020771
N252	N	1.647545	0.210988	0.354104
H253	H	0.980506	-0.477083	-0.370175
H254	H	1.313839	-0.143749	-0.036842
H255	H	1.647173	0.189584	0.296491
N256	N	0.977725	-0.635436	-0.161479
N257	N	1.311059	-0.302102	0.171855
N258	N	1.644392	0.031231	0.505188
N259	N	0.977270	-0.661958	-0.232751
N260	N	1.310603	-0.328625	0.100582
N261	N	1.643936	0.004708	0.433915
H262	H	0.977656	-0.640537	-0.290357
H263	H	1.310989	-0.307203	0.042976
H264	H	1.644323	0.026130	0.376309
N265	N	0.975620	-0.755517	-0.161469
N266	N	1.308954	-0.422184	0.171864
N267	N	1.642287	-0.088851	0.505197
N268	N	0.974695	-0.808555	-0.161452
N269	N	1.308028	-0.475222	0.171881
N270	N	1.641361	-0.141889	0.505214
H271	H	0.974335	-0.829988	-0.219040
H272	H	1.307668	-0.496654	0.114293
H273	H	1.641002	-0.163321	0.447626
H274	H	0.977583	-0.641628	0.144778
H275	H	1.310916	-0.308295	0.478111
H276	H	1.644249	0.025038	0.811444
N277	N	0.975604	-0.755536	0.161314
N278	N	1.308938	-0.422203	0.494647
N279	N	1.642271	-0.088869	0.827980
N280	N	0.976071	-0.729014	0.232586
N281	N	1.309404	-0.395681	0.565920
N282	N	1.642737	-0.062348	0.899253
H283	H	0.975697	-0.750437	0.290193
H284	H	1.309030	-0.417104	0.623526
H285	H	1.642363	-0.083770	0.956859
H286	H	0.982346	-0.368374	0.224633
H287	H	1.315679	-0.035041	0.557967
H288	H	1.649012	0.298292	0.891300
H289	H	1.084631	0.007518	0.416332
H290	H	1.417964	0.340851	0.749665
H291	H	1.751298	0.674184	1.082999
H292	H	1.084633	0.007516	0.583573
H293	H	1.417966	0.340849	0.916906
H294	H	1.751299	0.674182	1.250239
H295	H	0.878301	0.147996	0.583578
H296	H	1.211634	0.481330	0.916911
H297	H	1.544967	0.814663	1.250244
N298	N	0.987326	-0.088965	0.161360
N299	N	1.320659	0.244368	0.494693
N300	N	1.653992	0.577702	0.828027
N301	N	0.988259	-0.035928	0.161343
N302	N	1.321593	0.297406	0.494676
N303	N	1.654926	0.630739	0.828010
H304	H	0.988634	-0.014497	0.218931
H305	H	1.321967	0.318837	0.552264
H306	H	1.655301	0.652170	0.885598
