data_functionalizedCrystal
_audit_creation_method	'MofGen! by Chris Wilmer'
_symmetry_space_group_name_H-M	'P1'
_symmetry_Int_Tables_number	1
_symmetry_cell_setting	triclinic
loop_
_symmetry_equiv_pos_as_xyz
  x,y,z
_cell_length_a	23.532361
_cell_length_b	23.532407
_cell_length_c	9.130313
_cell_angle_alpha	89.991468
_cell_angle_beta	90.001504
_cell_angle_gamma	82.839173
loop_
_atom_site_label
_atom_site_type_symbol
_atom_site_fract_x
_atom_site_fract_y
_atom_site_fract_z
O1	O	0.755275	0.069008	-0.121667
O2	O	0.589408	0.079039	-0.121704
O3	O	0.677344	-0.008909	-0.121658
O4	O	0.667340	0.156956	-0.121714
O5	O	0.677339	-0.008911	0.121941
O6	O	0.589403	0.079037	0.121894
O7	O	0.755271	0.069006	0.121932
Cu8	Cu	0.672337	0.074022	0.144156
Cu9	Cu	0.672342	0.074024	-0.143928
O10	O	0.667335	0.156954	0.121885
C11	C	0.568189	0.078787	0.000091
C12	C	0.504971	0.078032	0.000078
C13	C	0.231730	0.074729	-0.132698
C14	C	0.291129	0.075444	-0.132702
O15	O	0.321858	0.075795	-0.245629
N16	N	0.320832	0.075804	0.000084
C17	C	0.291133	0.075444	0.132883
O18	O	0.321853	0.075815	0.245827
C19	C	0.231735	0.074725	0.132885
C20	C	0.202035	0.074370	0.000090
C21	C	0.202029	0.074374	-0.265482
C22	C	0.142633	0.073660	-0.265478
C23	C	0.112938	0.073301	-0.132689
C24	C	0.142639	0.073657	0.000095
C25	C	0.202038	0.074360	0.265682
C26	C	0.142636	0.073641	0.265673
C27	C	0.112935	0.073286	0.132878
C28	C	0.053548	0.072584	0.132887
N29	N	0.023845	0.072224	0.000101
C30	C	0.053540	0.072582	-0.132687
C31	C	0.415874	0.076953	0.132868
C32	C	0.475270	0.077676	0.132867
C33	C	0.475262	0.077675	-0.132718
C34	C	0.415864	0.076956	-0.132716
C35	C	0.386171	0.076593	0.000082
C36	C	-0.071196	0.071084	-0.132668
C37	C	-0.130597	0.070372	-0.132652
C38	C	-0.130583	0.070370	0.132933
C39	C	-0.071188	0.071085	0.132918
C40	C	-0.041495	0.071440	0.000105
O41	O	0.022782	0.072230	0.245756
O42	O	0.022815	0.072203	-0.245613
C43	C	0.677086	-0.030126	0.000145
C44	C	0.676320	-0.093343	0.000156
C45	C	0.723555	-0.492454	0.000087
C46	C	0.722844	-0.551854	0.000075
O47	O	0.766630	-0.588606	0.000031
N48	N	0.670566	-0.574471	0.000065
C49	C	0.618997	-0.537685	0.000050
O50	O	0.574465	-0.562377	0.000039
C51	C	0.619709	-0.478286	0.000051
C52	C	0.671990	-0.455672	0.000077
C53	C	0.775832	-0.469839	0.000111
C54	C	0.776543	-0.410443	0.000125
C55	C	0.724977	-0.373662	0.000115
C56	C	0.672701	-0.396276	0.000091
C57	C	0.568140	-0.441501	0.000026
C58	C	0.568857	-0.382099	0.000026
C59	C	0.621137	-0.359485	0.000052
C60	C	0.621847	-0.300099	0.000095
N61	N	0.674124	-0.277481	0.000106
C62	C	0.725690	-0.314263	0.000115
C63	C	0.617505	-0.662427	0.000046
C64	C	0.616793	-0.721825	0.000056
C65	C	0.720640	-0.735990	0.000078
C66	C	0.721352	-0.676591	0.000079
C67	C	0.669783	-0.639810	0.000057
C68	C	0.727179	-0.189526	0.000146
C69	C	0.727886	-0.130124	0.000166
C70	C	0.624039	-0.115965	0.000136
C71	C	0.623332	-0.175361	0.000124
C72	C	0.674907	-0.212141	0.000124
O73	O	0.578083	-0.263312	0.000133
O74	O	0.770214	-0.289562	0.000108
C75	C	0.776489	0.069258	0.000133
C76	C	0.839708	0.070014	0.000137
C77	C	0.667592	0.178171	0.000079
C78	C	0.668358	0.241388	0.000058
N79	N	0.672337	0.074020	0.346778
N80	N	0.672347	0.074021	-0.346551
C81	C	0.711290	0.035091	0.576797
C82	C	0.711286	0.035092	0.423461
C83	C	0.633392	0.112954	0.423441
C84	C	0.633398	0.112956	0.576775
H85	H	0.226210	0.074647	0.373818
O86	O	0.595612	0.150848	0.349020
C87	C	0.561647	0.250051	0.302124
C88	C	0.604475	0.207200	0.386466
H89	H	0.568790	0.295621	0.332391
H90	H	0.568330	0.243412	0.179347
H91	H	0.516083	0.242838	0.332271
H92	H	0.650057	0.214387	0.356441
H93	H	0.597743	0.213850	0.509222
O94	O	0.749136	-0.002781	0.349229
C95	C	0.826419	-0.079989	0.365440
C96	C	0.783573	-0.037137	0.449688
H97	H	0.854280	-0.107769	0.446625
H98	H	0.802021	-0.108351	0.293708
H99	H	0.854702	-0.055539	0.293600
H100	H	0.755279	-0.061540	0.521609
H101	H	0.808007	-0.008775	0.521328
O102	O	0.595487	0.150718	0.651178
C103	C	0.496275	0.184632	0.698048
C104	C	0.539141	0.141827	0.613722
H105	H	0.450710	0.177467	0.667772
H106	H	0.502922	0.177947	0.820827
H107	H	0.503463	0.230205	0.667895
H108	H	0.531978	0.096238	0.643752
H109	H	0.532483	0.148563	0.490963
O110	O	0.387107	0.076585	-0.261842
C111	C	0.393379	0.076701	-0.525264
C112	C	0.426014	0.077109	-0.379129
H113	H	0.424820	0.077137	-0.620128
H114	H	0.371031	0.036493	-0.532002
H115	H	0.360112	0.116216	-0.531841
H116	H	0.459308	0.037621	-0.372454
H117	H	0.448322	0.117343	-0.372453
H118	H	0.574220	-0.740232	0.000060
O119	O	0.572585	-0.197402	-0.000083
C120	C	0.511502	-0.256199	-0.126377
C121	C	0.568999	-0.231293	-0.126290
H122	H	0.508580	-0.283596	-0.228419
H123	H	0.508562	-0.283704	-0.024514
H124	H	0.474778	-0.219697	-0.126303
H125	H	0.605756	-0.267759	-0.126415
H126	H	0.571890	-0.203773	-0.228144
O127	O	-0.159356	0.070003	-0.261786
C128	C	-0.153089	0.070113	-0.525209
C129	C	-0.120450	0.070520	-0.379078
H130	H	-0.121650	0.070544	-0.620078
H131	H	-0.175441	0.029908	-0.531938
H132	H	-0.186352	0.109632	-0.531786
H133	H	-0.087160	0.031029	-0.372403
H134	H	-0.098137	0.110751	-0.372411
O135	O	0.777330	-0.225168	0.000217
C136	C	0.880406	-0.232932	0.000171
C137	C	0.823654	-0.192504	0.000114
H138	H	0.917874	-0.206540	0.000057
H139	H	0.882710	-0.261093	0.102137
H140	H	0.882647	-0.261099	-0.101754
H141	H	0.821375	-0.164301	0.101970
H142	H	0.821374	-0.164382	-0.101920
O143	O	0.778638	-0.108091	-0.000011
C144	C	0.839731	-0.049273	-0.126234
C145	C	0.782231	-0.074174	-0.126194
H146	H	0.842660	-0.021855	-0.228257
H147	H	0.842671	-0.021790	-0.024351
H148	H	0.876452	-0.085778	-0.126164
H149	H	0.745477	-0.037705	-0.126315
H150	H	0.779342	-0.101672	-0.228067
O151	O	0.518776	-0.346347	-0.000251
C152	C	0.459327	-0.271030	-0.126416
C153	C	0.516056	-0.311494	-0.126307
H154	H	0.457115	-0.242833	-0.228306
H155	H	0.421820	-0.297372	-0.126530
H156	H	0.457066	-0.242901	-0.024419
H157	H	0.518374	-0.339631	-0.228286
H158	H	0.553537	-0.285118	-0.126117
O159	O	0.573967	-0.080205	-0.000137
C160	C	0.514538	-0.004880	-0.126324
C161	C	0.571259	-0.045356	-0.126199
H162	H	0.512336	0.023314	-0.228219
H163	H	0.477023	-0.031212	-0.126440
H164	H	0.512280	0.023251	-0.024332
H165	H	0.573572	-0.073496	-0.228174
H166	H	0.608747	-0.018990	-0.126008
H167	H	-0.047027	0.071374	-0.240816
H168	H	0.118456	0.073369	-0.373613
H169	H	0.743005	0.003389	0.639222
H170	H	0.226201	0.074664	-0.373621
H171	H	0.819115	-0.392037	0.000139
O172	O	0.517369	-0.463488	0.000245
C173	C	0.456288	-0.522356	0.126333
C174	C	0.513803	-0.497485	0.126293
H175	H	0.453391	-0.549858	0.228216
H176	H	0.419537	-0.485880	0.126407
H177	H	0.453372	-0.549777	0.024329
H178	H	0.516775	-0.470072	0.228279
H179	H	0.550527	-0.533989	0.126143
H180	H	0.118462	0.073350	0.373816
H181	H	0.499451	0.077967	-0.240842
O182	O	0.825889	-0.505622	0.000317
C183	C	0.885377	-0.580879	0.126593
C184	C	0.828657	-0.540402	0.126511
H185	H	0.887639	-0.609000	0.228625
H186	H	0.887659	-0.609078	0.024719
H187	H	0.922848	-0.554491	0.126536
H188	H	0.791154	-0.566744	0.126619
H189	H	0.826425	-0.512201	0.228375
H190	H	0.391700	0.076664	0.241014
H191	H	-0.047006	0.071385	0.241050
O192	O	0.504190	0.077950	0.261771
C193	C	0.577957	0.029390	0.415981
C194	C	0.545263	0.029021	0.269925
H195	H	0.611164	-0.010171	0.422635
H196	H	0.600369	0.069559	0.422638
H197	H	0.546509	0.029039	0.510855
H198	H	0.576673	0.029351	0.174969
H199	H	0.522843	-0.011145	0.263397
O200	O	0.772151	-0.654653	-0.000170
C201	C	0.861144	-0.648622	-0.126314
C202	C	0.803626	-0.673489	-0.126225
H203	H	0.886613	-0.663850	-0.228202
H204	H	0.852835	-0.599847	-0.126415
H205	H	0.886582	-0.663790	-0.024316
H206	H	0.778158	-0.658364	-0.228206
H207	H	0.811976	-0.722261	-0.126047
O208	O	0.770718	-0.771748	-0.000188
C209	C	0.830157	-0.847051	-0.126363
C210	C	0.773433	-0.806578	-0.126259
H211	H	0.832365	-0.875229	-0.228265
H212	H	0.867669	-0.820717	-0.126449
H213	H	0.832411	-0.875198	-0.024378
H214	H	0.771123	-0.778423	-0.228227
H215	H	0.735947	-0.832947	-0.126097
H216	H	-0.154772	0.070081	0.241046
H217	H	0.575509	-0.632483	0.000041
