data_functionalizedCrystal
_audit_creation_method	'MofGen! by Chris Wilmer'
_symmetry_space_group_name_H-M	'P1'
_symmetry_Int_Tables_number	1
_symmetry_cell_setting	triclinic
loop_
_symmetry_equiv_pos_as_xyz
  x,y,z
_cell_length_a	16.120530
_cell_length_b	16.120484
_cell_length_c	16.120728
_cell_angle_alpha	84.367400
_cell_angle_beta	89.860094
_cell_angle_gamma	90.167327
loop_
_atom_site_label
_atom_site_type_symbol
_atom_site_fract_x
_atom_site_fract_y
_atom_site_fract_z
Zn1	Zn	1.224873	-0.422442	0.554816
Zn2	Zn	1.558206	-0.089108	0.888149
Zn3	Zn	1.891539	0.244225	1.221483
Zn4	Zn	1.224796	-0.555083	0.422120
Zn5	Zn	1.558129	-0.221750	0.755454
Zn6	Zn	1.891462	0.111583	1.088787
Zn7	Zn	1.093642	-0.408310	0.408058
Zn8	Zn	1.426976	-0.074977	0.741391
Zn9	Zn	1.760309	0.258356	1.074725
Zn10	Zn	1.078766	-0.554358	0.554054
Zn11	Zn	1.412099	-0.221024	0.887387
Zn12	Zn	1.745432	0.112309	1.220720
O13	O	1.155519	-0.485048	0.484762
O14	O	1.488852	-0.151715	0.818095
O15	O	1.822186	0.181618	1.151429
O16	O	1.340897	-0.446254	0.543418
O17	O	1.674230	-0.112921	0.876751
O18	O	2.007564	0.220412	1.210085
O19	O	1.213591	-0.530003	0.303622
O20	O	1.546925	-0.196670	0.636955
O21	O	1.880258	0.136664	0.970288
O22	O	1.117308	-0.293553	0.421960
O23	O	1.450642	0.039781	0.755293
O24	O	1.783975	0.373114	1.088626
O25	O	1.340840	-0.543706	0.445927
O26	O	1.674174	-0.210372	0.779260
O27	O	2.007507	0.122961	1.112594
O28	O	1.213723	-0.303935	0.529782
O29	O	1.547056	0.029399	0.863116
O30	O	1.880390	0.362732	1.196449
O31	O	1.117234	-0.422170	0.293290
O32	O	1.450567	-0.088836	0.626623
O33	O	1.783900	0.244497	0.959957
O34	O	0.975634	-0.421466	0.421220
O35	O	1.308968	-0.088133	0.754554
O36	O	1.642301	0.245200	1.087887
O37	O	1.091953	-0.542469	0.670788
O38	O	1.425287	-0.209136	1.004121
O39	O	1.758620	0.124198	1.337455
O40	O	0.964704	-0.528767	0.528483
O41	O	1.298038	-0.195433	0.861816
O42	O	1.631371	0.137900	1.195149
O43	O	1.199298	-0.445551	0.671348
O44	O	1.532631	-0.112217	1.004682
O45	O	1.865964	0.221116	1.338015
O46	O	1.199166	-0.671619	0.445188
O47	O	1.532499	-0.338286	0.778521
O48	O	1.865833	-0.004953	1.111854
O49	O	1.091879	-0.671086	0.542118
O50	O	1.425212	-0.337753	0.875452
O51	O	1.758545	-0.004420	1.208785
C52	C	0.940083	-0.473505	0.473243
C53	C	1.273416	-0.140172	0.806577
C54	C	1.606750	0.193162	1.139910
C55	C	0.847916	-0.468588	0.468336
C56	C	1.181250	-0.135254	0.801670
C57	C	1.514583	0.198079	1.135003
C58	C	0.679167	-0.459591	0.459384
C59	C	1.012500	-0.126258	0.792717
C60	C	1.345833	0.207075	1.126050
C61	C	0.632705	-0.510570	0.510204
C62	C	0.966039	-0.177236	0.843538
C63	C	1.299372	0.156097	1.176871
C64	C	0.538807	-0.505564	0.505223
C65	C	0.872140	-0.172230	0.838556
C66	C	1.205474	0.161103	1.171890
C67	C	0.773073	-0.464596	0.464364
C68	C	1.106407	-0.131262	0.797697
C69	C	1.439740	0.202071	1.131030
C70	C	1.143921	-0.701596	0.495115
C71	C	1.477255	-0.368263	0.828449
C72	C	1.810588	-0.034930	1.161782
C73	C	1.139034	-0.794242	0.499577
C74	C	1.472367	-0.460909	0.832910
C75	C	1.805701	-0.127575	1.166243
C76	C	1.130115	-0.963868	0.507739
C77	C	1.463448	-0.630534	0.841072
C78	C	1.796782	-0.297201	1.174406
C79	C	1.181071	-1.005397	0.461807
C80	C	1.514404	-0.672063	0.795140
C81	C	1.847737	-0.338730	1.128473
C82	C	1.176108	-1.099782	0.466348
C83	C	1.509442	-0.766449	0.799681
C84	C	1.842775	-0.433116	1.133015
C85	C	1.135076	-0.869474	0.503198
C86	C	1.468410	-0.536140	0.836532
C87	C	1.801743	-0.202807	1.169865
C88	C	1.371796	-0.496637	0.496326
C89	C	1.705130	-0.163304	0.829660
C90	C	2.038463	0.170030	1.162993
C91	C	1.463961	-0.501576	0.501254
C92	C	1.797294	-0.168242	0.834588
C93	C	2.130627	0.165091	1.167921
C94	C	1.143975	-0.495505	0.702155
C95	C	1.477308	-0.162172	1.035489
C96	C	1.810641	0.171161	1.368822
C97	C	1.139055	-0.499962	0.794795
C98	C	1.472388	-0.166628	1.128129
C99	C	1.805722	0.166705	1.461462
C100	C	1.167184	-0.267657	0.474387
C101	C	1.500517	0.065677	0.807721
C102	C	1.833850	0.399010	1.141054
C103	C	1.172154	-0.175017	0.469967
C104	C	1.505488	0.158316	0.803300
C105	C	1.838821	0.491650	1.136633
C106	C	1.130044	-0.508077	0.964408
C107	C	1.463377	-0.174744	1.297741
C108	C	1.796710	0.158589	1.631074
C109	C	1.180964	-0.462098	1.005970
C110	C	1.514298	-0.128764	1.339303
C111	C	1.847631	0.204569	1.672637
C112	C	1.175950	-0.466613	1.100348
C113	C	1.509284	-0.133280	1.433681
C114	C	1.842617	0.200053	1.767015
C115	C	1.135057	-0.503563	0.870021
C116	C	1.468390	-0.170229	1.203354
C117	C	1.801723	0.163104	1.536688
C118	C	1.167018	-0.474654	1.268215
C119	C	1.500351	-0.141321	1.601549
C120	C	1.833684	0.192012	1.934882
C121	C	1.171956	-0.470211	1.175577
C122	C	1.505289	-0.136878	1.508910
C123	C	1.838622	0.196456	1.842243
H124	H	1.228421	-0.970065	0.419071
H125	H	1.561755	-0.636731	0.752404
H126	H	1.895088	-0.303398	1.085738
O127	O	1.073662	-0.559184	1.006558
O128	O	1.406995	-0.225851	1.339891
O129	O	1.740329	0.107482	1.673224
C130	C	1.051363	-0.675697	1.109800
C131	C	1.384696	-0.342363	1.443134
C132	C	1.718030	-0.009030	1.776467
C133	C	1.115299	-0.617889	1.062097
C134	C	1.448633	-0.284556	1.395431
C135	C	1.781966	0.048778	1.728764
H136	H	1.085001	-0.723162	1.154728
H137	H	1.418334	-0.389829	1.488061
H138	H	1.751668	-0.056496	1.821395
H139	H	1.013820	-0.709676	1.063665
H140	H	1.347153	-0.376342	1.396999
H141	H	1.680487	-0.043009	1.730332
H142	H	1.007923	-0.637002	1.146365
H143	H	1.341257	-0.303669	1.479699
H144	H	1.674590	0.029665	1.813032
H145	H	1.158793	-0.656522	1.025531
H146	H	1.492126	-0.323188	1.358864
H147	H	1.825459	0.010145	1.692197
H148	H	1.152782	-0.583906	1.108274
H149	H	1.486115	-0.250573	1.441608
H150	H	1.819449	0.082760	1.774941
H151	H	1.082767	-0.999197	0.550470
H152	H	1.416100	-0.665864	0.883803
H153	H	1.749434	-0.332531	1.217136
O154	O	0.669508	-0.567102	0.566500
O155	O	1.002841	-0.233768	0.899833
O156	O	1.336174	0.099565	1.233167
C157	C	0.798013	-0.623639	0.622907
C158	C	1.131347	-0.290306	0.956240
C159	C	1.464680	0.043027	1.289573
C160	C	0.756438	-0.559594	0.559106
C161	C	1.089772	-0.226260	0.892439
C162	C	1.423105	0.107073	1.225772
H163	H	0.868303	-0.617579	0.616962
H164	H	1.201636	-0.284246	0.950295
H165	H	1.534970	0.049087	1.283629
H166	H	0.778286	-0.689247	0.610489
H167	H	1.111620	-0.355914	0.943822
H168	H	1.444953	-0.022581	1.277156
H169	H	0.778220	-0.611466	0.688551
H170	H	1.111554	-0.278133	1.021884
H171	H	1.444887	0.055201	1.355217
H172	H	0.776211	-0.571690	0.493437
H173	H	1.109544	-0.238357	0.826771
H174	H	1.442877	0.094977	1.160104
H175	H	0.776165	-0.494007	0.571596
H176	H	1.109498	-0.160674	0.904929
H177	H	1.442831	0.172659	1.238263
H178	H	1.228324	-0.419341	0.970673
H179	H	1.561657	-0.086007	1.304006
H180	H	1.894990	0.247326	1.637339
H181	H	0.648426	-0.412192	0.412137
H182	H	0.981759	-0.078859	0.745470
H183	H	1.315092	0.254475	1.078803
