data_functionalizedCrystal
_audit_creation_method	'MofGen! by Chris Wilmer'
_symmetry_space_group_name_H-M	'P1'
_symmetry_Int_Tables_number	1
_symmetry_cell_setting	triclinic
loop_
_symmetry_equiv_pos_as_xyz
  x,y,z
_cell_length_a	17.638574
_cell_length_b	10.685382
_cell_length_c	10.686551
_cell_angle_alpha	81.588426
_cell_angle_beta	73.640872
_cell_angle_gamma	82.249478
loop_
_atom_site_label
_atom_site_type_symbol
_atom_site_fract_x
_atom_site_fract_y
_atom_site_fract_z
Zn1	Zn	-1.219487	0.816549	1.043972
Zn2	Zn	-1.197418	1.038530	0.808839
Zn3	Zn	-1.076303	0.789893	0.788874
Zn4	Zn	-1.076291	0.985759	0.984789
O5	O	-1.142375	0.907683	0.906619
O6	O	-1.327174	0.879235	1.045904
O7	O	-1.172121	1.016477	0.625796
O8	O	-1.104538	0.618559	0.839127
O9	O	-1.310960	1.042324	0.873153
O10	O	-1.209734	0.638142	1.026545
O11	O	-1.083139	0.833805	0.611128
O12	O	-0.965687	0.782636	0.781740
O13	O	-1.104517	0.952384	1.173034
O14	O	-0.965679	0.926538	0.925677
O15	O	-1.209722	0.828065	1.216516
O16	O	-1.172109	1.206400	0.815766
O17	O	-1.083118	1.167630	0.945036
C18	C	-0.937002	0.845969	0.845121
C19	C	-0.849142	0.819595	0.818839
C20	C	-0.725303	0.707371	0.706995
C21	C	-0.807860	0.732161	0.731699
C22	C	-0.807876	0.882279	0.881304
C23	C	-0.725317	0.857506	0.856608
C24	C	-0.684036	0.770050	0.769453
C25	C	-0.684050	0.920185	0.919065
C26	C	-0.601499	0.895409	0.894375
C27	C	-0.560213	0.807954	0.807228
C28	C	-0.601485	0.745274	0.744763
C29	C	-0.725333	1.007635	1.006227
C30	C	-0.684067	1.070313	1.068685
C31	C	-0.601513	1.045544	1.043988
C32	C	-0.560227	0.958089	0.956840
C33	C	-0.560241	1.108224	1.106453
C34	C	-0.477689	1.083448	1.081763
C35	C	-0.477675	0.933313	0.932150
C36	C	-1.125241	1.232362	0.876180
C37	C	-1.117985	1.371280	0.863223
C38	C	-0.348550	0.969627	0.968343
C39	C	-0.436409	0.995992	0.994608
C40	C	-1.159580	0.887312	1.242857
C41	C	-1.166912	0.878631	1.386142
C42	C	-1.159556	1.581727	0.937209
C43	C	-1.166768	1.442789	0.950240
C44	C	-1.125287	0.927898	0.571710
C45	C	-1.118126	0.936273	0.428505
H46	H	-0.444062	0.862097	0.861180
H47	H	-1.070659	1.416338	0.778809
H48	H	-0.593865	1.179422	1.177423
Br49	Br	-1.039164	1.029611	1.306255
H50	H	-0.841457	0.681102	0.680845
Br51	Br	-0.545451	0.626606	0.626453
Br52	Br	-0.448177	0.774316	0.773725
Br53	Br	-0.669269	0.588704	0.588685
H54	H	-0.717689	1.141517	1.139649
Br55	Br	-1.245891	0.785314	1.508399
H56	H	-0.444090	1.134484	1.132627
H57	H	-0.841498	0.953483	0.952269
Br58	Br	-0.837369	1.041262	1.039734
H59	H	-1.214085	1.397735	1.034658
