data_functionalizedCrystal
_audit_creation_method	'MofGen! by Chris Wilmer'
_symmetry_space_group_name_H-M	'P1'
_symmetry_Int_Tables_number	1
_symmetry_cell_setting	triclinic
loop_
_symmetry_equiv_pos_as_xyz
  x,y,z
_cell_length_a	21.395362
_cell_length_b	12.594516
_cell_length_c	21.395356
_cell_angle_alpha	90.020577
_cell_angle_beta	90.042977
_cell_angle_gamma	90.031933
loop_
_atom_site_label
_atom_site_type_symbol
_atom_site_fract_x
_atom_site_fract_y
_atom_site_fract_z
Zn1	Zn	0.957917	-0.423318	0.354617
Zn2	Zn	1.457917	0.076682	0.854617
Zn3	Zn	0.957848	-0.601311	0.249852
Zn4	Zn	1.457848	-0.101311	0.749852
Zn5	Zn	0.853134	-0.423396	0.249818
Zn6	Zn	1.353134	0.076604	0.749818
Zn7	Zn	0.853128	-0.601304	0.354557
Zn8	Zn	1.353128	-0.101304	0.854557
O9	O	0.905507	-0.512332	0.302211
O10	O	1.405507	-0.012332	0.802211
O11	O	1.045586	-0.446899	0.340759
O12	O	1.545586	0.053101	0.840759
O13	O	0.943931	-0.577745	0.162170
O14	O	1.443931	-0.077745	0.662170
O15	O	0.867065	-0.274440	0.263730
O16	O	1.367065	0.225560	0.763730
O17	O	1.045535	-0.577670	0.263789
O18	O	1.545535	-0.077670	0.763789
O19	O	0.944049	-0.274382	0.340725
O20	O	1.444049	0.225618	0.840725
O21	O	0.866998	-0.447032	0.162144
O22	O	1.366998	0.052968	0.662144
O23	O	0.765455	-0.447026	0.263672
O24	O	1.265455	0.052974	0.763672
O25	O	0.867055	-0.577658	0.442243
O26	O	1.367055	-0.077658	0.942243
O27	O	0.765451	-0.577734	0.340624
O28	O	1.265451	-0.077734	0.840624
O29	O	0.944043	-0.446893	0.442287
O30	O	1.444043	0.053107	0.942287
O31	O	0.943926	-0.750256	0.263731
O32	O	1.443926	-0.250256	0.763731
O33	O	0.866988	-0.750251	0.340657
O34	O	1.366988	-0.250251	0.840657
C35	C	0.742719	-0.512388	0.302138
C36	C	1.242719	-0.012388	0.802138
C37	C	0.673078	-0.512438	0.302122
C38	C	1.173078	-0.012438	0.802122
C39	C	0.640379	-0.580588	0.342130
C40	C	1.140379	-0.080588	0.842130
C41	C	0.574944	-0.580562	0.342158
C42	C	1.074944	-0.080562	0.842158
C43	C	0.542210	-0.512397	0.302167
C44	C	1.042210	-0.012397	0.802167
C45	C	0.574917	-0.444234	0.262155
C46	C	1.074917	0.055766	0.762155
C47	C	0.640351	-0.444254	0.262133
C48	C	1.140351	0.055746	0.762133
C49	C	0.438485	-0.503838	0.245761
C50	C	0.938485	-0.003838	0.745761
C51	C	0.373052	-0.503825	0.245782
C52	C	0.873052	-0.003825	0.745782
C53	C	0.340389	-0.512328	0.302236
C54	C	0.840389	-0.012328	0.802236
C55	C	0.373167	-0.520866	0.358670
C56	C	0.873167	-0.020866	0.858670
C57	C	0.438602	-0.520886	0.358648
C58	C	0.938602	-0.020886	0.858648
C59	C	0.471257	-0.512367	0.302187
C60	C	0.971257	-0.012367	0.802187
C61	C	0.236738	-0.580453	0.342278
C62	C	0.736738	-0.080453	0.842278
C63	C	0.171301	-0.580420	0.342307
C64	C	0.671301	-0.080420	0.842307
C65	C	0.171275	-0.444097	0.262298
C66	C	0.671275	0.055903	0.762298
C67	C	0.236710	-0.444125	0.262275
C68	C	0.736710	0.055875	0.762275
C69	C	0.269438	-0.512309	0.302264
C70	C	0.769438	-0.012309	0.802264
C71	C	0.905466	-0.788873	0.302205
C72	C	1.405466	-0.288873	0.802205
C73	C	0.905506	-0.907179	0.302223
C74	C	1.405506	-0.407179	0.802223
C75	C	0.863655	-0.976468	0.344034
C76	C	1.363655	-0.476468	0.844034
C77	C	0.848387	-1.047331	0.286856
C78	C	1.348387	-0.547331	0.786856
C79	C	0.920831	-1.047114	0.359410
C80	C	1.420831	-0.547114	0.859410
C81	C	0.890207	-0.976483	0.245015
C82	C	1.390207	-0.476483	0.745015
C83	C	0.962678	-0.976261	0.317608
C84	C	1.462678	-0.476261	0.817608
C85	C	0.947431	-1.047092	0.260391
C86	C	1.447431	-0.547092	0.760391
C87	C	1.068930	-0.512276	0.302284
C88	C	1.568930	-0.012276	0.802284
C89	C	1.138572	-0.512253	0.302315
C90	C	1.638572	-0.012253	0.802315
C91	C	0.905556	-0.512266	0.465634
C92	C	1.405556	-0.012266	0.965634
C93	C	0.905577	-0.512238	0.535275
C94	C	1.405577	-0.012238	1.035275
C95	C	0.905565	-0.234711	0.302231
C96	C	1.405565	0.265289	0.802231
C97	C	0.905590	-0.116406	0.302239
C98	C	1.405590	0.383594	0.802239
C99	C	0.905494	-0.512321	0.139423
C100	C	1.405494	-0.012321	0.639423
C101	C	0.905594	-0.512049	0.069782
C102	C	1.405594	-0.012049	0.569782
C103	C	0.865529	-0.444168	0.567966
C104	C	1.365529	0.055832	1.067966
C105	C	0.865527	-0.444148	0.633401
C106	C	1.365527	0.055852	1.133401
C107	C	0.905584	-0.512187	0.666144
C108	C	1.405584	-0.012187	1.166144
C109	C	0.945635	-0.580271	0.633446
C110	C	1.445635	-0.080271	1.133446
C111	C	0.945632	-0.580296	0.568012
C112	C	1.445632	-0.080296	1.068012
C113	C	0.962037	-0.520529	0.769850
C114	C	1.462037	-0.020529	1.269850
C115	C	0.962042	-0.520496	0.835283
C116	C	1.462042	-0.020496	1.335283
C117	C	0.905595	-0.512115	0.867965
C118	C	1.405595	-0.012115	1.367965
C119	C	0.849141	-0.503745	0.835206
C120	C	1.349141	-0.003745	1.335206
C121	C	0.849137	-0.503771	0.769771
C122	C	1.349137	-0.003771	1.269771
C123	C	0.905592	-0.512168	0.737096
C124	C	1.405592	-0.012168	1.237096
C125	C	0.865540	-0.444020	0.971607
C126	C	1.365540	0.055980	1.471607
C127	C	0.865537	-0.444008	1.037044
C128	C	1.365537	0.055992	1.537044
C129	C	0.945651	-0.580125	1.037088
C130	C	1.445651	-0.080125	1.537088
C131	C	0.945649	-0.580143	0.971652
C132	C	1.445649	-0.080143	1.471652
C133	C	0.905594	-0.512085	0.938916
C134	C	1.405594	-0.012085	1.438916
H135	H	0.346369	-0.496879	0.199830
H136	H	0.846369	0.003121	0.699830
C137	C	0.995291	-1.088734	0.212586
C138	C	1.495291	-0.588734	0.712586
H139	H	1.025929	-1.130174	0.233507
H140	H	1.525929	-0.630174	0.733507
H141	H	0.974515	-1.131275	0.182343
H142	H	1.474515	-0.631275	0.682343
H143	H	1.014962	-1.030437	0.192421
H144	H	1.514962	-0.530437	0.692421
H145	H	0.803171	-0.496958	0.743101
H146	H	1.303171	0.003042	1.243101
C147	C	0.989691	-0.655170	0.532051
C148	C	1.489691	-0.155170	1.032051
H149	H	1.013550	-0.695687	0.560921
H150	H	1.513550	-0.195687	1.060921
H151	H	0.965714	-0.701560	0.506501
H152	H	1.465714	-0.201560	1.006501
H153	H	1.017001	-0.614444	0.506551
H154	H	1.517001	-0.114444	1.006551
H155	H	0.263334	-0.388635	0.229692
H156	H	0.763334	0.111365	0.729692
H157	H	0.803176	-0.496914	0.861814
H158	H	1.303176	0.003086	1.361814
H159	H	0.667022	-0.636107	0.374694
H160	H	1.167022	-0.136107	0.874694
C161	C	0.821480	-0.369172	0.935592
C162	C	1.321480	0.130828	1.435592
H163	H	0.827219	-0.378925	0.891939
H164	H	1.327219	0.121075	1.391939
H165	H	0.779379	-0.384759	0.946283
H166	H	1.279379	0.115241	1.446283
H167	H	0.830668	-0.297647	0.946330
H168	H	1.330668	0.202353	1.446330
H169	H	0.800077	-1.078570	0.273857
H170	H	1.300077	-0.578570	0.773857
C171	C	0.538967	-0.655468	0.386206
C172	C	1.038967	-0.155468	0.886206
H173	H	0.567830	-0.696062	0.410027
H174	H	1.067830	-0.196062	0.910027
H175	H	0.513507	-0.614749	0.413542
H176	H	1.013507	-0.114749	0.913542
H177	H	0.513377	-0.701804	0.362229
H178	H	1.013377	-0.201804	0.862229
C179	C	0.815763	-0.934562	0.391728
C180	C	1.315763	-0.434562	0.891728
H181	H	0.775190	-0.958901	0.380697
H182	H	1.275190	-0.458901	0.880697
H183	H	0.826221	-0.959784	0.432243
H184	H	1.326221	-0.459784	0.932243
H185	H	0.816325	-0.859138	0.391654
H186	H	1.316325	-0.359138	0.891654
C187	C	0.821482	-0.369126	1.073004
C188	C	1.321482	0.130874	1.573004
H189	H	0.797633	-0.328593	1.044133
H190	H	1.297633	0.171407	1.544133
H191	H	0.794172	-0.409835	1.098506
H192	H	1.294172	0.090165	1.598506
H193	H	0.845468	-0.322734	1.098550
H194	H	1.345468	0.177266	1.598550
H195	H	0.978250	-0.635669	0.660109
H196	H	1.478250	-0.135669	1.160109
H197	H	0.465287	-0.527835	0.404598
H198	H	0.965287	-0.027835	0.904598
C199	C	0.872660	-0.934752	0.179675
C200	C	1.372660	-0.434752	0.679675
H201	H	0.872714	-0.859323	0.180073
H202	H	1.372714	-0.359323	0.680073
H203	H	0.902229	-0.959497	0.149955
H204	H	1.402229	-0.459497	0.649955
H205	H	0.832199	-0.959680	0.168691
H206	H	1.332199	-0.459680	0.668691
C207	C	1.027936	-0.934095	0.335193
C208	C	1.527936	-0.434095	0.835193
H209	H	1.038738	-0.958245	0.375850
H210	H	1.538738	-0.458245	0.875850
H211	H	1.057783	-0.959353	0.305904
H212	H	1.557783	-0.459353	0.805904
H213	H	1.027546	-0.858673	0.334686
H214	H	1.527546	-0.358673	0.834686
H215	H	0.978262	-0.635570	0.945036
H216	H	1.478262	-0.135570	1.445036
H217	H	0.346575	-0.527788	0.404640
H218	H	0.846575	-0.027788	0.904640
C219	C	0.474407	-0.494426	0.183661
C220	C	0.974407	0.005574	0.683661
H221	H	0.445516	-0.489336	0.150056
H222	H	0.945516	0.010664	0.650056
H223	H	0.499949	-0.432725	0.184548
H224	H	0.999949	0.067275	0.684548
H225	H	0.499912	-0.555409	0.178065
H226	H	0.999912	-0.055409	0.678065
C227	C	0.938300	-1.089026	0.424732
C228	C	1.438300	-0.589026	0.924732
H229	H	0.908494	-1.064832	0.454379
H230	H	1.408494	-0.564832	0.954379
H231	H	0.938581	-1.164443	0.424180
H232	H	1.438581	-0.664443	0.924180
H233	H	0.978599	-1.063636	0.435942
H234	H	1.478599	-0.563636	0.935942
H235	H	0.832911	-0.388754	0.541316
H236	H	1.332911	0.111246	1.041316
H237	H	0.666974	-0.388755	0.229553
H238	H	1.166974	0.111245	0.729553
H239	H	0.832916	-0.388712	0.660023
H240	H	1.332916	0.111288	1.160023
C241	C	0.989715	-0.654966	1.073097
C242	C	1.489715	-0.154966	1.573097
H243	H	0.983984	-0.645198	1.116749
H244	H	1.483984	-0.145198	1.616749
H245	H	0.980532	-0.726488	1.062360
H246	H	1.480532	-0.226488	1.562360
H247	H	1.031817	-0.639368	1.062404
H248	H	1.531817	-0.139368	1.562404
H249	H	1.008010	-0.527306	0.861950
H250	H	1.508010	-0.027306	1.361950
H251	H	1.008008	-0.527344	0.743246
H252	H	1.508008	-0.027344	1.243246
H253	H	0.263386	-0.635967	0.374843
H254	H	0.763386	-0.135967	0.874843
H255	H	0.144679	-0.635913	0.374891
H256	H	0.644679	-0.135913	0.874891
H257	H	0.144624	-0.388591	0.229739
H258	H	0.644624	0.111409	0.729739
H259	H	0.548260	-0.388732	0.229595
H260	H	1.048260	0.111268	0.729595
