data_functionalizedCrystal
_audit_creation_method	'MofGen! by Chris Wilmer'
_symmetry_space_group_name_H-M	'P1'
_symmetry_Int_Tables_number	1
_symmetry_cell_setting	triclinic
loop_
_symmetry_equiv_pos_as_xyz
  x,y,z
_cell_length_a	13.897449
_cell_length_b	13.897441
_cell_length_c	10.685194
_cell_angle_alpha	85.599334
_cell_angle_beta	94.377705
_cell_angle_gamma	89.976606
loop_
_atom_site_label
_atom_site_type_symbol
_atom_site_fract_x
_atom_site_fract_y
_atom_site_fract_z
Zn1	Zn	1.445333	-0.516007	-0.502344
Zn2	Zn	1.945333	-0.016007	-0.002344
Zn3	Zn	1.432888	-0.342338	-0.713404
Zn4	Zn	1.932888	0.157662	-0.213404
Zn5	Zn	1.284019	-0.354714	-0.502403
Zn6	Zn	1.784019	0.145286	-0.002403
Zn7	Zn	1.271669	-0.503588	-0.713319
Zn8	Zn	1.771669	-0.003588	-0.213319
O9	O	1.358477	-0.429162	-0.607868
O10	O	1.858477	0.070838	-0.107868
O11	O	1.578663	-0.492987	-0.530353
O12	O	2.078663	0.007013	-0.030353
O13	O	1.413100	-0.208994	-0.685474
O14	O	1.913100	0.291006	-0.185474
O15	O	1.315794	-0.386487	-0.325796
O16	O	1.815794	0.113513	0.174204
O17	O	1.569520	-0.365393	-0.685417
O18	O	2.069520	0.134607	-0.185417
O19	O	1.434311	-0.504988	-0.325754
O20	O	1.934311	-0.004988	0.174246
O21	O	1.303726	-0.218087	-0.530452
O22	O	1.803726	0.281913	-0.030452
O23	O	1.147400	-0.374445	-0.530370
O24	O	1.647400	0.125555	-0.030370
O25	O	1.294747	-0.640221	-0.685273
O26	O	1.794747	-0.140221	-0.185273
O27	O	1.138327	-0.483822	-0.685330
O28	O	1.638327	0.016178	-0.185330
O29	O	1.422337	-0.649345	-0.530271
O30	O	1.922337	-0.149345	-0.030271
O31	O	1.401125	-0.353351	-0.889991
O32	O	1.901125	0.146649	-0.389991
O33	O	1.282679	-0.471821	-0.889929
O34	O	1.782679	0.028179	-0.389929
C35	C	1.107864	-0.429129	-0.607848
C36	C	1.607864	0.070871	-0.107848
C37	C	1.000649	-0.429136	-0.607870
C38	C	1.500649	0.070864	-0.107870
C39	C	0.913579	-0.429152	-0.607874
C40	C	1.413579	0.070848	-0.107874
C41	C	0.804346	-0.429181	-0.607883
C42	C	1.304346	0.070819	-0.107883
C43	C	1.358552	-0.680761	-0.607756
C44	C	1.858552	-0.180761	-0.107756
C45	C	1.358584	-0.787978	-0.607708
C46	C	1.858584	-0.287978	-0.107708
C47	C	1.358615	-0.984278	-0.607623
C48	C	1.858615	-0.484278	-0.107623
C49	C	1.358595	-0.875043	-0.607674
C50	C	1.858595	-0.375043	-0.107674
C51	C	1.610069	-0.429195	-0.607888
C52	C	2.110069	0.070805	-0.107888
C53	C	1.717282	-0.429209	-0.607897
C54	C	2.217282	0.070791	-0.107897
C55	C	1.339237	-0.409916	-0.935750
C56	C	1.839237	0.090084	-0.435750
C57	C	1.331095	-0.401715	-1.076020
C58	C	1.831095	0.098285	-0.576020
C59	C	1.358463	-0.178546	-0.607888
C60	C	1.858463	0.321454	-0.107888
C61	C	1.358639	-0.071351	-0.607580
C62	C	1.858639	0.428649	-0.107580
C63	C	1.377819	-0.448503	-0.278705
C64	C	1.877819	0.051497	0.221295
C65	C	1.386061	-0.456746	-0.138435
C66	C	1.886061	0.043254	0.361565
H67	H	1.277797	-0.348331	-1.129893
H68	H	1.777797	0.151669	-0.629893
H69	H	1.439354	-0.510142	-1.084556
H70	H	1.939354	-0.010142	-0.584556
