data_functionalizedCrystal
_audit_creation_method	'MofGen! by Chris Wilmer'
_symmetry_space_group_name_H-M	'P1'
_symmetry_Int_Tables_number	1
_symmetry_cell_setting	triclinic
loop_
_symmetry_equiv_pos_as_xyz
  x,y,z
_cell_length_a	14.044220
_cell_length_b	11.792241
_cell_length_c	12.503572
_cell_angle_alpha	93.547243
_cell_angle_beta	86.164750
_cell_angle_gamma	88.691147
loop_
_atom_site_label
_atom_site_type_symbol
_atom_site_fract_x
_atom_site_fract_y
_atom_site_fract_z
O1	O	1.264542	0.267762	-0.089207
O2	O	1.764542	0.767762	0.410793
O3	O	0.988523	0.257881	-0.089234
O4	O	1.488523	0.757881	0.410766
O5	O	1.133230	0.098280	-0.089212
O6	O	1.633230	0.598280	0.410788
O7	O	1.119835	0.427363	-0.089229
O8	O	1.619835	0.927363	0.410771
O9	O	1.122348	0.110305	0.089428
O10	O	1.622348	0.610305	0.589428
O11	O	0.977641	0.269906	0.089406
O12	O	1.477641	0.769906	0.589406
O13	O	1.253659	0.279786	0.089434
O14	O	1.753659	0.779786	0.589434
Cu15	Cu	1.114656	0.275944	0.105731
Cu16	Cu	1.614656	0.775944	0.605731
Cu17	Cu	1.127526	0.261723	-0.105532
Cu18	Cu	1.627526	0.761723	0.394468
O19	O	1.108952	0.439387	0.089412
O20	O	1.608952	0.939387	0.589412
C21	C	0.947746	0.259569	0.000083
C22	C	1.447746	0.759569	0.500083
C23	C	0.842454	0.246669	0.000073
C24	C	1.342454	0.746669	0.500073
C25	C	1.126948	0.061923	0.000108
C26	C	1.626948	0.561923	0.500108
C27	C	1.124429	-0.064328	0.000106
C28	C	1.624429	0.435672	0.500106
C29	C	1.119799	-0.295476	0.000088
C30	C	1.619799	0.204524	0.500088
C31	C	1.122371	-0.166848	0.000098
C32	C	1.622371	0.333152	0.500098
C33	C	0.649670	0.223088	0.000095
C34	C	1.149670	0.723088	0.500095
C35	C	0.592507	0.314573	0.000095
C36	C	1.092507	0.814573	0.500095
C37	C	0.485236	0.301453	0.000108
C38	C	0.985236	0.801453	0.500108
C39	C	0.756952	0.236207	0.000083
C40	C	1.256952	0.736207	0.500083
C41	C	1.294437	0.278099	0.000114
C42	C	1.794437	0.778099	0.500114
C43	C	1.399729	0.290998	0.000118
C44	C	1.899729	0.790998	0.500118
C45	C	1.115235	0.475745	0.000090
C46	C	1.615235	0.975745	0.500090
C47	C	1.117754	0.601994	0.000084
C48	C	1.617754	1.101994	0.500084
N49	N	1.105611	0.285946	0.254322
N50	N	1.605611	0.785946	0.754322
N51	N	1.136579	0.251713	-0.254123
N52	N	1.636579	0.751713	0.245877
C53	C	1.092305	0.300669	0.473435
C54	C	1.592305	0.800669	0.973435
C55	C	1.149882	0.236994	0.526771
C56	C	1.649882	0.736994	1.026771
C57	C	1.142478	0.245186	0.648693
C58	C	1.642478	0.745186	1.148693
C59	C	1.099708	0.292478	0.351502
C60	C	1.599708	0.792478	0.851502
H61	H	0.624132	0.402750	0.000086
H62	H	1.124132	0.902750	0.500086
H63	H	0.618047	0.134919	0.000105
H64	H	1.118047	0.634919	0.500105
O65	O	1.026827	0.372894	0.528309
O66	O	1.526827	0.872894	1.028309
C67	C	0.889823	0.392542	0.655411
C68	C	1.389823	0.892542	1.155411
C69	C	0.963926	0.310624	0.593335
C70	C	1.463926	0.810624	1.093335
H71	H	0.838937	0.342227	0.707982
H72	H	1.338937	0.842227	1.207982
H73	H	0.927952	0.456817	0.708130
H74	H	1.427952	0.956817	1.208130
H75	H	0.847679	0.439231	0.596008
H76	H	1.347679	0.939231	1.096008
H77	H	1.006093	0.263857	0.652660
H78	H	1.506093	0.763857	1.152660
H79	H	0.925740	0.246421	0.540600
H80	H	1.425740	0.746421	1.040600
O81	O	1.215127	0.164492	0.471851
O82	O	1.715127	0.664492	0.971851
C83	C	1.281775	0.089723	0.298489
C84	C	1.781775	0.589723	0.798489
C85	C	1.207975	0.172037	0.360558
C86	C	1.707975	0.672037	0.860558
H87	H	1.276004	0.095778	0.208498
H88	H	1.776004	0.595778	0.708498
H89	H	1.356660	0.113259	0.320283
H90	H	1.856660	0.613259	0.820283
H91	H	1.267249	-0.000876	0.320749
H92	H	1.767249	0.499124	0.820749
H93	H	1.222412	0.262663	0.338331
H94	H	1.722412	0.762663	0.838331
H95	H	1.133113	0.148404	0.338759
H96	H	1.633113	0.648404	0.838759
