data_functionalizedCrystal
_audit_creation_method	'MofGen! by Chris Wilmer'
_symmetry_space_group_name_H-M	'P1'
_symmetry_Int_Tables_number	1
_symmetry_cell_setting	triclinic
loop_
_symmetry_equiv_pos_as_xyz
  x,y,z
_cell_length_a	13.339070
_cell_length_b	15.995350
_cell_length_c	12.376457
_cell_angle_alpha	101.278656
_cell_angle_beta	75.589755
_cell_angle_gamma	99.560835
loop_
_atom_site_label
_atom_site_type_symbol
_atom_site_fract_x
_atom_site_fract_y
_atom_site_fract_z
O1	O	1.361687	0.408219	-0.094025
O2	O	1.067160	0.353123	-0.094021
O3	O	1.222474	0.260654	-0.094022
O4	O	1.206373	0.500688	-0.094024
O5	O	1.183660	0.283730	0.093990
O6	O	1.028345	0.376200	0.093991
O7	O	1.322873	0.431295	0.093987
Zn8	Zn	1.169446	0.407411	0.123840
Zn9	Zn	1.220586	0.377007	-0.123874
O10	O	1.167558	0.523765	0.093988
C11	C	1.010063	0.355354	-0.000015
C12	C	0.897761	0.327613	-0.000013
C13	C	0.532972	0.543314	-0.000033
C14	C	0.638486	0.569381	-0.000038
C15	C	0.703309	0.508941	-0.000031
C16	C	0.662609	0.422430	-0.000021
C17	C	0.557087	0.396360	-0.000025
C18	C	0.727425	0.361987	-0.000023
C19	C	0.686725	0.275476	-0.000013
C20	C	0.581212	0.249410	-0.000016
C21	C	0.516389	0.309850	-0.000023
C22	C	0.832947	0.388057	-0.000019
C23	C	0.857062	0.241103	-0.000011
C24	C	0.751549	0.215036	-0.000006
C25	C	1.202402	0.240842	-0.000018
C26	C	1.200407	0.147428	-0.000025
C27	C	1.193239	-0.191985	-0.000021
C28	C	1.082714	-0.170299	-0.000441
C29	C	1.084622	-0.073093	-0.000017
C30	C	1.196795	-0.023598	-0.000023
C31	C	1.229188	-0.038823	0.107338
C32	C	1.226391	-0.136094	0.107428
C33	C	1.272816	-0.162164	-0.106377
C34	C	1.273082	-0.065398	-0.107796
C35	C	1.198810	0.071568	-0.000021
C36	C	1.191226	-0.287149	-0.000015
C37	C	1.379970	0.429064	-0.000022
C38	C	1.492273	0.456804	-0.000031
C39	C	1.187631	0.543576	-0.000018
C40	C	1.189627	0.636990	-0.000019
N41	N	1.134551	0.428163	0.292899
N42	N	1.255489	0.356251	-0.292933
C43	C	1.336490	0.308063	0.647882
C44	C	1.360907	0.293538	0.529542
C45	C	1.304320	0.327193	0.470376
C46	C	1.223312	0.375376	0.529561
C47	C	1.198898	0.389908	0.647912
C48	C	1.166728	0.409038	0.470405
C49	C	1.085720	0.457221	0.529590
C50	C	1.061310	0.471751	0.647930
C51	C	1.117897	0.438096	0.707097
C52	C	1.191142	0.394505	0.352054
C53	C	1.053550	0.476350	0.352084
C54	C	1.029133	0.490876	0.470424
H55	H	0.671618	0.639816	-0.000055
O56	O	0.463059	0.608499	-0.000031
H57	H	0.382849	0.575836	-0.000023
O58	O	1.337255	0.005896	0.112635
H59	H	1.333233	0.053270	0.191702
H60	H	1.025532	-0.045796	0.077076
O61	O	0.707640	0.121731	0.000005
H62	H	0.770432	0.084079	0.000020
H63	H	0.430470	0.288631	-0.000018
O64	O	1.151738	-0.159544	0.213729
H65	H	1.117967	-0.101440	0.264584
O66	O	0.926962	0.175905	0.000007
H67	H	1.007168	0.208568	0.000023
O68	O	1.381047	-0.179251	-0.107358
H69	H	1.381196	-0.249069	-0.110592
H70	H	1.057625	-0.064081	-0.076978
H71	H	1.054398	-0.208552	-0.077432
H72	H	1.306596	-0.148878	0.112295
O73	O	0.992494	0.512642	0.288286
H74	H	1.023067	0.494430	0.196051
O75	O	1.278492	0.342524	0.288216
H76	H	1.352672	0.374327	0.310908
O77	O	0.537320	0.156101	-0.000018
H78	H	0.453061	0.148126	-0.000033
O79	O	1.003467	-0.197332	0.100982
H80	H	1.042457	-0.226144	0.151690
O81	O	1.383215	-0.020941	-0.116388
H82	H	1.409686	0.005829	-0.196471
H83	H	0.995356	0.510992	0.696119
O84	O	0.817111	0.537051	-0.000018
H85	H	0.834520	0.607362	-0.000013
H86	H	1.324204	0.315364	0.374018
H87	H	0.866073	0.458495	-0.000023
O88	O	1.157154	0.000098	0.213183
H89	H	1.098235	0.030308	0.189593
H90	H	1.253451	-0.201093	-0.187751
O91	O	1.397516	0.271774	0.711703
H92	H	1.481058	0.298021	0.688978
H93	H	1.249590	-0.057165	-0.187219
O94	O	1.091564	0.453774	0.834740
H95	H	1.144527	0.422279	0.865933
O96	O	0.941780	0.542863	0.534263
H97	H	0.867598	0.511055	0.511581
O98	O	1.448264	0.241564	0.465706
H99	H	1.483504	0.220594	0.526727
