data_functionalizedCrystal
_audit_creation_method	'MofGen! by Chris Wilmer'
_symmetry_space_group_name_H-M	'P1'
_symmetry_Int_Tables_number	1
_symmetry_cell_setting	triclinic
loop_
_symmetry_equiv_pos_as_xyz
  x,y,z
_cell_length_a	16.109301
_cell_length_b	18.266242
_cell_length_c	16.109304
_cell_angle_alpha	90.003536
_cell_angle_beta	83.462059
_cell_angle_gamma	90.006317
loop_
_atom_site_label
_atom_site_type_symbol
_atom_site_fract_x
_atom_site_fract_y
_atom_site_fract_z
O1	O	1.103138	0.060830	0.106868
O2	O	1.436472	0.394163	0.440202
O3	O	1.769805	0.727497	0.773535
O4	O	0.861076	0.060841	0.120168
O5	O	1.194410	0.394174	0.453501
O6	O	1.527743	0.727508	0.786834
O7	O	0.988756	0.060836	-0.007513
O8	O	1.322089	0.394169	0.325820
O9	O	1.655422	0.727502	0.659154
O10	O	0.975459	0.060835	0.234549
O11	O	1.308792	0.394169	0.567882
O12	O	1.642126	0.727502	0.901215
O13	O	0.988734	-0.060926	-0.007519
O14	O	1.322067	0.272407	0.325814
O15	O	1.655401	0.605740	0.659147
O16	O	0.861055	-0.060921	0.120161
O17	O	1.194388	0.272412	0.453494
O18	O	1.527721	0.605746	0.786828
O19	O	1.103117	-0.060932	0.106862
O20	O	1.436450	0.272401	0.440195
O21	O	1.769783	0.605735	0.773528
Zn22	Zn	0.982082	-0.080259	0.113510
Zn23	Zn	1.315416	0.253075	0.446844
Zn24	Zn	1.648749	0.586408	0.780177
Zn25	Zn	0.982111	0.080168	0.113519
Zn26	Zn	1.315444	0.413501	0.446852
Zn27	Zn	1.648777	0.746835	0.780186
O28	O	0.975437	-0.060927	0.234542
O29	O	1.308771	0.272407	0.567876
O30	O	1.642104	0.605740	0.901209
C31	C	0.830091	-0.000038	0.119626
C32	C	1.163424	0.333295	0.452959
C33	C	1.496757	0.666628	0.786292
C34	C	0.737795	-0.000034	0.118010
C35	C	1.071129	0.333299	0.451344
C36	C	1.404462	0.666633	0.784677
N37	N	0.982069	-0.189746	0.113504
N38	N	1.315402	0.143588	0.446837
N39	N	1.648736	0.476921	0.780171
C40	C	0.515524	-0.000043	0.190018
C41	C	0.848857	0.333291	0.523351
C42	C	1.182190	0.666624	0.856685
C43	C	0.428803	-0.000047	0.188494
C44	C	0.762137	0.333286	0.521827
C45	C	1.095470	0.666619	0.855161
C46	C	0.448676	-0.000044	0.037005
C47	C	0.782009	0.333289	0.370339
C48	C	1.115343	0.666623	0.703672
C49	C	0.535395	-0.000045	0.038530
C50	C	0.868728	0.333289	0.371864
C51	C	1.202062	0.666622	0.705197
C52	C	0.568816	-0.000040	0.115039
C53	C	0.902149	0.333293	0.448372
C54	C	1.235483	0.666627	0.781706
C55	C	0.395377	-0.000044	0.111990
C56	C	0.728710	0.333289	0.445324
C57	C	1.062044	0.666622	0.778657
C58	C	0.301351	-0.000049	0.110337
C59	C	0.634684	0.333284	0.443670
C60	C	0.968018	0.666617	0.777004
C61	C	0.662848	-0.000036	0.116693
C62	C	0.996181	0.333297	0.450026
C63	C	1.329515	0.666630	0.783359
C64	C	1.038624	-0.228057	0.056995
C65	C	1.371957	0.105276	0.390328
C66	C	1.705291	0.438610	0.723661
C67	C	1.038629	-0.304702	0.056991
C68	C	1.371962	0.028631	0.390324
C69	C	1.705296	0.361965	0.723657
C70	C	0.982087	-0.343033	0.113510
C71	C	1.315421	-0.009699	0.446844
C72	C	1.648754	0.323634	0.780177
C73	C	0.925522	-0.304712	0.170024
C74	C	1.258855	0.028621	0.503357
C75	C	1.592188	0.361955	0.836691
C76	C	0.925513	-0.228069	0.170021
C77	C	1.258846	0.105265	0.503354
C78	C	1.592179	0.438598	0.836687
N79	N	0.971486	-0.463365	0.187080
N80	N	1.304819	-0.130031	0.520413
N81	N	1.638152	0.203302	0.853747
N82	N	0.971500	-0.536173	0.187080
N83	N	1.304833	-0.202839	0.520414
N84	N	1.638166	0.130494	0.853747
C85	C	0.982111	-0.573955	0.113523
C86	C	1.315444	-0.240622	0.446856
C87	C	1.648777	0.092712	0.780189
N88	N	0.992724	-0.536179	0.039962
N89	N	1.326057	-0.202845	0.373295
N90	N	1.659391	0.130488	0.706628
N91	N	0.992714	-0.463364	0.039962
N92	N	1.326048	-0.130031	0.373295
N93	N	1.659381	0.203303	0.706629
C94	C	0.982091	-0.426140	0.113520
C95	C	1.315424	-0.092806	0.446853
C96	C	1.648757	0.240527	0.780187
C97	C	1.038675	-0.695373	0.057005
C98	C	1.372008	-0.362040	0.390338
C99	C	1.705341	-0.028707	0.723671
C100	C	1.038674	-0.772020	0.057000
C101	C	1.372007	-0.438686	0.390333
C102	C	1.705341	-0.105353	0.723666
C103	C	0.925571	-0.772028	0.170040
C104	C	1.258904	-0.438695	0.503373
C105	C	1.592237	-0.105362	0.836707
C106	C	0.925567	-0.695384	0.170038
C107	C	1.258901	-0.362050	0.503371
C108	C	1.592234	-0.028717	0.836704
C109	C	0.982124	-0.657061	0.113521
C110	C	1.315457	-0.323727	0.446854
C111	C	1.648790	0.009606	0.780188
C112	C	1.134102	-0.000051	0.107404
C113	C	1.467436	0.333283	0.440737
C114	C	1.800769	0.666616	0.774070
C115	C	1.226398	-0.000050	0.109019
C116	C	1.559731	0.333283	0.442352
C117	C	1.893064	0.666616	0.775686
C118	C	0.988206	-0.000044	-0.038491
C119	C	1.321539	0.333290	0.294842
C120	C	1.654873	0.666623	0.628176
C121	C	0.986590	-0.000039	-0.130786
C122	C	1.319923	0.333295	0.202547
C123	C	1.653257	0.666628	0.535880
N124	N	0.982131	0.189655	0.113519
N125	N	1.315464	0.522988	0.446852
N126	N	1.648797	0.856322	0.780186
C127	C	0.982868	0.066331	-0.343120
C128	C	1.316201	0.399665	-0.009787
C129	C	1.649535	0.732998	0.323547
C130	C	0.981342	0.066331	-0.429840
C131	C	1.314675	0.399664	-0.096507
C132	C	1.648009	0.732997	0.236827
C133	C	0.981323	-0.066421	-0.429844
C134	C	1.314656	0.266912	-0.096511
C135	C	1.647989	0.600246	0.236822
C136	C	0.982843	-0.066420	-0.343125
C137	C	1.316176	0.266914	-0.009792
C138	C	1.649509	0.600247	0.323542
C139	C	0.983620	-0.000041	-0.299766
C140	C	1.316953	0.333292	0.033568
C141	C	1.650286	0.666625	0.366901
C142	C	0.980573	-0.000043	-0.473205
C143	C	1.313907	0.333290	-0.139872
C144	C	1.647240	0.666623	0.193462
C145	C	0.978919	-0.000044	-0.567231
C146	C	1.312252	0.333289	-0.233898
C147	C	1.645585	0.666622	0.099436
C148	C	0.985273	-0.000040	-0.205734
C149	C	1.318606	0.333294	0.127600
C150	C	1.651939	0.666627	0.460933
C151	C	0.975987	-0.000046	0.265520
C152	C	1.309320	0.333288	0.598854
C153	C	1.642654	0.666621	0.932187
C154	C	0.977603	-0.000046	0.357816
C155	C	1.310937	0.333288	0.691149
C156	C	1.644270	0.666621	1.024482
H157	H	0.542732	-0.000044	0.252316
H158	H	0.876065	0.333289	0.585650
H159	H	1.209399	0.666622	0.918983
F160	F	0.592116	-0.000047	-0.041277
F161	F	0.925450	0.333286	0.292056
F162	F	1.258783	0.666620	0.625390
H163	H	1.084673	-0.196857	0.010974
H164	H	1.418007	0.136477	0.344307
H165	H	1.751340	0.469810	0.677640
F166	F	0.983692	0.136977	-0.296976
F167	F	1.317025	0.470310	0.036357
F168	F	1.650358	0.803644	0.369691
H169	H	0.879458	-0.196875	0.216038
H170	H	1.212791	0.136458	0.549371
H171	H	1.546124	0.469792	0.882705
F172	F	0.372089	-0.000051	0.268297
F173	F	0.705422	0.333282	0.601630
F174	F	1.038755	0.666616	0.934964
H175	H	1.084724	-0.664170	0.010983
H176	H	1.418057	-0.330836	0.344316
H177	H	1.751390	0.002497	0.677649
F178	F	0.413099	-0.000046	-0.044416
F179	F	0.746432	0.333288	0.288917
F180	F	1.079766	0.666621	0.622251
F181	F	1.098826	-0.345482	-0.003157
F182	F	1.432159	-0.012149	0.330176
F183	F	1.765493	0.321184	0.663510
H184	H	0.879483	-0.335925	0.216042
H185	H	1.212817	-0.002591	0.549375
H186	H	1.546150	0.330742	0.882709
F187	F	1.098866	-0.812795	-0.003152
F188	F	1.432199	-0.479462	0.330181
F189	F	1.765532	-0.146128	0.663514
H190	H	0.879530	-0.803237	0.216056
H191	H	1.212863	-0.469903	0.549389
H192	H	1.546197	-0.136570	0.882723
F193	F	0.865377	-0.654607	0.230186
F194	F	1.198711	-0.321273	0.563520
F195	F	1.532044	0.012060	0.896853
H196	H	0.980728	0.120378	-0.465135
H197	H	1.314062	0.453711	-0.131802
H198	H	1.647395	0.787045	0.201532
H199	H	0.980692	-0.120464	-0.465158
H200	H	1.314025	0.212870	-0.131825
H201	H	1.647358	0.546203	0.201508
F202	F	0.983635	-0.137066	-0.296980
F203	F	1.316968	0.196267	0.036353
F204	F	1.650301	0.529601	0.369686
