data_functionalizedCrystal
_audit_creation_method	'MofGen! by Chris Wilmer'
_symmetry_space_group_name_H-M	'P1'
_symmetry_Int_Tables_number	1
_symmetry_cell_setting	triclinic
loop_
_symmetry_equiv_pos_as_xyz
  x,y,z
_cell_length_a	15.944551
_cell_length_b	17.699083
_cell_length_c	16.176319
_cell_angle_alpha	90.007696
_cell_angle_beta	90.002924
_cell_angle_gamma	83.390876
loop_
_atom_site_label
_atom_site_type_symbol
_atom_site_fract_x
_atom_site_fract_y
_atom_site_fract_z
O1	O	-1.114322	-0.097616	-0.068662
O2	O	-0.869747	-0.109651	-0.068683
O3	O	-0.998945	0.006544	-0.068665
O4	O	-0.985125	-0.213811	-0.068680
O5	O	-0.998927	0.006551	0.068829
O6	O	-0.869729	-0.109643	0.068810
O7	O	-1.114304	-0.097609	0.068831
Cu8	Cu	-0.992015	-0.103625	0.081375
Cu9	Cu	-0.992036	-0.103634	-0.081227
O10	O	-0.985107	-0.213803	0.068813
C11	C	-0.838445	-0.109147	0.000061
C12	C	-0.745203	-0.107650	0.000054
C13	C	-1.145606	-0.098112	0.000085
C14	C	-1.238849	-0.099610	0.000088
C15	C	-0.530505	-0.032046	0.000075
C16	C	-0.469420	-0.067158	-0.067719
C17	C	-0.574482	-0.104940	0.000063
C18	C	-0.469424	-0.067168	0.067839
C19	C	-0.409575	-0.102317	0.000077
C20	C	-0.514625	-0.140071	-0.067786
C21	C	-0.514636	-0.140071	0.067832
C22	C	-0.453569	-0.175235	0.000022
C23	C	-0.669481	-0.106449	0.000055
C24	C	-0.314577	-0.100814	0.000079
C25	C	-0.998440	0.034746	0.000082
C26	C	-0.996955	0.118766	0.000082
C27	C	-0.985611	-0.242005	0.000064
C28	C	-0.987097	-0.326026	0.000059
N29	N	-0.992007	-0.103619	0.195740
C30	C	-1.072791	0.167258	0.000090
C31	C	-1.071390	0.246203	0.000083
C32	C	-0.994152	0.276656	0.000073
C33	C	-0.918310	0.228158	0.000063
C34	C	-0.919712	0.149214	0.000065
C35	C	-0.912656	0.546531	0.000056
C36	C	-0.911260	0.625481	0.000057
C37	C	-1.064334	0.643520	0.000074
C38	C	-1.065735	0.564576	0.000075
C39	C	-0.989894	0.516085	0.000061
C40	C	-0.991414	0.430484	0.000067
C41	C	-0.992632	0.362256	0.000073
N42	N	-0.992052	-0.103635	-0.195592
C43	C	-1.049232	-0.052189	0.239013
C44	C	-1.049237	-0.052188	0.325560
C45	C	-0.992019	-0.103621	0.368833
C46	C	-0.934787	-0.155054	0.325554
C47	C	-0.934779	-0.155050	0.239009
C48	C	-0.934815	-0.155068	0.674583
C49	C	-0.934829	-0.155069	0.761134
C50	C	-1.049273	-0.052205	0.761133
C51	C	-1.049265	-0.052202	0.674588
C52	C	-0.992031	-0.103631	0.631317
C53	C	-0.992026	-0.103631	0.537473
C54	C	-0.992027	-0.103626	0.462675
H55	H	-0.449382	-0.036330	-0.125030
H56	H	-0.848360	0.650272	0.000051
H57	H	-0.888232	-0.196954	0.796366
C58	C	-1.163468	-0.035667	0.577068
C59	C	-1.112013	0.004404	0.626942
H60	H	-1.202163	-0.000698	0.547635
H61	H	-1.129377	-0.066360	0.538979
H62	H	-1.193769	-0.067111	0.610771
H63	H	-1.081707	0.035843	0.593238
H64	H	-1.146108	0.035109	0.665035
H65	H	-0.850901	0.507059	0.000045
C66	C	-0.354613	-0.025170	0.144772
C67	C	-0.442385	-0.025531	0.145211
H68	H	-0.337925	0.000542	0.192533
H69	H	-0.328010	-0.076024	0.144859
H70	H	-0.338383	0.000227	0.096630
H71	H	-0.458615	-0.050934	0.193350
H72	H	-0.468997	0.025332	0.145132
C73	C	-0.848190	0.341163	0.000063
C74	C	-0.833408	0.261630	0.000056
H75	H	-0.795773	0.361823	0.000066
H76	H	-0.879408	0.357798	-0.047878
H77	H	-0.879405	0.357803	0.048016
H78	H	-0.802199	0.244989	-0.047900
H79	H	-0.802177	0.244988	0.048003
H80	H	-0.857958	0.109733	0.000058
C81	C	-0.625676	0.061170	0.071023
C82	C	-0.575647	0.049630	-0.000004
H83	H	-0.653541	0.111594	0.070972
H84	H	-0.666450	0.026048	0.071542
H85	H	-0.590963	0.053706	0.118725
H86	H	-0.610361	0.057089	-0.047707
H87	H	-0.534868	0.084762	-0.000531
C88	C	-0.519183	-0.143364	0.216128
C89	C	-0.541731	-0.181650	0.145200
H90	H	-0.535918	-0.169027	0.263896
H91	H	-0.459764	-0.142318	0.216962
H92	H	-0.546590	-0.092784	0.215635
H93	H	-0.514319	-0.232229	0.145691
H94	H	-0.601161	-0.182704	0.144367
C95	C	-1.162400	0.049479	0.752438
C96	C	-1.112179	0.004338	0.808698
H97	H	-1.201237	0.084382	0.781802
H98	H	-1.127492	0.076721	0.718691
H99	H	-1.192543	0.017947	0.718673
H100	H	-1.082032	0.035870	0.842459
H101	H	-1.147092	-0.022906	0.842459
H102	H	-0.534556	-0.170882	-0.125163
C103	C	-1.158602	0.345469	0.070763
C104	C	-1.154748	0.299511	0.000089
H105	H	-1.210064	0.378383	0.070760
H106	H	-1.155967	0.314307	0.118704
H107	H	-1.112395	0.374896	0.070746
H108	H	-1.200952	0.270080	0.000109
H109	H	-1.157391	0.330677	-0.047864
H110	H	-1.135687	0.142470	0.000102
H111	H	-0.420283	-0.235793	-0.000021
C112	C	-1.162354	0.049496	0.247714
C113	C	-1.112128	0.004351	0.191451
H114	H	-1.201178	0.084406	0.218351
H115	H	-1.192502	0.017972	0.281456
H116	H	-1.127441	0.076736	0.281482
H117	H	-1.147041	-0.022894	0.157686
H118	H	-1.081977	0.035879	0.157694
C119	C	-0.821698	-0.256752	0.683289
C120	C	-0.871911	-0.211604	0.627027
H121	H	-0.782866	-0.291660	0.653926
H122	H	-0.791558	-0.225230	0.717054
H123	H	-0.856619	-0.283995	0.717035
H124	H	-0.836991	-0.184357	0.593285
H125	H	-0.902053	-0.243131	0.593247
H126	H	-1.126087	0.683011	0.000081
H127	H	-1.128630	0.539786	0.000087
H128	H	-1.095834	-0.010309	0.360791
C129	C	-0.883987	-0.200740	0.458221
C130	C	-0.871892	-0.211593	0.373119
H131	H	-0.845161	-0.235651	0.487582
H132	H	-0.874969	-0.150229	0.472414
H133	H	-0.940030	-0.208994	0.472384
H134	H	-0.815851	-0.203334	0.358955
H135	H	-0.880903	-0.262116	0.358920
H136	H	-0.888179	-0.196929	0.203777
