data_functionalizedCrystal
_audit_creation_method	'MofGen! by Chris Wilmer'
_symmetry_space_group_name_H-M	'P1'
_symmetry_Int_Tables_number	1
_symmetry_cell_setting	triclinic
loop_
_symmetry_equiv_pos_as_xyz
  x,y,z
_cell_length_a	15.538191
_cell_length_b	11.026607
_cell_length_c	9.483290
_cell_angle_alpha	98.124220
_cell_angle_beta	102.872154
_cell_angle_gamma	77.929055
loop_
_atom_site_label
_atom_site_type_symbol
_atom_site_fract_x
_atom_site_fract_y
_atom_site_fract_z
O1	O	-1.172804	0.377044	0.120911
O2	O	-0.920655	0.246663	0.120908
O3	O	-1.025832	0.479301	0.120904
O4	O	-1.067627	0.144406	0.120915
O5	O	-1.055650	0.458698	-0.120870
O6	O	-0.950473	0.226059	-0.120867
O7	O	-1.202622	0.356440	-0.120863
Cu8	Cu	-1.079270	0.289369	-0.142941
Cu9	Cu	-1.044007	0.313735	0.142985
O10	O	-1.097444	0.123802	-0.120859
C11	C	-0.902781	0.222720	0.000020
C12	C	-0.805098	0.182087	0.000019
C13	C	-1.033030	0.510814	0.000018
C14	C	-1.010044	0.635404	0.000023
C15	C	-1.220495	0.380384	0.000028
C16	C	-1.318177	0.421017	0.000039
C17	C	-0.448853	0.585764	0.000028
C18	C	-0.357066	0.547555	0.000030
C19	C	-0.371067	0.332638	0.000037
C20	C	-0.462858	0.370828	0.000028
C21	C	-0.501743	0.497393	0.000025
C22	C	-0.515748	0.282457	0.000024
C23	C	-0.607530	0.320646	0.000023
C24	C	-0.646422	0.447205	0.000024
C25	C	-0.593525	0.535581	0.000023
C26	C	-0.476860	0.155894	0.000038
C27	C	-0.529750	0.067523	0.000034
C28	C	-0.621535	0.105710	0.000022
C29	C	-0.660426	0.232269	0.000024
C30	C	-0.674431	0.017334	0.000023
C31	C	-0.766213	0.055522	0.000022
C32	C	-0.752208	0.270458	0.000022
C33	C	-1.090246	0.092290	0.000030
C34	C	-1.113231	-0.032300	0.000034
N35	N	-1.104078	0.272235	-0.344046
C36	C	-1.073511	0.737165	0.000026
C37	C	-1.049755	0.865936	0.000031
C38	C	-1.051313	0.308682	-0.416277
C39	C	-1.071977	0.294428	-0.583682
N40	N	-1.019204	0.330881	0.344091
H41	H	-0.721154	0.478297	0.000042
H42	H	-1.164546	0.230470	-0.406141
O43	O	-1.159297	0.727466	0.000288
C44	C	-1.283076	0.785258	0.125511
C45	C	-1.185911	0.796319	0.125409
H46	H	-1.304630	0.840938	0.226645
H47	H	-1.286985	0.683173	0.125605
H48	H	-1.329570	0.823545	0.024286
H49	H	-1.139359	0.758098	0.226618
H50	H	-1.182075	0.898420	0.125240
O51	O	-0.979109	0.358473	-0.342438
C52	C	-0.852317	0.446132	-0.358202
C53	C	-0.934048	0.389737	-0.442000
H54	H	-0.815872	0.471449	-0.438662
H55	H	-0.804639	0.375254	-0.287000
H56	H	-0.875975	0.533533	-0.286890
H57	H	-0.910471	0.302349	-0.513391
H58	H	-0.981708	0.460696	-0.513110
H59	H	-0.977826	0.874141	0.000040
H60	H	-1.185145	0.959508	0.000144
H61	H	-1.132449	0.252660	-0.645771
H62	H	-0.958724	0.372631	-0.593822
O63	O	-0.631377	0.658492	-0.000245
C64	C	-0.742363	0.815653	-0.125466
C65	C	-0.699562	0.676435	-0.125363
H66	H	-0.797511	0.830201	-0.226598
H67	H	-0.688843	0.872312	-0.125566
H68	H	-0.772461	0.847501	-0.024238
H69	H	-0.669469	0.644473	-0.226574
H70	H	-0.753116	0.619859	-0.125187
H71	H	-0.480517	0.688825	0.000017
O72	O	-0.789919	0.393440	0.000274
C73	C	-0.790566	0.599515	0.125479
C74	C	-0.747791	0.460281	0.125388
H75	H	-0.756510	0.653600	0.226607
H76	H	-0.865243	0.611700	0.125576
H77	H	-0.781571	0.636335	0.024248
H78	H	-0.756718	0.423370	0.226602
H79	H	-0.673130	0.448178	0.125215
H80	H	-0.339393	0.229589	0.000045
O81	O	-0.387669	0.118958	0.000236
C82	C	-0.236668	0.133731	0.125538
C83	C	-0.337647	0.175685	0.125476
H84	H	-0.196195	0.179556	0.226799
H85	H	-0.221059	0.162404	0.024421
H86	H	-0.217992	0.028089	0.125481
H87	H	-0.356393	0.281322	0.125585
H88	H	-0.353201	0.146919	0.226584
H89	H	-0.314005	0.619527	0.000035
H90	H	-0.498076	-0.035526	0.000043
H91	H	-0.642755	-0.085714	0.000040
H92	H	-0.809279	-0.016440	0.000006
H93	H	-0.938120	0.643616	0.000032
