data_functionalizedCrystal
_audit_creation_method	'MofGen! by Chris Wilmer'
_symmetry_space_group_name_H-M	'P1'
_symmetry_Int_Tables_number	1
_symmetry_cell_setting	triclinic
loop_
_symmetry_equiv_pos_as_xyz
  x,y,z
_cell_length_a	10.723022
_cell_length_b	16.109301
_cell_length_c	15.186229
_cell_angle_alpha	90.005167
_cell_angle_beta	89.996943
_cell_angle_gamma	96.035647
loop_
_atom_site_label
_atom_site_type_symbol
_atom_site_fract_x
_atom_site_fract_y
_atom_site_fract_z
O1	O	1.655642	-0.116602	-0.073226
O2	O	1.292342	-0.127765	-0.073229
O3	O	1.483972	-0.001211	-0.073219
O4	O	1.464012	-0.243156	-0.073237
O5	O	1.483959	-0.001209	0.073239
O6	O	1.292329	-0.127763	0.073228
O7	O	1.655629	-0.116600	0.073231
Zn8	Zn	1.473977	-0.122181	0.096483
Zn9	Zn	1.473994	-0.122184	-0.096481
O10	O	1.463999	-0.243154	0.073221
C11	C	1.245846	-0.126952	-0.000001
C12	C	1.107324	-0.124522	-0.000002
C13	C	1.059730	-0.051543	0.000003
C14	C	0.916561	-0.049030	0.000002
C15	C	1.483157	0.029770	0.000010
C16	C	1.480733	0.122079	0.000012
C17	C	1.702125	-0.117413	0.000001
C18	C	1.840647	-0.119843	-0.000004
C19	C	1.464814	-0.274134	-0.000010
C20	C	1.467238	-0.366444	-0.000017
N21	N	1.473975	-0.122179	0.228176
C22	C	1.588806	0.343716	-0.000001
C23	C	1.586519	0.430450	-0.000009
C24	C	1.359156	0.411912	-0.000007
C25	C	1.361445	0.325180	-0.000006
C26	C	1.476273	0.291085	0.000001
C27	C	1.471697	0.464551	-0.000007
C28	C	1.469216	0.558591	-0.000015
C29	C	1.478755	0.197038	0.000007
N30	N	1.474006	-0.122179	-0.228174
C31	C	1.558857	-0.066160	0.453903
C32	C	1.558861	-0.066158	0.546093
C33	C	1.389114	-0.178201	0.546092
C34	C	1.389105	-0.178198	0.453904
C35	C	1.473984	-0.122179	0.407812
C36	C	1.473997	-0.122180	0.592190
C37	C	1.474000	-0.122178	0.692146
C38	C	1.473979	-0.122179	0.307850
H39	H	0.875577	0.013454	-0.000016
H40	H	1.627969	-0.020545	0.416377
C41	C	1.234581	0.449049	-0.000143
C42	C	1.226641	0.498313	-0.075479
C43	C	1.111906	0.532543	-0.075625
H44	H	1.167778	0.405367	-0.000188
H45	H	1.228951	0.482548	0.050905
H46	H	1.232258	0.464815	-0.126513
H47	H	1.293416	0.542008	-0.075450
H48	H	1.106276	0.566042	-0.024577
H49	H	1.045112	0.488856	-0.075668
H50	H	1.106508	0.565978	-0.126735
H51	H	0.881622	-0.182330	-0.000003
H52	H	1.042078	-0.185142	-0.000011
C53	C	1.708661	0.487632	-0.000192
C54	C	1.714013	0.537940	-0.075556
C55	C	1.826524	0.590618	-0.075763
H56	H	1.712615	0.521937	0.050819
H57	H	1.777407	0.454929	-0.000236
H58	H	1.645286	0.570640	-0.075504
H59	H	1.710081	0.503657	-0.126578
H60	H	1.895269	0.557915	-0.075807
H61	H	1.830467	0.624918	-0.024749
H62	H	1.830175	0.624753	-0.126900
C63	C	1.651154	-0.005303	0.595975
C64	C	1.725499	0.043740	0.535874
C65	C	1.810546	0.099805	0.581793
H66	H	1.606435	0.029660	0.631948
H67	H	1.703152	-0.035507	0.631912
H68	H	1.673508	0.073942	0.499952
H69	H	1.770245	0.008800	0.499900
H70	H	1.862544	0.069601	0.617730
H71	H	1.765817	0.134761	0.617764
H72	H	1.861007	0.133081	0.541022
H73	H	1.319985	-0.223815	0.416375
H74	H	1.124976	0.009077	0.000004
C75	C	1.713601	0.306857	-0.000051
C76	C	1.811661	0.371518	-0.000081
C77	C	1.926642	0.337598	-0.000143
H78	H	1.719404	0.273424	0.051007
H79	H	1.719283	0.273428	-0.051145
H80	H	1.805981	0.404933	0.051008
H81	H	1.805899	0.404957	-0.051135
H82	H	1.932324	0.304169	-0.051238
H83	H	1.932432	0.304165	0.050916
H84	H	1.993189	0.381465	-0.000172
H85	H	1.269801	0.282325	-0.000007
C86	C	1.297113	-0.238989	0.596297
C87	C	1.315309	-0.227020	0.686897
C88	C	1.230594	-0.283014	0.733170
H89	H	1.213784	-0.229511	0.581306
H90	H	1.310653	-0.294577	0.581228
H91	H	1.301760	-0.171446	0.701959
H92	H	1.398622	-0.236505	0.701914
H93	H	1.244133	-0.338601	0.718102
H94	H	1.147269	-0.273531	0.718172
H95	H	1.242936	-0.274906	0.794647
