data_functionalizedCrystal
_audit_creation_method	'MofGen! by Chris Wilmer'
_symmetry_space_group_name_H-M	'P1'
_symmetry_Int_Tables_number	1
_symmetry_cell_setting	triclinic
loop_
_symmetry_equiv_pos_as_xyz
  x,y,z
_cell_length_a	12.759401
_cell_length_b	13.897441
_cell_length_c	12.759399
_cell_angle_alpha	89.970767
_cell_angle_beta	90.015542
_cell_angle_gamma	89.981179
loop_
_atom_site_label
_atom_site_type_symbol
_atom_site_fract_x
_atom_site_fract_y
_atom_site_fract_z
Zn1	Zn	1.606254	-0.545341	-0.418221
Zn2	Zn	2.106254	-0.045341	0.081779
Zn3	Zn	1.606147	-0.384046	-0.593931
Zn4	Zn	2.106147	0.115954	-0.093931
Zn5	Zn	1.430556	-0.384065	-0.418268
Zn6	Zn	1.930556	0.115935	0.081732
Zn7	Zn	1.430544	-0.545304	-0.593860
Zn8	Zn	1.930544	-0.045304	-0.093860
O9	O	1.518375	-0.464689	-0.506070
O10	O	2.018375	0.035311	-0.006070
O11	O	1.753261	-0.523953	-0.441539
O12	O	2.253261	-0.023953	0.058461
O13	O	1.582814	-0.249067	-0.570679
O14	O	2.082814	0.250933	-0.070679
O15	O	1.453913	-0.405482	-0.271241
O16	O	1.953913	0.094518	0.228759
O17	O	1.753182	-0.405450	-0.570633
O18	O	2.253182	0.094550	-0.070633
O19	O	1.582998	-0.523971	-0.271206
O20	O	2.082998	-0.023971	0.228794
O21	O	1.453808	-0.249081	-0.441620
O22	O	1.953808	0.250919	0.058380
O23	O	1.283533	-0.405446	-0.441551
O24	O	1.783533	0.094554	0.058449
O25	O	1.453892	-0.680291	-0.570511
O26	O	1.953892	-0.180291	-0.070511
O27	O	1.283524	-0.523908	-0.570557
O28	O	1.783524	-0.023908	-0.070557
O29	O	1.582986	-0.680318	-0.441470
O30	O	2.082986	-0.180318	0.058530
O31	O	1.582803	-0.405414	-0.740943
O32	O	2.082803	0.094586	-0.240943
O33	O	1.453788	-0.523890	-0.740890
O34	O	1.953788	-0.023890	-0.240890
C35	C	1.245408	-0.464676	-0.506052
C36	C	1.745408	0.035324	-0.006052
C37	C	1.128631	-0.464693	-0.506070
C38	C	1.628631	0.035307	-0.006070
C39	C	1.073811	-0.526492	-0.438972
C40	C	1.573811	-0.026492	0.061028
C41	C	0.964087	-0.526498	-0.438983
C42	C	1.464087	-0.026498	0.061017
C43	C	0.964013	-0.402903	-0.573198
C44	C	1.464013	0.097097	-0.073198
C45	C	1.073735	-0.402893	-0.573181
C46	C	1.573735	0.097107	-0.073181
C47	C	1.518450	-0.716282	-0.505977
C48	C	2.018450	-0.216282	-0.005977
C49	C	1.518482	-0.823496	-0.505938
C50	C	2.018482	-0.323496	-0.005938
C51	C	1.518510	-1.019792	-0.505867
C52	C	2.018510	-0.519792	-0.005867
C53	C	1.518491	-0.910559	-0.505909
C54	C	2.018491	-0.410559	-0.005909
C55	C	1.792408	-0.464703	-0.506089
C56	C	2.292408	0.035297	-0.006089
C57	C	1.909185	-0.464709	-0.506097
C58	C	2.409185	0.035291	-0.006097
C59	C	1.518311	-0.464667	-0.779037
C60	C	2.018311	0.035333	-0.279037
C61	C	1.518379	-0.464690	-0.895814
C62	C	2.018379	0.035310	-0.395814
C63	C	1.518361	-0.214075	-0.506087
C64	C	2.018361	0.285925	-0.006087
C65	C	1.518533	-0.106861	-0.505830
C66	C	2.018533	0.393139	-0.005830
C67	C	1.585634	-0.403070	-0.950668
C68	C	2.085634	0.096930	-0.450668
C69	C	1.585702	-0.403102	-1.060392
C70	C	2.085702	0.096898	-0.560392
C71	C	1.451251	-0.526378	-1.060398
C72	C	1.951251	-0.026378	-0.560398
C73	C	1.451189	-0.526349	-0.950676
C74	C	1.951189	-0.026349	-0.450676
C75	C	1.518468	-0.464732	-0.232037
C76	C	2.018468	0.035268	0.267963
C77	C	1.518508	-0.464751	-0.115260
C78	C	2.018508	0.035249	0.384740
H79	H	0.919457	-0.576820	-0.384343
H80	H	1.419457	-0.076820	0.115657
H81	H	1.396545	-0.576577	-1.105080
H82	H	1.896545	-0.076577	-0.605080
Br83	Br	1.148141	-0.319002	-0.664234
Br84	Br	1.648141	0.180998	-0.164234
Br85	Br	1.676986	-0.319477	-1.134834
Br86	Br	2.176986	0.180523	-0.634834
Br87	Br	1.676821	-0.319391	-0.876216
Br88	Br	2.176821	0.180609	-0.376216
H89	H	1.396422	-0.576532	-0.906010
H90	H	1.896422	-0.076532	-0.406010
H91	H	1.118504	-0.576810	-0.384322
H92	H	1.618504	-0.076810	0.115678
H93	H	0.919303	-0.352589	-0.627838
H94	H	1.419303	0.147411	-0.127838
