data_functionalizedCrystal
_audit_creation_method	'MofGen! by Chris Wilmer'
_symmetry_space_group_name_H-M	'P1'
_symmetry_Int_Tables_number	1
_symmetry_cell_setting	triclinic
loop_
_symmetry_equiv_pos_as_xyz
  x,y,z
_cell_length_a	12.759401
_cell_length_b	29.839131
_cell_length_c	12.759393
_cell_angle_alpha	90.043835
_cell_angle_beta	90.019196
_cell_angle_gamma	90.035655
loop_
_atom_site_label
_atom_site_type_symbol
_atom_site_fract_x
_atom_site_fract_y
_atom_site_fract_z
Zn1	Zn	1.606111	-0.178829	0.593883
Zn2	Zn	1.605941	-0.253966	0.418160
Zn3	Zn	1.430412	-0.178851	0.418222
Zn4	Zn	1.430339	-0.253934	0.593801
O5	O	1.518201	-0.216395	0.506016
O6	O	1.753110	-0.188801	0.570581
O7	O	1.582616	-0.244024	0.271147
O8	O	1.453820	-0.115981	0.441584
O9	O	1.752985	-0.244003	0.441478
O10	O	1.582906	-0.115965	0.570641
O11	O	1.453655	-0.188838	0.271192
O12	O	1.283381	-0.188806	0.441504
O13	O	1.453697	-0.243948	0.740833
O14	O	1.283328	-0.243969	0.570502
O15	O	1.582836	-0.188770	0.740893
O16	O	1.582545	-0.316828	0.441399
O17	O	1.453531	-0.316805	0.570442
C18	C	1.245234	-0.216387	0.506001
C19	C	1.128457	-0.216395	0.506020
C20	C	1.073661	-0.187703	0.573347
C21	C	0.963937	-0.187707	0.573354
C22	C	0.963815	-0.245100	0.438704
C23	C	1.073537	-0.245092	0.438692
C24	C	1.518041	-0.333117	0.505928
C25	C	1.518068	-0.383052	0.505925
C26	C	1.585401	-0.692652	0.573312
C27	C	1.585515	-0.880325	0.573375
O28	O	1.642607	-0.904553	0.630605
N29	N	1.518379	-0.903837	0.506133
C30	C	1.451205	-0.880428	0.438875
O31	O	1.394097	-0.904732	0.381690
C32	C	1.451087	-0.692755	0.438818
C33	C	1.518234	-0.669246	0.506057
C34	C	1.652543	-0.669143	0.640547
C35	C	1.652518	-0.622227	0.640526
C36	C	1.585351	-0.598821	0.573271
C37	C	1.518209	-0.622331	0.506037
C38	C	1.383908	-0.669347	0.371566
C39	C	1.383882	-0.622426	0.371559
C40	C	1.451030	-0.598917	0.438799
C41	C	1.451017	-0.552009	0.438761
N42	N	1.518153	-0.528497	0.506003
C43	C	1.585320	-0.551903	0.573259
C44	C	1.451274	-0.978958	0.438908
C45	C	1.451304	-1.025876	0.438921
C46	C	1.585613	-1.025770	0.573423
C47	C	1.585587	-0.978852	0.573404
C48	C	1.518410	-0.955446	0.506150
C49	C	1.585263	-0.453378	0.573210
C50	C	1.585235	-0.406458	0.573180
C51	C	1.450922	-0.406568	0.438682
C52	C	1.450954	-0.453483	0.438707
C53	C	1.518128	-0.476887	0.505980
O54	O	1.393947	-0.527752	0.381570
O55	O	1.642403	-0.527591	0.630451
C56	C	1.585426	-0.739568	0.573333
C57	C	1.518285	-0.763077	0.506098
C58	C	1.451118	-0.739671	0.438843
C59	C	1.518316	-0.809995	0.506111
C60	C	1.585482	-0.833401	0.573366
C61	C	1.652618	-0.809889	0.640608
C62	C	1.652593	-0.762974	0.640588
C63	C	1.383982	-0.763183	0.371600
C64	C	1.384014	-0.810098	0.371626
C65	C	1.451180	-0.833504	0.438881
C66	C	1.792234	-0.216403	0.506032
C67	C	1.909011	-0.216406	0.506038
C68	C	1.518277	-0.216353	0.780050
C69	C	1.518310	-0.216335	0.896827
C70	C	1.518390	-0.099216	0.506128
C71	C	1.518471	-0.049282	0.506176
C72	C	1.518185	-0.216404	0.233049
C73	C	1.518356	-0.216295	0.116273
C74	C	1.585487	-0.245037	1.061400
C75	C	1.585462	-0.245059	0.951676
C76	C	1.451171	-0.187592	0.951707
C77	C	1.451192	-0.187573	1.061429
H78	H	1.118153	-0.268457	0.383860
H79	H	1.396521	-0.164167	1.106107
H80	H	1.329175	-0.603372	0.316794
C81	C	1.377308	-0.155996	0.891375
H82	H	1.386917	-0.160119	0.818169
H83	H	1.306708	-0.162563	0.909338
H84	H	1.392747	-0.125807	0.909388
H85	H	1.639918	-0.387318	0.627934
C86	C	1.726439	-0.694882	0.714528
H87	H	1.766421	-0.674155	0.754556
H88	H	1.686254	-0.713185	0.760284
H89	H	1.772258	-0.713179	0.674375
H90	H	1.639955	-0.472427	0.627996
C91	C	1.659356	-0.276632	1.121731
H92	H	1.649763	-0.272502	1.194937
H93	H	1.643927	-0.306819	1.103721
H94	H	1.729957	-0.270060	1.103762
C95	C	1.659310	-0.276673	0.891321
H96	H	1.699315	-0.293773	0.939702
H97	H	1.619084	-0.296255	0.848497
H98	H	1.705108	-0.259493	0.848540
H99	H	1.118373	-0.164334	0.628167
H100	H	1.640264	-0.959713	0.628157
C101	C	1.726377	-0.596373	0.714494
H102	H	1.766372	-0.617038	0.754551
H103	H	1.772169	-0.578068	0.674345
H104	H	1.686151	-0.578068	0.760240
C105	C	1.659491	-1.051523	0.647407
H106	H	1.649880	-1.082831	0.637784
H107	H	1.730089	-1.043816	0.632104
H108	H	1.644056	-1.043814	0.717985
H109	H	0.919326	-0.164343	0.628178
H110	H	0.919085	-0.268465	0.383889
H111	H	1.396568	-0.959905	0.384139
C112	C	1.377448	-1.051731	0.364951
H113	H	1.337438	-1.031068	0.324906
H114	H	1.417666	-1.070037	0.319210
H115	H	1.331655	-1.070034	0.405113
C116	C	1.310036	-0.695197	0.297609
H117	H	1.270026	-0.674531	0.257569
H118	H	1.350243	-0.713504	0.251862
H119	H	1.264243	-0.713498	0.337775
H120	H	1.396285	-0.472626	0.383947
C121	C	1.377040	-0.380815	0.364712
H122	H	1.386639	-0.349506	0.374345
H123	H	1.392445	-0.388523	0.294133
H124	H	1.306443	-0.388523	0.380044
H125	H	1.707312	-0.828954	0.695366
C126	C	1.310144	-0.835953	0.297659
H127	H	1.270134	-0.815290	0.257613
H128	H	1.350353	-0.854262	0.251919
H129	H	1.264350	-0.854253	0.337829
H130	H	1.707271	-0.743836	0.695341
H131	H	1.329285	-0.744129	0.316834
