data_functionalizedCrystal
_audit_creation_method	'MofGen! by Chris Wilmer'
_symmetry_space_group_name_H-M	'P1'
_symmetry_Int_Tables_number	1
_symmetry_cell_setting	triclinic
loop_
_symmetry_equiv_pos_as_xyz
  x,y,z
_cell_length_a	16.109302
_cell_length_b	16.109301
_cell_length_c	9.616153
_cell_angle_alpha	90.001128
_cell_angle_beta	90.004770
_cell_angle_gamma	83.461631
loop_
_atom_site_label
_atom_site_type_symbol
_atom_site_fract_x
_atom_site_fract_y
_atom_site_fract_z
O1	O	1.103129	0.106872	0.115694
O2	O	0.861067	0.120170	0.115681
O3	O	0.988748	-0.007510	0.115695
O4	O	0.975449	0.234552	0.115680
O5	O	0.988741	-0.007517	-0.115597
O6	O	0.861061	0.120163	-0.115611
O7	O	1.103123	0.106865	-0.115598
Zn8	Zn	0.982091	0.113513	-0.152327
Zn9	Zn	0.982099	0.113522	0.152410
O10	O	0.975442	0.234545	-0.115612
C11	C	0.830089	0.119628	0.000034
C12	C	0.737794	0.118013	0.000030
C13	C	0.525449	0.114274	-0.126033
C14	C	0.438729	0.112747	-0.126028
C15	C	0.438747	0.112759	0.126138
C16	C	0.525466	0.114279	0.126132
C17	C	0.568815	0.115041	0.000042
C18	C	0.395375	0.111994	0.000053
C19	C	0.301350	0.110338	0.000060
C20	C	0.662847	0.116695	0.000035
C21	C	1.134101	0.107407	0.000052
C22	C	1.226396	0.109022	0.000066
C23	C	0.988206	-0.038488	0.000054
C24	C	0.986591	-0.130784	0.000068
N25	N	0.982091	0.113506	-0.360301
C26	C	0.975984	0.265523	0.000032
C27	C	0.977599	0.357819	0.000027
C28	C	0.905592	0.580091	0.000043
C29	C	0.907116	0.666811	0.000054
C30	C	1.058604	0.646937	0.000056
C31	C	1.057079	0.560218	0.000055
C32	C	0.980571	0.526798	0.000042
C33	C	0.983620	0.700237	0.000053
C34	C	0.985273	0.794263	0.000065
C35	C	0.978917	0.432766	0.000033
C36	C	1.050429	0.045213	-0.419292
C37	C	1.050680	0.045399	-0.580460
C38	C	1.000667	0.200373	-0.581085
C39	C	1.001149	0.199963	-0.419867
C40	C	0.894988	0.095731	-0.419739
C41	C	0.895581	0.093769	-0.580967
N42	N	0.982106	0.113522	0.360384
H43	H	0.403442	0.112139	0.228796
H44	H	1.118140	0.516825	0.000059
Br45	Br	0.805354	0.739135	0.000069
H46	H	1.120895	0.674159	0.000053
Br47	Br	1.032344	-0.062186	-0.646429
H48	H	0.403425	0.112122	-0.228692
H49	H	1.039627	-0.019552	-0.380505
Br50	Br	0.806897	0.171274	-0.648063
H51	H	1.114709	0.056433	-0.378748
Br52	Br	0.810233	0.178733	-0.356157
Br53	Br	1.105315	0.227036	-0.648357
H54	H	1.115329	0.056792	-0.619016
H55	H	0.843293	0.552883	0.000028
H56	H	0.560776	0.114902	0.228804
H57	H	1.064660	0.215579	-0.382252
Br58	Br	0.921997	0.287840	-0.354818
H59	H	0.877055	0.033733	-0.379089
H60	H	0.881488	0.029877	-0.619223
Br61	Br	0.919890	0.287149	-0.644934
Br62	Br	0.584277	0.115304	-0.297154
