data_functionalizedCrystal
_audit_creation_method	'MofGen! by Chris Wilmer'
_symmetry_space_group_name_H-M	'P1'
_symmetry_Int_Tables_number	1
_symmetry_cell_setting	triclinic
loop_
_symmetry_equiv_pos_as_xyz
  x,y,z
_cell_length_a	10.489746
_cell_length_b	10.489746
_cell_length_c	7.540329
_cell_angle_alpha	89.996095
_cell_angle_beta	89.999963
_cell_angle_gamma	84.541301
loop_
_atom_site_label
_atom_site_type_symbol
_atom_site_fract_x
_atom_site_fract_y
_atom_site_fract_z
O1	O	1.694051	0.179997	-0.147365
O2	O	1.322856	0.196883	-0.147395
O3	O	1.516896	0.002843	-0.147366
O4	O	1.500010	0.374037	-0.147394
O5	O	1.516885	0.002840	0.147599
O6	O	1.322844	0.196881	0.147571
O7	O	1.694039	0.179995	0.147600
Cu8	Cu	1.508441	0.188437	0.174518
Cu9	Cu	1.508454	0.188440	-0.174312
O10	O	1.499999	0.374035	0.147572
C11	C	1.275319	0.195605	0.000084
C12	C	1.133689	0.191785	0.000073
C13	C	0.980829	0.066062	0.000108
C14	C	1.058219	0.128917	0.145531
C15	C	1.058186	0.128949	-0.145281
C16	C	0.958729	0.247899	0.145661
C17	C	0.958691	0.247913	-0.145282
C18	C	1.036031	0.310856	0.000176
C19	C	1.515614	-0.044690	0.000116
C20	C	1.511794	-0.186319	0.000115
C21	C	1.386071	-0.339179	0.000083
C22	C	1.448933	-0.261785	-0.145342
C23	C	1.448951	-0.261828	0.145471
C24	C	1.567914	-0.361274	-0.145469
C25	C	1.567915	-0.361323	0.145474
C26	C	1.630864	-0.283978	0.000014
C27	C	1.741576	0.181273	0.000118
C28	C	1.883206	0.185093	0.000117
C29	C	1.501281	0.421568	0.000086
C30	C	1.505101	0.563197	0.000075
N31	N	1.508440	0.188435	0.419867
N32	N	1.508465	0.188433	-0.419661
H33	H	0.915196	0.298118	-0.268243
H34	H	1.618113	-0.404822	0.268436
H35	H	1.618133	-0.404553	-0.268555
N36	N	1.112696	0.065873	-0.299502
N37	N	1.099529	-0.049844	-0.325360
H38	H	1.138027	-0.094403	-0.434269
N39	N	1.385866	-0.207321	0.299687
N40	N	1.270147	-0.220486	0.325544
H41	H	1.225583	-0.181988	0.434449
H42	H	1.282569	-0.363901	-0.000070
N43	N	1.066771	0.440783	0.000281
N44	N	1.181223	0.464795	-0.000887
H45	H	1.202937	0.556555	-0.000803
N46	N	1.385931	-0.207247	-0.299609
N47	N	1.425349	-0.240798	-0.450542
H48	H	1.380848	-0.202288	-0.559493
N49	N	0.949799	-0.063772	0.000331
N50	N	0.884974	-0.103661	0.124094
H51	H	0.863056	-0.195354	0.124262
N52	N	1.760807	-0.253287	-0.000054
N53	N	1.850335	-0.340898	-0.001306
H54	H	1.942108	-0.319225	-0.001361
N55	N	1.112758	0.065909	0.299794
N56	N	1.079208	0.105319	0.450731
H57	H	1.117721	0.060814	0.559677
H58	H	0.915446	0.298112	0.268748
