data_functionalizedCrystal
_audit_creation_method	'MofGen! by Chris Wilmer'
_symmetry_space_group_name_H-M	'P1'
_symmetry_Int_Tables_number	1
_symmetry_cell_setting	triclinic
loop_
_symmetry_equiv_pos_as_xyz
  x,y,z
_cell_length_a	12.837943
_cell_length_b	15.944551
_cell_length_c	11.892095
_cell_angle_alpha	93.888509
_cell_angle_beta	85.689438
_cell_angle_gamma	89.163839
loop_
_atom_site_label
_atom_site_type_symbol
_atom_site_fract_x
_atom_site_fract_y
_atom_site_fract_z
O1	O	1.382096	0.213524	-0.093988
O2	O	1.882096	0.713524	0.406012
O3	O	1.080290	0.202737	-0.093995
O4	O	1.580290	0.702737	0.406005
O5	O	1.239434	0.086515	-0.093981
O6	O	1.739434	0.586515	0.406019
O7	O	1.222952	0.329745	-0.094002
O8	O	1.722952	0.829745	0.405998
O9	O	1.226164	0.096189	0.094025
O10	O	1.726164	0.596189	0.594025
O11	O	1.067021	0.212411	0.094012
O12	O	1.567021	0.712411	0.594012
O13	O	1.368826	0.223198	0.094018
O14	O	1.868826	0.723198	0.594018
Zn15	Zn	1.215817	0.219340	0.123865
Zn16	Zn	1.715817	0.719340	0.623865
Zn17	Zn	1.233299	0.206594	-0.123842
Zn18	Zn	1.733299	0.706594	0.376158
O19	O	1.209683	0.339419	0.094005
O20	O	1.709683	0.839419	0.594005
C21	C	1.035034	0.203930	0.000008
C22	C	1.535034	0.703930	0.500008
C23	C	0.919957	0.193062	0.000006
C24	C	1.419957	0.693062	0.500006
C25	C	0.679007	0.323714	0.000011
C26	C	1.179007	0.823714	0.500011
C27	C	0.570881	0.313507	0.000010
C28	C	1.070881	0.813507	0.500010
C29	C	0.595575	0.162440	0.000010
C30	C	1.095575	0.662440	0.500010
C31	C	0.703701	0.172648	0.000012
C32	C	1.203701	0.672648	0.500012
C33	C	0.745413	0.253287	0.000010
C34	C	1.245413	0.753287	0.500010
C35	C	0.853542	0.263494	0.000003
C36	C	1.353542	0.763494	0.500003
C37	C	0.878234	0.112428	0.000012
C38	C	1.378234	0.612428	0.500012
C39	C	0.770107	0.102221	0.000011
C40	C	1.270107	0.602221	0.500011
C41	C	1.232115	0.060004	0.000022
C42	C	1.732115	0.560004	0.500022
C43	C	1.230063	-0.033407	0.000023
C44	C	1.730063	0.466593	0.500023
C45	C	1.126515	-0.256548	0.000005
C46	C	1.626515	0.243452	0.500005
C47	C	1.168058	-0.308949	0.092705
C48	C	1.668058	0.191051	0.592705
C49	C	1.226352	-0.204430	0.000014
C50	C	1.726352	0.295570	0.500014
C51	C	1.181163	-0.318468	-0.092655
C52	C	1.681163	0.181532	0.407345
C53	C	1.222761	-0.369631	0.000001
C54	C	1.722761	0.130369	0.500001
C55	C	1.267917	-0.255596	0.092790
C56	C	1.767917	0.244404	0.592790
C57	C	1.281014	-0.265115	-0.092653
C58	C	1.781014	0.234885	0.407347
C59	C	1.322628	-0.317491	0.000069
C60	C	1.822628	0.182509	0.500069
C61	C	1.228418	-0.109262	0.000023
C62	C	1.728418	0.390738	0.500023
C63	C	1.220702	-0.464796	0.000000
C64	C	1.720702	0.035204	0.500000
C65	C	1.414082	0.222005	0.000013
C66	C	1.914082	0.722005	0.500013
C67	C	1.529160	0.232872	0.000008
C68	C	2.029160	0.732872	0.500008
C69	C	1.217002	0.365931	-0.000001
C70	C	1.717002	0.865931	0.499999
C71	C	1.219054	0.459340	-0.000009
C72	C	1.719054	0.959340	0.499991
N73	N	1.203893	0.228039	0.292918
N74	N	1.703893	0.728039	0.792918
N75	N	1.245231	0.197890	-0.292895
N76	N	1.745231	0.697890	0.207105
C77	C	1.328203	0.137313	0.529576
C78	C	1.828203	0.637313	1.029576
C79	C	1.319876	0.143400	0.647918
C80	C	1.819876	0.643400	1.147918
C81	C	1.178907	0.246295	0.647944
C82	C	1.678907	0.746295	1.147944
C83	C	1.187234	0.240208	0.529603
C84	C	1.687234	0.740208	1.029603
C85	C	1.261886	0.185716	0.470423
C86	C	1.761886	0.685716	0.970423
C87	C	1.270217	0.179634	0.352080
C88	C	1.770217	0.679634	0.852080
C89	C	1.129244	0.282524	0.352108
C90	C	1.629244	0.782524	0.852108
C91	C	1.120917	0.288611	0.470449
C92	C	1.620917	0.788611	0.970449
H93	H	0.932315	0.055081	0.000004
H94	H	1.432315	0.555081	0.500004
C95	C	1.038797	0.348542	0.535560
C96	C	1.538797	0.848542	1.035560
N97	N	0.976942	0.393684	0.584600
N98	N	1.476942	0.893684	1.084600
H99	H	1.043639	-0.229864	0.000096
H100	H	1.543639	0.270136	0.500096
H101	H	1.075247	0.321940	0.303932
H102	H	1.575247	0.821940	0.803932
C103	C	1.345485	-0.238804	-0.198531
C104	C	1.845485	0.261196	0.301469
N105	N	1.394037	-0.218985	-0.278289
N106	N	1.894037	0.281015	0.221711
C107	C	1.131567	-0.355616	-0.198527
C108	C	1.631567	0.144384	0.301473
N109	N	1.094203	-0.383591	-0.278266
N110	N	1.594203	0.116409	0.221734
H111	H	1.120299	-0.328402	0.171073
H112	H	1.620299	0.171598	0.671073
C113	C	1.392827	0.090149	0.712982
C114	C	1.892827	0.590149	1.212982
N115	N	1.447776	0.050037	0.761989
N116	N	1.947776	0.550037	1.261989
C117	C	1.434670	-0.353328	0.000145
C118	C	1.934670	0.146672	0.500145
N119	N	1.519057	-0.380324	0.000209
N120	N	2.019057	0.119676	0.500209
C121	C	0.899423	0.352198	0.000007
C122	C	1.399423	0.852198	0.500007
N123	N	0.933977	0.419013	0.000015
N124	N	1.433977	0.919013	0.500015
H125	H	1.388994	0.092949	0.481392
H126	H	1.888994	0.592949	0.981392
C127	C	1.096772	0.306209	0.713062
C128	C	1.596772	0.806209	1.213062
N129	N	1.034901	0.351331	0.762110
N130	N	1.534901	0.851331	1.262110
H131	H	1.331005	0.135266	0.303897
H132	H	1.831005	0.635266	0.803897
C133	C	0.724893	0.412417	0.000002
C134	C	1.224893	0.912417	0.500002
N135	N	0.759453	0.479230	-0.000004
N136	N	1.259453	0.979230	0.499996
H137	H	0.516815	0.370856	0.000013
H138	H	1.016815	0.870856	0.500013
H139	H	0.736129	0.036567	0.000025
H140	H	1.236129	0.536567	0.500025
C141	C	0.549671	0.073744	0.000024
C142	C	1.049671	0.573744	0.500024
N143	N	0.515094	0.006937	0.000036
N144	N	1.015094	0.506937	0.500036
C145	C	1.317431	-0.218579	0.198785
C146	C	1.817431	0.281421	0.698785
N147	N	1.354720	-0.190696	0.278621
N148	N	1.854720	0.309304	0.778621
