data_functionalizedCrystal
_audit_creation_method	'MofGen! by Chris Wilmer'
_symmetry_space_group_name_H-M	'P1'
_symmetry_Int_Tables_number	1
_symmetry_cell_setting	triclinic
loop_
_symmetry_equiv_pos_as_xyz
  x,y,z
_cell_length_a	29.019771
_cell_length_b	29.019011
_cell_length_c	29.015668
_cell_angle_alpha	60.004890
_cell_angle_beta	60.009825
_cell_angle_gamma	59.993818
loop_
_atom_site_label
_atom_site_type_symbol
_atom_site_fract_x
_atom_site_fract_y
_atom_site_fract_z
O1	O	0.063866	-0.673289	0.563007
O2	O	0.024059	-0.524205	0.453633
O3	O	0.118464	-0.618532	0.453552
O4	O	-0.030540	-0.578962	0.563088
O5	O	0.149785	-0.587215	0.484789
O6	O	0.055379	-0.492888	0.484869
O7	O	0.095186	-0.641972	0.594244
Cu8	Cu	0.078143	-0.564571	0.542409
Cu9	Cu	0.041102	-0.601606	0.505468
O10	O	0.000781	-0.547645	0.594325
N11	N	0.104196	-0.538525	0.568394
N12	N	0.015054	-0.627656	0.479483
C13	C	0.143783	-0.499167	0.850823
C14	C	0.386758	-0.499111	0.607645
C15	C	0.143618	-0.499136	0.607763
C16	C	0.143598	-0.256029	0.607770
C17	C	0.182748	-0.373362	0.646852
C18	C	0.182758	-0.460025	0.646847
C19	C	0.204440	-0.438361	0.668500
C20	C	0.298958	-0.422064	0.618723
C21	C	0.358043	-0.441753	0.599006
C22	C	0.358069	-0.537354	0.635461
C23	C	0.298985	-0.517664	0.655180
C24	C	0.196983	-0.343808	0.588767
C25	C	0.177262	-0.284720	0.569090
C26	C	0.129075	-0.284743	0.665586
C27	C	0.148797	-0.343831	0.685263
C28	C	0.124666	-0.445760	0.661149
C29	C	0.104961	-0.465454	0.641458
C30	C	0.201435	-0.513678	0.593176
C31	C	0.221143	-0.493984	0.612860
C32	C	0.124738	-0.445777	0.763064
C33	C	0.105085	-0.465488	0.822151
C34	C	0.201594	-0.513722	0.822097
C35	C	0.221247	-0.494012	0.763009
C36	C	0.182817	-0.460038	0.733494
C37	C	0.269432	-0.460018	0.646809
C38	C	0.121399	-0.520450	0.915812
C39	C	0.451745	-0.520012	0.585655
C40	C	0.121177	-0.520429	0.586502
C41	C	0.121544	-0.191035	0.586883
C42	C	-0.110592	-0.666601	0.440035
C43	C	-0.023978	-0.666709	0.440231
C44	C	-0.045598	-0.688342	0.418486
C45	C	-0.061967	-0.782825	0.468184
C46	C	-0.042323	-0.841914	0.487907
C47	C	0.053280	-0.842025	0.451623
C48	C	0.033634	-0.782937	0.431899
C49	C	-0.140218	-0.680832	0.498102
C50	C	-0.199302	-0.661065	0.517690
C51	C	-0.199129	-0.612843	0.421140
C52	C	-0.140045	-0.632610	0.401552
C53	C	-0.038209	-0.608622	0.425941
C54	C	-0.018555	-0.588961	0.445716
C55	C	0.029562	-0.685470	0.494059
C56	C	0.009908	-0.705133	0.474291
C57	C	-0.038037	-0.608631	0.323917
C58	C	-0.018247	-0.588973	0.264830
C59	C	0.029955	-0.685489	0.264893
C60	C	0.010165	-0.705145	0.323981
C61	C	-0.023833	-0.666715	0.353492
C62	C	-0.023990	-0.753339	0.440182
N63	N	0.504925	-0.538487	0.568205
O64	O	0.685342	-0.543679	0.433426
O65	O	0.685533	-0.653395	0.582361
O66	O	0.685457	-0.653145	0.487904
O67	O	0.685418	-0.543929	0.527882
O68	O	0.591592	-0.621921	0.519268
O69	O	0.591667	-0.622171	0.613725
O70	O	0.591477	-0.512455	0.464790
Cu71	Cu	0.583001	-0.564462	0.542121
Cu72	Cu	0.694008	-0.601388	0.505029
O73	O	0.591553	-0.512705	0.559246
N74	N	0.772084	-0.627363	0.478939
N75	N	0.104168	-0.137853	0.568408
O76	O	-0.030538	0.042663	0.563097
O77	O	0.118403	0.042683	0.453379
O78	O	0.023918	0.042657	0.453664
O79	O	0.063947	0.042689	0.562813
O80	O	0.055242	-0.051215	0.484950
O81	O	0.149727	-0.051189	0.484666
O82	O	0.000787	-0.051210	0.594384
Cu83	Cu	0.078117	-0.059771	0.542381
Cu84	Cu	0.041072	0.051244	0.505382
O85	O	0.095272	-0.051184	0.594099
N86	N	0.015015	0.129326	0.479356
N87	N	0.104469	-0.538576	0.968995
O88	O	0.099171	-0.673268	1.149499
O89	O	-0.010519	-0.524279	1.149527
O90	O	-0.010265	-0.618748	1.149494
O91	O	0.098916	-0.578799	1.149533
O92	O	0.021008	-0.587443	1.055625
O93	O	0.020753	-0.492974	1.055659
O94	O	0.130444	-0.641963	1.055630
Cu95	Cu	0.078454	-0.564610	1.047074
Cu96	Cu	0.041470	-0.601632	1.158084
O97	O	0.130189	-0.547494	1.055664
N98	N	0.015455	-0.627672	1.236163
C99	C	0.035988	-0.489761	0.454182
C100	C	0.152897	-0.606574	0.454082
C101	C	0.083257	-0.676417	0.593694
C102	C	-0.033653	-0.559604	0.593794
C103	C	0.638623	-0.652892	0.616806
C104	C	0.638531	-0.652583	0.499833
C105	C	0.638384	-0.512957	0.430345
C106	C	0.638480	-0.513267	0.547317
C107	C	0.152789	-0.004135	0.453875
C108	C	0.035820	-0.004282	0.454266
C109	C	-0.033639	-0.004275	0.593849
C110	C	0.083370	-0.004245	0.593498
C111	C	-0.009989	-0.489856	1.102597
C112	C	-0.009667	-0.606839	1.102536
C113	C	0.129914	-0.676386	1.102561
C114	C	0.129599	-0.559396	1.102601
H115	H	0.093440	-0.418108	0.739036
C116	C	0.175940	-0.547854	1.102607
C117	C	0.233835	-0.594197	1.102599
C118	C	0.280177	-0.582655	1.102606
C119	C	0.268623	-0.524769	1.102620
C120	C	0.210726	-0.478421	1.102628
C121	C	0.164384	-0.489964	1.102621
H122	H	0.242390	-0.637052	1.102589
H123	H	0.323037	-0.616965	1.102600
H124	H	0.302928	-0.516224	1.102625
H125	H	0.202171	-0.435567	1.102638
H126	H	0.121524	-0.455654	1.102627
H127	H	0.638471	-0.478960	0.555871
H128	H	-0.076413	-0.004282	0.628294
H129	H	0.091941	-0.004235	0.627787
H130	H	-0.044426	-0.447066	1.102605
C131	C	-0.091467	-0.548216	0.640265
C132	C	-0.127858	-0.584853	0.664583
C133	C	-0.185672	-0.573466	0.711053
C134	C	-0.207096	-0.525442	0.733206
C135	C	-0.170706	-0.488801	0.708888
C136	C	-0.112891	-0.500189	0.662417
H137	H	-0.111999	-0.620407	0.648184
H138	H	-0.212611	-0.600590	0.729055
H139	H	-0.249894	-0.517012	0.767606
H140	H	-0.186565	-0.453248	0.725286
H141	H	-0.085952	-0.473065	0.644415
C142	C	0.210453	-0.003771	0.407221
C143	C	0.264606	-0.052328	0.417211
C144	C	0.322269	-0.051965	0.370557
C145	C	0.325779	-0.003044	0.313913
C146	C	0.271624	0.045517	0.303921
C147	C	0.213961	0.045153	0.350575
H148	H	0.262009	-0.088546	0.459144
H149	H	0.362358	-0.087913	0.377954
H150	H	0.368465	-0.002775	0.279377
H151	H	0.274221	0.081735	0.261987
H152	H	0.173872	0.081102	0.343177
C153	C	0.210711	-0.617962	0.407610
C154	C	0.257179	-0.675794	0.418981
C155	C	0.314992	-0.687183	0.372509
C156	C	0.326337	-0.640739	0.314667
C157	C	0.279867	-0.582904	0.303293
C158	C	0.222054	-0.571515	0.349765
H159	H	0.248782	-0.710177	0.461802
H160	H	0.349392	-0.729997	0.380929
H161	H	0.369134	-0.649170	0.280265
H162	H	0.288264	-0.548520	0.260472
H163	H	0.187654	-0.528701	0.341345
C164	C	0.041193	-0.449788	0.854672
C165	C	-0.001074	-0.412414	0.822203
C166	C	-0.064965	-0.396715	0.854726
C167	C	-0.086588	-0.418389	0.919718
C168	C	-0.044321	-0.455765	0.952190
C169	C	0.019570	-0.471464	0.919668
H170	H	0.014933	-0.396368	0.774089
H171	H	-0.096254	-0.369047	0.830687
H172	H	-0.133884	-0.406767	0.943793
H173	H	-0.060327	-0.471811	1.000305
H174	H	0.050859	-0.499132	0.943707
H175	H	-0.043953	-0.615372	1.102487
H176	H	0.638322	-0.478510	0.387573
C177	C	0.176440	-0.734190	1.102550
C178	C	0.165167	-0.780702	1.102531
C179	C	0.211693	-0.838507	1.102520
C180	C	0.269492	-0.849799	1.102529
C181	C	0.280768	-0.803286	1.102548
C182	C	0.234242	-0.745481	1.102559
H183	H	0.122378	-0.772344	1.102524
H184	H	0.203346	-0.872939	1.102506
H185	H	0.303934	-0.892589	1.102521
H186	H	0.323557	-0.811644	1.102555
H187	H	0.242589	-0.711049	1.102574
H188	H	0.027247	-0.004286	0.419974
H189	H	0.638547	-0.686893	0.491276
C190	C	-0.034211	-0.525063	0.430000
C191	C	-0.067165	-0.498223	0.476690
C192	C	-0.082823	-0.434326	0.460975
C193	C	-0.065527	-0.397270	0.398571
C194	C	-0.032571	-0.424110	0.351877
C195	C	-0.016913	-0.488007	0.367591
H196	H	-0.079970	-0.525654	0.522889
H197	H	-0.107219	-0.414457	0.495542
H198	H	-0.077119	-0.349969	0.386938
H199	H	-0.019767	-0.396678	0.305677
H200	H	0.007483	-0.507875	0.333025
C201	C	0.094739	-0.734271	0.640104
C202	C	0.152596	-0.780680	0.628642
C203	C	0.164078	-0.838534	0.675052
C204	C	0.117703	-0.849979	0.732924
C205	C	0.059842	-0.803568	0.744388
C206	C	0.048360	-0.745714	0.697978
H207	H	0.186929	-0.772210	0.585800
H208	H	0.206911	-0.872891	0.666565
H209	H	0.126203	-0.892806	0.767279
H210	H	0.025509	-0.812039	0.787230
H211	H	0.005527	-0.711358	0.706464
H212	H	0.638671	-0.687334	0.659583
H213	H	0.232890	-0.541375	0.846122
H214	H	0.093408	-0.418110	0.688821
C215	C	0.285138	-0.509702	0.730482
C216	C	0.311917	-0.462986	0.689856
C217	C	0.375808	-0.478675	0.657331
C218	C	0.412918	-0.541081	0.665432
C219	C	0.386139	-0.587801	0.706060
C220	C	0.322249	-0.572111	0.738585
H221	H	0.284445	-0.416786	0.683858
H222	H	0.395631	-0.444090	0.627255
H223	H	0.460214	-0.552695	0.641354
H224	H	0.413611	-0.634001	0.712058
H225	H	0.302426	-0.606697	0.768661
H226	H	0.057658	-0.453826	0.653091
H227	H	-0.223425	-0.672650	0.564976
H228	H	0.027485	-0.446933	0.419832
H229	H	0.268446	-0.505593	0.601208
C230	C	0.243660	-0.551030	0.555791
C231	C	0.307558	-0.566716	0.540062
C232	C	0.349785	-0.604066	0.502672
C233	C	0.328114	-0.625729	0.481010
C234	C	0.264213	-0.610043	0.496738
C235	C	0.221986	-0.572693	0.534128
H236	H	0.323603	-0.550680	0.556098
H237	H	0.397089	-0.615677	0.491029
H238	H	0.359373	-0.653377	0.453331
H239	H	0.248168	-0.626079	0.480702
H240	H	0.174682	-0.561082	0.545771
H241	H	0.382132	-0.584293	0.642268
C242	C	0.266505	-0.559416	0.686075
C243	C	0.299014	-0.622824	0.695278
C244	C	0.266534	-0.664576	0.726175
C245	C	0.201544	-0.642921	0.747869
C246	C	0.169031	-0.579510	0.738667
C247	C	0.201511	-0.537758	0.707770
H248	H	0.347127	-0.638857	0.679218
H249	H	0.290603	-0.711517	0.732987
H250	H	0.177500	-0.673829	0.770741
H251	H	0.120918	-0.563477	0.754727
H252	H	0.177442	-0.490817	0.700958
H253	H	0.382082	-0.410845	0.576135
H254	H	0.224626	-0.367851	0.557490
C255	C	0.266452	-0.358653	0.609516
C256	C	0.274538	-0.315687	0.549225
C257	C	0.242029	-0.252276	0.540017
C258	C	0.201435	-0.231830	0.591100
C259	C	0.193346	-0.274797	0.651395
C260	C	0.225855	-0.338208	0.660603
H261	H	0.304590	-0.330822	0.511406
H262	H	0.248017	-0.220469	0.495382
H263	H	0.177370	-0.184889	0.584284
H264	H	0.163294	-0.259662	0.689214
H265	H	0.219867	-0.370015	0.705238
H266	H	0.101438	-0.260698	0.696864
C267	C	0.192919	-0.252206	0.505192
C268	C	0.230268	-0.284688	0.462941
C269	C	0.245928	-0.252176	0.399045
C270	C	0.224240	-0.187181	0.377399
C271	C	0.186889	-0.154695	0.419651
C272	C	0.171228	-0.187208	0.483547
H273	H	0.246326	-0.332805	0.478964
H274	H	0.273578	-0.276224	0.367767
H275	H	0.235832	-0.163113	0.330099
H276	H	0.170831	-0.106578	0.403628
H277	H	0.143579	-0.163159	0.514825
H278	H	0.137197	-0.367895	0.732563
H279	H	-0.065723	-0.577332	0.347941
C280	C	-0.033884	-0.525076	0.232305
C281	C	-0.016719	-0.488010	0.240495
C282	C	-0.032356	-0.424113	0.207969
C283	C	-0.065159	-0.397283	0.167253
C284	C	-0.082326	-0.434349	0.159060
C285	C	-0.066689	-0.498246	0.191587
H286	H	0.007565	-0.507871	0.270638
H287	H	-0.019648	-0.396675	0.214034
H288	H	-0.076734	-0.349983	0.143175
H289	H	-0.106610	-0.414488	0.128918
H290	H	-0.079397	-0.525684	0.185522
H291	H	0.057627	-0.716785	0.240872
H292	H	0.021738	-0.752445	0.348058
H293	H	-0.065797	-0.577331	0.398207
H294	H	0.021495	-0.752433	0.485928
C295	C	0.066853	-0.727747	0.531504
C296	C	0.126830	-0.727551	0.511981
C297	C	0.164128	-0.769833	0.549421
C298	C	0.141447	-0.812311	0.606385
C299	C	0.081467	-0.812509	0.625911
C300	C	0.044169	-0.770227	0.588471
H301	H	0.143623	-0.696104	0.469810
H302	H	0.208529	-0.769686	0.534966
H303	H	0.169057	-0.843611	0.634100
H304	H	0.064674	-0.843955	0.668081
H305	H	-0.000232	-0.770373	0.602925
H306	H	0.064563	-0.758931	0.409098
H307	H	-0.073247	-0.865920	0.510699
C308	C	0.116668	-0.874590	0.442518
C309	C	0.137018	-0.915219	0.493662
C310	C	0.200404	-0.947783	0.484556
C311	C	0.243441	-0.939719	0.424304
C312	C	0.223092	-0.899088	0.373155
C313	C	0.159705	-0.866523	0.382262
H314	H	0.105158	-0.921190	0.538268
H315	H	0.215467	-0.977861	0.522420
H316	H	0.290363	-0.963825	0.417563
H317	H	0.254951	-0.893116	0.328550
H318	H	0.144642	-0.836445	0.344398
H319	H	-0.108889	-0.758731	0.474933
H320	H	-0.223112	-0.585171	0.389803
C321	C	-0.107817	-0.718219	0.540431
C322	C	-0.140407	-0.733863	0.604306
C323	C	-0.108007	-0.771250	0.646637
C324	C	-0.043017	-0.792993	0.625093
C325	C	-0.010424	-0.777349	0.561215
C326	C	-0.042824	-0.739962	0.518884
H327	H	-0.188520	-0.717767	0.620257
H328	H	-0.132135	-0.782830	0.693924
H329	H	-0.019033	-0.820669	0.656429
H330	H	0.037689	-0.793445	0.545264
H331	H	-0.018695	-0.728382	0.471597
H332	H	-0.115923	-0.621016	0.354266
