data_functionalizedCrystal
_audit_creation_method	'MofGen! by Chris Wilmer'
_symmetry_space_group_name_H-M	'P1'
_symmetry_Int_Tables_number	1
_symmetry_cell_setting	triclinic
loop_
_symmetry_equiv_pos_as_xyz
  x,y,z
_cell_length_a	15.995350
_cell_length_b	10.654550
_cell_length_c	9.130313
_cell_angle_alpha	90.000110
_cell_angle_beta	89.996588
_cell_angle_gamma	83.988639
loop_
_atom_site_label
_atom_site_type_symbol
_atom_site_fract_x
_atom_site_fract_y
_atom_site_fract_z
O1	O	-1.111921	-0.161867	-0.121671
O2	O	-0.868262	-0.181857	-0.121701
O3	O	-0.995693	0.010950	-0.121680
O4	O	-0.984489	-0.354674	-0.121692
O5	O	-0.995692	0.010945	0.121919
O6	O	-0.868260	-0.181862	0.121898
O7	O	-1.111919	-0.161873	0.121927
Cu8	Cu	-0.990089	-0.171868	0.144155
Cu9	Cu	-0.990091	-0.171862	-0.143929
O10	O	-0.984487	-0.354680	0.121906
C11	C	-0.837061	-0.181033	0.000095
C12	C	-0.744096	-0.178555	0.000083
C13	C	-0.994870	0.057735	0.000117
C14	C	-0.992409	0.197146	0.000112
C15	C	-1.143119	-0.162696	0.000129
C16	C	-1.236084	-0.165174	0.000130
C17	C	-0.406297	-0.169658	0.000114
C18	C	-0.452934	-0.032344	0.000662
C19	C	-0.549639	-0.034822	0.000103
C20	C	-0.573883	-0.174071	0.000100
C21	C	-0.533190	-0.241796	-0.139004
C22	C	-0.436535	-0.238347	-0.139110
C23	C	-0.436210	-0.241190	0.137907
C24	C	-0.533156	-0.241157	0.139736
C25	C	-0.668595	-0.176573	0.000086
C26	C	-0.311585	-0.167161	0.000117
C27	C	-0.985311	-0.401464	0.000106
C28	C	-0.987772	-0.540875	0.000101
N29	N	-0.990094	-0.171871	0.346778
C30	C	-1.067438	0.277612	0.000126
C31	C	-1.065121	0.408603	0.000115
C32	C	-0.912737	0.378648	0.000084
C33	C	-0.915055	0.247660	0.000084
C34	C	-1.144792	0.227098	0.000154
C35	C	-1.219828	0.307565	0.000169
C36	C	-1.217510	0.438555	0.000159
C37	C	-1.140156	0.489079	0.000133
N38	N	-0.990093	-0.171848	-0.346551
C39	C	-1.046536	-0.086525	0.423439
C40	C	-1.046533	-0.086510	0.576776
C41	C	-0.933646	-0.257198	0.576777
C42	C	-0.933644	-0.257206	0.423443
C43	C	-1.102985	-0.001190	0.346774
C44	C	-1.159432	0.084162	0.423436
C45	C	-1.159430	0.084177	0.576772
C46	C	-1.102981	-0.001160	0.653448
H47	H	-0.577758	0.018413	0.099818
H48	H	-1.146687	0.120440	0.000167
C49	C	-0.841524	0.566148	0.000086
C50	C	-0.827714	0.434182	0.000074
H51	H	-0.789033	0.600427	0.000093
H52	H	-0.872443	0.593760	-0.084854
H53	H	-0.872452	0.593751	0.085044
H54	H	-0.796791	0.406578	-0.084890
H55	H	-0.796781	0.406558	0.085022
H56	H	-0.404872	-0.339160	-0.145425
C57	C	-0.643690	0.138815	-0.089000
C58	C	-0.586835	0.037519	-0.134746
H59	H	-0.666649	0.183477	-0.172258
H60	H	-0.687666	0.107772	-0.034316
H61	H	-0.615307	0.193906	-0.029421
H62	H	-0.615220	-0.017577	-0.194317
H63	H	-0.542853	0.068562	-0.189455
C64	C	-0.885724	-0.474556	0.623991
C65	C	-0.871602	-0.351004	0.661049
H66	H	-0.847416	-0.532467	0.676010
H67	H	-0.941673	-0.488237	0.649135
H68	H	-0.877644	-0.486757	0.521696
H69	H	-0.879688	-0.338799	0.763343
H70	H	-0.815639	-0.337317	0.635915
H71	H	-0.434092	0.022541	0.100419
H72	H	-0.887684	-0.326702	0.361024
H73	H	-0.433024	0.022293	-0.098541
H74	H	-0.853959	0.182142	0.000074
C75	C	-1.350428	0.292780	0.125410
C76	C	-1.304854	0.252040	0.000185
H77	H	-1.402922	0.258510	0.125409
H78	H	-1.319504	0.265154	0.210340
H79	H	-1.359776	0.382310	0.125390
H80	H	-1.295500	0.162511	0.000210
H81	H	-1.335784	0.279659	-0.084767
H82	H	-1.102994	-0.001197	0.221920
H83	H	-0.417940	-0.188954	-0.243091
C84	C	-1.271011	0.252889	0.438837
C85	C	-1.221475	0.177968	0.339162
H86	H	-1.309309	0.310807	0.386809
H87	H	-1.301427	0.200591	0.498650
H88	H	-1.235889	0.298095	0.498635
H89	H	-1.256597	0.132754	0.279371
H90	H	-1.191057	0.230272	0.279324
H91	H	-0.547909	-0.344099	-0.144178
H92	H	-1.205385	0.153682	0.639189
C93	C	-1.346688	0.504399	-0.125039
C94	C	-1.299988	0.527003	0.000169
H95	H	-1.397611	0.558996	-0.125021
H96	H	-1.315009	0.519720	-0.209981
H97	H	-1.359129	0.419152	-0.125016
H98	H	-1.287542	0.612247	0.000139
H99	H	-1.331674	0.511692	0.085132
H100	H	-1.102978	-0.001132	0.778305
C101	C	-1.178320	0.684868	-0.125109
C102	C	-1.137608	0.633067	0.000112
H103	H	-1.176751	0.773758	-0.125111
H104	H	-1.150703	0.649701	-0.210041
H105	H	-1.235124	0.666290	-0.125083
H106	H	-1.080802	0.651636	0.000081
H107	H	-1.165224	0.668246	0.085067
H108	H	-0.561292	-0.194753	-0.242525
C109	C	-0.363787	-0.077909	0.245990
C110	C	-0.408289	-0.180435	0.280253
H111	H	-0.346598	-0.040344	0.333865
H112	H	-0.315683	-0.106392	0.189398
H113	H	-0.398908	-0.017448	0.191489
H114	H	-0.373167	-0.240900	0.334745
H115	H	-0.456400	-0.151954	0.336868
H116	H	-0.560185	-0.191718	0.242644
H117	H	-0.405037	-0.342430	0.138846
C118	C	-0.605182	-0.405122	0.032221
C119	C	-0.554679	-0.378248	0.151073
H120	H	-0.618462	-0.489764	0.039209
H121	H	-0.655565	-0.349370	0.033400
H122	H	-0.575761	-0.394477	-0.056552
H123	H	-0.584102	-0.388884	0.239846
H124	H	-0.504288	-0.434017	0.149907
