data_functionalizedCrystal
_audit_creation_method	'MofGen! by Chris Wilmer'
_symmetry_space_group_name_H-M	'P1'
_symmetry_Int_Tables_number	1
_symmetry_cell_setting	triclinic
loop_
_symmetry_equiv_pos_as_xyz
  x,y,z
_cell_length_a	16.120490
_cell_length_b	17.077402
_cell_length_c	17.077395
_cell_angle_alpha	89.971476
_cell_angle_beta	87.088701
_cell_angle_gamma	87.115173
loop_
_atom_site_label
_atom_site_type_symbol
_atom_site_fract_x
_atom_site_fract_y
_atom_site_fract_z
Zn1	Zn	1.274519	-0.373517	-0.504583
Zn2	Zn	1.274430	-0.504785	-0.373310
Zn3	Zn	1.135111	-0.366869	-0.366686
Zn4	Zn	1.135068	-0.498071	-0.497891
O5	O	1.204782	-0.435811	-0.435618
O6	O	1.391173	-0.396522	-0.492742
O7	O	1.255929	-0.486518	-0.262583
O8	O	1.153659	-0.257907	-0.385007
O9	O	1.391107	-0.492964	-0.396296
O10	O	1.256082	-0.262791	-0.486320
O11	O	1.153573	-0.385192	-0.257717
O12	O	1.018440	-0.378681	-0.378518
O13	O	1.153586	-0.481521	-0.608627
O14	O	1.018408	-0.475075	-0.474914
O15	O	1.256040	-0.390012	-0.613543
O16	O	1.255887	-0.613739	-0.389807
O17	O	1.153499	-0.608806	-0.481336
C18	C	0.988173	-0.425429	-0.425272
C19	C	0.895507	-0.421006	-0.420864
C20	C	0.684564	-0.458745	-0.458481
C21	C	0.725851	-0.412939	-0.412816
C22	C	0.820257	-0.417429	-0.417296
C23	C	0.590150	-0.454256	-0.454003
C24	C	1.204701	-0.639755	-0.435582
C25	C	1.204743	-0.727006	-0.435597
C26	C	1.258111	-0.770542	-0.387994
C27	C	1.258152	-0.852524	-0.388016
C28	C	1.204820	-0.890969	-0.435638
C29	C	1.151449	-0.847428	-0.483246
C30	C	1.151414	-0.765448	-0.483227
C31	C	1.151527	-1.018302	-0.483279
C32	C	1.151561	-1.100288	-0.483297
C33	C	1.258265	-1.105378	-0.388068
C34	C	1.258229	-1.023398	-0.388050
C35	C	1.204858	-0.979862	-0.435657
C36	C	1.422236	-0.446234	-0.446004
C37	C	1.514902	-0.450675	-0.450431
C38	C	1.204885	-0.231071	-0.435671
C39	C	1.204929	-0.143823	-0.435694
C40	C	1.204818	-0.435759	-0.640364
C41	C	1.204833	-0.435737	-0.727614
C42	C	1.258273	-0.387986	-1.105995
C43	C	1.258256	-0.388013	-1.024013
C44	C	1.204902	-0.435666	-0.980467
C45	C	1.151567	-0.483301	-1.018906
C46	C	1.151588	-0.483278	-1.100886
C47	C	1.151523	-0.483345	-0.848033
C48	C	1.151500	-0.483367	-0.766048
C49	C	1.258191	-0.388079	-0.771161
C50	C	1.258213	-0.388056	-0.853141
C51	C	1.204877	-0.435691	-0.891574
C52	C	1.204794	-0.435808	-0.231670
C53	C	1.204940	-0.435616	-0.144428
H54	H	0.720116	-0.501331	-0.500935
H55	H	1.108035	-0.522151	-0.730593
C56	C	1.316867	-0.335686	-0.728883
N57	N	1.361059	-0.296223	-0.697036
C58	C	0.677821	-0.355410	-0.355450
N59	N	0.641641	-0.312084	-0.312240
H60	H	1.301652	-0.992096	-0.349269
H61	H	1.301725	-1.140829	-0.349307
C62	C	1.092848	-0.535744	-0.890308
N63	N	1.048652	-0.575206	-0.922149
H64	H	1.108149	-1.131589	-0.522090
H65	H	1.108029	-0.878737	-0.522023
C66	C	1.316919	-0.335608	-0.981740
N67	N	1.361104	-0.296133	-0.949901
C68	C	1.316780	-0.728259	-0.335605
N69	N	1.360973	-0.696415	-0.296145
H70	H	1.301609	-0.887967	-0.349253
C71	C	1.092808	-0.970414	-0.535643
N72	N	1.048576	-0.934345	-0.575077
C73	C	1.092705	-0.717559	-0.535595
N74	N	1.048486	-0.681491	-0.575042
H75	H	1.301715	-0.349176	-1.141445
C76	C	1.092916	-0.535673	-1.143162
N77	N	1.048724	-0.575140	-1.175003
H78	H	1.301655	-0.349249	-0.888595
H79	H	1.108128	-0.522105	-0.983443
