data_functionalizedCrystal
_audit_creation_method	'MofGen! by Chris Wilmer'
_symmetry_space_group_name_H-M	'P1'
_symmetry_Int_Tables_number	1
_symmetry_cell_setting	triclinic
loop_
_symmetry_equiv_pos_as_xyz
  x,y,z
_cell_length_a	16.793024
_cell_length_b	16.793047
_cell_length_c	33.586455
_cell_angle_alpha	113.253857
_cell_angle_beta	66.219990
_cell_angle_gamma	112.758327
loop_
_atom_site_label
_atom_site_type_symbol
_atom_site_fract_x
_atom_site_fract_y
_atom_site_fract_z
O1	O	0.005016	-0.570216	-0.583573
O2	O	-0.034529	-0.474528	-0.453458
O3	O	0.114723	-0.474535	-0.528082
O4	O	-0.144235	-0.570209	-0.508949
O5	O	0.108729	-0.346329	-0.530229
O6	O	-0.040523	-0.346322	-0.455605
O7	O	-0.000977	-0.442010	-0.585721
Cu8	Cu	-0.021297	-0.382459	-0.520859
Cu9	Cu	-0.014209	-0.534079	-0.518320
O10	O	-0.150229	-0.442003	-0.511097
C11	C	0.005100	-0.790970	-0.238461
C12	C	-0.040584	-0.395375	-0.435637
C13	C	-0.044693	-0.353446	-0.386631
C14	C	-0.039275	-0.401741	-0.363054
C15	C	-0.040566	-0.125547	-0.300731
C16	C	-0.044689	-0.223451	-0.321635
C17	C	-0.039266	-0.270752	-0.297563
C18	C	0.005118	-0.521142	-0.103554
C19	C	-0.046224	-0.263935	-0.366370
C20	C	-0.036476	-0.360146	-0.318399
C21	C	-0.030850	-0.408530	-0.294565
C22	C	-0.028014	-0.367522	-0.249895
C23	C	-0.030804	-0.278128	-0.229058
C24	C	-0.036430	-0.229743	-0.252892
C25	C	-0.027971	-0.237122	-0.184383
C26	C	-0.022345	-0.285507	-0.160550
C27	C	-0.019555	-0.374900	-0.181386
C28	C	-0.022391	-0.415909	-0.226057
C29	C	-0.019601	-0.505302	-0.246894
C30	C	-0.013975	-0.553687	-0.223060
C31	C	-0.011142	-0.512684	-0.178391
C32	C	-0.013932	-0.423291	-0.157554
C33	C	-0.005516	-0.561069	-0.154557
C34	C	-0.002726	-0.650463	-0.175394
C35	C	-0.005562	-0.691471	-0.220064
C36	C	-0.011185	-0.643081	-0.243897
C37	C	-0.022434	-0.546309	-0.291568
C38	C	-0.019644	-0.635702	-0.312405
C39	C	-0.014021	-0.684089	-0.288567
C40	C	-0.022480	-0.676711	-0.357076
C41	C	-0.028106	-0.628326	-0.380910
C42	C	-0.030896	-0.538933	-0.360073
C43	C	-0.028060	-0.497924	-0.315402
C44	C	-0.036522	-0.490548	-0.383907
C45	C	0.815184	-0.521162	-0.508596
C46	C	0.415541	-0.125553	-0.528781
C47	C	0.375032	-0.223457	-0.531493
C48	C	0.423813	-0.270761	-0.529101
C49	C	0.149318	-0.395376	-0.530584
C50	C	0.246774	-0.353455	-0.532364
C51	C	0.294574	-0.401748	-0.529976
C52	C	0.548961	-0.790984	-0.510398
C53	C	0.286104	-0.263940	-0.532530
C54	C	0.383336	-0.360149	-0.528302
C55	C	0.432207	-0.407971	-0.525810
C56	C	0.392316	-0.497392	-0.524993
C57	C	0.303554	-0.538991	-0.526667
C58	C	0.254683	-0.491169	-0.529159
C59	C	0.263666	-0.628421	-0.525851
C60	C	0.312537	-0.676243	-0.523359
C61	C	0.401299	-0.634644	-0.521685
C62	C	0.441190	-0.545223	-0.522502
C63	C	0.529952	-0.503624	-0.520828
C64	C	0.578823	-0.551446	-0.518336
C65	C	0.538939	-0.640864	-0.517520
C66	C	0.450177	-0.682463	-0.519194
C67	C	0.587810	-0.688687	-0.515028
C68	C	0.676572	-0.647088	-0.513354
C69	C	0.716463	-0.557666	-0.514172
C70	C	0.667586	-0.509847	-0.516662
C71	C	0.569840	-0.414195	-0.521644
C72	C	0.658602	-0.372596	-0.519970
C73	C	0.707476	-0.420426	-0.517480
C74	C	0.698493	-0.283174	-0.520788
C75	C	0.649622	-0.235352	-0.523280
C76	C	0.560860	-0.276951	-0.524954
C77	C	0.520969	-0.366372	-0.524136
C78	C	0.511989	-0.229129	-0.527446
C79	C	-0.040530	-0.395407	-0.935652
C80	C	0.005063	-0.791004	-0.738448
C81	C	0.009186	-0.693099	-0.717543
C82	C	0.003779	-0.645796	-0.741620
C83	C	0.005077	-0.521171	-0.603544
C84	C	0.009198	-0.563096	-0.652550
C85	C	0.003786	-0.514804	-0.676131
C86	C	-0.040516	-0.125574	-0.800747
C87	C	0.010719	-0.652613	-0.672809
C88	C	0.000994	-0.556406	-0.720789
C89	C	-0.004621	-0.508585	-0.744908
C90	C	-0.007444	-0.419162	-0.724369
C91	C	-0.004651	-0.377560	-0.679711
C92	C	0.000964	-0.425381	-0.655592
C93	C	-0.007471	-0.288129	-0.659174
C94	C	-0.013086	-0.240308	-0.683293
C95	C	-0.015878	-0.281910	-0.727951
C96	C	-0.013056	-0.371333	-0.748490
C97	C	-0.015848	-0.412935	-0.793148
C98	C	-0.021463	-0.365114	-0.817267
C99	C	-0.024282	-0.275694	-0.796731
C100	C	-0.021490	-0.234092	-0.752073
C101	C	-0.029897	-0.227873	-0.820850
C102	C	-0.032690	-0.269476	-0.865508
C103	C	-0.029867	-0.358899	-0.886047
C104	C	-0.024255	-0.406717	-0.861925
C105	C	-0.013028	-0.502367	-0.813685
C106	C	-0.015821	-0.543969	-0.858343
C107	C	-0.021433	-0.496140	-0.882464
C108	C	-0.012998	-0.633392	-0.878882
C109	C	-0.007383	-0.681213	-0.854763
C110	C	-0.004591	-0.639611	-0.810105
C111	C	-0.007414	-0.550188	-0.789566
C112	C	0.001024	-0.687432	-0.785986
O113	O	-0.000965	0.173549	-0.277957
O114	O	-0.040516	-0.085616	-0.325254
O115	O	0.108737	0.059592	-0.327284
O116	O	-0.150219	0.028341	-0.275927
O117	O	0.114753	0.055151	-0.263265
O118	O	-0.034500	-0.090057	-0.261234
O119	O	0.005051	0.169108	-0.213937
Cu120	Cu	-0.014175	0.039120	-0.231740
Cu121	Cu	-0.021290	0.044372	-0.307451
O122	O	-0.144202	0.023900	-0.211907
O123	O	-0.034458	-0.474571	0.046517
O124	O	0.005076	-0.570190	-0.083599
O125	O	-0.144170	-0.570237	-0.008972
O126	O	0.114787	-0.474523	-0.028110
O127	O	-0.150200	-0.442024	-0.011093
O128	O	-0.000954	-0.441976	-0.085720
O129	O	-0.040488	-0.346357	0.044396
Cu130	Cu	-0.021272	-0.382460	-0.020856
Cu131	Cu	-0.014141	-0.534087	-0.018347
O132	O	0.108757	-0.346309	-0.030231
C133	C	-0.850734	0.086244	-0.289716
C134	C	-0.450996	0.035117	-0.097351
C135	C	-0.410501	0.028587	-0.146852
C136	C	-0.459292	0.034683	-0.169840
C137	C	-0.184802	0.024283	-0.235878
C138	C	-0.282257	0.023363	-0.213592
C139	C	-0.330068	0.029423	-0.237088
C140	C	-0.584541	0.075410	-0.428242
C141	C	-0.321573	0.024104	-0.168302
C142	C	-0.418828	0.035176	-0.215083
C143	C	-0.467711	0.041476	-0.238329
C144	C	-0.427833	0.042022	-0.283580
C145	C	-0.339073	0.036269	-0.305586
C146	C	-0.290190	0.029970	-0.282340
C147	C	-0.299198	0.036812	-0.350842
C148	C	-0.348081	0.043111	-0.374088
C149	C	-0.436841	0.048864	-0.352082
C150	C	-0.476719	0.048318	-0.306830
C151	C	-0.565480	0.054071	-0.284825
C152	C	-0.614362	0.060370	-0.308071
C153	C	-0.574491	0.060913	-0.353321
C154	C	-0.485730	0.055160	-0.375326
C155	C	-0.623374	0.067212	-0.376567
C156	C	-0.712134	0.072965	-0.354561
C157	C	-0.752012	0.072419	-0.309309
C158	C	-0.703123	0.066123	-0.286065
C159	C	-0.605355	0.053528	-0.239569
C160	C	-0.694115	0.059281	-0.217564
C161	C	-0.743001	0.065577	-0.240813
C162	C	-0.733993	0.058735	-0.172312
C163	C	-0.685110	0.052436	-0.149066
C164	C	-0.596350	0.046683	-0.171072
C165	C	-0.556472	0.047229	-0.216323
C166	C	-0.547467	0.040383	-0.147826
O167	O	0.585213	0.169090	-0.504004
O168	O	0.494056	-0.090076	-0.525516
O169	O	0.488081	0.055124	-0.449918
O170	O	0.591189	0.023889	-0.579602
O171	O	0.359978	0.059584	-0.452885
O172	O	0.365953	-0.085616	-0.528483
O173	O	0.457110	0.173550	-0.506971
Cu174	Cu	0.399835	0.044374	-0.517998
Cu175	Cu	0.551332	0.039099	-0.514489
O176	O	0.463086	0.028349	-0.582569
C177	C	0.815354	-0.521094	-0.008709
C178	C	0.415547	-0.125494	-0.028771
C179	C	0.375059	-0.223405	-0.031498
C180	C	0.423859	-0.270708	-0.029121
C181	C	0.149365	-0.395355	-0.030599
C182	C	0.246820	-0.353421	-0.032381
C183	C	0.294640	-0.401713	-0.030008
C184	C	0.549171	-0.790955	-0.010537
C185	C	0.286131	-0.263897	-0.032533
C186	C	0.383402	-0.360104	-0.028335
C187	C	0.432293	-0.407926	-0.025859
C188	C	0.392422	-0.497356	-0.025055
C189	C	0.303660	-0.538965	-0.026727
C190	C	0.254769	-0.491143	-0.029204
C191	C	0.263791	-0.628403	-0.025925
C192	C	0.312683	-0.676224	-0.023448
C193	C	0.401445	-0.634615	-0.021775
C194	C	0.441316	-0.545185	-0.022579
C195	C	0.530078	-0.503576	-0.020906
C196	C	0.578969	-0.551398	-0.018429
C197	C	0.539104	-0.640825	-0.017627
C198	C	0.450342	-0.682434	-0.019300
C199	C	0.587995	-0.688646	-0.015150
C200	C	0.676757	-0.647037	-0.013477
C201	C	0.716628	-0.557607	-0.014281
C202	C	0.667731	-0.509789	-0.016757
C203	C	0.569946	-0.414138	-0.021709
C204	C	0.658708	-0.372530	-0.020036
C205	C	0.707602	-0.420359	-0.017561
C206	C	0.698579	-0.283100	-0.020840
C207	C	0.649688	-0.235278	-0.023317
C208	C	0.560926	-0.276887	-0.024990
C209	C	0.521055	-0.366317	-0.024186
C210	C	0.512035	-0.229066	-0.027467
O211	O	-0.620614	0.089309	0.052274
O212	O	-0.529507	0.043784	-0.078544
O213	O	-0.523494	0.194833	-0.006033
O214	O	-0.626628	-0.061740	-0.020236
O215	O	-0.395386	0.185419	-0.005549
O216	O	-0.401400	0.034370	-0.078059
O217	O	-0.492507	0.079895	0.052758
Cu218	Cu	-0.435256	0.056273	-0.012607
Cu219	Cu	-0.586758	0.067406	-0.013179
O220	O	-0.498521	-0.071154	-0.019752
C221	C	-0.437537	0.048335	0.402491
C222	C	-0.837226	0.099430	0.210091
C223	C	-0.739773	0.100339	0.187806
C224	C	-0.691967	0.094287	0.211308
C225	C	-0.571027	0.088563	0.071568
C226	C	-0.611521	0.095108	0.121070
C227	C	-0.562739	0.089011	0.144061
C228	C	-0.171338	0.037467	0.263967
C229	C	-0.700452	0.099593	0.142516
C230	C	-0.603213	0.088528	0.189308
C231	C	-0.554892	0.082255	0.212848
C232	C	-0.466098	0.076466	0.191141
C233	C	-0.425624	0.076949	0.145894
C234	C	-0.473945	0.083222	0.122354
C235	C	-0.336822	0.071163	0.124188
C236	C	-0.288502	0.064890	0.147728
C237	C	-0.328975	0.064407	0.192975
C238	C	-0.417770	0.070196	0.214682
C239	C	-0.458244	0.069713	0.259929
C240	C	-0.409923	0.063441	0.283469
C241	C	-0.321132	0.057655	0.261765
C242	C	-0.280658	0.058138	0.216518
C243	C	-0.272811	0.051382	0.285305
C244	C	-0.313285	0.050899	0.330552
C245	C	-0.402079	0.056688	0.352259
C246	C	-0.450397	0.062957	0.328716
C247	C	-0.547046	0.075500	0.281635
C248	C	-0.587520	0.075016	0.326882
C249	C	-0.539191	0.068747	0.350423
C250	C	-0.676314	0.080806	0.348589
C251	C	-0.724634	0.087078	0.325049
C252	C	-0.684160	0.087561	0.279802
C253	C	-0.595366	0.081772	0.258095
C254	C	-0.732481	0.093834	0.256262
O255	O	-0.040608	-1.085661	-0.825229
O256	O	-0.001018	-0.826491	-0.777938
O257	O	-0.150287	-0.971682	-0.775894
O258	O	0.108661	-0.940470	-0.827272
O259	O	-0.144253	-0.976123	-0.711878
O260	O	0.005016	-0.830932	-0.713922
O261	O	-0.034575	-1.090102	-0.761213
Cu262	Cu	-0.014228	-0.960923	-0.731722
Cu263	Cu	-0.021364	-0.955670	-0.807428
O264	O	0.114695	-0.944911	-0.763256
O265	O	-0.049204	-0.216238	-0.390138
C266	C	0.023934	-0.087413	-0.419426
C267	C	0.027428	-0.141358	-0.392509
H268	H	0.085873	-0.026851	-0.421343
H269	H	0.023187	-0.132201	-0.455182
H270	H	-0.039891	-0.063219	-0.401649
H271	H	0.091245	-0.165561	-0.410246
H272	H	0.028125	-0.096536	-0.356753
O273	O	-0.273345	0.020181	-0.145217
C274	C	-0.191582	-0.064417	-0.140318
C275	C	-0.246168	-0.060082	-0.166510
H276	H	-0.169609	-0.129313	-0.157518
H277	H	-0.129299	-0.004150	-0.140056
H278	H	-0.235487	-0.063020	-0.103966
H279	H	-0.202338	-0.061506	-0.202873
H280	H	-0.308457	-0.120344	-0.166736
O281	O	-0.203663	0.024240	-0.303871
C282	C	-0.104091	-0.059562	-0.365787
C283	C	-0.202123	-0.053174	-0.341454
H284	H	-0.102815	-0.122157	-0.396173
H285	H	-0.060997	0.002843	-0.377894
H286	H	-0.075890	-0.064129	-0.341285
H287	H	-0.230405	-0.048636	-0.365931
H288	H	-0.245154	-0.115580	-0.329340
O289	O	0.785128	-0.242690	-0.519233
C290	C	0.941334	-0.244009	-0.554918
C291	C	0.843270	-0.289934	-0.556744
H292	H	0.988367	-0.282198	-0.585236
H293	H	0.961606	-0.171594	-0.555962
H294	H	0.946617	-0.244268	-0.522180
H295	H	0.837914	-0.289742	-0.589477
H296	H	0.823042	-0.362325	-0.555675
H297	H	-0.315470	0.043557	-0.411085
H298	H	-0.020027	-0.251971	-0.124027
H299	H	0.191224	-0.662427	-0.027294
O300	O	-0.715882	0.080182	0.392700
C301	C	-0.837849	0.005471	0.446044
C302	C	-0.793117	0.006066	0.396073
H303	H	-0.900312	-0.054434	0.448789
H304	H	-0.787911	-0.000089	0.459209
H305	H	-0.858470	0.070546	0.467135
H306	H	-0.772495	-0.058994	0.374946
H307	H	-0.843083	0.011674	0.382944
H308	H	0.682238	-0.162236	-0.523943
O309	O	0.177053	-0.668855	-0.527439
C310	C	0.020828	-0.667611	-0.491748
C311	C	0.118875	-0.621715	-0.489890
H312	H	-0.026239	-0.629528	-0.461390
H313	H	0.015477	-0.667281	-0.524456
H314	H	0.000654	-0.740050	-0.490761
H315	H	0.139112	-0.549257	-0.490860
H316	H	0.124172	-0.622116	-0.457185
H317	H	-0.815575	0.070280	-0.222817
H318	H	-0.572284	0.068372	0.387422
O319	O	-0.024007	-0.536760	-0.926046
C320	C	0.052128	-0.610990	-1.002178
C321	C	0.055133	-0.565047	-0.952835
H322	H	0.116114	-0.633855	-1.023853
H323	H	-0.009510	-0.671838	-1.003296
H324	H	0.047579	-0.561224	-1.015919
H325	H	0.059715	-0.614742	-0.939063
H326	H	0.116762	-0.504184	-0.951746
O327	O	-0.297222	0.071588	0.080053
C328	C	-0.163329	0.065715	0.015878
C329	C	-0.208081	0.065195	0.065859
H330	H	-0.091245	0.060565	0.004389
H331	H	-0.203612	0.006018	-0.006064
H332	H	-0.161985	0.131017	0.012317
H333	H	-0.209434	-0.000066	0.069464
H334	H	-0.167784	0.124936	0.087777
O335	O	-0.212620	0.031248	-0.372366
C336	C	-0.089706	0.026671	-0.441825
C337	C	-0.187757	0.033001	-0.417496
H338	H	-0.069580	0.028066	-0.478319
H339	H	-0.042582	0.086090	-0.423443
H340	H	-0.084390	-0.038902	-0.441728
H341	H	-0.193160	0.098536	-0.417587
H342	H	-0.234835	-0.026465	-0.435886
H343	H	-0.020209	-0.749804	-0.374113
H344	H	-0.806568	0.063430	-0.154318
H345	H	0.780178	-0.386331	-0.016193
H346	H	-0.797237	0.091807	0.342798
H347	H	0.182201	-0.525171	-0.030575
H348	H	-0.038719	-0.156659	-0.235851
H349	H	-0.011621	-0.389765	-0.121028
H350	H	-0.208057	0.053400	0.198770
H351	H	-0.805083	0.098565	0.274011
O352	O	0.013689	-0.700230	-0.648998
C353	C	-0.059461	-0.756811	-0.583591
C354	C	-0.062943	-0.702884	-0.610521
H355	H	-0.121400	-0.758958	-0.552472
H356	H	-0.058724	-0.828348	-0.605992
H357	H	0.004365	-0.722992	-0.572359
H358	H	-0.126760	-0.736625	-0.621758
H359	H	-0.063630	-0.631349	-0.588103
H360	H	0.245737	-0.223998	-0.033572
H361	H	0.417564	-0.755580	-0.518528
H362	H	-0.011748	-0.757184	-0.305606
O363	O	-0.446839	0.055532	-0.419489
C364	C	-0.377241	-0.024336	-0.495704
C365	C	-0.421281	-0.024886	-0.445710
H366	H	-0.356548	-0.089338	-0.516916
H367	H	-0.427613	-0.018881	-0.508626
H368	H	-0.314898	0.035659	-0.498574
H369	H	-0.483617	-0.084874	-0.442801
H370	H	-0.370850	-0.030295	-0.432810
H371	H	-0.005182	-0.254109	-0.622664
O372	O	0.273672	-0.763461	-0.022691
C373	C	0.140366	-0.888890	-0.023794
C374	C	0.184440	-0.790097	-0.024666
H375	H	0.068208	-0.910449	-0.025381
H376	H	0.180934	-0.933598	-0.054191
H377	H	0.139311	-0.895741	0.008871
H378	H	0.185502	-0.783159	-0.057311
H379	H	0.143858	-0.745435	0.005753
H380	H	-0.015393	-0.167196	-0.666497
O381	O	-0.434346	0.083638	0.078217
C382	C	-0.300466	0.077732	0.014036
C383	C	-0.345207	0.077239	0.064021
H384	H	-0.228384	0.072578	0.002545
H385	H	-0.340758	0.018028	-0.007899
H386	H	-0.299120	0.143027	0.010466
H387	H	-0.346561	0.011985	0.067633
H388	H	-0.304900	0.136987	0.085931
H389	H	-0.015274	-0.667410	-0.915397
O390	O	-0.723944	0.051777	-0.104943
C391	C	-0.769370	-0.029717	-0.050754
C392	C	-0.725355	-0.029078	-0.100736
H393	H	-0.770543	-0.095090	-0.047339
H394	H	-0.728736	0.029902	-0.028953
H395	H	-0.841484	-0.024455	-0.038973
H396	H	-0.653245	-0.034369	-0.112559
H397	H	-0.766057	-0.088688	-0.122508
O398	O	-0.748488	0.103507	0.119332
C399	C	-0.759392	0.185219	0.077559
C400	C	-0.704892	0.180886	0.103795
H401	H	-0.724177	0.247784	0.064998
H402	H	-0.764112	0.122606	0.047340
H403	H	-0.830281	0.188501	0.100946
H404	H	-0.633978	0.177633	0.080445
H405	H	-0.700247	0.243497	0.134018
O406	O	-0.201847	0.059359	0.126623
C407	C	-0.045887	0.126542	0.125630
C408	C	-0.143983	0.132912	0.149581
H409	H	0.000927	0.186011	0.144176
H410	H	-0.040752	0.061002	0.125865
H411	H	-0.025206	0.127926	0.089092
H412	H	-0.164727	0.131566	0.186127
H413	H	-0.149064	0.198445	0.149309
H414	H	-0.030255	-0.164038	-0.167345
O415	O	-0.024081	-0.146820	-0.732043
C416	C	0.051891	0.003725	-0.696235
C417	C	0.054953	-0.095070	-0.718917
H418	H	0.115773	0.045589	-0.685608
H419	H	0.047437	0.030937	-0.721237
H420	H	-0.009847	0.007773	-0.665037
H421	H	0.116685	-0.099197	-0.750112
H422	H	0.059359	-0.122239	-0.693885
H423	H	0.245727	-0.224039	-0.533582
H424	H	0.012418	-0.684570	-0.156900
O425	O	-0.050588	-0.224762	-0.885623
C426	C	-0.004290	-0.091449	-0.909271
C427	C	0.016095	-0.141998	-0.886492
H428	H	0.049600	-0.024517	-0.909972
H429	H	-0.004149	-0.133938	-0.945445
H430	H	-0.073461	-0.078449	-0.889230
H431	H	0.085267	-0.155007	-0.906496
H432	H	0.015894	-0.099484	-0.850315
O433	O	0.717590	-0.691510	-0.004673
C434	C	0.789145	-0.689903	0.045156
C435	C	0.742884	-0.639476	0.035239
H436	H	0.809624	-0.647846	0.077420
H437	H	0.740260	-0.757388	0.049833
H438	H	0.851859	-0.701784	0.015534
H439	H	0.680174	-0.627529	0.064848
H440	H	0.791829	-0.572024	0.030545
O441	O	-0.030991	-0.668268	-0.424466
C442	C	-0.115160	-0.712892	-0.476899
C443	C	-0.112001	-0.667613	-0.427558
H444	H	-0.180660	-0.712394	-0.479413
H445	H	-0.055043	-0.674495	-0.500072
H446	H	-0.112138	-0.785372	-0.487734
H447	H	-0.115051	-0.595134	-0.416681
H448	H	-0.172112	-0.706077	-0.404414
O449	O	-0.752815	0.091656	-0.376328
C450	C	-0.749605	0.196741	-0.409647
C451	C	-0.703431	0.175674	-0.385010
H452	H	-0.709708	0.264678	-0.416666
H453	H	-0.751974	0.142051	-0.443085
H454	H	-0.821366	0.199114	-0.387397
H455	H	-0.631651	0.173315	-0.407224
H456	H	-0.701134	0.230369	-0.351568
O457	O	0.785138	-0.242369	-0.019194
C458	C	0.908090	-0.106812	-0.018619
C459	C	0.810054	-0.152824	-0.020479
H460	H	0.928271	-0.034413	-0.019667
H461	H	0.913463	-0.107036	0.014106
H462	H	0.955139	-0.144954	-0.048954
H463	H	0.762945	-0.114718	0.009834
H464	H	0.804754	-0.152610	-0.053222
H465	H	-0.038841	-0.524079	-0.420431
H466	H	0.182115	-0.525189	-0.530531
O467	O	-0.268588	0.032054	0.350232
C468	C	-0.204921	-0.075741	0.348760
C469	C	-0.255522	-0.054507	0.326421
H470	H	-0.194358	-0.145733	0.329524
H471	H	-0.136514	-0.023738	0.347829
H472	H	-0.246491	-0.073492	0.385489
H473	H	-0.214027	-0.056769	0.289684
H474	H	-0.323934	-0.106513	0.327388
H475	H	0.417746	-0.755558	-0.018645
H476	H	0.279916	-0.749353	-0.522691
H477	H	0.710767	-0.684484	-0.506030
H478	H	0.544602	-0.156012	-0.528109
H479	H	0.780052	-0.386407	-0.516111
H480	H	0.003251	-0.391359	-0.619081
H481	H	-0.005085	-0.754331	-0.871556
H482	H	0.003321	-0.760550	-0.802778
H483	H	-0.580066	0.039960	-0.110823
H484	H	0.682288	-0.162154	-0.023969
H485	H	0.544632	-0.155941	-0.028119
