data_functionalizedCrystal
_audit_creation_method	'MofGen! by Chris Wilmer'
_symmetry_space_group_name_H-M	'P1'
_symmetry_Int_Tables_number	1
_symmetry_cell_setting	triclinic
loop_
_symmetry_equiv_pos_as_xyz
  x,y,z
_cell_length_a	15.944551
_cell_length_b	17.038272
_cell_length_c	14.421503
_cell_angle_alpha	90.004327
_cell_angle_beta	89.996859
_cell_angle_gamma	87.305147
loop_
_atom_site_label
_atom_site_type_symbol
_atom_site_fract_x
_atom_site_fract_y
_atom_site_fract_z
O1	O	1.121728	0.100827	-0.077015
O2	O	0.878066	0.113259	-0.077039
O3	O	0.998449	-0.006773	-0.077020
O4	O	1.001345	0.220859	-0.077034
O5	O	0.998429	-0.006755	0.077204
O6	O	0.878046	0.113277	0.077185
O7	O	1.121708	0.100845	0.077208
Cu8	Cu	0.999875	0.107062	0.091278
Cu9	Cu	0.999899	0.107041	-0.091109
O10	O	1.001325	0.220877	0.077189
C11	C	0.846725	0.112752	0.000070
C12	C	0.753369	0.111205	0.000062
C13	C	0.532936	0.033105	0.000085
C14	C	0.474515	0.069363	-0.075958
C15	C	0.582443	0.108405	0.000073
C16	C	0.474519	0.069398	0.076094
C17	C	0.417337	0.105696	0.000088
C18	C	0.525252	0.144684	-0.076033
C19	C	0.525261	0.144709	0.076088
C20	C	0.466862	0.181022	0.000027
C21	C	0.677557	0.109964	0.000063
C22	C	0.322225	0.104143	0.000090
C23	C	0.995805	-0.035893	0.000092
C24	C	0.987945	-0.122688	0.000091
C25	C	1.060103	-0.172781	0.000098
C26	C	1.052713	-0.254334	0.000089
C27	C	0.973165	-0.285792	0.000078
C28	C	0.901002	-0.235693	0.000068
C29	C	0.908393	-0.154142	0.000071
C30	C	0.947056	-0.531558	0.000063
C31	C	0.939671	-0.613115	0.000063
C32	C	1.091383	-0.631751	0.000083
C33	C	1.098766	-0.550197	0.000091
C34	C	1.026603	-0.500105	0.000075
C35	C	0.965610	-0.369152	0.000071
C36	C	1.034159	-0.416747	0.000076
C37	C	1.153049	0.101352	0.000097
C38	C	1.246405	0.102899	0.000100
C39	C	1.003969	0.249997	0.000076
C40	C	1.011829	0.336792	0.000071
N41	N	0.999865	0.107077	0.219560
N42	N	0.999916	0.107021	-0.219390
C43	C	0.944187	0.162555	0.469205
C44	C	1.021171	0.177734	0.531013
C45	C	0.999884	0.107058	0.408721
C46	C	0.922921	0.091897	0.531006
C47	C	0.999895	0.107042	0.591442
C48	C	1.076908	0.122272	0.469169
C49	C	0.978606	0.036405	0.469156
C50	C	1.055642	0.051554	0.530937
C51	C	0.999876	0.107070	0.303460
C52	C	0.999912	0.107030	0.696701
H53	H	0.452139	0.037506	-0.140243
H54	H	0.547656	0.176539	0.140376
H55	H	0.960576	-0.023318	0.441965
H56	H	0.452149	0.037543	0.140380
H57	H	0.897141	0.209524	0.442099
C58	C	1.170754	-0.686852	0.000086
H59	H	1.154964	-0.739927	0.000074
H60	H	1.203130	-0.677315	0.053868
H61	H	1.203134	-0.677316	-0.053701
C62	C	1.147606	-0.138184	0.000110
H63	H	1.189521	-0.179701	0.000105
H64	H	1.153638	-0.106755	0.053892
H65	H	1.153649	-0.106763	-0.053677
C66	C	0.428092	0.265527	-0.000029
H67	H	0.394730	0.273664	0.054011
H68	H	0.393999	0.273336	-0.053557
H69	H	0.471634	0.301715	-0.000561
C70	C	1.045494	0.258435	0.567733
H71	H	1.005861	0.297816	0.546604
H72	H	1.099788	0.269586	0.545655
H73	H	1.045816	0.257694	0.633600
C74	C	0.852167	-0.647722	0.000051
H75	H	0.858104	-0.703465	0.000064
H76	H	0.822216	-0.630537	-0.053734
H77	H	0.822203	-0.630523	0.053835
H78	H	1.142019	0.135160	0.442121
C79	C	1.119343	-0.011863	0.567329
H80	H	1.090912	-0.048834	0.603585
H81	H	1.160204	0.012104	0.604420
H82	H	1.146202	-0.037992	0.516426
C83	C	0.571932	-0.051318	-0.000025
H84	H	0.554620	-0.077951	-0.054125
H85	H	0.553840	-0.078346	0.053442
H86	H	0.631408	-0.049734	0.000514
C87	C	0.555326	0.187683	-0.162964
H88	H	0.614868	0.188383	-0.162451
H89	H	0.532129	0.240066	-0.163164
H90	H	0.537546	0.161118	-0.216909
H91	H	1.098927	-0.391130	0.000064
C92	C	0.834989	0.074573	0.567690
H93	H	0.795485	0.114057	0.546540
H94	H	0.835736	0.074212	0.633553
H95	H	0.819492	0.024766	0.545588
H96	H	1.111472	-0.295117	0.000097
H97	H	1.163543	-0.524590	0.000100
C98	C	0.813501	-0.270295	0.000059
H99	H	0.819433	-0.326038	0.000068
H100	H	0.783550	-0.253105	-0.053724
H101	H	0.783542	-0.253096	0.053845
C102	C	0.867680	-0.476467	0.000062
H103	H	0.819248	-0.506885	0.000068
H104	H	0.867408	-0.444267	-0.053716
H105	H	0.867405	-0.444267	0.053853
C106	C	0.829020	-0.099040	0.000064
H107	H	0.780585	-0.129454	0.000066
H108	H	0.828758	-0.066842	-0.053716
H109	H	0.828741	-0.066837	0.053853
H110	H	0.900842	-0.394774	0.000065
