data_functionalizedCrystal
_audit_creation_method	'MofGen! by Chris Wilmer'
_symmetry_space_group_name_H-M	'P1'
_symmetry_Int_Tables_number	1
_symmetry_cell_setting	triclinic
loop_
_symmetry_equiv_pos_as_xyz
  x,y,z
_cell_length_a	15.698487
_cell_length_b	17.052862
_cell_length_c	17.052862
_cell_angle_alpha	61.493325
_cell_angle_beta	89.999111
_cell_angle_gamma	70.264957
loop_
_atom_site_label
_atom_site_type_symbol
_atom_site_fract_x
_atom_site_fract_y
_atom_site_fract_z
Zr1	Zr	0.987248	0.816703	-0.200479
O2	O	0.893177	0.944595	-0.328605
O3	O	0.995374	0.665981	-0.146288
O4	O	1.041020	0.783785	-0.307101
O5	O	0.835085	0.860718	-0.057903
O6	O	1.181202	0.783788	-0.307103
O7	O	0.847531	0.826791	-0.167791
O8	O	1.099550	0.573058	-0.019437
O9	O	0.916737	1.071448	-0.345569
O10	O	1.128480	0.736432	-0.141196
O11	O	1.014575	0.761749	-0.059186
O12	O	1.068317	0.900448	-0.248523
O13	O	0.954413	0.925765	-0.166513
Zr14	Zr	1.190973	0.870816	-0.025224
Zr15	Zr	1.210822	0.816707	-0.200482
Zr16	Zr	0.967399	0.870812	-0.025220
Zr17	Zr	1.024824	1.019017	-0.227535
Zr18	Zr	1.153397	0.668501	0.001833
O19	O	1.182846	1.021537	-0.079414
O20	O	1.211070	0.944601	-0.328610
O21	O	0.864953	1.021531	-0.079410
O22	O	1.285044	0.742923	0.102903
O23	O	1.313268	0.665987	-0.146293
O24	O	0.967151	0.742917	0.102907
O25	O	1.343136	0.826800	-0.167799
O26	O	1.137201	0.903733	0.081399
O27	O	0.997019	0.903731	0.081401
O28	O	1.330690	0.860727	-0.057911
O29	O	1.094449	1.071451	-0.345572
O30	O	1.083772	0.616067	0.119870
O31	O	1.261484	0.616071	0.119867
O32	O	1.277262	0.573061	-0.019440
O33	O	0.900959	1.114457	-0.206262
O34	O	1.078671	1.114460	-0.206265
O35	O	1.109904	0.787070	0.022821
O36	O	1.223808	0.761753	-0.059189
O37	O	1.163645	0.925769	-0.166516
O38	O	1.049741	0.951086	-0.084507
C39	C	1.042109	0.590694	-0.079008
C40	C	1.026157	0.504806	-0.067522
C41	C	0.809454	0.843754	-0.112847
C42	C	0.714541	0.843752	-0.112846
C43	C	1.219017	0.209845	-0.206389
C44	C	1.234003	0.290544	-0.217187
C45	C	1.182043	0.344113	-0.179772
C46	C	1.115094	0.316976	-0.131557
C47	C	1.100101	0.236274	-0.120764
C48	C	1.063127	0.370542	-0.094146
C49	C	0.996178	0.343405	-0.045931
C50	C	0.981189	0.262710	-0.035139
C51	C	1.033149	0.209141	-0.072555
C52	C	1.078120	0.451244	-0.104939
C53	C	0.959204	0.477673	-0.019313
C54	C	0.944218	0.396974	-0.008515
C55	C	0.540760	0.843769	-0.112856
C56	C	0.637462	0.843764	-0.112853
C57	C	1.368767	0.843764	-0.112855
C58	C	1.463680	0.843766	-0.112857
C59	C	1.113939	0.776077	-0.332073
C60	C	1.122366	0.753106	-0.406475
C61	C	1.136112	1.096824	-0.146695
C62	C	1.152064	1.182712	-0.158181
C63	C	1.020489	1.030823	-0.840302
C64	C	1.012566	1.052408	-0.770400
C65	C	1.040015	0.977585	-0.679416
C66	C	1.075389	0.881172	-0.658340
C67	C	1.083305	0.859584	-0.728249
C68	C	1.102832	0.806346	-0.567363
C69	C	1.138205	0.709934	-0.546286
C70	C	1.146121	0.688351	-0.616190
C71	C	1.118672	0.763174	-0.707174
C72	C	1.094915	0.827934	-0.497453
C73	C	1.157732	0.656696	-0.385400
C74	C	1.165655	0.635110	-0.455302
C75	C	1.064282	0.911441	0.106371
C76	C	1.055855	0.934412	0.180773
C77	C	1.321765	0.590699	-0.079012
C78	C	1.400726	0.504813	-0.067527
C79	C	1.017280	0.658376	0.140214
C80	C	0.992901	0.595459	0.226102
C81	C	1.296937	0.658381	0.140210
C82	C	1.367471	0.595466	0.226097
C83	C	0.881284	1.029137	-0.365912
C84	C	0.810750	1.092053	-0.451799
C85	C	0.856456	1.096819	-0.146690
C86	C	0.777495	1.182705	-0.158175
C87	C	1.160941	1.029142	-0.365917
C88	C	1.185320	1.092059	-0.451805
C89	C	1.388048	0.451260	-0.104948
C90	C	1.462235	0.370567	-0.094174
C91	C	1.549099	0.343424	-0.045975
C92	C	1.561777	0.396985	-0.008554
C93	C	1.487592	0.477681	-0.019333
C94	C	1.031212	0.579132	0.309250
C95	C	1.008303	0.520028	0.389956
C96	C	0.947088	0.477246	0.387513
C97	C	0.908773	0.493579	0.304356
C98	C	0.931677	0.552687	0.223651
C99	C	1.460061	0.552705	0.223622
C100	C	1.526347	0.493598	0.304313
C101	C	1.500040	0.477248	0.387479
C102	C	1.407441	0.520017	0.389951
C103	C	1.341158	0.579128	0.309260
C104	C	0.718162	1.134823	-0.449325
C105	C	0.651881	1.193955	-0.530020
C106	C	0.678189	1.210309	-0.613187
C107	C	0.770786	1.167535	-0.615658
C108	C	0.837067	1.108411	-0.534965
C109	C	0.790175	1.236264	-0.120763
C110	C	0.715994	1.316974	-0.131559
C111	C	0.629131	1.344119	-0.179761
C112	C	0.616452	1.290555	-0.217178
C113	C	0.690634	1.209851	-0.206388
C114	C	1.246538	1.134823	-0.449332
C115	C	1.269462	1.193932	-0.530025
C116	C	1.231162	1.210281	-0.613190
C117	C	1.169941	1.167510	-0.615660
C118	C	1.147023	1.108396	-0.534967
H119	H	1.132631	0.473332	-0.144196
H120	H	1.138762	1.180831	-0.683384
C121	C	1.031310	1.001332	-0.602524
N122	N	1.024758	1.019223	-0.544608
C123	C	0.885720	1.206426	-0.067741
N124	N	0.957685	1.183961	-0.027808
C125	C	1.489022	0.570682	0.132146
N126	N	1.510844	0.584224	0.063249
H127	H	1.288512	0.312637	-0.256444
H128	H	1.194249	0.409821	-0.188566
H129	H	1.066113	0.906434	-0.514623
C130	C	0.605265	1.275343	-0.701943
N131	N	0.550334	1.324322	-0.768791
C132	C	0.689203	1.116854	-0.357851
N133	N	0.667384	1.103330	-0.288956
C134	C	1.572963	0.412214	0.476236
N135	N	1.627892	0.363225	0.543085
H136	H	1.261312	0.166230	-0.236855
C137	C	0.889536	0.570627	0.132193
N138	N	0.857792	0.584134	0.063308
C139	C	0.921911	0.412217	0.476301
N140	N	0.902956	0.363232	0.543180
H141	H	1.317328	0.473354	-0.144207
H142	H	0.545719	1.312669	-0.256425
C143	C	0.973664	1.158459	-0.793588
N144	N	0.944364	1.238342	-0.811057
H145	H	1.081057	0.613961	0.311256
C146	C	1.448267	0.311656	-0.135335
N147	N	1.437743	0.267285	-0.166334
C148	C	1.336802	1.240977	-0.527288
N149	N	1.387521	1.276410	-0.525224
H150	H	0.680296	1.166245	-0.236852
H151	H	1.277731	1.121524	-0.381623
H152	H	1.097171	1.073583	-0.536993
C153	C	1.050470	0.502064	0.481421
N154	N	1.082234	0.488533	0.550310
C155	C	1.185019	0.582294	-0.593002
N156	N	1.214316	0.502411	-0.575535
H157	H	0.998138	1.091733	-0.914382
C158	C	0.907584	0.232825	0.017949
N159	N	0.852162	0.210300	0.057958
C160	C	1.016658	0.120374	-0.060692
N161	N	1.004235	0.053517	-0.051762
C162	C	0.799709	1.185524	-0.707150
N163	N	0.821489	1.199069	-0.776063
C164	C	0.870570	0.367117	0.044514
N165	N	0.815098	0.344628	0.084454
C166	C	1.256380	1.275312	-0.701947
N167	N	1.275377	1.324296	-0.768796
H168	H	1.125122	0.745605	-0.764099
H169	H	1.601740	0.458779	0.302284
H170	H	0.916892	0.521291	0.011151
H171	H	0.726334	1.360574	-0.101084
C172	C	1.657333	0.367109	0.044472
N173	N	1.729307	0.344599	0.084417
C174	C	1.204556	0.529059	-0.432131
N175	N	1.233854	0.449181	-0.414679
C176	C	1.378516	0.502014	0.481445
N177	N	1.356731	0.488445	0.550361
H178	H	1.265767	0.613937	0.311288
C179	C	1.630695	0.254648	-0.034118
N180	N	1.692148	0.187778	-0.025187
H181	H	0.576488	1.228773	-0.527990
H182	H	0.568735	1.409835	-0.188541
C183	C	0.841441	0.446505	0.301685
N184	N	0.790731	0.411042	0.299676
H185	H	1.180080	0.595768	-0.311317
H186	H	0.912455	1.073584	-0.536989
H187	H	1.497926	0.521276	0.011146
