data_functionalizedCrystal
_audit_creation_method	'MofGen! by Chris Wilmer'
_symmetry_space_group_name_H-M	'P1'
_symmetry_Int_Tables_number	1
_symmetry_cell_setting	triclinic
loop_
_symmetry_equiv_pos_as_xyz
  x,y,z
_cell_length_a	15.944551
_cell_length_b	14.044220
_cell_length_c	13.101039
_cell_angle_alpha	86.332523
_cell_angle_beta	93.353409
_cell_angle_gamma	88.343808
loop_
_atom_site_label
_atom_site_type_symbol
_atom_site_fract_x
_atom_site_fract_y
_atom_site_fract_z
O1	O	-1.127901	-0.117026	-0.085109
O2	O	-0.627901	0.382974	0.414891
O3	O	-0.884482	-0.132096	-0.085135
O4	O	-0.384482	0.367904	0.414865
O5	O	-1.002537	0.013423	-0.085112
O6	O	-0.502537	0.513423	0.414888
O7	O	-1.009846	-0.262545	-0.085132
O8	O	-0.509846	0.237455	0.414868
O9	O	-0.994068	0.002965	0.085316
O10	O	-0.494068	0.502965	0.585316
O11	O	-0.876013	-0.142555	0.085293
O12	O	-0.376013	0.357445	0.585293
O13	O	-1.119432	-0.127484	0.085319
O14	O	-0.619432	0.372516	0.585319
Zn15	Zn	-0.996378	-0.136680	0.112365
Zn16	Zn	-0.496378	0.363320	0.612365
Zn17	Zn	-1.007536	-0.122901	-0.112181
Zn18	Zn	-0.507536	0.377099	0.387819
O19	O	-1.001377	-0.273003	0.085296
O20	O	-0.501377	0.226997	0.585296
C21	C	-0.848906	-0.136700	0.000076
C22	C	-0.348906	0.363300	0.500076
C23	C	-0.755520	-0.134823	0.000066
C24	C	-0.255520	0.365177	0.500066
C25	C	-0.995104	0.043509	0.000102
C26	C	-0.495104	0.543509	0.500102
C27	C	-0.985563	0.148735	0.000102
C28	C	-0.485563	0.648735	0.500102
C29	C	-1.155008	-0.122881	0.000106
C30	C	-0.655008	0.377119	0.500106
C31	C	-1.248394	-0.124757	0.000109
C32	C	-0.748394	0.375243	0.500109
C33	C	-0.533573	-0.040140	0.000093
C34	C	-0.033573	0.459860	0.500093
C35	C	-0.480021	-0.078952	-0.083940
C36	C	0.019979	0.421048	0.416060
C37	C	-0.584540	-0.131430	0.000079
C38	C	-0.084540	0.368570	0.500079
C39	C	-0.471695	-0.089285	0.084089
C40	C	0.028305	0.410715	0.584089
C41	C	-0.419380	-0.128147	0.000095
C42	C	0.080620	0.371853	0.500095
C43	C	-0.532221	-0.170263	-0.084024
C44	C	-0.032221	0.329737	0.415976
C45	C	-0.523897	-0.180587	0.084080
C46	C	-0.023897	0.319413	0.584080
C47	C	-0.470369	-0.219464	0.000027
C48	C	0.029631	0.280536	0.500027
C49	C	-0.679684	-0.133319	0.000068
C50	C	-0.179684	0.366681	0.500068
C51	C	-0.324238	-0.126264	0.000098
C52	C	0.175762	0.373736	0.500098
C53	C	-1.008810	-0.303089	0.000080
C54	C	-0.508810	0.196911	0.500080
C55	C	-1.018352	-0.408315	0.000073
C56	C	-0.518352	0.091685	0.500073
N57	N	-0.988769	-0.146083	0.265612
N58	N	-0.488769	0.353917	0.765612
C59	C	-0.968120	0.341399	0.000085
C60	C	-0.468120	0.841399	0.500085
C61	C	-1.035791	0.399027	0.000090
C62	C	-0.535791	0.899027	0.500090
C63	C	-1.026085	0.506232	0.000080
C64	C	-0.526085	1.006232	0.500080
C65	C	-0.977824	0.234184	0.000095
C66	C	-0.477824	0.734184	0.500095
N67	N	-1.015152	-0.113490	-0.265428
N68	N	-0.515152	0.386510	0.234572
C69	C	-0.978417	-0.158885	0.474653
C70	C	-0.478417	0.341115	0.974653
C71	C	-1.025501	-0.100691	0.525538
C72	C	-0.525501	0.399309	1.025538
C73	C	-1.019741	-0.107814	0.641855
C74	C	-0.519741	0.392186	1.141855
C75	C	-0.984176	-0.151763	0.358325
C76	C	-0.484176	0.348237	0.858325
H77	H	-0.460550	-0.035980	-0.154979
H78	H	0.039450	0.464020	0.345021
N79	N	-0.438426	-0.046295	0.173202
N80	N	0.061574	0.453705	0.673202
N81	N	-0.395994	0.026874	0.163869
N82	N	0.104006	0.526874	0.663869
H83	H	-0.372499	0.057242	0.226801
H84	H	0.127501	0.557242	0.726801
H85	H	-1.070137	-0.045520	0.481744
H86	H	-0.570137	0.454480	0.981744
H87	H	-0.933784	-0.214053	0.518441
H88	H	-0.433784	0.285947	1.018441
N89	N	-0.886308	0.380516	0.000070
N90	N	-0.386308	0.880516	0.500070
N91	N	-0.878442	0.468812	0.000063
N92	N	-0.378442	0.968812	0.500063
H93	H	-0.820663	0.496450	0.000055
H94	H	-0.320663	0.996450	0.500055
N95	N	-0.568236	0.054928	-0.000010
N96	N	-0.068236	0.554928	0.499990
N97	N	-0.556125	0.114479	-0.072271
N98	N	-0.056125	0.614479	0.427729
H99	H	-0.580606	0.181621	-0.072348
H100	H	-0.080606	0.681621	0.427652
N101	N	-0.565358	-0.213211	-0.173228
N102	N	-0.065358	0.286789	0.326772
N103	N	-0.642913	-0.221559	-0.187642
N104	N	-0.142913	0.278441	0.312358
H105	H	-0.666318	-0.251896	-0.250638
H106	H	-0.166318	0.248104	0.249362
N107	N	-0.435892	-0.314597	-0.000067
N108	N	0.064108	0.185403	0.499933
N109	N	-0.392580	-0.337748	-0.071594
N110	N	0.107420	0.162252	0.428406
H111	H	-0.368229	-0.404934	-0.071671
H112	H	0.131771	0.095066	0.428329
N113	N	-0.548342	-0.234450	0.173208
N114	N	-0.048342	0.265550	0.673208
N115	N	-0.527406	-0.208686	0.260399
N116	N	-0.027406	0.291314	0.760399
H117	H	-0.544670	-0.246721	0.323355
H118	H	-0.044670	0.253279	0.823355
H119	H	-1.101018	0.367856	0.000028
H120	H	-0.601018	0.867856	0.500028
