data_functionalizedCrystal
_audit_creation_method	'MofGen! by Chris Wilmer'
_symmetry_space_group_name_H-M	'P1'
_symmetry_Int_Tables_number	1
_symmetry_cell_setting	triclinic
loop_
_symmetry_equiv_pos_as_xyz
  x,y,z
_cell_length_a	11.792254
_cell_length_b	16.109317
_cell_length_c	14.586319
_cell_angle_alpha	89.998916
_cell_angle_beta	89.996031
_cell_angle_gamma	96.166594
loop_
_atom_site_label
_atom_site_type_symbol
_atom_site_fract_x
_atom_site_fract_y
_atom_site_fract_z
O1	O	0.145973	-1.103814	-0.076143
O2	O	0.164109	-0.861840	-0.076166
O3	O	-0.010179	-0.988694	-0.076148
O4	O	0.320262	-0.976960	-0.076162
O5	O	-0.010182	-0.988685	0.076333
O6	O	0.164106	-0.861831	0.076315
O7	O	0.145971	-1.103805	0.076338
Cu8	Cu	0.155038	-0.982817	0.090249
Cu9	Cu	0.155041	-0.982828	-0.090077
O10	O	0.320259	-0.976952	0.076319
C11	C	0.163370	-0.830857	0.000071
C12	C	0.161158	-0.738552	0.000062
C13	C	0.154014	-0.439449	-0.083044
C14	C	0.156085	-0.526181	-0.083048
C15	C	0.156067	-0.526190	0.083195
C16	C	0.153987	-0.439461	0.083198
C17	C	0.152967	-0.396092	0.000076
C18	C	0.157117	-0.569552	0.000069
C19	C	0.159363	-0.663590	0.000065
C20	C	0.150719	-0.302049	0.000079
C21	C	-0.052465	-0.987950	0.000092
C22	C	-0.178459	-0.985738	0.000091
C23	C	-0.280780	-0.983940	0.000088
C24	C	-0.409147	-0.981693	0.000079
C25	C	0.362545	-0.977695	0.000077
C26	C	0.488539	-0.979907	0.000072
N27	N	0.155036	-0.982816	0.217081
C28	C	0.146711	-0.134788	0.000093
C29	C	0.148927	-0.227092	0.000082
N30	N	0.155035	-0.982836	-0.216909
C31	C	0.077887	-1.039006	0.452095
C32	C	0.077884	-1.039008	0.548077
C33	C	0.232188	-0.926640	0.548069
C34	C	0.232184	-0.926634	0.452090
C35	C	0.155035	-0.982822	0.404105
C36	C	0.155036	-0.982830	0.596066
C37	C	0.155033	-0.982832	0.700133
C38	C	0.155036	-0.982819	0.300032
H39	H	0.156900	-0.561510	0.150870
H40	H	0.153181	-0.404142	-0.150728
C41	C	0.157281	-0.573098	-0.173390
C42	C	0.155970	-0.516549	-0.246178
C43	C	0.157084	-0.559737	-0.329418
H44	H	0.091964	-0.612970	-0.176981
H45	H	0.224262	-0.600873	-0.176894
H46	H	0.088996	-0.488788	-0.242676
H47	H	0.221282	-0.476675	-0.242617
H48	H	0.224066	-0.587512	-0.332922
H49	H	0.091766	-0.599608	-0.332999
H50	H	0.156206	-0.521374	-0.378814
H51	H	0.153134	-0.404159	0.150888
C52	C	-0.006008	-1.100037	0.400163
C53	C	-0.073593	-1.149225	0.462739
C54	C	-0.150904	-1.205448	0.414935
H55	H	0.034698	-1.134908	0.362712
H56	H	-0.053332	-1.069934	0.362747
H57	H	-0.026276	-1.179326	0.500139
H58	H	-0.114324	-1.114377	0.500191
H59	H	-0.198227	-1.175345	0.377519
H60	H	-0.110188	-1.240313	0.377486
H61	H	-0.196776	-1.238823	0.457385
C62	C	-0.006007	-1.099876	0.600228
C63	C	-0.075529	-1.055281	0.655317
C64	C	-0.152837	-1.111326	0.703362
H65	H	0.034704	-1.134691	0.637742
H66	H	-0.052017	-1.133324	0.557930
H67	H	-0.029524	-1.021848	0.697610
H68	H	-0.116265	-1.020470	0.617826
H69	H	-0.198848	-1.144774	0.661063
H70	H	-0.112117	-1.146138	0.740870
H71	H	-0.200024	-1.081077	0.740738
C72	C	0.315905	-0.865738	0.600335
C73	C	0.299421	-0.877784	0.694662
C74	C	0.376534	-0.821705	0.742835
H75	H	0.303630	-0.810159	0.584723
H76	H	0.391680	-0.875118	0.584649
H77	H	0.223664	-0.868397	0.710342
H78	H	0.311705	-0.933351	0.710302
H79	H	0.452309	-0.831085	0.727149
H80	H	0.364253	-0.766129	0.727215
H81	H	0.365367	-0.829875	0.806841
C82	C	0.316079	-0.865595	0.400145
C83	C	0.383671	-0.816409	0.462708
C84	C	0.460970	-0.760179	0.414890
H85	H	0.275363	-0.830724	0.362706
H86	H	0.363399	-0.895693	0.362716
H87	H	0.336358	-0.786313	0.500121
H88	H	0.424412	-0.851258	0.500149
H89	H	0.508289	-0.790277	0.377461
H90	H	0.420244	-0.725314	0.377453
H91	H	0.506846	-0.726805	0.457332
