data_functionalizedCrystal
_audit_creation_method	'MofGen! by Chris Wilmer'
_symmetry_space_group_name_H-M	'P1'
_symmetry_Int_Tables_number	1
_symmetry_cell_setting	triclinic
loop_
_symmetry_equiv_pos_as_xyz
  x,y,z
_cell_length_a	17.917603
_cell_length_b	14.395555
_cell_length_c	14.395555
_cell_angle_alpha	89.998937
_cell_angle_beta	57.013199
_cell_angle_gamma	63.035279
loop_
_atom_site_label
_atom_site_type_symbol
_atom_site_fract_x
_atom_site_fract_y
_atom_site_fract_z
Zr1	Zr	0.818671	0.941234	-0.168341
O2	O	0.974685	0.801749	-0.325493
O3	O	0.662648	0.977866	-0.114036
O4	O	0.818668	0.986704	-0.316668
O5	O	0.818671	0.792910	0.030005
O6	O	0.818676	1.139570	-0.316678
O7	O	0.818665	0.792911	-0.122862
O8	O	0.539585	1.123760	0.045793
O9	O	1.097762	0.808720	-0.332466
O10	O	0.726832	1.114975	-0.098289
O11	O	0.726830	1.000892	0.015802
O12	O	0.910524	1.011297	-0.222771
O13	O	0.910522	0.897214	-0.108680
Zr14	Zr	0.818693	1.185037	0.075447
Zr15	Zr	0.818684	1.185038	-0.168358
Zr16	Zr	0.818680	0.941233	0.075464
Zr17	Zr	1.014965	0.952352	-0.179461
Zr18	Zr	0.622399	1.173919	0.086568
O19	O	0.974716	1.148405	0.021142
O20	O	0.974703	1.148407	-0.325517
O21	O	0.974698	0.801747	0.021166
O22	O	0.662679	1.324522	0.232600
O23	O	0.662666	1.324523	-0.114060
O24	O	0.662661	0.977864	0.232624
O25	O	0.818693	1.333360	-0.122899
O26	O	0.818696	1.139567	0.223774
O27	O	0.818688	0.986701	0.223784
O28	O	0.818699	1.333360	0.029968
O29	O	1.097772	1.002512	-0.332479
O30	O	0.539592	1.123759	0.239586
O31	O	0.539602	1.317551	0.239572
O32	O	0.539595	1.317552	0.045780
O33	O	1.097769	0.808719	-0.138673
O34	O	1.097779	1.002511	-0.138687
O35	O	0.726840	1.114973	0.129877
O36	O	0.726842	1.229056	0.015786
O37	O	0.910534	1.125379	-0.108696
O38	O	0.910532	1.011296	0.005395
C39	C	0.573149	1.049229	-0.032537
C40	C	0.489817	1.044509	-0.027816
C41	C	0.337248	1.035886	-0.019195
C42	C	0.300112	1.090382	-0.073696
C43	C	0.215216	1.085584	-0.068899
C44	C	0.422150	1.040683	-0.023991
C45	C	0.818666	0.758174	-0.046426
C46	C	0.818661	0.654673	-0.046419
C47	C	0.718523	0.588692	0.021426
C48	C	0.768563	0.622400	-0.088658
C49	C	0.768594	0.622355	0.063647
C50	C	0.868745	0.503942	-0.156623
C51	C	0.868761	0.503899	-0.004239
C52	C	0.918875	0.537537	-0.114392
C53	C	1.064215	1.077042	-0.060357
C54	C	1.147547	1.081762	-0.065078
C55	C	0.818671	1.063137	-0.351410
C56	C	0.818667	1.063138	-0.454911
C57	C	0.818698	1.368097	-0.046468
C58	C	0.818703	1.471598	-0.046475
C59	C	0.718510	1.119673	-0.447627
C60	C	0.768575	1.015238	-0.543478
C61	C	0.768607	1.167546	-0.543489
C62	C	0.868732	0.958640	-0.549399
C63	C	0.868749	1.111025	-0.549395
C64	C	0.918887	1.006530	-0.645268
C65	C	0.818693	1.063134	0.258516
C66	C	0.818697	1.063133	0.362018
C67	C	0.573165	1.354190	-0.032558
C68	C	0.489839	1.452972	-0.027844
C69	C	0.573160	1.049227	0.272426
C70	C	0.489832	1.044507	0.380649
C71	C	0.573176	1.354189	0.272405
C72	C	0.489853	1.452970	0.380620
C73	C	1.064188	0.772082	-0.365299
C74	C	1.147511	0.673301	-0.473514
C75	C	1.064199	0.772080	-0.060336
C76	C	1.147525	0.673299	-0.065050
C77	C	1.064204	1.077043	-0.365320
C78	C	1.147532	1.081764	-0.473542
C79	C	0.450702	1.439811	-0.085187
C80	C	0.372419	1.532618	-0.080781
C81	C	0.333269	1.638584	-0.019025
C82	C	0.372412	1.651743	0.038319
C83	C	0.450699	1.558938	0.033905
C84	C	0.450706	1.101840	0.491027
C85	C	0.372422	1.097401	0.592722
C86	C	0.333260	1.035635	0.584037
C87	C	0.372394	0.978295	0.473646
C88	C	0.450682	0.982728	0.371953
C89	C	0.450725	1.558918	0.371885
C90	C	0.372446	1.651744	0.473555
C91	C	0.333291	1.638617	0.583959
C92	C	0.372427	1.532657	0.592692
C93	C	0.450710	1.439835	0.491023
C94	C	1.186648	0.567353	-0.464780
C95	C	1.264952	0.474529	-0.566451
C96	C	1.304111	0.487656	-0.676855
C97	C	1.264970	0.593615	-0.685587
C98	C	1.186673	0.686437	-0.583918
C99	C	1.186670	0.686460	-0.007718
C100	C	1.264974	0.593654	-0.012151
C101	C	1.304128	0.487688	-0.073911
C102	C	1.264980	0.474529	-0.131250
C103	C	1.186683	0.567334	-0.126822
C104	C	1.186669	1.143540	-0.464819
C105	C	1.264954	1.147997	-0.566495
C106	C	1.304106	1.090670	-0.676895
C107	C	1.264961	1.028892	-0.685615
C108	C	1.186672	1.024442	-0.583940
H109	H	0.633842	0.609296	0.078734
H110	H	0.482583	1.152136	0.498122
H111	H	0.305285	0.985630	0.031062
H112	H	0.269512	1.032034	0.666851
H113	H	0.482554	1.569669	0.080608
Cl114	Cl	0.703191	0.701309	-0.143788
H115	H	0.911046	1.151558	-0.550819
Cl116	Cl	1.314209	0.341306	-0.208880
Cl117	Cl	1.314154	1.225658	-0.555505
Cl118	Cl	0.703199	0.701242	0.207392
H119	H	0.340524	1.738033	0.088598
H120	H	1.296864	0.604290	-0.775491
H121	H	1.154815	0.974133	-0.591059
H122	H	1.154808	0.772702	-0.591043
Cl123	Cl	0.499940	1.575450	0.233104
H124	H	0.340496	0.928006	0.466592
H125	H	1.003648	0.958648	-0.729694
Cl126	Cl	0.349460	1.167979	-0.151298
Cl127	Cl	0.934080	0.424984	0.050931
H128	H	1.154813	0.556602	-0.173506
H129	H	0.340568	1.144098	0.682597
Cl130	Cl	0.934062	0.425287	-0.300433
H131	H	0.340589	1.738012	0.466424
Cl132	Cl	0.499854	0.910651	0.233196
H133	H	1.367854	1.094302	-0.759676
H134	H	1.296850	0.982219	-0.775516
H135	H	0.269547	1.714208	0.666736
H136	H	1.154769	0.556643	-0.374892
Cl137	Cl	1.049721	0.505404	-0.203120
H138	H	0.633821	1.167394	-0.363073
Cl139	Cl	1.402559	0.371029	-0.079462
Cl140	Cl	0.323222	1.516050	-0.152871
Cl141	Cl	0.703231	1.303873	-0.541196
Cl142	Cl	0.703220	0.952690	-0.541213
H143	H	0.340535	1.521986	0.682596
Cl144	Cl	0.934033	0.822241	-0.551826
Cl145	Cl	0.499884	1.306645	0.502025
H146	H	1.154797	0.772735	0.042581
Cl147	Cl	1.314137	0.341336	-0.555446
H148	H	1.367865	0.412065	-0.759632
H149	H	1.296835	0.604390	0.034546
H150	H	1.154804	1.190223	-0.374936
H151	H	0.482578	1.353537	-0.135489
Cl152	Cl	0.234847	1.755244	-0.013486
