data_functionalizedCrystal
_audit_creation_method	'MofGen! by Chris Wilmer'
_symmetry_space_group_name_H-M	'P1'
_symmetry_Int_Tables_number	1
_symmetry_cell_setting	triclinic
loop_
_symmetry_equiv_pos_as_xyz
  x,y,z
_cell_length_a	14.560438
_cell_length_b	23.096457
_cell_length_c	14.560438
_cell_angle_alpha	60.001650
_cell_angle_beta	90.001393
_cell_angle_gamma	60.001940
loop_
_atom_site_label
_atom_site_type_symbol
_atom_site_fract_x
_atom_site_fract_y
_atom_site_fract_z
Zr1	Zr	0.884778	0.633739	-0.120468
O2	O	0.738137	0.754523	-0.267110
O3	O	0.929728	0.512953	-0.075520
O4	O	0.929733	0.633739	-0.267115
O5	O	0.738132	0.633737	0.075624
O6	O	1.080871	0.633741	-0.267113
O7	O	0.738132	0.633737	-0.075515
O8	O	1.080863	0.417677	0.075615
O9	O	0.738141	0.849801	-0.267104
O10	O	1.061696	0.562636	-0.056342
O11	O	0.948903	0.562634	0.056450
O12	O	0.948909	0.704844	-0.169128
O13	O	0.836116	0.704843	-0.056336
Zr14	Zr	1.125826	0.633741	0.120586
Zr15	Zr	1.125826	0.633741	-0.120465
Zr16	Zr	0.884778	0.633739	0.120582
Zr17	Zr	0.884784	0.785696	-0.120458
Zr18	Zr	1.125820	0.481784	0.120575
O19	O	1.080876	0.754527	0.075638
O20	O	1.080876	0.754527	-0.267105
O21	O	0.738137	0.754523	0.075632
O22	O	1.272467	0.512957	0.267227
O23	O	1.272467	0.512957	-0.075515
O24	O	0.929728	0.512953	0.267222
O25	O	1.272472	0.633743	-0.075507
O26	O	1.080871	0.633741	0.267232
O27	O	0.929733	0.633739	0.267230
O28	O	1.272472	0.633743	0.075633
O29	O	0.929742	0.849803	-0.267101
O30	O	1.080863	0.417677	0.267218
O31	O	1.272464	0.417679	0.267221
O32	O	1.272464	0.417679	0.075618
O33	O	0.738141	0.849801	-0.075501
O34	O	0.929742	0.849803	-0.075498
O35	O	1.061696	0.562636	0.169245
O36	O	1.174488	0.562637	0.056453
O37	O	1.061701	0.704845	-0.056333
O38	O	0.948909	0.704844	0.056459
C39	C	0.703788	0.633737	0.000054
C40	C	0.601457	0.633736	0.000052
C41	C	1.005294	0.443665	0.000046
C42	C	1.005292	0.379155	0.000042
C43	C	0.612252	0.559506	0.058925
C44	C	0.516097	0.559510	0.058935
C45	C	0.398355	0.707980	-0.058810
C46	C	0.494509	0.707975	-0.058812
C47	C	0.680229	0.473787	0.126900
C48	C	0.584074	0.473791	0.126910
C49	C	1.064161	0.348854	-0.058839
C50	C	1.064172	0.288232	-0.058830
C51	C	1.005292	0.257924	0.000045
C52	C	0.946420	0.288228	0.058938
C53	C	0.946420	0.348844	0.058936
N54	N	0.909476	0.195527	-0.008121
N55	N	0.909478	0.137946	-0.008125
C56	C	1.005291	0.075292	0.000055
N57	N	1.101100	0.072401	0.008219
N58	N	1.101095	0.129990	0.008217
C59	C	1.005286	0.192196	0.000054
C60	C	1.064177	-0.020743	-0.058818
C61	C	1.064191	-0.081370	-0.058801
C62	C	0.946429	-0.081367	0.058959
C63	C	0.946426	-0.020746	0.058950
C64	C	1.005297	0.009565	0.000055
C65	C	1.306816	0.633743	0.000063
C66	C	1.409148	0.633744	0.000065
C67	C	1.005302	0.633740	-0.301458
C68	C	1.005302	0.633740	-0.403790
C69	C	1.005310	0.823815	0.000071
C70	C	1.005312	0.888325	0.000076
C71	C	0.946431	0.707972	-0.606894
C72	C	0.946427	0.707973	-0.510743
C73	C	1.064175	0.559502	-0.392991
C74	C	1.064172	0.559502	-0.489141
C75	C	0.878453	0.793691	-0.674876
C76	C	0.878450	0.793691	-0.578725
C77	C	1.005302	0.633740	0.301576
C78	C	1.005302	0.633740	0.403908
C79	C	1.306809	0.443668	0.000051
C80	C	1.409137	0.379159	0.000048
C81	C	1.005294	0.443664	0.301563
C82	C	1.005292	0.379155	0.403891
C83	C	1.306809	0.443668	0.301568
C84	C	1.409137	0.379159	0.403897
C85	C	0.703795	0.823812	-0.301451
C86	C	0.601467	0.888321	-0.403780
C87	C	0.703795	0.823812	0.000066
C88	C	0.601467	0.888321	0.000069
C89	C	1.005310	0.823816	-0.301446
C90	C	1.005312	0.888325	-0.403773
C91	C	1.398315	0.348864	-0.058841
C92	C	1.494455	0.288260	-0.058866
C93	C	1.601415	0.257947	0.000005
C94	C	1.612235	0.288248	0.058896
C95	C	1.516097	0.348855	0.058914
C96	C	1.064167	0.348861	0.510833
C97	C	1.064161	0.288255	0.606990
C98	C	1.005284	0.257941	0.596202
C99	C	0.946402	0.288241	0.489249
C100	C	0.946402	0.348849	0.393094
C101	C	1.516079	0.348866	0.393076
C102	C	1.612237	0.288261	0.489216
C103	C	1.601451	0.257947	0.596176
C104	C	1.494498	0.288246	0.606995
C105	C	1.398343	0.348854	0.510856
C106	C	0.494525	0.918622	-0.392959
C107	C	0.398368	0.979245	-0.489099
C108	C	0.409154	1.009562	-0.596059
C109	C	0.516106	0.979259	-0.606878
C110	C	0.612262	0.918641	-0.510739
C111	C	0.612289	0.918622	0.058949
C112	C	0.516149	0.979243	0.058947
C113	C	0.409189	1.009558	0.000072
C114	C	0.398369	0.979255	-0.058815
C115	C	0.494508	0.918639	-0.058819
C116	C	1.064200	0.918621	-0.392950
C117	C	1.064225	0.979227	-0.489088
C118	C	1.005354	1.009540	-0.596050
C119	C	0.946465	0.979239	-0.606871
C120	C	0.946447	0.918630	-0.510734
H121	H	0.485710	0.768421	-0.106748
C122	C	1.280709	0.382168	0.522779
N123	N	1.192108	0.407259	0.531767
C124	C	1.128974	0.885283	-0.275300
N125	N	1.177772	0.860172	-0.186690
C126	C	0.482633	0.885289	-0.275311
N127	N	0.473667	0.860192	-0.186701
C128	C	0.750753	0.429323	0.248518
N129	N	0.803870	0.395834	0.340118
H130	H	0.311292	1.003908	-0.480268
C131	C	1.729874	0.254935	0.477290
N132	N	1.818475	0.229834	0.468304
H133	H	0.791395	0.820300	-0.570008
H134	H	1.112101	0.373530	-0.106791
H135	H	1.112178	1.003892	-0.480255
C136	C	0.303368	1.076238	-0.701805
N137	N	0.223686	1.126454	-0.781449
C138	C	1.527971	0.382204	0.275428
N139	N	1.536938	0.407315	0.186818
H140	H	0.524875	1.003951	-0.693977
H141	H	0.699336	0.893971	-0.519563
H142	H	0.699373	0.893944	0.106899
H143	H	0.898481	0.263547	0.106875
C144	C	0.528077	1.012559	0.123740
N145	N	0.537063	1.037649	0.172545
H146	H	1.485732	0.263556	0.694095
C147	C	0.303444	1.076234	0.000094
N148	N	0.223801	1.126452	0.000118
C149	C	0.881645	0.382157	0.275459
N150	N	0.832868	0.407240	0.186858
C151	C	0.749013	0.437853	0.066298
N152	N	0.800822	0.410787	0.020652
C153	C	0.572296	0.437848	0.244517
N154	N	0.563423	0.410775	0.333097
C155	C	0.583949	0.429477	0.075608
N156	N	0.583815	0.396152	0.036895
C157	C	0.280702	1.012599	-0.123555
N158	N	0.192072	1.037709	-0.172306
H159	H	0.485680	0.893969	-0.106763
H160	H	1.005377	1.058892	-0.674322
C161	C	1.707236	0.191271	0.701922
N162	N	1.786918	0.141047	0.781566
H163	H	1.112104	0.499061	-0.305902
C164	C	0.756834	0.838146	-0.745387
N165	N	0.665233	0.871626	-0.798493
H166	H	1.112112	0.263557	-0.106778
H167	H	0.898479	0.373515	0.106884
C168	C	1.128951	0.254929	0.724628
N169	N	1.177756	0.229827	0.813231
H170	H	0.898534	1.003930	-0.693972
C171	C	1.280667	0.382202	-0.123617
N172	N	1.192057	0.407312	-0.172416
C173	C	0.881645	0.885323	-0.522659
N174	N	0.832829	0.860241	-0.531650
H175	H	0.311268	0.768423	-0.106736
C176	C	0.929556	0.838145	-0.578723
N177	N	0.968051	0.871624	-0.578720
H178	H	1.112118	0.003935	-0.106770
C179	C	0.881677	0.012577	0.123737
N180	N	0.832916	0.037669	0.172548
C181	C	0.939094	0.829592	-0.743645
N182	N	0.984785	0.856621	-0.795432
C183	C	1.482528	0.254933	-0.123642
N184	N	1.473541	0.229831	-0.172428
C185	C	0.881662	-0.114703	0.123724
N186	N	0.832879	-0.139816	0.172508
C187	C	1.707160	0.191271	-0.000017
N188	N	1.786803	0.141048	-0.000033
C189	C	1.729902	0.254889	0.123660
N190	N	1.818532	0.229756	0.172447
C191	C	1.005306	0.191261	0.701987
N192	N	1.005333	0.141035	0.781668
H193	H	1.112100	0.499055	-0.480337
H194	H	1.112136	-0.106044	-0.106744
H195	H	1.112112	0.373536	0.519638
H196	H	0.898466	0.263549	0.480482
H197	H	1.524924	0.373513	0.106876
