data_functionalizedCrystal
_audit_creation_method	'MofGen! by Chris Wilmer'
_symmetry_space_group_name_H-M	'P1'
_symmetry_Int_Tables_number	1
_symmetry_cell_setting	triclinic
loop_
_symmetry_equiv_pos_as_xyz
  x,y,z
_cell_length_a	14.044220
_cell_length_b	17.699083
_cell_length_c	16.176319
_cell_angle_alpha	90.001389
_cell_angle_beta	89.992517
_cell_angle_gamma	91.764054
loop_
_atom_site_label
_atom_site_type_symbol
_atom_site_fract_x
_atom_site_fract_y
_atom_site_fract_z
O1	O	0.119850	-1.012346	-0.068632
O2	O	0.135443	-0.793044	-0.068659
O3	O	-0.010330	-0.899403	-0.068638
O4	O	0.265624	-0.905987	-0.068653
O5	O	-0.010340	-0.899387	0.068855
O6	O	0.135434	-0.793027	0.068834
O7	O	0.119841	-1.012330	0.068861
Cu8	Cu	0.127637	-0.902677	0.081402
Cu9	Cu	0.127648	-0.902696	-0.081200
O10	O	0.265614	-0.905970	0.068840
C11	C	0.134880	-0.764800	0.000084
C12	C	0.133204	-0.680666	0.000074
C13	C	-0.045643	-0.896513	0.000109
C14	C	-0.150849	-0.887917	0.000109
C15	C	0.120404	-1.040574	0.000116
C16	C	0.122081	-1.124707	0.000121
C17	C	-0.343474	-0.872202	0.000095
C18	C	-0.401248	-0.933168	0.000100
C19	C	-0.508431	-0.924424	0.000092
C20	C	-0.236281	-0.880945	0.000102
C21	C	0.300927	-0.908860	0.000091
C22	C	0.406133	-0.917456	0.000086
N23	N	0.127628	-0.902668	0.195767
C24	C	0.218769	-0.637948	0.000069
C25	C	0.217189	-0.558895	0.000080
C26	C	0.130041	-0.522563	0.000089
C27	C	0.044469	-0.565287	0.000096
C28	C	0.046050	-0.644338	0.000092
C29	C	0.038089	-0.246484	0.000117
C30	C	0.036514	-0.167427	0.000120
C31	C	0.209227	-0.161041	0.000106
C32	C	0.210809	-0.240092	0.000101
C33	C	0.125237	-0.282809	0.000112
C34	C	0.126952	-0.368527	0.000102
C35	C	0.128325	-0.436847	0.000094
N36	N	0.127648	-0.902710	-0.195565
C37	C	0.063106	-0.949782	0.239041
C38	C	0.063105	-0.949786	0.325588
C39	C	0.127632	-0.902679	0.368860
C40	C	0.192157	-0.855561	0.325580
C41	C	0.192153	-0.855554	0.239034
C42	C	0.192175	-0.855588	0.674608
C43	C	0.192176	-0.855600	0.761160
C44	C	0.063127	-0.949820	0.761161
C45	C	0.063123	-0.949813	0.674616
C46	C	0.127644	-0.902692	0.631344
C47	C	0.127643	-0.902687	0.537500
C48	C	0.127638	-0.902687	0.462702
H49	H	-0.370212	-0.991930	0.000052
H50	H	-0.026488	-0.535699	0.000116
O51	O	-0.045005	-0.288008	0.000264
C52	C	-0.049259	-0.333942	0.071460
H53	H	-0.000737	-0.308308	0.121232
H54	H	-0.024858	-0.392994	0.055356
C55	C	-0.212010	-0.370459	0.042616
C56	C	-0.152420	-0.338971	0.103750
H57	H	-0.275644	-0.373564	0.062533
H58	H	-0.209143	-0.339515	-0.005352
H59	H	-0.191664	-0.419666	0.029202
H60	H	-0.172759	-0.289762	0.117156
H61	H	-0.155292	-0.369907	0.151721
H62	H	-0.023626	-0.679119	0.000095
H63	H	0.278904	-0.126251	0.000101
O64	O	0.000466	-0.995483	0.367751
C65	C	0.014315	-0.985401	0.453417
H66	H	0.049827	-0.927626	0.465240
H67	H	0.061787	-1.031440	0.477967
C68	C	-0.126269	-1.061202	0.483340
C69	C	-0.082661	-0.990239	0.497862
H70	H	-0.186087	-1.064190	0.510757
H71	H	-0.135598	-1.067997	0.425625
H72	H	-0.086700	-1.099560	0.503798
H73	H	-0.122224	-0.951884	0.477394
H74	H	-0.073340	-0.983438	0.555574
H75	H	-0.034456	-0.137848	0.000128
H76	H	0.010565	-0.988144	0.203814
H77	H	-0.374508	-0.813445	0.000085
H78	H	0.010583	-0.988174	0.639387
H79	H	0.289735	-0.667523	0.000061
H80	H	0.286865	-0.524117	0.000075
O81	O	0.000310	-0.995545	0.803108
C82	C	-0.093490	-0.976899	0.781987
H83	H	-0.093325	-0.947735	0.719151
H84	H	-0.122739	-0.937255	0.830702
C85	C	-0.156864	-1.085300	0.855165
C86	C	-0.156663	-1.049486	0.777986
H87	H	-0.195835	-1.130074	0.852700
H88	H	-0.093670	-1.097861	0.869398
H89	H	-0.181236	-1.052256	0.895753
H90	H	-0.132281	-1.082527	0.737402
H91	H	-0.219855	-1.036932	0.763746
O92	O	0.254890	-0.809763	0.803067
C93	C	0.311852	-0.768182	0.746317
H94	H	0.272996	-0.764700	0.684629
H95	H	0.382224	-0.797494	0.737099
C96	C	0.379223	-0.692144	0.855874
C97	C	0.331496	-0.687862	0.780110
H98	H	0.391345	-0.642600	0.876720
H99	H	0.340850	-0.720159	0.894109
H100	H	0.437861	-0.716574	0.848182
H101	H	0.272855	-0.663441	0.787805
H102	H	0.369860	-0.659841	0.741878
O103	O	0.295547	-0.275264	0.000129
C104	C	0.370733	-0.220607	0.000108
H105	H	0.344288	-0.165194	0.026141
H106	H	0.397125	-0.211217	-0.065855
C107	C	0.485413	-0.316503	0.022048
C108	C	0.452935	-0.248444	0.054030
H109	H	0.536122	-0.333674	0.055307
H110	H	0.434760	-0.353327	0.022059
H111	H	0.507400	-0.308668	-0.032920
H112	H	0.430939	-0.256282	0.108993
H113	H	0.503587	-0.211622	0.054029
H114	H	0.244712	-0.817222	0.639383
H115	H	0.244692	-0.817202	0.360817
H116	H	0.244692	-0.817188	0.203802
