data_functionalizedCrystal
_audit_creation_method	'MofGen! by Chris Wilmer'
_symmetry_space_group_name_H-M	'P1'
_symmetry_Int_Tables_number	1
_symmetry_cell_setting	triclinic
loop_
_symmetry_equiv_pos_as_xyz
  x,y,z
_cell_length_a	14.519709
_cell_length_b	14.853567
_cell_length_c	13.330367
_cell_angle_alpha	90.004582
_cell_angle_beta	90.001557
_cell_angle_gamma	96.342463
loop_
_atom_site_label
_atom_site_type_symbol
_atom_site_fract_x
_atom_site_fract_y
_atom_site_fract_z
O1	O	0.120405	-1.196416	-0.083340
O2	O	0.134748	-0.933962	-0.083356
O3	O	-0.006665	-1.072147	-0.083357
O4	O	0.261818	-1.058230	-0.083339
O5	O	-0.006668	-1.072127	0.083490
O6	O	0.134745	-0.933942	0.083491
O7	O	0.120402	-1.196395	0.083507
Cu8	Cu	0.127573	-1.065167	0.098734
Cu9	Cu	0.127577	-1.065190	-0.098582
O10	O	0.261814	-1.058210	0.083508
C11	C	-0.041026	-1.071488	0.000062
C12	C	-0.143407	-1.069545	0.000049
C13	C	0.134096	-0.900363	0.000066
C14	C	0.132149	-0.800278	0.000059
C15	C	0.296175	-1.058869	0.000087
C16	C	0.398556	-1.060812	0.000094
C17	C	0.773449	-1.067967	0.000054
C18	C	0.669142	-1.065980	0.000065
C19	C	0.586006	-1.064390	0.000075
C20	C	0.481692	-1.062403	0.000084
C21	C	0.121053	-1.229994	0.000083
C22	C	0.123001	-1.330079	0.000083
N23	N	0.127570	-1.065157	0.237515
C24	C	0.039914	-0.387709	0.000075
C25	C	0.207916	-0.366493	0.000085
C26	C	0.209747	-0.460527	0.000082
C27	C	0.126660	-0.518157	0.000074
C28	C	0.041743	-0.481752	0.000069
C29	C	0.294663	-0.496939	0.000077
C30	C	0.296498	-0.590979	0.000073
C31	C	0.213410	-0.648610	0.000072
C32	C	0.128489	-0.612200	0.000068
C33	C	0.045403	-0.669830	0.000060
C34	C	-0.039520	-0.633422	0.000064
C35	C	-0.041345	-0.539383	0.000069
C36	C	0.215235	-0.742649	0.000067
C37	C	0.047231	-0.763873	0.000054
N38	N	0.127572	-1.065208	-0.237364
C39	C	0.190170	-1.003999	0.710138
C40	C	0.064976	-1.126406	0.710106
C41	C	0.064974	-1.126396	0.605087
C42	C	0.127571	-1.065187	0.552590
C43	C	0.190170	-1.003989	0.605110
C44	C	0.002381	-1.187599	0.552559
C45	C	0.002376	-1.187592	0.447534
C46	C	0.064970	-1.126378	0.395034
C47	C	0.127572	-1.065177	0.447562
C48	C	0.190169	-1.003968	0.395064
C49	C	0.252767	-0.942762	0.447589
C50	C	0.252764	-0.942775	0.552611
C51	C	0.064973	-1.126365	0.290013
C52	C	0.190170	-1.003958	0.290036
H53	H	-0.020429	-0.810790	0.000051
H54	H	-0.107168	-0.680356	0.000050
Cl55	Cl	0.268858	-0.927054	0.776165
Cl56	Cl	0.321985	-0.788416	0.000055
Cl57	Cl	0.331463	-0.865823	0.381581
Cl58	Cl	0.399107	-0.424488	0.000071
Cl59	Cl	-0.066840	-0.341941	0.000085
H60	H	0.275561	-0.319566	0.000083
H61	H	0.014016	-1.176245	0.752853
Cl62	Cl	-0.013711	-1.203310	0.223988
H63	H	-0.048595	-1.237428	0.404774
Cl64	Cl	-0.076303	-1.264550	0.618553
H65	H	-0.110484	-0.509731	0.000095
Cl66	Cl	0.268863	-0.927001	0.224047
H67	H	0.365646	-0.620614	0.000070
H68	H	0.303730	-0.892944	0.595383
