data_functionalizedCrystal
_audit_creation_method	'MofGen! by Chris Wilmer'
_symmetry_space_group_name_H-M	'P1'
_symmetry_Int_Tables_number	1
_symmetry_cell_setting	triclinic
loop_
_symmetry_equiv_pos_as_xyz
  x,y,z
_cell_length_a	18.101398
_cell_length_b	21.295417
_cell_length_c	18.101389
_cell_angle_alpha	90.021518
_cell_angle_beta	90.009745
_cell_angle_gamma	90.025259
loop_
_atom_site_label
_atom_site_type_symbol
_atom_site_fract_x
_atom_site_fract_y
_atom_site_fract_z
Zn1	Zn	1.132128	-0.250750	0.418535
Zn2	Zn	1.132027	-0.356003	0.294686
Zn3	Zn	1.008287	-0.250744	0.294727
Zn4	Zn	1.008241	-0.355977	0.418506
O5	O	1.070171	-0.303369	0.356614
O6	O	1.235748	-0.264726	0.402101
O7	O	1.115590	-0.342049	0.191059
O8	O	1.024776	-0.162655	0.311179
O9	O	1.235673	-0.342055	0.311110
O10	O	1.115762	-0.162660	0.402140
O11	O	1.024678	-0.264715	0.191089
O12	O	0.904648	-0.264690	0.311152
O13	O	1.024698	-0.342010	0.522143
O14	O	0.904614	-0.342004	0.402092
O15	O	1.115717	-0.264700	0.522164
O16	O	1.115545	-0.444089	0.311083
O17	O	1.024600	-0.444070	0.402053
C18	C	0.877760	-0.303344	0.356624
C19	C	0.795446	-0.303348	0.356646
C20	C	0.496355	-0.303385	0.356615
C21	C	0.527684	-0.352265	0.413550
C22	C	0.613302	-0.352112	0.413784
C23	C	0.644738	-0.303368	0.356630
C24	C	0.613681	-0.237068	0.377962
C25	C	0.528036	-0.237361	0.378367
C26	C	0.527903	-0.320222	0.278211
C27	C	0.613553	-0.321676	0.278630
C28	C	0.728597	-0.303353	0.356638
C29	C	0.412496	-0.303395	0.356609
C30	C	1.070076	-0.466920	0.356576
C31	C	1.070104	-0.536888	0.356585
C32	C	1.117453	-0.569700	0.403982
C33	C	1.117479	-0.635443	0.404000
C34	C	1.070164	-0.668371	0.356608
C35	C	1.022806	-0.635551	0.309208
C36	C	1.022776	-0.569810	0.309196
N37	N	1.064571	-0.771624	0.291797
N38	N	1.064604	-0.834075	0.291810
C39	C	1.070250	-0.866445	0.356642
N40	N	1.075877	-0.834005	0.421461
N41	N	1.075848	-0.771548	0.421447
C42	C	1.070191	-0.739656	0.356616
C43	C	1.117630	-0.970543	0.404063
C44	C	1.117651	-1.036286	0.404082
C45	C	1.022982	-1.036394	0.309283
C46	C	1.022957	-0.970651	0.309270
C47	C	1.070285	-0.937730	0.356659
C48	C	1.263333	-0.303394	0.356604
C49	C	1.345647	-0.303405	0.356600
C50	C	1.070214	-0.303353	0.549776
C51	C	1.070232	-0.303346	0.632090
C52	C	1.070286	-0.139178	0.356668
C53	C	1.070335	-0.069210	0.356690
C54	C	1.070171	-0.303339	0.164203
C55	C	1.070296	-0.303168	0.081890
C56	C	1.070275	-0.303228	0.931181
C57	C	1.012811	-0.351714	0.899843
C58	C	1.012966	-0.351939	0.814224
C59	C	1.070253	-0.303286	0.782798
C60	C	1.148279	-0.321298	0.813883
C61	C	1.147959	-0.321617	0.899528
C62	C	1.050392	-0.236622	0.899615
C63	C	1.048656	-0.237006	0.813964
C64	C	1.070245	-0.303318	0.698939
C65	C	1.070288	-0.303197	1.015041
H66	H	0.633804	-0.340973	0.471876
O67	O	0.503606	-0.277802	0.227600
C68	C	0.425764	-0.278926	0.225145
H69	H	0.405015	-0.326146	0.246348
H70	H	0.402852	-0.239675	0.261329
C71	C	0.425199	-0.211394	0.118898
C72	C	0.399714	-0.269392	0.144935
H73	H	0.409129	-0.205510	0.069422
H74	H	0.477643	-0.210634	0.120553
H75	H	0.406104	-0.178691	0.149058
H76	H	0.418817	-0.302094	0.114780
H77	H	0.347273	-0.270157	0.143272
H78	H	0.994484	-0.220212	0.921216
H79	H	1.156208	-1.063001	0.442682
H80	H	0.508075	-0.223080	0.435684
H81	H	0.634299	-0.401277	0.400413
H82	H	0.954777	-0.340558	0.920444
O83	O	0.976978	-1.068439	0.263351
C84	C	0.929125	-1.106465	0.305490
H85	H	0.955219	-1.116272	0.361632
H86	H	0.874232	-1.081159	0.313585
C87	C	0.883709	-1.156894	0.195792
C88	C	0.915761	-1.168944	0.264745
H89	H	0.875461	-1.195433	0.170658
H90	H	0.915945	-1.131274	0.167402
H91	H	0.837967	-1.135804	0.202548
H92	H	0.961505	-1.190026	0.257988
H93	H	0.883531	-1.194569	0.293133
H94	H	0.984280	-0.662365	0.270623
H95	H	0.507070	-0.401591	0.400329
H96	H	1.192225	-0.287834	0.920259
H97	H	1.192244	-0.287093	0.793528
O98	O	0.976888	-0.938747	0.263327
C99	C	0.929026	-0.900722	0.305444
H100	H	0.924425	-0.920510	0.363772
H101	H	0.951899	-0.850880	0.308003
C102	C	0.857712	-0.875479	0.197565
C103	C	0.852056	-0.899786	0.269202
H104	H	0.810234	-0.874899	0.175208
H105	H	0.889959	-0.901095	0.169189
H106	H	0.876776	-0.833947	0.199707
H107	H	0.833001	-0.941320	0.267058
H108	H	0.819804	-0.874176	0.297577
H109	H	1.156165	-0.943737	0.442652
H110	H	1.165426	-0.369471	0.792433
H111	H	0.984217	-0.543094	0.270599
H112	H	1.155988	-0.542897	0.442571
H113	H	0.955107	-0.340667	0.793207
O114	O	0.980163	-0.220879	0.789631
C115	C	0.951844	-0.269308	0.744656
H116	H	0.999464	-0.298222	0.721411
H117	H	0.914291	-0.300882	0.778955
C118	C	0.848826	-0.204989	0.709144
C119	C	0.907314	-0.240498	0.680590
H120	H	0.821354	-0.187219	0.669627
H121	H	0.867903	-0.172362	0.739447
H122	H	0.817540	-0.231306	0.737727
H123	H	0.938603	-0.214180	0.652016
H124	H	0.888241	-0.273120	0.650281
O125	O	0.638067	-0.192513	0.329993
C126	C	0.683659	-0.220710	0.276261
H127	H	0.707062	-0.266496	0.298958
H128	H	0.649828	-0.230901	0.224495
C129	C	0.718806	-0.119658	0.228956
C130	C	0.747554	-0.175891	0.256836
H131	H	0.758218	-0.092011	0.216971
H132	H	0.688088	-0.100661	0.265155
H133	H	0.690613	-0.128159	0.185821
H134	H	0.775738	-0.167390	0.299975
H135	H	0.778279	-0.194886	0.220644
H136	H	1.025808	-0.400784	0.921362
O137	O	1.028582	-0.410874	0.789871
C138	C	0.974509	-0.452998	0.816102
H139	H	0.947257	-0.432594	0.867553
H140	H	0.930927	-0.460721	0.771538
C141	C	1.044599	-0.541205	0.772261
C142	C	1.011132	-0.516146	0.835457
H143	H	1.067188	-0.580159	0.784197
H144	H	1.081028	-0.512825	0.754586
H145	H	1.008275	-0.547635	0.735130
H146	H	1.047458	-0.509710	0.872583
H147	H	0.974710	-0.544527	0.853140
O148	O	1.168168	-0.379704	0.923272
C149	C	1.239582	-0.393767	0.896966
H150	H	1.251693	-0.364255	0.845849
H151	H	1.281981	-0.382706	0.941700
C152	C	1.229080	-0.500183	0.939632
C153	C	1.243953	-0.463939	0.876846
H154	H	1.231778	-0.543469	0.927225
H155	H	1.180968	-0.490708	0.957358
H156	H	1.264414	-0.490959	0.976905
H157	H	1.208613	-0.473158	0.839579
H158	H	1.292059	-0.473417	0.859113
O159	O	0.501990	-0.339042	0.482413
C160	C	0.455781	-0.285824	0.479359
H161	H	0.470096	-0.256774	0.428446
H162	H	0.395643	-0.301500	0.476044
C163	C	0.449624	-0.281439	0.611808
C164	C	0.467210	-0.245756	0.549279
H165	H	0.456670	-0.256724	0.654939
H166	H	0.480754	-0.317294	0.613867
H167	H	0.399510	-0.294500	0.609036
H168	H	0.517325	-0.232702	0.552048
H169	H	0.436088	-0.209898	0.547223
O170	O	1.095032	-0.191699	0.788410
C171	C	1.148250	-0.219063	0.741536
H172	H	1.154046	-0.271068	0.755267
H173	H	1.130062	-0.213622	0.681580
C174	C	1.216007	-0.122181	0.735911
C175	C	1.223129	-0.186053	0.752780
H176	H	1.262195	-0.101818	0.742844
H177	H	1.180151	-0.103744	0.767489
H178	H	1.200847	-0.117655	0.685948
H179	H	1.238280	-0.190578	0.802745
H180	H	1.258990	-0.204490	0.721211
H181	H	0.506291	-0.367740	0.258826
O182	O	0.637673	-0.379886	0.259335
C183	C	0.609359	-0.395821	0.189221
H184	H	0.557356	-0.367219	0.177908
H185	H	0.652514	-0.385132	0.145114
C186	C	0.654253	-0.501435	0.201391
C187	C	0.590378	-0.466309	0.187499
H188	H	0.642547	-0.544915	0.200326
H189	H	0.673331	-0.490698	0.248627
H190	H	0.690209	-0.492520	0.164632
H191	H	0.554426	-0.475218	0.224262
H192	H	0.571293	-0.477048	0.140269
H193	H	1.092246	-0.200497	0.919882
O194	O	0.639132	-0.282364	0.225250
C195	C	0.678767	-0.317194	0.172178
H196	H	0.699169	-0.362801	0.198048
H197	H	0.641133	-0.328416	0.123418
C198	C	0.720278	-0.222457	0.113353
C199	C	0.745342	-0.278470	0.145128
H200	H	0.761343	-0.198570	0.096664
H201	H	0.693573	-0.198991	0.149106
H202	H	0.688916	-0.231817	0.072724
H203	H	0.776695	-0.269110	0.185762
H204	H	0.772053	-0.301934	0.109381
O205	O	1.163538	-0.667228	0.450075
C206	C	1.205284	-0.624073	0.491918
H207	H	1.207855	-0.577223	0.461577
H208	H	1.178122	-0.617071	0.548137
C209	C	1.280944	-0.707220	0.539932
C210	C	1.284108	-0.649679	0.502664
H211	H	1.329566	-0.723016	0.546565
H212	H	1.252818	-0.736295	0.511744
H213	H	1.258306	-0.701377	0.586778
H214	H	1.306737	-0.655524	0.455817
H215	H	1.312240	-0.620606	0.530845
H216	H	0.507313	-0.199638	0.338801
H217	H	0.635146	-0.222528	0.434656
