data_functionalizedCrystal
_audit_creation_method	'MofGen! by Chris Wilmer'
_symmetry_space_group_name_H-M	'P1'
_symmetry_Int_Tables_number	1
_symmetry_cell_setting	triclinic
loop_
_symmetry_equiv_pos_as_xyz
  x,y,z
_cell_length_a	19.121275
_cell_length_b	19.121063
_cell_length_c	12.645323
_cell_angle_alpha	92.408124
_cell_angle_beta	92.418698
_cell_angle_gamma	89.926756
loop_
_atom_site_label
_atom_site_type_symbol
_atom_site_fract_x
_atom_site_fract_y
_atom_site_fract_z
Zn1	Zn	1.059831	-0.324804	-0.551992
Zn2	Zn	1.054732	-0.442046	-0.382584
Zn3	Zn	0.942592	-0.319831	-0.381972
Zn4	Zn	0.937561	-0.437005	-0.567026
O5	O	0.998679	-0.380921	-0.470893
O6	O	1.157256	-0.344548	-0.523484
O7	O	1.039827	-0.425861	-0.234159
O8	O	0.962384	-0.222387	-0.397978
O9	O	1.153509	-0.430684	-0.399020
O10	O	1.048519	-0.226041	-0.522891
O11	O	0.957439	-0.336071	-0.233710
O12	O	0.843823	-0.331183	-0.412556
O13	O	0.953810	-0.422093	-0.713375
O14	O	0.840127	-0.417271	-0.548514
O15	O	1.043641	-0.339660	-0.702330
O16	O	1.034949	-0.539481	-0.413598
O17	O	0.948865	-0.535777	-0.549107
C18	C	0.816539	-0.373141	-0.482101
C19	C	0.738618	-0.369829	-0.486921
C20	C	0.700059	-0.413047	-0.424279
C21	C	0.626844	-0.409935	-0.428822
C22	C	0.592189	-0.363602	-0.496004
C23	C	0.630752	-0.320382	-0.558653
C24	C	0.703966	-0.323498	-0.554115
C25	C	0.371228	-0.351958	-0.512960
C26	C	0.298009	-0.348844	-0.517492
C27	C	0.294106	-0.438399	-0.387662
C28	C	0.367322	-0.441507	-0.383124
C29	C	0.405879	-0.398290	-0.445778
C30	C	0.517351	-0.360419	-0.500647
C31	C	0.480715	-0.401477	-0.441139
C32	C	0.990826	-0.563067	-0.483072
C33	C	0.987531	-0.640992	-0.488313
C34	C	1.030838	-0.679508	-0.420278
C35	C	1.027743	-0.752727	-0.425213
C36	C	0.981337	-0.787429	-0.498180
C37	C	0.938029	-0.748908	-0.566223
C38	C	0.941128	-0.675691	-0.561292
C39	C	0.969740	-1.008404	-0.516601
C40	C	0.966642	-1.081627	-0.521525
C41	C	1.056357	-1.085441	-0.380515
C42	C	1.059449	-1.012222	-0.375586
C43	C	1.016144	-0.973707	-0.443633
C44	C	0.978171	-0.862271	-0.503225
C45	C	1.019314	-0.898867	-0.438593
C46	C	1.181531	-0.388733	-0.459643
C47	C	1.259451	-0.392062	-0.454849
C48	C	0.998733	-0.380869	-0.747392
C49	C	0.998756	-0.380847	-0.865219
C50	C	1.006581	-0.198065	-0.458690
C51	C	1.009949	-0.120143	-0.453489
C52	C	0.942087	-0.432444	-1.039725
C53	C	0.942218	-0.432717	-0.917174
C54	C	1.071764	-0.404048	-0.906523
C55	C	1.071451	-0.404373	-1.029162
C56	C	0.983129	-0.305779	-1.028607
C57	C	0.981461	-0.306154	-0.906132
C58	C	0.998668	-0.380924	-0.195465
C59	C	0.998789	-0.380755	-0.077616
H60	H	1.068623	-0.651259	-0.360856
Br61	Br	0.583720	-0.257507	-0.649841
H62	H	1.024466	-0.267230	-1.052484
Br63	Br	0.959061	-0.525243	-0.873157
Br64	Br	1.082295	-0.851771	-0.339576
H65	H	0.952061	-0.487613	-1.073441
H66	H	0.940386	-0.890533	-0.562632
H67	H	0.927750	-0.288715	-0.879375
Br68	Br	0.747085	-0.475928	-0.333095
Br69	Br	0.414351	-0.504365	-0.291905
H70	H	0.262706	-0.473584	-0.336654
H71	H	0.887980	-0.417834	-0.889612
Br72	Br	0.882357	-0.623418	-0.653637
Br73	Br	0.250977	-0.285953	-0.608663
Br74	Br	0.910968	-0.956144	-0.608951
H75	H	1.114961	-0.368530	-1.053737
Br76	Br	0.851402	-0.407825	-1.093099
Br77	Br	0.903648	-1.128722	-0.620541
H78	H	1.097236	-0.983969	-0.316171
Br79	Br	0.470312	-0.297542	-0.591825
Br80	Br	0.574518	-0.468575	-0.343778
H81	H	1.063007	-0.784084	-0.369810
Br82	Br	1.143841	-0.343515	-0.849442
Br83	Br	0.756295	-0.264847	-0.639139
H84	H	1.085096	-0.459275	-1.060417
Br85	Br	1.115129	-1.137714	-0.288176
H86	H	1.085706	-0.458394	-0.878423
Br87	Br	0.875056	-0.796003	-0.665260
H88	H	1.019996	-0.265353	-0.870410
Br89	Br	0.896219	-0.271555	-1.083516
H90	H	0.402612	-0.316768	-0.563978
H91	H	0.508934	-0.439205	-0.386446
