data_functionalizedCrystal
_audit_creation_method	'MofGen! by Chris Wilmer'
_symmetry_space_group_name_H-M	'P1'
_symmetry_Int_Tables_number	1
_symmetry_cell_setting	triclinic
loop_
_symmetry_equiv_pos_as_xyz
  x,y,z
_cell_length_a	23.532407
_cell_length_b	23.532357
_cell_length_c	12.503572
_cell_angle_alpha	93.494896
_cell_angle_beta	86.509276
_cell_angle_gamma	82.838485
loop_
_atom_site_label
_atom_site_type_symbol
_atom_site_fract_x
_atom_site_fract_y
_atom_site_fract_z
O1	O	0.758546	0.065828	-0.089198
O2	O	0.592682	0.075830	-0.089232
O3	O	0.680630	-0.012104	-0.089192
O4	O	0.670598	0.153762	-0.089238
O5	O	0.674015	-0.005480	0.089447
O6	O	0.586068	0.082454	0.089407
O7	O	0.751932	0.072452	0.089441
Cu8	Cu	0.668396	0.078058	0.105735
Cu9	Cu	0.676218	0.070224	-0.105526
O10	O	0.663984	0.160386	0.089401
C11	C	0.568159	0.078887	0.000084
C12	C	0.504943	0.078121	0.000072
C13	C	0.105830	0.125357	0.000108
C14	C	0.046429	0.124645	0.000115
O15	O	0.009676	0.168433	0.000141
N16	N	0.023812	0.072368	0.000127
C17	C	0.060598	0.020799	0.000144
O18	O	0.035906	-0.023732	0.000157
C19	C	0.119997	0.021512	0.000145
C20	C	0.142611	0.073792	0.000121
C21	C	0.128444	0.177633	0.000085
C22	C	0.187841	0.178343	0.000077
C23	C	0.224622	0.126778	0.000090
C24	C	0.202008	0.074503	0.000113
C25	C	0.156782	-0.030056	0.000170
C26	C	0.216184	-0.029340	0.000171
C27	C	0.238798	0.022940	0.000148
C28	C	0.298186	0.023648	0.000118
N29	N	0.320803	0.075926	0.000105
C30	C	0.284021	0.127491	0.000091
C31	C	-0.064144	0.019308	0.000144
C32	C	-0.123541	0.018595	0.000136
C33	C	-0.137706	0.122441	0.000108
C34	C	-0.078307	0.123153	0.000109
C35	C	-0.041527	0.071585	0.000131
C36	C	0.408759	0.128980	0.000072
C37	C	0.468161	0.129686	0.000059
C38	C	0.482320	0.025840	0.000092
C39	C	0.422924	0.025133	0.000099
C40	C	0.386143	0.076708	0.000093
O41	O	0.334974	-0.020116	0.000095
O42	O	0.308721	0.172015	0.000093
C43	C	0.677071	-0.030009	0.000131
C44	C	0.676317	-0.093227	0.000141
C45	C	0.675187	-0.488851	-0.097294
C46	C	0.674470	-0.548251	-0.097300
O47	O	0.677146	-0.582038	-0.180115
N48	N	0.670509	-0.574351	0.000074
C49	C	0.667259	-0.541048	0.097462
O50	O	0.663824	-0.568703	0.180286
C51	C	0.667972	-0.481649	0.097467
C52	C	0.671939	-0.455552	0.000086
C53	C	0.679154	-0.462754	-0.194667
C54	C	0.679872	-0.403359	-0.194661
C55	C	0.676623	-0.370060	-0.097281
C56	C	0.672657	-0.396157	0.000092
C57	C	0.664718	-0.448346	0.194853
C58	C	0.665431	-0.388943	0.194850
C59	C	0.669398	-0.362847	0.097469
C60	C	0.670127	-0.303463	0.097479
N61	N	0.674088	-0.277362	0.000104
C62	C	0.677336	-0.310661	-0.097276
C63	C	0.665761	-0.665790	0.097443
C64	C	0.665052	-0.725189	0.097439
C65	C	0.672263	-0.732387	-0.097323
C66	C	0.672976	-0.672988	-0.097318
C67	C	0.669722	-0.639690	0.000069
C68	C	0.678845	-0.185926	-0.097254
C69	C	0.679565	-0.126525	-0.097239
C70	C	0.672352	-0.119332	0.097523
C71	C	0.671634	-0.178727	0.097508
C72	C	0.674879	-0.212023	0.000111
O73	O	0.667451	-0.269639	0.180251
O74	O	0.680764	-0.282998	-0.180086
C75	C	0.776455	0.069394	0.000123
C76	C	0.839672	0.070160	0.000128
C77	C	0.667542	0.178290	0.000076
C78	C	0.668298	0.241508	0.000059
N79	N	0.662898	0.083567	0.254325
N80	N	0.681720	0.064710	-0.254116
C81	C	0.654811	0.091676	0.473437
C82	C	0.689805	0.056602	0.526780
C83	C	0.685305	0.061115	0.648701
C84	C	0.659310	0.087165	0.351504
H85	H	0.098502	0.219626	0.000078
H86	H	-0.141947	-0.023977	0.000138
H87	H	0.621475	0.125091	0.519329
Br88	Br	0.659682	-0.760599	0.229605
Br89	Br	0.358852	0.198974	0.000065
H90	H	0.486570	0.172260	0.000039
Br91	Br	0.218521	0.249299	0.000049
H92	H	0.512279	-0.016143	0.000099
H93	H	-0.059900	0.165725	0.000096
H94	H	0.723144	0.023186	0.480882
H95	H	0.663114	-0.638682	0.176752
Br96	Br	0.659332	-0.483747	0.327022
H97	H	-0.167665	0.164428	0.000102
Br98	Br	0.661015	-0.343755	0.327025
H99	H	-0.034199	-0.022688	0.000153
Br100	Br	0.126108	-0.101013	0.000178
H101	H	0.669710	-0.092210	0.176807
Br102	Br	0.266098	-0.099329	0.000208
H103	H	0.404511	-0.017438	0.000103
H104	H	0.682797	-0.105281	-0.176542
H105	H	0.681484	-0.213028	-0.176564
H106	H	0.674905	-0.759510	-0.176615
H107	H	0.683100	-0.382116	-0.273958
Br108	Br	0.678359	-0.637578	-0.229482
Br109	Br	0.683562	-0.507935	-0.326844
Br110	Br	0.666264	-0.214147	0.229669
