data_functionalizedCrystal
_audit_creation_method	'MofGen! by Chris Wilmer'
_symmetry_space_group_name_H-M	'P1'
_symmetry_Int_Tables_number	1
_symmetry_cell_setting	triclinic
loop_
_symmetry_equiv_pos_as_xyz
  x,y,z
_cell_length_a	13.262390
_cell_length_b	11.792254
_cell_length_c	10.268362
_cell_angle_alpha	89.998994
_cell_angle_beta	74.077626
_cell_angle_gamma	84.320360
loop_
_atom_site_label
_atom_site_type_symbol
_atom_site_fract_x
_atom_site_fract_y
_atom_site_fract_z
O1	O	1.393587	0.152844	-0.601930
O2	O	1.088090	0.169472	-0.493721
O3	O	1.248245	-0.004026	-0.550440
O4	O	1.233432	0.326342	-0.545211
O5	O	1.248228	-0.004018	-0.333833
O6	O	1.088073	0.169480	-0.277115
O7	O	1.393570	0.152851	-0.385323
Cu8	Cu	1.240820	0.161166	-0.311441
Cu9	Cu	1.240840	0.161157	-0.567603
O10	O	1.233415	0.326350	-0.328605
C11	C	1.048971	0.168545	-0.371565
C12	C	0.932435	0.165758	-0.330286
C13	C	0.603982	0.157869	-0.686239
C14	C	0.713475	0.160482	-0.725024
C15	C	0.768220	0.161801	-0.626343
C16	C	0.713462	0.160507	-0.488870
C17	C	0.603960	0.157884	-0.450081
C18	C	0.768198	0.161817	-0.390186
C19	C	0.713440	0.160522	-0.252712
C20	C	0.603948	0.157901	-0.213930
C21	C	0.549203	0.156581	-0.312612
C22	C	0.877700	0.164439	-0.428974
C23	C	0.877677	0.164455	-0.192817
C24	C	0.768185	0.161842	-0.154031
C25	C	1.247303	-0.046311	-0.441806
C26	C	1.244510	-0.172319	-0.440818
C27	C	1.242241	-0.274651	-0.440019
C28	C	1.239403	-0.403032	-0.439026
C29	C	1.432689	0.153778	-0.507483
C30	C	1.549225	0.156566	-0.548769
C31	C	1.234356	0.368635	-0.437241
C32	C	1.237149	0.494642	-0.438238
N33	N	1.240813	0.161172	-0.131273
C34	C	1.240820	0.161174	-0.013433
C35	C	1.240832	0.161165	0.134401
N36	N	1.240847	0.161151	0.252228
H37	H	0.460044	0.154457	-0.281039
H38	H	0.559369	0.156826	-0.101992
N39	N	0.880042	0.164658	-0.665800
N40	N	0.938232	0.086059	-0.633596
H41	H	1.017202	0.088153	-0.661414
H42	H	0.758052	0.161530	-0.836955
H43	H	0.922273	0.165496	-0.540906
N44	N	0.712228	0.160523	-0.013616
N45	N	0.614464	0.158188	0.020990
H46	H	0.574943	0.157258	0.120158
H47	H	0.922251	0.165528	-0.112462
H48	H	0.559400	0.156783	-0.766571
