data_functionalizedCrystal
_audit_creation_method	'MofGen! by Chris Wilmer'
_symmetry_space_group_name_H-M	'P1'
_symmetry_Int_Tables_number	1
_symmetry_cell_setting	triclinic
loop_
_symmetry_equiv_pos_as_xyz
  x,y,z
_cell_length_a	11.169417
_cell_length_b	16.625545
_cell_length_c	16.625539
_cell_angle_alpha	90.026243
_cell_angle_beta	90.013727
_cell_angle_gamma	90.026437
loop_
_atom_site_label
_atom_site_type_symbol
_atom_site_fract_x
_atom_site_fract_y
_atom_site_fract_z
Zn1	Zn	1.834763	-0.320996	0.455839
Zn2	Zn	2.168097	0.012337	0.789172
Zn3	Zn	2.501430	0.345671	1.122506
Zn4	Zn	1.834621	-0.455835	0.321007
Zn5	Zn	2.167954	-0.122502	0.654340
Zn6	Zn	2.501287	0.210832	0.987673
Zn7	Zn	1.634070	-0.321022	0.321027
Zn8	Zn	1.967404	0.012311	0.654361
Zn9	Zn	2.300737	0.345645	0.987694
Zn10	Zn	1.634003	-0.455793	0.455804
Zn11	Zn	1.967337	-0.122459	0.789138
Zn12	Zn	2.300670	0.210874	1.122471
O13	O	1.734364	-0.388411	0.388419
O14	O	2.067698	-0.055078	0.721753
O15	O	2.401031	0.278255	1.055086
O16	O	2.002694	-0.338890	0.437959
O17	O	2.336027	-0.005556	0.771292
O18	O	2.669361	0.327777	1.104626
O19	O	1.807986	-0.437980	0.208177
O20	O	2.141319	-0.104647	0.541510
O21	O	2.474652	0.228686	0.874843
O22	O	1.660780	-0.208186	0.338933
O23	O	1.994114	0.125147	0.672267
O24	O	2.327447	0.458480	1.005600
O25	O	2.002589	-0.437955	0.338898
O26	O	2.335923	-0.104622	0.672231
O27	O	2.669256	0.228712	1.005565
O28	O	1.808229	-0.208167	0.437979
O29	O	2.141562	0.125166	0.771312
O30	O	2.474895	0.458499	1.104646
O31	O	1.660642	-0.338934	0.208192
O32	O	1.993976	-0.005600	0.541525
O33	O	2.327309	0.327733	0.874859
O34	O	1.466112	-0.338893	0.338900
O35	O	1.799445	-0.005559	0.672233
O36	O	2.132778	0.327774	1.005566
O37	O	1.660666	-0.437883	0.568641
O38	O	1.993999	-0.104550	0.901975
O39	O	2.327333	0.228784	1.235308
O40	O	1.466062	-0.437908	0.437920
O41	O	1.799396	-0.104575	0.771253
O42	O	2.132729	0.228759	1.104587
O43	O	1.808163	-0.338849	0.568667
O44	O	2.141497	-0.005515	0.902000
O45	O	2.474830	0.327818	1.235333
O46	O	1.807920	-0.568662	0.338865
O47	O	2.141254	-0.235328	0.672198
O48	O	2.474587	0.098005	1.005531
O49	O	1.660528	-0.568631	0.437900
O50	O	1.993861	-0.235297	0.771233
O51	O	2.327194	0.098036	1.104567
C52	C	1.422540	-0.388399	0.388409
C53	C	1.755873	-0.055066	0.721742
C54	C	2.089206	0.278267	1.055075
C55	C	1.289140	-0.388413	0.388424
C56	C	1.622473	-0.055080	0.721757
C57	C	1.955806	0.278253	1.055090
C58	C	1.734234	-0.597902	0.388394
C59	C	2.067567	-0.264569	0.721727
C60	C	2.400901	0.068764	1.055060
C61	C	1.734288	-0.687523	0.388410
C62	C	2.067621	-0.354190	0.721743
C63	C	2.400955	-0.020857	1.055077
C64	C	1.734335	-0.760306	0.388426
C65	C	2.067668	-0.426972	0.721759
C66	C	2.401001	-0.093639	1.055093
C67	C	1.734404	-0.851614	0.388444
C68	C	2.067738	-0.518281	0.721777
C69	C	2.401071	-0.184948	1.055110
C70	C	1.734467	-0.924391	0.388454
C71	C	2.067800	-0.591057	0.721787
C72	C	2.401133	-0.257724	1.055121
C73	C	1.734535	-1.015705	0.388471
C74	C	2.067869	-0.682372	0.721804
C75	C	2.401202	-0.349038	1.055137
C76	C	2.047407	-0.388424	0.388430
C77	C	2.380740	-0.055091	0.721763
C78	C	2.714073	0.278242	1.055097
C79	C	2.180807	-0.388430	0.388435
C80	C	2.514140	-0.055096	0.721768
C81	C	2.847473	0.278237	1.055101
C82	C	1.734423	-0.388358	0.598728
C83	C	2.067757	-0.055025	0.932062
C84	C	2.401090	0.278308	1.265395
C85	C	1.734448	-0.388336	0.688349
C86	C	2.067782	-0.055002	1.021683
C87	C	2.401115	0.278331	1.355016
C88	C	1.734528	-0.178102	0.388462
C89	C	2.067861	0.155231	0.721796
C90	C	2.401195	0.488564	1.055129
C91	C	1.734598	-0.088481	0.388481
C92	C	2.067931	0.244852	0.721814
C93	C	2.401264	0.578185	1.055147
C94	C	1.734375	-0.388406	0.178928
C95	C	2.067708	-0.055073	0.512262
C96	C	2.401041	0.278260	0.845595
C97	C	1.734582	-0.388202	0.089308
C98	C	2.067916	-0.054868	0.422641
C99	C	2.401249	0.278465	0.755974
C100	C	1.734468	-0.388318	0.761132
C101	C	2.067801	-0.054984	1.094465
C102	C	2.401135	0.278349	1.427799
C103	C	1.734496	-0.388288	0.852440
C104	C	2.067829	-0.054954	1.185774
C105	C	2.401163	0.278379	1.519107
C106	C	1.734524	-0.388259	0.925217
C107	C	2.067857	-0.054926	1.258550
C108	C	2.401191	0.278407	1.591884
C109	C	1.734554	-0.388230	1.016531
C110	C	2.067887	-0.054897	1.349865
C111	C	2.401221	0.278437	1.683198
