data_functionalizedCrystal
_audit_creation_method	'MofGen! by Chris Wilmer'
_symmetry_space_group_name_H-M	'P1'
_symmetry_Int_Tables_number	1
_symmetry_cell_setting	triclinic
loop_
_symmetry_equiv_pos_as_xyz
  x,y,z
_cell_length_a	14.628931
_cell_length_b	14.809374
_cell_length_c	14.628931
_cell_angle_alpha	90.000018
_cell_angle_beta	60.000000
_cell_angle_gamma	67.425943
loop_
_atom_site_label
_atom_site_type_symbol
_atom_site_fract_x
_atom_site_fract_y
_atom_site_fract_z
Zr1	Zr	0.976529	-0.107937	0.892644
O2	O	1.137977	-0.239269	0.761312
O3	O	0.794793	-0.067677	0.932904
O4	O	0.947271	-0.239269	0.952018
O5	O	1.015653	0.067677	0.727121
O6	O	0.947271	-0.239268	1.102450
O7	O	0.985499	-0.067677	0.742198
O8	O	0.674515	0.067678	1.068258
O9	O	1.288409	-0.239269	0.761312
O10	O	0.877058	-0.050506	1.062340
O11	O	0.899562	0.050507	0.938822
O12	O	1.079085	-0.151520	0.961327
O13	O	1.101590	-0.050507	0.837809
Zr14	Zr	1.024622	0.107937	1.108519
Zr15	Zr	0.976529	-0.107937	1.132565
Zr16	Zr	1.024622	0.107937	0.868597
Zr17	Zr	1.216451	-0.107938	0.892644
Zr18	Zr	0.784700	0.107938	1.108519
O19	O	1.206358	0.067677	1.068259
O20	O	1.137976	-0.239269	1.102450
O21	O	1.206359	0.067677	0.727121
O22	O	0.863174	0.239269	1.239851
O23	O	0.794792	-0.067677	1.274042
O24	O	0.863175	0.239269	0.898713
O25	O	0.985498	-0.067677	1.274042
O26	O	1.053880	0.239269	1.049145
O27	O	1.053880	0.239268	0.898713
O28	O	1.015652	0.067677	1.258965
O29	O	1.288409	-0.239269	0.952018
O30	O	0.712743	0.239269	1.049145
O31	O	0.712742	0.239269	1.239851
O32	O	0.674515	0.067678	1.258964
O33	O	1.326636	-0.067678	0.742199
O34	O	1.326636	-0.067678	0.932904
O35	O	0.922066	0.151520	1.039836
O36	O	0.899561	0.050507	1.163354
O37	O	1.101589	-0.050507	1.062340
O38	O	1.124093	0.050506	0.938823
C39	C	0.700470	0.000000	1.000581
C40	C	0.598617	0.000001	1.000581
C41	C	0.542045	-0.050109	1.061854
C42	C	0.436774	-0.050110	1.061855
C43	C	0.940419	-0.270026	1.030660
C44	C	0.920002	-0.361670	1.040868
C45	C	1.011119	-0.452638	0.995310
C46	C	0.990020	-0.547358	1.005859
C47	C	1.300681	-0.000000	1.000582
C48	C	1.402534	-0.000001	1.000582
C49	C	1.000576	-0.000000	0.700476
C50	C	1.000577	-0.000001	0.598623
C51	C	1.060732	0.270026	0.970503
C52	C	1.081149	0.361670	0.960295
C53	C	1.100794	-0.050109	0.397840
C54	C	1.100796	-0.050110	0.503109
C55	C	1.000575	0.000000	1.300687
C56	C	1.000575	0.000001	1.402540
C57	C	0.700470	0.000001	1.300687
C58	C	0.598616	0.000001	1.402539
C59	C	0.760627	0.270026	0.970503
C60	C	0.679191	0.361671	0.960294
C61	C	0.760626	0.270027	1.270608
C62	C	0.679190	0.361671	1.362253
C63	C	1.240525	-0.270027	0.730555
C64	C	1.321961	-0.361671	0.638910
C65	C	1.300681	-0.000001	0.700476
C66	C	1.402535	-0.000001	0.598623
C67	C	1.240524	-0.270026	1.030660
C68	C	1.321960	-0.361671	1.040869
C69	C	0.652696	0.457445	1.008227
C70	C	0.576194	0.543563	0.998630
C71	C	0.526180	0.533905	0.941106
C72	C	0.552682	0.438120	0.893167
C73	C	0.629190	0.352004	0.902758
C74	C	0.629200	0.351981	1.469775
C75	C	0.552693	0.438082	1.555895
C76	C	0.526171	0.533874	1.534490
C77	C	0.576171	0.543562	1.426957
C78	C	0.652683	0.457462	1.340839
C79	C	1.371963	-0.351981	0.531388
C80	C	1.448500	-0.438082	0.445268
C81	C	1.475026	-0.533874	0.466672
C82	C	1.425021	-0.543562	0.574206
C83	C	1.348492	-0.457462	0.660323
C84	C	1.371950	-0.351980	1.098401
C85	C	1.448458	-0.438082	1.108014
C86	C	1.474979	-0.533873	1.060087
C87	C	1.424980	-0.543562	1.002553
C88	C	1.348468	-0.457461	0.992948
C89	C	0.542044	-0.050108	1.397839
C90	C	0.436773	-0.050109	1.503108
H91	H	0.451141	0.042897	0.948116
H92	H	0.511950	0.430271	0.846330
H93	H	0.569119	0.042897	1.484498
Cl94	Cl	0.361736	-0.116355	1.142844
H95	H	0.569115	0.042903	0.948126
Cl96	Cl	0.845451	-0.535365	1.078150
H97	H	1.104748	-0.460394	0.948501
Cl98	Cl	0.662479	0.231606	0.842498
Cl99	Cl	1.233272	-0.116355	0.497157
Cl100	Cl	0.715553	0.469614	1.080552
Cl101	Cl	0.542816	0.663993	1.400066
Cl102	Cl	0.662532	0.231568	1.496712
Cl103	Cl	0.429979	0.642106	1.642766
H104	H	1.350370	-0.273991	0.513939
H105	H	0.571539	-0.093005	1.114316
Cl106	Cl	0.477564	0.066248	1.604582
H107	H	0.826373	-0.353914	1.087686
H108	H	1.307779	-0.465364	0.747872
H109	H	1.446587	-0.621566	0.963534
Cl110	Cl	0.542889	0.663965	1.058909
Cl111	Cl	0.429997	0.642176	0.929061
Cl112	Cl	0.489845	0.425879	1.691068
Cl113	Cl	1.511307	-0.425878	1.180337
H114	H	1.174785	-0.646095	0.913480
H115	H	1.186595	-0.093004	0.315881
H116	H	0.914769	0.042895	0.602481
Cl117	Cl	1.285643	-0.469662	0.920603
H118	H	0.693376	0.465366	1.253292
H119	H	0.914776	0.042905	0.484498
H120	H	1.489203	-0.430174	0.357717
H121	H	0.571549	-0.093013	1.315881
H122	H	1.537342	-0.603974	0.396540
Cl123	Cl	1.458375	-0.663993	0.601096
Cl124	Cl	1.338625	-0.231567	1.158663
H125	H	1.537283	-0.603973	1.067916
Cl126	Cl	0.361724	-0.116342	1.497155
