data_functionalizedCrystal
_audit_creation_method	'MofGen! by Chris Wilmer'
_symmetry_space_group_name_H-M	'P1'
_symmetry_Int_Tables_number	1
_symmetry_cell_setting	triclinic
loop_
_symmetry_equiv_pos_as_xyz
  x,y,z
_cell_length_a	16.120530
_cell_length_b	14.908520
_cell_length_c	14.908858
_cell_angle_alpha	90.221996
_cell_angle_beta	90.214265
_cell_angle_gamma	89.416769
loop_
_atom_site_label
_atom_site_type_symbol
_atom_site_fract_x
_atom_site_fract_y
_atom_site_fract_z
Zn1	Zn	1.221700	0.391656	-0.599643
Zn2	Zn	1.220680	0.550657	-0.457898
Zn3	Zn	1.090598	0.393603	-0.441726
Zn4	Zn	1.074632	0.534386	-0.599767
O5	O	1.151903	0.467575	-0.524758
O6	O	1.337553	0.418742	-0.587557
O7	O	1.209679	0.537448	-0.330291
O8	O	1.115098	0.267884	-0.455854
O9	O	1.336803	0.535560	-0.483417
O10	O	1.211418	0.266454	-0.571876
O11	O	1.114108	0.422061	-0.318409
O12	O	0.972492	0.406284	-0.455974
O13	O	1.087887	0.507827	-0.725212
O14	O	0.960762	0.509716	-0.572086
O15	O	1.195937	0.402964	-0.725121
O16	O	1.194198	0.673959	-0.483537
O17	O	1.086897	0.662004	-0.587767
C18	C	1.138726	0.700512	-0.537441
C19	C	1.133163	0.800166	-0.542901
C20	C	0.936553	0.456446	-0.512289
C21	C	0.844423	0.451705	-0.506977
C22	C	1.140245	0.453364	-0.758607
C23	C	1.135277	0.447308	-0.858260
C24	C	0.675740	0.443028	-0.497286
C25	C	0.628899	0.492185	-0.552300
C26	C	0.535038	0.487357	-0.546908
C27	C	0.769610	0.447855	-0.502677
C28	C	1.368094	0.478749	-0.537277
C29	C	1.460221	0.483510	-0.542611
C30	C	1.165152	0.233729	-0.512047
C31	C	1.170799	0.134077	-0.506630
C32	C	1.234546	0.999812	-0.444724
C33	C	1.229323	1.093446	-0.449852
C34	C	1.117496	1.081068	-0.558288
C35	C	1.122720	0.987435	-0.553160
C36	C	1.181246	0.946810	-0.496376
C37	C	1.186466	0.853175	-0.491244
C38	C	1.074644	0.840799	-0.599684
C39	C	1.069420	0.934432	-0.604811
C40	C	1.078522	0.378698	-0.992529
C41	C	1.083187	0.384387	-0.898896
C42	C	1.182707	0.504542	-0.911263
C43	C	1.178043	0.498854	-1.004895
C44	C	1.125947	0.435931	-1.045525
C45	C	1.121279	0.430247	-1.139159
C46	C	1.220803	0.550397	-1.151524
C47	C	1.225468	0.556086	-1.057891
C48	C	1.163567	0.481670	-0.291819
C49	C	1.168709	0.487481	-0.192162
H50	H	0.659288	0.537894	-0.603451
H51	H	0.645353	0.397322	-0.446140
H52	H	1.282195	0.966736	-0.398482
Br53	Br	1.265887	0.798042	-0.414175
H54	H	1.267885	0.607313	-1.024797
Br55	Br	1.301665	1.165376	-0.379756
H56	H	1.069852	1.114161	-0.604525
Br57	Br	0.990000	0.989574	-0.681877
H58	H	1.031241	0.797633	-0.641739
H59	H	1.225127	0.555765	-0.878165
H60	H	1.078859	0.379012	-1.172238
H61	H	1.036101	0.327467	-1.025610
H62	H	1.259425	0.596996	-1.194683
Br63	Br	1.018826	0.306707	-0.826975
