data_functionalizedCrystal
_audit_creation_method	'MofGen! by Chris Wilmer'
_symmetry_space_group_name_H-M	'P1'
_symmetry_Int_Tables_number	1
_symmetry_cell_setting	triclinic
loop_
_symmetry_equiv_pos_as_xyz
  x,y,z
_cell_length_a	9.065215
_cell_length_b	12.811415
_cell_length_c	7.540329
_cell_angle_alpha	84.565547
_cell_angle_beta	89.997574
_cell_angle_gamma	84.526874
loop_
_atom_site_label
_atom_site_type_symbol
_atom_site_fract_x
_atom_site_fract_y
_atom_site_fract_z
O1	O	1.958455	0.153893	-0.172209
O2	O	1.529010	0.166521	-0.174248
O3	O	1.754536	0.007517	-0.148663
O4	O	1.732929	0.312897	-0.197794
O5	O	1.754523	0.007515	0.146302
O6	O	1.528997	0.166519	0.120718
O7	O	1.958442	0.153891	0.122756
Cu8	Cu	1.743718	0.160205	0.148670
Cu9	Cu	1.743734	0.160207	-0.200161
O10	O	1.732915	0.312895	0.097172
C11	C	1.474032	0.165307	-0.026571
C12	C	1.310235	0.161680	-0.025991
C13	C	1.753319	-0.031600	0.005109
C14	C	1.749693	-0.148152	0.023849
C15	C	1.742867	-0.367153	-0.262545
C16	C	1.739460	-0.476665	-0.244945
C17	C	1.739461	-0.476688	0.076645
C18	C	1.742868	-0.367176	0.059046
C19	C	1.744573	-0.312413	-0.110555
C20	C	1.747991	-0.202900	-0.128152
C21	C	1.747981	-0.202925	0.193437
C22	C	1.744574	-0.312436	0.211036
C23	C	2.013420	0.155105	-0.024924
C24	C	2.177217	0.158732	-0.025516
C25	C	1.734133	0.352011	-0.056604
C26	C	1.737759	0.468564	-0.075356
N27	N	1.743717	0.160202	0.394019
N28	N	1.743746	0.160201	-0.445509
H29	H	1.749384	-0.158314	-0.266250
Cl30	Cl	1.737274	-0.545547	0.289838
H31	H	1.744268	-0.322565	-0.400640
H32	H	1.738065	-0.521230	-0.368712
Cl33	Cl	1.742418	-0.381290	0.424236
Cl34	Cl	1.750142	-0.134103	0.384522
