data_functionalizedCrystal
_audit_creation_method	'MofGen! by Chris Wilmer'
_symmetry_space_group_name_H-M	'P1'
_symmetry_Int_Tables_number	1
_symmetry_cell_setting	triclinic
loop_
_symmetry_equiv_pos_as_xyz
  x,y,z
_cell_length_a	12.827893
_cell_length_b	18.050589
_cell_length_c	18.050582
_cell_angle_alpha	90.018205
_cell_angle_beta	90.012927
_cell_angle_gamma	90.028191
loop_
_atom_site_label
_atom_site_type_symbol
_atom_site_fract_x
_atom_site_fract_y
_atom_site_fract_z
Zn1	Zn	1.597511	-0.295707	0.419896
Zn2	Zn	1.597385	-0.419891	0.295715
Zn3	Zn	1.422772	-0.295719	0.295724
Zn4	Zn	1.422699	-0.419860	0.419868
O5	O	1.510092	-0.357794	0.357801
O6	O	1.743730	-0.312188	0.403431
O7	O	1.574200	-0.403437	0.191792
O8	O	1.446034	-0.191793	0.312211
O9	O	1.743638	-0.403425	0.312196
O10	O	1.574415	-0.191784	0.403439
O11	O	1.445913	-0.312208	0.191798
O12	O	1.276526	-0.312178	0.312184
O13	O	1.445910	-0.403373	0.523796
O14	O	1.276472	-0.403384	0.403392
O15	O	1.574344	-0.312159	0.523817
O16	O	1.574130	-0.523811	0.312169
O17	O	1.445788	-0.523789	0.403383
C18	C	1.238582	-0.357780	0.357786
C19	C	1.122429	-0.357792	0.357798
C20	C	1.070645	-0.402994	0.402861
C21	C	0.950595	-0.403007	0.402874
C22	C	1.509965	-0.550746	0.357788
C23	C	1.510007	-0.633292	0.357808
C24	C	1.440284	-0.832757	0.407393
C25	C	1.414817	-0.882191	0.339626
C26	C	1.510110	-0.784422	0.357818
C27	C	1.535627	-0.882070	0.425592
C28	C	1.510207	-0.930407	0.357833
C29	C	1.484594	-0.832769	0.290015
C30	C	1.605448	-0.832644	0.376026
C31	C	1.580018	-0.882055	0.308213
C32	C	1.510051	-0.700324	0.357810
C33	C	1.510266	-1.014504	0.357833
C34	C	1.782662	-0.357809	0.357815
C35	C	1.898815	-0.357815	0.357821
C36	C	1.510133	-0.357761	0.551506
C37	C	1.510150	-0.357747	0.634052
C38	C	1.510247	-0.164088	0.357829
C39	C	1.510313	-0.081543	0.357841
C40	C	1.510111	-0.357773	0.164849
C41	C	1.510296	-0.357578	0.082303
C42	C	1.440361	-0.407282	0.833492
C43	C	1.535702	-0.425435	0.882882
C44	C	1.510202	-0.357690	0.785183
C45	C	1.414913	-0.339516	0.882874
C46	C	1.510243	-0.357637	0.931168
C47	C	1.605592	-0.375879	0.833486
C48	C	1.484739	-0.289929	0.833473
C49	C	1.580146	-0.308057	0.882841
C50	C	1.510176	-0.357723	0.701084
C51	C	1.510279	-0.357604	1.015264
H52	H	1.334239	-0.903971	0.324239
O53	O	1.369979	-0.457318	0.807511
C54	C	1.370267	-0.456221	0.729409
H55	H	1.401367	-0.400609	0.709219
H56	H	1.422235	-0.502654	0.707785
C57	C	1.220173	-0.535727	0.725374
C58	C	1.258362	-0.467420	0.700577
H59	H	1.151147	-0.542638	0.707588
H60	H	1.219981	-0.536469	0.777992
H61	H	1.263489	-0.574413	0.707352
H62	H	1.215054	-0.428735	0.718606
H63	H	1.258545	-0.466672	0.647960
H64	H	1.462956	-0.811203	0.232689
O65	O	1.561571	-0.493772	0.908697
C66	C	1.661377	-0.513287	0.882473
H67	H	1.679463	-0.480443	0.830093
H68	H	1.722110	-0.500130	0.926686
C69	C	1.641715	-0.637087	0.929191
C70	C	1.663924	-0.596751	0.864854
H71	H	1.643289	-0.688571	0.918326
H72	H	1.574475	-0.623939	0.946862
H73	H	1.692328	-0.626114	0.966029
H74	H	1.613304	-0.607717	0.828021
H75	H	1.731155	-0.609903	0.847177
O76	O	1.369663	-0.807051	0.457346
C77	C	1.319605	-0.867385	0.491926
H78	H	1.325030	-0.918265	0.454699
H79	H	1.359137	-0.879515	0.547175
C80	C	1.197531	-0.785681	0.551076
C81	C	1.204187	-0.848172	0.505350
H82	H	1.126337	-0.773830	0.559360
H83	H	1.231258	-0.745033	0.527781
H84	H	1.230481	-0.795798	0.597111
H85	H	1.171249	-0.838052	0.459312
H86	H	1.170451	-0.888819	0.528637
O87	O	1.650784	-0.257991	0.908407
C88	C	1.700643	-0.223459	0.847974
H89	H	1.695116	-0.260773	0.797159
H90	H	1.661023	-0.168269	0.835789
C91	C	1.822881	-0.164054	0.929475
C92	C	1.816100	-0.209887	0.867064
H93	H	1.894099	-0.155679	0.941251
H94	H	1.789288	-0.187316	0.970191
H95	H	1.789858	-0.118068	0.919313
H96	H	1.849111	-0.255875	0.877231
H97	H	1.849702	-0.186632	0.826351
O98	O	1.069420	-0.311669	0.311674
C99	C	1.095954	-0.327795	0.237610
H100	H	1.175212	-0.356285	0.235969
H101	H	1.034515	-0.365987	0.212577
C102	C	1.003523	-0.220340	0.194757
C103	C	1.100873	-0.255327	0.192740
H104	H	1.006553	-0.175640	0.167077
H105	H	0.985643	-0.209477	0.244655
H106	H	0.952334	-0.252175	0.173897
H107	H	1.152057	-0.223497	0.213608
H108	H	1.118762	-0.266183	0.142845
H109	H	1.686217	-0.391294	0.811882
O110	O	1.318840	-0.321110	0.908843
C111	C	1.326092	-0.256042	0.951773
H112	H	1.409253	-0.249459	0.973068
H113	H	1.304654	-0.206118	0.916237
C114	C	1.148495	-0.269383	0.991751
C115	C	1.250634	-0.261301	1.017911
H116	H	1.101946	-0.272624	1.032546
H117	H	1.143607	-0.313219	0.962825
H118	H	1.130645	-0.227778	0.962137
H119	H	1.268487	-0.302909	1.047516
H120	H	1.255523	-0.217472	1.046843
O121	O	0.897525	-0.449282	0.448826
C122	C	0.924096	-0.523291	0.432501
H123	H	0.954133	-0.526979	0.373181
H124	H	0.987383	-0.542789	0.472318
C125	C	0.790164	-0.568286	0.513870
C126	C	0.827047	-0.572817	0.441010
H127	H	0.730302	-0.598837	0.519121
H128	H	0.772264	-0.518425	0.524871
H129	H	0.842912	-0.584533	0.547042
H130	H	0.774304	-0.556561	0.407840
H131	H	0.844935	-0.622677	0.430004
H132	H	1.115188	-0.441680	0.441434
H133	H	1.639109	-0.903565	0.266247
O134	O	1.701523	-0.806690	0.394549
C135	C	1.728086	-0.831779	0.466064
H136	H	1.654013	-0.845689	0.498059
H137	H	1.778823	-0.883407	0.461414
C138	C	1.879604	-0.753569	0.467948
C139	C	1.788625	-0.770647	0.507246
H140	H	1.916951	-0.715862	0.493351
H141	H	1.861710	-0.736668	0.419766
H142	H	1.921872	-0.796598	0.464076
H143	H	1.746353	-0.727622	0.511110
H144	H	1.806513	-0.787540	0.555431
H145	H	1.557171	-0.903726	0.482902
O146	O	1.458804	-0.221636	0.807588
C147	C	1.358222	-0.202709	0.832722
H148	H	1.313100	-0.255328	0.846598
H149	H	1.364859	-0.166659	0.884380
C150	C	1.355756	-0.095024	0.754608
C151	C	1.300333	-0.159652	0.771645
H152	H	1.320048	-0.068461	0.716934
H153	H	1.423522	-0.107774	0.737676
H154	H	1.361283	-0.064991	0.797661
H155	H	1.294818	-0.189687	0.728594
H156	H	1.232565	-0.146906	0.788567
H157	H	0.943341	-0.319117	0.319237
