data_functionalizedCrystal
_audit_creation_method	'MofGen! by Chris Wilmer'
_symmetry_space_group_name_H-M	'P1'
_symmetry_Int_Tables_number	1
_symmetry_cell_setting	triclinic
loop_
_symmetry_equiv_pos_as_xyz
  x,y,z
_cell_length_a	19.902436
_cell_length_b	19.376997
_cell_length_c	19.377574
_cell_angle_alpha	75.065037
_cell_angle_beta	104.487285
_cell_angle_gamma	68.969151
loop_
_atom_site_label
_atom_site_type_symbol
_atom_site_fract_x
_atom_site_fract_y
_atom_site_fract_z
Zr1	Zr	0.814576	0.620040	0.066642
O2	O	0.715807	0.738192	-0.016616
O3	O	0.819727	0.501879	0.070986
O4	O	0.819737	0.620041	-0.047171
O5	O	0.744372	0.620032	0.218838
O6	O	0.930303	0.620052	-0.047182
O7	O	0.715796	0.620030	0.101542
O8	O	0.930285	0.408682	0.164180
O9	O	0.744390	0.831402	0.007476
O10	O	0.934796	0.550492	0.098418
O11	O	0.873608	0.550485	0.185963
O12	O	0.873620	0.689605	0.046849
O13	O	0.812431	0.689599	0.134393
Zr14	Zr	1.036490	0.620061	0.253698
Zr15	Zr	0.990916	0.620057	0.066625
Zr16	Zr	0.860151	0.620043	0.253716
Zr17	Zr	0.860164	0.768699	0.105066
Zr18	Zr	0.990903	0.471401	0.215275
O19	O	1.031340	0.738221	0.249354
O20	O	0.966539	0.738216	-0.016640
O21	O	0.780608	0.738197	0.249379
O22	O	1.135260	0.501909	0.336956
O23	O	1.070459	0.501904	0.070961
O24	O	0.884528	0.501884	0.336981
O25	O	1.106695	0.620068	0.101503
O26	O	1.031329	0.620059	0.367512
O27	O	0.920764	0.620049	0.367522
O28	O	1.135270	0.620071	0.218799
O29	O	0.884557	0.831416	0.007462
O30	O	0.966510	0.408684	0.312878
O31	O	1.106677	0.408698	0.312864
O32	O	1.070451	0.408695	0.164166
O33	O	0.780616	0.831405	0.156175
O34	O	0.920782	0.831419	0.156161
O35	O	0.977447	0.550495	0.273492
O36	O	1.038636	0.550501	0.185947
O37	O	0.977459	0.689615	0.134377
O38	O	0.916271	0.689609	0.221922
C39	C	0.868511	0.434099	0.112108
C40	C	0.849158	0.370989	0.095797
C41	C	0.760977	0.333378	0.021467
C42	C	0.779169	0.392673	0.036801
C43	C	0.900984	0.289995	0.139480
C44	C	0.882804	0.230689	0.124152
C45	C	0.812799	0.252388	0.065146
C46	C	0.934625	0.149699	0.167831
C47	C	0.916445	0.090399	0.152507
C48	C	0.846442	0.112089	0.093504
C49	C	0.794618	0.193088	0.049822
C50	C	1.004627	0.128003	0.226841
C51	C	1.056449	0.047013	0.270519
C52	C	1.038271	-0.012289	0.255192
C53	C	0.968268	0.009401	0.196189
C54	C	1.090095	-0.093287	0.298875
C55	C	1.071914	-0.152587	0.283551
C56	C	0.950088	-0.049899	0.180866
C57	C	0.704959	0.620028	0.160192
C58	C	0.630099	0.620021	0.160199
C59	C	0.358050	0.620060	0.160161
C60	C	0.425068	0.532304	0.192429
C61	C	0.503029	0.532249	0.192724
C62	C	0.493017	0.620040	0.160180
C63	C	0.462073	0.663623	0.211716
C64	C	0.384437	0.663062	0.211974
C65	C	0.350731	0.664861	0.076495
C66	C	0.429140	0.663212	0.076219
C67	C	0.569293	0.620033	0.160191
C68	C	0.281774	0.620069	0.160153
C69	C	1.146107	0.620072	0.160148
C70	C	1.220968	0.620079	0.160141
C71	C	0.868527	0.620046	-0.073830
C72	C	0.849180	0.620044	-0.153248
C73	C	0.982556	0.806001	0.208232
C74	C	1.001909	0.869111	0.224544
C75	C	1.090082	0.620064	-0.414493
C76	C	1.071881	0.620064	-0.489119
C77	C	0.950065	0.620052	-0.489088
C78	C	0.968255	0.620056	-0.414463
C79	C	1.038265	0.620061	-0.377171
C80	C	0.916437	0.620053	-0.377140
C81	C	0.934627	0.620053	-0.302520
C82	C	1.004635	0.620056	-0.265222
C83	C	1.056455	0.620061	-0.302550
C84	C	0.846430	0.620042	-0.414432
C85	C	0.794612	0.620039	-0.377109
C86	C	0.812799	0.620045	-0.302489
C87	C	0.882807	0.620047	-0.265191
C88	C	0.760979	0.620039	-0.265161
C89	C	0.779169	0.620039	-0.190540
C90	C	0.900997	0.620047	-0.190571
C91	C	0.982540	0.620054	0.394171
C92	C	1.001887	0.620056	0.473589
C93	C	1.089085	0.434121	0.112087
C94	C	1.144592	0.371019	0.095767
C95	C	0.925517	0.434104	0.346109
C96	C	0.925511	0.370995	0.409215
C97	C	1.146091	0.434126	0.346087
C98	C	1.220946	0.371025	0.409186
C99	C	0.704976	0.805975	-0.025747
C100	C	0.630121	0.869076	-0.088845
C101	C	0.761982	0.805979	0.208254
C102	C	0.706474	0.869082	0.224573
C103	C	0.925550	0.805997	-0.025769
C104	C	0.925555	0.869105	-0.088874
C105	C	1.116455	0.341380	0.042407
C106	C	1.168601	0.282097	0.027058
C107	C	1.248886	0.252449	0.065074
C108	C	1.277025	0.282094	0.118438
C109	C	1.224878	0.341380	0.133782
C110	C	0.979714	0.341364	0.484547
C111	C	0.979710	0.282075	0.543851
C112	C	0.925506	0.252415	0.527820
C113	C	0.871298	0.282052	0.452481
C114	C	0.871299	0.341343	0.393180
C115	C	1.288046	0.341395	0.393120
C116	C	1.358388	0.282113	0.452403
C117	C	1.361627	0.252458	0.527750
C118	C	1.294521	0.282093	0.543815
C119	C	1.224181	0.341378	0.484534
C120	C	0.563023	0.898712	-0.072778
C121	C	0.492686	0.958013	-0.132056
C122	C	0.489448	0.987671	-0.207402
C123	C	0.556554	0.958032	-0.223468
C124	C	0.626890	0.898737	-0.164190
C125	C	0.734612	0.898727	0.277928
C126	C	0.682465	0.958026	0.293260
C127	C	0.602181	0.987676	0.255242
C128	C	0.574042	0.958028	0.201881
C129	C	0.626189	0.898734	0.186545
C130	C	0.979768	0.898747	-0.072821
C131	C	0.979789	0.958036	-0.132110
C132	C	0.925592	0.987687	-0.207452
C133	C	0.871377	0.958039	-0.223506
C134	C	0.871360	0.898747	-0.164218
H135	H	0.737618	0.210758	0.001766
Br136	Br	1.185091	0.620087	-0.363885
H137	H	0.507158	0.633356	0.273317
H138	H	1.051085	0.365518	0.011438
H139	H	0.736955	0.458622	0.001243
H140	H	0.303764	0.729509	0.052070
Br141	Br	0.531420	1.068148	0.276064
Br142	Br	1.053288	0.381600	0.506323
Br143	Br	0.579040	0.474905	0.295008
Br144	Br	0.397386	0.611445	0.315449
H145	H	0.681520	0.874607	-0.177283
H146	H	1.413022	0.257990	0.439308
Br147	Br	0.797823	0.998294	-0.325759
H148	H	1.113461	0.620074	-0.272189
H149	H	0.957980	0.272339	0.187524
H150	H	1.418907	0.204184	0.576013
H151	H	0.925614	1.035966	-0.255721
Br152	Br	1.142219	0.620062	-0.539764
H153	H	0.893064	0.620045	-0.519459
Br154	Br	0.996006	0.620070	-0.139962
Br155	Br	0.797741	0.241789	0.430738
H156	H	0.827163	0.365461	0.331841
H157	H	0.831624	0.620038	-0.475191
Br158	Br	0.401626	0.998223	-0.110234
H159	H	0.737611	0.620032	-0.407480
H160	H	0.827211	0.874619	-0.177299
H161	H	0.703981	0.620027	-0.295531
H162	H	1.291339	0.204174	0.052574
Br163	Br	0.855089	-0.020458	0.100771
Br164	Br	0.393985	1.068145	-0.287844
Br165	Br	1.263080	0.381593	0.206208
Br166	Br	0.665979	0.362819	-0.058627
Br167	Br	0.465081	0.998274	0.150293
H168	H	1.023937	0.982169	-0.119024
Br169	Br	0.720670	0.998247	0.365681
H170	H	0.799982	0.874590	0.308895
Br171	Br	1.029300	0.208482	0.247641
Br172	Br	0.552146	0.998290	-0.325729
Br173	Br	1.053284	0.241865	0.646089
Br174	Br	1.151448	0.017574	0.350601
H175	H	0.736974	0.620036	-0.160152
Br176	Br	0.925515	0.171946	0.608311
H177	H	1.147089	-0.110942	0.346922
Br178	Br	1.142242	-0.262507	0.342831
Br179	Br	0.540251	0.475255	0.132976
Br180	Br	1.130397	0.241876	-0.045363
H181	H	1.285423	0.365532	0.331773
Br182	Br	1.298930	0.241838	0.646077
Br183	Br	1.385985	0.241847	0.170028
H184	H	1.019445	0.620052	-0.204459
H185	H	0.603267	0.874599	0.143101
Br186	Br	1.133120	0.381579	0.506351
Br187	Br	0.399383	0.474883	0.132801
Br188	Br	0.307076	0.770372	0.177308
Br189	Br	0.567395	0.858472	0.029471
H190	H	1.023902	0.874615	-0.011477
H191	H	0.831639	0.063801	0.081031
H192	H	0.432320	0.498033	0.253408
H193	H	0.330934	0.636776	0.035595
H194	H	0.449392	0.631435	0.037920
Br195	Br	0.412968	0.769970	0.029829
Br196	Br	0.446643	0.771214	0.176028
