data_functionalizedCrystal
_audit_creation_method	'MofGen! by Chris Wilmer'
_symmetry_space_group_name_H-M	'P1'
_symmetry_Int_Tables_number	1
_symmetry_cell_setting	triclinic
loop_
_symmetry_equiv_pos_as_xyz
  x,y,z
_cell_length_a	42.784980
_cell_length_b	42.784893
_cell_length_c	42.784807
_cell_angle_alpha	59.997365
_cell_angle_beta	90.002485
_cell_angle_gamma	120.000123
loop_
_atom_site_label
_atom_site_type_symbol
_atom_site_fract_x
_atom_site_fract_y
_atom_site_fract_z
O1	O	-0.266394	-0.275698	0.490107
O2	O	-0.220943	-0.211694	0.380653
O3	O	-0.220941	-0.275695	0.444654
O4	O	-0.266396	-0.211697	0.426107
O5	O	-0.168958	-0.223711	0.444654
O6	O	-0.168960	-0.159710	0.380653
O7	O	-0.214410	-0.223713	0.490107
Cu8	Cu	-0.186938	-0.186965	0.435380
Cu9	Cu	-0.248415	-0.248443	0.435380
O10	O	-0.214412	-0.159712	0.426107
C11	C	-0.356216	0.005341	0.407229
C12	C	-0.393831	-0.013377	0.406965
C13	C	-0.356216	-0.051257	0.407229
C14	C	-0.393831	-0.069890	0.406965
C15	C	-0.412814	-0.051257	0.407229
C16	C	-0.337319	-0.013377	0.406965
C17	C	-0.264536	0.131581	0.417476
C18	C	-0.246596	0.167335	0.420374
C19	C	-0.265935	0.185271	0.421828
C20	C	-0.246488	0.224033	0.424976
C21	C	-0.303215	0.167451	0.420382
C22	C	-0.321151	0.131704	0.417480
C23	C	-0.301809	0.113768	0.416027
C24	C	-0.549300	-0.096065	0.417476
C25	C	-0.587952	-0.116776	0.420373
C26	C	-0.607343	-0.155506	0.421829
C27	C	-0.649252	-0.177969	0.424976
C28	C	-0.588078	-0.173521	0.420383
C29	C	-0.549426	-0.152806	0.417479
C30	C	-0.530040	-0.114076	0.416028
C31	C	-0.264538	-0.096066	0.417476
C32	C	-0.246599	-0.116782	0.420378
C33	C	-0.265940	-0.155511	0.421833
C34	C	-0.246492	-0.177975	0.424981
C35	C	-0.303218	-0.173525	0.420388
C36	C	-0.321155	-0.152810	0.417488
C37	C	-0.301809	-0.114077	0.416028
C38	C	-0.321262	0.075003	0.412883
C39	C	-0.336766	0.044104	0.410376
C40	C	-0.336767	-0.073718	0.410376
C41	C	-0.321263	-0.091620	0.412883
C42	C	-0.454723	-0.073717	0.410376
C43	C	-0.488129	-0.091619	0.412883
O44	O	-0.772524	-0.275693	0.444654
O45	O	-0.663073	-0.211695	0.426107
O46	O	-0.727070	-0.275696	0.490107
O47	O	-0.708526	-0.211692	0.380653
O48	O	-0.727069	-0.223711	0.490107
O49	O	-0.663072	-0.159710	0.426107
O50	O	-0.772523	-0.223708	0.444654
Cu51	Cu	-0.717797	-0.186963	0.435380
Cu52	Cu	-0.717799	-0.248441	0.435380
O53	O	-0.708525	-0.159707	0.380653
C54	C	-0.079133	-0.051021	0.073799
C55	C	-0.041517	-0.013142	0.054902
C56	C	-0.079134	-0.051019	0.130397
C57	C	-0.041518	-0.013140	0.111414
C58	C	-0.022535	0.005577	0.073799
C59	C	-0.098030	-0.069653	0.111414
C60	C	-0.170810	-0.152950	0.039240
C61	C	-0.188750	-0.173788	0.021426
C62	C	-0.169410	-0.155904	-0.015848
C63	C	-0.188857	-0.178501	-0.035163
C64	C	-0.132129	-0.117178	-0.035309
C65	C	-0.114195	-0.096340	-0.017497
C66	C	-0.133537	-0.114227	0.019779
C67	C	0.113953	0.131814	-0.017877
C68	C	0.152605	0.167568	-0.035816
C69	C	0.171995	0.185504	-0.016478
C70	C	0.213905	0.224266	-0.035923
C71	C	0.152729	0.167686	0.020801
C72	C	0.114077	0.131939	0.038737
C73	C	0.094692	0.114003	0.019394
C74	C	-0.170815	-0.152941	0.266882
C75	C	-0.188754	-0.173780	0.305535
C76	C	-0.169415	-0.155894	0.324925
C77	C	-0.188863	-0.178488	0.366835
C78	C	-0.132136	-0.117171	0.305661
C79	C	-0.114199	-0.096335	0.267009
C80	C	-0.133543	-0.114222	0.247622
C81	C	-0.114085	-0.091630	0.039092
C82	C	-0.098581	-0.073618	0.054486
C83	C	-0.098584	-0.073614	0.172306
C84	C	-0.114088	-0.091624	0.205711
C85	C	0.019375	0.044339	0.054351
C86	C	0.052781	0.075238	0.038847
C87	C	-0.022782	-0.384393	0.463531
C88	C	-0.041764	-0.422273	0.463796
C89	C	-0.079380	-0.384393	0.463531
C90	C	-0.098277	-0.422273	0.463796
C91	C	-0.079380	-0.440992	0.463531
C92	C	-0.041765	-0.365761	0.463796
C93	C	0.113705	-0.282467	0.453284
C94	C	0.152356	-0.261629	0.450387
C95	C	0.171746	-0.279514	0.448933
C96	C	0.213657	-0.256918	0.445784
C97	C	0.152480	-0.318241	0.450379
C98	C	0.113830	-0.339078	0.453281
C99	C	0.094443	-0.321189	0.454734
C100	C	-0.113941	-0.567231	0.453284
C101	C	-0.131756	-0.602986	0.450387
C102	C	-0.169029	-0.620921	0.448931
C103	C	-0.188346	-0.659683	0.445784
C104	C	-0.188490	-0.603102	0.450377
C105	C	-0.170679	-0.567354	0.453281
C106	C	-0.133400	-0.549419	0.454732
C107	C	-0.113942	-0.282468	0.453284
C108	C	-0.131755	-0.261627	0.450382
C109	C	-0.169030	-0.279513	0.448928
C110	C	-0.188345	-0.256917	0.445779
C111	C	-0.188489	-0.318236	0.450372
C112	C	-0.170674	-0.339073	0.453273
C113	C	-0.133401	-0.321187	0.454732
C114	C	0.052533	-0.343786	0.457877
C115	C	0.019127	-0.361797	0.460385
C116	C	-0.098694	-0.361798	0.460385
C117	C	-0.114089	-0.343786	0.457877
C118	C	-0.098693	-0.479754	0.460385
C119	C	-0.114088	-0.510653	0.457877
O120	O	-0.220940	0.327627	0.444654
O121	O	-0.266393	0.236722	0.426107
O122	O	-0.266392	0.236720	0.490107
O123	O	-0.220942	0.327629	0.380653
O124	O	-0.214407	0.236720	0.490108
O125	O	-0.214409	0.236723	0.426107
O126	O	-0.168956	0.327627	0.444654
Cu127	Cu	-0.186936	0.282175	0.435380
Cu128	Cu	-0.248413	0.282175	0.435380
O129	O	-0.168957	0.327630	0.380653
O130	O	0.337175	0.327859	-0.061467
O131	O	0.227724	0.236956	-0.016018
O132	O	0.291721	0.236952	-0.016011
O133	O	0.273178	0.327863	-0.061475
O134	O	0.291722	0.236950	-0.067994
O135	O	0.227725	0.236954	-0.068001
O136	O	0.337177	0.327857	-0.113451
Cu137	Cu	0.282451	0.282406	-0.095473
Cu138	Cu	0.282449	0.282408	-0.033996
O139	O	0.273180	0.327861	-0.113458
O140	O	-0.266387	-0.211709	-0.061229
O141	O	-0.220938	-0.275714	-0.015765
O142	O	-0.220935	-0.211709	-0.015773
O143	O	-0.266389	-0.275714	-0.061221
O144	O	-0.168951	-0.159727	-0.067757
O145	O	-0.168954	-0.223732	-0.067749
O146	O	-0.214402	-0.159727	-0.113213
Cu147	Cu	-0.186932	-0.186983	-0.095227
Cu148	Cu	-0.248409	-0.248458	-0.033751
O149	O	-0.214405	-0.223732	-0.113205
C150	C	-0.412563	-0.440764	0.796971
C151	C	-0.393580	-0.422046	0.815868
C152	C	-0.355966	-0.384163	0.740371
C153	C	-0.337069	-0.365531	0.759355
C154	C	-0.355965	-0.384165	0.796971
C155	C	-0.393581	-0.422044	0.759355
C156	C	-0.549048	-0.567007	0.831532
C157	C	-0.587699	-0.602762	0.849347
C158	C	-0.607088	-0.620699	0.886623
C159	C	-0.648998	-0.659463	0.905938
C160	C	-0.587822	-0.602880	0.906084
C161	C	-0.549173	-0.567131	0.888271
C162	C	-0.529786	-0.549194	0.850994
C163	C	-0.321404	-0.339360	0.888652
C164	C	-0.303589	-0.318649	0.906592
C165	C	-0.266316	-0.279919	0.887254
C166	C	-0.247000	-0.257456	0.906700
C167	C	-0.246856	-0.261903	0.849973
C168	C	-0.264668	-0.282617	0.832036
C169	C	-0.301945	-0.321347	0.851379
C170	C	-0.321407	-0.339349	0.603882
C171	C	-0.303594	-0.318632	0.565227
C172	C	-0.266320	-0.279901	0.545838
C173	C	-0.247006	-0.257436	0.503926
C174	C	-0.246861	-0.261887	0.565102
C175	C	-0.264675	-0.282604	0.603755
C176	C	-0.301948	-0.321338	0.623143
C177	C	-0.487877	-0.510427	0.831680
C178	C	-0.454472	-0.479528	0.816285
C179	C	-0.336653	-0.361700	0.698461
C180	C	-0.321259	-0.343797	0.665054
C181	C	-0.336652	-0.361705	0.816421
C182	C	-0.321257	-0.343804	0.831925
C183	C	-0.745919	-0.384389	0.796965
C184	C	-0.746168	-0.422259	0.815858
C185	C	-0.745913	-0.384385	0.740364
C186	C	-0.746162	-0.422255	0.759343
C187	C	-0.745892	-0.440971	0.796958
C188	C	-0.746189	-0.365759	0.759350
C189	C	-0.735722	-0.282492	0.831538
C190	C	-0.732836	-0.261661	0.849355
C191	C	-0.731377	-0.279543	0.886630
C192	C	-0.728240	-0.256954	0.905948
C193	C	-0.732807	-0.318260	0.906087
C194	C	-0.735698	-0.339091	0.888271
C195	C	-0.737156	-0.321205	0.850995
C196	C	-0.735591	-0.567174	0.888624
C197	C	-0.732678	-0.602918	0.906560
C198	C	-0.731211	-0.620845	0.887218
C199	C	-0.728047	-0.659596	0.906659
C200	C	-0.732662	-0.603029	0.849939
C201	C	-0.735582	-0.567292	0.832006
C202	C	-0.737044	-0.549365	0.851353
C203	C	-0.735699	-0.282473	0.603882
C204	C	-0.732802	-0.261634	0.565229
C205	C	-0.731336	-0.279511	0.545836
C206	C	-0.728194	-0.256917	0.503925
C207	C	-0.732765	-0.318225	0.565096
C208	C	-0.735660	-0.339061	0.603748
C209	C	-0.737130	-0.321183	0.623139
C210	C	-0.740287	-0.343794	0.831679
C211	C	-0.742785	-0.361800	0.816281
C212	C	-0.742772	-0.361790	0.698455
C213	C	-0.740270	-0.343780	0.665049
C214	C	-0.742728	-0.479721	0.816403
C215	C	-0.740207	-0.510611	0.831903
C216	C	-0.689655	0.005363	0.073790
C217	C	-0.689392	-0.013354	0.054892
C218	C	-0.689654	-0.051239	0.130389
C219	C	-0.689391	-0.069870	0.111405
C220	C	-0.689656	-0.051236	0.073789
C221	C	-0.689390	-0.013358	0.111407
C222	C	-0.699900	0.131605	0.039231
C223	C	-0.702797	0.167361	0.021417
C224	C	-0.704253	0.185298	-0.015859
C225	C	-0.707401	0.224062	-0.035174
C226	C	-0.702807	0.167480	-0.035320
C227	C	-0.699905	0.131731	-0.017508
C228	C	-0.698452	0.113793	0.019769
C229	C	-0.699907	-0.096038	-0.017894
C230	C	-0.702805	-0.116748	-0.035835
C231	C	-0.704261	-0.155478	-0.016497
C232	C	-0.707409	-0.177941	-0.035944
C233	C	-0.702814	-0.173495	0.020784
C234	C	-0.699910	-0.152782	0.038722
C235	C	-0.698458	-0.114051	0.019379
C236	C	-0.699897	-0.096055	0.266879
C237	C	-0.702799	-0.116773	0.305534
C238	C	-0.704253	-0.155503	0.324923
C239	C	-0.707401	-0.177969	0.366835
C240	C	-0.702810	-0.173517	0.305658
C241	C	-0.699910	-0.152799	0.267005
C242	C	-0.698451	-0.114065	0.247618
C243	C	-0.695309	0.075026	0.039083
C244	C	-0.692802	0.044126	0.054477
C245	C	-0.692800	-0.073702	0.172299
C246	C	-0.695307	-0.091606	0.205706
C247	C	-0.692804	-0.073694	0.054339
C248	C	-0.695312	-0.091595	0.038834
C249	C	-0.356211	-0.051272	0.796972
C250	C	-0.393827	-0.069905	0.815868
C251	C	-0.356211	0.005329	0.740371
C252	C	-0.393827	-0.013390	0.759354
C253	C	-0.412809	-0.051271	0.796970
C254	C	-0.337315	-0.013391	0.759356
C255	C	-0.264534	-0.096083	0.831537
C256	C	-0.246594	-0.116796	0.849353
C257	C	-0.265933	-0.155527	0.886629
C258	C	-0.246486	-0.177992	0.905945
C259	C	-0.303213	-0.173542	0.906089
C260	C	-0.321148	-0.152826	0.888275
C261	C	-0.301807	-0.114095	0.850997
C262	C	-0.549295	-0.153199	0.888648
C263	C	-0.587946	-0.174037	0.906588
C264	C	-0.607337	-0.156153	0.887249
C265	C	-0.649246	-0.178746	0.906694
C266	C	-0.588072	-0.117426	0.849968
C267	C	-0.549420	-0.096585	0.832031
C268	C	-0.530034	-0.114478	0.851376
C269	C	-0.264534	0.131574	0.603883
C270	C	-0.246595	0.167326	0.565228
C271	C	-0.265935	0.185263	0.545838
C272	C	-0.246488	0.224027	0.503926
C273	C	-0.303213	0.167443	0.565101
C274	C	-0.321150	0.131690	0.603754
C275	C	-0.301805	0.113760	0.623143
C276	C	-0.321259	-0.091637	0.831682
C277	C	-0.336763	-0.073734	0.816287
C278	C	-0.336763	0.044093	0.698461
C279	C	-0.321259	0.074993	0.665055
C280	C	-0.454718	-0.073868	0.816419
C281	C	-0.488124	-0.091879	0.831922
O282	O	-0.708588	-0.211736	0.983999
O283	O	-0.727104	-0.275725	0.938542
O284	O	-0.663118	-0.211708	0.938537
O285	O	-0.772574	-0.275753	0.984003
O286	O	-0.663138	-0.159736	0.886557
O287	O	-0.727124	-0.223753	0.886561
O288	O	-0.708607	-0.159764	0.932018
Cu289	Cu	-0.717867	-0.187013	0.904543
Cu290	Cu	-0.717844	-0.248476	0.966017
O291	O	-0.772594	-0.223781	0.932022
C292	C	-0.022793	0.615622	0.073789
C293	C	-0.041777	0.634255	0.054892
C294	C	-0.079390	0.559021	0.130389
C295	C	-0.098288	0.577739	0.111407
C296	C	-0.079392	0.615621	0.073790
C297	C	-0.041775	0.577741	0.111406
C298	C	0.113693	0.660434	0.039226
C299	C	0.152345	0.681147	0.021411
C300	C	0.171733	0.719878	-0.015865
C301	C	0.213643	0.742343	-0.035181
C302	C	0.152466	0.737893	-0.035326
C303	C	0.113817	0.717176	-0.017512
C304	C	0.094430	0.678446	0.019765
C305	C	-0.113958	0.717548	-0.017889
C306	C	-0.131773	0.738385	-0.035829
C307	C	-0.169046	0.720501	-0.016490
C308	C	-0.188364	0.743094	-0.035936
C309	C	-0.188505	0.681774	0.020791
C310	C	-0.170693	0.660933	0.038727
C311	C	-0.133415	0.678827	0.019383
C312	C	-0.113946	0.432776	0.266879
C313	C	-0.131758	0.397024	0.305533
C314	C	-0.169032	0.379087	0.324923
C315	C	-0.188346	0.340323	0.366835
C316	C	-0.188492	0.396906	0.305659
C317	C	-0.170679	0.432659	0.267007
C318	C	-0.133406	0.450589	0.247618
C319	C	0.052521	0.655987	0.039080
C320	C	0.019116	0.638084	0.054475
C321	C	-0.098702	0.520257	0.172300
C322	C	-0.114096	0.489357	0.205706
C323	C	-0.098707	0.638217	0.054341
C324	C	-0.114103	0.656228	0.038837
H325	H	-0.351502	0.117200	0.416300
H326	H	-0.218855	0.667213	0.036538
H327	H	-0.408824	-0.437709	0.744114
H328	H	-0.351500	0.117189	0.619438
H329	H	-0.533737	-0.065053	0.801679
H330	H	0.168039	-0.230098	0.449208
O331	O	-0.698555	0.114119	0.075465
C332	C	-0.729762	0.069259	0.099552
H333	H	-0.753622	0.063173	0.086530
H334	H	-0.720132	0.047642	0.102703
C335	C	-0.715321	0.065153	0.155188
C336	C	-0.744628	0.057679	0.139197
H337	H	-0.724490	0.058009	0.179644
H338	H	-0.694295	0.095376	0.138961
H339	H	-0.707299	0.047138	0.157811
H340	H	-0.752646	0.075698	0.136570
H341	H	-0.765655	0.027459	0.155424
H342	H	-0.083591	-0.267900	0.454470
H343	H	-0.603634	-0.102106	0.421551
O344	O	-0.300191	-0.329183	0.741127
C345	C	-0.287511	-0.316665	0.703781
H346	H	-0.305519	-0.346415	0.702606
H347	H	-0.290573	-0.289277	0.682721
C348	C	-0.223082	-0.263262	0.694466
C349	C	-0.245198	-0.299802	0.693024
H350	H	-0.196981	-0.252858	0.687829
H351	H	-0.231625	-0.271694	0.719626
H352	H	-0.225638	-0.240444	0.676916
H353	H	-0.242646	-0.322622	0.710577
H354	H	-0.236654	-0.291374	0.667866
H355	H	-0.603611	-0.617489	0.936434
O356	O	-0.112891	0.776038	-0.072019
C357	C	-0.109405	0.810584	-0.071995
H358	H	-0.132673	0.796060	-0.046072
H359	H	-0.080078	0.831084	-0.070585
C360	C	-0.085201	0.858082	-0.140727
C361	C	-0.113782	0.840245	-0.108890
H362	H	-0.087900	0.876380	-0.163486
H363	H	-0.087548	0.834809	-0.140744
H364	H	-0.060765	0.875163	-0.139547
H365	H	-0.138218	0.823160	-0.110068
H366	H	-0.111439	0.863516	-0.108875
H367	H	-0.216241	-0.102125	0.833506
O368	O	-0.210623	-0.224327	0.831197
C369	C	-0.185634	-0.232928	0.821674
H370	H	-0.198682	-0.269762	0.841755
H371	H	-0.181018	-0.222557	0.790877
C372	C	-0.130923	-0.161337	0.801082
C373	C	-0.146947	-0.206577	0.825748
H374	H	-0.107058	-0.145081	0.803594
H375	H	-0.147758	-0.155541	0.807496
H376	H	-0.127079	-0.152700	0.775421
H377	H	-0.150794	-0.215214	0.851410
H378	H	-0.130111	-0.212373	0.819338
H379	H	-0.746593	-0.437925	0.846766
H380	H	-0.083596	0.447374	0.251094
O381	O	-0.245697	-0.058452	0.416074
C382	C	-0.208944	-0.046986	0.417960
H383	H	-0.208877	-0.077675	0.432061
H384	H	-0.187139	-0.021206	0.387801
C385	C	-0.198427	0.009861	0.424395
C386	C	-0.198346	-0.027832	0.441717
H387	H	-0.191888	0.021678	0.439048
H388	H	-0.223187	0.002138	0.423123
H389	H	-0.180257	0.031340	0.399263
H390	H	-0.216519	-0.049312	0.466846
H391	H	-0.173588	-0.020112	0.442994
O392	O	-0.530465	-0.170602	0.907399
C393	C	-0.516809	-0.181034	0.886627
H394	H	-0.534582	-0.185790	0.867520
H395	H	-0.485563	-0.152936	0.868161
C396	C	-0.498262	-0.218121	0.938162
C397	C	-0.520094	-0.223966	0.914696
H398	H	-0.500286	-0.244602	0.955476
H399	H	-0.507461	-0.211092	0.952156
H400	H	-0.472226	-0.194704	0.922769
H401	H	-0.546130	-0.247378	0.930089
H402	H	-0.510900	-0.231000	0.900705
H403	H	-0.409064	0.002281	0.744112
H404	H	-0.318960	0.182050	0.549312
H405	H	-0.698723	-0.064501	-0.033646
O406	O	-0.530687	-0.170294	0.416122
C407	C	-0.517055	-0.180823	0.447339
H408	H	-0.514115	-0.160022	0.457865
H409	H	-0.538083	-0.217373	0.471488
C410	C	-0.481341	-0.196596	0.421668
C411	C	-0.477727	-0.171046	0.434595
H412	H	-0.457082	-0.190567	0.413808
H413	H	-0.490527	-0.189504	0.400637
H414	H	-0.498866	-0.227052	0.441795
H415	H	-0.460206	-0.140590	0.414467
H416	H	-0.468537	-0.178132	0.455622
H417	H	0.168270	-0.332801	0.449197
H418	H	-0.746548	-0.437894	0.744088
O419	O	-0.698572	0.114388	-0.036401
C420	C	-0.732167	0.098997	-0.045932
H421	H	-0.755946	0.091896	-0.025784
H422	H	-0.726418	0.125251	-0.076694
C423	C	-0.715303	0.065031	-0.066752
C424	C	-0.744510	0.056306	-0.042004
H425	H	-0.722916	0.038699	-0.064331
H426	H	-0.692668	0.075402	-0.060333
H427	H	-0.710515	0.086911	-0.092385
H428	H	-0.749294	0.034431	-0.016372
H429	H	-0.767146	0.045930	-0.048419
H430	H	0.098147	-0.370609	0.454460
H431	H	-0.746623	-0.335284	0.744113
O432	O	-0.023315	0.005625	0.129538
C433	C	-0.012723	0.049370	0.109057
H434	H	-0.010695	0.062090	0.077993
H435	H	-0.035155	0.050117	0.122454
C436	C	0.023918	0.063340	0.148705
C437	C	0.026412	0.078964	0.110551
H438	H	0.048057	0.081595	0.149628
H439	H	0.016781	0.033868	0.162504
H440	H	0.005223	0.063964	0.159865
H441	H	0.045102	0.078335	0.099394
H442	H	0.033552	0.108437	0.096750
O443	O	-0.737101	-0.265035	0.622656
C444	C	-0.735225	-0.226402	0.597371
H445	H	-0.721134	-0.212236	0.566614
H446	H	-0.765387	-0.234762	0.601354
C447	C	-0.728776	-0.209441	0.643696
C448	C	-0.711465	-0.192041	0.605920
H449	H	-0.714121	-0.188246	0.648970
H450	H	-0.730041	-0.235470	0.660732
H451	H	-0.753909	-0.216408	0.647011
H452	H	-0.686334	-0.185080	0.602607
H453	H	-0.710195	-0.166010	0.588884
O454	O	-0.189546	0.450027	0.248297
C455	C	-0.168853	0.494881	0.234645
H456	H	-0.149674	0.501043	0.252345
H457	H	-0.150466	0.516528	0.203364
C458	C	-0.220550	0.498748	0.216340
C459	C	-0.196996	0.506314	0.238081
H460	H	-0.237909	0.505801	0.218457
H461	H	-0.234490	0.468529	0.225536
H462	H	-0.205223	0.516787	0.190274
H463	H	-0.212322	0.488271	0.264147
H464	H	-0.183059	0.536531	0.228890
O465	O	-0.077740	-0.549882	0.454717
C466	C	-0.064383	-0.573271	0.452814
H467	H	-0.089816	-0.607608	0.462763
H468	H	-0.046353	-0.554659	0.422044
C469	C	-0.008552	-0.535403	0.466641
C470	C	-0.039790	-0.577578	0.478864
H471	H	0.006619	-0.538059	0.482709
H472	H	-0.017550	-0.519645	0.467922
H473	H	0.006468	-0.519898	0.440999
H474	H	-0.054812	-0.593080	0.504503
H475	H	-0.030794	-0.593339	0.477588
O476	O	0.171058	0.663626	0.040274
C477	C	0.184709	0.653121	0.019576
H478	H	0.167006	0.648436	0.000401
H479	H	0.215988	0.681148	0.001186
C480	C	0.203025	0.615869	0.071267
C481	C	0.181280	0.610111	0.047717
H482	H	0.200912	0.589340	0.088625
H483	H	0.193830	0.622948	0.085211
H484	H	0.229089	0.639226	0.055937
H485	H	0.155217	0.586758	0.063047
H486	H	0.190472	0.603027	0.033777
H487	H	-0.736911	-0.267926	0.801188
O488	O	-0.135180	0.558992	0.129578
C489	C	-0.158447	0.515237	0.140196
H490	H	-0.143974	0.511596	0.121093
H491	H	-0.162791	0.491465	0.171333
C492	C	-0.215320	0.508944	0.159000
C493	C	-0.197546	0.504473	0.135535
H494	H	-0.239439	0.502303	0.156127
H495	H	-0.199645	0.538422	0.151848
H496	H	-0.218936	0.489134	0.184946
H497	H	-0.193925	0.524286	0.109590
H498	H	-0.213221	0.474997	0.142682
O499	O	0.095067	0.114333	-0.036607
C500	C	0.056820	0.078966	-0.012787
H501	H	0.054779	0.065293	0.018411
H502	H	0.037780	0.091215	-0.020236
C503	C	0.046021	0.059050	-0.057167
C504	C	0.043516	0.042254	-0.018849
H505	H	0.037814	0.036405	-0.060907
H506	H	0.071789	0.082879	-0.073216
H507	H	0.030155	0.069258	-0.063370
H508	H	0.059386	0.032053	-0.012648
H509	H	0.017750	0.018423	-0.002799
H510	H	-0.319442	-0.333300	0.549544
O511	O	-0.113352	-0.099746	-0.071540
C512	C	-0.103827	-0.056630	-0.096532
H513	H	-0.123909	-0.052925	-0.083488
H514	H	-0.073032	-0.031589	-0.101145
C515	C	-0.083228	-0.052916	-0.151242
C516	C	-0.107895	-0.048366	-0.135222
H517	H	-0.085736	-0.047817	-0.175108
H518	H	-0.089644	-0.081963	-0.134404
H519	H	-0.057568	-0.032048	-0.155082
H520	H	-0.133555	-0.069237	-0.131377
H521	H	-0.101483	-0.019322	-0.152060
H522	H	-0.736864	-0.370615	0.904116
O523	O	-0.530272	-0.549599	0.795307
C524	C	-0.548383	-0.534118	0.770307
H525	H	-0.579368	-0.552023	0.787274
H526	H	-0.532735	-0.497073	0.755737
C527	C	-0.509397	-0.521070	0.718922
C528	C	-0.547453	-0.543065	0.739761
H529	H	-0.508821	-0.526587	0.700079
H530	H	-0.497193	-0.531498	0.735765
H531	H	-0.496360	-0.490201	0.706783
H532	H	-0.560487	-0.573933	0.751903
H533	H	-0.559658	-0.532642	0.722920
O534	O	-0.736971	-0.550027	0.795789
C535	C	-0.735062	-0.573519	0.782564
H536	H	-0.720965	-0.590140	0.799226
H537	H	-0.765213	-0.599741	0.786966
C538	C	-0.728605	-0.520894	0.719199
C539	C	-0.711288	-0.541305	0.739662
H540	H	-0.713942	-0.501024	0.692734
H541	H	-0.729893	-0.505068	0.728109
H542	H	-0.753731	-0.542750	0.722871
H543	H	-0.686165	-0.519450	0.735993
H544	H	-0.709996	-0.557127	0.730750
O545	O	-0.704258	0.184664	0.040303
C546	C	-0.738827	0.181154	0.043792
H547	H	-0.750228	0.178505	0.020522
H548	H	-0.760736	0.150415	0.073119
C549	C	-0.717588	0.225674	0.068003
C550	C	-0.731590	0.222425	0.039420
H551	H	-0.713125	0.251130	0.065307
H552	H	-0.694299	0.228037	0.065654
H553	H	-0.735848	0.200056	0.092439
H554	H	-0.713328	0.248040	0.014984
H555	H	-0.754876	0.220067	0.041764
H556	H	-0.248781	-0.064547	0.801185
H557	H	-0.318966	-0.205062	0.421573
H558	H	-0.026532	0.562076	0.126645
H559	H	-0.216510	-0.230349	0.549312
O560	O	-0.112807	0.379755	0.324183
C561	C	-0.076087	0.403256	0.298783
H562	H	-0.076123	0.419888	0.268064
H563	H	-0.054271	0.429468	0.302724
C564	C	-0.065350	0.350621	0.344940
C565	C	-0.065396	0.371046	0.307211
H566	H	-0.058754	0.330753	0.350139
H567	H	-0.090088	0.334789	0.362053
H568	H	-0.047170	0.372468	0.348219
H569	H	-0.083578	0.349199	0.303933
H570	H	-0.040660	0.386874	0.290097
O571	O	-0.112869	-0.620286	0.448921
C572	C	-0.109383	-0.616770	0.414348
H573	H	-0.132656	-0.614122	0.402952
H574	H	-0.080059	-0.586028	0.392436
C575	C	-0.085167	-0.661285	0.435572
C576	C	-0.113753	-0.658036	0.421577
H577	H	-0.087860	-0.686739	0.440031
H578	H	-0.087513	-0.663653	0.458864
H579	H	-0.060732	-0.635665	0.417311
H580	H	-0.138186	-0.683654	0.439841
H581	H	-0.111410	-0.655674	0.398288
H582	H	-0.603629	-0.205569	0.936941
O583	O	-0.224672	-0.620490	0.448896
C584	C	-0.224584	-0.617005	0.414333
H585	H	-0.194670	-0.589298	0.392224
H586	H	-0.233193	-0.649548	0.419571
C587	C	-0.290009	-0.640694	0.426523
C588	C	-0.253269	-0.606661	0.399368
H589	H	-0.307704	-0.634316	0.417292
H590	H	-0.290069	-0.643044	0.449809
H591	H	-0.297178	-0.667811	0.430885
H592	H	-0.246099	-0.579547	0.395010
H593	H	-0.253209	-0.604307	0.376080
O594	O	-0.189642	0.623330	0.074946
C595	C	-0.226365	0.612003	0.088168
H596	H	-0.226332	0.642757	0.071502
H597	H	-0.248177	0.586248	0.083768
C598	C	-0.237098	0.555107	0.151536
C599	C	-0.237057	0.592879	0.131069
H600	H	-0.243695	0.543308	0.178000
H601	H	-0.212358	0.562736	0.142628
H602	H	-0.255275	0.533649	0.147866
H603	H	-0.218876	0.614338	0.134736
H604	H	-0.261794	0.585253	0.139979
H605	H	-0.703983	-0.102076	-0.066188
H606	H	-0.736784	-0.552582	0.904379
H607	H	-0.248821	-0.267946	0.801683
O608	O	-0.704290	0.184869	-0.071502
C609	C	-0.738851	0.181387	-0.071418
H610	H	-0.760960	0.153681	-0.041503
H611	H	-0.733613	0.213932	-0.080029
C612	C	-0.726659	0.205075	-0.136843
C613	C	-0.753815	0.171044	-0.100102
H614	H	-0.735889	0.198697	-0.154539
H615	H	-0.703374	0.207423	-0.136901
H616	H	-0.722297	0.232193	-0.144014
H617	H	-0.758173	0.143928	-0.092930
H618	H	-0.777101	0.168692	-0.100044
H619	H	-0.115906	-0.230094	0.449199
O620	O	-0.530522	-0.549864	0.907222
C621	C	-0.555918	-0.573367	0.943945
H622	H	-0.586637	-0.590000	0.943911
H623	H	-0.551975	-0.599580	0.965758
C624	C	-0.509760	-0.520735	0.954681
C625	C	-0.547490	-0.541161	0.954638
H626	H	-0.504560	-0.500870	0.961278
H627	H	-0.492649	-0.504901	0.929940
H628	H	-0.506479	-0.542583	0.972858
H629	H	-0.550769	-0.519313	0.936457
H630	H	-0.564601	-0.556990	0.979376
H631	H	-0.248783	0.116982	0.416292
H632	H	-0.219102	-0.205318	0.037273
O633	O	-0.704233	-0.211146	0.324437
C634	C	-0.702326	-0.222594	0.299141
H635	H	-0.712281	-0.207113	0.274757
H636	H	-0.671554	-0.209843	0.286977
C637	C	-0.716134	-0.292246	0.350830
C638	C	-0.728365	-0.273236	0.320883
H639	H	-0.732194	-0.323485	0.364241
H640	H	-0.717417	-0.284534	0.367873
H641	H	-0.690491	-0.281616	0.340689
H642	H	-0.754005	-0.283862	0.331025
H643	H	-0.727086	-0.280952	0.303843
H644	H	-0.306412	0.002291	0.406538
O645	O	-0.731426	-0.224042	0.830393
C646	C	-0.733339	-0.212728	0.793676
H647	H	-0.723379	-0.228272	0.784875
H648	H	-0.764113	-0.225510	0.794254
C649	C	-0.719544	-0.143011	0.775486
C650	C	-0.707308	-0.162100	0.764675
H651	H	-0.703489	-0.111782	0.757597
H652	H	-0.718257	-0.150634	0.800224
H653	H	-0.745189	-0.153668	0.775968
H654	H	-0.681666	-0.151448	0.764199
H655	H	-0.708590	-0.154474	0.739937
H656	H	-0.731621	-0.332818	0.936436
O657	O	-0.731252	-0.620155	0.942763
C658	C	-0.733178	-0.596675	0.955993
H659	H	-0.723236	-0.562374	0.930491
H660	H	-0.763953	-0.615262	0.973994
C661	C	-0.719351	-0.634381	1.011900
C662	C	-0.707138	-0.592251	0.980578
H663	H	-0.703290	-0.631653	1.027067
H664	H	-0.718055	-0.650201	1.002988
H665	H	-0.744997	-0.649866	1.026897
H666	H	-0.681494	-0.576768	0.965580
H667	H	-0.708429	-0.576428	0.989489
H668	H	-0.026519	-0.335272	0.464210
O669	O	-0.357606	-0.376992	0.907503
C670	C	-0.370964	-0.388447	0.944249
H671	H	-0.345530	-0.372966	0.953154
H672	H	-0.388989	-0.375701	0.943665
C673	C	-0.426799	-0.458099	0.962208
C674	C	-0.395561	-0.439090	0.973147
H675	H	-0.441973	-0.489338	0.980034
H676	H	-0.417800	-0.450382	0.937451
H677	H	-0.441816	-0.447474	0.961722
H678	H	-0.380542	-0.449711	0.973629
H679	H	-0.404557	-0.446810	0.997905
O680	O	-0.077992	-0.058712	-0.036350
C681	C	-0.066305	-0.044163	-0.012630
H682	H	-0.092602	-0.058037	0.009761
H683	H	-0.048679	-0.056180	0.002282
C684	C	-0.009524	0.023743	-0.064609
C685	C	-0.041824	0.006706	-0.037111
H686	H	0.005578	0.055122	-0.079709
H687	H	-0.017397	0.013941	-0.080589
H688	H	0.005159	0.013725	-0.052178
H689	H	-0.056509	0.016720	-0.049541
H690	H	-0.033953	0.016512	-0.021133
H691	H	-0.703996	-0.205029	0.036528
O692	O	-0.357623	-0.376956	0.622652
C693	C	-0.370977	-0.388417	0.597363
H694	H	-0.354380	-0.357729	0.566607
H695	H	-0.366613	-0.414208	0.601343
C696	C	-0.434266	-0.445241	0.643684
C697	C	-0.413883	-0.407549	0.605909
H698	H	-0.460733	-0.457045	0.648956
H699	H	-0.425269	-0.437521	0.660722
H700	H	-0.430624	-0.466729	0.646996
H701	H	-0.417521	-0.386060	0.602599
H702	H	-0.422882	-0.415266	0.588870
O703	O	-0.077747	0.734875	-0.036620
C704	C	-0.066198	0.708175	-0.012799
H705	H	-0.083722	0.688609	0.018399
H706	H	-0.070998	0.684334	-0.020246
C707	C	-0.001904	0.761676	-0.057180
C708	C	-0.023425	0.737647	-0.018862
H709	H	0.024481	0.779855	-0.060921
H710	H	-0.009684	0.779664	-0.073230
H711	H	-0.005908	0.741804	-0.063381
H712	H	-0.019424	0.757519	-0.012663
H713	H	-0.015642	0.719663	-0.002812
O714	O	-0.189635	-0.376692	0.454684
C715	C	-0.226349	-0.388002	0.452766
H716	H	-0.235154	-0.372463	0.462728
H717	H	-0.225765	-0.375212	0.421989
C718	C	-0.244532	-0.457713	0.466551
C719	C	-0.255349	-0.438630	0.478790
H720	H	-0.262421	-0.488942	0.482603
H721	H	-0.219797	-0.450092	0.467842
H722	H	-0.244046	-0.447050	0.440904
H723	H	-0.255830	-0.449289	0.504436
H724	H	-0.280085	-0.446253	0.477504
O725	O	-0.606467	-0.620066	0.830462
C726	C	-0.637526	-0.616555	0.826976
H727	H	-0.646273	-0.613904	0.850247
H728	H	-0.628700	-0.585816	0.797649
C729	C	-0.660817	-0.661077	0.802768
C730	C	-0.671562	-0.657825	0.831351
H731	H	-0.681812	-0.686533	0.805464
H732	H	-0.639891	-0.663441	0.805115
H733	H	-0.653462	-0.635459	0.778331
H734	H	-0.678913	-0.683440	0.855786
H735	H	-0.692490	-0.655466	0.829008
O736	O	-0.731345	-0.223984	0.546486
C737	C	-0.696788	-0.189427	0.515412
H738	H	-0.674662	-0.197214	0.520930
H739	H	-0.702023	-0.185943	0.488071
C740	C	-0.709030	-0.136302	0.504168
C741	C	-0.681854	-0.145865	0.510947
H742	H	-0.699819	-0.109430	0.501413
H743	H	-0.732313	-0.159584	0.525103
H744	H	-0.713390	-0.133401	0.481385
H745	H	-0.677498	-0.148771	0.533732
H746	H	-0.658571	-0.122582	0.490016
O747	O	-0.224726	0.379420	0.324490
C748	C	-0.248813	0.334559	0.338147
H749	H	-0.235795	0.328469	0.320374
H750	H	-0.251962	0.312943	0.369394
C751	C	-0.304445	0.330460	0.356690
C752	C	-0.288458	0.322981	0.334859
H753	H	-0.328901	0.323317	0.354664
H754	H	-0.288217	0.360683	0.347491
H755	H	-0.307066	0.312446	0.382727
H756	H	-0.285833	0.340999	0.308822
H757	H	-0.304687	0.292760	0.344054
O758	O	-0.731289	-0.620518	0.831207
C759	C	-0.762492	-0.665379	0.851973
H760	H	-0.773025	-0.678748	0.883270
H761	H	-0.786641	-0.668571	0.839559
C762	C	-0.736791	-0.675594	0.810711
C763	C	-0.749726	-0.692015	0.849150
H764	H	-0.728917	-0.692025	0.808968
H765	H	-0.715769	-0.645370	0.796719
H766	H	-0.756918	-0.678255	0.800370
H767	H	-0.729598	-0.689349	0.859489
H768	H	-0.770744	-0.722239	0.863144
O769	O	0.094862	0.622768	0.075410
C770	C	0.095564	0.589775	0.076225
H771	H	0.100135	0.597534	0.046281
H772	H	0.119931	0.588811	0.086304
C773	C	0.051628	0.535026	0.140730
C774	C	0.057238	0.544554	0.103953
H775	H	0.027988	0.507130	0.157835
H776	H	0.051155	0.557254	0.140181
H777	H	0.071936	0.534225	0.149123
H778	H	0.036933	0.545359	0.095558
H779	H	0.057707	0.522324	0.104501
O780	O	-0.322451	-0.336171	0.942827
C781	C	-0.301752	-0.346677	0.966984
H782	H	-0.282577	-0.351362	0.953966
H783	H	-0.283361	-0.318651	0.970236
C784	C	-0.353439	-0.383930	1.022552
C785	C	-0.329890	-0.389687	1.006565
H786	H	-0.370795	-0.410459	1.046967
H787	H	-0.367383	-0.376850	1.006276
H788	H	-0.338109	-0.360573	1.025259
H789	H	-0.345220	-0.413040	1.003853
H790	H	-0.315949	-0.396772	1.022840
H791	H	-0.248828	-0.267934	0.619437
H792	H	-0.736826	-0.370584	0.619428
H793	H	-0.731542	-0.332763	0.549297
O794	O	-0.322010	0.184838	0.421864
C795	C	-0.325408	0.181353	0.456426
H796	H	-0.323197	0.153648	0.478536
H797	H	-0.301476	0.213898	0.451189
C798	C	-0.367149	0.205035	0.444234
C799	C	-0.364437	0.171006	0.471390
H800	H	-0.391223	0.198655	0.453464
H801	H	-0.364859	0.207385	0.420948
H802	H	-0.347204	0.232153	0.439872
H803	H	-0.384379	0.143890	0.475749
H804	H	-0.366731	0.168651	0.494678
H805	H	-0.688968	-0.100354	0.126648
O806	O	-0.224672	-0.335537	0.448889
C807	C	-0.224570	-0.304374	0.414310
H808	H	-0.198588	-0.269745	0.402931
H809	H	-0.223212	-0.311794	0.392392
C810	C	-0.293300	-0.349621	0.435494
C811	C	-0.261390	-0.307088	0.421519
H812	H	-0.316013	-0.351296	0.439940
H813	H	-0.293369	-0.370617	0.458790
H814	H	-0.292163	-0.355799	0.417227
H815	H	-0.262525	-0.300913	0.439788
H816	H	-0.261322	-0.286091	0.398226
O817	O	-0.023578	0.670584	0.018004
C818	C	-0.012981	0.660704	-0.005264
H819	H	-0.010945	0.631673	0.013078
H820	H	-0.035413	0.651664	-0.019407
C821	C	0.023646	0.736994	-0.058882
C822	C	0.026150	0.701340	-0.036354
H823	H	0.047783	0.762060	-0.078061
H824	H	0.016506	0.743650	-0.043206
H825	H	0.004951	0.729455	-0.070664
H826	H	0.044842	0.708877	-0.024569
H827	H	0.033295	0.694686	-0.052029
H828	H	-0.351507	-0.167480	0.416310
H829	H	-0.688959	0.002320	0.023982
H830	H	-0.688958	0.002312	0.126645
H831	H	-0.603859	-0.102861	0.834223
O832	O	0.094925	-0.265042	0.454711
C833	C	0.120217	-0.226392	0.452804
H834	H	0.144602	-0.227440	0.462759
H835	H	0.132380	-0.196204	0.422032
C836	C	0.068526	-0.222246	0.466617
C837	C	0.098474	-0.223536	0.478846
H838	H	0.055114	-0.220483	0.482679
H839	H	0.051486	-0.248285	0.467899
H840	H	0.078666	-0.197090	0.440973
H841	H	0.088334	-0.248695	0.504487
H842	H	0.115512	-0.197501	0.477568
O843	O	0.171534	0.185033	0.039645
C844	C	0.170846	0.152159	0.073336
H845	H	0.145668	0.118125	0.082341
H846	H	0.198690	0.155341	0.067784
C847	C	0.197415	0.199726	0.094413
C848	C	0.166489	0.157925	0.105475
H849	H	0.194729	0.203284	0.114238
H850	H	0.197880	0.221875	0.071714
H851	H	0.220615	0.202373	0.089786
H852	H	0.143290	0.155281	0.110097
H853	H	0.166020	0.135776	0.128175
H854	H	0.168288	0.182072	-0.066168
H855	H	-0.703973	-0.102102	0.321217
H856	H	-0.318955	-0.205075	0.936439
H857	H	-0.026523	-0.437938	0.464222
O858	O	-0.189540	-0.170275	0.075451
C859	C	-0.165720	-0.143575	0.086999
H860	H	-0.134523	-0.124011	0.069474
H861	H	-0.173166	-0.119733	0.082197
C862	C	-0.210099	-0.197074	0.151295
C863	C	-0.171782	-0.173048	0.129773
H864	H	-0.213839	-0.215253	0.177681
H865	H	-0.226148	-0.215062	0.143515
H866	H	-0.216299	-0.177201	0.147290
H867	H	-0.165583	-0.192921	0.133775
H868	H	-0.155731	-0.155064	0.137555
H869	H	-0.698730	-0.167452	0.069074
O870	O	-0.411953	0.005376	0.406443
C871	C	-0.387113	0.042907	0.406246
H872	H	-0.364389	0.039894	0.418630
H873	H	-0.372674	0.073855	0.375603
C874	C	-0.438088	0.049870	0.415484
C875	C	-0.410181	0.046167	0.430698
H876	H	-0.452317	0.051882	0.430565
H877	H	-0.454824	0.024585	0.415615
H878	H	-0.426051	0.075659	0.389949
H879	H	-0.422218	0.020375	0.456231
H880	H	-0.393448	0.071447	0.430571
H881	H	-0.216243	0.181840	0.421552
O882	O	-0.698505	-0.058446	0.248109
C883	C	-0.700395	-0.046985	0.273398
H884	H	-0.714486	-0.077674	0.304153
H885	H	-0.670239	-0.021197	0.269420
C886	C	-0.706855	0.009846	0.227075
C887	C	-0.724165	-0.027847	0.264850
H888	H	-0.721516	0.021653	0.221802
H889	H	-0.705580	0.002126	0.210037
H890	H	-0.681725	0.031331	0.223765
H891	H	-0.749292	-0.049334	0.268158
H892	H	-0.725444	-0.020130	0.281889
O893	O	-0.189629	-0.550086	0.454665
C894	C	-0.226351	-0.573587	0.452769
H895	H	-0.226317	-0.590219	0.438682
H896	H	-0.248163	-0.599801	0.482924
C897	C	-0.237086	-0.520955	0.446294
C898	C	-0.237044	-0.541379	0.428989
H899	H	-0.243684	-0.501088	0.431628
H900	H	-0.212346	-0.505122	0.447573
H901	H	-0.255263	-0.542803	0.471423
H902	H	-0.218864	-0.519531	0.403863
H903	H	-0.261782	-0.557207	0.427706
H904	H	-0.306409	0.002273	0.744116
H905	H	-0.409065	-0.100386	0.846776
O906	O	-0.210371	-0.099292	0.421733
C907	C	-0.186216	-0.088767	0.390517
H908	H	-0.204080	-0.109572	0.379994
H909	H	-0.170697	-0.052218	0.366365
C910	C	-0.134722	-0.072988	0.416181
C911	C	-0.156663	-0.098543	0.403259
H912	H	-0.116491	-0.079016	0.424040
H913	H	-0.150995	-0.080077	0.437211
H914	H	-0.121793	-0.042533	0.396052
H915	H	-0.169595	-0.128998	0.423389
H916	H	-0.140391	-0.091460	0.382232
H917	H	-0.698734	-0.167468	0.251322
O918	O	-0.077994	-0.058712	0.248350
C919	C	-0.064767	-0.047398	0.273752
H920	H	-0.090270	-0.062945	0.298100
H921	H	-0.046773	-0.060178	0.285955
C922	C	-0.008852	0.022321	0.222221
C923	C	-0.040175	0.003229	0.252124
H924	H	0.006319	0.053550	0.208880
H925	H	-0.017762	0.014698	0.205107
H926	H	0.006139	0.011667	0.232395
H927	H	-0.055168	0.013880	0.241950
H928	H	-0.031267	0.010855	0.269236
O929	O	-0.113367	-0.099867	0.324547
C930	C	-0.109952	-0.131021	0.355618
H931	H	-0.133189	-0.165653	0.364263
H932	H	-0.080606	-0.123590	0.346856
C933	C	-0.085935	-0.085773	0.379102
C934	C	-0.114477	-0.128309	0.389721
H935	H	-0.088724	-0.084100	0.400138
H936	H	-0.088234	-0.064783	0.358168
H937	H	-0.061483	-0.079586	0.371800
H938	H	-0.138928	-0.134494	0.397019
H939	H	-0.112182	-0.149301	0.410658
H940	H	-0.216244	0.181831	0.549546
H941	H	-0.248781	0.116975	0.619667
O942	O	-0.357366	-0.170393	0.907224
C943	C	-0.370587	-0.209013	0.943948
H944	H	-0.353921	-0.223066	0.943914
H945	H	-0.366188	-0.200672	0.965761
C946	C	-0.433954	-0.226222	0.954681
C947	C	-0.413487	-0.243484	0.954639
H948	H	-0.460417	-0.247486	0.961278
H949	H	-0.425047	-0.200202	0.929940
H950	H	-0.430284	-0.219272	0.972859
H951	H	-0.417153	-0.250429	0.936458
H952	H	-0.422396	-0.269506	0.979377
O953	O	0.171264	0.775469	-0.071559
C954	C	0.153139	0.766869	-0.096548
H955	H	0.136388	0.730036	-0.083501
H956	H	0.132712	0.777238	-0.101163
C957	C	0.204135	0.838464	-0.151261
C958	C	0.183564	0.793225	-0.135238
H959	H	0.222902	0.854723	-0.175127
H960	H	0.216346	0.844259	-0.134425
H961	H	0.187109	0.847098	-0.155104
H962	H	0.200589	0.784590	-0.131391
H963	H	0.171357	0.787429	-0.152074
O964	O	-0.530520	-0.058434	0.416049
C965	C	-0.555812	-0.046981	0.417954
H966	H	-0.580198	-0.062461	0.408001
H967	H	-0.567974	-0.059729	0.448726
C968	C	-0.504120	0.022671	0.404139
C969	C	-0.534069	0.003662	0.391911
H970	H	-0.490708	0.053909	0.388076
H971	H	-0.487080	0.014954	0.402857
H972	H	-0.514259	0.012043	0.429782
H973	H	-0.523929	0.014284	0.366270
H974	H	-0.551106	0.011381	0.393188
O975	O	-0.606937	-0.211108	0.421745
C976	C	-0.620578	-0.203983	0.390530
H977	H	-0.623410	-0.175519	0.379997
H978	H	-0.599612	-0.195433	0.366384
C979	C	-0.656495	-0.281158	0.416213
C980	C	-0.659977	-0.246201	0.403279
H981	H	-0.680798	-0.307201	0.424076
H982	H	-0.647304	-0.285959	0.437243
H983	H	-0.639023	-0.274027	0.396089
H984	H	-0.677446	-0.253330	0.423404
H985	H	-0.669172	-0.241402	0.382253
H986	H	0.098133	0.731846	-0.033359
O987	O	-0.134918	-0.105980	0.129621
C988	C	-0.158181	-0.096088	0.140208
H989	H	-0.139835	-0.067048	0.142229
H990	H	-0.172328	-0.087059	0.117776
C991	C	-0.211798	-0.172378	0.176861
C992	C	-0.189265	-0.136712	0.179346
H993	H	-0.230974	-0.197437	0.201002
H994	H	-0.196126	-0.179042	0.169727
H995	H	-0.223584	-0.164847	0.158166
H996	H	-0.177476	-0.144241	0.198037
H997	H	-0.204936	-0.130050	0.186484
O998	O	-0.224973	-0.211379	0.324185
C999	C	-0.238194	-0.222702	0.298786
H1000	H	-0.221525	-0.191948	0.268067
H1001	H	-0.233800	-0.248461	0.302731
C1002	C	-0.301564	-0.279590	0.344940
C1003	C	-0.281093	-0.241816	0.307210
H1004	H	-0.328026	-0.291382	0.350137
H1005	H	-0.292657	-0.271963	0.362053
H1006	H	-0.297898	-0.301051	0.348223
H1007	H	-0.284755	-0.220353	0.303929
H1008	H	-0.290002	-0.249440	0.290097
H1009	H	-0.409071	-0.100371	0.406540
H1010	H	-0.026278	0.002524	0.023995
H1011	H	-0.186568	-0.167508	0.251099
H1012	H	-0.129182	-0.437934	0.464216
H1013	H	-0.408822	-0.437715	0.846775
H1014	H	0.098393	0.117436	0.069088
