data_functionalizedCrystal
_audit_creation_method	'MofGen! by Chris Wilmer'
_symmetry_space_group_name_H-M	'P1'
_symmetry_Int_Tables_number	1
_symmetry_cell_setting	triclinic
loop_
_symmetry_equiv_pos_as_xyz
  x,y,z
_cell_length_a	14.971486
_cell_length_b	9.730223
_cell_length_c	10.654551
_cell_angle_alpha	90.001209
_cell_angle_beta	84.049779
_cell_angle_gamma	89.998521
loop_
_atom_site_label
_atom_site_type_symbol
_atom_site_fract_x
_atom_site_fract_y
_atom_site_fract_z
O1	O	1.187835	0.114126	0.163653
O2	O	0.927541	0.114163	0.183252
O3	O	1.063672	0.114141	-0.009351
O4	O	1.051704	0.114149	0.356256
O5	O	1.063662	-0.114439	-0.009351
O6	O	0.927532	-0.114417	0.183252
O7	O	1.187825	-0.114454	0.163653
Zn8	Zn	1.057677	-0.150727	0.173452
Zn9	Zn	1.057689	0.150437	0.173452
O10	O	1.051694	-0.114431	0.356256
C11	C	0.894207	-0.000122	0.182375
C12	C	0.794896	-0.000108	0.179749
N13	N	1.057675	-0.356264	0.173452
C14	C	1.062788	-0.000147	-0.056139
C15	C	1.060158	-0.000140	-0.195554
C16	C	0.738286	-0.000108	0.292897
C17	C	0.644973	-0.000128	0.290422
C18	C	0.608271	-0.000139	0.174796
C19	C	0.664888	-0.000144	0.061639
C20	C	0.758199	-0.000133	0.064116
C21	C	0.470397	-0.000163	0.056485
C22	C	0.377080	-0.000171	0.054007
C23	C	0.357172	-0.000158	0.282791
C24	C	0.450483	-0.000147	0.285268
C25	C	0.507093	-0.000149	0.172110
C26	C	1.221159	-0.000165	0.164530
C27	C	1.320471	-0.000171	0.167156
C28	C	1.112394	-0.428191	0.249747
C29	C	1.112409	-0.572074	0.249740
C30	C	1.002977	-0.572090	0.097139
C31	C	1.002968	-0.428209	0.097141
N32	N	1.057699	0.355973	0.173443
C33	C	1.058929	0.124460	-0.261045
C34	C	1.056451	0.124462	-0.392039
C35	C	1.056434	-0.124749	-0.392040
C36	C	1.058906	-0.124749	-0.261048
C37	C	1.052578	-0.000141	0.403044
C38	C	1.055208	-0.000138	0.542459
H39	H	0.768161	-0.000097	0.387053
C40	C	0.894788	-0.442665	-0.053695
C41	C	0.942812	-0.349136	0.013274
H42	H	0.857651	-0.393845	-0.105463
H43	H	0.935634	-0.498778	-0.105059
H44	H	0.858496	-0.498789	0.004026
H45	H	0.979109	-0.293018	-0.044446
H46	H	0.901960	-0.293000	0.064642
C47	C	1.056661	-0.371081	-0.378883
C48	C	1.055065	-0.261715	-0.464035
H49	H	1.055812	-0.455639	-0.423330
H50	H	1.109690	-0.365908	-0.337291
H51	H	1.005553	-0.365878	-0.318291
H52	H	1.106177	-0.266912	-0.524622
H53	H	1.002031	-0.266890	-0.505648
H54	H	1.156940	-0.369617	0.311884
C55	C	1.262543	-0.616332	0.299421
C56	C	1.172557	-0.651132	0.333611
H57	H	1.299677	-0.665133	0.351208
H58	H	1.278632	-0.639919	0.213545
H59	H	1.270351	-0.520341	0.310345
H60	H	1.164749	-0.747121	0.322678
H61	H	1.156464	-0.627554	0.419508
H62	H	0.958435	-0.630685	0.035011
C63	C	0.365308	0.117300	-0.141770
C64	C	0.336732	-0.000193	-0.073087
H65	H	0.340400	0.117279	-0.220235
H66	H	0.345921	0.197001	-0.095181
H67	H	0.428982	0.117285	-0.156491
H68	H	0.273057	-0.000173	-0.058357
H69	H	0.356113	-0.079915	-0.119685
C70	C	1.058685	0.370792	-0.274204
C71	C	1.060293	0.261428	-0.189051
H72	H	1.059519	0.455351	-0.229756
H73	H	1.109786	0.365604	-0.334789
H74	H	1.005650	0.365601	-0.315799
H75	H	1.113332	0.266613	-0.147462
H76	H	1.009187	0.266618	-0.128443
H77	H	1.055448	0.225924	-0.445355
H78	H	1.059902	-0.226219	-0.207723
H79	H	0.598885	-0.000126	0.382559
H80	H	0.480362	-0.000125	0.379420
C81	C	0.768511	-0.000123	-0.162274
C82	C	0.820428	-0.000121	-0.060261
H83	H	0.806930	-0.000110	-0.239059
H84	H	0.731710	-0.079834	-0.158484
H85	H	0.731694	0.079588	-0.158470
H86	H	0.857241	-0.079838	-0.064059
H87	H	0.857244	0.079598	-0.064053
C88	C	0.205296	-0.000179	0.380593
C89	C	0.294949	-0.000158	0.407178
H90	H	0.166882	-0.000180	0.457383
H91	H	0.194093	0.079517	0.333188
H92	H	0.194109	-0.079905	0.333195
H93	H	0.306138	0.079574	0.454569
H94	H	0.306156	-0.079863	0.454604
C95	C	0.586882	0.117348	-0.073447
C96	C	0.532630	-0.000161	-0.067896
H97	H	0.625305	0.117348	-0.150228
H98	H	0.550060	0.197039	-0.069663
H99	H	0.622086	0.117337	-0.004220
H100	H	0.497421	-0.000144	-0.137117
H101	H	0.569456	-0.079872	-0.071692
H102	H	0.634998	-0.000173	-0.032505
