data_functionalizedCrystal
_audit_creation_method	'MofGen! by Chris Wilmer'
_symmetry_space_group_name_H-M	'P1'
_symmetry_Int_Tables_number	1
_symmetry_cell_setting	triclinic
loop_
_symmetry_equiv_pos_as_xyz
  x,y,z
_cell_length_a	25.639242
_cell_length_b	25.639240
_cell_length_c	21.295411
_cell_angle_alpha	90.026709
_cell_angle_beta	90.025490
_cell_angle_gamma	90.025061
loop_
_atom_site_label
_atom_site_type_symbol
_atom_site_fract_x
_atom_site_fract_y
_atom_site_fract_z
Zn1	Zn	0.799304	-0.208318	0.355905
Zn2	Zn	0.799220	-0.295738	0.250621
Zn3	Zn	0.711863	-0.208306	0.250648
Zn4	Zn	0.711834	-0.295712	0.355851
O5	O	0.755555	-0.252018	0.303256
O6	O	0.872458	-0.219930	0.341950
O7	O	0.787608	-0.284146	0.162535
O8	O	0.723510	-0.135143	0.264645
O9	O	0.872396	-0.284157	0.264598
O10	O	0.787752	-0.135151	0.341976
O11	O	0.723428	-0.219910	0.162555
O12	O	0.638694	-0.219886	0.264592
O13	O	0.723461	-0.284113	0.443947
O14	O	0.638673	-0.284102	0.341884
O15	O	0.787724	-0.219905	0.443987
O16	O	0.787580	-0.368900	0.264546
O17	O	0.723379	-0.368881	0.341858
C18	C	0.619713	-0.251990	0.303236
C19	C	0.561599	-0.251991	0.303242
C20	C	0.310446	-0.218635	0.343607
C21	C	0.365050	-0.218630	0.343603
O22	O	0.393321	-0.190247	0.377918
N23	N	0.392325	-0.252012	0.303263
C24	C	0.364993	-0.285406	0.262929
O25	O	0.393206	-0.313801	0.228617
C26	C	0.310389	-0.285414	0.262936
C27	C	0.283117	-0.252025	0.303274
C28	C	0.283174	-0.185249	0.383942
C29	C	0.228573	-0.185254	0.383944
C30	C	0.201245	-0.218644	0.343612
C31	C	0.228517	-0.252030	0.303277
C32	C	0.283058	-0.318810	0.222606
C33	C	0.228451	-0.318815	0.222617
C34	C	0.201179	-0.285426	0.262955
C35	C	0.146588	-0.285424	0.262947
N36	N	0.119313	-0.252042	0.303287
C37	C	0.146641	-0.218651	0.343619
C38	C	0.479663	-0.285389	0.262918
C39	C	0.534266	-0.285379	0.262907
C40	C	0.534319	-0.218603	0.343582
C41	C	0.479716	-0.218611	0.343589
C42	C	0.452388	-0.252006	0.303258
C43	C	0.031976	-0.218663	0.343621
C44	C	-0.022629	-0.218669	0.343618
C45	C	-0.022678	-0.285447	0.262946
C46	C	0.031923	-0.285439	0.262946
C47	C	0.059248	-0.252046	0.303289
O48	O	0.118282	-0.313795	0.228651
O49	O	0.118421	-0.190267	0.377931
C50	C	0.755481	-0.387861	0.303207
C51	C	0.755498	-0.445975	0.303207
C52	C	0.789023	-0.806304	0.343595
C53	C	0.789038	-0.860908	0.343608
O54	O	0.817455	-0.889116	0.377897
N55	N	0.755628	-0.888258	0.303317
C56	C	0.722196	-0.861000	0.263015
O57	O	0.693779	-0.889276	0.228746
C58	C	0.722178	-0.806396	0.263006
C59	C	0.755595	-0.779050	0.303295
C60	C	0.822436	-0.778958	0.383882
C61	C	0.822421	-0.724357	0.383868
C62	C	0.788993	-0.697103	0.343568
C63	C	0.755580	-0.724449	0.303281
C64	C	0.688744	-0.779139	0.222707
C65	C	0.688729	-0.724532	0.222702
C66	C	0.722146	-0.697186	0.262991
C67	C	0.722137	-0.642595	0.262967
N68	N	0.755547	-0.615246	0.303258
C69	C	0.788976	-0.642500	0.343559
C70	C	0.722235	-0.975670	0.263038
C71	C	0.722255	-1.030273	0.263044
C72	C	0.789097	-1.030177	0.343638
C73	C	0.789079	-0.975574	0.343629
C74	C	0.755646	-0.948321	0.303329
C75	C	0.788942	-0.527835	0.343526
C76	C	0.788926	-0.473229	0.343507
C77	C	0.722082	-0.473329	0.262916
C78	C	0.722100	-0.527930	0.262932
C79	C	0.755532	-0.555181	0.303243
O80	O	0.693733	-0.614352	0.228697
O81	O	0.817383	-0.614216	0.377828
C82	C	0.891928	-0.252047	0.303277
C83	C	0.950042	-0.252059	0.303286
C84	C	0.755599	-0.252007	0.467447
C85	C	0.755617	-0.252003	0.537415
C86	C	0.755644	-0.115645	0.303319
C87	C	0.755681	-0.057531	0.303346
C88	C	0.755542	-0.251992	0.139705
C89	C	0.755625	-0.251849	0.069737
C90	C	0.789078	-0.218568	0.570303
C91	C	0.789077	-0.218545	0.636045
C92	C	0.755621	-0.251967	0.668897
C93	C	0.722154	-0.285404	0.636001
C94	C	0.722152	-0.285422	0.570260
N95	N	0.751586	-0.297704	0.772108
N96	N	0.751591	-0.297686	0.834559
C97	C	0.755625	-0.251914	0.866972
N98	N	0.759664	-0.206160	0.834574
N99	N	0.759661	-0.206179	0.772117
C100	C	0.755620	-0.251951	0.740183
C101	C	0.789086	-0.218452	0.971146
C102	C	0.789082	-0.218428	1.036890
C103	C	0.722162	-0.285291	1.036844
C104	C	0.722163	-0.285310	0.971101
C105	C	0.755628	-0.251891	0.938256
H106	H	0.305419	-0.158059	0.416788
H107	H	0.816332	-0.191237	0.944402
O108	O	0.821492	-1.056681	0.382858
C109	C	0.828499	-1.118309	0.467838
C110	C	0.791754	-1.088316	0.423474
H111	H	0.804471	-1.143901	0.500678
H112	H	0.852370	-1.089411	0.496682
H113	H	0.855866	-1.143846	0.438960
H114	H	0.764355	-1.062778	0.452303
H115	H	0.767921	-1.117242	0.394628
H116	H	0.816324	-0.191316	0.662828
O117	O	0.689537	-0.446905	0.223805
C118	C	0.600603	-0.430243	0.193194
C119	C	0.637407	-0.460212	0.237509
H120	H	0.558447	-0.440982	0.204267
H121	H	0.609756	-0.441002	0.142433
H122	H	0.606361	-0.386523	0.200105
H123	H	0.631668	-0.503939	0.230655
H124	H	0.628244	-0.449410	0.288254
O125	O	-0.049174	-0.317955	0.223802
C126	C	-0.065959	-0.406859	0.193082
C127	C	-0.035909	-0.370099	0.237437
H128	H	-0.055254	-0.449026	0.204099
H129	H	-0.055237	-0.397664	0.142330
H130	H	-0.109666	-0.401098	0.200011
H131	H	0.007805	-0.375840	0.230564
H132	H	-0.046674	-0.379303	0.288172
H133	H	0.816289	-0.953312	0.376436
O134	O	0.656324	-0.698003	0.183522
C135	C	0.649300	-0.636436	0.098480
C136	C	0.686056	-0.666436	0.142822
H137	H	0.673324	-0.610915	0.065554
H138	H	0.621950	-0.610841	0.127309
H139	H	0.625411	-0.665375	0.069720
H140	H	0.709979	-0.637534	0.171592
H141	H	0.713371	-0.692039	0.113957
H142	H	0.054218	-0.191471	0.376472
H143	H	0.206373	-0.158068	0.416794
O144	O	0.821636	-0.185930	1.068742
C145	C	0.887995	-0.119600	1.061847
C146	C	0.851162	-0.156385	1.025695
H147	H	0.911869	-0.095695	1.027059
H148	H	0.915351	-0.143578	1.092620
H149	H	0.864003	-0.092266	1.092633
H150	H	0.875113	-0.183725	0.994875
H151	H	0.823805	-0.132374	0.994962
O152	O	0.689716	-0.317745	1.068845
C153	C	0.660046	-0.347336	1.170103
C154	C	0.696826	-0.310563	1.133937
H155	H	0.665774	-0.341534	1.222736
H156	H	0.669206	-0.389510	1.157219
H157	H	0.617896	-0.338161	1.157123
H158	H	0.738988	-0.319691	1.146898
H159	H	0.687620	-0.268399	1.146824
O160	O	0.453307	-0.186164	0.382836
C161	C	0.459138	-0.119909	0.462827
C162	C	0.489107	-0.156637	0.418418
H163	H	0.488070	-0.096019	0.491597
H164	H	0.433599	-0.143932	0.495734
H165	H	0.433553	-0.092559	0.433987
H166	H	0.514721	-0.183994	0.447207
H167	H	0.514614	-0.132582	0.385509
O168	O	0.689731	-0.317927	0.667938
C169	C	0.682655	-0.388477	0.742172
C170	C	0.719436	-0.351686	0.706033
H171	H	0.706656	-0.415773	0.772991
H172	H	0.658748	-0.412416	0.707397
H173	H	0.655323	-0.364448	0.772915
H174	H	0.746800	-0.375674	0.675289
H175	H	0.743307	-0.327745	0.740841
H176	H	0.695011	-0.953483	0.230216
O177	O	0.453200	-0.317843	0.223671
C178	C	0.458921	-0.384094	0.143676
C179	C	0.488951	-0.347358	0.188079
H180	H	0.487813	-0.407974	0.114898
H181	H	0.433365	-0.360078	0.110776
H182	H	0.433347	-0.411452	0.172521
H183	H	0.514554	-0.319992	0.159285
H184	H	0.514474	-0.371406	0.220981
H185	H	0.694902	-0.312648	0.543482
H186	H	-0.044832	-0.191478	0.376466
O187	O	0.656231	-0.805614	0.183552
C188	C	0.589945	-0.799922	0.103600
C189	C	0.626734	-0.769876	0.147923
H190	H	0.566094	-0.771040	0.074772
H191	H	0.562565	-0.825474	0.132446
H192	H	0.613970	-0.825501	0.070736
H193	H	0.602751	-0.744268	0.180795
H194	H	0.654115	-0.744356	0.119038
O195	O	0.689620	-0.554556	0.223879
C196	C	0.619028	-0.616233	0.215348
C197	C	0.655790	-0.586125	0.259642
H198	H	0.591659	-0.641756	0.244245
H199	H	0.643024	-0.641836	0.182479
H200	H	0.595159	-0.587364	0.186524
H201	H	0.679667	-0.614957	0.288506
H202	H	0.631764	-0.560515	0.292469
O203	O	0.560952	-0.186220	0.382746
C204	C	0.645103	-0.156606	0.418462
C205	C	0.615004	-0.193312	0.374090
H206	H	0.688809	-0.162320	0.411470
H207	H	0.634426	-0.165855	0.469214
H208	H	0.634349	-0.114438	0.407520
H209	H	0.625742	-0.235492	0.384976
H210	H	0.625683	-0.184019	0.323352
O211	O	0.309461	-0.351295	0.183403
C212	C	0.303621	-0.417513	0.103369
C213	C	0.273656	-0.380756	0.147747
H214	H	0.274686	-0.441334	0.074521
H215	H	0.329172	-0.444921	0.132173
H216	H	0.329193	-0.393464	0.070528
H217	H	0.248056	-0.404763	0.180598
H218	H	0.248138	-0.353347	0.118905
H219	H	0.556466	-0.312562	0.230053
O220	O	0.689645	-0.317841	0.939247
C221	C	0.623245	-0.384131	0.946142
C222	C	0.660058	-0.347326	0.982294
H223	H	0.599307	-0.407972	0.980929
H224	H	0.647204	-0.411519	0.915387
H225	H	0.595945	-0.360119	0.915338
H226	H	0.687366	-0.371296	1.013132
H227	H	0.636067	-0.319937	1.013009
H228	H	0.054129	-0.312622	0.230094
O229	O	0.854896	-0.697877	0.423068
C230	C	0.921216	-0.703567	0.502981
C231	C	0.884455	-0.733614	0.458626
H232	H	0.945132	-0.732447	0.531732
H233	H	0.897217	-0.678018	0.535910
H234	H	0.948540	-0.677983	0.474102
H235	H	0.857124	-0.759226	0.487455
H236	H	0.908486	-0.759130	0.425696
O237	O	0.201882	-0.351311	0.183526
C238	C	0.140186	-0.421878	0.174895
C239	C	0.170249	-0.385119	0.219237
H240	H	0.114595	-0.449214	0.203749
H241	H	0.169037	-0.445777	0.146078
H242	H	0.114640	-0.397827	0.142023
H243	H	0.195796	-0.409130	0.252148
H244	H	0.141370	-0.361219	0.248010
H245	H	0.816139	-0.450965	0.376315
O246	O	0.854838	-0.805450	0.423098
C247	C	0.861878	-0.867065	0.508089
C248	C	0.825117	-0.837091	0.463727
H249	H	0.837864	-0.892661	0.540939
H250	H	0.885743	-0.838155	0.536922
H251	H	0.889250	-0.892596	0.479210
H252	H	0.797713	-0.811558	0.492557
H253	H	0.801288	-0.866029	0.434891
H254	H	0.816327	-0.191355	0.543565
H255	H	0.816162	-0.550016	0.376355
O256	O	0.689749	-1.056753	0.223881
C257	C	0.623472	-1.051069	0.143916
C258	C	0.660254	-1.021018	0.188243
H259	H	0.599624	-1.022191	0.115082
H260	H	0.596091	-1.076622	0.172759
H261	H	0.647504	-1.076648	0.111059
H262	H	0.636264	-0.995411	0.221109
H263	H	0.687636	-0.995498	0.159362
