data_functionalizedCrystal
_audit_creation_method	'MofGen! by Chris Wilmer'
_symmetry_space_group_name_H-M	'P1'
_symmetry_Int_Tables_number	1
_symmetry_cell_setting	triclinic
loop_
_symmetry_equiv_pos_as_xyz
  x,y,z
_cell_length_a	11.792254
_cell_length_b	10.868271
_cell_length_c	16.992695
_cell_angle_alpha	89.994841
_cell_angle_beta	92.566590
_cell_angle_gamma	90.006153
loop_
_atom_site_label
_atom_site_type_symbol
_atom_site_fract_x
_atom_site_fract_y
_atom_site_fract_z
O1	O	-1.515699	-0.102359	0.107560
O2	O	-1.015699	0.397641	0.607560
O3	O	-1.186265	-0.102354	0.118630
O4	O	-0.686265	0.397646	0.618630
O5	O	-1.349662	-0.102346	-0.001054
O6	O	-0.849662	0.397654	0.498946
O7	O	-1.352303	-0.102366	0.227243
O8	O	-0.852303	0.397634	0.727243
O9	O	-1.349645	0.102298	-0.001058
O10	O	-0.849645	0.602298	0.498942
O11	O	-1.186248	0.102291	0.118625
O12	O	-0.686248	0.602291	0.618625
O13	O	-1.515682	0.102286	0.107556
O14	O	-1.015682	0.602286	0.607556
Zn15	Zn	-1.350963	0.134780	0.113090
Zn16	Zn	-0.850963	0.634780	0.613090
Zn17	Zn	-1.350985	-0.134848	0.113095
Zn18	Zn	-0.850985	0.365152	0.613095
O19	O	-1.352286	0.102279	0.227239
O20	O	-0.852286	0.602279	0.727239
C21	C	-1.143909	-0.000031	0.117930
C22	C	-0.643909	0.499969	0.617930
C23	C	-1.017725	-0.000028	0.115843
C24	C	-0.517725	0.499972	0.615843
N25	N	-1.350956	0.318794	0.113086
N26	N	-0.850956	0.818794	0.613086
C27	C	-0.915250	-0.000031	0.114147
C28	C	-0.415250	0.499969	0.614147
C29	C	-0.786690	-0.000029	0.112027
C30	C	-0.286690	0.499971	0.612027
C31	C	-1.350971	0.569800	0.113096
C32	C	-0.850971	1.069800	0.613096
C33	C	-1.350959	0.430123	0.113092
C34	C	-0.850959	0.930123	0.613092
C35	C	-0.558038	-0.000034	0.108255
C36	C	-0.058038	0.499966	0.608255
C37	C	-0.684222	-0.000026	0.110342
C38	C	-0.184222	0.499974	0.610342
C39	C	-1.346255	-0.000024	-0.030283
C40	C	-0.846255	0.499976	0.469717
C41	C	-1.336117	-0.000024	-0.117370
C42	C	-0.836117	0.499976	0.382630
N43	N	-1.350990	0.681138	0.113096
N44	N	-0.850990	1.181138	0.613096
C45	C	-1.433935	-0.000025	-0.167192
C46	C	-0.933935	0.499975	0.332808
C47	C	-1.424402	-0.000036	-0.249019
C48	C	-0.924402	0.499964	0.250981
C49	C	-1.317051	-0.000039	-0.281024
C50	C	-0.817051	0.499961	0.218976
C51	C	-1.219227	-0.000042	-0.231196
C52	C	-0.719227	0.499958	0.268804
C53	C	-1.228760	-0.000039	-0.149370
C54	C	-0.728760	0.499961	0.350630
C55	C	-1.277539	-0.000055	-0.524791
C56	C	-0.777539	0.499945	-0.024791
C57	C	-1.268013	-0.000054	-0.606623
C58	C	-0.768013	0.499946	-0.106623
C59	C	-1.473190	-0.000050	-0.624441
C60	C	-0.973190	0.499950	-0.124441
C61	C	-1.482714	-0.000040	-0.542613
C62	C	-0.982714	0.499960	-0.042613
C63	C	-1.384889	-0.000050	-0.492792
C64	C	-0.884889	0.499950	0.007208
N65	N	-1.307305	-0.000046	-0.364664
N66	N	-0.807305	0.499954	0.135336
N67	N	-1.394636	-0.000051	-0.409153
N68	N	-0.894636	0.499949	0.090847
C69	C	-1.355692	-0.000046	0.256468
C70	C	-0.855692	0.499954	0.756468
C71	C	-1.365830	-0.000054	0.343556
C72	C	-0.865830	0.499946	0.843556
H73	H	-1.504056	-0.000034	-0.289581
H74	H	-1.004056	0.499966	0.210419
H75	H	-1.197882	-0.000063	-0.484236
H76	H	-0.697882	0.499937	0.015764
H77	H	-1.180590	-0.000036	-0.632677
H78	H	-0.680590	0.499964	-0.132677
N79	N	-1.578689	-0.000041	-0.678181
N80	N	-1.078689	0.499959	-0.178181
H81	H	-1.579315	-0.075904	-0.712523
H82	H	-1.079315	0.424096	-0.212523
H83	H	-1.648084	0.000008	-0.645438
H84	H	-1.148084	0.500008	-0.145438
H85	H	-1.131819	-0.000052	-0.257260
H86	H	-0.631819	0.499948	0.242740
H87	H	-1.149106	-0.000039	-0.108805
H88	H	-0.649106	0.499961	0.391195
H89	H	-1.570130	-0.000038	-0.516561
H90	H	-1.070130	0.499962	-0.016561
H91	H	-1.521351	-0.000015	-0.141141
H92	H	-1.021351	0.499985	0.358859
