data_functionalizedCrystal
_audit_creation_method	'MofGen! by Chris Wilmer'
_symmetry_space_group_name_H-M	'P1'
_symmetry_Int_Tables_number	1
_symmetry_cell_setting	triclinic
loop_
_symmetry_equiv_pos_as_xyz
  x,y,z
_cell_length_a	10.723022
_cell_length_b	13.262508
_cell_length_c	9.198806
_cell_angle_alpha	105.915142
_cell_angle_beta	89.996352
_cell_angle_gamma	84.450641
loop_
_atom_site_label
_atom_site_type_symbol
_atom_site_fract_x
_atom_site_fract_y
_atom_site_fract_z
O1	O	1.656452	0.147205	-0.062674
O2	O	1.293229	0.161298	-0.057107
O3	O	1.483982	0.001528	-0.120272
O4	O	1.465700	0.306974	0.000491
O5	O	1.483966	0.001527	0.121513
O6	O	1.293214	0.161297	0.184678
O7	O	1.656437	0.147204	0.179111
Cu8	Cu	1.474824	0.154251	0.203971
Cu9	Cu	1.474842	0.154251	-0.081967
O10	O	1.465685	0.306974	0.242276
C11	C	1.246727	0.160272	0.063380
C12	C	1.108188	0.157205	0.062165
C13	C	0.889578	0.243431	0.096253
C14	C	1.032765	0.246603	0.097509
C15	C	1.482951	-0.037583	-0.014845
C16	C	1.479886	-0.154121	-0.060929
C17	C	1.471208	-0.482635	0.336371
C18	C	1.474077	-0.373141	0.379671
C19	C	1.475530	-0.318380	0.269525
C20	C	1.474112	-0.373124	0.116071
C21	C	1.471232	-0.482628	0.072767
C22	C	1.475555	-0.318374	0.005920
C23	C	1.474137	-0.373118	-0.147534
C24	C	1.471258	-0.482611	-0.190830
C25	C	1.469805	-0.537371	-0.080684
C26	C	1.478434	-0.208870	0.049225
C27	C	1.478459	-0.208864	-0.214380
C28	C	1.475589	-0.318357	-0.257680
C29	C	1.702939	0.148230	0.058621
C30	C	1.841478	0.151297	0.059826
C31	C	1.466716	0.346085	0.136846
C32	C	1.469781	0.462622	0.182921
N33	N	1.474821	0.154250	0.405085
N34	N	1.474856	0.154244	-0.283084
C35	C	1.554914	0.086871	0.450644
C36	C	1.554933	0.086868	0.618055
H37	H	1.066779	0.078317	0.030937
H38	H	1.406260	0.211929	0.490017
H39	H	1.467475	-0.626531	-0.115932
C40	C	1.469677	-0.542825	-0.359623
H41	H	1.470962	-0.494534	-0.419023
H42	H	1.395870	-0.578056	-0.379032
H43	H	1.541243	-0.593022	-0.384954
H44	H	1.474434	-0.362945	-0.382625
C45	C	1.480067	-0.148640	-0.335549
H46	H	1.482000	-0.075589	-0.287783
H47	H	1.406921	-0.159098	-0.393851
H48	H	1.552293	-0.174066	-0.399747
H49	H	1.074183	0.325487	0.128706
H50	H	0.906304	0.074767	0.029560
C51	C	1.382215	0.232182	0.663881
H52	H	1.331985	0.274457	0.747625
H53	H	1.329981	0.194122	0.589463
H54	H	1.427537	0.276066	0.621851
C55	C	1.479998	-0.148660	0.218008
H56	H	1.481910	-0.075603	0.228030
H57	H	1.552201	-0.174088	0.262115
H58	H	1.406828	-0.159129	0.268010
H59	H	1.477865	-0.229225	0.304790
H60	H	1.475245	-0.328577	0.504613
C61	C	0.802017	0.346821	0.137133
H62	H	0.717266	0.331125	0.130937
H63	H	0.817382	0.386564	0.068534
H64	H	0.817373	0.386554	0.237172
H65	H	1.623466	0.029184	0.365711
H66	H	1.470016	-0.527230	0.426036
H67	H	1.623509	0.029186	0.657336
