data_functionalizedCrystal
_audit_creation_method	'MofGen! by Chris Wilmer'
_symmetry_space_group_name_H-M	'P1'
_symmetry_Int_Tables_number	1
_symmetry_cell_setting	triclinic
loop_
_symmetry_equiv_pos_as_xyz
  x,y,z
_cell_length_a	19.288867
_cell_length_b	17.766277
_cell_length_c	19.288865
_cell_angle_alpha	90.012963
_cell_angle_beta	96.863342
_cell_angle_gamma	90.002427
loop_
_atom_site_label
_atom_site_type_symbol
_atom_site_fract_x
_atom_site_fract_y
_atom_site_fract_z
O1	O	0.921341	-0.062576	-0.086658
O2	O	1.421341	0.437424	0.413342
O3	O	0.719081	-0.062585	-0.098345
O4	O	1.219081	0.437415	0.401655
O5	O	0.826056	-0.062566	0.008629
O6	O	1.326056	0.437434	0.508629
O7	O	0.814367	-0.062596	-0.193632
O8	O	1.314367	0.437404	0.306368
O9	O	0.826058	0.062623	0.008639
O10	O	1.326058	0.562623	0.508639
O11	O	0.719084	0.062604	-0.098335
O12	O	1.219084	0.562604	0.401665
O13	O	0.921344	0.062612	-0.086647
O14	O	1.421344	0.562612	0.413353
Cu15	Cu	0.820214	0.074039	-0.092490
Cu16	Cu	1.320214	0.574039	0.407510
Cu17	Cu	0.820211	-0.074011	-0.092503
Cu18	Cu	1.320211	0.425989	0.407497
O19	O	0.814369	0.062593	-0.193621
O20	O	1.314369	0.562593	0.306379
C21	C	0.693206	0.000009	-0.097964
C22	C	1.193206	0.500009	0.402036
C23	C	0.616102	0.000006	-0.096834
C24	C	1.116102	0.500006	0.403166
C25	C	0.060536	-0.068224	-0.088704
C26	C	0.560536	0.431776	0.411296
C27	C	0.132983	-0.068227	-0.089761
C28	C	0.632983	0.431773	0.410239
C29	C	0.169213	0.000013	-0.090287
C30	C	0.669213	0.500013	0.409713
C31	C	0.132992	0.068261	-0.089738
C32	C	0.632992	0.568261	0.410262
C33	C	0.060547	0.068262	-0.088674
C34	C	0.560547	0.568262	0.411326
C35	C	0.278542	0.052287	-0.132650
C36	C	0.778542	0.552287	0.367350
C37	C	0.350985	0.052283	-0.133718
C38	C	0.850985	0.552283	0.366282
C39	C	0.392659	0.000012	-0.093566
C40	C	0.892659	0.500012	0.406434
C41	C	0.361879	-0.052267	-0.052354
C42	C	0.861879	0.447733	0.447646
C43	C	0.289434	-0.052266	-0.051290
C44	C	0.789434	0.447734	0.448710
C45	C	0.247768	0.000019	-0.091440
C46	C	0.747768	0.500019	0.408560
C47	C	0.507428	-0.068235	-0.095256
C48	C	1.007428	0.431765	0.404744
C49	C	0.579877	-0.068235	-0.096309
C50	C	1.079877	0.431765	0.403691
C51	C	0.579884	0.068255	-0.096293
C52	C	1.079884	0.568255	0.403707
C53	C	0.507437	0.068253	-0.095233
C54	C	1.007437	0.568253	0.404767
C55	C	0.471213	0.000006	-0.094718
C56	C	0.971213	0.500006	0.405282
N57	N	0.820209	-0.178142	-0.092506
N58	N	1.320209	0.321858	0.407494
C59	C	0.867662	-0.217520	-0.045231
C60	C	1.367662	0.282480	0.454769
C61	C	0.867668	-0.296322	-0.045229
C62	C	1.367668	0.203678	0.454771
C63	C	0.820209	-0.335742	-0.092497
C64	C	1.320209	0.164258	0.407503
C65	C	0.772753	-0.296354	-0.139782
C66	C	1.272753	0.203646	0.360218
C67	C	0.772753	-0.217554	-0.139787
C68	C	1.272753	0.282446	0.360213
C69	C	0.756922	-0.460591	-0.101642
C70	C	1.256922	0.039409	0.398358
C71	C	0.756921	-0.539390	-0.101633
C72	C	1.256921	-0.039390	0.398367
C73	C	0.820210	-0.578789	-0.092488
C74	C	1.320210	-0.078789	0.407512
C75	C	0.883502	-0.539379	-0.083337
C76	C	1.383502	-0.039379	0.416663
C77	C	0.883502	-0.460579	-0.083341
C78	C	1.383502	0.039421	0.416659
C79	C	0.820204	-0.421188	-0.092498
C80	C	1.320204	0.078812	0.407502
C81	C	0.867673	-0.703613	-0.045208
C82	C	1.367673	-0.203613	0.454792
C83	C	0.867679	-0.782416	-0.045211
C84	C	1.367679	-0.282416	0.454789
C85	C	0.772759	-0.782447	-0.139761
C86	C	1.272759	-0.282447	0.360239
C87	C	0.772758	-0.703645	-0.139760
C88	C	1.272758	-0.203645	0.360240
C89	C	0.820214	-0.664233	-0.092480
C90	C	1.320214	-0.164233	0.407520
C91	C	0.947219	0.000017	-0.087029
C92	C	1.447219	0.500017	0.412971
C93	C	1.024323	0.000015	-0.088159
C94	C	1.524323	0.500015	0.411841
C95	C	0.825681	0.000031	0.034510
C96	C	1.325681	0.500031	0.534510
C97	C	0.824552	0.000038	0.111614
C98	C	1.324552	0.500038	0.611614
N99	N	0.820221	0.178169	-0.092481
N100	N	1.320221	0.678169	0.407519
C101	C	0.814744	-0.000005	-0.219503
C102	C	1.314744	0.499995	0.280497
C103	C	0.815873	-0.000017	-0.296607
C104	C	1.315873	0.499983	0.203393
C105	C	0.887320	0.000044	0.156310
C106	C	1.387320	0.500044	0.656310
C107	C	0.886259	0.000032	0.228757
C108	C	1.386259	0.500032	0.728757
C109	C	0.822427	0.000029	0.256505
C110	C	1.322427	0.500029	0.756505
C111	C	0.759651	0.000018	0.211799
C112	C	1.259651	0.500018	0.711799
C113	C	0.760713	0.000023	0.139354
C114	C	1.260713	0.500023	0.639354
C115	C	0.772248	0.043877	0.364796
C116	C	1.272248	0.543877	0.864796
C117	C	0.771188	0.043878	0.437241
C118	C	1.271188	0.543878	0.937241
C119	C	0.819147	0.000012	0.479951
C120	C	1.319147	0.500012	0.979951
C121	C	0.868178	-0.043845	0.450208
C122	C	1.368178	0.456155	0.950208
C123	C	0.869240	-0.043840	0.377763
C124	C	1.369240	0.456160	0.877763
C125	C	0.821268	0.000024	0.335059
C126	C	1.321268	0.500024	0.835059
C127	C	0.880769	0.000004	0.603202
C128	C	1.380769	0.500004	1.103202
C129	C	0.879706	-0.000013	0.675650
C130	C	1.379706	0.499987	1.175650
C131	C	0.753096	-0.000019	0.658691
C132	C	1.253096	0.499981	1.158691
C133	C	0.754161	-0.000010	0.586245
C134	C	1.254161	0.499990	1.086245
C135	C	0.818000	0.000005	0.558505
C136	C	1.318000	0.500005	1.058505
H137	H	0.162473	-0.123798	-0.090209
H138	H	0.662473	0.376202	0.409791
H139	H	0.731262	0.079584	0.461451
H140	H	1.231262	0.579584	0.961451
H141	H	0.734111	-0.185492	-0.178285
H142	H	1.234111	0.314508	0.321715
Cl143	Cl	0.713097	-0.654136	-0.199192
Cl144	Cl	1.213097	-0.154136	0.300808
Cl145	Cl	0.677357	-0.588925	-0.113198
Cl146	Cl	1.177357	-0.088925	0.386802
Cl147	Cl	0.967574	0.000041	0.121441
Cl148	Cl	1.467574	0.500041	0.621441
H149	H	0.734120	-0.814543	-0.178250
H150	H	1.234120	-0.314543	0.321750
H151	H	0.906305	-0.185433	-0.006734
H152	H	1.406305	0.314567	0.493266
H153	H	0.937374	0.000034	0.265155
H154	H	1.437374	0.500034	0.765155
H155	H	0.031062	0.123832	-0.088232
H156	H	0.531062	0.623832	0.411768
H157	H	0.705381	-0.428519	-0.109093
H158	H	1.205381	0.071481	0.390907
Cl159	Cl	0.015001	-0.154021	-0.088051
Cl160	Cl	0.515001	0.345979	0.411949
H161	H	0.734113	-0.328454	-0.178270
H162	H	1.234113	0.171546	0.321730
Cl163	Cl	0.711953	0.099031	0.311111
Cl164	Cl	1.211953	0.599031	0.811111
H165	H	0.906325	-0.814479	-0.006716
H166	H	1.406325	-0.314479	0.493284
H167	H	0.707678	0.000014	0.234396
H168	H	1.207678	0.500014	0.734396
H169	H	0.376037	0.094837	-0.167293
H170	H	0.876037	0.594837	0.332707
H171	H	0.264377	-0.094833	-0.017732
H172	H	0.764377	0.405167	0.482268
H173	H	0.395809	-0.094833	-0.019660
H174	H	0.895809	0.405167	0.480340
Cl175	Cl	0.958622	-0.000010	0.731841
Cl176	Cl	1.458622	0.499990	1.231841
Cl177	Cl	0.930871	-0.098976	0.340374
Cl178	Cl	1.430871	0.401024	0.840374
Cl179	Cl	0.461886	-0.154029	-0.094604
Cl180	Cl	0.961886	0.345971	0.405396
H181	H	0.609361	-0.123805	-0.096748
H182	H	1.109361	0.376195	0.403252
Cl183	Cl	0.963065	-0.411038	-0.071845
Cl184	Cl	1.463065	0.088962	0.428155
Cl185	Cl	0.928472	-0.098996	0.503892
Cl186	Cl	1.428472	0.401004	1.003892
H187	H	0.244616	0.094861	-0.165344
H188	H	0.744616	0.594861	0.334656
H189	H	0.477951	0.123821	-0.094792
H190	H	0.977951	0.623821	0.405208
H191	H	0.932750	0.000013	0.580616
H192	H	1.432750	0.500013	1.080616
H193	H	0.609382	0.123818	-0.096719
H194	H	1.109382	0.623818	0.403281
Cl195	Cl	0.681798	0.000015	0.083161
Cl196	Cl	1.181798	0.500015	0.583161
Cl197	Cl	0.672849	-0.000027	0.693567
Cl198	Cl	1.172849	0.499973	1.193567
H199	H	0.162495	0.123822	-0.090165
H200	H	0.662495	0.623822	0.409835
Cl201	Cl	0.927327	-0.345834	0.014209
Cl202	Cl	1.427327	0.154166	0.514209
Cl203	Cl	0.963070	-0.588900	-0.071834
Cl204	Cl	1.463070	-0.088900	0.428166
H205	H	0.906316	-0.671522	-0.006711
H206	H	1.406316	-0.171522	0.493289
H207	H	0.703049	-0.000011	0.549852
H208	H	1.203049	0.499989	1.049852
