data_functionalizedCrystal
_audit_creation_method	'MofGen! by Chris Wilmer'
_symmetry_space_group_name_H-M	'P1'
_symmetry_Int_Tables_number	1
_symmetry_cell_setting	triclinic
loop_
_symmetry_equiv_pos_as_xyz
  x,y,z
_cell_length_a	14.044220
_cell_length_b	22.610064
_cell_length_c	14.044202
_cell_angle_alpha	89.996699
_cell_angle_beta	86.809210
_cell_angle_gamma	90.004031
loop_
_atom_site_label
_atom_site_type_symbol
_atom_site_fract_x
_atom_site_fract_y
_atom_site_fract_z
O1	O	1.277181	0.049141	-0.230156
O2	O	1.000509	0.049155	-0.221850
O3	O	1.134688	0.049132	-0.087667
O4	O	1.143003	0.049164	-0.364339
O5	O	1.134664	-0.049237	-0.087686
O6	O	1.000485	-0.049214	-0.221869
O7	O	1.277157	-0.049228	-0.230175
Zn8	Zn	1.138817	-0.064839	-0.226025
Zn9	Zn	1.138849	0.064766	-0.226000
O10	O	1.142979	-0.049205	-0.364358
C11	C	0.964875	-0.000028	-0.218224
C12	C	0.858732	-0.000023	-0.207379
N13	N	1.138803	-0.153292	-0.226042
C14	C	0.664394	-0.000037	-0.187553
C15	C	0.613267	-0.000031	-0.264468
C16	C	0.505130	-0.000038	-0.253436
C17	C	0.772540	-0.000029	-0.198583
C18	C	1.198267	-0.561943	-0.166594
C19	C	1.198271	-0.623863	-0.166587
O20	O	1.248791	-0.655891	-0.116053
N21	N	1.138847	-0.654829	-0.225980
C22	C	1.079407	-0.623871	-0.285376
O23	O	1.028861	-0.655896	-0.335893
C24	C	1.079398	-0.561953	-0.285377
C25	C	1.138834	-0.530990	-0.225987
C26	C	1.257697	-0.530981	-0.107208
C27	C	1.257694	-0.469065	-0.107216
C28	C	1.198261	-0.438112	-0.166610
C29	C	1.138831	-0.469075	-0.225995
C30	C	1.019954	-0.530996	-0.344768
C31	C	1.019950	-0.469073	-0.344763
C32	C	1.079386	-0.438111	-0.285373
C33	C	1.079394	-0.376206	-0.285397
N34	N	1.138819	-0.345240	-0.226004
C35	C	1.198252	-0.376193	-0.166611
C36	C	1.079428	-0.753905	-0.285369
C37	C	1.079441	-0.815823	-0.285374
C38	C	1.198304	-0.815810	-0.166583
C39	C	1.198296	-0.753891	-0.166584
C40	C	1.138853	-0.722939	-0.225976
C41	C	1.198241	-0.246166	-0.166633
C42	C	1.198236	-0.184245	-0.166649
C43	C	1.079369	-0.184263	-0.285435
C44	C	1.079378	-0.246178	-0.285423
C45	C	1.138817	-0.277128	-0.226014
O46	O	1.028898	-0.344139	-0.335903
O47	O	1.248780	-0.344161	-0.116093
C48	C	1.312791	-0.000044	-0.233801
C49	C	1.418934	-0.000045	-0.244646
C50	C	1.131039	-0.000055	-0.052054
C51	C	1.120191	-0.000063	0.054089
N52	N	1.138871	0.153219	-0.225976
C53	C	1.177289	-0.000051	0.299547
C54	C	1.100373	-0.000049	0.248422
C55	C	1.111402	-0.000057	0.140285
C56	C	1.166262	-0.000043	0.407694
C57	C	1.146626	-0.000025	0.600029
C58	C	1.157468	-0.000037	0.493886
H59	H	0.650708	-0.000019	-0.338601
H60	H	0.626955	-0.000049	-0.113425
C61	C	1.263619	-0.150190	-0.101309
N62	N	1.312861	-0.124542	-0.052094
C63	C	1.014079	-0.719863	-0.350757
N64	N	0.964872	-0.694226	-0.400020
C65	C	0.954561	-0.565041	-0.410094
N66	N	0.905299	-0.590683	-0.459299
H67	H	1.246693	-0.728685	-0.118223
C68	C	1.263676	-0.849871	-0.101241
N69	N	1.312909	-0.875527	-0.052028
C70	C	1.323067	-0.435015	-0.041871
N71	N	1.372306	-0.409371	0.007355
C72	C	1.277433	-0.000069	0.248965
N73	N	1.352861	-0.000087	0.210855
H74	H	1.246641	-0.271359	-0.118255
H75	H	1.306094	-0.556177	-0.058838
H76	H	0.971541	-0.443875	-0.393126
C77	C	1.014064	-0.849874	-0.350714
N78	N	0.964815	-0.875520	-0.399926
H79	H	1.030990	-0.271388	-0.333794
H80	H	1.026241	-0.000043	0.285865
C81	C	1.013992	-0.150202	-0.350762
N82	N	0.964744	-0.124546	-0.399960
