data_functionalizedCrystal
_audit_creation_method	'MofGen! by Chris Wilmer'
_symmetry_space_group_name_H-M	'P1'
_symmetry_Int_Tables_number	1
_symmetry_cell_setting	triclinic
loop_
_symmetry_equiv_pos_as_xyz
  x,y,z
_cell_length_a	16.120490
_cell_length_b	14.909042
_cell_length_c	14.908308
_cell_angle_alpha	89.837538
_cell_angle_beta	89.450064
_cell_angle_gamma	83.653415
loop_
_atom_site_label
_atom_site_type_symbol
_atom_site_fract_x
_atom_site_fract_y
_atom_site_fract_z
Zn1	Zn	1.269665	-0.460886	0.553079
Zn2	Zn	1.285625	-0.603508	0.394878
Zn3	Zn	1.137761	-0.444599	0.395951
Zn4	Zn	1.138661	-0.603603	0.537631
O5	O	1.207928	-0.528149	0.470385
O6	O	1.388489	-0.486581	0.538109
O7	O	1.272313	-0.575572	0.269520
O8	O	1.148202	-0.320528	0.423708
O9	O	1.400215	-0.591364	0.421880
O10	O	1.245111	-0.332494	0.539149
O11	O	1.163678	-0.458823	0.270308
O12	O	1.021173	-0.458916	0.408729
O13	O	1.149736	-0.591527	0.665181
O14	O	1.021834	-0.575735	0.512820
O15	O	1.245984	-0.486673	0.676530
O16	O	1.273186	-0.729752	0.406901
O17	O	1.165213	-0.729822	0.511780
C18	C	0.991243	-0.515569	0.459215
C19	C	0.898544	-0.510210	0.454457
C20	C	1.221051	-0.762520	0.457569
C21	C	1.226739	-0.862791	0.452120
C22	C	1.124898	-1.051337	0.550988
C23	C	1.130241	-1.145550	0.545871
C24	C	1.242762	-1.145432	0.436766
C25	C	1.237419	-1.051219	0.441882
C26	C	1.178487	-1.004175	0.498996
C27	C	1.173149	-0.909960	0.504117
C28	C	1.285665	-0.909843	0.395008
C29	C	1.291008	-1.004057	0.389891
C30	C	0.687879	-0.555939	0.495069
C31	C	0.728829	-0.500435	0.445767
C32	C	0.823267	-0.505876	0.450604
C33	C	0.593432	-0.550500	0.490234
C34	C	1.425459	-0.540779	0.481598
C35	C	1.518158	-0.546161	0.486377
C36	C	1.196180	-0.540928	0.704307
C37	C	1.191174	-0.546373	0.803990
C38	C	1.194776	-0.292865	0.483271
C39	C	1.189171	-0.192601	0.488763
C40	C	1.219674	-0.515358	0.237379
C41	C	1.224828	-0.509667	0.137718
C42	C	1.281986	-0.447400	1.003127
C43	C	1.277285	-0.452514	1.096789
C44	C	1.177066	-0.561709	1.084978
C45	C	1.181768	-0.556595	0.991316
C46	C	1.234230	-0.499440	0.950394
C47	C	1.238936	-0.494332	0.856730
C48	C	1.138713	-0.603521	0.844921
C49	C	1.134012	-0.608635	0.938583
H50	H	1.076918	-1.013033	0.597498
N51	N	1.089928	-0.656692	0.791064
N52	N	1.099591	-0.740821	0.797256
H53	H	1.065140	-0.778375	0.759220
H54	H	1.329303	-0.871433	0.352676
H55	H	0.723745	-0.607540	0.540904
H56	H	0.692961	-0.448830	0.399927
H57	H	1.338987	-1.042373	0.343388
N58	N	1.292530	-0.435952	0.814941
N59	N	1.335163	-0.389492	0.862040
H60	H	1.373015	-0.348257	0.832530
H61	H	1.324708	-0.400867	0.969808
N62	N	1.326066	-0.399345	1.150642
N63	N	1.372898	-0.348316	1.114089
H64	H	1.407351	-0.310760	1.152122
N65	N	1.123475	-0.620070	1.126802
N66	N	1.119281	-0.624617	1.210429
H67	H	1.081431	-0.665834	1.239969
H68	H	1.091296	-0.655167	0.971914
H69	H	1.125165	-0.871657	0.550624
H70	H	1.086605	-1.183946	0.588210
H71	H	1.290734	-1.183751	0.390258
