data_functionalizedCrystal
_audit_creation_method	'MofGen! by Chris Wilmer'
_symmetry_space_group_name_H-M	'P1'
_symmetry_Int_Tables_number	1
_symmetry_cell_setting	triclinic
loop_
_symmetry_equiv_pos_as_xyz
  x,y,z
_cell_length_a	12.811438
_cell_length_b	9.065218
_cell_length_c	7.540329
_cell_angle_alpha	89.998243
_cell_angle_beta	84.570287
_cell_angle_gamma	95.471413
loop_
_atom_site_label
_atom_site_type_symbol
_atom_site_fract_x
_atom_site_fract_y
_atom_site_fract_z
O1	O	1.394549	-0.198749	-0.076852
O2	O	1.089173	-0.220351	-0.027726
O3	O	1.248173	0.005172	-0.053308
O4	O	1.235549	-0.424272	-0.051270
O5	O	1.248164	0.005175	-0.348271
O6	O	1.089164	-0.220348	-0.322690
O7	O	1.394540	-0.198746	-0.371815
Cu8	Cu	1.241851	-0.209547	-0.374185
Cu9	Cu	1.241862	-0.209550	-0.025356
O10	O	1.235539	-0.424269	-0.346233
C11	C	1.050053	-0.219137	-0.168915
C12	C	0.933502	-0.215509	-0.150166
C13	C	0.769230	-0.210396	0.037025
C14	C	0.878741	-0.213805	0.019423
C15	C	0.878745	-0.213801	-0.302164
C16	C	0.769235	-0.210393	-0.284562
C17	C	0.714481	-0.208693	-0.114962
C18	C	0.604968	-0.205295	-0.097361
C19	C	0.604975	-0.205281	-0.418948
C20	C	0.714485	-0.208690	-0.436550
C21	C	1.246955	0.060145	-0.200592
C22	C	1.243327	0.223942	-0.200000
C23	C	1.433660	-0.199959	-0.230622
C24	C	1.550211	-0.203587	-0.249360
C25	C	1.236758	-0.479242	-0.198946
C26	C	1.240385	-0.643039	-0.199526
N27	N	1.241850	-0.209543	-0.619533
N28	N	1.241871	-0.209541	0.219991
H29	H	0.923313	-0.215192	0.143188
H30	H	0.923346	-0.215168	-0.440245
H31	H	0.560388	-0.203918	0.040736
C32	C	0.545509	-0.203111	-0.583925
C33	C	0.493263	-0.074357	-0.584945
C34	C	0.438487	-0.072298	-0.736903
H35	H	0.495525	-0.287610	-0.582760
H36	H	0.593784	-0.204528	-0.687489
H37	H	0.444992	-0.072954	-0.481408
H38	H	0.543222	0.010164	-0.586136
H39	H	0.486762	-0.073715	-0.840467
H40	H	0.388509	-0.156803	-0.735725
H41	H	0.403040	0.015066	-0.737623
H42	H	0.724647	-0.209028	0.175121
H43	H	0.759081	-0.210068	-0.574634
