data_functionalizedCrystal
_audit_creation_method	'MofGen! by Chris Wilmer'
_symmetry_space_group_name_H-M	'P1'
_symmetry_Int_Tables_number	1
_symmetry_cell_setting	triclinic
loop_
_symmetry_equiv_pos_as_xyz
  x,y,z
_cell_length_a	21.395362
_cell_length_b	19.077068
_cell_length_c	19.076919
_cell_angle_alpha	94.470751
_cell_angle_beta	92.260951
_cell_angle_gamma	92.343691
loop_
_atom_site_label
_atom_site_type_symbol
_atom_site_fract_x
_atom_site_fract_y
_atom_site_fract_z
Zn1	Zn	0.932554	-0.296406	-0.410194
Zn2	Zn	0.932476	-0.409560	-0.297039
Zn3	Zn	0.832167	-0.291720	-0.292287
Zn4	Zn	0.823361	-0.414289	-0.414842
O5	O	0.880139	-0.352994	-0.353590
O6	O	1.020220	-0.311398	-0.395227
O7	O	0.922823	-0.389988	-0.197763
O8	O	0.849202	-0.193691	-0.303994
O9	O	1.020163	-0.394532	-0.312092
O10	O	0.922955	-0.197134	-0.390620
O11	O	0.849126	-0.303412	-0.194272
O12	O	0.743322	-0.307997	-0.308501
O13	O	0.834193	-0.402592	-0.512871
O14	O	0.736852	-0.398048	-0.398541
O15	O	0.914416	-0.315984	-0.509456
O16	O	0.914284	-0.508837	-0.316599
O17	O	0.834118	-0.512312	-0.403149
C18	C	0.717353	-0.353028	-0.353510
C19	C	0.647712	-0.353060	-0.353493
C20	C	0.611646	-0.400006	-0.400312
C21	C	0.546210	-0.399990	-0.400343
C22	C	0.516842	-0.353035	-0.353542
C23	C	0.552916	-0.306080	-0.306720
C24	C	0.618351	-0.306092	-0.306695
C25	C	0.415697	-0.344816	-0.289853
C26	C	0.350263	-0.344808	-0.289877
C27	C	0.315021	-0.352992	-0.353618
C28	C	0.345219	-0.361198	-0.417339
C29	C	0.410653	-0.361211	-0.417314
C30	C	0.445890	-0.353016	-0.353564
C31	C	0.208002	-0.399923	-0.400475
C32	C	0.142565	-0.399902	-0.400506
C33	C	0.149272	-0.305995	-0.306877
C34	C	0.214708	-0.306013	-0.306851
C35	C	0.244069	-0.352981	-0.353649
C36	C	0.873253	-0.536154	-0.360909
C37	C	0.870364	-0.614512	-0.364064
C38	C	0.910774	-0.649494	-0.320522
C39	C	0.908060	-0.723119	-0.323493
C40	C	0.864932	-0.761762	-0.370004
C41	C	0.824519	-0.726775	-0.413551
C42	C	0.827237	-0.653151	-0.410582
C43	C	0.852328	-0.982151	-0.383712
C44	C	0.849612	-1.055780	-0.386676
C45	C	0.933153	-1.052120	-0.296619
C46	C	0.935865	-0.978494	-0.293652
C47	C	0.895455	-0.943514	-0.337201
N48	N	0.862155	-0.837019	-0.373040
N49	N	0.898235	-0.868258	-0.334168
C50	C	1.043561	-0.352960	-0.353671
C51	C	1.113202	-0.352946	-0.353706
C52	C	0.873331	-0.360338	-0.537457
C53	C	0.870429	-0.363468	-0.615809
C54	C	0.887069	-0.169119	-0.346258
C55	C	0.890022	-0.090762	-0.343134
C56	C	0.910832	-0.319848	-0.650843
C57	C	0.908098	-0.322786	-0.724464
C58	C	0.864964	-0.369348	-0.763050
C59	C	0.824557	-0.412969	-0.728011
C60	C	0.827288	-0.410027	-0.654391
C61	C	0.852314	-0.382978	-0.983419
C62	C	0.849587	-0.385918	-1.057044
C63	C	0.933128	-0.295734	-1.053491
C64	C	0.935858	-0.292799	-0.979871
C65	C	0.895449	-0.336418	-0.944838
N66	N	0.862170	-0.372353	-0.838302
N67	N	0.898240	-0.333408	-0.869587
C68	C	0.886960	-0.345627	-0.170437
C69	C	0.889990	-0.342299	-0.092077
H70	H	0.325681	-0.338130	-0.237992
O71	O	0.239678	-0.450569	-0.450955
H72	H	0.203603	-0.483203	-0.483526
O73	O	0.808735	-0.430010	-0.945620
H74	H	0.779300	-0.397102	-0.910814
O75	O	0.453708	-0.335990	-0.221100
H76	H	0.421718	-0.330294	-0.176797
O77	O	0.803098	-1.097464	-0.436848
H78	H	0.775459	-1.060772	-0.466638
H79	H	0.819423	-0.953676	-0.419171
O80	O	0.643312	-0.450654	-0.450796
H81	H	0.629088	-0.505475	-0.440835
H82	H	0.941000	-0.287268	-0.752985
H83	H	0.789435	-0.450878	-0.759433
H84	H	0.789406	-0.758244	-0.451424
H85	H	0.529001	-0.267847	-0.268616
O86	O	0.783704	-0.457071	-0.616608
H87	H	0.811630	-0.491593	-0.584504
H88	H	0.435238	-0.367891	-0.469198
O89	O	0.507299	-0.450653	-0.450816
H90	H	0.538709	-0.483325	-0.483341
O91	O	0.982384	-0.936826	-0.243481
H92	H	0.956929	-0.901908	-0.206222
H93	H	0.647715	-0.267861	-0.268569
O94	O	0.307219	-0.370020	-0.486097
H95	H	0.256645	-0.368623	-0.475413
H96	H	0.125361	-0.267760	-0.268774
O97	O	0.103661	-0.450629	-0.450916
H98	H	0.135073	-0.483325	-0.483414
O99	O	0.253613	-0.255395	-0.256336
H100	H	0.222201	-0.222748	-0.223788
H101	H	0.966054	-1.080609	-0.261164
H102	H	0.945891	-0.618035	-0.282645
O103	O	0.803054	-0.436137	-1.098659
H104	H	0.771132	-0.405923	-1.130927
O105	O	0.982381	-0.242576	-0.938258
H106	H	0.977497	-0.247864	-0.881180
H107	H	0.940966	-0.751598	-0.288036
H108	H	0.794332	-0.624669	-0.446040
H109	H	0.945958	-0.281935	-0.619432
H110	H	0.966026	-0.260221	-1.082023
