data_functionalizedCrystal
_audit_creation_method	'MofGen! by Chris Wilmer'
_symmetry_space_group_name_H-M	'P1'
_symmetry_Int_Tables_number	1
_symmetry_cell_setting	triclinic
loop_
_symmetry_equiv_pos_as_xyz
  x,y,z
_cell_length_a	19.288864
_cell_length_b	27.732048
_cell_length_c	18.366186
_cell_angle_alpha	89.988789
_cell_angle_beta	89.977106
_cell_angle_gamma	82.889449
loop_
_atom_site_label
_atom_site_type_symbol
_atom_site_fract_x
_atom_site_fract_y
_atom_site_fract_z
O1	O	0.920977	0.060300	-0.060791
O2	O	1.420977	0.560300	0.439209
O3	O	0.718665	0.068434	-0.060742
O4	O	1.218665	0.568434	0.439258
O5	O	0.826104	-0.006011	-0.060754
O6	O	1.326104	0.493989	0.439246
O7	O	0.813538	0.134745	-0.060779
O8	O	1.313538	0.634745	0.439221
O9	O	0.826086	-0.006014	0.060345
O10	O	1.326086	0.493986	0.560345
O11	O	0.718647	0.068430	0.060357
O12	O	1.218647	0.568430	0.560357
O13	O	0.920959	0.060296	0.060309
O14	O	1.420959	0.560296	0.560309
Zn15	Zn	0.819800	0.064363	0.079560
Zn16	Zn	1.319800	0.564363	0.579560
Zn17	Zn	0.819824	0.064368	-0.079994
Zn18	Zn	1.319824	0.564368	0.420006
O19	O	0.813520	0.134741	0.060321
O20	O	1.313520	0.634741	0.560321
C21	C	0.692781	0.068171	-0.000186
C22	C	1.192781	0.568171	0.499814
C23	C	0.615683	0.067385	-0.000167
C24	C	1.115683	0.567385	0.499833
C25	C	0.825831	-0.024020	-0.000202
C26	C	1.325831	0.475980	0.499798
C27	C	0.825037	-0.077678	-0.000196
C28	C	1.325037	0.422322	0.499804
C29	C	0.570714	0.111066	-0.000186
C30	C	1.070714	0.611066	0.499814
C31	C	0.498271	0.110328	-0.000194
C32	C	0.998271	0.610328	0.499806
C33	C	0.470801	0.065906	-0.000197
C34	C	0.970801	0.565906	0.499803
C35	C	0.515780	0.022219	-0.000174
C36	C	1.015780	0.522219	0.499826
C37	C	0.588220	0.022959	-0.000159
C38	C	1.088220	0.522959	0.499841
C39	C	0.362763	0.030987	-0.042642
C40	C	0.862763	0.530987	0.457358
C41	C	0.290323	0.030250	-0.042662
C42	C	0.790323	0.530250	0.457338
C43	C	0.247370	0.063624	-0.000241
C44	C	0.747370	0.563624	0.499759
C45	C	0.276863	0.097744	0.042190
C46	C	0.776863	0.597744	0.542190
C47	C	0.349304	0.098483	0.042206
C48	C	0.849304	0.598483	0.542206
C49	C	0.392252	0.065099	-0.000213
C50	C	0.892252	0.565099	0.499787
C51	C	0.123850	0.106507	-0.000268
C52	C	0.623850	0.606507	0.499732
C53	C	0.051406	0.105767	-0.000271
C54	C	0.551406	0.605767	0.499729
C55	C	0.068916	0.017658	-0.000258
C56	C	0.568916	0.517658	0.499742
C57	C	0.141358	0.018399	-0.000248
C58	C	0.641358	0.518399	0.499752
C59	C	0.168820	0.062825	-0.000256
C60	C	0.668820	0.562825	0.499744
C61	C	0.883526	-0.416316	-0.000248
C62	C	1.383526	0.083684	0.499752
C63	C	0.880579	-0.617985	-0.000257
C64	C	1.380579	-0.117985	0.499743
O65	O	0.934063	-0.649079	-0.000302
O66	O	1.434063	-0.149079	0.499698
N67	N	0.816872	-0.637301	-0.000241
N68	N	1.316872	-0.137301	0.499759
C69	C	0.753897	-0.606196	-0.000227
C70	C	1.253897	-0.106196	0.499773
O71	O	0.699643	-0.627253	-0.000222
O72	O	1.199643	-0.127253	0.499778
C73	C	0.756845	-0.404529	-0.000223
C74	C	1.256845	0.095471	0.499777
C75	C	0.820556	-0.385216	-0.000232
C76	C	1.320556	0.114784	0.499768
C77	C	0.947232	-0.397002	-0.000257
C78	C	1.447232	0.102998	0.499743
C79	C	0.947968	-0.346588	-0.000251
C80	C	1.447968	0.153412	0.499749
C81	C	0.884998	-0.315488	-0.000235
C82	C	1.384998	0.184512	0.499765
C83	C	0.821292	-0.334801	-0.000226
C84	C	1.321292	0.165199	0.499774
C85	C	0.693871	-0.373425	-0.000215
C86	C	1.193871	0.126575	0.499785
C87	C	0.694614	-0.323006	-0.000216
C88	C	1.194614	0.176994	0.499784
C89	C	0.758325	-0.303693	-0.000224
C90	C	1.258325	0.196307	0.499776
C91	C	0.759059	-0.253287	-0.000203
C92	C	1.259059	0.246713	0.499797
N93	N	0.822766	-0.233971	-0.000219
N94	N	1.322766	0.266029	0.499781
C95	C	0.885735	-0.265071	-0.000235
C96	C	1.385735	0.234929	0.499765
C97	C	0.752354	-0.712075	-0.000228
C98	C	1.252354	-0.212075	0.499772
C99	C	0.751617	-0.762492	-0.000228
C100	C	1.251617	-0.262492	0.499772
C101	C	0.878299	-0.774276	-0.000259
C102	C	1.378299	-0.274276	0.499741
C103	C	0.879035	-0.723859	-0.000254
C104	C	1.379035	-0.223859	0.499746
C105	C	0.816061	-0.692759	-0.000244
C106	C	1.316061	-0.192759	0.499756
C107	C	0.887276	-0.159197	-0.000221
C108	C	1.387276	0.340803	0.499779
C109	C	0.888007	-0.108778	-0.000212
C110	C	1.388007	0.391222	0.499788
C111	C	0.761325	-0.096998	-0.000185
C112	C	1.261325	0.403002	0.499815
C113	C	0.760595	-0.147412	-0.000190
C114	C	1.260595	0.352588	0.499810
C115	C	0.823576	-0.178511	-0.000211
C116	C	1.323576	0.321489	0.499789
O117	O	0.705603	-0.222164	-0.000167
O118	O	1.205603	0.277836	0.499833
O119	O	0.939982	-0.244005	-0.000257
O120	O	1.439982	0.255995	0.499743
C121	C	0.882790	-0.466730	-0.000254
C122	C	1.382790	0.033270	0.499746
C123	C	0.819084	-0.486044	-0.000245
C124	C	1.319084	0.013956	0.499755
C125	C	0.756114	-0.454943	-0.000229
C126	C	1.256114	0.045057	0.499771
C127	C	0.818347	-0.536461	-0.000244
C128	C	1.318347	-0.036461	0.499756
C129	C	0.881317	-0.567561	-0.000260
C130	C	1.381317	-0.067561	0.499740
C131	C	0.945023	-0.548245	-0.000276
C132	C	1.445023	-0.048245	0.499724
C133	C	0.945760	-0.497831	-0.000270
C134	C	1.445760	0.002169	0.499730
C135	C	0.692407	-0.474260	-0.000213
C136	C	1.192407	0.025740	0.499787
C137	C	0.691676	-0.524674	-0.000218
C138	C	1.191676	-0.024674	0.499782
C139	C	0.754646	-0.555775	-0.000234
C140	C	1.254646	-0.055775	0.499766
C141	C	0.946842	0.060560	-0.000249
C142	C	1.446842	0.560560	0.499751
C143	C	1.023941	0.061345	-0.000273
C144	C	1.523941	0.561345	0.499727
C145	C	0.813792	0.152751	-0.000233
C146	C	1.313792	0.652751	0.499767
C147	C	0.814587	0.206408	-0.000244
C148	C	1.314587	0.706408	0.499756
N149	N	0.819789	0.064359	0.188451
N150	N	1.319789	0.564359	0.688451
N151	N	0.819841	0.064367	-0.188885
N152	N	1.319841	0.564367	0.311115
C153	C	0.867378	0.031411	0.226546
C154	C	1.367378	0.531411	0.726546
C155	C	0.867383	0.031409	0.302774
C156	C	1.367383	0.531409	0.802774
C157	C	0.819804	0.064363	0.340904
C158	C	1.319804	0.564363	0.840904
C159	C	0.772206	0.097314	0.302800
C160	C	1.272206	0.597314	0.802800
C161	C	0.772198	0.097312	0.226573
C162	C	1.272198	0.597312	0.726573
C163	C	0.810231	0.108406	0.461658
C164	C	1.310231	0.608406	0.961658
C165	C	0.810244	0.108409	0.537883
C166	C	1.310244	0.608409	1.037883
C167	C	0.819824	0.064369	0.576011
C168	C	1.319824	0.564369	1.076011
C169	C	0.829406	0.020325	0.537906
C170	C	1.329406	0.520325	1.037906
C171	C	0.829398	0.020323	0.461679
C172	C	1.329398	0.520323	0.961679
C173	C	0.819807	0.064369	0.423559
C174	C	1.319807	0.564369	0.923559
C175	C	0.867421	0.031416	0.696761
C176	C	1.367421	0.531416	1.196761
C177	C	0.867420	0.031413	0.772991
C178	C	1.367420	0.531413	1.272991
C179	C	0.772247	0.097322	0.773015
C180	C	1.272247	0.597322	1.273015
C181	C	0.772244	0.097321	0.696787
C182	C	1.272244	0.597321	1.196787
C183	C	0.819835	0.064368	0.658665
C184	C	1.319835	0.564368	1.158665
H185	H	0.461651	0.145899	-0.000207
H186	H	0.961651	0.645899	0.499793
H187	H	0.493409	-0.013949	-0.000187
H188	H	0.993409	0.486051	0.499813
O189	O	0.631808	-0.019519	-0.000177
O190	O	1.131808	0.480481	0.499823
C191	C	0.592033	-0.058887	-0.000160
C192	C	1.092033	0.441113	0.499840
H193	H	0.537839	-0.046500	-0.023096
H194	H	1.037839	0.453500	0.476904
H195	H	0.619104	-0.089483	-0.035311
H196	H	1.119104	0.410517	0.464689
H197	H	0.586992	-0.072513	0.057939
H198	H	1.086992	0.427487	0.557939
H199	H	0.397731	0.003809	-0.077191
H200	H	0.897731	0.503809	0.422809
H201	H	0.241891	0.124920	0.076734
H202	H	0.741891	0.624920	0.576734
O203	O	0.184946	-0.024078	-0.000270
O204	O	0.684946	0.475922	0.499730
C205	C	0.145169	-0.063445	-0.000255
C206	C	0.645169	0.436555	0.499745
H207	H	0.090977	-0.051057	-0.023194
H208	H	0.590977	0.448943	0.476806
H209	H	0.172242	-0.094040	-0.035405
H210	H	0.672242	0.405960	0.464595
H211	H	0.140125	-0.077071	0.057843
H212	H	0.640125	0.422929	0.557843
O213	O	0.632000	-0.392203	-0.000085
O214	O	1.132000	0.107797	0.499915
C215	C	0.627762	-0.421033	0.062619
C216	C	1.127762	0.078967	0.562619
H217	H	0.663916	-0.409196	0.106458
H218	H	1.163916	0.090804	0.606458
H219	H	0.571726	-0.416390	0.083672
H220	H	1.071726	0.083610	0.583672
H221	H	0.644216	-0.460825	0.048432
H222	H	1.144216	0.039175	0.548432
O223	O	0.948410	-0.189451	-0.000141
O224	O	1.448410	0.310549	0.499859
C225	C	0.951777	-0.218968	0.062584
C226	C	1.451777	0.281032	0.562584
H227	H	0.896670	-0.221414	0.083502
H228	H	1.396670	0.278586	0.583502
H229	H	0.978079	-0.256911	0.048471
H230	H	1.478079	0.243089	0.548471
H231	H	0.983303	-0.202448	0.106498
H232	H	1.483303	0.297552	0.606498
H233	H	0.733444	0.124142	0.195556
H234	H	1.233444	0.624142	0.695556
O235	O	0.631171	-0.444121	-0.000161
O236	O	1.131171	0.055879	0.499839
C237	C	0.574792	-0.471987	-0.000166
C238	C	1.074792	0.028013	0.499834
H239	H	0.592843	-0.509658	0.022747
H240	H	1.092843	-0.009658	0.522747
H241	H	0.530699	-0.453311	0.035009
H242	H	1.030699	0.046689	0.535009
H243	H	0.555242	-0.475527	-0.058259
H244	H	1.055242	0.024473	0.441741
H245	H	0.802418	0.144270	0.430620
H246	H	1.302418	0.644270	0.930620
H247	H	0.699737	-0.778212	-0.000208
H248	H	1.199737	-0.278212	0.499792
O249	O	0.801056	0.151179	0.574931
O250	O	1.301056	0.651179	1.074931
C251	C	0.859965	0.154977	0.619006
C252	C	1.359965	0.654977	1.119006
H253	H	0.906985	0.130803	0.596017
H254	H	1.406985	0.630803	1.096017
H255	H	0.871447	0.194321	0.619856
H256	H	1.371447	0.694321	1.119856
H257	H	0.849098	0.142879	0.676785
H258	H	1.349098	0.642879	1.176785
O259	O	0.007622	0.148157	-0.000260
O260	O	0.507622	0.648157	0.499740
C261	C	-0.062206	0.137980	-0.000288
C262	C	0.437794	0.637980	0.499712
H263	H	-0.064590	0.100021	0.022652
H264	H	0.435410	0.600021	0.522652
H265	H	-0.095348	0.165836	0.034854
H266	H	0.404652	0.665836	0.534854
H267	H	-0.083145	0.139853	-0.058390
H268	H	0.416855	0.639853	0.441610
H269	H	0.701070	-0.686757	-0.000220
H270	H	1.201070	-0.186757	0.499780
H271	H	0.373315	0.126263	0.076757
H272	H	0.873315	0.626263	0.576757
H273	H	0.939890	-0.093056	-0.000217
H274	H	1.439890	0.406944	0.499783
H275	H	0.999848	-0.330868	-0.000261
H276	H	1.499848	0.169132	0.499739
O277	O	0.633457	-0.292776	-0.000333
O278	O	1.133457	0.207224	0.499667
C279	C	0.630110	-0.263241	-0.063038
C280	C	1.130110	0.236759	0.436962
H281	H	0.665842	-0.281771	-0.106883
H282	H	1.165842	0.218229	0.393117
H283	H	0.574102	-0.257456	-0.084081
H284	H	1.074102	0.242544	0.415919
H285	H	0.647679	-0.226616	-0.048858
H286	H	1.147679	0.273384	0.451142
O287	O	0.700223	-0.066713	-0.000203
O288	O	1.200223	0.433287	0.499797
C289	C	0.714543	-0.018074	-0.000185
C290	C	1.214543	0.481926	0.499815
H291	H	0.769086	-0.016256	-0.023118
H292	H	1.269086	0.483744	0.476882
H293	H	0.674384	0.004858	-0.035338
H294	H	1.174384	0.504858	0.464662
H295	H	0.711738	-0.003495	0.057914
H296	H	1.211738	0.496505	0.557914
O297	O	0.913677	-0.000619	0.339677
O298	O	1.413677	0.499381	0.839677
C299	C	0.955663	-0.029714	0.289684
C300	C	1.455663	0.470286	0.789684
H301	H	0.956233	-0.009900	0.235339
H302	H	1.456233	0.490100	0.735339
H303	H	1.011211	-0.037187	0.311686
H304	H	1.511211	0.462813	0.811686
H305	H	0.933497	-0.065583	0.281601
H306	H	1.433497	0.434417	0.781601
O307	O	0.939515	-0.804443	-0.000376
O308	O	1.439515	-0.304443	0.499624
C309	C	0.978222	-0.795710	-0.063118
C310	C	1.478222	-0.295710	0.436882
H311	H	0.960753	-0.757424	-0.084018
H312	H	1.460753	-0.257424	0.415982
H313	H	1.036192	-0.799385	-0.049036
H314	H	1.536192	-0.299385	0.450964
H315	H	0.969020	-0.823260	-0.107035
H316	H	1.469020	-0.323260	0.392965
H317	H	0.906170	0.004583	0.665721
H318	H	1.406170	0.504583	1.165721
H319	H	0.146211	0.142682	-0.000263
H320	H	0.646211	0.642682	0.499737
H321	H	0.998512	-0.422320	-0.000273
H322	H	1.498512	0.077680	0.499727
H323	H	0.930914	-0.708138	-0.000262
H324	H	1.430914	-0.208138	0.499738
H325	H	0.266315	0.002469	-0.077215
H326	H	0.766315	0.502469	0.422785
O327	O	1.007710	-0.479154	-0.000316
O328	O	1.507710	0.020846	0.499684
C329	C	1.063123	-0.517423	-0.000313
C330	C	1.563123	-0.017423	0.499687
H331	H	1.044023	-0.551628	-0.023236
H332	H	1.544023	-0.051628	0.476764
H333	H	1.107643	-0.506979	-0.035482
H334	H	1.607643	-0.006979	0.464518
H335	H	1.082512	-0.524607	0.057779
H336	H	1.582512	-0.024607	0.557779
O337	O	1.006175	-0.578481	-0.000422
O338	O	1.506175	-0.078481	0.499578
C339	C	1.009529	-0.607993	-0.063137
C340	C	1.509529	-0.107993	0.436863
H341	H	0.973815	-0.589443	-0.106960
H342	H	1.473815	-0.089443	0.393040
H343	H	1.065543	-0.613780	-0.084206
H344	H	1.565543	-0.113780	0.415794
H345	H	0.991944	-0.644619	-0.048957
H346	H	1.491944	-0.144619	0.451043
H347	H	0.708716	-0.163138	-0.000163
H348	H	1.208716	0.336862	0.499837
O349	O	0.838589	-0.022450	0.574961
O350	O	1.338589	0.477550	1.074961
C351	C	0.779685	-0.026245	0.619097
C352	C	1.279685	0.473755	1.119097
H353	H	0.732666	-0.002064	0.596145
H354	H	1.232666	0.497936	1.096145
H355	H	0.768192	-0.065587	0.619973
H356	H	1.268192	0.434413	1.119973
H357	H	0.790564	-0.014155	0.676860
H358	H	1.290564	0.485845	1.176860
O359	O	0.913388	-0.000685	0.189404
O360	O	1.413388	0.499315	0.689404
C361	C	0.903064	0.006297	0.113954
C362	C	1.403064	0.506297	0.613954
H363	H	0.876953	0.044833	0.103467
H364	H	1.376953	0.544833	0.603467
H365	H	0.955652	0.000588	0.084848
H366	H	1.455652	0.500588	0.584848
H367	H	0.868241	-0.020882	0.092537
H368	H	1.368241	0.479118	0.592537
O369	O	0.629826	-0.543488	-0.000307
O370	O	1.129826	-0.043488	0.499693
C371	C	0.625613	-0.572275	-0.063041
C372	C	1.125613	-0.072275	0.436959
H373	H	0.680501	-0.584946	-0.083958
H374	H	1.180501	-0.084946	0.416042
H375	H	0.598277	-0.605233	-0.048942
H376	H	1.098277	-0.105233	0.451058
H377	H	0.594656	-0.549924	-0.106952
H378	H	1.094656	-0.049924	0.393048
O379	O	0.042208	-0.025482	-0.000392
O380	O	0.542208	0.474518	0.499608
C381	C	0.000850	-0.028539	-0.063108
C382	C	0.500850	0.471461	0.436892
H383	H	0.017736	-0.003315	-0.106944
H384	H	0.517736	0.496685	0.393056
H385	H	0.007784	-0.067509	-0.084156
H386	H	0.507784	0.432491	0.415844
H387	H	-0.056411	-0.017266	-0.048940
H388	H	0.443589	0.482734	0.451060
H389	H	0.837199	-0.015539	0.430657
H390	H	1.337199	0.484461	0.930657
O391	O	0.913720	-0.000612	0.809886
O392	O	1.413720	0.499388	1.309886
C393	C	0.955709	-0.029702	0.759888
C394	C	1.455709	0.470298	1.259888
H395	H	0.956271	-0.009885	0.705545
H396	H	1.456271	0.490115	1.205545
H397	H	1.011259	-0.037169	0.781887
H398	H	1.511259	0.462831	1.281887
H399	H	0.933552	-0.065574	0.751805
H400	H	1.433552	0.434426	1.251805
O401	O	0.726094	0.129315	0.810158
O402	O	1.226094	0.629315	1.310158
C403	C	0.736290	0.122242	0.885607
C404	C	1.236290	0.622242	1.385607
H405	H	0.791707	0.104080	0.895997
H406	H	1.291707	0.604080	1.395997
H407	H	0.728166	0.158863	0.914569
H408	H	1.228166	0.658863	1.414569
H409	H	0.697242	0.098066	0.907265
H410	H	1.197242	0.598066	1.407265
H411	H	0.733495	0.124152	0.665768
H412	H	1.233495	0.624152	1.165768
O413	O	0.725961	0.129260	0.339917
O414	O	1.225961	0.629260	0.839917
C415	C	0.683388	0.103448	0.384030
C416	C	1.183388	0.603448	0.884030
H417	H	0.711463	0.065575	0.395448
H418	H	1.211463	0.565575	0.895448
H419	H	0.672189	0.123645	0.437631
H420	H	1.172189	0.623645	0.937631
H421	H	0.632086	0.100253	0.354684
H422	H	1.132086	0.600253	0.854684
H423	H	0.593069	0.147241	-0.000194
H424	H	1.093069	0.647241	0.499806
