data_functionalizedCrystal
_audit_creation_method	'MofGen! by Chris Wilmer'
_symmetry_space_group_name_H-M	'P1'
_symmetry_Int_Tables_number	1
_symmetry_cell_setting	triclinic
loop_
_symmetry_equiv_pos_as_xyz
  x,y,z
_cell_length_a	11.026607
_cell_length_b	10.489741
_cell_length_c	9.482900
_cell_angle_alpha	99.430409
_cell_angle_beta	78.636152
_cell_angle_gamma	96.562595
loop_
_atom_site_label
_atom_site_type_symbol
_atom_site_fract_x
_atom_site_fract_y
_atom_site_fract_z
O1	O	1.633618	0.519526	-0.120902
O2	O	2.133618	1.019526	0.379098
O3	O	1.279780	0.458584	-0.120903
O4	O	1.779780	0.958584	0.379097
O5	O	1.464749	0.305229	-0.120894
O6	O	1.964749	0.805229	0.379106
O7	O	1.448649	0.672881	-0.120911
O8	O	1.948649	1.172881	0.379089
O9	O	1.427179	0.336539	0.120897
O10	O	1.927179	0.836539	0.620897
O11	O	1.242210	0.489894	0.120887
O12	O	1.742210	0.989894	0.620887
O13	O	1.596048	0.550836	0.120889
O14	O	2.096048	1.050836	0.620889
Cu15	Cu	1.415698	0.523224	0.142965
Cu16	Cu	1.915698	1.023224	0.642965
Cu17	Cu	1.460129	0.486196	-0.142980
Cu18	Cu	1.960129	0.986196	0.357020
O19	O	1.411079	0.704190	0.120879
O20	O	1.911079	1.204190	0.620879
C21	C	1.215686	0.462996	-0.000008
C22	C	1.715686	0.962996	0.499992
C23	C	1.080679	0.429482	-0.000008
C24	C	1.580679	0.929482	0.499992
C25	C	1.007683	0.522021	-0.000014
C26	C	1.507683	1.022021	0.499986
C27	C	0.868146	0.487384	-0.000014
C28	C	1.368146	0.987384	0.499986
C29	C	1.444748	0.273085	0.000000
C30	C	1.944748	0.773085	0.500000
C31	C	1.441110	0.130655	-0.000002
C32	C	1.941110	0.630655	0.499998
C33	C	1.323420	0.036624	-0.000013
C34	C	1.823420	0.536624	0.499987
C35	C	1.360492	-0.027831	0.119202
C36	C	1.860492	0.472169	0.619202
C37	C	1.397561	-0.058669	-0.119184
C38	C	1.897561	0.441331	0.380816
C39	C	1.478215	0.068088	0.119312
C40	C	1.978215	0.568088	0.619312
C41	C	1.515284	0.037242	-0.119182
C42	C	2.015284	0.537242	0.380818
C43	C	1.552438	-0.027163	0.000063
C44	C	2.052438	0.472837	0.500063
C45	C	1.660143	0.546423	-0.000010
C46	C	2.160143	1.046423	0.499990
C47	C	1.795151	0.579936	-0.000019
C48	C	2.295151	1.079936	0.499981
C49	C	1.431080	0.736334	-0.000018
C50	C	1.931080	1.236334	0.499982
C51	C	1.434720	0.878763	-0.000025
C52	C	1.934720	1.378763	0.499975
N53	N	1.384457	0.549268	0.344084
N54	N	1.884457	1.049268	0.844084
N55	N	1.491380	0.460144	-0.344099
N56	N	1.991380	0.960144	0.155901
C57	C	1.450906	0.493869	0.416286
C58	C	1.950906	0.993869	0.916286
C59	C	1.424922	0.515551	0.583703
C60	C	1.924922	1.015551	1.083703
H61	H	1.048490	0.626890	-0.000010
H62	H	1.548490	1.126890	0.499990
C63	C	1.025555	0.287805	-0.000002
C64	C	1.525555	0.787805	0.499998
N65	N	0.984037	0.181091	0.000001
N66	N	1.484037	0.681091	0.500001
H67	H	1.567508	0.396654	0.593781
H68	H	2.067508	0.896654	1.093781
H69	H	1.226636	0.065005	0.000107
H70	H	1.726636	0.565005	0.500107
C71	C	1.683261	-0.065153	0.000156
C72	C	2.183261	0.434847	0.500156
N73	N	1.781794	-0.093771	0.000235
N74	N	2.281794	0.406229	0.500235
H75	H	1.308326	0.612742	0.406210
H76	H	1.808326	1.112742	0.906210
H77	H	0.835951	0.684814	-0.000014
H78	H	1.335951	1.184814	0.499986
H79	H	1.348785	0.579029	0.645823
H80	H	1.848785	1.079029	1.145823
C81	C	1.351418	-0.132953	-0.255344
C82	C	1.851418	0.367047	0.244656
N83	N	1.316655	-0.188899	-0.357894
N84	N	1.816655	0.311101	0.142106
H85	H	1.580702	0.066180	-0.219975
H86	H	2.080702	0.566180	0.280025
C87	C	1.553731	0.408082	0.332362
C88	C	2.053731	0.908082	0.832362
N89	N	1.631175	0.343458	0.269151
N90	N	2.131175	0.843458	0.769151
C91	C	1.272061	-0.066901	0.255358
C92	C	1.772061	0.433099	0.755358
N93	N	1.205447	-0.096327	0.357906
N94	N	1.705447	0.403673	0.857906
C95	C	1.524246	0.142173	0.255628
C96	C	2.024246	0.642173	0.755628
N97	N	1.558910	0.197977	0.358304
N98	N	2.058910	0.697977	0.858304
C99	C	0.813027	0.345701	-0.000007
C100	C	1.313027	0.845701	0.499993
N101	N	0.771510	0.238986	-0.000004
N102	N	1.271510	0.738986	0.499996
