data_functionalizedCrystal
_audit_creation_method	'MofGen! by Chris Wilmer'
_symmetry_space_group_name_H-M	'P1'
_symmetry_Int_Tables_number	1
_symmetry_cell_setting	triclinic
loop_
_symmetry_equiv_pos_as_xyz
  x,y,z
_cell_length_a	14.044220
_cell_length_b	14.044191
_cell_length_c	12.503552
_cell_angle_alpha	86.157523
_cell_angle_beta	86.157908
_cell_angle_gamma	86.809673
loop_
_atom_site_label
_atom_site_type_symbol
_atom_site_fract_x
_atom_site_fract_y
_atom_site_fract_z
O1	O	-0.225150	1.282214	-0.089264
O2	O	-0.216837	1.005543	-0.089278
O3	O	-0.082658	1.139725	-0.089266
O4	O	-0.359329	1.148032	-0.089275
O5	O	-0.092758	1.129622	0.089375
O6	O	-0.226937	0.995439	0.089364
O7	O	-0.235250	1.272111	0.089378
Cu8	Cu	-0.232016	1.132853	0.105682
Cu9	Cu	-0.220072	1.144801	-0.105582
O10	O	-0.369429	1.137928	0.089366
C11	C	-0.218250	0.964869	0.000041
C12	C	-0.207403	0.858726	0.000036
C13	C	-0.264504	0.613267	0.000045
C14	C	-0.187587	0.664393	0.000046
C15	C	-0.198615	0.772530	0.000040
C16	C	-0.253477	0.505120	0.000050
C17	C	-0.400001	1.146616	0.000044
C18	C	-0.506144	1.157461	0.000041
C19	C	-0.700482	1.177287	0.000047
C20	C	-0.751610	1.100372	0.000044
C21	C	-0.859747	1.111404	0.000047
C22	C	-0.592336	1.166257	0.000044
C23	C	-0.052086	1.131038	0.000053
C24	C	0.054057	1.120194	0.000050
C25	C	-0.233837	1.312785	0.000056
C26	C	-0.244684	1.418928	0.000055
N27	N	-0.240416	1.124456	0.254274
N28	N	-0.211664	1.153205	-0.254174
C29	C	-0.199303	1.165552	0.526711
C30	C	-0.252775	1.112112	0.473382
C31	C	-0.245897	1.118982	0.351459
C32	C	-0.206179	1.158683	0.648645
H33	H	-0.113451	0.626954	-0.000027
H34	H	-0.737922	1.251414	0.000055
N35	N	-0.702023	1.002171	0.000068
H36	H	-0.751214	0.952375	0.000075
H37	H	-0.657063	0.997989	-0.066151
H38	H	-0.303720	1.061202	0.519294
N39	N	-0.131818	1.232970	0.465890
H40	H	-0.169282	1.280932	0.419219
H41	H	-0.097092	1.267618	0.518520
N42	N	-0.362696	0.662856	0.000035
H43	H	-0.356753	0.734196	0.000029
H44	H	-0.394758	0.647466	-0.066194
