data_functionalizedCrystal
_audit_creation_method	'MofGen! by Chris Wilmer'
_symmetry_space_group_name_H-M	'P1'
_symmetry_Int_Tables_number	1
_symmetry_cell_setting	triclinic
loop_
_symmetry_equiv_pos_as_xyz
  x,y,z
_cell_length_a	16.992694
_cell_length_b	7.540329
_cell_length_c	9.065218
_cell_angle_alpha	89.998243
_cell_angle_beta	87.842054
_cell_angle_gamma	90.002664
loop_
_atom_site_label
_atom_site_type_symbol
_atom_site_fract_x
_atom_site_fract_y
_atom_site_fract_z
O1	O	1.042613	-0.147248	0.313083
O2	O	0.814303	-0.147301	0.309648
O3	O	0.933177	-0.147270	0.097161
O4	O	0.923739	-0.147279	0.525570
O5	O	0.933170	0.147695	0.097157
O6	O	0.814296	0.147664	0.309644
O7	O	1.042606	0.147717	0.313079
Cu8	Cu	0.928450	0.174623	0.311361
Cu9	Cu	0.928459	-0.174207	0.311365
O10	O	0.923732	0.147686	0.525566
C11	C	0.785056	0.000175	0.305227
C12	C	0.697918	0.000155	0.292043
N13	N	0.928450	0.419972	0.311358
N14	N	0.928465	-0.419556	0.311358
C15	C	0.648581	0.000153	0.419249
C16	C	0.566706	0.000178	0.406853
C17	C	0.534170	0.000192	0.267249
C18	C	0.583514	0.000198	0.140034
C19	C	0.665387	0.000186	0.152432
C20	C	0.290208	0.000240	0.215866
C21	C	0.208328	0.000247	0.203477
C22	C	0.191526	0.000230	0.470298
C23	C	0.273402	0.000207	0.482683
C24	C	0.322738	0.000223	0.355468
N25	N	0.450482	0.000211	0.254575
N26	N	0.406425	0.000216	0.368144
C27	C	1.071853	0.000237	0.317499
C28	C	1.158991	0.000246	0.330683
C29	C	0.932267	0.000210	0.042088
C30	C	0.929555	0.000200	-0.122007
C31	C	0.924643	0.000202	0.580639
C32	C	0.927355	0.000200	0.744733
H33	H	0.675065	0.000141	0.532930
C34	C	0.718919	-0.000187	0.014271
C35	C	0.704082	-0.151958	-0.069212
C36	C	0.753387	-0.152368	-0.196488
H37	H	0.709004	0.102556	-0.042748
H38	H	0.772350	-0.000289	0.041588
H39	H	0.650663	-0.151840	-0.096532
H40	H	0.714002	-0.254726	-0.012238
H41	H	0.806818	-0.152469	-0.169171
H42	H	0.743468	-0.049618	-0.253494
H43	H	0.743332	-0.255350	-0.253140
H44	H	0.330368	0.000255	0.112277
H45	H	0.299886	0.000176	0.596363
C46	C	0.548147	-0.000153	-0.011499
C47	C	0.501646	-0.151925	-0.026424
C48	C	0.469063	-0.152327	-0.166006
H49	H	0.516505	0.102590	-0.022034
H50	H	0.589235	-0.000247	-0.085531
H51	H	0.460562	-0.151815	0.047586
H52	H	0.533269	-0.254692	-0.015919
H53	H	0.510152	-0.152421	-0.240038
H54	H	0.437425	-0.049578	-0.176528
H55	H	0.437515	-0.255310	-0.176156
C56	C	0.513099	0.000522	0.544909
C57	C	0.465624	0.152302	0.545622
C58	C	0.416237	0.152688	0.672789
H59	H	0.480733	-0.102215	0.545737
H60	H	0.544171	0.000594	0.629870
H61	H	0.434555	0.152214	0.460683
H62	H	0.497969	0.255064	0.544816
H63	H	0.447310	0.152760	0.757750
H64	H	0.383877	0.049945	0.673605
H65	H	0.384026	0.255676	0.673296
C66	C	0.137999	-0.000137	0.608461
C67	C	0.152824	-0.151916	0.691945
C68	C	0.103522	-0.152320	0.819225
H69	H	0.147925	0.102601	0.665476
H70	H	0.084567	-0.000222	0.581149
H71	H	0.206243	-0.151814	0.719259
H72	H	0.142893	-0.254678	0.634974
H73	H	0.050090	-0.152406	0.791913
H74	H	0.113452	-0.049576	0.876228
H75	H	0.113569	-0.255308	0.875878
C76	C	0.172898	0.000550	0.051989
C77	C	0.126373	0.152282	0.037105
C78	C	0.093715	0.152607	-0.102411
H79	H	0.213926	0.000653	-0.022135
H80	H	0.141262	-0.102256	0.041581
H81	H	0.158007	0.255062	0.047497
H82	H	0.085332	0.152212	0.111195
H83	H	0.062078	0.049800	-0.112818
H84	H	0.134748	0.152705	-0.176523
H85	H	0.062138	0.255546	-0.112523
