data_functionalizedCrystal
_audit_creation_method	'MofGen! by Chris Wilmer'
_symmetry_space_group_name_H-M	'P1'
_symmetry_Int_Tables_number	1
_symmetry_cell_setting	triclinic
loop_
_symmetry_equiv_pos_as_xyz
  x,y,z
_cell_length_a	21.395364
_cell_length_b	18.101395
_cell_length_c	21.395355
_cell_angle_alpha	90.017487
_cell_angle_beta	89.975448
_cell_angle_gamma	89.947636
loop_
_atom_site_label
_atom_site_type_symbol
_atom_site_fract_x
_atom_site_fract_y
_atom_site_fract_z
Zn1	Zn	0.957830	0.294620	-0.354266
Zn2	Zn	0.957720	0.418443	-0.249490
Zn3	Zn	0.853045	0.294652	-0.249503
Zn4	Zn	0.853002	0.418457	-0.354231
O5	O	0.905399	0.356543	-0.301872
O6	O	1.045493	0.311026	-0.340377
O7	O	0.943807	0.402030	-0.161814
O8	O	0.867009	0.191015	-0.263420
O9	O	1.045413	0.401999	-0.263399
O10	O	0.943994	0.190991	-0.340389
O11	O	0.866903	0.311082	-0.161823
O12	O	0.765361	0.311094	-0.263385
O13	O	0.866936	0.402021	-0.441913
O14	O	0.765330	0.402053	-0.340328
O15	O	0.943952	0.311039	-0.441939
O16	O	0.943765	0.522078	-0.263364
O17	O	0.866829	0.522088	-0.340317
C18	C	0.905298	0.548954	-0.301849
C19	C	0.905311	0.631268	-0.301860
C20	C	0.742612	0.356579	-0.301855
C21	C	0.672970	0.356612	-0.301862
C22	C	0.905371	0.781976	-0.301887
C23	C	0.856938	0.813367	-0.350267
C24	C	0.857114	0.898985	-0.350472
C25	C	0.905429	0.930359	-0.301914
C26	C	0.971488	0.899159	-0.319677
C27	C	0.971174	0.813515	-0.320013
C28	C	0.888336	0.813604	-0.235629
C29	C	0.886912	0.899256	-0.235998
C30	C	0.905466	1.014218	-0.301928
C31	C	0.905339	0.698117	-0.301875
C32	C	0.640322	0.309321	-0.342007
C33	C	0.574886	0.309301	-0.342009
C34	C	0.542102	0.356586	-0.301874
C35	C	0.574759	0.403881	-0.261721
C36	C	0.640193	0.403894	-0.261716
C37	C	0.438371	0.423279	-0.296837
C38	C	0.372938	0.423267	-0.296847
C39	C	0.340281	0.356545	-0.301887
C40	C	0.373066	0.289834	-0.306931
C41	C	0.438500	0.289847	-0.306925
C42	C	0.471150	0.356577	-0.301875
C43	C	0.236680	0.309228	-0.342037
C44	C	0.171243	0.309207	-0.342035
C45	C	0.171117	0.403794	-0.261750
C46	C	0.236553	0.403809	-0.261749
C47	C	0.269330	0.356527	-0.301895
C48	C	1.068823	0.356507	-0.301890
C49	C	1.138464	0.356492	-0.301898
C50	C	0.905451	0.356528	-0.465296
C51	C	0.905474	0.356522	-0.534937
C52	C	0.905498	1.163381	-0.301914
C53	C	0.905489	1.081067	-0.301941
C54	C	0.945574	0.309145	-0.567665
C55	C	0.945574	0.309113	-0.633100
C56	C	0.905478	0.356471	-0.665805
C57	C	0.865370	0.403851	-0.633070
C58	C	0.865367	0.403876	-0.567636
C59	C	0.900496	0.423154	-0.769472
C60	C	0.900503	0.423130	-0.834905
C61	C	0.905482	0.356393	-0.867626
C62	C	0.910468	0.289678	-0.834907
C63	C	0.910466	0.289703	-0.769472
C64	C	0.905476	0.356449	-0.736758
C65	C	0.945584	0.308978	-0.971307
C66	C	0.945579	0.308945	-1.036743
C67	C	0.865379	0.403689	-1.036712
C68	C	0.865381	0.403716	-0.971276
C69	C	0.905487	0.356361	-0.938578
C70	C	0.905384	0.356505	-0.139085
C71	C	0.905483	0.356302	-0.069444
H72	H	0.808136	0.920086	-0.339369
H73	H	0.144425	0.442295	-0.229071
Br74	Br	0.809385	0.777743	-0.208619
H75	H	0.978227	0.270530	-0.659752
Br76	Br	0.328754	0.199277	-0.313773
Br77	Br	0.875925	0.933070	-0.432320
Br78	Br	0.328452	0.513803	-0.290016
H79	H	0.838297	0.919660	-0.222599
H80	H	0.465190	0.235528	-0.311030
Br81	Br	0.280865	0.467988	-0.207259
H82	H	0.914524	0.235334	-0.861547
Br83	Br	0.875527	0.777436	-0.431632
H84	H	0.832709	0.442455	-0.540989
H85	H	0.832726	0.442241	-1.063340
Br86	Br	1.033306	0.932997	-0.262757
Br87	Br	0.893756	0.513736	-0.725071
Br88	Br	0.126933	0.245014	-0.396517
Br89	Br	0.810950	0.468118	-0.677454
H90	H	0.914524	0.235381	-0.742835
H91	H	0.978231	0.270585	-0.541045
Br92	Br	0.684505	0.468078	-0.207226
Br93	Br	0.775017	0.779173	-0.331981
Br94	Br	1.000011	0.244711	-0.926926
H95	H	0.464955	0.477615	-0.292732
H96	H	0.985593	0.793491	-0.368442
Br97	Br	0.684803	0.245152	-0.396491
Br98	Br	1.033380	0.778886	-0.263816
Br99	Br	0.530268	0.468049	-0.207246
H100	H	0.986172	0.920561	-0.367582
Br101	Br	1.000016	0.244654	-1.081161
H102	H	0.919614	0.920622	-0.198042
H103	H	0.923607	0.793292	-0.199584
Br104	Br	0.530567	0.245112	-0.396492
H105	H	0.263369	0.270724	-0.374722
H106	H	0.832730	0.442299	-0.944629
Br107	Br	0.893745	0.513671	-0.879304
