data_functionalizedCrystal
_audit_creation_method	'MofGen! by Chris Wilmer'
_symmetry_space_group_name_H-M	'P1'
_symmetry_Int_Tables_number	1
_symmetry_cell_setting	triclinic
loop_
_symmetry_equiv_pos_as_xyz
  x,y,z
_cell_length_a	19.288840
_cell_length_b	14.044190
_cell_length_c	17.766277
_cell_angle_alpha	89.989261
_cell_angle_beta	89.983415
_cell_angle_gamma	88.158896
loop_
_atom_site_label
_atom_site_type_symbol
_atom_site_fract_x
_atom_site_fract_y
_atom_site_fract_z
O1	O	0.928955	0.118101	-0.062729
O2	O	0.727718	0.134072	-0.062705
O3	O	0.825313	-0.011885	-0.062702
O4	O	0.831359	0.264058	-0.062732
O5	O	0.825294	-0.011892	0.062487
O6	O	0.727699	0.134065	0.062484
O7	O	0.928935	0.118093	0.062459
Cu8	Cu	0.828315	0.126078	0.073902
Cu9	Cu	0.828338	0.126087	-0.074148
O10	O	0.831340	0.264051	0.062456
C11	C	0.701799	0.133559	-0.000107
C12	C	0.624596	0.132028	-0.000097
C13	C	0.588356	0.131297	-0.068339
C14	C	0.515816	0.129848	-0.068348
C15	C	0.479519	0.129111	-0.000111
C16	C	0.515768	0.129848	0.068140
C17	C	0.588307	0.131306	0.068147
C18	C	0.366468	0.071292	0.052164
C19	C	0.293931	0.069828	0.052154
C20	C	0.255787	0.124617	-0.000130
C21	C	0.290189	0.180858	-0.052417
C22	C	0.362727	0.182316	-0.052410
C23	C	0.400864	0.127530	-0.000111
C24	C	0.140890	0.122316	-0.068387
C25	C	0.068349	0.120873	-0.068393
C26	C	0.068303	0.120863	0.068097
C27	C	0.140843	0.122316	0.068101
C28	C	0.177132	0.123038	-0.000143
C29	C	0.822659	-0.047192	-0.000105
C30	C	0.814769	-0.152383	-0.000097
C31	C	0.856301	-0.402852	-0.000132
C32	C	0.800356	-0.344977	-0.000120
C33	C	0.808377	-0.237808	-0.000107
C34	C	0.848280	-0.510031	-0.000145
C35	C	0.954854	0.118607	-0.000140
C36	C	1.032057	0.120138	-0.000155
C37	C	0.833995	0.299357	-0.000142
C38	C	0.841885	0.404549	-0.000155
N39	N	0.828304	0.126072	0.178033
N40	N	0.828354	0.126086	-0.178278
C41	C	0.871537	0.061473	0.217421
C42	C	0.871541	0.061469	0.296223
C43	C	0.828319	0.126079	0.335633
C44	C	0.785079	0.190683	0.296236
C45	C	0.785071	0.190679	0.217435
C46	C	0.824570	0.212423	0.460462
C47	C	0.824582	0.212428	0.539261
C48	C	0.828339	0.126091	0.578680
C49	C	0.832097	0.039745	0.539289
C50	C	0.832090	0.039741	0.460489
C51	C	0.828323	0.126090	0.421079
C52	C	0.871578	0.061482	0.703514
C53	C	0.871576	0.061477	0.782317
C54	C	0.785118	0.190698	0.782328
C55	C	0.785115	0.190696	0.703527
C56	C	0.828349	0.126089	0.664124
H57	H	0.486303	0.129253	-0.123920
H58	H	0.259133	0.225476	-0.094989
H59	H	0.910216	-0.371915	-0.000131
C60	C	0.400566	0.244304	-0.109832
H61	H	0.449228	0.237355	-0.102315
H62	H	0.386418	0.309168	-0.103172
H63	H	0.389403	0.224653	-0.159413
H64	H	0.746436	-0.375916	-0.000118
H65	H	0.265927	0.024029	0.094725
C66	C	0.028389	0.120058	0.143159
H67	H	0.060365	0.120706	0.183804
H68	H	0.001968	0.064243	0.146001
H69	H	-0.001786	0.174747	0.145985
H70	H	0.170438	0.122913	-0.123955
C71	C	0.836213	-0.055229	0.417160
H72	H	0.838546	-0.106650	0.451915
H73	H	0.876470	-0.057237	0.386318
H74	H	0.796152	-0.060397	0.386523
C75	C	0.919084	-0.009601	0.174082
H76	H	0.944827	-0.048081	0.208831
H77	H	0.950098	0.024378	0.143319
H78	H	0.891652	-0.048966	0.143365
H79	H	0.835156	-0.030560	0.571382
C80	C	0.408423	0.011023	0.109679
H81	H	0.456550	0.019953	0.102201
H82	H	0.398755	-0.054348	0.103105
H83	H	0.395853	0.030302	0.159220
C84	C	0.919123	-0.009590	0.660168
H85	H	0.944865	-0.048075	0.694915
H86	H	0.950140	0.024391	0.629409
H87	H	0.891692	-0.048950	0.629446
H88	H	0.906747	0.008863	0.328298
C89	C	0.475843	0.129109	0.143199
H90	H	0.427451	0.128149	0.133421
H91	H	0.485858	0.184618	0.171197
H92	H	0.489583	0.074113	0.171282
H93	H	0.617813	0.131903	0.123720
H94	H	0.906779	0.008868	0.814387
H95	H	0.821499	0.282734	0.428375
C96	C	0.737575	0.261768	0.825670
H97	H	0.743774	0.252523	0.878243
H98	H	0.690593	0.251645	0.812777
H99	H	0.749038	0.324989	0.812741
H100	H	0.170350	0.122905	0.123672
H101	H	0.749915	0.243302	0.671455
H102	H	0.821527	0.282736	0.571327
C103	C	0.737522	0.261736	0.339580
H104	H	0.711763	0.300200	0.304833
H105	H	0.764933	0.301105	0.370309
H106	H	0.706510	0.227727	0.370331
C107	C	0.628270	0.132104	-0.143404
H108	H	0.596292	0.131469	-0.184048
H109	H	0.658451	0.077427	-0.146235
H110	H	0.654684	0.187931	-0.146243
C111	C	0.028484	0.120063	-0.143463
H112	H	0.060489	0.120692	-0.184102
H113	H	-0.001692	0.174742	-0.146317
H114	H	0.002069	0.064238	-0.146289
H115	H	0.749865	0.243283	0.185365
