data_functionalizedCrystal
_audit_creation_method	'MofGen! by Chris Wilmer'
_symmetry_space_group_name_H-M	'P1'
_symmetry_Int_Tables_number	1
_symmetry_cell_setting	triclinic
loop_
_symmetry_equiv_pos_as_xyz
  x,y,z
_cell_length_a	16.959455
_cell_length_b	21.295417
_cell_length_c	16.959455
_cell_angle_alpha	90.019041
_cell_angle_beta	90.001568
_cell_angle_gamma	90.027454
loop_
_atom_site_label
_atom_site_type_symbol
_atom_site_fract_x
_atom_site_fract_y
_atom_site_fract_z
Zn1	Zn	1.208227	-0.250748	0.446882
Zn2	Zn	1.708227	0.249252	0.946882
Zn3	Zn	1.208155	-0.355995	0.314692
Zn4	Zn	1.708155	0.144005	0.814692
Zn5	Zn	1.076085	-0.250738	0.314719
Zn6	Zn	1.576085	0.249262	0.814719
Zn7	Zn	1.075996	-0.355978	0.446830
Zn8	Zn	1.575996	0.144022	0.946830
O9	O	1.142116	-0.303365	0.380781
O10	O	1.642116	0.196635	0.880781
O11	O	1.318828	-0.264721	0.429356
O12	O	1.818828	0.235279	0.929356
O13	O	1.190642	-0.342036	0.204085
O14	O	1.690642	0.157964	0.704085
O15	O	1.093681	-0.162650	0.332284
O16	O	1.593681	0.337350	0.832284
O17	O	1.318775	-0.342046	0.332237
O18	O	1.818775	0.157954	0.832237
O19	O	1.190765	-0.162658	0.429383
O20	O	1.690765	0.337342	0.929383
O21	O	1.093611	-0.264704	0.204105
O22	O	1.593611	0.235296	0.704105
O23	O	0.965462	-0.264687	0.332234
O24	O	1.465462	0.235313	0.832234
O25	O	1.093530	-0.342016	0.557448
O26	O	1.593530	0.157984	1.057448
O27	O	0.965397	-0.342006	0.429296
O28	O	1.465397	0.157994	0.929296
O29	O	1.190679	-0.264704	0.557486
O30	O	1.690679	0.235296	1.057486
O31	O	1.190556	-0.444083	0.332187
O32	O	1.690556	0.055917	0.832187
O33	O	1.093460	-0.444070	0.429269
O34	O	1.593460	0.055930	0.929269
C35	C	0.936749	-0.303344	0.380763
C36	C	1.436749	0.196656	0.880763
C37	C	0.848893	-0.303351	0.380774
C38	C	1.348893	0.196649	0.880774
C39	C	0.477427	-0.263072	0.330346
C40	C	0.977427	0.236928	0.830346
C41	C	0.477408	-0.343710	0.431260
C42	C	0.977408	0.156290	0.931260
C43	C	0.559953	-0.343701	0.431256
C44	C	1.059953	0.156299	0.931256
C45	C	0.601240	-0.303378	0.380795
C46	C	1.101240	0.196622	0.880795
C47	C	0.559980	-0.263063	0.330338
C48	C	1.059980	0.236937	0.830338
C49	C	0.601219	-0.384019	0.481705
C50	C	1.101219	0.115981	0.981705
C51	C	0.683770	-0.384012	0.481702
C52	C	1.183770	0.115988	0.981702
C53	C	0.725058	-0.343685	0.431244
C54	C	1.225058	0.156315	0.931244
C55	C	0.683793	-0.303369	0.380786
C56	C	1.183793	0.196631	0.880786
C57	C	0.725080	-0.263045	0.330325
C58	C	1.225080	0.236955	0.830325
C59	C	0.683817	-0.222725	0.279871
C60	C	1.183817	0.277275	0.779871
C61	C	0.601268	-0.222736	0.279881
C62	C	1.101268	0.277264	0.779881
C63	C	0.807606	-0.343674	0.431235
C64	C	1.307606	0.156326	0.931235
C65	C	0.807633	-0.263036	0.330317
C66	C	1.307633	0.236964	0.830317
C67	C	1.142012	-0.466917	0.380737
C68	C	1.642012	0.033083	0.880737
C69	C	1.142040	-0.536885	0.380745
C70	C	1.642040	-0.036885	0.880745
C71	C	1.192643	-0.569737	0.330246
C72	C	1.692643	-0.069737	0.830246
C73	C	1.192680	-0.635480	0.330264
C74	C	1.692680	-0.135480	0.830264
C75	C	1.142100	-0.668367	0.380772
C76	C	1.642100	-0.168367	0.880772
C77	C	1.091493	-0.635507	0.431280
C78	C	1.591493	-0.135507	0.931280
C79	C	1.091463	-0.569766	0.431267
C80	C	1.591463	-0.069766	0.931267
N81	N	1.072952	-0.771631	0.386792
N82	N	1.572952	-0.271631	0.886792
N83	N	1.072983	-0.834083	0.386800
N84	N	1.572983	-0.334083	0.886800
C85	C	1.142189	-0.866442	0.380817
C86	C	1.642189	-0.366442	0.880817
N87	N	1.211364	-0.833991	0.374810
N88	N	1.711364	-0.333991	0.874810
N89	N	1.211332	-0.771534	0.374798
N90	N	1.711332	-0.271534	0.874798
C91	C	1.142127	-0.739653	0.380793
C92	C	1.642127	-0.239653	0.880793
C93	C	1.192836	-0.970580	0.330335
C94	C	1.692836	-0.470580	0.830335
C95	C	1.192874	-1.036324	0.330359
C96	C	1.692874	-0.536324	0.830359
C97	C	1.091681	-1.036350	0.431371
C98	C	1.591681	-0.536350	0.931371
C99	C	1.091649	-0.970607	0.431352
C100	C	1.591649	-0.470607	0.931352
C101	C	1.142226	-0.937726	0.380830
C102	C	1.642226	-0.437726	0.880830
C103	C	1.348284	-0.303386	0.380799
C104	C	1.848284	0.196614	0.880799
C105	C	1.436140	-0.303396	0.380807
C106	C	1.936140	0.196604	0.880807
C107	C	1.142103	-0.303359	0.586949
C108	C	1.642103	0.196641	1.086949
C109	C	1.142097	-0.303357	0.674806
C110	C	1.642097	0.196643	1.174806
C111	C	1.142241	-0.139175	0.380842
C112	C	1.642241	0.360825	0.880842
C113	C	1.142295	-0.069207	0.380868
C114	C	1.642295	0.430793	0.880868
C115	C	1.091527	-0.343627	1.046264
C116	C	1.591527	0.156373	1.546264
C117	C	1.192690	-0.263121	1.046298
C118	C	1.692690	0.236879	1.546298
C119	C	1.192687	-0.263116	0.963752
C120	C	1.692687	0.236884	1.463752
C121	C	1.142105	-0.303367	0.922459
C122	C	1.642105	0.196633	1.422459
C123	C	1.091525	-0.343624	0.963710
C124	C	1.591525	0.156376	1.463710
C125	C	1.243272	-0.222865	0.922494
C126	C	1.743272	0.277135	1.422494
C127	C	1.243272	-0.222858	0.839943
C128	C	1.743272	0.277142	1.339943
C129	C	1.192685	-0.263107	0.798648
C130	C	1.692685	0.236893	1.298648
C131	C	1.142102	-0.303365	0.839905
C132	C	1.642102	0.196635	1.339905
C133	C	1.091520	-0.343616	0.798611
C134	C	1.591520	0.156384	1.298611
C135	C	1.040932	-0.383871	0.839867
C136	C	1.540932	0.116129	1.339867
C137	C	1.040938	-0.383873	0.922415
C138	C	1.540938	0.116127	1.422415
C139	C	1.192680	-0.263106	0.716099
C140	C	1.692680	0.236894	1.216099
C141	C	1.091517	-0.343613	0.716058
C142	C	1.591517	0.156387	1.216058
C143	C	1.142118	-0.303382	1.175415
C144	C	1.642118	0.196618	1.675415
C145	C	1.142110	-0.303375	1.087558
C146	C	1.642110	0.196625	1.587558
H147	H	0.841243	-0.230196	0.289230
H148	H	1.341243	0.269804	0.789230
H149	H	1.050440	-0.943857	0.472469
H150	H	1.550440	-0.443857	0.972469
H151	H	1.234021	-0.943807	0.289200
H152	H	1.734021	-0.443807	0.789200
H153	H	0.841199	-0.376504	0.472311
H154	H	1.341199	0.123496	0.972311
H155	H	1.233827	-0.542968	0.289110
H156	H	1.733827	-0.042968	0.789110
H157	H	1.233890	-0.662233	0.289142
H158	H	1.733890	-0.162233	0.789142
H159	H	1.050256	-0.543017	0.472390
H160	H	1.550256	-0.043017	0.972390
H161	H	0.717443	-0.189897	0.238782
H162	H	1.217443	0.310103	0.738782
H163	H	0.999752	-0.416646	0.806234
H164	H	1.499752	0.083354	1.306234
H165	H	1.050312	-0.662288	0.472406
H166	H	1.550312	-0.162288	0.972406
H167	H	0.567598	-0.416853	0.522782
H168	H	1.067598	0.083147	1.022782
H169	H	0.443827	-0.230243	0.289270
H170	H	0.943827	0.269757	0.789270
H171	H	0.717360	-0.416843	0.522785
H172	H	1.217360	0.083157	1.022785
H173	H	1.284459	-0.190098	0.956122
H174	H	1.784459	0.309902	1.456122
H175	H	1.050501	-1.063126	0.472499
H176	H	1.550501	-0.563126	0.972499
H177	H	0.999755	-0.416648	0.956013
H178	H	1.499755	0.083352	1.456013
H179	H	1.050338	-0.376399	1.079858
H180	H	1.550338	0.123601	1.579858
H181	H	1.233877	-0.230354	1.079925
H182	H	1.733877	0.269646	1.579925
H183	H	0.567664	-0.189910	0.238803
H184	H	1.067664	0.310090	0.738803
H185	H	0.443787	-0.376543	0.472339
H186	H	0.943787	0.123457	0.972339
H187	H	1.050319	-0.376386	0.682442
H188	H	1.550319	0.123614	1.182442
H189	H	1.284463	-0.190080	0.806360
H190	H	1.784463	0.309920	1.306360
H191	H	1.234086	-1.063071	0.289238
H192	H	1.734086	-0.563071	0.789238
H193	H	1.233869	-0.230332	0.682513
H194	H	1.733869	0.269668	1.182513
