data_functionalizedCrystal
_audit_creation_method	'MofGen! by Chris Wilmer'
_symmetry_space_group_name_H-M	'P1'
_symmetry_Int_Tables_number	1
_symmetry_cell_setting	triclinic
loop_
_symmetry_equiv_pos_as_xyz
  x,y,z
_cell_length_a	17.699083
_cell_length_b	23.532407
_cell_length_c	16.176319
_cell_angle_alpha	89.988065
_cell_angle_beta	89.999520
_cell_angle_gamma	96.934118
loop_
_atom_site_label
_atom_site_type_symbol
_atom_site_fract_x
_atom_site_fract_y
_atom_site_fract_z
O1	O	-1.003712	0.072017	-0.068638
O2	O	-0.670379	0.405351	0.264695
O3	O	-0.337046	0.738684	0.598029
O4	O	-0.783286	0.081387	-0.068669
O5	O	-0.449953	0.414721	0.264664
O6	O	-0.116620	0.748054	0.597998
O7	O	-0.900146	-0.006210	-0.068629
O8	O	-0.566813	0.327123	0.264704
O9	O	-0.233479	0.660456	0.598037
O10	O	-0.886852	0.159615	-0.068678
O11	O	-0.553519	0.492948	0.264656
O12	O	-0.220186	0.826282	0.597989
O13	O	-0.900132	-0.006211	0.068864
O14	O	-0.566799	0.327123	0.402197
O15	O	-0.233466	0.660456	0.735531
O16	O	-0.783273	0.081387	0.068824
O17	O	-0.449939	0.414720	0.402158
O18	O	-0.116606	0.748054	0.735491
O19	O	-1.003699	0.072017	0.068855
O20	O	-0.670365	0.405350	0.402189
O21	O	-0.337032	0.738684	0.735522
Cu22	Cu	-0.893484	0.076702	0.081394
Cu23	Cu	-0.560151	0.410035	0.414727
Cu24	Cu	-0.226818	0.743369	0.748061
Cu25	Cu	-0.893501	0.076702	-0.081208
Cu26	Cu	-0.560167	0.410036	0.252126
Cu27	Cu	-0.226834	0.743369	0.585459
O28	O	-0.886839	0.159615	0.068816
O29	O	-0.553505	0.492948	0.402149
O30	O	-0.220172	0.826281	0.735482
C31	C	-0.755084	0.081051	0.000074
C32	C	-0.421751	0.414385	0.333407
C33	C	-0.088418	0.747718	0.666741
C34	C	-0.671071	0.080044	0.000063
C35	C	-0.337738	0.413377	0.333397
C36	C	-0.004405	0.746711	0.666730
C37	C	-0.622189	0.131462	0.000048
C38	C	-0.288856	0.464795	0.333382
C39	C	0.044477	0.798129	0.666715
C40	C	-0.543251	0.130512	0.000059
C41	C	-0.209918	0.463846	0.333392
C42	C	0.123416	0.797179	0.666725
C43	C	-0.513196	0.078144	0.000078
C44	C	-0.179862	0.411477	0.333412
C45	C	0.153471	0.744811	0.666745
C46	C	-0.562084	0.026722	0.000096
C47	C	-0.228751	0.360055	0.333429
C48	C	0.104583	0.693389	0.666762
C49	C	-0.641021	0.027672	0.000091
C50	C	-0.307687	0.361006	0.333425
C51	C	0.025646	0.694339	0.666758
C52	C	-0.243740	0.022888	0.000115
C53	C	0.089593	0.356221	0.333448
C54	C	0.422926	0.689555	0.666781
C55	C	-0.164797	0.021942	0.000117
C56	C	0.168536	0.355275	0.333450
C57	C	0.501870	0.688608	0.666783
C58	C	-0.145970	0.125728	0.000082
C59	C	0.187363	0.459061	0.333415
C60	C	0.520696	0.792395	0.666749
C61	C	-0.224907	0.126678	0.000078
C62	C	0.108426	0.460012	0.333411
C63	C	0.441759	0.793345	0.666744
C64	C	-0.273788	0.075257	0.000100
C65	C	0.059545	0.408590	0.333433
C66	C	0.392878	0.741923	0.666766
C67	C	-0.359382	0.076287	0.000090
C68	C	-0.026049	0.409621	0.333423
C69	C	0.307284	0.742954	0.666757
C70	C	-0.427603	0.077113	0.000082
C71	C	-0.094270	0.410446	0.333415
C72	C	0.239063	0.743779	0.666749
C73	C	-0.899801	-0.027427	0.000121
C74	C	-0.566467	0.305906	0.333455
C75	C	-0.233134	0.639239	0.666788
C76	C	-0.898783	-0.090647	0.000134
C77	C	-0.565450	0.242686	0.333467
C78	C	-0.232116	0.576019	0.666800
C79	C	-0.825430	-0.357026	0.000072
C80	C	-0.492097	-0.023692	0.333405
C81	C	-0.158764	0.309641	0.666739
C82	C	-0.826376	-0.297623	0.000078
C83	C	-0.493043	0.035711	0.333412
C84	C	-0.159709	0.369044	0.666745
O85	O	-0.768186	-0.261045	0.000044
O86	O	-0.434853	0.072288	0.333377
O87	O	-0.101519	0.405621	0.666711
N88	N	-0.895849	-0.274797	0.000098
N89	N	-0.562516	0.058537	0.333431
N90	N	-0.229182	0.391870	0.666764
C91	C	-0.964381	-0.311378	0.000102
C92	C	-0.631048	0.021956	0.333435
C93	C	-0.297715	0.355289	0.666769
O94	O	-1.023560	-0.286508	0.000118
O95	O	-0.690227	0.046826	0.333452
O96	O	-0.356894	0.380159	0.666785
C97	C	-0.963435	-0.370779	0.000090
C98	C	-0.630102	-0.037446	0.333423
C99	C	-0.296768	0.295887	0.666756
C100	C	-0.893957	-0.393602	0.000079
C101	C	-0.560624	-0.060268	0.333412
C102	C	-0.227291	0.273065	0.666745
C103	C	-0.755958	-0.379848	0.000060
C104	C	-0.422625	-0.046515	0.333394
C105	C	-0.089292	0.286818	0.666727
C106	C	-0.755013	-0.439247	0.000055
C107	C	-0.421680	-0.105914	0.333389
C108	C	-0.088347	0.227419	0.666722
C109	C	-0.823540	-0.475823	0.000062
C110	C	-0.490207	-0.142490	0.333395
C111	C	-0.156873	0.190843	0.666729
C112	C	-0.893012	-0.453000	0.000074
C113	C	-0.559679	-0.119667	0.333407
C114	C	-0.226345	0.213666	0.666741
C115	C	-1.031966	-0.407359	0.000088
C116	C	-0.698633	-0.074025	0.333421
C117	C	-0.365300	0.259308	0.666755
C118	C	-1.031014	-0.466764	0.000075
C119	C	-0.697681	-0.133431	0.333408
C120	C	-0.364347	0.199903	0.666742
C121	C	-0.961536	-0.489586	0.000064
C122	C	-0.628203	-0.156253	0.333398
C123	C	-0.294870	0.177080	0.666731
C124	C	-0.960594	-0.548975	0.000076
C125	C	-0.627261	-0.215642	0.333409
C126	C	-0.293927	0.117691	0.666742
N127	N	-0.891121	-0.571801	0.000057
N128	N	-0.557787	-0.238468	0.333390
N129	N	-0.224454	0.094866	0.666723
C130	C	-0.822594	-0.535225	0.000050
C131	C	-0.489260	-0.201892	0.333383
C132	C	-0.155927	0.131442	0.666716
C133	C	-0.966363	-0.186629	0.000127
C134	C	-0.633030	0.146704	0.333460
C135	C	-0.299697	0.480037	0.666793
C136	C	-0.967310	-0.127229	0.000145
C137	C	-0.633977	0.206105	0.333478
C138	C	-0.300644	0.539438	0.666812
C139	C	-0.829305	-0.113478	0.000120
C140	C	-0.495971	0.219856	0.333453
C141	C	-0.162638	0.553189	0.666787
C142	C	-0.828358	-0.172880	0.000107
C143	C	-0.495025	0.160454	0.333441
C144	C	-0.161692	0.493787	0.666774
C145	C	-0.896890	-0.209455	0.000107
C146	C	-0.563557	0.123878	0.333441
C147	C	-0.230223	0.457212	0.666774
C148	C	-0.820614	-0.659968	0.000040
C149	C	-0.487281	-0.326634	0.333373
C150	C	-0.153947	0.006699	0.666707
C151	C	-0.819675	-0.719372	0.000038
C152	C	-0.486342	-0.386039	0.333372
C153	C	-0.153008	-0.052706	0.666705
C154	C	-0.957680	-0.733118	0.000059
C155	C	-0.624347	-0.399785	0.333393
C156	C	-0.291014	-0.066451	0.666726
C157	C	-0.958620	-0.673718	0.000065
C158	C	-0.625286	-0.340385	0.333399
C159	C	-0.291953	-0.007052	0.666732
C160	C	-0.890081	-0.637144	0.000053
C161	C	-0.556747	-0.303811	0.333386
C162	C	-0.223414	0.029523	0.666719
O163	O	-1.018753	-0.585587	0.000107
O164	O	-0.685420	-0.252254	0.333440
O165	O	-0.352086	0.081079	0.666773
O166	O	-0.763424	-0.560103	0.000023
O167	O	-0.430091	-0.226770	0.333356
O168	O	-0.096758	0.106564	0.666689
C169	C	-0.031901	0.072353	0.000108
C170	C	0.301433	0.405686	0.333442
C171	C	0.634766	0.739020	0.666775
C172	C	-0.115914	0.073360	0.000107
C173	C	0.217420	0.406693	0.333441
C174	C	0.550753	0.740027	0.666774
C175	C	-0.887184	0.180832	0.000063
C176	C	-0.553851	0.514165	0.333396
C177	C	-0.220517	0.847498	0.666730
C178	C	-0.888202	0.244052	0.000045
C179	C	-0.554869	0.577385	0.333379
C180	C	-0.221535	0.910718	0.666712
N181	N	-0.893512	0.076698	-0.195573
N182	N	-0.560179	0.410032	0.137761
N183	N	-0.226846	0.743365	0.471094
N184	N	-0.893479	0.076701	0.195759
N185	N	-0.560145	0.410035	0.529093
N186	N	-0.226812	0.743368	0.862426
C187	C	-0.939118	0.111201	0.239016
C188	C	-0.605785	0.444534	0.572349
C189	C	-0.272452	0.777867	0.905683
C190	C	-0.939126	0.111198	0.325563
C191	C	-0.605793	0.444532	0.658896
C192	C	-0.272460	0.777865	0.992230
C193	C	-0.893490	0.076700	0.368852
C194	C	-0.560157	0.410033	0.702185
C195	C	-0.226824	0.743366	1.035518
C196	C	-0.847849	0.042197	0.325589
C197	C	-0.514515	0.375530	0.658922
C198	C	-0.181182	0.708863	0.992256
C199	C	-0.847845	0.042196	0.239043
C200	C	-0.514512	0.375530	0.572377
C201	C	-0.181178	0.708863	0.905710
C202	C	-0.847863	0.042197	0.674617
C203	C	-0.514529	0.375531	1.007951
C204	C	-0.181196	0.708864	1.341284
C205	C	-0.847868	0.042202	0.761169
C206	C	-0.514535	0.375535	1.094502
C207	C	-0.181201	0.708868	1.427835
C208	C	-0.939144	0.111200	0.761137
C209	C	-0.605811	0.444533	1.094470
C210	C	-0.272477	0.777866	1.427804
C211	C	-0.939141	0.111199	0.674591
C212	C	-0.605807	0.444532	1.007925
C213	C	-0.272474	0.777866	1.341258
C214	C	-0.893502	0.076694	0.631336
C215	C	-0.560169	0.410027	0.964669
C216	C	-0.226836	0.743361	1.298003
C217	C	-0.893495	0.076696	0.537492
C218	C	-0.560162	0.410029	0.870825
C219	C	-0.226828	0.743363	1.204159
C220	C	-0.893493	0.076701	0.462694
C221	C	-0.560159	0.410034	0.796028
C222	C	-0.226826	0.743367	1.129361
H223	H	-0.503454	0.172382	0.000045
H224	H	-0.170121	0.505715	0.333379
H225	H	0.163213	0.839049	0.666712
H226	H	-1.015194	-0.655136	0.000086
H227	H	-0.681861	-0.321802	0.333419
H228	H	-0.348527	0.011531	0.666753
H229	H	-0.976299	0.139294	0.639350
H230	H	-0.642966	0.472627	0.972683
H231	H	-0.309633	0.805960	1.306017
H232	H	-0.810680	0.014104	0.203825
H233	H	-0.477347	0.347437	0.537158
H234	H	-0.144014	0.680770	0.870492
Br235	Br	-0.124009	-0.049135	0.000141
Br236	Br	0.209325	0.284199	0.333474
Br237	Br	0.542658	0.617532	0.666807
Br238	Br	-1.124027	-0.516399	0.000069
Br239	Br	-0.790694	-0.183066	0.333403
Br240	Br	-0.457360	0.150267	0.666736
Br241	Br	-0.727596	-0.610340	0.000024
Br242	Br	-0.394262	-0.277007	0.333357
Br243	Br	-0.060929	0.056326	0.666690
Br244	Br	-0.521296	-0.044350	0.000130
Br245	Br	-0.187963	0.288983	0.333464
Br246	Br	0.145371	0.622316	0.666797
H247	H	-1.013473	-0.762909	0.000069
H248	H	-0.680140	-0.429575	0.333402
H249	H	-0.346806	-0.096242	0.666735
Br250	Br	-0.662970	0.202537	0.000013
Br251	Br	-0.329637	0.535871	0.333347
Br252	Br	0.003697	0.869204	0.666680
H253	H	-0.680820	-0.014197	0.000103
H254	H	-0.347487	0.319136	0.333436
H255	H	-0.014154	0.652469	0.666770
H256	H	-0.106161	0.167598	0.000069
H257	H	0.227172	0.500931	0.333402
H258	H	0.560505	0.834264	0.666735
Br259	Br	-0.734064	-0.203846	0.000093
Br260	Br	-0.400731	0.129487	0.333426
Br261	Br	-0.067398	0.462821	0.666760
H262	H	-0.698437	-0.457823	0.000039
H263	H	-0.365104	-0.124490	0.333373
H264	H	-0.031771	0.208843	0.666706
H265	H	-0.700152	-0.350073	0.000052
H266	H	-0.366819	-0.016740	0.333385
H267	H	-0.033486	0.316593	0.666719
Br268	Br	-0.725378	-0.750341	0.000028
Br269	Br	-0.392044	-0.417008	0.333361
Br270	Br	-0.058711	-0.083675	0.666695
Br271	Br	-0.265692	0.197752	0.000044
Br272	Br	0.067641	0.531085	0.333377
Br273	Br	0.400974	0.864419	0.666710
Br274	Br	-0.310069	-0.046898	0.000146
Br275	Br	0.023264	0.286435	0.333480
Br276	Br	0.356598	0.619768	0.666813
H277	H	-0.976307	0.139294	0.796366
H278	H	-0.642974	0.472627	1.129699
H279	H	-0.309640	0.805961	1.463032
H280	H	-0.976276	0.139297	0.203776
H281	H	-0.642943	0.472630	0.537110
H282	H	-0.309610	0.805964	0.870443
H283	H	-0.773506	-0.083687	0.000115
H284	H	-0.440173	0.249647	0.333448
H285	H	-0.106840	0.582980	0.666782
H286	H	-1.023886	-0.108652	0.000167
H287	H	-0.690552	0.224681	0.333500
H288	H	-0.357219	0.558014	0.666833
H289	H	-1.022174	-0.216406	0.000132
H290	H	-0.688840	0.116927	0.333466
H291	H	-0.355507	0.450260	0.666799
H292	H	-1.088542	-0.388788	0.000096
H293	H	-0.755209	-0.055454	0.333430
H294	H	-0.421876	0.277879	0.666763
H295	H	-0.976292	0.139290	0.360779
H296	H	-0.642959	0.472623	0.694112
H297	H	-0.309626	0.805957	1.027446
Br298	Br	-0.785928	-0.004620	0.819918
Br299	Br	-0.452594	0.328713	1.153251
Br300	Br	-0.119261	0.662046	1.486585
H301	H	-0.810701	0.014101	0.639409
H302	H	-0.477368	0.347434	0.972743
H303	H	-0.144035	0.680768	1.306076
H304	H	-0.810695	0.014104	0.360842
H305	H	-0.477361	0.347438	0.694175
H306	H	-0.144028	0.680771	1.027508
