data_functionalizedCrystal
_audit_creation_method	'MofGen! by Chris Wilmer'
_symmetry_space_group_name_H-M	'P1'
_symmetry_Int_Tables_number	1
_symmetry_cell_setting	triclinic
loop_
_symmetry_equiv_pos_as_xyz
  x,y,z
_cell_length_a	10.654554
_cell_length_b	10.654551
_cell_length_c	14.048226
_cell_angle_alpha	89.996418
_cell_angle_beta	89.994920
_cell_angle_gamma	84.486053
loop_
_atom_site_label
_atom_site_type_symbol
_atom_site_fract_x
_atom_site_fract_y
_atom_site_fract_z
O1	O	1.667842	0.176428	-0.079125
O2	O	1.302364	0.193228	-0.079132
O3	O	1.493505	0.002089	-0.079129
O4	O	1.476701	0.367567	-0.079128
O5	O	1.493482	0.002078	0.079193
O6	O	1.302341	0.193217	0.079189
O7	O	1.667819	0.176417	0.079197
Zn8	Zn	1.485076	0.184815	0.104330
Zn9	Zn	1.485107	0.184830	-0.104265
O10	O	1.476677	0.367556	0.079193
C11	C	1.255555	0.191988	0.000027
C12	C	1.116112	0.188294	0.000024
C13	C	0.905604	0.297367	0.000033
C14	C	1.036625	0.300839	0.000026
C15	C	1.064571	0.072269	0.000020
C16	C	0.933552	0.068799	0.000021
C17	C	0.826123	0.409919	0.000044
C18	C	0.877654	0.525944	0.000046
C19	C	1.008676	0.529416	0.000039
C20	C	1.088166	0.416863	0.000029
C21	C	1.492260	-0.044714	0.000030
C22	C	1.488567	-0.184158	0.000023
C23	C	1.486848	-0.249663	-0.086276
C24	C	1.483367	-0.380684	-0.086272
C25	C	1.483332	-0.380682	0.086339
C26	C	1.486803	-0.249663	0.086334
C27	C	1.488612	-0.184158	-0.172586
C28	C	1.486894	-0.249664	-0.258893
C29	C	1.483414	-0.380685	-0.258888
C30	C	1.481651	-0.446199	-0.172578
C31	C	1.714628	0.177657	0.000035
C32	C	1.854071	0.181351	0.000032
C33	C	1.477923	0.414360	0.000033
C34	C	1.481616	0.553803	0.000033
N35	N	1.485064	0.184804	0.246690
N36	N	1.485128	0.184831	-0.246626
C37	C	1.569729	0.100203	0.296510
C38	C	1.569737	0.100202	0.396168
C39	C	1.485086	0.184810	0.446004
C40	C	1.400413	0.269415	0.396177
C41	C	1.400399	0.269408	0.296522
C42	C	1.400449	0.269424	0.603892
C43	C	1.400464	0.269432	0.703554
C44	C	1.569787	0.100218	0.703538
C45	C	1.569774	0.100212	0.603882
C46	C	1.485101	0.184819	0.554062
H47	H	1.050629	0.623888	0.000032
O48	O	1.488419	-0.185877	-0.342673
C49	C	1.383673	-0.024745	-0.442885
C50	C	1.381820	-0.096857	-0.347955
H51	H	1.297484	0.047226	-0.447195
H52	H	1.472976	0.025963	-0.447231
H53	H	1.381895	-0.094113	-0.504542
H54	H	1.383552	-0.027574	-0.286244
H55	H	1.292525	-0.147584	-0.343692
H56	H	1.488176	-0.196323	0.156606
H57	H	1.129301	-0.019365	0.000014
H58	H	1.194851	0.419699	0.000004
H59	H	1.482002	-0.434015	-0.329163
O60	O	1.318328	0.351786	0.555537
C61	C	1.246587	0.569484	0.525078
C62	C	1.339669	0.476348	0.579882
H63	H	1.263791	0.670212	0.544756
H64	H	1.261117	0.555055	0.445280
H65	H	1.145869	0.552123	0.544675
H66	H	1.440423	0.493653	0.560365
H67	H	1.325028	0.490798	0.659666
O68	O	1.652037	0.018202	0.444672
C69	C	1.823376	-0.006905	0.557127
C70	C	1.730223	0.086101	0.502270
H71	H	1.886631	0.047955	0.603693
H72	H	1.768690	-0.070136	0.603861
H73	H	1.883829	-0.067400	0.504378
H74	H	1.669746	0.146679	0.554951
H75	H	1.784985	0.149245	0.455523
H76	H	0.719437	0.407105	0.000054
H77	H	1.491449	-0.077475	-0.172600
H78	H	1.478799	-0.552883	-0.172581
O79	O	1.651874	0.017726	0.555622
C80	C	1.723446	-0.200100	0.525525
C81	C	1.630381	-0.106739	0.580149
H82	H	1.706120	-0.300749	0.545350
H83	H	1.709022	-0.185866	0.445699
H84	H	1.824167	-0.182786	0.545136
H85	H	1.529624	-0.123995	0.560618
H86	H	1.644915	-0.120994	0.659961
H87	H	1.638729	0.031328	0.744107
H88	H	0.891594	-0.025671	0.000019
H89	H	1.331531	0.338327	0.744126
H90	H	0.812926	0.617580	0.000046
H91	H	1.331482	0.338299	0.436760
O92	O	1.481408	-0.444235	0.170200
C93	C	1.371754	-0.470993	0.317754
C94	C	1.373756	-0.398946	0.222804
H95	H	1.284740	-0.434387	0.360320
H96	H	1.368899	-0.575894	0.302991
H97	H	1.460206	-0.455977	0.360274
H98	H	1.285321	-0.413859	0.180236
H99	H	1.376676	-0.294071	0.237634
O100	O	1.652007	0.017893	0.248251
C101	C	1.819998	-0.149898	0.258765
C102	C	1.726867	-0.056764	0.313532
H103	H	1.880564	-0.210264	0.311521
H104	H	1.765293	-0.213235	0.212148
H105	H	1.883144	-0.095070	0.212068
H106	H	1.663698	-0.111489	0.360280
H107	H	1.781650	0.006573	0.360089
H108	H	1.331455	0.338297	0.255959
