data_functionalizedCrystal
_audit_creation_method	'MofGen! by Chris Wilmer'
_symmetry_space_group_name_H-M	'P1'
_symmetry_Int_Tables_number	1
_symmetry_cell_setting	triclinic
loop_
_symmetry_equiv_pos_as_xyz
  x,y,z
_cell_length_a	19.121215
_cell_length_b	19.120786
_cell_length_c	17.077396
_cell_angle_alpha	87.528765
_cell_angle_beta	87.534563
_cell_angle_gamma	94.789602
loop_
_atom_site_label
_atom_site_type_symbol
_atom_site_fract_x
_atom_site_fract_y
_atom_site_fract_z
Zn1	Zn	1.063759	-0.234353	-0.483512
Zn2	Zn	1.563759	0.265647	0.016488
Zn3	Zn	1.058650	-0.352035	-0.346383
Zn4	Zn	1.558650	0.147965	0.153617
Zn5	Zn	0.946090	-0.239386	-0.346394
Zn6	Zn	1.446090	0.260614	0.153606
Zn7	Zn	0.941038	-0.356998	-0.471747
Zn8	Zn	1.441038	0.143002	0.028253
O9	O	1.002384	-0.295693	-0.412009
O10	O	1.502384	0.204307	0.087991
O11	O	1.161547	-0.245780	-0.470240
O12	O	1.661547	0.254220	0.029760
O13	O	1.043695	-0.337120	-0.236535
O14	O	1.543695	0.162880	0.263465
O15	O	0.965951	-0.140247	-0.369510
O16	O	1.465951	0.359753	0.130490
O17	O	1.157793	-0.332240	-0.369493
O18	O	1.657793	0.167760	0.130507
O19	O	1.052402	-0.136549	-0.470250
O20	O	1.552402	0.363451	0.029750
O21	O	0.960997	-0.254358	-0.236543
O22	O	1.460997	0.245642	0.263457
O23	O	0.846954	-0.259171	-0.358103
O24	O	1.346954	0.240829	0.141897
O25	O	0.957341	-0.340701	-0.583157
O26	O	1.457341	0.159299	-0.083157
O27	O	0.843243	-0.345580	-0.450200
O28	O	1.343243	0.154420	0.049800
O29	O	1.047504	-0.250594	-0.591801
O30	O	1.547504	0.249406	-0.091801
O31	O	1.038796	-0.451165	-0.358086
O32	O	1.538796	0.048835	0.141914
O33	O	0.952388	-0.454811	-0.450190
O34	O	1.452388	0.045189	0.049810
C35	C	0.819567	-0.303461	-0.402876
C36	C	1.319567	0.196539	0.097124
C37	C	0.741356	-0.306801	-0.398987
C38	C	1.241356	0.193199	0.101013
C39	C	0.994509	-0.478520	-0.402878
C40	C	1.494509	0.021480	0.097122
C41	C	0.991204	-0.556731	-0.399001
C42	C	1.491204	-0.056731	0.100999
C43	C	0.298914	-0.327946	-0.374382
C44	C	0.798914	0.172054	0.125618
C45	C	0.372402	-0.324804	-0.378030
C46	C	0.872402	0.175196	0.121970
C47	C	0.411098	-0.278291	-0.432386
C48	C	0.911098	0.221709	0.067614
C49	C	0.376304	-0.234913	-0.483092
C50	C	0.876304	0.265087	0.016908
C51	C	0.302818	-0.238052	-0.479439
C52	C	0.802818	0.261948	0.020561
C53	C	0.633076	-0.266562	-0.446040
C54	C	1.133076	0.233438	0.053960
C55	C	0.706567	-0.263427	-0.449691
C56	C	1.206567	0.236573	0.050309
C57	C	0.702659	-0.353318	-0.344627
C58	C	1.202659	0.146682	0.155373
C59	C	0.629172	-0.356456	-0.340982
C60	C	1.129172	0.143544	0.159018
C61	C	0.594385	-0.313075	-0.391685
C62	C	1.094385	0.186925	0.108315
C63	C	0.486214	-0.275080	-0.436119
C64	C	0.986214	0.224920	0.063881
C65	C	0.519270	-0.316283	-0.387949
C66	C	1.019270	0.183717	0.112051
C67	C	1.034628	-0.591491	-0.449669
C68	C	1.534628	-0.091491	0.050331
C69	C	1.031520	-0.664979	-0.446028
C70	C	1.531520	-0.164979	0.053972
C71	C	0.984991	-0.703705	-0.391714
C72	C	1.484991	-0.203705	0.108286
C73	C	0.941562	-0.668941	-0.341044
C74	C	1.441562	-0.168941	0.158956
C75	C	0.944667	-0.595454	-0.344690
C76	C	1.444667	-0.095454	0.155310
C77	C	0.973363	-0.925686	-0.378084
C78	C	1.473363	-0.425686	0.121916
C79	C	0.970262	-0.999178	-0.374440
C80	C	1.470262	-0.499178	0.125560
C81	C	1.060220	-0.995211	-0.479425
C82	C	1.560220	-0.495211	0.020575
C83	C	1.063324	-0.921723	-0.483063
C84	C	1.563324	-0.421723	0.016937
C85	C	1.019892	-0.886965	-0.432396
C86	C	1.519892	-0.386965	0.067604
C87	C	0.981814	-0.778822	-0.387989
C88	C	1.481814	-0.278822	0.112011
C89	C	1.023066	-0.811850	-0.436125
C90	C	1.523066	-0.311850	0.063875
C91	C	1.185915	-0.287895	-0.421178
C92	C	1.685915	0.212105	0.078822
C93	C	1.264125	-0.284572	-0.425085
C94	C	1.764125	0.215428	0.074915
C95	C	1.002429	-0.295639	-0.616758
C96	C	1.502429	0.204361	-0.116758
C97	C	1.002448	-0.295617	-0.704010
C98	C	1.502448	0.204383	-0.204010
C99	C	1.010309	-0.112152	-0.421194
C100	C	1.510309	0.387848	0.078806
C101	C	1.013687	-0.033937	-0.425108
C102	C	1.513687	0.466063	0.074892
C103	C	1.049397	-0.248694	-0.749502
C104	C	1.549397	0.251306	-0.249502
C105	C	1.049407	-0.248670	-0.831484
C106	C	1.549407	0.251330	-0.331484
C107	C	1.002470	-0.295573	-0.867973
C108	C	1.502470	0.204427	-0.367973
C109	C	0.955515	-0.342498	-0.822474
C110	C	1.455515	0.157502	-0.322474
C111	C	0.955503	-0.342517	-0.740494
C112	C	1.455503	0.157483	-0.240494
C113	C	0.955546	-0.342454	-0.993348
C114	C	1.455546	0.157546	-0.493348
C115	C	0.955559	-0.342435	-1.075334
C116	C	1.455559	0.157565	-0.575334
C117	C	1.049449	-0.248607	-1.084338
C118	C	1.549449	0.251393	-0.584338
C119	C	1.049437	-0.248627	-1.002358
C120	C	1.549437	0.251373	-0.502358
C121	C	1.002483	-0.295553	-0.956865
C122	C	1.502483	0.204447	-0.456865
C123	C	1.002382	-0.295694	-0.208061
C124	C	1.502382	0.204306	0.291939
C125	C	1.002508	-0.295513	-0.120826
C126	C	1.502508	0.204487	0.379174
H127	H	0.267412	-0.365825	-0.330122
H128	H	0.767412	0.134175	0.169878
H129	H	0.487760	-0.354151	-0.343690
H130	H	0.987760	0.145849	0.156310
H131	H	0.400723	-0.360122	-0.336741
H132	H	0.900723	0.139878	0.163259
C133	C	0.586611	-0.407614	-0.281176
C134	C	1.086611	0.092386	0.218824
N135	N	0.554555	-0.446145	-0.236127
N136	N	1.054555	0.053855	0.263873
C137	C	1.101068	-0.197030	-0.962223
C138	C	1.601068	0.302970	-0.462223
N139	N	1.139955	-0.158164	-0.931993
N140	N	1.639955	0.341836	-0.431993
H141	H	0.517729	-0.237211	-0.480377
H142	H	1.017729	0.262789	0.019623
H143	H	1.072520	-0.559964	-0.493893
H144	H	1.572520	-0.059964	0.006107
C145	C	1.079300	-0.703210	-0.501756
C146	C	1.579300	-0.203210	-0.001756
N147	N	1.115293	-0.732006	-0.543731
N148	N	1.615293	-0.232006	-0.043731
H149	H	1.101212	-0.890193	-0.527289
H150	H	1.601212	-0.390193	-0.027289
H151	H	0.274494	-0.202730	-0.520725
H152	H	0.774494	0.297270	-0.020725
C153	C	0.890422	-0.711541	-0.281253
C154	C	1.390422	-0.211541	0.218747
N155	N	0.851920	-0.743626	-0.236199
N156	N	1.351920	-0.243626	0.263801
H157	H	0.730991	-0.388636	-0.303348
H158	H	1.230991	0.111364	0.196652
C159	C	0.896897	-0.557219	-0.288951
C160	C	1.396897	-0.057219	0.211049
N161	N	0.860914	-0.528421	-0.246968
N162	N	1.360914	-0.028421	0.253032
C163	C	0.925570	-0.887462	-0.322365
C164	C	1.425570	-0.387462	0.177635
N165	N	0.889564	-0.858670	-0.280401
N166	N	1.389564	-0.358670	0.219599
C167	C	0.418874	-0.183746	-0.542882
C168	C	0.918874	0.316254	-0.042882
N169	N	0.450936	-0.145208	-0.587919
N170	N	0.950936	0.354792	-0.087919
C171	C	0.594819	-0.218846	-0.501821
C172	C	1.094819	0.281154	-0.001821
N173	N	0.566002	-0.182906	-0.543839
N174	N	1.066002	0.317094	-0.043839
H175	H	1.060947	-0.780316	-0.480350
H176	H	1.560947	-0.280316	0.019650
C177	C	1.101032	-0.197096	-0.709373
C178	C	1.601032	0.302904	-0.209373
N179	N	1.139922	-0.158228	-0.679150
N180	N	1.639922	0.341772	-0.179150
C181	C	0.749132	-0.212256	-0.509488
C182	C	1.249132	0.287744	-0.009488
N183	N	0.781193	-0.173717	-0.554526
N184	N	1.281193	0.326283	-0.054526
C185	C	1.107987	-1.033451	-0.535160
C186	C	1.607987	-0.533451	-0.035160
N187	N	1.143964	-1.062254	-0.577144
N188	N	1.643964	-0.562254	-0.077144
H189	H	0.943932	-0.810361	-0.343765
H190	H	1.443932	-0.310361	0.156235
H191	H	0.932369	-1.030707	-0.330211
H192	H	1.432369	-0.530707	0.169789
C193	C	1.101098	-0.196987	-1.134382
C194	C	1.601098	0.303013	-0.634382
N195	N	1.140001	-0.158111	-1.172078
N196	N	1.640001	0.341889	-0.672078
H197	H	1.087639	-0.210463	-0.868521
H198	H	1.587639	0.289537	-0.368521
H199	H	0.917337	-0.380626	-1.105040
H200	H	1.417337	0.119374	-0.605040
H201	H	0.917300	-0.380656	-0.956310
H202	H	1.417300	0.119344	-0.456310
H203	H	0.917296	-0.380684	-0.852190
H204	H	1.417296	0.119316	-0.352190
H205	H	0.917265	-0.380720	-0.703455
H206	H	1.417265	0.119280	-0.203455
