data_functionalizedCrystal
_audit_creation_method	'MofGen! by Chris Wilmer'
_symmetry_space_group_name_H-M	'P1'
_symmetry_Int_Tables_number	1
_symmetry_cell_setting	triclinic
loop_
_symmetry_equiv_pos_as_xyz
  x,y,z
_cell_length_a	6.817900
_cell_length_b	11.102216
_cell_length_c	9.514088
_cell_angle_alpha	88.637032
_cell_angle_beta	118.843545
_cell_angle_gamma	108.604437
loop_
_atom_site_label
_atom_site_type_symbol
_atom_site_fract_x
_atom_site_fract_y
_atom_site_fract_z
V1	V	-4.243922	-0.178093	-0.500750
O2	O	-4.200436	0.006240	-0.491211
O3	O	-4.219792	-0.350898	-0.497332
O4	O	-4.278444	-0.176371	-0.719141
O5	O	-4.141377	-0.169496	-0.267866
V6	V	-4.713660	-0.155924	-0.472894
O7	O	-4.535418	-0.226721	-0.561854
O8	O	-4.872361	-0.107296	-0.411791
O9	O	-4.514583	0.016881	-0.476312
O10	O	-4.874543	-0.340257	-0.482434
O11	O	-4.933601	-0.164521	-0.705779
O12	O	-4.455931	-0.157647	-0.254503
C13	C	-4.068014	-0.392993	-0.489435
C14	C	-4.130124	-0.534270	-0.488096
C15	C	-4.316713	-0.752208	-0.633267
C16	C	-4.258365	-0.619464	-0.634538
C17	C	-4.060249	-0.581826	-0.340373
C18	C	-4.118611	-0.714567	-0.339103
C19	C	-4.431085	-0.773937	-0.803101
C20	C	-4.372737	-0.641193	-0.804373
C21	C	-4.142828	-0.170364	-0.772372
C22	C	-4.252498	-0.170099	-0.950908
C23	C	-4.329703	0.058969	-0.484206
C24	C	-4.246834	0.200245	-0.485555
C25	C	-4.254886	-0.163657	-0.201264
C26	C	-4.124454	-0.163916	-0.022727
H27	H	-3.955847	-0.512451	-0.221137
H28	H	-4.633735	-0.823294	-0.874122
H29	H	-4.337263	-0.816704	-0.849069
C30	C	-4.041758	-0.766864	-0.176610
N31	N	-3.983867	-0.806253	-0.054214
H32	H	-4.537573	-0.611919	-0.863829
C33	C	-4.513957	-0.176970	-1.052367
N34	N	-4.710884	-0.182143	-1.128786
H35	H	-3.930935	-0.158836	-0.947630
C36	C	-4.217606	-0.597043	-0.884601
N37	N	-4.100760	-0.563788	-0.945023
