data_functionalizedCrystal
_audit_creation_method	'MofGen! by Chris Wilmer'
_symmetry_space_group_name_H-M	'P1'
_symmetry_Int_Tables_number	1
_symmetry_cell_setting	triclinic
loop_
_symmetry_equiv_pos_as_xyz
  x,y,z
_cell_length_a	15.995292
_cell_length_b	23.532357
_cell_length_c	22.610064
_cell_angle_alpha	90.001483
_cell_angle_beta	90.009403
_cell_angle_gamma	83.148454
loop_
_atom_site_label
_atom_site_type_symbol
_atom_site_fract_x
_atom_site_fract_y
_atom_site_fract_z
O1	O	1.110393	0.073244	0.049208
O2	O	0.866533	0.082344	0.049206
O3	O	0.995839	-0.005113	0.049195
O4	O	0.981088	0.160700	0.049219
O5	O	0.995816	-0.005100	-0.049174
O6	O	0.866510	0.082356	-0.049163
O7	O	1.110370	0.073257	-0.049161
Zn8	Zn	0.988437	0.077809	-0.064780
Zn9	Zn	0.988467	0.077792	0.064825
O10	O	0.981065	0.160713	-0.049150
C11	C	0.835329	0.081980	0.000022
C12	C	0.742386	0.080869	0.000020
C13	C	0.404682	0.076787	0.000027
C14	C	0.427453	0.139911	0.000255
C15	C	0.524118	0.141111	0.000031
C16	C	0.572221	0.078813	0.000024
C17	C	0.543377	0.047261	-0.056152
C18	C	0.446593	0.046502	-0.056197
C19	C	0.446775	0.045198	0.055667
C20	C	0.543247	0.047537	0.056407
C21	C	0.666907	0.079954	0.000020
C22	C	0.309997	0.075644	0.000026
C23	C	0.995458	-0.026324	0.000009
C24	C	0.994349	-0.089547	0.000003
C25	C	0.987397	-0.481591	0.053656
C26	C	0.986343	-0.540994	0.053659
O27	O	0.985780	-0.571719	0.099262
N28	N	0.985807	-0.570700	0.000039
C29	C	0.986318	-0.540999	-0.053588
O30	O	0.985765	-0.571721	-0.099196
C31	C	0.987366	-0.481597	-0.053591
C32	C	0.987910	-0.451894	0.000033
C33	C	0.987940	-0.451888	0.107275
C34	C	0.988996	-0.392489	0.107272
C35	C	0.989509	-0.362793	0.053649
C36	C	0.988966	-0.392495	0.000029
C37	C	0.987871	-0.451896	-0.107217
C38	C	0.988919	-0.392489	-0.107216
C39	C	0.989463	-0.362787	-0.053592
C40	C	0.990535	-0.303399	-0.053597
N41	N	0.991071	-0.273693	0.000023
C42	C	0.990558	-0.303390	0.053646
C43	C	0.984115	-0.665749	-0.053578
C44	C	0.983072	-0.725151	-0.053576
C45	C	0.983095	-0.725142	0.053672
C46	C	0.984144	-0.665739	0.053669
C47	C	0.984650	-0.636043	0.000042
C48	C	0.992776	-0.178647	0.053634
C49	C	0.993836	-0.119243	0.053626
C50	C	0.993808	-0.119258	-0.053621
C51	C	0.992753	-0.178657	-0.053613
C52	C	0.992234	-0.208350	0.000019
O53	O	0.991096	-0.272637	-0.099177
O54	O	0.991100	-0.272660	0.099246
C55	C	1.141574	0.073621	0.000025
C56	C	1.234518	0.074731	0.000030
C57	C	0.981445	0.181925	0.000038
C58	C	0.982555	0.245147	0.000047
N59	N	0.988422	0.077820	-0.153233
C60	C	1.045726	0.039072	-0.561879
C61	C	1.045730	0.039068	-0.623799
O62	O	1.094416	0.006132	-0.655822
N63	N	0.988466	0.077780	-0.654770
C64	C	0.931189	0.116495	-0.623818
O65	O	0.882481	0.149422	-0.655846
C66	C	0.931181	0.116496	-0.561899
C67	C	0.988454	0.077785	-0.530931
C68	C	1.102994	0.000364	-0.530911
C69	C	1.102990	0.000369	-0.468996
C70	C	1.045719	0.039082	-0.438048
C71	C	0.988451	0.077790	-0.469016
C72	C	0.873900	0.155207	-0.530948
C73	C	0.873897	0.155205	-0.469025
C74	C	0.931170	0.116494	-0.438057
C75	C	0.931176	0.116508	-0.376152
N76	N	0.988440	0.077796	-0.345181
C77	C	1.045711	0.039083	-0.376129
C78	C	0.931208	0.116489	-0.753851
C79	C	0.931219	0.116491	-0.815769
C80	C	1.045760	0.039064	-0.815746
C81	C	1.045752	0.039065	-0.753827
C82	C	0.988472	0.077777	-0.722880
C83	C	1.045700	0.039097	-0.246102
C84	C	1.045694	0.039107	-0.184181
C85	C	0.931151	0.116532	-0.184209
C86	C	0.931159	0.116524	-0.246125
C87	C	0.988437	0.077802	-0.277069
O88	O	0.882513	0.149426	-0.344090
O89	O	1.094403	0.006157	-0.344093
N90	N	0.988488	0.077776	0.153278
H91	H	0.576608	0.002066	0.059794
H92	H	1.092340	0.007565	-0.271290
Cl93	Cl	0.992085	-0.215999	-0.121027
Cl94	Cl	0.994453	-0.081914	-0.121029
Cl95	Cl	1.117701	-0.009561	-0.145253
Cl96	Cl	0.571666	0.082986	0.120574
Cl97	Cl	0.425791	-0.026538	0.056244
Cl98	Cl	1.174988	-0.048301	-0.430072
Cl99	Cl	1.175002	-0.048310	-0.569807
Cl100	Cl	0.383921	0.177472	0.062455
Cl101	Cl	0.994521	-0.081907	0.121044
Cl102	Cl	0.992126	-0.215967	0.121059
Cl103	Cl	0.989672	-0.355157	0.174689
H104	H	0.563238	0.069183	-0.097953
H105	H	1.092388	0.007543	-0.728617
Cl106	Cl	1.117756	-0.009605	-0.854665
H107	H	0.884591	0.148019	-0.840978
H108	H	0.987430	-0.476070	-0.150884
Cl109	Cl	0.859198	0.165166	-0.714952
H110	H	0.827263	0.186729	-0.556153
Cl111	Cl	0.984759	-0.628423	-0.121002
Cl112	Cl	0.982405	-0.762486	-0.120992
Cl113	Cl	0.382316	0.177279	-0.061582
Cl114	Cl	0.801881	0.203874	-0.430124
Cl115	Cl	0.987296	-0.489211	0.174697
Cl116	Cl	0.989556	-0.355161	-0.174637
H117	H	0.984585	-0.641559	0.097334
Cl118	Cl	0.859156	0.165198	-0.145293
Cl119	Cl	0.553184	0.179261	0.062204
Cl120	Cl	0.552195	0.179504	-0.062240
Cl121	Cl	0.859165	0.165197	-0.285053
H122	H	0.419579	0.068363	-0.098184
H123	H	0.432439	0.000220	-0.058754
H124	H	0.575638	0.001419	-0.058247
Cl125	Cl	0.982443	-0.762485	0.121084
Cl126	Cl	0.402806	0.075658	0.121405
