data_functionalizedCrystal
_audit_creation_method	'MofGen! by Chris Wilmer'
_symmetry_space_group_name_H-M	'P1'
_symmetry_Int_Tables_number	1
_symmetry_cell_setting	triclinic
loop_
_symmetry_equiv_pos_as_xyz
  x,y,z
_cell_length_a	15.698487
_cell_length_b	20.875641
_cell_length_c	20.875641
_cell_angle_alpha	60.089808
_cell_angle_beta	90.002858
_cell_angle_gamma	62.439983
loop_
_atom_site_label
_atom_site_type_symbol
_atom_site_fract_x
_atom_site_fract_y
_atom_site_fract_z
Zr1	Zr	0.859623	0.694333	-0.105747
O2	O	0.734787	0.820575	-0.209015
O3	O	0.893221	0.563077	-0.070815
O4	O	0.905766	0.687101	-0.204287
O5	O	0.717659	0.704006	0.026016
O6	O	1.045950	0.687098	-0.204283
O7	O	0.722242	0.696552	-0.075543
O8	O	1.023509	0.465244	0.034474
O9	O	0.740100	0.925861	-0.212741
O10	O	1.017811	0.618920	-0.059871
O11	O	0.909773	0.624484	0.015919
O12	O	0.924543	0.770505	-0.141227
O13	O	0.816505	0.776069	-0.065438
Zr14	Zr	1.075891	0.706217	0.056234
Zr15	Zr	1.083200	0.694330	-0.105741
Zr16	Zr	0.852314	0.706221	0.056228
Zr17	Zr	0.868096	0.862251	-0.111690
Zr18	Zr	1.067418	0.538300	0.062176
O19	O	1.042293	0.837473	0.021301
O20	O	1.052685	0.820570	-0.209006
O21	O	0.724395	0.837478	0.021293
O22	O	1.200727	0.579975	0.159501
O23	O	1.211119	0.563072	-0.070806
O24	O	0.882829	0.579980	0.159493
O25	O	1.217855	0.696544	-0.075530
O26	O	1.029748	0.713450	0.154773
O27	O	0.889564	0.713452	0.154769
O28	O	1.213272	0.703998	0.026029
O29	O	0.917814	0.925858	-0.212736
O30	O	1.017700	0.474693	0.163222
O31	O	1.195414	0.474690	0.163227
O32	O	1.201223	0.465241	0.034479
O33	O	0.734291	0.935309	-0.083992
O34	O	0.912005	0.935307	-0.083987
O35	O	1.010971	0.630045	0.091714
O36	O	1.119009	0.624481	0.015924
O37	O	1.025741	0.776066	-0.065432
O38	O	0.917703	0.781630	0.010357
C39	C	0.957157	0.490236	-0.017324
C40	C	0.953560	0.418950	-0.014801
C41	C	1.008262	0.382556	-0.053177
C42	C	1.004884	0.315572	-0.050800
C43	C	0.946798	0.284987	-0.010050
C44	C	0.892094	0.321385	0.028331
C45	C	0.895479	0.388364	0.025958
C46	C	0.930635	0.084976	0.001295
C47	C	0.927252	0.017994	0.003664
C48	C	1.040044	0.012185	-0.075466
C49	C	1.043418	0.079169	-0.077840
C50	C	0.988719	0.115557	-0.039455
N51	N	0.943341	0.216520	-0.007621
N52	N	0.992182	0.184019	-0.041881
C53	C	0.688096	0.700280	-0.024764
C54	C	0.593181	0.700281	-0.024767
C55	C	0.516099	0.700284	-0.024766
C56	C	0.419401	0.700279	-0.024757
C57	C	1.247419	0.700271	-0.024749
C58	C	1.342333	0.700269	-0.024747
C59	C	0.976899	0.685406	-0.227363
C60	C	0.980002	0.680359	-0.296125
C61	C	0.978357	0.910314	-0.032190
C62	C	0.981954	0.981600	-0.034712
C63	C	0.932776	0.757112	-0.370897
C64	C	0.935705	0.752365	-0.435504
C65	C	0.985853	0.670864	-0.425338
C66	C	1.033085	0.594106	-0.350558
C67	C	1.030162	0.598853	-0.285953
C68	C	0.999821	0.648180	-0.614003
C69	C	1.002738	0.643438	-0.678616
C70	C	0.905359	0.801698	-0.763558
C71	C	0.902436	0.806439	-0.698948
C72	C	0.949671	0.729680	-0.624174
N73	N	0.988845	0.666010	-0.491375
N74	N	0.946685	0.734535	-0.558138
C75	C	0.958615	0.715145	0.177849
C76	C	0.955512	0.720191	0.246612
C77	C	1.236819	0.490231	-0.017316
C78	C	1.328136	0.418944	-0.014791
C79	C	0.948015	0.505105	0.185282
C80	C	0.941315	0.438866	0.256567
C81	C	1.227677	0.505101	0.185290
C82	C	1.315891	0.438860	0.256578
C83	C	0.707837	0.895449	-0.234803
C84	C	0.619623	0.961690	-0.306091
C85	C	0.698695	0.910319	-0.032197
C86	C	0.607378	0.981606	-0.034722
C87	C	0.987499	0.895445	-0.234796
C88	C	0.994199	0.961684	-0.306081
C89	C	1.318196	0.382564	-0.053176
C90	C	1.403990	0.315591	-0.050819
C91	C	1.499724	0.284995	-0.010072
C92	C	1.509663	0.321381	0.028315
C93	C	1.423870	0.388358	0.025952
C94	C	0.990993	0.410663	0.329615
C95	C	0.984694	0.348435	0.396601
C96	C	0.928722	0.314406	0.390538
C97	C	0.879039	0.342615	0.317482
C98	C	0.885333	0.404847	0.250498
C99	C	1.413722	0.404849	0.250494
C100	C	1.496618	0.342618	0.317470
C101	C	1.481681	0.314395	0.390529
C102	C	1.383841	0.348413	0.396611
C103	C	1.300947	0.410648	0.329636
C104	C	0.521793	0.995710	-0.300007
C105	C	0.438898	1.057961	-0.366984
C106	C	0.453834	1.086188	-0.440044
C107	C	0.551675	1.052165	-0.446126
C108	C	0.634568	0.989919	-0.379150
C109	C	0.617319	1.017993	0.003656
C110	C	0.531526	1.084983	0.001280
C111	C	0.435792	1.115582	-0.039470
C112	C	0.425853	1.079192	-0.077853
C113	C	0.511646	1.012207	-0.075481
C114	C	1.050179	0.995693	-0.299993
C115	C	1.056494	1.057923	-0.366966
C116	C	1.006822	1.086147	-0.440027
C117	C	0.950840	1.052131	-0.446114
C118	C	0.944532	0.989898	-0.379141
H119	H	0.879947	-0.006904	0.036847
H120	H	0.503537	0.982582	-0.106732
C121	C	1.139751	0.482660	-0.091947
C122	C	1.212971	0.416189	-0.097973
H123	H	1.074793	0.503413	-0.119604
H124	H	1.150883	0.529303	-0.113181
H125	H	1.143912	0.460337	-0.038970
H126	H	1.208815	0.438514	-0.150951
H127	H	1.201835	0.369538	-0.076742
H128	H	1.587621	0.296460	0.061490
C129	C	0.932796	1.011678	-0.532279
C130	C	0.896244	1.083166	-0.526429
H131	H	0.899091	1.030845	-0.581866
H132	H	0.921015	0.969756	-0.493278
H133	H	1.003070	0.985961	-0.525675
H134	H	0.825970	1.108880	-0.533028
H135	H	0.908016	1.125102	-0.565442
H136	H	1.431977	0.417971	0.057215
H137	H	0.563825	1.075155	-0.505618
C138	C	0.806490	0.962396	-0.789402
C139	C	0.847320	0.896028	-0.710127
H140	H	0.772469	1.017704	-0.796301
H141	H	0.760249	0.957257	-0.812836
H142	H	0.859070	0.957244	-0.812829
H143	H	0.794740	0.901176	-0.686701
H144	H	0.893566	0.901169	-0.686683
H145	H	0.886099	0.114593	0.032554
H146	H	0.844805	0.296473	0.061515
C147	C	1.316027	0.388872	0.482772
C148	C	1.367440	0.317382	0.476925
H149	H	1.305912	0.369708	0.532359
H150	H	1.252656	0.430793	0.443770
H151	H	1.354655	0.414589	0.476166
H152	H	1.328808	0.291669	0.483525
H153	H	1.430821	0.275446	0.515939
C154	C	0.862195	0.222077	0.443434
C155	C	0.921813	0.245996	0.464173
H156	H	0.857930	0.179847	0.488896
H157	H	0.891643	0.197972	0.414993
H158	H	0.796573	0.272193	0.412357
H159	H	0.987438	0.195881	0.495245
H160	H	0.892368	0.270100	0.492626
H161	H	1.073922	0.527746	-0.342285
H162	H	1.090628	0.972723	-0.240509
C163	C	0.491212	1.112830	0.099234
C164	C	0.542466	1.124963	0.043485
H165	H	0.497965	1.137513	0.125287
H166	H	0.518987	1.052106	0.135606
H167	H	0.421919	1.140655	0.074612
H168	H	0.611762	1.097132	0.068108
H169	H	0.514696	1.185698	0.007107
H170	H	1.036571	0.438363	0.334566
C171	C	1.089790	0.360430	0.468065
C172	C	1.039322	0.317427	0.476897
H173	H	1.123520	0.341283	0.517635
H174	H	1.042519	0.421688	0.438980
H175	H	1.137571	0.347469	0.441599
H176	H	0.991535	0.330393	0.503357
H177	H	1.086598	0.256155	0.505994
H178	H	0.365943	1.170126	-0.041395
C179	C	0.401976	1.007730	-0.228527
C180	C	0.505356	0.964705	-0.219706
H181	H	0.391825	0.988600	-0.178953
H182	H	0.370115	0.994778	-0.254976
H183	H	0.373880	1.068994	-0.257623
H184	H	0.533451	0.903441	-0.190614
H185	H	0.537230	0.977651	-0.193245
H186	H	0.898943	0.962214	-0.384109
C187	C	0.716982	0.373156	0.268757
C188	C	0.817529	0.305192	0.310834
H189	H	0.679016	0.350043	0.264662
H190	H	0.713611	0.414246	0.218409
H191	H	0.690127	0.401261	0.294675
H192	H	0.844387	0.277091	0.284914
H193	H	0.820905	0.264087	0.361191
H194	H	0.359239	1.085652	-0.362017
H195	H	0.347896	1.104115	-0.111031
H196	H	1.102078	1.085613	-0.361996
H197	H	1.011967	1.136822	-0.494555
H198	H	1.055557	0.407457	-0.086364
H199	H	1.221291	0.438332	0.334600
H200	H	0.844882	0.427801	0.191022
H201	H	0.386329	1.136873	-0.494573
H202	H	1.425903	0.427818	0.191011
H203	H	1.569574	0.230457	-0.008153
C204	C	0.839138	0.909273	-0.512975
C205	C	0.883783	0.836735	-0.517695
H206	H	0.807077	0.961360	-0.563718
H207	H	0.889423	0.907839	-0.486012
H208	H	0.790623	0.907819	-0.486003
H209	H	0.932304	0.838185	-0.544661
H210	H	0.833492	0.838170	-0.544669
H211	H	1.395878	0.285972	-0.082078
H212	H	0.714224	0.962220	-0.384112
H213	H	0.695262	0.993085	0.036844
H214	H	1.049427	0.285939	-0.082048
H215	H	1.576277	0.314926	0.312504
C216	C	1.044979	0.201944	-0.181107
C217	C	1.107276	0.112781	-0.122624
H218	H	1.084403	0.222693	-0.208756
H219	H	1.012889	0.233197	-0.158589
H220	H	0.995404	0.210408	-0.215645
H221	H	1.156847	0.104318	-0.088082
H222	H	1.139383	0.081519	-0.145142
H223	H	1.043574	0.577067	-0.670330
C224	C	1.084948	-0.093075	-0.106958
C225	C	1.100178	-0.027824	-0.117647
H226	H	1.122083	-0.117778	-0.132995
H227	H	1.015311	-0.068375	-0.127426
H228	H	1.107140	-0.137332	-0.053203
H229	H	1.077979	0.016437	-0.171403
H230	H	1.169830	-0.052523	-0.097183
C231	C	1.633896	0.278365	0.462974
C232	C	1.572811	0.245981	0.464142
H233	H	1.690161	0.236125	0.508415
H234	H	1.596193	0.330608	0.461136
H235	H	1.656774	0.290312	0.418582
H236	H	1.549927	0.234040	0.508531
H237	H	1.610521	0.193722	0.465988
C238	C	0.783638	0.387392	0.104401
C239	C	0.835342	0.428376	0.068136
H240	H	0.746508	0.412098	0.130439
H241	H	0.830579	0.326670	0.140788
H242	H	0.738747	0.395628	0.066567
H243	H	0.880239	0.420135	0.105972
H244	H	0.788395	0.489113	0.031746
H245	H	0.891933	0.823479	-0.379184
C246	C	1.096354	0.491273	-0.536542
C247	C	1.051731	0.563808	-0.531818
H248	H	1.128396	0.439184	-0.485800
H249	H	1.144872	0.492712	-0.563503
H250	H	1.046051	0.492725	-0.563517
H251	H	1.102035	0.562359	-0.504848
H252	H	1.003208	0.562368	-0.504846
C253	C	0.866608	0.864695	-0.900311
C254	C	0.853452	0.886068	-0.845749
H255	H	0.834568	0.916785	-0.951053
H256	H	0.837680	0.831415	-0.893455
H257	H	0.936502	0.831401	-0.893437
H258	H	0.783558	0.919357	-0.852620
H259	H	0.882376	0.919362	-0.852609
H260	H	1.068618	0.536353	-0.225070
