data_functionalizedCrystal
_audit_creation_method	'MofGen! by Chris Wilmer'
_symmetry_space_group_name_H-M	'P1'
_symmetry_Int_Tables_number	1
_symmetry_cell_setting	triclinic
loop_
_symmetry_equiv_pos_as_xyz
  x,y,z
_cell_length_a	12.759401
_cell_length_b	13.897448
_cell_length_c	12.759393
_cell_angle_alpha	89.967979
_cell_angle_beta	89.980078
_cell_angle_gamma	90.016807
loop_
_atom_site_label
_atom_site_type_symbol
_atom_site_fract_x
_atom_site_fract_y
_atom_site_fract_z
Zn1	Zn	1.606236	-0.383993	-0.594002
Zn2	Zn	1.606120	-0.545319	-0.418316
Zn3	Zn	1.430537	-0.384037	-0.418337
Zn4	Zn	1.430517	-0.545246	-0.593954
O5	O	1.518353	-0.464649	-0.506152
O6	O	1.753242	-0.405406	-0.570708
O7	O	1.582789	-0.523974	-0.271298
O8	O	1.453901	-0.249050	-0.441668
O9	O	1.753157	-0.523931	-0.441632
O10	O	1.582986	-0.249018	-0.570728
O11	O	1.453789	-0.405481	-0.271313
O12	O	1.283514	-0.405409	-0.441622
O13	O	1.453867	-0.523806	-0.740982
O14	O	1.283499	-0.523849	-0.570647
O15	O	1.582967	-0.405335	-0.741016
O16	O	1.582770	-0.680291	-0.441586
O17	O	1.453755	-0.680237	-0.570627
C18	C	1.245385	-0.464627	-0.506132
C19	C	1.128609	-0.464640	-0.506149
C20	C	1.073723	-0.402888	-0.439089
C21	C	0.963999	-0.402911	-0.439103
C22	C	0.964056	-0.526441	-0.573244
C23	C	1.073778	-0.526422	-0.573225
C24	C	1.128555	-0.341106	-0.372013
C25	C	1.073669	-0.279347	-0.304949
C26	C	0.963945	-0.279370	-0.304962
C27	C	0.909106	-0.341151	-0.372040
C28	C	1.518276	-0.715263	-0.506122
C29	C	1.518339	-0.822477	-0.506144
C30	C	1.518450	-1.018772	-0.506210
C31	C	1.518385	-0.909540	-0.506176
C32	C	1.792386	-0.464672	-0.506173
C33	C	1.909163	-0.464682	-0.506182
C34	C	1.518427	-0.464557	-0.780186
C35	C	1.518459	-0.464518	-0.896963
C36	C	1.518458	-0.213056	-0.506206
C37	C	1.518503	-0.105842	-0.506229
C38	C	1.585710	-0.402775	-1.061569
C39	C	1.585687	-0.402817	-0.951845
C40	C	1.451257	-0.526188	-0.951810
C41	C	1.451286	-0.526150	-1.061532
C42	C	1.652935	-0.341063	-1.116446
C43	C	1.720139	-0.279394	-1.061607
C44	C	1.720117	-0.279437	-0.951883
C45	C	1.652890	-0.341148	-0.896998
C46	C	1.518339	-0.464670	-0.233185
C47	C	1.518511	-0.464438	-0.116409
H48	H	0.919260	-0.229090	-0.250349
O49	O	0.802520	-0.341026	-0.371951
C50	C	0.765831	-0.273296	-0.298353
H51	H	0.829058	-0.216909	-0.283739
H52	H	0.692444	-0.236744	-0.330135
H53	H	0.746324	-0.311463	-0.221675
H54	H	1.652885	-0.341185	-0.807653
O55	O	1.785591	-0.219556	-1.114870
C56	C	1.890288	-0.240638	-1.088051
H57	H	1.895557	-0.317709	-1.057878
H58	H	1.942211	-0.232303	-1.160217
H59	H	1.917758	-0.188949	-1.024373
H60	H	1.774844	-0.229230	-0.907235
H61	H	1.396523	-0.576429	-0.907114
O62	O	1.235139	-0.341263	-0.371987
C63	C	1.271773	-0.433664	-0.344786
H64	H	1.208547	-0.489258	-0.362637
H65	H	1.345202	-0.450852	-0.392126
H66	H	1.291193	-0.435601	-0.257604
H67	H	1.652958	-0.341019	-1.205789
H68	H	1.118326	-0.229053	-0.250331
H69	H	1.118466	-0.576706	-0.627832
O70	O	1.385908	-0.586077	-1.114647
C71	C	1.326580	-0.640565	-1.042686
H72	H	1.322932	-0.601085	-0.964478
H73	H	1.243809	-0.650839	-1.074385
H74	H	1.365023	-0.713830	-1.031006
H75	H	0.919397	-0.576739	-0.627857
