data_functionalizedCrystal
_audit_creation_method	'MofGen! by Chris Wilmer'
_symmetry_space_group_name_H-M	'P1'
_symmetry_Int_Tables_number	1
_symmetry_cell_setting	triclinic
loop_
_symmetry_equiv_pos_as_xyz
  x,y,z
_cell_length_a	19.077105
_cell_length_b	12.645330
_cell_length_c	19.076919
_cell_angle_alpha	92.276250
_cell_angle_beta	90.076224
_cell_angle_gamma	87.714233
loop_
_atom_site_label
_atom_site_type_symbol
_atom_site_fract_x
_atom_site_fract_y
_atom_site_fract_z
Zn1	Zn	1.058309	-0.512860	-0.440444
Zn2	Zn	1.062962	-0.683311	-0.322946
Zn3	Zn	0.945526	-0.498659	-0.318237
Zn4	Zn	0.940784	-0.682672	-0.435699
O5	O	1.001896	-0.594376	-0.379332
O6	O	1.157259	-0.541682	-0.428815
O7	O	1.051316	-0.653141	-0.223990
O8	O	0.960524	-0.352199	-0.334463
O9	O	1.160677	-0.666911	-0.342490
O10	O	1.043386	-0.362632	-0.424248
O11	O	0.965036	-0.517478	-0.220530
O12	O	0.846565	-0.516858	-0.329862
O13	O	0.952442	-0.665822	-0.534660
O14	O	0.843081	-0.652051	-0.416161
O15	O	1.038788	-0.541062	-0.538146
O16	O	1.046718	-0.831570	-0.337888
O17	O	0.956954	-0.831101	-0.420727
C18	C	0.819326	-0.582845	-0.371986
C19	C	0.741222	-0.577939	-0.368860
C20	C	0.702735	-0.646120	-0.412251
C21	C	0.629348	-0.641496	-0.409318
C22	C	0.594448	-0.568695	-0.362988
C23	C	0.632940	-0.500507	-0.319594
C24	C	0.706326	-0.505126	-0.322532
C25	C	0.375159	-0.547316	-0.349394
C26	C	0.301768	-0.542704	-0.346458
C27	C	0.298181	-0.683692	-0.436183
C28	C	0.371569	-0.688309	-0.439113
C29	C	0.410054	-0.620117	-0.395722
N30	N	0.519434	-0.563970	-0.359986
N31	N	0.485066	-0.624839	-0.398728
C32	C	1.001845	-0.869801	-0.379320
C33	C	1.001886	-0.987635	-0.379341
C34	C	0.945633	-1.154972	-0.431631
C35	C	0.945363	-1.032385	-0.431445
C36	C	0.984820	-1.026659	-0.304483
C37	C	0.984477	-1.149256	-0.304800
C38	C	1.075561	-1.160522	-0.401321
C39	C	1.075039	-1.037980	-0.402922
C40	C	1.185178	-0.605952	-0.386707
C41	C	1.263281	-0.610885	-0.389850
C42	C	0.994567	-0.604955	-0.562612
C43	C	0.991444	-0.609463	-0.640716
C44	C	1.001965	-0.317876	-0.379360
C45	C	1.001995	-0.200049	-0.379372
C46	C	1.034930	-0.546628	-0.679225
C47	C	1.031987	-0.550859	-0.752611
C48	C	0.985561	-0.617932	-0.787487
C49	C	0.942070	-0.680769	-0.748972
C50	C	0.945010	-0.676531	-0.675587
C51	C	0.971944	-0.637565	-1.006769
C52	C	0.969009	-0.641800	-1.080159
C53	C	1.058925	-0.511889	-1.083793
C54	C	1.061864	-0.507662	-1.010407
C55	C	1.018371	-0.570495	-0.971898
N56	N	0.982553	-0.622261	-0.862499
N57	N	1.021376	-0.566159	-0.896887
C58	C	1.009236	-0.583764	-0.196766
C59	C	1.012495	-0.578966	-0.118668
H60	H	0.406485	-0.491797	-0.314057
O61	O	1.037646	-0.988026	-0.251318
H62	H	1.010227	-0.938227	-0.209824
H63	H	1.067399	-0.499695	-0.783962
O64	O	0.925017	-0.705334	-0.965262
H65	H	0.957767	-0.759340	-0.933078
O66	O	1.105819	-0.444114	-1.125338
H67	H	1.161531	-0.464963	-1.113486
O68	O	1.096951	-1.206982	-0.472610
H69	H	1.148973	-1.177910	-0.486885
O70	O	0.918922	-0.714133	-1.117773
H71	H	0.924190	-0.706526	-1.175271
O72	O	0.256674	-0.757229	-0.482990
H73	H	0.199780	-0.741783	-0.473171
H74	H	0.904267	-0.735377	-0.777373
H75	H	0.955696	-1.006214	-0.486858
H76	H	0.598015	-0.697017	-0.444651
O77	O	0.595304	-0.422009	-0.269604
H78	H	0.537808	-0.430267	-0.274838
O79	O	1.111936	-0.435315	-0.972792
H80	H	1.149015	-0.483097	-0.940800
O81	O	0.898099	-0.744287	-0.634046
H82	H	0.865322	-0.791640	-0.670624
H83	H	0.731145	-0.705405	-0.449976
O84	O	0.747842	-0.431590	-0.275732
H85	H	0.782698	-0.478992	-0.241272
H86	H	0.399979	-0.747594	-0.476839
H87	H	0.273354	-0.483409	-0.308735
H88	H	0.955843	-1.188371	-0.487220
H89	H	0.931710	-0.991707	-0.285967
H90	H	1.087964	-1.012952	-0.458029
O91	O	0.873753	-1.190351	-0.412289
H92	H	0.877994	-1.239900	-0.365615
H93	H	0.890765	-0.998945	-0.416668
H94	H	0.930788	-1.173588	-0.286552
O95	O	1.036695	-1.188475	-0.251244
H96	H	1.062076	-1.119872	-0.225230
H97	H	1.119004	-1.007870	-0.367868
H98	H	1.117515	-1.189748	-0.363295
O99	O	1.085004	-0.474285	-0.641610
H100	H	1.114742	-0.431297	-0.680720
