data_functionalizedCrystal
_audit_creation_method	'MofGen! by Chris Wilmer'
_symmetry_space_group_name_H-M	'P1'
_symmetry_Int_Tables_number	1
_symmetry_cell_setting	triclinic
loop_
_symmetry_equiv_pos_as_xyz
  x,y,z
_cell_length_a	29.999520
_cell_length_b	29.998686
_cell_length_c	29.995014
_cell_angle_alpha	60.005185
_cell_angle_beta	60.010401
_cell_angle_gamma	59.993433
loop_
_atom_site_label
_atom_site_type_symbol
_atom_site_fract_x
_atom_site_fract_y
_atom_site_fract_z
O1	O	0.061772	-0.651300	0.544623
O2	O	0.561772	-0.151300	1.044623
O3	O	0.023267	-0.507084	0.438819
O4	O	0.523267	-0.007084	0.938819
O5	O	0.114589	-0.598332	0.438743
O6	O	0.614589	-0.098332	0.938743
O7	O	-0.029550	-0.560051	0.544699
O8	O	0.470450	-0.060051	1.044699
O9	O	0.144886	-0.568039	0.468961
O10	O	0.644886	-0.068039	0.968961
O11	O	0.053564	-0.476791	0.469038
O12	O	0.553564	0.023209	0.969038
O13	O	0.092069	-0.621007	0.574841
O14	O	0.592069	-0.121007	1.074841
Zn15	Zn	0.077627	-0.544089	0.526737
Zn16	Zn	0.577627	-0.044089	1.026737
Zn17	Zn	0.037709	-0.584002	0.486923
Zn18	Zn	0.537709	-0.084002	0.986923
O19	O	0.000748	-0.529758	0.574918
O20	O	0.500748	-0.029758	1.074918
N21	N	0.104871	-0.516854	0.553912
N22	N	0.604871	-0.016854	1.053912
N23	N	0.010470	-0.611242	0.459748
N24	N	0.510470	-0.111242	0.959748
C25	C	0.143162	-0.478782	0.827124
C26	C	0.643162	0.021218	1.327124
C27	C	0.378203	-0.478734	0.591892
C28	C	0.878203	0.021266	1.091892
C29	C	0.143005	-0.478752	0.591997
C30	C	0.643005	0.021248	1.091997
C31	C	0.142986	-0.243586	0.592008
C32	C	0.642986	0.256414	1.092008
C33	C	0.180857	-0.357087	0.629814
C34	C	0.680857	0.142913	1.129814
C35	C	0.180866	-0.440920	0.629807
C36	C	0.680866	0.059080	1.129807
C37	C	0.201840	-0.419964	0.650755
C38	C	0.701840	0.080036	1.150755
C39	C	0.293272	-0.404201	0.602606
C40	C	0.793272	0.095799	1.102606
C41	C	0.350426	-0.423248	0.583534
C42	C	0.850426	0.076752	1.083534
C43	C	0.350451	-0.515727	0.618798
C44	C	0.850451	-0.015727	1.118798
C45	C	0.293297	-0.496678	0.637872
C46	C	0.793297	0.003322	1.137872
C47	C	0.194628	-0.328499	0.573626
C48	C	0.694628	0.171501	1.073626
C49	C	0.175551	-0.271340	0.554591
C50	C	0.675551	0.228660	1.054591
C51	C	0.128936	-0.271362	0.647935
C52	C	0.628936	0.228638	1.147935
C53	C	0.148014	-0.328521	0.666970
C54	C	0.648014	0.171479	1.166970
C55	C	0.124672	-0.427119	0.643641
C56	C	0.624672	0.072881	1.143641
C57	C	0.105611	-0.446170	0.624592
C58	C	0.605611	0.053830	1.124592
C59	C	0.198934	-0.492820	0.577889
C60	C	0.698934	0.007180	1.077889
C61	C	0.217998	-0.473770	0.596931
C62	C	0.717998	0.026230	1.096931
C63	C	0.124740	-0.427136	0.742229
C64	C	0.624740	0.072864	1.242229
C65	C	0.105728	-0.446202	0.799386
C66	C	0.605728	0.053798	1.299386
C67	C	0.199085	-0.492863	0.799337
C68	C	0.699085	0.007137	1.299337
C69	C	0.218096	-0.473798	0.742178
C70	C	0.718096	0.026202	1.242178
C71	C	0.180923	-0.440933	0.713626
C72	C	0.680923	0.059067	1.213626
C73	C	0.264710	-0.440915	0.629773
C74	C	0.764710	0.059085	1.129773
C75	C	0.121509	-0.499370	0.889991
C76	C	0.621509	0.000630	1.389991
C77	C	0.441068	-0.498953	0.570621
C78	C	0.941068	0.001047	1.070621
C79	C	0.121297	-0.499349	0.571429
C80	C	0.621297	0.000651	1.071429
C81	C	0.121653	-0.180715	0.571802
C82	C	0.621653	0.319285	1.071802
C83	C	-0.111071	-0.648912	0.421584
C84	C	0.388929	-0.148912	0.921584
C85	C	-0.027286	-0.649018	0.421777
C86	C	0.472714	-0.149018	0.921777
C87	C	-0.048200	-0.669944	0.400740
C88	C	0.451800	-0.169944	0.900740
C89	C	-0.064036	-0.761340	0.448814
C90	C	0.435964	-0.261340	0.948814
C91	C	-0.045033	-0.818500	0.467893
C92	C	0.454967	-0.318500	0.967893
C93	C	0.047447	-0.818609	0.432797
C94	C	0.547447	-0.318609	0.932797
C95	C	0.028444	-0.761451	0.413717
C96	C	0.528444	-0.261451	0.913717
C97	C	-0.139731	-0.662677	0.477755
C98	C	0.360269	-0.162677	0.977755
C99	C	-0.196885	-0.643554	0.496701
C100	C	0.303115	-0.143554	0.996701
C101	C	-0.196717	-0.596907	0.403303
C102	C	0.303283	-0.096907	0.903303
C103	C	-0.139562	-0.616030	0.384357
C104	C	0.360438	-0.116030	0.884357
C105	C	-0.041053	-0.592827	0.407952
C106	C	0.458947	-0.092827	0.907952
C107	C	-0.022041	-0.573809	0.427083
C108	C	0.477959	-0.073809	0.927083
C109	C	0.024504	-0.667167	0.473848
C110	C	0.524504	-0.167167	0.973848
C111	C	0.005492	-0.686188	0.454725
C112	C	0.505492	-0.186188	0.954725
C113	C	-0.040886	-0.592836	0.309259
C114	C	0.459114	-0.092836	0.809259
C115	C	-0.021740	-0.573821	0.252102
C116	C	0.478260	-0.073821	0.752102
C117	C	0.024886	-0.667185	0.252163
C118	C	0.524886	-0.167185	0.752163
C119	C	0.005743	-0.686199	0.309322
C120	C	0.505743	-0.186199	0.809322
C121	C	-0.027145	-0.649023	0.337868
C122	C	0.472855	-0.149023	0.837868
C123	C	-0.027299	-0.732818	0.421728
C124	C	0.472701	-0.232818	0.921728
N125	N	0.492511	-0.516826	0.553742
N126	N	0.992511	-0.016826	1.053742
O127	O	0.679283	-0.525926	0.419277
O128	O	1.179283	-0.025926	0.919277
O129	O	0.679465	-0.632059	0.563349
O130	O	1.179465	-0.132059	1.063349
O131	O	0.679393	-0.631817	0.471975
O132	O	1.179393	-0.131817	0.971975
O133	O	0.679355	-0.526168	0.510650
O134	O	1.179355	-0.026168	1.010650
O135	O	0.588593	-0.601610	0.502313
O136	O	1.088593	-0.101610	1.002313
O137	O	0.588665	-0.601852	0.593686
O138	O	1.088665	-0.101852	1.093686
O139	O	0.588483	-0.495720	0.449614
O140	O	1.088483	0.004280	0.949614
Zn141	Zn	0.574158	-0.543990	0.526467
Zn142	Zn	1.074158	-0.043990	1.026467
Zn143	Zn	0.693790	-0.583788	0.486496
Zn144	Zn	1.193790	-0.083788	0.986496
O145	O	0.588555	-0.495962	0.540987
O146	O	1.088555	0.004038	1.040987
N147	N	0.775436	-0.610952	0.459215
N148	N	1.275436	-0.110952	0.959215
N149	N	0.104844	-0.129269	0.553931
N150	N	0.604844	0.370731	1.053931
O151	O	-0.029548	0.057600	0.544709
O152	O	0.470452	0.557600	1.044709
O153	O	0.114530	0.057617	0.438578
O154	O	0.614530	0.557617	0.938578
O155	O	0.023130	0.057594	0.438850
O156	O	0.523130	0.557594	0.938850
O157	O	0.061852	0.057623	0.544437
O158	O	0.561852	0.557623	1.044437
O159	O	0.053431	-0.033213	0.469115
O160	O	0.553431	0.466787	0.969115
O161	O	0.144831	-0.033190	0.468843
O162	O	0.644831	0.466810	0.968843
O163	O	0.000753	-0.033207	0.574974
O164	O	0.500753	0.466793	1.074974
Zn165	Zn	0.077603	-0.047616	0.526714
Zn166	Zn	0.577603	0.452384	1.026714
Zn167	Zn	0.037680	0.072026	0.486838
Zn168	Zn	0.537680	0.572026	0.986838
O169	O	0.092153	-0.033184	0.574702
O170	O	0.592153	0.466816	1.074702
N171	N	0.010432	0.153679	0.459622
N172	N	0.510432	0.653679	0.959622
N173	N	0.105130	-0.516904	0.941437
N174	N	0.605130	-0.016904	1.441437
O175	O	0.095923	-0.651280	1.128292
O176	O	0.595923	-0.151280	1.628292
O177	O	-0.010184	-0.507155	1.128318
O178	O	0.489816	-0.007155	1.628318
O179	O	-0.009938	-0.598539	1.128284
O180	O	0.490062	-0.098539	1.628284
O181	O	0.095677	-0.559897	1.128326
O182	O	0.595677	-0.059897	1.628326
O183	O	0.020315	-0.568257	1.037481
O184	O	0.520315	-0.068257	1.537481
O185	O	0.020068	-0.476874	1.037515
O186	O	0.520068	0.023126	1.537515
O187	O	0.126176	-0.620999	1.037489
O188	O	0.626176	-0.120999	1.537489
Zn189	Zn	0.077925	-0.544128	1.023085
Zn190	Zn	0.577925	-0.044128	1.523085
Zn191	Zn	0.038066	-0.584026	1.142722
Zn192	Zn	0.538066	-0.084026	1.642722
O193	O	0.125929	-0.529616	1.037523
O194	O	0.625929	-0.029616	1.537523
N195	N	0.010860	-0.611256	1.224371
N196	N	0.510860	-0.111256	1.724371
C197	C	0.034807	-0.473765	0.439352
C198	C	0.534807	0.026235	0.939352
C199	C	0.147897	-0.586765	0.439257
C200	C	0.647897	-0.086765	0.939257
C201	C	0.080529	-0.654326	0.574308
C202	C	0.580529	-0.154326	1.074308
C203	C	-0.032561	-0.541326	0.574403
C204	C	0.467439	-0.041326	1.074403
C205	C	0.634087	-0.631571	0.596668
C206	C	1.134087	-0.131571	1.096668
C207	C	0.633999	-0.631272	0.483513
C208	C	1.133999	-0.131272	0.983513
C209	C	0.633858	-0.496206	0.416295
C210	C	1.133858	0.003794	0.916295
C211	C	0.633949	-0.496507	0.529449
C212	C	1.133949	0.003493	1.029449
C213	C	0.147793	0.012327	0.439058
C214	C	0.647793	0.512327	0.939058
C215	C	0.034644	0.012187	0.439432
C216	C	0.534644	0.512187	0.939432
C217	C	-0.032548	0.012195	0.574457
C218	C	0.467452	0.512195	1.074457
C219	C	0.080639	0.012222	0.574120
C220	C	0.580639	0.512222	1.074120
C221	C	-0.009670	-0.473857	1.082920
C222	C	0.490330	0.026143	1.582920
C223	C	-0.009359	-0.587018	1.082860
C224	C	0.490641	-0.087018	1.582860
C225	C	0.125662	-0.654297	1.082887
C226	C	0.625662	-0.154297	1.582887
C227	C	0.125358	-0.541129	1.082927
C228	C	0.625358	-0.041129	1.582927
H229	H	0.094465	-0.400370	0.718985
H230	H	0.594465	0.099630	1.218985
C231	C	0.170186	-0.529965	1.082935
C232	C	0.670186	-0.029965	1.582935
C233	C	0.159009	-0.473969	1.082949
C234	C	0.659009	0.026031	1.582949
C235	C	0.203837	-0.462804	1.082957
C236	C	0.703837	0.037196	1.582957
C237	C	0.259842	-0.507636	1.082951
C238	C	0.759842	-0.007636	1.582951
C239	C	0.271020	-0.563635	1.082937
C240	C	0.771020	-0.063635	1.582937
C241	C	0.226192	-0.574800	1.082929
C242	C	0.726192	-0.074800	1.582929
H243	H	0.117550	-0.440779	1.082954
H244	H	0.617550	0.059221	1.582954
H245	H	0.195562	-0.421350	1.082968
H246	H	0.695562	0.078650	1.582968
H247	H	0.293026	-0.499371	1.082957
H248	H	0.793026	0.000629	1.582957
H249	H	0.312480	-0.596825	1.082933
H250	H	0.812480	-0.096825	1.582933
H251	H	0.234468	-0.616255	1.082919
H252	H	0.734468	-0.116255	1.582919
C253	C	0.023699	-0.417802	0.394456
C254	C	0.523699	0.082198	0.894456
C255	C	0.027620	-0.414007	0.339550
C256	C	0.527620	0.085993	0.839550
C257	C	0.016512	-0.358043	0.294654
C258	C	0.516512	0.141957	0.794654
C259	C	0.001483	-0.305875	0.304664
C260	C	0.501483	0.194125	0.804664
C261	C	-0.002438	-0.309668	0.359573
C262	C	0.497562	0.190332	0.859573
C263	C	0.008669	-0.365631	0.404469
C264	C	0.508669	0.134369	0.904469
H265	H	0.038745	-0.452627	0.332137
H266	H	0.538745	0.047373	0.832137
H267	H	0.019415	-0.355235	0.254007
H268	H	0.519415	0.144765	0.754007
H269	H	-0.006739	-0.264447	0.271429
H270	H	0.493261	0.235553	0.771429
H271	H	-0.013564	-0.271048	0.366985
H272	H	0.486436	0.228952	0.866985
H273	H	0.005766	-0.368439	0.445116
H274	H	0.505766	0.131561	0.945116
C275	C	0.633782	-0.451188	0.360401
C276	C	1.133782	0.048812	0.860401
C277	C	0.633736	-0.395260	0.349497
C278	C	1.133736	0.104740	0.849497
C279	C	0.633660	-0.350241	0.293602
C280	C	1.133660	0.149759	0.793602
C281	C	0.633630	-0.361152	0.248611
C282	C	1.133630	0.138848	0.748611
C283	C	0.633676	-0.417082	0.259514
C284	C	1.133676	0.082918	0.759514
C285	C	0.633752	-0.462101	0.315408
C286	C	1.133752	0.037899	0.815408
H287	H	0.633758	-0.387181	0.382803
H288	H	1.133758	0.112819	0.882803
H289	H	0.633625	-0.308838	0.285532
H290	H	1.133625	0.191162	0.785532
H291	H	0.633574	-0.327826	0.207235
H292	H	1.133574	0.172174	0.707235
H293	H	0.633654	-0.425161	0.226208
H294	H	1.133654	0.074839	0.726208
H295	H	0.633787	-0.503505	0.323479
H296	H	1.133787	-0.003505	0.823479
H297	H	0.016937	-0.731954	0.332612
H298	H	0.516937	-0.231954	0.832612
H299	H	0.229173	-0.519573	0.551126
H300	H	0.729173	-0.019573	1.051126
C301	C	0.023449	0.012177	0.394616
C302	C	0.523449	0.512177	0.894616
C303	C	0.068250	0.012179	0.338610
C304	C	0.568250	0.512179	0.838610
C305	C	0.057055	0.012169	0.293794
C306	C	0.557055	0.512169	0.793794
C307	C	0.001059	0.012158	0.304985
C308	C	0.501059	0.512158	0.804985
C309	C	-0.043747	0.012156	0.360995
C310	C	0.456253	0.512156	0.860995
C311	C	-0.032552	0.012166	0.405810
C312	C	0.467448	0.512166	0.905810
H313	H	0.109706	0.012187	0.330323
H314	H	0.609706	0.512187	0.830323
H315	H	0.090223	0.012170	0.252332
H316	H	0.590223	0.512170	0.752332
H317	H	-0.007229	0.012150	0.271810
H318	H	0.492771	0.512150	0.771810
H319	H	-0.085202	0.012148	0.369281
H320	H	0.414798	0.512148	0.869281
H321	H	-0.065720	0.012165	0.447272
H322	H	0.434280	0.512165	0.947272
C323	C	-0.054166	-0.598162	1.082790
C324	C	0.445834	-0.098162	1.582790
C325	C	-0.109104	-0.594259	1.129911
C326	C	0.390896	-0.094259	1.629911
C327	C	-0.153911	-0.605403	1.129841
C328	C	0.346089	-0.105403	1.629841
C329	C	-0.143781	-0.620450	1.082650
C330	C	0.356219	-0.120450	1.582650
C331	C	-0.088841	-0.624354	1.035525
C332	C	0.411159	-0.124354	1.535525
C333	C	-0.044034	-0.613210	1.035595
C334	C	0.455966	-0.113210	1.535595
H335	H	-0.116604	-0.583119	1.164848
H336	H	0.383396	-0.083119	1.664848
H337	H	-0.194581	-0.602512	1.164726
H338	H	0.305419	-0.102512	1.664726
H339	H	-0.176950	-0.628699	1.082598
H340	H	0.323050	-0.128699	1.582598
H341	H	-0.081340	-0.635493	1.000588
H342	H	0.418660	-0.135493	1.500588
H343	H	-0.003364	-0.616100	1.000710
H344	H	0.496636	-0.116100	1.500710
H345	H	0.189085	0.012584	0.405656
H346	H	0.689085	0.512584	0.905656
C347	C	-0.088445	0.012191	0.619472
C348	C	0.411555	0.512191	1.119472
C349	C	-0.133453	0.012178	0.608581
C350	C	0.366547	0.512178	1.108581
C351	C	-0.189349	0.012174	0.653595
C352	C	0.310651	0.512174	1.153595
C353	C	-0.200238	0.012182	0.709501
C354	C	0.299762	0.512182	1.209501
C355	C	-0.155229	0.012195	0.720394
C356	C	0.344771	0.512195	1.220394
C357	C	-0.099332	0.012199	0.675379
C358	C	0.400668	0.512199	1.175379
H359	H	-0.125393	0.012172	0.567194
H360	H	0.374607	0.512172	1.067194
H361	H	-0.222668	0.012165	0.645531
H362	H	0.277332	0.512165	1.145531
H363	H	-0.241616	0.012179	0.742823
H364	H	0.258384	0.512179	1.242823
H365	H	-0.163288	0.012201	0.761781
H366	H	0.336712	0.512201	1.261781
H367	H	-0.066013	0.012208	0.683444
H368	H	0.433987	0.512208	1.183444
H369	H	0.088930	0.012231	0.607291
H370	H	0.588930	0.512231	1.107291
H371	H	0.633941	-0.463320	0.537725
H372	H	1.133941	0.036680	1.037725
H373	H	-0.042983	-0.432464	1.082928
H374	H	0.457017	0.067536	1.582928
H375	H	-0.033252	-0.528055	0.415829
H376	H	0.466748	-0.028055	0.915829
C377	C	-0.108390	-0.698846	0.518703
C378	C	0.391610	-0.198846	1.018703
C379	C	-0.069133	-0.756892	0.518505
C380	C	0.430867	-0.256892	1.018505
C381	C	-0.037793	-0.793062	0.559457
C382	C	0.462207	-0.293062	1.059457
C383	C	-0.045712	-0.771185	0.600606
C384	C	0.454288	-0.271185	1.100606
C385	C	-0.084971	-0.713136	0.600805
C386	C	0.415029	-0.213136	1.100805
C387	C	-0.116310	-0.676966	0.559854
C388	C	0.383690	-0.176966	1.059854
H389	H	-0.063269	-0.773089	0.488043
H390	H	0.436731	-0.273089	0.988043
H391	H	-0.008731	-0.836034	0.559309
H392	H	0.491269	-0.336034	1.059309
H393	H	-0.022513	-0.797961	0.630921
H394	H	0.477487	-0.297961	1.130921
H395	H	-0.090834	-0.696939	0.631268
H396	H	0.409166	-0.196939	1.131268
H397	H	-0.145373	-0.633994	0.560002
H398	H	0.354627	-0.133994	1.060002
H399	H	0.634015	-0.664461	0.475235
H400	H	1.134015	-0.164461	0.975235
H401	H	-0.073962	-0.533167	0.607674
H402	H	0.426038	-0.033167	1.107674
C403	C	0.634154	-0.676586	0.652566
C404	C	1.134154	-0.176586	1.152566
C405	C	0.587042	-0.700115	0.687742
C406	C	1.087042	-0.200115	1.187742
C407	C	0.587109	-0.745130	0.743640
C408	C	1.087109	-0.245130	1.243640
C409	C	0.634289	-0.766617	0.764361
C410	C	1.134289	-0.266617	1.264361
C411	C	0.681404	-0.743088	0.729184
C412	C	1.181404	-0.243088	1.229184
C413	C	0.681337	-0.698073	0.673287
C414	C	1.181337	-0.198073	1.173287
H415	H	0.552114	-0.684209	0.672404
H416	H	1.052114	-0.184209	1.172404
H417	H	0.552231	-0.762548	0.769680
H418	H	1.052231	-0.262548	1.269680
H419	H	0.634338	-0.799940	0.805740
H420	H	1.134338	-0.299940	1.305740
H421	H	0.716332	-0.758994	0.744523
H422	H	1.216332	-0.258994	1.244523
H423	H	0.716215	-0.680655	0.647247
H424	H	1.216215	-0.180655	1.147247
H425	H	0.189295	-0.594927	0.405983
H426	H	0.689295	-0.094927	0.905983
H427	H	0.158977	-0.695688	1.082873
H428	H	0.658977	-0.195688	1.582873
H429	H	0.059977	-0.434960	0.822668
H430	H	0.559977	0.065040	1.322668
H431	H	0.088756	-0.695753	0.607538
H432	H	0.588756	-0.195753	1.107538
C433	C	0.381845	-0.382861	0.553645
C434	C	0.881845	0.117139	1.053645
C435	C	0.374002	-0.348126	0.582869
C436	C	0.874002	0.151874	1.082869
C437	C	0.405421	-0.307736	0.552979
C438	C	0.905421	0.192264	1.052979
C439	C	0.444683	-0.302083	0.493865
C440	C	0.944683	0.197917	0.993865
C441	C	0.452528	-0.336820	0.464638
C442	C	0.952528	0.163180	0.964638
C443	C	0.421109	-0.377209	0.494528
C444	C	0.921109	0.122791	0.994528
H445	H	0.344936	-0.352310	0.626632
H446	H	0.844936	0.147690	1.126632
H447	H	0.399613	-0.282022	0.574615
H448	H	0.899613	0.217978	1.074615
H449	H	0.467942	-0.272185	0.471738
H450	H	0.967942	0.227815	0.971738
H451	H	0.481594	-0.332636	0.420875
H452	H	0.981594	0.167364	0.920875
H453	H	0.426917	-0.402923	0.472892
H454	H	0.926917	0.097077	0.972892
C455	C	0.239979	-0.529006	0.830739
C456	C	0.739979	-0.029006	1.330739
C457	C	0.281096	-0.507125	0.822858
C458	C	0.781096	-0.007125	1.322858
C459	C	0.321992	-0.543269	0.854260
C460	C	0.821992	-0.043269	1.354260
C461	C	0.321771	-0.601294	0.893543
C462	C	0.821771	-0.101294	1.393543
C463	C	0.280653	-0.623178	0.901427
C464	C	0.780653	-0.123178	1.401427
C465	C	0.239757	-0.587034	0.870025
C466	C	0.739757	-0.087034	1.370025
H467	H	0.281261	-0.464169	0.793776
H468	H	0.781261	0.035831	1.293776
H469	H	0.352430	-0.527068	0.848424
H470	H	0.852430	-0.027068	1.348424
H471	H	0.352045	-0.628049	0.916789
H472	H	0.852045	-0.128049	1.416789
H473	H	0.280488	-0.666134	0.930508
H474	H	0.780488	-0.166134	1.430508
H475	H	0.209318	-0.603234	0.875861
H476	H	0.709318	-0.103234	1.375861
C477	C	0.279901	-0.488976	0.710716
C478	C	0.779901	0.011024	1.210716
C479	C	0.305806	-0.443787	0.671417
C480	C	0.805806	0.056213	1.171417
C481	C	0.367610	-0.458965	0.639955
C482	C	0.867610	0.041035	1.139955
C483	C	0.403509	-0.519333	0.647792
C484	C	0.903509	-0.019333	1.147792
C485	C	0.377604	-0.564527	0.687092
C486	C	0.877604	-0.064527	1.187092
C487	C	0.315800	-0.549348	0.718554
C488	C	0.815800	-0.049348	1.218554
H489	H	0.279232	-0.399095	0.665614
H490	H	0.779232	0.100905	1.165614
H491	H	0.386786	-0.425510	0.610862
H492	H	0.886786	0.074490	1.110862
H493	H	0.449259	-0.530569	0.624502
H494	H	0.949259	-0.030569	1.124502
H495	H	0.404178	-0.609218	0.692895
H496	H	0.904178	-0.109218	1.192895
H497	H	0.296624	-0.582804	0.747647
H498	H	0.796624	-0.082804	1.247647
H499	H	0.094434	-0.400372	0.670409
H500	H	0.594434	0.099628	1.170409
H501	H	0.059853	-0.434921	0.635844
H502	H	0.559853	0.065079	1.135844
H503	H	0.263756	-0.485001	0.585661
H504	H	0.763756	0.014999	1.085661
H505	H	0.373728	-0.561133	0.625383
H506	H	0.873728	-0.061133	1.125383
C507	C	0.261877	-0.537066	0.667757
C508	C	0.761877	-0.037066	1.167757
C509	C	0.293325	-0.598403	0.676659
C510	C	0.793325	-0.098403	1.176659
C511	C	0.261905	-0.638792	0.706546
C512	C	0.761905	-0.138792	1.206546
C513	C	0.199037	-0.617842	0.727531
C514	C	0.699037	-0.117842	1.227531
C515	C	0.167586	-0.556502	0.718629
C516	C	0.667586	-0.056502	1.218629
C517	C	0.199006	-0.516114	0.688742
C518	C	0.699006	-0.016114	1.188742
H519	H	0.339866	-0.613914	0.661125
H520	H	0.839866	-0.113914	1.161125
H521	H	0.285188	-0.684200	0.713136
H522	H	0.785188	-0.184200	1.213136
H523	H	0.175779	-0.647740	0.749655
H524	H	0.675779	-0.147740	1.249655
H525	H	0.121045	-0.540991	0.734163
H526	H	0.621045	-0.040991	1.234163
H527	H	0.175723	-0.470705	0.682152
H528	H	0.675723	0.029295	1.182152
H529	H	0.221368	-0.351757	0.543370
H530	H	0.721368	0.148243	1.043370
C531	C	0.261827	-0.342861	0.593699
C532	C	0.761827	0.157139	1.093699
C533	C	0.269650	-0.301299	0.535377
C534	C	0.769650	0.198701	1.035377
C535	C	0.238203	-0.239957	0.526469
C536	C	0.738203	0.260043	1.026469
C537	C	0.198934	-0.220179	0.575884
C538	C	0.698934	0.279821	1.075884
C539	C	0.191109	-0.261742	0.634210
C540	C	0.691109	0.238258	1.134210
C541	C	0.222556	-0.323083	0.643118
C542	C	0.722556	0.176917	1.143118
H543	H	0.298721	-0.315939	0.498793
H544	H	0.798721	0.184061	0.998793
H545	H	0.243996	-0.209190	0.483292
H546	H	0.743996	0.290810	0.983292
H547	H	0.175655	-0.174770	0.569290
H548	H	0.675655	0.325230	1.069290
H549	H	0.162038	-0.247101	0.670793
H550	H	0.662038	0.252899	1.170793
H551	H	0.216763	-0.353851	0.686295
H552	H	0.716763	0.146149	1.186295
H553	H	0.102202	-0.248101	0.678192
H554	H	0.602202	0.251899	1.178192
C555	C	0.190698	-0.239889	0.492780
C556	C	0.690698	0.260111	0.992780
C557	C	0.226827	-0.271311	0.451909
C558	C	0.726827	0.228689	0.951909
C559	C	0.241976	-0.239860	0.390099
C560	C	0.741976	0.260140	0.890099
C561	C	0.220996	-0.176988	0.369160
C562	C	0.720996	0.323012	0.869160
C563	C	0.184865	-0.145562	0.410032
C564	C	0.684865	0.354438	0.910032
C565	C	0.169716	-0.177013	0.471842
C566	C	0.669716	0.322987	0.971842
H567	H	0.242360	-0.317856	0.467409
H568	H	0.742360	0.182144	0.967409
H569	H	0.268724	-0.263124	0.359843
H570	H	0.768724	0.236876	0.859843
H571	H	0.232211	-0.153706	0.323404
H572	H	0.732211	0.346294	0.823404
H573	H	0.169332	-0.099017	0.394532
H574	H	0.669332	0.400983	0.894532
H575	H	0.142969	-0.153749	0.502097
H576	H	0.642969	0.346251	1.002097
H577	H	0.136793	-0.351798	0.712725
H578	H	0.636793	0.148202	1.212725
H579	H	-0.067667	-0.562559	0.332499
H580	H	0.432333	-0.062559	0.832499
C581	C	-0.036867	-0.512010	0.220639
C582	C	0.463133	-0.012010	0.720639
C583	C	-0.020262	-0.476155	0.228563
C584	C	0.479738	0.023845	0.728563
C585	C	-0.035388	-0.414345	0.197099
C586	C	0.464612	0.085655	0.697099
C587	C	-0.067119	-0.388390	0.157711
C588	C	0.432881	0.111610	0.657711
C589	C	-0.083725	-0.424246	0.149785
C590	C	0.416275	0.075754	0.649785
C591	C	-0.068599	-0.486055	0.181249
C592	C	0.431401	0.013945	0.681249
H593	H	0.003228	-0.495368	0.257722
H594	H	0.503228	0.004632	0.757722
H595	H	-0.023095	-0.387803	0.202966
H596	H	0.476905	0.112197	0.702966
H597	H	-0.078316	-0.342635	0.134419
H598	H	0.421684	0.157365	0.634419
H599	H	-0.107216	-0.405032	0.120626
H600	H	0.392784	0.094968	0.620626
H601	H	-0.080893	-0.512598	0.175382
H602	H	0.419107	-0.012598	0.675382
H603	H	-0.067739	-0.562558	0.381123
H604	H	0.432261	-0.062558	0.881123
C605	C	0.061053	-0.708080	0.220768
C606	C	0.561053	-0.208080	0.720768
C607	C	0.119105	-0.707903	0.181571
C608	C	0.619105	-0.207903	0.681571
C609	C	0.155273	-0.748801	0.150176
C610	C	0.655273	-0.248801	0.650176
C611	C	0.133388	-0.789876	0.157977
C612	C	0.633388	-0.289876	0.657977
C613	C	0.075333	-0.790055	0.197175
C614	C	0.575333	-0.290055	0.697175
C615	C	0.039165	-0.749157	0.228571
C616	C	0.539165	-0.249157	0.728571
H617	H	0.135308	-0.677495	0.175795
H618	H	0.635308	-0.177495	0.675795
H619	H	0.198249	-0.748669	0.121159
H620	H	0.698249	-0.248669	0.621159
H621	H	0.160161	-0.820152	0.134736
H622	H	0.660161	-0.320152	0.634736
H623	H	0.059129	-0.820463	0.202952
H624	H	0.559129	-0.320463	0.702952
H625	H	-0.003812	-0.749290	0.257588
H626	H	0.496188	-0.249290	0.757588
C627	C	0.060576	-0.708064	0.510072
C628	C	0.560576	-0.208064	1.010072
C629	C	0.118595	-0.707876	0.491188
C630	C	0.618595	-0.207876	0.991188
C631	C	0.154673	-0.748778	0.527406
C632	C	0.654673	-0.248778	1.027406
C633	C	0.132733	-0.789868	0.582509
C634	C	0.632733	-0.289868	1.082509
C635	C	0.074711	-0.790058	0.601396
C636	C	0.574711	-0.290058	1.101396
C637	C	0.038633	-0.749156	0.565178
C638	C	0.538633	-0.249156	1.065178
H639	H	0.134839	-0.677457	0.450395
H640	H	0.634839	-0.177457	0.950395
H641	H	0.197625	-0.748637	0.513425
H642	H	0.697625	-0.248637	1.013425
H643	H	0.159440	-0.820147	0.609321
H644	H	0.659440	-0.320147	1.109321
H645	H	0.058467	-0.820477	0.642189
H646	H	0.558467	-0.320477	1.142189
H647	H	-0.004319	-0.749297	0.579159
H648	H	0.495681	-0.249297	1.079159
C649	C	0.068856	-0.730075	0.383923
C650	C	0.568856	-0.230075	0.883923
C651	C	0.103518	-0.737969	0.413255
C652	C	0.603518	-0.237969	0.913255
C653	C	0.143931	-0.706593	0.383460
C654	C	0.643931	-0.206593	0.883460
C655	C	0.149682	-0.667323	0.324332
C656	C	0.649682	-0.167323	0.824332
C657	C	0.115020	-0.659428	0.294997
C658	C	0.615020	-0.159428	0.794997
C659	C	0.074607	-0.690804	0.324792
C660	C	0.574607	-0.190804	0.824792
H661	H	0.099261	-0.767040	0.457028
H662	H	0.599261	-0.267040	0.957028
H663	H	0.169590	-0.712438	0.405177
H664	H	0.669590	-0.212438	0.905177
H665	H	0.179598	-0.644097	0.302276
H666	H	0.679598	-0.144097	0.802276
H667	H	0.119277	-0.630357	0.251224
H668	H	0.619277	-0.130357	0.751224
H669	H	0.048948	-0.684959	0.303075
H670	H	0.548948	-0.184959	0.803075
C671	C	0.108765	-0.850112	0.423992
C672	C	0.608765	-0.350112	0.923992
C673	C	0.138204	-0.842292	0.448077
C674	C	0.638204	-0.342292	0.948077
C675	C	0.199519	-0.873794	0.439272
C676	C	0.699519	-0.373794	0.939272
C677	C	0.231396	-0.913116	0.406382
C678	C	0.731396	-0.413116	0.906382
C679	C	0.201957	-0.920938	0.382295
C680	C	0.701957	-0.420938	0.882295
C681	C	0.140641	-0.889435	0.391100
C682	C	0.640641	-0.389435	0.891100
H683	H	0.114606	-0.813182	0.472426
H684	H	0.614606	-0.313182	0.972426
H685	H	0.221312	-0.868004	0.457103
H686	H	0.721312	-0.368004	0.957103
H687	H	0.276786	-0.936436	0.399864
H688	H	0.776786	-0.436436	0.899864
H689	H	0.225554	-0.950048	0.357946
H690	H	0.725554	-0.450048	0.857946
H691	H	0.118849	-0.895226	0.373268
H692	H	0.618849	-0.395226	0.873268
H693	H	-0.109425	-0.738032	0.455342
H694	H	0.390575	-0.238032	0.955342
C695	C	-0.085452	-0.849867	0.497695
C696	C	0.414548	-0.349867	0.997695
C697	C	-0.132302	-0.841945	0.550733
C698	C	0.367698	-0.341945	1.050733
C699	C	-0.172725	-0.873311	0.580538
C700	C	0.327275	-0.373311	1.080538
C701	C	-0.166299	-0.912599	0.557306
C702	C	0.333701	-0.412599	1.057306
C703	C	-0.119447	-0.920523	0.504266
C704	C	0.380553	-0.420523	1.004266
C705	C	-0.079023	-0.889157	0.474461
C706	C	0.420977	-0.389157	0.974461
H707	H	-0.137061	-0.812860	0.567933
H708	H	0.362939	-0.312860	1.067933
H709	H	-0.207408	-0.867445	0.619802
H710	H	0.292592	-0.367445	1.119802
H711	H	-0.196223	-0.935817	0.579370
H712	H	0.303777	-0.435817	1.079370
H713	H	-0.114687	-0.949608	0.487066
H714	H	0.385313	-0.449608	0.987066
H715	H	-0.044340	-0.895023	0.435197
H716	H	0.455660	-0.395023	0.935197
H717	H	0.016700	-0.731943	0.465981
H718	H	0.516700	-0.231943	0.965981
H719	H	-0.220220	-0.654760	0.542443
H720	H	0.279780	-0.154760	1.042443
H721	H	-0.116227	-0.604815	0.338615
H722	H	0.383773	-0.104815	0.838615
C723	C	-0.228066	-0.560748	0.362359
C724	C	0.271934	-0.060748	0.862359
C725	C	-0.220152	-0.582634	0.321221
C726	C	0.279848	-0.082634	0.821221
C727	C	-0.251502	-0.546476	0.280278
C728	C	0.248498	-0.046476	0.780278
C729	C	-0.290765	-0.488431	0.280475
C730	C	0.209235	0.011569	0.780475
C731	C	-0.298681	-0.466541	0.321615
C732	C	0.201319	0.033459	0.821615
C733	C	-0.267331	-0.502699	0.362557
C734	C	0.232669	-0.002699	0.862557
H735	H	-0.191085	-0.625606	0.321074
H736	H	0.308915	-0.125606	0.821074
H737	H	-0.245642	-0.562681	0.249824
H738	H	0.254358	-0.062681	0.749824
H739	H	-0.313972	-0.461664	0.250167
H740	H	0.186028	0.038336	0.750167
H741	H	-0.327748	-0.423570	0.321762
H742	H	0.172252	0.076430	0.821762
H743	H	-0.273191	-0.486495	0.393012
H744	H	0.226809	0.013505	0.893012
