data_functionalizedCrystal
_audit_creation_method	'MofGen! by Chris Wilmer'
_symmetry_space_group_name_H-M	'P1'
_symmetry_Int_Tables_number	1
_symmetry_cell_setting	triclinic
loop_
_symmetry_equiv_pos_as_xyz
  x,y,z
_cell_length_a	17.038272
_cell_length_b	10.723024
_cell_length_c	9.198806
_cell_angle_alpha	90.001420
_cell_angle_beta	90.001021
_cell_angle_gamma	92.210287
loop_
_atom_site_label
_atom_site_type_symbol
_atom_site_fract_x
_atom_site_fract_y
_atom_site_fract_z
O1	O	1.038866	-0.271120	-0.120705
O2	O	0.811211	-0.266815	-0.120747
O3	O	0.930290	-0.087877	-0.120720
O4	O	0.919787	-0.450058	-0.120732
O5	O	0.930279	-0.087878	0.121065
O6	O	0.811200	-0.266816	0.121038
O7	O	1.038855	-0.271121	0.121081
Cu8	Cu	0.925027	-0.268968	0.143136
Cu9	Cu	0.925040	-0.268967	-0.142803
O10	O	0.919776	-0.450059	0.121053
C11	C	0.782056	-0.262900	0.000140
C12	C	0.695198	-0.251218	0.000123
C13	C	0.929520	-0.041307	0.000171
C14	C	0.927233	0.097459	0.000166
N15	N	0.925023	-0.268969	0.344250
C16	C	0.645677	-0.358473	0.000121
C17	C	0.564066	-0.347489	0.000141
C18	C	0.531977	-0.229248	0.000154
C19	C	0.581505	-0.121985	0.000161
C20	C	0.663115	-0.132970	0.000151
C21	C	0.286005	-0.190440	0.000194
C22	C	0.204389	-0.179463	0.000200
C23	C	0.186955	-0.404968	0.000183
C24	C	0.268567	-0.415943	0.000164
C25	C	0.318088	-0.308679	0.000179
C26	C	0.448558	-0.218018	0.000170
C27	C	0.401506	-0.319911	0.000173
C28	C	1.068010	-0.275036	0.000190
C29	C	1.154868	-0.286718	0.000197
C30	C	0.920546	-0.496629	0.000159
C31	C	0.922833	-0.635394	0.000155
C32	C	0.993863	0.166278	0.000176
C33	C	0.991501	0.309700	0.000170
C34	C	0.975020	-0.193487	0.416459
C35	C	0.975031	-0.193485	0.583871
N36	N	0.925043	-0.268967	0.656083
H37	H	0.671797	-0.454757	0.000109
H38	H	1.017814	-0.128860	0.354342
N39	N	0.853481	0.156755	0.000165
N40	N	0.836458	0.227924	0.102078
H41	H	0.784369	0.269803	0.102079
H42	H	1.017839	-0.128867	0.645967
N43	N	0.871332	-0.350056	0.422141
N44	N	0.824328	-0.421023	0.354339
H45	H	0.786405	-0.478295	0.409344
N46	N	0.513493	-0.457061	0.000146
N47	N	0.542153	-0.562625	0.000128
H48	H	0.506436	-0.640017	0.000134
N49	N	0.301329	-0.536733	0.000133
N50	N	0.257104	-0.632490	0.000121
H51	H	0.280241	-0.717801	0.000089
N52	N	0.871351	-0.350064	0.578206
N53	N	0.896768	-0.430042	0.493245
H54	H	0.858849	-0.487320	0.438235
N55	N	0.713714	-0.023424	0.000133
N56	N	0.786577	-0.033246	0.000123
H57	H	0.822314	0.044123	0.000114
H58	H	0.146627	-0.492295	0.000174
H59	H	0.865789	0.305457	0.000156
H60	H	0.178266	-0.083172	0.000209
H61	H	0.326315	-0.103097	0.000207
H62	H	0.427636	-0.416182	0.000170
H63	H	0.555372	-0.025711	0.000192
H64	H	0.422422	-0.121746	0.000222
H65	H	1.052656	0.119017	0.000196
H66	H	1.048542	0.368856	0.000186
