data_functionalizedCrystal
_audit_creation_method	'MofGen! by Chris Wilmer'
_symmetry_space_group_name_H-M	'P1'
_symmetry_Int_Tables_number	1
_symmetry_cell_setting	triclinic
loop_
_symmetry_equiv_pos_as_xyz
  x,y,z
_cell_length_a	17.077404
_cell_length_b	16.625545
_cell_length_c	17.077396
_cell_angle_alpha	89.972074
_cell_angle_beta	89.978556
_cell_angle_gamma	90.023805
loop_
_atom_site_label
_atom_site_type_symbol
_atom_site_fract_x
_atom_site_fract_y
_atom_site_fract_z
Zn1	Zn	1.200040	-0.321039	-0.443886
Zn2	Zn	1.450040	-0.071039	-0.193886
Zn3	Zn	1.700040	0.178961	0.056114
Zn4	Zn	1.950040	0.428961	0.306114
Zn5	Zn	1.199941	-0.455882	-0.312622
Zn6	Zn	1.449941	-0.205882	-0.062622
Zn7	Zn	1.699941	0.044118	0.187378
Zn8	Zn	1.949941	0.294118	0.437378
Zn9	Zn	1.068772	-0.321063	-0.312630
Zn10	Zn	1.318772	-0.071063	-0.062630
Zn11	Zn	1.568772	0.178937	0.187370
Zn12	Zn	1.818772	0.428937	0.437370
Zn13	Zn	1.068734	-0.455830	-0.443841
Zn14	Zn	1.318734	-0.205830	-0.193841
Zn15	Zn	1.568734	0.044170	0.056159
Zn16	Zn	1.818734	0.294170	0.306159
O17	O	1.134372	-0.388453	-0.378245
O18	O	1.384372	-0.138453	-0.128245
O19	O	1.634372	0.111547	0.121755
O20	O	1.884372	0.361547	0.371755
O21	O	1.309874	-0.338939	-0.426490
O22	O	1.559874	-0.088939	-0.176490
O23	O	1.809874	0.161061	0.073510
O24	O	2.059874	0.411061	0.323510
O25	O	1.182516	-0.438030	-0.202776
O26	O	1.432516	-0.188030	0.047224
O27	O	1.682516	0.061970	0.297224
O28	O	1.932516	0.311970	0.547224
O29	O	1.086242	-0.208227	-0.330064
O30	O	1.336242	0.041773	-0.080064
O31	O	1.586242	0.291773	0.169936
O32	O	1.836242	0.541773	0.419936
O33	O	1.309801	-0.438007	-0.330050
O34	O	1.559801	-0.188007	-0.080050
O35	O	1.809801	0.061993	0.169950
O36	O	2.059801	0.311993	0.419950
O37	O	1.182684	-0.208210	-0.426497
O38	O	1.432684	0.041790	-0.176497
O39	O	1.682684	0.291790	0.073503
O40	O	1.932684	0.541790	0.323503
O41	O	1.086146	-0.338979	-0.202782
O42	O	1.336146	-0.088979	0.047218
O43	O	1.586146	0.161021	0.297218
O44	O	1.836146	0.411021	0.547218
O45	O	0.958920	-0.338928	-0.330020
O46	O	1.208920	-0.088928	-0.080020
O47	O	1.458920	0.161072	0.169980
O48	O	1.708920	0.411072	0.419980
O49	O	1.086177	-0.437917	-0.553694
O50	O	1.336177	-0.187917	-0.303694
O51	O	1.586177	0.062083	-0.053694
O52	O	1.836177	0.312083	0.196306
O53	O	0.958892	-0.437940	-0.426420
O54	O	1.208892	-0.187940	-0.176420
O55	O	1.458892	0.062060	0.073580
O56	O	1.708892	0.312060	0.323580
O57	O	1.182647	-0.338888	-0.553727
O58	O	1.432647	-0.088888	-0.303727
O59	O	1.682647	0.161112	-0.053727
O60	O	1.932647	0.411112	0.196273
O61	O	1.182479	-0.568707	-0.330006
O62	O	1.432479	-0.318707	-0.080006
O63	O	1.682479	-0.068707	0.169994
O64	O	1.932479	0.181293	0.419994
O65	O	1.086081	-0.568669	-0.426412
O66	O	1.336081	-0.318669	-0.176412
O67	O	1.586081	-0.068669	0.073588
O68	O	1.836081	0.181331	0.323588
C69	C	0.930424	-0.388432	-0.378216
C70	C	1.180424	-0.138432	-0.128216
C71	C	1.430424	0.111568	0.121784
C72	C	1.680424	0.361568	0.371784
C73	C	0.843174	-0.388442	-0.378223
C74	C	1.093174	-0.138442	-0.128223
C75	C	1.343174	0.111558	0.121777
C76	C	1.593174	0.361558	0.371777
C77	C	0.467395	-0.336983	-0.428570
C78	C	0.717395	-0.086983	-0.178570
C79	C	0.967395	0.163017	0.071430
C80	C	1.217395	0.413017	0.321430
C81	C	0.549375	-0.336978	-0.428561
C82	C	0.799375	-0.086978	-0.178561
C83	C	1.049375	0.163022	0.071439
C84	C	1.299375	0.413022	0.321439
C85	C	0.590325	-0.388470	-0.378264
C86	C	0.840325	-0.138470	-0.128264
C87	C	1.090325	0.111530	0.121736
C88	C	1.340325	0.361530	0.371736
C89	C	0.549290	-0.439978	-0.327979
C90	C	0.799290	-0.189978	-0.077979
C91	C	1.049290	0.060022	0.172021
C92	C	1.299290	0.310022	0.422021
C93	C	0.467312	-0.439988	-0.327992
C94	C	0.717312	-0.189988	-0.077992
C95	C	0.967312	0.060012	0.172008
C96	C	1.217312	0.310012	0.422008
C97	C	0.720161	-0.439954	-0.327954
C98	C	0.970161	-0.189954	-0.077954
C99	C	1.220161	0.060046	0.172046
C100	C	1.470161	0.310046	0.422046
C101	C	0.802145	-0.439944	-0.327939
C102	C	1.052145	-0.189944	-0.077939
C103	C	1.302145	0.060056	0.172061
C104	C	1.552145	0.310056	0.422061
C105	C	0.802224	-0.336944	-0.428523
C106	C	1.052224	-0.086944	-0.178523
C107	C	1.302224	0.163056	0.071477
C108	C	1.552224	0.413056	0.321477
C109	C	0.720245	-0.336953	-0.428536
C110	C	0.970245	-0.086953	-0.178536
C111	C	1.220245	0.163047	0.071464
C112	C	1.470245	0.413047	0.321464
C113	C	0.679216	-0.388460	-0.378249
C114	C	0.929216	-0.138460	-0.128249
C115	C	1.179216	0.111540	0.121751
C116	C	1.429216	0.361540	0.371751
C117	C	1.134286	-0.597944	-0.378220
C118	C	1.384286	-0.347944	-0.128220
C119	C	1.634286	-0.097944	0.121780
C120	C	1.884286	0.152056	0.371780
C121	C	1.134322	-0.687565	-0.378236
C122	C	1.384322	-0.437565	-0.128236
C123	C	1.634322	-0.187565	0.121764
C124	C	1.884322	0.062435	0.371764
C125	C	1.134352	-0.760348	-0.378251
C126	C	1.384352	-0.510348	-0.128251
C127	C	1.634352	-0.260348	0.121749
C128	C	1.884352	-0.010348	0.371749
C129	C	1.134398	-0.851656	-0.378269
C130	C	1.384398	-0.601656	-0.128269
C131	C	1.634398	-0.351656	0.121731
C132	C	1.884398	-0.101656	0.371731
C133	C	1.134439	-0.924433	-0.378279
C134	C	1.384439	-0.674433	-0.128279
C135	C	1.634439	-0.424433	0.121721
C136	C	1.884439	-0.174433	0.371721
C137	C	1.134484	-1.015747	-0.378295
C138	C	1.384484	-0.765747	-0.128295
C139	C	1.634484	-0.515747	0.121705
C140	C	1.884484	-0.265747	0.371705
C141	C	1.339116	-0.388476	-0.378274
C142	C	1.589116	-0.138476	-0.128274
C143	C	1.839116	0.111524	0.121726
C144	C	2.089116	0.361524	0.371726
C145	C	1.426366	-0.388486	-0.378286
C146	C	1.676366	-0.138486	-0.128286
C147	C	1.926366	0.111514	0.121714
C148	C	2.176366	0.361514	0.371714
C149	C	1.134419	-0.388394	-0.582989
C150	C	1.384419	-0.138394	-0.332989
C151	C	1.634419	0.111606	-0.082989
C152	C	1.884419	0.361606	0.167011
C153	C	1.134439	-0.388369	-0.670239
C154	C	1.384439	-0.138369	-0.420239
C155	C	1.634439	0.111631	-0.170239
C156	C	1.884439	0.361631	0.079761
C157	C	1.134479	-0.178145	-0.378287
C158	C	1.384479	0.071855	-0.128287
C159	C	1.634479	0.321855	0.121713
C160	C	1.884479	0.571855	0.371713
C161	C	1.134524	-0.088523	-0.378305
C162	C	1.384524	0.161477	-0.128305
C163	C	1.634524	0.411477	0.121695
C164	C	1.884524	0.661477	0.371695
C165	C	1.184673	-0.336800	-0.711248
C166	C	1.434673	-0.086800	-0.461248
C167	C	1.684673	0.163200	-0.211248
C168	C	1.934673	0.413200	0.038752
C169	C	1.184683	-0.336773	-0.793228
C170	C	1.434683	-0.086773	-0.543228
C171	C	1.684683	0.163227	-0.293228
C172	C	1.934683	0.413227	-0.043228
C173	C	1.134462	-0.388320	-0.834198
C174	C	1.384462	-0.138320	-0.584198
C175	C	1.634462	0.111680	-0.334198
C176	C	1.884462	0.361680	-0.084198
C177	C	1.084222	-0.439891	-0.793184
C178	C	1.334222	-0.189891	-0.543184
C179	C	1.584222	0.060109	-0.293184
C180	C	1.834222	0.310109	-0.043184
C181	C	1.084209	-0.439913	-0.711205
C182	C	1.334209	-0.189913	-0.461205
C183	C	1.584209	0.060087	-0.211205
C184	C	1.834209	0.310087	0.038795
C185	C	1.084254	-0.439843	-0.964054
C186	C	1.334254	-0.189843	-0.714054
C187	C	1.584254	0.060157	-0.464054
C188	C	1.834254	0.310157	-0.214054
C189	C	1.084268	-0.439822	-1.046039
C190	C	1.334268	-0.189822	-0.796039
C191	C	1.584268	0.060178	-0.546039
C192	C	1.834268	0.310178	-0.296039
C193	C	1.184727	-0.336702	-1.046077
C194	C	1.434727	-0.086702	-0.796077
C195	C	1.684727	0.163298	-0.546077
C196	C	1.934727	0.413298	-0.296077
C197	C	1.184714	-0.336724	-0.964098
C198	C	1.434714	-0.086724	-0.714098
C199	C	1.684714	0.163276	-0.464098
C200	C	1.934714	0.413276	-0.214098
C201	C	1.134476	-0.388297	-0.923089
C202	C	1.384476	-0.138297	-0.673089
C203	C	1.634476	0.111703	-0.423089
C204	C	1.884476	0.361703	-0.173089
C205	C	1.134370	-0.388454	-0.174297
C206	C	1.384370	-0.138454	0.075703
C207	C	1.634370	0.111546	0.325703
C208	C	1.884370	0.361546	0.575703
C209	C	1.134501	-0.388253	-0.087047
C210	C	1.384501	-0.138253	0.162953
C211	C	1.634501	0.111747	0.412953
C212	C	1.884501	0.361747	0.662953
H213	H	0.582639	-0.481908	-0.287030
H214	H	0.832639	-0.231908	-0.037030
H215	H	1.082639	0.018092	0.212970
H216	H	1.332639	0.268092	0.462970
H217	H	0.686906	-0.295020	-0.469488
H218	H	0.936906	-0.045020	-0.219488
H219	H	1.186906	0.204980	0.030512
H220	H	1.436906	0.454980	0.280512
H221	H	0.433907	-0.481927	-0.287048
H222	H	0.683907	-0.231927	-0.037048
H223	H	0.933907	0.018073	0.212952
H224	H	1.183907	0.268073	0.462952
H225	H	0.686757	-0.481900	-0.287008
H226	H	0.936757	-0.231900	-0.037008
H227	H	1.186757	0.018100	0.212992
H228	H	1.436757	0.268100	0.462992
H229	H	1.043329	-0.481859	-0.826548
H230	H	1.293329	-0.231859	-0.576548
H231	H	1.543329	0.018141	-0.326548
H232	H	1.793329	0.268141	-0.076548
H233	H	1.043296	-0.481898	-0.677816
H234	H	1.293296	-0.231898	-0.427816
H235	H	1.543296	0.018102	-0.177816
H236	H	1.793296	0.268102	0.072184
H237	H	1.225572	-0.294827	-0.677896
H238	H	1.475572	-0.044827	-0.427896
H239	H	1.725572	0.205173	-0.177896
H240	H	1.975572	0.455173	0.072104
H241	H	0.582777	-0.295042	-0.469509
H242	H	0.832777	-0.045042	-0.219509
H243	H	1.082777	0.204958	0.030491
H244	H	1.332777	0.454958	0.280491
H245	H	1.225590	-0.294782	-0.826614
H246	H	1.475590	-0.044782	-0.576614
H247	H	1.725590	0.205218	-0.326614
H248	H	1.975590	0.455218	-0.076614
H249	H	0.835634	-0.295004	-0.469467
H250	H	1.085634	-0.045004	-0.219467
H251	H	1.335634	0.204996	0.030533
H252	H	1.585634	0.454996	0.280533
H253	H	0.835485	-0.481876	-0.286986
H254	H	1.085485	-0.231876	-0.036986
H255	H	1.335485	0.018124	0.213014
H256	H	1.585485	0.268124	0.463014
H257	H	0.434059	-0.295047	-0.469522
H258	H	0.684059	-0.045047	-0.219522
H259	H	0.934059	0.204953	0.030478
H260	H	1.184059	0.454953	0.280478
H261	H	1.225613	-0.294755	-0.930743
H262	H	1.475613	-0.044755	-0.680743
H263	H	1.725613	0.205245	-0.430743
H264	H	1.975613	0.455245	-0.180743
H265	H	1.225632	-0.294708	-1.079471
H266	H	1.475632	-0.044708	-0.829471
H267	H	1.725632	0.205292	-0.579471
H268	H	1.975632	0.455292	-0.329471
H269	H	1.043371	-0.481794	-1.079394
H270	H	1.293371	-0.231794	-0.829394
H271	H	1.543371	0.018206	-0.579394
H272	H	1.793371	0.268206	-0.329394
H273	H	1.043332	-0.481826	-0.930667
H274	H	1.293332	-0.231826	-0.680667
H275	H	1.543332	0.018174	-0.430667
H276	H	1.793332	0.268174	-0.180667
