data_functionalizedCrystal
_audit_creation_method	'MofGen! by Chris Wilmer'
_symmetry_space_group_name_H-M	'P1'
_symmetry_Int_Tables_number	1
_symmetry_cell_setting	triclinic
loop_
_symmetry_equiv_pos_as_xyz
  x,y,z
_cell_length_a	18.050590
_cell_length_b	18.215405
_cell_length_c	18.215399
_cell_angle_alpha	89.969449
_cell_angle_beta	89.995989
_cell_angle_gamma	90.014052
loop_
_atom_site_label
_atom_site_type_symbol
_atom_site_fract_x
_atom_site_fract_y
_atom_site_fract_z
Zn1	Zn	1.135345	-0.293205	-0.415792
Zn2	Zn	1.468678	0.040129	-0.082458
Zn3	Zn	1.802011	0.373462	0.250875
Zn4	Zn	1.135252	-0.416276	-0.292720
Zn5	Zn	1.468586	-0.082943	0.040613
Zn6	Zn	1.801919	0.250391	0.373947
Zn7	Zn	1.011154	-0.293205	-0.292773
Zn8	Zn	1.344487	0.040129	0.040560
Zn9	Zn	1.677820	0.373462	0.373894
Zn10	Zn	1.011119	-0.416211	-0.415779
Zn11	Zn	1.344452	-0.082877	-0.082445
Zn12	Zn	1.677786	0.250456	0.250888
O13	O	1.073217	-0.354724	-0.354266
O14	O	1.406551	-0.021391	-0.020933
O15	O	1.739884	0.311943	0.312401
O16	O	1.239257	-0.309558	-0.399449
O17	O	1.572590	0.023776	-0.066116
O18	O	1.905924	0.357109	0.267217
O19	O	1.118766	-0.399977	-0.189743
O20	O	1.452099	-0.066644	0.143591
O21	O	1.785433	0.266689	0.476924
O22	O	1.027681	-0.190220	-0.309120
O23	O	1.361014	0.143113	0.024214
O24	O	1.694347	0.476446	0.357547
O25	O	1.239189	-0.399978	-0.309029
O26	O	1.572522	-0.066644	0.024305
O27	O	1.905856	0.266689	0.357638
O28	O	1.118924	-0.190220	-0.399501
O29	O	1.452257	0.143113	-0.066167
O30	O	1.785590	0.476446	0.267166
O31	O	1.027591	-0.309557	-0.189782
O32	O	1.360925	0.023776	0.143552
O33	O	1.694258	0.357109	0.476885
O34	O	0.907224	-0.309494	-0.309107
O35	O	1.240558	0.023839	0.024226
O36	O	1.573891	0.357172	0.357560
O37	O	1.027622	-0.399867	-0.518765
O38	O	1.360955	-0.066533	-0.185431
O39	O	1.694289	0.266800	0.147902
O40	O	0.907199	-0.399866	-0.399479
O41	O	1.240532	-0.066533	-0.066145
O42	O	1.573866	0.266800	0.267188
O43	O	1.118890	-0.309495	-0.518774
O44	O	1.452223	0.023839	-0.185441
O45	O	1.785557	0.357172	0.147892
O46	O	1.118733	-0.519252	-0.309016
O47	O	1.452066	-0.185918	0.024317
O48	O	1.785399	0.147415	0.357650
O49	O	1.027533	-0.519204	-0.399427
O50	O	1.360866	-0.185870	-0.066094
O51	O	1.694199	0.147463	0.267240
C52	C	1.073139	-0.545930	-0.354231
C53	C	1.406472	-0.212597	-0.020897
C54	C	1.739806	0.120736	0.312436
C55	C	1.073173	-0.627729	-0.354240
C56	C	1.406507	-0.294396	-0.020907
C57	C	1.739840	0.038937	0.312427
C58	C	0.880265	-0.354674	-0.354298
C59	C	1.213599	-0.021340	-0.020964
C60	C	1.546932	0.311993	0.312369
C61	C	0.797719	-0.354670	-0.354329
C62	C	1.131053	-0.021337	-0.020995
C63	C	1.464386	0.311997	0.312338
C64	C	1.120773	-0.815924	-0.307250
C65	C	1.454106	-0.482590	0.026084
C66	C	1.787439	-0.149257	0.359417
C67	C	1.120806	-0.892782	-0.307267
C68	C	1.454139	-0.559449	0.026066
C69	C	1.787473	-0.226116	0.359399
C70	C	1.025757	-0.892772	-0.401335
C71	C	1.359090	-0.559439	-0.068002
C72	C	1.692424	-0.226106	0.265332
C73	C	1.025728	-0.815915	-0.401320
C74	C	1.359061	-0.482582	-0.067987
C75	C	1.692395	-0.149248	0.265346
C76	C	1.073235	-0.777493	-0.354274
C77	C	1.406568	-0.444159	-0.020940
C78	C	1.739902	-0.110826	0.312393
C79	C	1.073297	-0.931209	-0.354306
C80	C	1.406630	-0.597875	-0.020973
C81	C	1.739964	-0.264542	0.312361
C82	C	1.073333	-1.014542	-0.354326
C83	C	1.406666	-0.681209	-0.020992
C84	C	1.739999	-0.347876	0.312341
C85	C	1.073200	-0.694154	-0.354255
C86	C	1.406534	-0.360820	-0.020921
C87	C	1.739867	-0.027487	0.312412
C88	C	0.598277	-0.403955	-0.403356
C89	C	0.931610	-0.070622	-0.070023
C90	C	1.264943	0.262712	0.263311
C91	C	0.548881	-0.336851	-0.421469
C92	C	0.882214	-0.003518	-0.088136
C93	C	1.215548	0.329816	0.245198
C94	C	0.646589	-0.354711	-0.354293
C95	C	0.979922	-0.021378	-0.020959
C96	C	1.313256	0.311956	0.312374
C97	C	0.548903	-0.421853	-0.336179
C98	C	0.882236	-0.088520	-0.002846
C99	C	1.215570	0.244813	0.330488
C100	C	0.500604	-0.354757	-0.354259
C101	C	0.833937	-0.021423	-0.020926
C102	C	1.167271	0.311910	0.312407
C103	C	0.598281	-0.287571	-0.372441
C104	C	0.931614	0.045762	-0.039107
C105	C	1.264947	0.379095	0.294226
C106	C	0.598307	-0.372619	-0.287120
C107	C	0.931640	-0.039286	0.046214
C108	C	1.264974	0.294048	0.379547
C109	C	0.548934	-0.305469	-0.305207
C110	C	0.882267	0.027865	0.028126
C111	C	1.215600	0.361198	0.361460
C112	C	0.730687	-0.354686	-0.354314
C113	C	1.064021	-0.021352	-0.020980
C114	C	1.397354	0.311981	0.312353
C115	C	0.416507	-0.354774	-0.354238
C116	C	0.749841	-0.021441	-0.020905
C117	C	1.083174	0.311892	0.312429
C118	C	1.266923	-0.354775	-0.354235
C119	C	1.600256	-0.021442	-0.020901
C120	C	1.933590	0.311892	0.312432
C121	C	1.349469	-0.354797	-0.354221
C122	C	1.682802	-0.021463	-0.020888
C123	C	2.016135	0.311870	0.312446
C124	C	1.073263	-0.354673	-0.546219
C125	C	1.406596	-0.021340	-0.212886
C126	C	1.739929	0.311993	0.120448
C127	C	1.073282	-0.354652	-0.628018
C128	C	1.406615	-0.021318	-0.294684
C129	C	1.739949	0.312015	0.038649
C130	C	1.073316	-0.162771	-0.354318
C131	C	1.406650	0.170562	-0.020984
C132	C	1.739983	0.503896	0.312349
C133	C	1.073358	-0.080972	-0.354340
C134	C	1.406692	0.252361	-0.021006
C135	C	1.740025	0.585695	0.312327
C136	C	1.120822	-0.307551	-0.816218
C137	C	1.454156	0.025782	-0.482885
C138	C	1.787489	0.359116	-0.149551
C139	C	1.120831	-0.307529	-0.893077
C140	C	1.454164	0.025804	-0.559743
C141	C	1.787498	0.359137	-0.226410
C142	C	1.025794	-0.401639	-0.893056
C143	C	1.359127	-0.068305	-0.559722
C144	C	1.692461	0.265028	-0.226389
C145	C	1.025782	-0.401656	-0.816198
C146	C	1.359115	-0.068322	-0.482865
C147	C	1.692449	0.265011	-0.149532
C148	C	1.073300	-0.354613	-0.777781
C149	C	1.406634	-0.021280	-0.444448
C150	C	1.739967	0.312054	-0.111115
C151	C	1.073321	-0.354574	-0.931498
C152	C	1.406655	-0.021241	-0.598164
C153	C	1.739988	0.312092	-0.264831
C154	C	1.073330	-0.354551	-1.014831
C155	C	1.406664	-0.021218	-0.681498
C156	C	1.739997	0.312115	-0.348165
C157	C	1.073290	-0.354635	-0.694442
C158	C	1.406624	-0.021301	-0.361109
C159	C	1.739957	0.312032	-0.027776
C160	C	1.073215	-0.354721	-0.163060
C161	C	1.406548	-0.021388	0.170274
C162	C	1.739882	0.311945	0.503607
C163	C	1.073340	-0.354536	-0.081261
C164	C	1.406673	-0.021202	0.252072
C165	C	1.740006	0.312131	0.585406
H166	H	1.159457	-0.784642	-0.268942
H167	H	1.492790	-0.451309	0.064391
H168	H	1.826123	-0.117975	0.397724
H169	H	1.159513	-0.269244	-0.784941
H170	H	1.492846	0.064090	-0.451608
H171	H	1.826179	0.397423	-0.118275
H172	H	0.987108	-0.439941	-0.924344
H173	H	1.320441	-0.106607	-0.591011
H174	H	1.653775	0.226726	-0.257677
F175	F	0.975196	-0.451745	-0.775289
F176	F	1.308530	-0.118412	-0.441955
F177	F	1.641863	0.214922	-0.108622
F178	F	1.171404	-0.933680	-0.257220
F179	F	1.504737	-0.600347	0.076113
F180	F	1.838071	-0.267013	0.409447
H181	H	0.987078	-0.924065	-0.439638
H182	H	1.320411	-0.590732	-0.106304
H183	H	1.653744	-0.257399	0.227029
H184	H	0.987017	-0.784622	-0.439616
H185	H	1.320350	-0.451289	-0.106283
H186	H	1.653684	-0.117956	0.227050
H187	H	0.619944	-0.445526	-0.444894
H188	H	0.953278	-0.112193	-0.111560
H189	H	1.286611	0.221141	0.221773
H190	H	0.620034	-0.387771	-0.230343
H191	H	0.953367	-0.054438	0.102990
H192	H	1.286700	0.278896	0.436323
H193	H	1.159527	-0.269206	-0.924368
H194	H	1.492860	0.064128	-0.591035
H195	H	1.826194	0.397461	-0.257702
F196	F	0.520552	-0.496045	-0.316171
F197	F	0.853885	-0.162712	0.017162
F198	F	1.187218	0.170622	0.350495
F199	F	0.626509	-0.213357	-0.392532
F200	F	0.959842	0.119977	-0.059199
F201	F	1.293176	0.453310	0.274134
F202	F	0.520503	-0.317071	-0.495700
F203	F	0.853837	0.016262	-0.162367
F204	F	1.187170	0.349596	0.170967
H205	H	0.527405	-0.263796	-0.263702
H206	H	0.860738	0.069537	0.069632
H207	H	1.194071	0.402871	0.402965
