data_functionalizedCrystal
_audit_creation_method	'MofGen! by Chris Wilmer'
_symmetry_space_group_name_H-M	'P1'
_symmetry_Int_Tables_number	1
_symmetry_cell_setting	triclinic
loop_
_symmetry_equiv_pos_as_xyz
  x,y,z
_cell_length_a	11.169417
_cell_length_b	18.101390
_cell_length_c	11.169416
_cell_angle_alpha	90.026535
_cell_angle_beta	89.988781
_cell_angle_gamma	89.983992
loop_
_atom_site_label
_atom_site_type_symbol
_atom_site_fract_x
_atom_site_fract_y
_atom_site_fract_z
Zn1	Zn	1.834917	-0.418700	0.477733
Zn2	Zn	1.834820	-0.294873	0.678459
Zn3	Zn	1.634216	-0.294880	0.477791
Zn4	Zn	1.634210	-0.418680	0.678376
O5	O	1.734541	-0.356783	0.578090
O6	O	2.002854	-0.402280	0.504370
O7	O	1.808171	-0.191241	0.651898
O8	O	1.660883	-0.311317	0.309834
O9	O	2.002782	-0.311304	0.651842
O10	O	1.808337	-0.402287	0.309791
O11	O	1.660789	-0.191246	0.504469
O12	O	1.466266	-0.311297	0.504389
O13	O	1.660873	-0.522316	0.651702
O14	O	1.466262	-0.402252	0.651758
O15	O	1.808331	-0.522331	0.504290
O16	O	1.808165	-0.311284	0.846397
O17	O	1.660779	-0.402245	0.846337
C18	C	1.422716	-0.356774	0.578072
C19	C	1.289316	-0.356787	0.578093
C20	C	1.734612	-0.549945	0.577980
C21	C	1.734643	-0.632259	0.577933
C22	C	1.734707	-0.931350	0.577859
C23	C	1.827790	-0.900035	0.485438
C24	C	1.827499	-0.814416	0.485095
C25	C	1.734676	-0.782968	0.577896
C26	C	1.608228	-0.814044	0.543535
C27	C	1.608785	-0.899689	0.542842
C28	C	1.766959	-0.899770	0.704878
C29	C	1.769734	-0.814120	0.704230
C30	C	1.734651	-0.699108	0.577919
C31	C	1.734724	-1.015210	0.577833
C32	C	2.047583	-0.356793	0.578109
C33	C	2.180983	-0.356797	0.578117
C34	C	1.734493	-0.356778	0.889914
C35	C	1.734583	-0.356800	1.023314
C36	C	1.734539	-0.164373	0.578112
C37	C	1.734741	-0.082059	0.577821
C38	C	1.734621	-0.356805	0.265047
C39	C	1.734656	-0.356814	0.131647
H40	H	1.921262	-0.793406	0.506612
H41	H	1.806147	-0.793938	0.390996
H42	H	1.921859	-0.920635	0.506689
H43	H	1.580396	-0.792600	0.451717
H44	H	1.537070	-0.920404	0.607229
H45	H	1.581449	-0.919675	0.449992
H46	H	1.857551	-0.921413	0.736166
H47	H	1.862789	-0.793808	0.730140
H48	H	1.706871	-0.792710	0.776790
H49	H	1.806708	-0.921567	0.391864
H50	H	1.536990	-0.793672	0.608778
H51	H	1.699169	-0.920028	0.773741
