data_functionalizedCrystal
_audit_creation_method	'MofGen! by Chris Wilmer'
_symmetry_space_group_name_H-M	'P1'
_symmetry_Int_Tables_number	1
_symmetry_cell_setting	triclinic
loop_
_symmetry_equiv_pos_as_xyz
  x,y,z
_cell_length_a	11.169416
_cell_length_b	11.169417
_cell_length_c	11.169409
_cell_angle_alpha	90.019824
_cell_angle_beta	90.030874
_cell_angle_gamma	90.011219
loop_
_atom_site_label
_atom_site_type_symbol
_atom_site_fract_x
_atom_site_fract_y
_atom_site_fract_z
Zn1	Zn	-0.477682	1.834962	0.678555
Zn2	Zn	-0.227682	2.084962	0.928555
Zn3	Zn	0.022318	2.334962	1.178555
Zn4	Zn	0.272318	2.584962	1.428555
Zn5	Zn	-0.678422	1.834852	0.477877
Zn6	Zn	-0.428422	2.084852	0.727877
Zn7	Zn	-0.178422	2.334852	0.977877
Zn8	Zn	0.071578	2.584852	1.227877
Zn9	Zn	-0.477755	1.634248	0.477889
Zn10	Zn	-0.227755	1.884248	0.727889
Zn11	Zn	0.022245	2.134248	0.977889
Zn12	Zn	0.272245	2.384248	1.227889
Zn13	Zn	-0.678325	1.634256	0.678522
Zn14	Zn	-0.428325	1.884256	0.928522
Zn15	Zn	-0.178325	2.134256	1.178522
Zn16	Zn	0.071675	2.384256	1.428522
O17	O	-0.578046	1.734579	0.578211
O18	O	-0.328046	1.984579	0.828211
O19	O	-0.078046	2.234579	1.078211
O20	O	0.171954	2.484579	1.328211
O21	O	-0.504321	2.002897	0.651943
O22	O	-0.254321	2.252897	0.901943
O23	O	-0.004321	2.502897	1.151943
O24	O	0.245679	2.752897	1.401943
O25	O	-0.651875	1.808192	0.309929
O26	O	-0.401875	2.058192	0.559929
O27	O	-0.151875	2.308192	0.809929
O28	O	0.098125	2.558192	1.059929
O29	O	-0.309796	1.660917	0.504527
O30	O	-0.059796	1.910917	0.754527
O31	O	0.190204	2.160917	1.004527
O32	O	0.440204	2.410917	1.254527
O33	O	-0.651804	2.002816	0.504506
O34	O	-0.401804	2.252816	0.754506
O35	O	-0.151804	2.502816	1.004506
O36	O	0.098196	2.752816	1.254506
O37	O	-0.309742	1.808380	0.651955
O38	O	-0.059742	2.058380	0.901955
O39	O	0.190258	2.308380	1.151955
O40	O	0.440258	2.558380	1.401955
O41	O	-0.504445	1.660809	0.309938
O42	O	-0.254445	1.910809	0.559938
O43	O	-0.004445	2.160809	0.809938
O44	O	0.245555	2.410809	1.059938
O45	O	-0.504351	1.466300	0.504495
O46	O	-0.254351	1.716300	0.754495
O47	O	-0.004351	1.966300	1.004495
O48	O	0.245649	2.216300	1.254495
O49	O	-0.651637	1.660929	0.846476
O50	O	-0.401637	1.910929	1.096476
O51	O	-0.151637	2.160929	1.346476
O52	O	0.098363	2.410929	1.596476
O53	O	-0.651708	1.466305	0.651899
O54	O	-0.401708	1.716305	0.901899
O55	O	-0.151708	1.966305	1.151899
O56	O	0.098292	2.216305	1.401899
O57	O	-0.504226	1.808388	0.846500
O58	O	-0.254226	2.058388	1.096500
O59	O	-0.004226	2.308388	1.346500
O60	O	0.245774	2.558388	1.596500
O61	O	-0.846359	1.808199	0.504474
O62	O	-0.596359	2.058199	0.754474
O63	O	-0.346359	2.308199	1.004474
O64	O	-0.096359	2.558199	1.254474
O65	O	-0.846287	1.660822	0.651887
O66	O	-0.596287	1.910822	0.901887
O67	O	-0.346287	2.160822	1.151887
O68	O	-0.096287	2.410822	1.401887
C69	C	-0.578028	1.422755	0.578195
C70	C	-0.328028	1.672755	0.828195
C71	C	-0.078028	1.922755	1.078195
C72	C	0.171972	2.172755	1.328195
C73	C	-0.578049	1.289355	0.578217
C74	C	-0.328049	1.539355	0.828217
C75	C	-0.078049	1.789355	1.078217
C76	C	0.171951	2.039355	1.328217
C77	C	-0.889871	1.734532	0.578202
C78	C	-0.639871	1.984532	0.828202
C79	C	-0.389871	2.234532	1.078202
C80	C	-0.139871	2.484532	1.328202
C81	C	-1.023271	1.734621	0.578238
C82	C	-0.773271	1.984621	0.828238
C83	C	-0.523271	2.234621	1.078238
C84	C	-0.273271	2.484621	1.328238
C85	C	-0.265004	1.734660	0.578246
C86	C	-0.015004	1.984660	0.828246
C87	C	0.234996	2.234660	1.078246
C88	C	0.484996	2.484660	1.328246
C89	C	-0.131604	1.734694	0.578261
C90	C	0.118396	1.984694	0.828261
C91	C	0.368396	2.234694	1.078261
C92	C	0.618396	2.484694	1.328261
C93	C	-0.577913	1.734672	0.891253
C94	C	-0.327913	1.984672	1.141253
C95	C	-0.077913	2.234672	1.391253
C96	C	0.172087	2.484672	1.641253
C97	C	-0.577856	1.734711	1.024653
C98	C	-0.327856	1.984711	1.274653
C99	C	-0.077856	2.234711	1.524653
C100	C	0.172144	2.484711	1.774653
C101	C	-0.578065	2.047622	0.578227
C102	C	-0.328065	2.297622	0.828227
C103	C	-0.078065	2.547622	1.078227
C104	C	0.171935	2.797622	1.328227
C105	C	-0.578073	2.181022	0.578234
C106	C	-0.328073	2.431022	0.828234
C107	C	-0.078073	2.681022	1.078234
C108	C	0.171927	2.931022	1.328234
C109	C	-0.578092	1.734557	0.266386
C110	C	-0.328092	1.984557	0.516386
C111	C	-0.078092	2.234557	0.766386
C112	C	0.171908	2.484557	1.016386
C113	C	-0.577811	1.734750	0.132987
C114	C	-0.327811	1.984750	0.382987
C115	C	-0.077811	2.234750	0.632987
C116	C	0.172189	2.484750	0.882987
