data_functionalizedCrystal
_audit_creation_method	'MofGen! by Chris Wilmer'
_symmetry_space_group_name_H-M	'P1'
_symmetry_Int_Tables_number	1
_symmetry_cell_setting	triclinic
loop_
_symmetry_equiv_pos_as_xyz
  x,y,z
_cell_length_a	10.723023
_cell_length_b	23.532357
_cell_length_c	22.610064
_cell_angle_alpha	89.990404
_cell_angle_beta	89.984399
_cell_angle_gamma	83.647920
loop_
_atom_site_label
_atom_site_type_symbol
_atom_site_fract_x
_atom_site_fract_y
_atom_site_fract_z
O1	O	1.654690	0.079870	-0.049191
O2	O	1.291297	0.087516	-0.049193
O3	O	1.483984	0.000831	-0.049180
O4	O	1.462003	0.166555	-0.049204
O5	O	1.483926	0.000831	0.049189
O6	O	1.291239	0.087516	0.049176
O7	O	1.654632	0.079870	0.049178
Zn8	Zn	1.472926	0.083693	0.064795
Zn9	Zn	1.473003	0.083693	-0.064810
O10	O	1.461945	0.166556	0.049165
C11	C	1.244785	0.086960	-0.000009
C12	C	1.106284	0.085295	-0.000009
C13	C	0.901363	0.082833	0.050947
C14	C	1.044512	0.084554	0.050949
C15	C	1.483405	-0.020389	0.000007
C16	C	1.481752	-0.083619	0.000012
C17	C	1.471406	-0.475698	-0.053641
C18	C	1.469835	-0.535107	-0.053644
O19	O	1.469007	-0.565829	-0.099247
N20	N	1.469024	-0.564823	-0.000024
C21	C	1.469772	-0.535126	0.053603
O22	O	1.468937	-0.565857	0.099211
C23	C	1.471334	-0.475717	0.053606
C24	C	1.472158	-0.446004	-0.000018
C25	C	1.472228	-0.445985	-0.107260
C26	C	1.473802	-0.386580	-0.107257
C27	C	1.474553	-0.356887	-0.053634
C28	C	1.473731	-0.386599	-0.000014
C29	C	1.472073	-0.446020	0.107233
C30	C	1.473635	-0.386607	0.107231
C31	C	1.474458	-0.356894	0.053607
C32	C	1.476056	-0.297501	0.053612
N33	N	1.476867	-0.267785	-0.000008
C34	C	1.476116	-0.297478	-0.053631
C35	C	1.466488	-0.659889	0.053593
C36	C	1.464935	-0.719297	0.053591
C37	C	1.464996	-0.719274	-0.053657
C38	C	1.466558	-0.659865	-0.053654
C39	C	1.467299	-0.630173	-0.000027
C40	C	1.479422	-0.172722	-0.053619
C41	C	1.481001	-0.113312	-0.053611
C42	C	1.480933	-0.113339	0.053636
C43	C	1.479361	-0.172745	0.053628
C44	C	1.478601	-0.202435	-0.000004
O45	O	1.476880	-0.266741	0.099192
O46	O	1.476935	-0.266739	-0.099231
C47	C	1.701143	0.080427	-0.000008
C48	C	1.839645	0.082091	-0.000011
C49	C	1.462524	0.187776	-0.000023
C50	C	1.464177	0.251005	-0.000032
N51	N	1.472883	0.083694	0.153248
C52	C	1.548223	0.118547	0.561884
C53	C	1.548238	0.118547	0.623804
O54	O	1.612251	0.148174	0.655819
N55	N	1.473013	0.083692	0.654785
C56	C	1.397779	0.048832	0.623842
O57	O	1.333797	0.019186	0.655880
C58	C	1.397772	0.048831	0.561924
C59	C	1.472992	0.083691	0.530946
C60	C	1.623438	0.153405	0.530907
C61	C	1.623421	0.153406	0.468991
C62	C	1.548190	0.118550	0.438053
C63	C	1.472975	0.083693	0.469031
C64	C	1.322545	0.013968	0.530982
C65	C	1.322546	0.013969	0.469059
C66	C	1.397765	0.048830	0.438082
C67	C	1.397727	0.048838	0.376177
N68	N	1.472952	0.083693	0.345196
C69	C	1.548183	0.118549	0.376134
C70	C	1.397801	0.048838	0.753876
C71	C	1.397800	0.048843	0.815794
C72	C	1.548261	0.118556	0.815751
C73	C	1.548254	0.118554	0.753832
C74	C	1.473025	0.083692	0.722895
C75	C	1.548142	0.118549	0.246107
C76	C	1.548114	0.118550	0.184186
C77	C	1.397659	0.048834	0.184234
C78	C	1.397681	0.048836	0.246149
C79	C	1.472932	0.083695	0.277085
O80	O	1.333751	0.019224	0.344123
O81	O	1.612167	0.148185	0.344090
N82	N	1.473037	0.083697	0.846737
H83	H	1.481674	-0.089123	-0.097280
N84	N	1.478637	-0.204741	-0.111464
H85	H	1.479411	-0.176898	-0.145427
H86	H	1.555361	-0.233702	-0.113791
N87	N	0.910008	0.082936	-0.057805
H88	H	0.953444	0.118826	-0.060169
H89	H	0.974509	0.048320	-0.060123
H90	H	1.474468	-0.362393	-0.150923
H91	H	1.684707	0.181789	0.556090
N92	N	0.830628	0.081854	0.108627
H93	H	0.842287	0.117319	0.132225
H94	H	0.738472	0.080684	0.100166
N95	N	1.464063	-0.751337	0.111431
H96	H	1.386052	-0.771667	0.113823
H97	H	1.540822	-0.780274	0.113788
N98	N	1.478505	-0.204798	0.111463
H99	H	1.400496	-0.225130	0.113856
H100	H	1.555266	-0.233736	0.113809
N101	N	1.241430	-0.023641	0.564381
H102	H	1.252839	-0.018359	0.608303
H103	H	1.150539	-0.012773	0.553569
H104	H	1.609517	0.146939	0.840952
N105	N	1.471503	-0.478010	-0.165101
H106	H	1.472290	-0.450166	-0.199063
H107	H	1.548250	-0.506959	-0.167411
N108	N	1.467446	-0.627821	-0.111490
H109	H	1.466737	-0.655651	-0.145457
H110	H	1.390733	-0.598855	-0.113830
H111	H	1.261285	-0.014421	0.443874
N112	N	1.464184	-0.751306	-0.111495
H113	H	1.463065	-0.793449	-0.103356
H114	H	1.387109	-0.736602	-0.134912
H115	H	1.097589	0.085189	0.094576
N116	N	1.035989	0.084450	-0.057802
H117	H	1.048021	0.119961	-0.081265
H118	H	1.069188	0.049457	-0.081206
N119	N	1.467302	-0.627866	0.111437
H120	H	1.466555	-0.655710	0.145401
H121	H	1.545313	-0.607536	0.113776
N122	N	1.474438	-0.354578	0.165070
H123	H	1.396791	-0.360603	0.188510
H124	H	1.551559	-0.369256	0.188467
N125	N	1.471187	-0.478057	0.165070
H126	H	1.471893	-0.450223	0.199035
H127	H	1.393172	-0.498387	0.167405
N128	N	1.481755	-0.081308	0.111471
H129	H	1.482873	-0.039165	0.103331
H130	H	1.404104	-0.087375	0.134885
H131	H	1.609367	0.146940	0.158967
N132	N	1.629316	0.156141	0.279467
H133	H	1.676958	0.178219	0.250440
H134	H	1.574576	0.183757	0.305165
H135	H	1.684678	0.181791	0.443775
N136	N	1.316532	0.011237	0.150857
H137	H	1.341695	-0.030095	0.161638
H138	H	1.225632	0.022132	0.161655
N139	N	1.629385	0.156152	0.720423
H140	H	1.677039	0.178232	0.749424
H141	H	1.690703	0.131576	0.694730
N142	N	1.316668	0.011244	0.849202
H143	H	1.269015	-0.010836	0.820201
H144	H	1.371443	-0.016369	0.874883
N145	N	1.316650	0.011238	0.720510
H146	H	1.269001	-0.010839	0.749536
H147	H	1.255327	0.035812	0.694825
H148	H	1.336415	0.020457	0.271373
