data_functionalizedCrystal
_audit_creation_method	'MofGen! by Chris Wilmer'
_symmetry_space_group_name_H-M	'P1'
_symmetry_Int_Tables_number	1
_symmetry_cell_setting	triclinic
loop_
_symmetry_equiv_pos_as_xyz
  x,y,z
_cell_length_a	14.044220
_cell_length_b	16.109302
_cell_length_c	15.186229
_cell_angle_alpha	89.994701
_cell_angle_beta	90.002599
_cell_angle_gamma	91.674671
loop_
_atom_site_label
_atom_site_type_symbol
_atom_site_fract_x
_atom_site_fract_y
_atom_site_fract_z
O1	O	-0.121838	1.112195	-0.073267
O2	O	-0.136999	0.871261	-0.073260
O3	O	0.008565	0.988112	-0.073259
O4	O	-0.267402	0.995345	-0.073267
O5	O	0.008567	0.988103	0.073198
O6	O	-0.136997	0.871253	0.073198
O7	O	-0.121836	1.112186	0.073191
Zn8	Zn	-0.129416	0.991718	0.096447
Zn9	Zn	-0.129419	0.991730	-0.096516
O10	O	-0.267400	0.995336	0.073190
C11	C	-0.136384	0.840236	-0.000030
C12	C	-0.134542	0.747804	-0.000027
C13	C	-0.130283	0.535142	0.079798
C14	C	-0.128542	0.448292	0.079795
C15	C	-0.128549	0.448312	-0.079881
C16	C	-0.130283	0.535160	-0.079877
C17	C	-0.131155	0.578573	-0.000035
C18	C	-0.127680	0.404875	-0.000042
C19	C	-0.125793	0.310709	-0.000046
C20	C	-0.133040	0.672745	-0.000031
C21	C	-0.302714	0.998506	-0.000040
C22	C	-0.407937	1.007950	-0.000043
C23	C	-0.600593	1.025215	-0.000040
C24	C	-0.658247	0.958236	-0.000037
C25	C	-0.765448	0.967843	-0.000035
C26	C	-0.493383	1.015610	-0.000042
C27	C	0.043879	0.984941	-0.000031
C28	C	0.149102	0.975498	-0.000034
C29	C	-0.122451	1.143211	-0.000041
C30	C	-0.124293	1.235644	-0.000049
N31	N	-0.129414	0.991716	0.228140
N32	N	-0.129414	0.991737	-0.228209
C33	C	-0.064980	1.043479	0.453863
C34	C	-0.064977	1.043481	0.546053
C35	C	-0.193851	0.939969	0.546061
C36	C	-0.193848	0.939963	0.453873
C37	C	-0.129413	0.991723	0.407777
C38	C	-0.129414	0.991731	0.592154
C39	C	-0.129412	0.991733	0.692110
C40	C	-0.129414	0.991719	0.307814
H41	H	-0.130993	0.570485	0.144810
H42	H	-0.627096	0.893678	-0.000035
H43	H	-0.127833	0.412934	0.144803
C44	C	-0.131237	0.582938	-0.167704
N45	N	-0.131951	0.618924	-0.233852
C46	C	0.005908	1.100408	0.403160
N47	N	0.059305	1.143286	0.364973
H48	H	-0.631743	1.089768	-0.000038
C49	C	0.005913	1.100410	0.596744
N50	N	0.059314	1.143288	0.634923
C51	C	-0.264723	0.883035	0.596776
N52	N	-0.318106	0.840151	0.634974
H53	H	-0.246318	0.897813	0.416347
H54	H	-0.127841	0.412955	-0.144885
