data_functionalizedCrystal
_audit_creation_method	'MofGen! by Chris Wilmer'
_symmetry_space_group_name_H-M	'P1'
_symmetry_Int_Tables_number	1
_symmetry_cell_setting	triclinic
loop_
_symmetry_equiv_pos_as_xyz
  x,y,z
_cell_length_a	13.033291
_cell_length_b	16.625539
_cell_length_c	13.032721
_cell_angle_alpha	97.153640
_cell_angle_beta	105.184202
_cell_angle_gamma	82.790211
loop_
_atom_site_label
_atom_site_type_symbol
_atom_site_fract_x
_atom_site_fract_y
_atom_site_fract_z
Zn1	Zn	1.570218	-0.631278	-0.216819
Zn2	Zn	1.547534	-0.511621	-0.394463
Zn3	Zn	1.392579	-0.481233	-0.239393
Zn4	Zn	1.369997	-0.631185	-0.416925
O5	O	1.470082	-0.563830	-0.316900
O6	O	1.715851	-0.628161	-0.221536
O7	O	1.526936	-0.394758	-0.373940
O8	O	1.435088	-0.488458	-0.087756
O9	O	1.699185	-0.540250	-0.352051
O10	O	1.565598	-0.598695	-0.071171
O11	O	1.413092	-0.372433	-0.260011
O12	O	1.240942	-0.488369	-0.281791
O13	O	1.396599	-0.744030	-0.390333
O14	O	1.224350	-0.598538	-0.412223
O15	O	1.543701	-0.744098	-0.243316
O16	O	1.505039	-0.540161	-0.546086
O17	O	1.374603	-0.628004	-0.562588
C18	C	1.194104	-0.540146	-0.351895
C19	C	1.076037	-0.530036	-0.366891
C20	C	1.470161	-0.774138	-0.316812
C21	C	1.470195	-0.863759	-0.316775
C22	C	0.909607	-0.558665	-0.324590
C23	C	1.031635	-0.569114	-0.309093
C24	C	1.470259	-1.191928	-0.316650
C25	C	1.470238	-1.100622	-0.316688
C26	C	1.470227	-1.027846	-0.316713
C27	C	1.470205	-0.936534	-0.316750
C28	C	1.747137	-0.587606	-0.281770
C29	C	1.865202	-0.597738	-0.266799
C30	C	1.434938	-0.587390	-0.592874
C31	C	1.420000	-0.597504	-0.710925
C32	C	1.470074	-0.354338	-0.316903
C33	C	1.470284	-0.264710	-0.316616
C34	C	1.477935	-0.558592	-0.755349
C35	C	1.462497	-0.569045	-0.877360
C36	C	1.505392	-0.540198	-0.039845
C37	C	1.520440	-0.530127	0.078220
H38	H	0.857283	-0.517473	-0.385535
O39	O	0.934495	-0.652296	-0.186055
H40	H	0.979001	-0.701629	-0.227284
H41	H	1.358976	-0.638560	-0.763220
O42	O	1.006740	-0.475466	-0.447626
H43	H	1.057833	-0.448428	-0.487592
H44	H	1.538968	-0.517542	-0.703055
H45	H	1.401469	-0.610104	-0.929652
H46	H	1.083957	-0.610301	-0.248134
H47	H	1.581477	-0.489075	-0.869488
