data_functionalizedCrystal
_audit_creation_method	'MofGen! by Chris Wilmer'
_symmetry_space_group_name_H-M	'P1'
_symmetry_Int_Tables_number	1
_symmetry_cell_setting	triclinic
loop_
_symmetry_equiv_pos_as_xyz
  x,y,z
_cell_length_a	14.908520
_cell_length_b	12.759401
_cell_length_c	14.908308
_cell_angle_alpha	93.280239
_cell_angle_beta	83.639235
_cell_angle_gamma	86.681251
loop_
_atom_site_label
_atom_site_type_symbol
_atom_site_fract_x
_atom_site_fract_y
_atom_site_fract_z
Zn1	Zn	-0.389916	-1.544169	0.532527
Zn2	Zn	-0.532562	-1.544050	0.389897
Zn3	Zn	-0.381214	-1.379237	0.381189
Zn4	Zn	-0.541229	-1.357683	0.541211
O5	O	-0.461230	-1.456285	0.461206
O6	O	-0.408853	-1.691173	0.513617
O7	O	-0.505216	-1.531158	0.262081
O8	O	-0.255704	-1.410186	0.393985
O9	O	-0.513654	-1.691085	0.408827
O10	O	-0.262097	-1.531361	0.505173
O11	O	-0.394021	-1.410071	0.255683
O12	O	-0.402426	-1.229359	0.402406
O13	O	-0.528427	-1.373451	0.666720
O14	O	-0.519989	-1.213523	0.519974
O15	O	-0.417258	-1.510461	0.660340
O16	O	-0.660376	-1.510257	0.417248
O17	O	-0.666744	-1.373335	0.528418
C18	C	-0.461204	-1.183321	0.461188
C19	C	-0.461216	-1.066542	0.461203
C20	C	-0.522517	-1.003462	0.522329
C21	C	-0.522525	-0.893737	0.522337
C22	C	-0.399930	-0.910182	0.400086
C23	C	-0.399918	-1.019905	0.400083
C24	C	-0.593298	-0.993967	0.592907
C25	C	-0.593307	-0.884242	0.592916
C26	C	-0.696404	-1.439471	0.474740
C27	C	-0.797014	-1.432372	0.480560
C28	C	-0.979383	-1.561742	0.375829
C29	C	-1.073915	-1.555076	0.381295
C30	C	-1.080611	-1.412379	0.496961
C31	C	-0.986079	-1.419046	0.491495
C32	C	-0.935468	-1.493728	0.430926
C33	C	-0.840935	-1.500389	0.425457
C34	C	-0.847632	-1.357698	0.541127
C35	C	-0.942164	-1.351032	0.546593
C36	C	-0.225140	-1.473191	0.447639
C37	C	-0.124532	-1.480396	0.441858
C38	C	-0.474780	-1.439565	0.697290
C39	C	-0.480554	-1.432439	0.797895
C40	C	-0.461249	-0.730316	0.461220
C41	C	-0.461237	-0.847094	0.461215
C42	C	-0.447668	-1.473005	0.226037
C43	C	-0.441639	-1.480352	0.125418
C44	C	-0.375622	-1.561718	0.980298
C45	C	-0.381044	-1.555027	1.074825
C46	C	-0.496815	-1.412362	1.081477
C47	C	-0.491393	-1.419053	0.986950
C48	C	-0.430795	-1.493734	0.936364
C49	C	-0.425378	-1.500430	0.841835
C50	C	-0.541144	-1.357761	0.848488
C51	C	-0.546566	-1.351070	0.943015
H52	H	-0.349996	-1.071261	0.350313
H53	H	-0.326286	-1.622531	0.939111
H54	H	-0.350023	-0.872196	0.350325
H55	H	-0.578657	-1.020116	0.661965
H56	H	-0.658398	-1.025035	0.571514
H57	H	-0.595900	-1.290264	0.984215
H58	H	-0.572134	-0.847284	0.658115
H59	H	-0.662301	-0.850798	0.578059
C60	C	-0.800079	-1.283887	0.601104
C61	C	-0.828179	-1.298686	0.692006
C62	C	-0.784402	-1.230697	0.747277
H63	H	-0.736523	-1.298471	0.589298
H64	H	-0.814893	-1.213135	0.588750
H65	H	-0.813359	-1.369421	0.704355
H66	H	-0.891729	-1.284094	0.703840
H67	H	-0.799216	-1.159945	0.734922
H68	H	-0.720849	-1.245286	0.735462
H69	H	-0.803469	-1.240722	0.808959
C70	C	-1.135534	-1.331433	0.562870
C71	C	-1.117649	-1.349521	0.651112
C72	C	-1.168239	-1.274985	0.711853
H73	H	-1.119393	-1.262831	0.548802
H74	H	-1.198134	-1.337220	0.558293
H75	H	-1.055063	-1.343725	0.655685
H76	H	-1.133795	-1.418108	0.665208
H77	H	-1.230839	-1.280772	0.707276
H78	H	-1.152093	-1.206389	0.697777
H79	H	-1.156117	-1.287254	0.771732
H80	H	-1.109667	-1.610461	0.336430
H81	H	-0.799728	-1.561197	0.376136
H82	H	-0.938175	-1.622545	0.326505
H83	H	-0.983384	-1.290230	0.595908
C84	C	-0.359673	-1.581467	0.786753
C85	C	-0.366746	-1.572797	0.694566
C86	C	-0.306235	-1.647438	0.643800
H87	H	-0.299703	-1.569414	0.798639
H88	H	-0.373811	-1.650042	0.802956
H89	H	-0.352602	-1.504239	0.678369
H90	H	-0.426702	-1.584861	0.682653
H91	H	-0.320373	-1.716012	0.660003
H92	H	-0.246270	-1.635378	0.655694
H93	H	-0.311032	-1.641572	0.581247
C94	C	-0.562701	-1.331438	1.136468
C95	C	-0.623843	-1.382922	1.194072
C96	C	-0.684552	-1.308406	1.244738
H97	H	-0.530281	-1.285505	1.171422
H98	H	-0.594842	-1.291909	1.096803
H99	H	-0.591705	-1.422433	1.233732
H100	H	-0.656284	-1.428849	1.159143
H101	H	-0.716694	-1.268878	1.205073
H102	H	-0.652124	-1.262478	1.279685
H103	H	-0.726049	-1.343328	1.283821
H104	H	-0.336114	-1.610383	1.110593
H105	H	-0.586072	-1.302406	0.812707
