data_functionalizedCrystal
_audit_creation_method	'MofGen! by Chris Wilmer'
_symmetry_space_group_name_H-M	'P1'
_symmetry_Int_Tables_number	1
_symmetry_cell_setting	triclinic
loop_
_symmetry_equiv_pos_as_xyz
  x,y,z
_cell_length_a	19.188933
_cell_length_b	19.188930
_cell_length_c	15.072220
_cell_angle_alpha	89.993728
_cell_angle_beta	89.988933
_cell_angle_gamma	83.145175
loop_
_atom_site_label
_atom_site_type_symbol
_atom_site_fract_x
_atom_site_fract_y
_atom_site_fract_z
O1	O	0.926153	0.087169	-0.073763
O2	O	1.426153	0.587169	0.426237
O3	O	0.722841	0.098902	-0.073772
O4	O	1.222841	0.598902	0.426228
O5	O	0.830364	-0.008620	-0.073750
O6	O	1.330364	0.491380	0.426250
O7	O	0.818630	0.194691	-0.073785
O8	O	1.318630	0.694691	0.426215
O9	O	0.830338	-0.008614	0.073815
O10	O	1.330338	0.491386	0.573815
O11	O	0.722815	0.098908	0.073793
O12	O	1.222815	0.598908	0.573793
O13	O	0.926126	0.087175	0.073802
O14	O	1.426126	0.587175	0.573802
Zn15	Zn	0.824466	0.093043	0.097227
Zn16	Zn	1.324466	0.593043	0.597227
Zn17	Zn	0.824501	0.093035	-0.097197
Zn18	Zn	1.324501	0.593035	0.402803
O19	O	0.818603	0.194697	0.073780
O20	O	1.318603	0.694697	0.573780
C21	C	0.696817	0.098525	0.000009
C22	C	1.196817	0.598525	0.500009
C23	C	0.619313	0.097384	0.000006
C24	C	1.119313	0.597384	0.500006
C25	C	0.829971	-0.034628	0.000035
C26	C	1.329971	0.465372	0.500035
C27	C	0.828830	-0.112132	0.000043
C28	C	1.328830	0.387868	0.500043
C29	C	0.066072	0.089235	-0.080421
C30	C	0.566072	0.589235	0.419579
C31	C	0.138896	0.090303	-0.080424
C32	C	0.638896	0.590303	0.419576
C33	C	0.175299	0.090844	0.000013
C34	C	0.675299	0.590844	0.500013
C35	C	0.138873	0.090298	0.080460
C36	C	0.638873	0.590298	0.580460
C37	C	0.066051	0.089223	0.080461
C38	C	0.566051	0.589223	0.580461
N39	N	0.284308	0.132265	0.059879
N40	N	0.784308	0.632265	0.559879
N41	N	0.353485	0.133288	0.059873
N42	N	0.853485	0.633288	0.559873
C43	C	0.394707	0.094082	0.000014
C44	C	0.894707	0.594082	0.500014
N45	N	0.364137	0.053823	-0.059851
N46	N	0.864137	0.553823	0.440149
N47	N	0.294953	0.052804	-0.059847
N48	N	0.794953	0.552804	0.440153
C49	C	0.254262	0.092009	0.000021
C50	C	0.754262	0.592009	0.500021
C51	C	0.510089	0.095781	-0.080432
C52	C	1.010089	0.595781	0.419568
C53	C	0.582915	0.096844	-0.080432
C54	C	1.082915	0.596844	0.419568
C55	C	0.582890	0.096847	0.080455
C56	C	1.082890	0.596847	0.580455
C57	C	0.510066	0.095776	0.080453
C58	C	1.010066	0.595776	0.580453
C59	C	0.473669	0.095246	0.000007
C60	C	0.973669	0.595246	0.500007
C61	C	0.891921	-0.157056	0.000050
C62	C	1.391921	0.342944	0.500050
C63	C	0.890849	-0.229880	0.000036
C64	C	1.390849	0.270120	0.500036
C65	C	0.826683	-0.257777	0.000032
C66	C	1.326683	0.242223	0.500032
C67	C	0.763584	-0.212843	0.000020
C68	C	1.263584	0.287157	0.500020
C69	C	0.764658	-0.140021	0.000025
C70	C	1.264658	0.359979	0.500025
N71	N	0.777627	-0.365780	0.050249
N72	N	1.277627	0.134220	0.550249
N73	N	0.776612	-0.434959	0.050246
N74	N	1.276612	0.065041	0.550246
C75	C	0.823445	-0.477185	0.000014
C76	C	1.323445	0.022815	0.500014
N77	N	0.871343	-0.447622	-0.050204
N78	N	1.371343	0.052378	0.449796
N79	N	0.872361	-0.378437	-0.050196
N80	N	1.372361	0.121563	0.449804
C81	C	0.825512	-0.336739	0.000026
C82	C	1.325512	0.163261	0.500026
C83	C	0.885378	-0.601073	0.000004
C84	C	1.385378	-0.101073	0.500004
C85	C	0.884304	-0.673898	-0.000015
C86	C	1.384304	-0.173898	0.499985
C87	C	0.757037	-0.656860	-0.000022
C88	C	1.257037	-0.156860	0.499978
C89	C	0.758113	-0.584037	-0.000012
C90	C	1.258113	-0.084037	0.499988
C91	C	0.822286	-0.556148	0.000006
C92	C	1.322286	-0.056148	0.500006
C93	C	0.952150	0.087553	0.000019
C94	C	1.452150	0.587553	0.500019
C95	C	1.029655	0.088694	0.000016
C96	C	1.529655	0.588694	0.500016
C97	C	0.818997	0.220705	-0.000007
C98	C	1.318997	0.720705	0.499993
C99	C	0.820137	0.298210	-0.000021
C100	C	1.320137	0.798210	0.499979
N101	N	0.824448	0.093048	0.229915
N102	N	1.324448	0.593048	0.729915
N103	N	0.824525	0.093024	-0.229886
N104	N	1.324525	0.593024	0.270114
C105	C	0.824500	0.093032	0.589117
C106	C	1.324500	0.593032	1.089117
C107	C	0.766774	0.150373	0.551498
C108	C	1.266774	0.650373	1.051498
C109	C	0.766906	0.150582	0.448672
C110	C	1.266906	0.650582	0.948672
C111	C	0.824473	0.093040	0.410913
C112	C	1.324473	0.593040	0.910913
C113	C	0.897276	0.108730	0.448204
C114	C	1.397276	0.608730	0.948204
C115	C	0.896952	0.109137	0.551062
C116	C	1.396952	0.609137	1.051062
C117	C	0.810073	0.019830	0.551229
C118	C	1.310073	0.519830	1.051229
C119	C	0.808400	0.020324	0.448366
C120	C	1.308400	0.520324	0.948366
C121	C	0.824463	0.093043	0.310199
C122	C	1.324463	0.593043	0.810199
C123	C	0.824515	0.093031	0.689830
C124	C	1.324515	0.593031	1.189830
H125	H	0.036443	0.088801	-0.145926
H126	H	0.536443	0.588801	0.354074
O127	O	0.954317	-0.130082	0.000022
O128	O	1.454317	0.369918	0.500022
C129	C	1.009773	-0.185355	0.000049
C130	C	1.509773	0.314645	0.500049
H131	H	0.990359	-0.234765	-0.027894
H132	H	1.490359	0.265235	0.472106
H133	H	1.054597	-0.170269	-0.042786
H134	H	1.554597	0.329731	0.457214
H135	H	1.029208	-0.195726	0.070845
H136	H	1.529208	0.304274	0.570845
O137	O	0.949758	0.061281	0.580852
O138	O	1.449758	0.561281	1.080852
C139	C	0.996590	0.095479	0.632609
C140	C	1.496590	0.595479	1.132609
H141	H	0.968289	0.146808	0.659330
H142	H	1.468289	0.646808	1.159330
H143	H	1.016437	0.060251	0.690414
H144	H	1.516437	0.560251	1.190414
H145	H	1.042914	0.107031	0.589938
H146	H	1.542914	0.607031	1.089938
H147	H	0.168517	0.090737	0.145953
H148	H	0.668517	0.590737	0.645953
O149	O	0.174327	0.090711	-0.158542
O150	O	0.674327	0.590711	0.341458
C151	C	0.224560	0.030891	-0.163352
C152	C	0.724560	0.530891	0.336648
H153	H	0.208268	-0.011695	-0.117708
H154	H	0.708268	0.488305	0.382292
H155	H	0.228114	0.010620	-0.234499
H156	H	0.728114	0.510620	0.265501
H157	H	0.277916	0.045375	-0.141739
H158	H	0.777916	0.545375	0.358261
O159	O	0.952119	-0.273558	-0.000108
O160	O	1.452119	0.226442	0.499892
C161	C	0.955318	-0.316200	-0.076521
C162	C	1.455318	0.183800	0.423479
H163	H	0.919551	-0.289415	-0.129948
H164	H	1.419551	0.210585	0.370052
H165	H	1.011591	-0.324563	-0.102160
H166	H	1.511591	0.175437	0.397840
H167	H	0.937398	-0.369100	-0.059247
H168	H	1.437398	0.130900	0.440753
O169	O	0.777462	0.214870	0.582256
O170	O	1.277462	0.714870	1.082256
C171	C	0.725329	0.265743	0.547958
C172	C	1.225329	0.765743	1.047958
H173	H	0.677255	0.239549	0.528599
H174	H	1.177255	0.739549	1.028599
H175	H	0.710007	0.307461	0.600556
H176	H	1.210007	0.807461	1.100556
H177	H	0.746566	0.291356	0.486987
H178	H	1.246566	0.791356	0.986987
H179	H	0.711340	-0.235562	0.000015
H180	H	1.211340	0.264438	0.500015
O181	O	0.702330	0.139595	0.418496
O182	O	1.202330	0.639595	0.918496
C183	C	0.674209	0.197428	0.366755
C184	C	1.174209	0.697428	0.866755
H185	H	0.718703	0.226006	0.340359
H186	H	1.218703	0.726006	0.840359
H187	H	0.643544	0.178188	0.308727
H188	H	1.143544	0.678188	0.808727
H189	H	0.637640	0.234853	0.409337
H190	H	1.137640	0.734853	0.909337
H191	H	0.935682	-0.710475	-0.000014
H192	H	1.435682	-0.210475	0.499986
O193	O	0.703304	-0.096478	0.000062
O194	O	1.203304	0.403522	0.500062
C195	C	0.646437	-0.136712	0.000028
C196	C	1.146437	0.363288	0.500028
H197	H	0.664318	-0.191124	0.027959
H198	H	1.164318	0.308876	0.527959
H199	H	0.602236	-0.109719	0.042869
H200	H	1.102236	0.390281	0.542869
H201	H	0.626771	-0.141826	-0.070769
H202	H	1.126771	0.358174	0.429231
H203	H	0.910333	0.161499	0.422426
H204	H	1.410333	0.661499	0.922426
H205	H	0.937631	-0.578365	0.000015
H206	H	1.437631	-0.078365	0.500015
H207	H	0.480453	0.095347	-0.145935
H208	H	0.980453	0.595347	0.354065
O209	O	0.474583	0.095220	0.158510
O210	O	0.974583	0.595220	0.658510
C211	C	0.402501	0.094171	0.141264
C212	C	0.902501	0.594171	0.641264
H213	H	0.395524	0.071929	0.072132
H214	H	0.895524	0.571929	0.572132
H215	H	0.379356	0.059868	0.192637
H216	H	0.879356	0.559868	0.692637
H217	H	0.374335	0.149865	0.145077
H218	H	0.874335	0.649865	0.645077
O219	O	0.860199	-0.031152	0.580293
O220	O	1.360199	0.468848	1.080293
C221	C	0.828372	-0.081306	0.629442
C222	C	1.328372	0.418694	1.129442
H223	H	0.770979	-0.079509	0.609055
H224	H	1.270979	0.420491	1.109055
H225	H	0.856778	-0.135870	0.615768
H226	H	1.356778	0.364130	1.115768
H227	H	0.831623	-0.069096	0.703244
H228	H	1.331623	0.430904	1.203244
O229	O	0.696872	-0.540323	0.000109
O230	O	1.196872	-0.040323	0.500109
C231	C	0.693664	-0.497710	0.076548
C232	C	1.193664	0.002290	0.576548
H233	H	0.749067	-0.494200	0.102033
H234	H	1.249067	0.005800	0.602033
H235	H	0.667494	-0.442894	0.059361
H236	H	1.167494	0.057106	0.559361
H237	H	0.661838	-0.521576	0.130059
H238	H	1.161838	-0.021576	0.630059
O239	O	0.030659	0.088574	0.158579
O240	O	0.530659	0.588574	0.658579
C241	C	-0.003388	0.027508	0.163388
C242	C	0.496612	0.527508	0.663388
H243	H	0.024220	-0.014422	0.117742
H244	H	0.524220	0.485578	0.617742
H245	H	-0.001507	0.007200	0.234534
H246	H	0.498493	0.507200	0.734534
H247	H	-0.060405	0.040364	0.141777
H248	H	0.439595	0.540364	0.641777
O249	O	0.618331	0.097277	0.158537
O250	O	1.118331	0.597277	0.658537
C251	C	0.668532	0.037432	0.163366
C252	C	1.168532	0.537432	0.663366
H253	H	0.682151	0.017439	0.093527
H254	H	1.182151	0.517439	0.593527
H255	H	0.717916	0.051781	0.197412
H256	H	1.217916	0.551781	0.697412
H257	H	0.646126	-0.005315	0.203065
H258	H	1.146126	0.494685	0.703065
H259	H	0.704792	-0.679573	-0.000030
H260	H	1.204792	-0.179573	0.499970
H261	H	0.712476	0.141215	0.576259
H262	H	1.212476	0.641215	1.076259
O263	O	0.777832	0.215360	0.419139
O264	O	1.277832	0.715360	0.919139
C265	C	0.778010	0.215801	0.325596
C266	C	1.278010	0.715801	0.825596
H267	H	0.747832	0.172234	0.299931
H268	H	1.247832	0.672234	0.799931
H269	H	0.751917	0.268674	0.300698
H270	H	1.251917	0.768674	0.800698
H271	H	0.834424	0.206851	0.300516
H272	H	1.334424	0.706851	0.800516
H273	H	0.758150	0.004688	0.577220
H274	H	1.258150	0.504688	1.077220
H275	H	0.612565	0.097280	-0.145936
H276	H	1.112565	0.597280	0.354064
O277	O	0.744560	0.006086	0.419145
O278	O	1.244560	0.506086	0.919145
C279	C	0.744568	0.003807	0.325645
C280	C	1.244568	0.503807	0.825645
H281	H	0.800799	-0.008072	0.300625
H282	H	1.300799	0.491928	0.800625
H283	H	0.712485	-0.039025	0.302270
H284	H	1.212485	0.460975	0.802270
H285	H	0.720429	0.056674	0.298434
H286	H	1.220429	0.556674	0.798434
O287	O	0.912254	0.172812	0.579558
O288	O	1.412254	0.672812	1.079558
C289	C	0.979048	0.184449	0.547928
C290	C	1.479048	0.684449	1.047928
H291	H	0.992497	0.150815	0.486538
H292	H	1.492497	0.650815	0.986538
H293	H	0.978660	0.242218	0.530032
H294	H	1.478660	0.742218	1.030032
H295	H	1.019995	0.169724	0.601635
H296	H	1.519995	0.669724	1.101635
H297	H	0.941248	0.068067	0.423744
H298	H	1.441248	0.568067	0.923744
H299	H	0.847730	-0.024329	0.422666
H300	H	1.347730	0.475671	0.922666
