data_functionalizedCrystal
_audit_creation_method	'MofGen! by Chris Wilmer'
_symmetry_space_group_name_H-M	'P1'
_symmetry_Int_Tables_number	1
_symmetry_cell_setting	triclinic
loop_
_symmetry_equiv_pos_as_xyz
  x,y,z
_cell_length_a	10.489741
_cell_length_b	10.540539
_cell_length_c	9.616153
_cell_angle_alpha	90.000094
_cell_angle_beta	90.004192
_cell_angle_gamma	84.532333
loop_
_atom_site_label
_atom_site_type_symbol
_atom_site_fract_x
_atom_site_fract_y
_atom_site_fract_z
O1	O	-1.694037	-0.179098	-0.115552
O2	O	-1.322839	-0.195909	-0.115573
O3	O	-1.516907	-0.002798	-0.115561
O4	O	-1.499970	-0.372209	-0.115565
O5	O	-1.516880	-0.002802	0.115731
O6	O	-1.322813	-0.195913	0.115718
O7	O	-1.694010	-0.179102	0.115739
Zn8	Zn	-1.508407	-0.187508	0.152451
Zn9	Zn	-1.508442	-0.187503	-0.152285
O10	O	-1.499943	-0.372213	0.115726
C11	C	-1.275294	-0.194641	0.000070
C12	C	-1.133665	-0.190843	0.000061
C13	C	-1.515623	0.044503	0.000082
C14	C	-1.511823	0.185452	0.000075
C15	C	-1.741555	-0.180369	0.000093
C16	C	-1.883184	-0.184168	0.000092
C17	C	-1.065540	-0.067971	0.000076
C18	C	-0.973419	-0.126013	-0.113961
C19	C	-0.973427	-0.126046	0.114075
C20	C	-1.043410	-0.248934	-0.114069
C21	C	-1.043427	-0.248950	0.114068
C22	C	-0.951334	-0.307081	0.000004
C23	C	-1.501226	-0.419514	0.000080
C24	C	-1.505026	-0.560463	0.000079
N25	N	-1.508392	-0.187511	0.360426
C26	C	-1.366206	0.368896	-0.000453
C27	C	-1.370058	0.222277	0.000068
C28	C	-1.580031	0.247099	0.132157
C29	C	-1.575193	0.393644	0.132268
C30	C	-1.578107	0.394167	-0.130753
C31	C	-1.579413	0.247185	-0.132499
N32	N	-1.508467	-0.187490	-0.360260
C33	C	-1.404262	-0.290466	0.580789
C34	C	-1.404491	-0.290852	0.419621
C35	C	-1.641757	-0.217660	0.418882
C36	C	-1.641190	-0.218389	0.580100
C37	C	-1.480486	-0.054069	0.580337
C38	C	-1.477425	-0.054933	0.419110
H39	H	-0.942423	-0.074022	-0.210371
C40	C	-1.802104	0.363995	-0.127670
C41	C	-1.716336	0.457905	-0.131953
H42	H	-1.887435	0.403352	-0.128394
H43	H	-1.788892	0.309995	-0.206457
H44	H	-1.788162	0.314963	-0.045240
H45	H	-1.730272	0.506932	-0.214389
H46	H	-1.729554	0.511927	-0.053159
H47	H	-1.677148	0.441600	0.138266
C48	C	-1.269829	0.000930	0.523223
C49	C	-1.351951	-0.015352	0.635265
H50	H	-1.190477	0.024830	0.557137
H51	H	-1.255622	-0.076738	0.473028
H52	H	-1.307688	0.065758	0.463530
H53	H	-1.314096	-0.080187	0.694953
H54	H	-1.366155	0.062327	0.685482
H55	H	-1.074243	-0.300881	-0.210587
H56	H	-0.942444	-0.074036	0.210484
H57	H	-1.316387	0.179682	-0.094614
C58	C	-1.050393	-0.254555	0.363533
C59	C	-1.085338	-0.319074	0.244220
H60	H	-1.076279	-0.297836	0.443889
H61	H	-0.960138	-0.251981	0.364938
H62	H	-1.091084	-0.170094	0.362697
H63	H	-1.044639	-0.403532	0.245051
H64	H	-1.175610	-0.321662	0.242816
H65	H	-1.666775	-0.313901	0.378492
H66	H	-1.379315	-0.032081	0.380904
H67	H	-1.684139	0.224732	0.137074
H68	H	-1.310422	0.399108	0.093730
C69	C	-1.097511	0.132429	-0.119655
C70	C	-1.132608	0.068396	-0.000081
H71	H	-1.138928	0.216609	-0.119760
H72	H	-1.007352	0.135793	-0.120465
H73	H	-1.122474	0.088320	-0.199837
H74	H	-1.107637	0.112500	0.080101
H75	H	-1.222788	0.065039	0.000741
C76	C	-1.367834	0.495320	-0.208248
C77	C	-1.290605	0.407525	-0.128307
H78	H	-1.321154	0.519180	-0.287176
H79	H	-1.441908	0.457605	-0.237942
H80	H	-1.392799	0.568729	-0.153843
H81	H	-1.265648	0.334112	-0.182709
H82	H	-1.216507	0.445239	-0.098614
C83	C	-1.749658	-0.120779	0.778366
C84	C	-1.749097	-0.121086	0.632754
H85	H	-1.816274	-0.060708	0.810864
H86	H	-1.763473	-0.203283	0.811393
H87	H	-1.669609	-0.098115	0.811589
H88	H	-1.829143	-0.143759	0.599530
H89	H	-1.735291	-0.038565	0.599712
H90	H	-1.721194	-0.144706	0.380535
C91	C	-1.249737	0.264230	0.204646
C92	C	-1.297092	0.165905	0.128105
H93	H	-1.204701	0.229427	0.283701
H94	H	-1.193388	0.307265	0.148081
H95	H	-1.319014	0.322671	0.234085
H96	H	-1.227814	0.107469	0.098657
H97	H	-1.353444	0.122850	0.184681
C98	C	-1.471035	0.322580	0.344527
C99	C	-1.507097	0.431727	0.265536
H100	H	-1.428986	0.346088	0.426796
H101	H	-1.545066	0.282097	0.368657
H102	H	-1.414578	0.265543	0.291702
H103	H	-1.563562	0.488760	0.318357
H104	H	-1.433055	0.472230	0.241408
C105	C	-1.662091	0.002944	0.277072
C106	C	-1.573100	0.053492	0.364741
H107	H	-1.721170	0.069880	0.243520
H108	H	-1.618585	-0.038923	0.200833
H109	H	-1.706888	-0.056392	0.327418
H110	H	-1.528297	0.112821	0.314391
H111	H	-1.616611	0.095379	0.440991
H112	H	-1.529505	0.206334	-0.230210
C113	C	-1.191123	-0.246069	0.519482
C114	C	-1.270069	-0.266351	0.633176
H115	H	-1.108279	-0.231170	0.551834
H116	H	-1.184851	-0.319147	0.461195
H117	H	-1.226691	-0.174120	0.468326
H118	H	-1.234505	-0.338307	0.684327
H119	H	-1.276336	-0.193267	0.691487
C120	C	-1.557361	0.167908	0.578387
C121	C	-1.583040	0.049408	0.631803
H122	H	-1.620681	0.231779	0.610161
H123	H	-1.475381	0.187327	0.609104
H124	H	-1.558628	0.164986	0.479666
H125	H	-1.581764	0.052327	0.730524
H126	H	-1.665041	0.029985	0.601094
C127	C	-1.334799	-0.514199	0.582219
C128	C	-1.428216	-0.423343	0.635452
H129	H	-1.349587	-0.596228	0.615976
H130	H	-1.339006	-0.513832	0.483551
H131	H	-1.252449	-0.494163	0.611049
H132	H	-1.510566	-0.443373	0.606613
H133	H	-1.424021	-0.423713	0.734142
H134	H	-1.532628	0.204503	0.230443
C135	C	-1.324791	-0.474343	0.286723
C136	C	-1.428772	-0.424479	0.367533
H137	H	-1.339783	-0.556845	0.254577
H138	H	-1.315030	-0.420052	0.209389
H139	H	-1.249043	-0.479965	0.341412
H140	H	-1.504519	-0.418847	0.312841
H141	H	-1.438548	-0.478783	0.444878
H142	H	-1.665662	-0.315730	0.617689
H143	H	-1.532236	0.425727	-0.230863
H144	H	-0.901898	-0.408195	-0.000059
H145	H	-1.682771	0.222951	-0.140469
H146	H	-1.305398	-0.272709	0.380101
