data_functionalizedCrystal
_audit_creation_method	'MofGen! by Chris Wilmer'
_symmetry_space_group_name_H-M	'P1'
_symmetry_Int_Tables_number	1
_symmetry_cell_setting	triclinic
loop_
_symmetry_equiv_pos_as_xyz
  x,y,z
_cell_length_a	14.044191
_cell_length_b	14.044220
_cell_length_c	16.176319
_cell_angle_alpha	89.992517
_cell_angle_beta	89.995217
_cell_angle_gamma	93.190327
loop_
_atom_site_label
_atom_site_type_symbol
_atom_site_fract_x
_atom_site_fract_y
_atom_site_fract_z
O1	O	1.277176	0.230203	-0.068710
O2	O	1.000504	0.221890	-0.068721
O3	O	1.134687	0.087710	-0.068707
O4	O	1.142993	0.364382	-0.068723
O5	O	1.134666	0.087699	0.068786
O6	O	1.000483	0.221879	0.068773
O7	O	1.277155	0.230192	0.068783
Cu8	Cu	1.138817	0.226034	0.081332
Cu9	Cu	1.138842	0.226047	-0.081270
O10	O	1.142972	0.364371	0.068770
C11	C	0.964872	0.218248	0.000025
C12	C	0.858728	0.207401	0.000021
C13	C	1.131041	0.052083	0.000039
C14	C	1.120197	-0.054060	0.000040
C15	C	0.613270	0.264501	0.000026
C16	C	0.664395	0.187585	0.000029
C17	C	0.772532	0.198613	0.000025
C18	C	0.505123	0.253474	0.000030
C19	C	1.100370	-0.248398	0.000027
C20	C	1.177285	-0.299526	0.000028
C21	C	1.166253	-0.407663	0.000021
C22	C	1.111400	-0.140252	0.000034
C23	C	1.312788	0.233834	0.000036
C24	C	1.418931	0.244681	0.000034
C25	C	1.146618	0.399998	0.000021
C26	C	1.157463	0.506142	0.000015
N27	N	1.138807	0.226025	0.195697
N28	N	1.138860	0.226050	-0.195635
C29	C	1.198245	0.166638	0.238967
C30	C	1.198250	0.166638	0.325514
C31	C	1.138821	0.226029	0.368790
C32	C	1.079376	0.285418	0.325514
C33	C	1.079367	0.285413	0.238968
C34	C	1.079410	0.285439	0.674542
C35	C	1.079426	0.285442	0.761094
C36	C	1.198293	0.166664	0.761088
C37	C	1.198284	0.166659	0.674543
C38	C	1.138836	0.226044	0.631274
C39	C	1.138830	0.226042	0.537430
C40	C	1.138831	0.226036	0.462632
H41	H	0.626952	0.113452	-0.000025
H42	H	0.650711	0.338628	0.000019
C43	C	1.276055	-0.249434	0.000083
C44	C	1.267507	-0.150582	0.000111
C45	C	1.358469	-0.104403	0.000177
H46	H	1.309853	-0.267252	-0.047847
H47	H	1.309756	-0.267336	0.048053
H48	H	1.233820	-0.132688	-0.047853
H49	H	1.233726	-0.132736	0.048039
H50	H	1.392170	-0.122305	0.048146
H51	H	1.392260	-0.122228	-0.047755
H52	H	1.352681	-0.037327	0.000203
H53	H	1.026242	-0.285837	0.000023
H54	H	1.030982	0.333773	0.360754
H55	H	1.246643	0.118279	0.203738
C56	C	1.262901	0.102140	0.372344
C57	C	1.314972	0.050155	0.315921
C58	C	1.374554	-0.009258	0.359030
H59	H	1.225320	0.059386	0.406123
H60	H	1.305593	0.139863	0.406072
H61	H	1.272285	0.012436	0.282207
H62	H	1.352571	0.092885	0.282140
H63	H	1.417245	0.028464	0.392758
H64	H	1.336965	-0.052007	0.392808
H65	H	1.409897	-0.044531	0.320754
C66	C	1.262929	0.102138	0.807918
C67	C	1.314989	0.050145	0.751493
C68	C	1.374548	-0.009293	0.794599
H69	H	1.225332	0.059389	0.841690
H70	H	1.305628	0.139844	0.841653
H71	H	1.272296	0.012443	0.717772
H72	H	1.352604	0.092870	0.717719
H73	H	1.417247	0.028412	0.828335
H74	H	1.336944	-0.052037	0.828370
H75	H	1.409885	-0.044571	0.756322
H76	H	1.246680	0.118300	0.639310
H77	H	1.031028	0.333807	0.796327
H78	H	1.031007	0.333794	0.639320
C79	C	1.014802	0.349997	0.192135
C80	C	0.962777	0.402031	0.248556
C81	C	0.903296	0.461543	0.205445
H82	H	0.972074	0.312370	0.158383
H83	H	1.052480	0.392713	0.158379
H84	H	0.925102	0.359320	0.282298
H85	H	1.005481	0.439677	0.282309
H86	H	0.940973	0.504259	0.171688
H87	H	0.860573	0.423908	0.171694
H88	H	0.867996	0.496861	0.243719
