data_functionalizedCrystal
_audit_creation_method	'MofGen! by Chris Wilmer'
_symmetry_space_group_name_H-M	'P1'
_symmetry_Int_Tables_number	1
_symmetry_cell_setting	triclinic
loop_
_symmetry_equiv_pos_as_xyz
  x,y,z
_cell_length_a	16.120490
_cell_length_b	11.169416
_cell_length_c	11.169409
_cell_angle_alpha	89.969126
_cell_angle_beta	87.080796
_cell_angle_gamma	87.103007
loop_
_atom_site_label
_atom_site_type_symbol
_atom_site_fract_x
_atom_site_fract_y
_atom_site_fract_z
Zn1	Zn	1.274675	-0.570970	-0.771562
Zn2	Zn	1.608009	-0.237637	-0.438228
Zn3	Zn	1.941342	0.095696	-0.104895
Zn4	Zn	1.274598	-0.771705	-0.570878
Zn5	Zn	1.607932	-0.438372	-0.237545
Zn6	Zn	1.941265	-0.105039	0.095789
Zn7	Zn	1.135247	-0.560839	-0.560723
Zn8	Zn	1.468580	-0.227506	-0.227389
Zn9	Zn	1.801914	0.105827	0.105944
Zn10	Zn	1.135252	-0.761409	-0.761355
Zn11	Zn	1.468586	-0.428076	-0.428022
Zn12	Zn	1.801919	-0.094743	-0.094689
O13	O	1.204943	-0.666231	-0.666129
O14	O	1.538277	-0.332898	-0.332796
O15	O	1.871610	0.000435	0.000537
O16	O	1.391333	-0.606147	-0.753462
O17	O	1.724666	-0.272814	-0.420128
O18	O	2.058000	0.060520	-0.086795
O19	O	1.256079	-0.743803	-0.401579
O20	O	1.589412	-0.410469	-0.068245
O21	O	1.922745	-0.077136	0.265088
O22	O	1.153773	-0.394236	-0.588712
O23	O	1.487106	-0.060902	-0.255379
O24	O	1.820439	0.272431	0.077955
O25	O	1.391277	-0.753626	-0.606020
O26	O	1.724610	-0.420293	-0.272687
O27	O	2.057943	-0.086960	0.060646
O28	O	1.256210	-0.401679	-0.743615
O29	O	1.589543	-0.068346	-0.410281
O30	O	1.922876	0.264988	-0.076948
O31	O	1.153698	-0.588880	-0.394117
O32	O	1.487031	-0.255547	-0.060784
O33	O	1.820365	0.077786	0.272549
O34	O	1.018580	-0.578897	-0.578816
O35	O	1.351913	-0.245563	-0.245482
O36	O	1.685247	0.087770	0.087851
O37	O	1.153781	-0.736078	-0.930662
O38	O	1.487115	-0.402745	-0.597328
O39	O	1.820448	-0.069412	-0.263995
O40	O	1.018584	-0.726255	-0.726220
O41	O	1.351917	-0.392921	-0.392886
O42	O	1.685250	-0.059588	-0.059553
O43	O	1.256215	-0.596164	-0.938160
O44	O	1.589548	-0.262830	-0.604827
O45	O	1.922881	0.070503	-0.271493
O46	O	1.256084	-0.938287	-0.596124
O47	O	1.589417	-0.604954	-0.262791
O48	O	1.922750	-0.271620	0.070543
O49	O	1.153707	-0.930723	-0.736067
O50	O	1.487040	-0.597389	-0.402734
O51	O	1.820374	-0.264056	-0.069400
C52	C	1.204910	-0.978053	-0.666118
C53	C	1.538244	-0.644720	-0.332785
C54	C	1.871577	-0.311387	0.000549
C55	C	1.204972	-1.111458	-0.666159
C56	C	1.538306	-0.778125	-0.332825
C57	C	1.871639	-0.444791	0.000508
C58	C	0.988331	-0.650360	-0.650309
C59	C	1.321664	-0.317027	-0.316976
C60	C	1.654998	0.016307	0.016358
C61	C	0.895663	-0.643599	-0.643569
C62	C	1.228997	-0.310266	-0.310236
C63	C	1.562330	0.023068	0.023097
C64	C	0.684734	-0.701292	-0.701091
C65	C	1.018067	-0.367958	-0.367758
C66	C	1.351400	-0.034625	-0.034424
C67	C	0.726004	-0.631266	-0.631263
C68	C	1.059337	-0.297933	-0.297929
C69	C	1.392671	0.035400	0.035404
C70	C	0.820411	-0.638130	-0.638112
C71	C	1.153745	-0.304797	-0.304779
C72	C	1.487078	0.028536	0.028555
C73	C	0.590318	-0.694429	-0.694243
C74	C	0.923651	-0.361096	-0.360910
C75	C	1.256985	-0.027763	-0.027576
C76	C	1.422401	-0.682165	-0.682012
C77	C	1.755735	-0.348832	-0.348679
C78	C	2.089068	-0.015499	-0.015346
C79	C	1.515069	-0.688955	-0.688781
C80	C	1.848402	-0.355622	-0.355447
C81	C	2.181736	-0.022289	-0.022114
C82	C	1.205007	-0.666103	-0.979177
C83	C	1.538341	-0.332769	-0.645843
C84	C	1.871674	0.000564	-0.312510
C85	C	1.205035	-0.666048	-1.112579
C86	C	1.538368	-0.332714	-0.779245
C87	C	1.871701	0.000619	-0.445912
C88	C	1.204999	-0.353193	-0.666169
C89	C	1.538332	-0.019860	-0.332836
C90	C	1.871666	0.313474	0.000498
C91	C	1.205023	-0.219795	-0.666186
C92	C	1.538356	0.113539	-0.332852
C93	C	1.871690	0.446872	0.000481
C94	C	1.204927	-0.666276	-0.354303
C95	C	1.538261	-0.332943	-0.020970
C96	C	1.871594	0.000390	0.312363
C97	C	1.205062	-0.666005	-0.220914
C98	C	1.538395	-0.332671	0.112419
C99	C	1.871728	0.000662	0.445753
H100	H	0.720301	-0.766393	-0.766011
H101	H	1.053635	-0.433059	-0.432677
H102	H	1.386968	-0.099726	-0.099344
H103	H	0.690434	-0.566161	-0.566337
H104	H	1.023768	-0.232828	-0.233003
H105	H	1.357101	0.100506	0.100330
