data_functionalizedCrystal
_audit_creation_method	'MofGen! by Chris Wilmer'
_symmetry_space_group_name_H-M	'P1'
_symmetry_Int_Tables_number	1
_symmetry_cell_setting	triclinic
loop_
_symmetry_equiv_pos_as_xyz
  x,y,z
_cell_length_a	15.944499
_cell_length_b	15.944551
_cell_length_c	9.130307
_cell_angle_alpha	90.005644
_cell_angle_beta	90.003350
_cell_angle_gamma	83.488174
loop_
_atom_site_label
_atom_site_type_symbol
_atom_site_fract_x
_atom_site_fract_y
_atom_site_fract_z
O1	O	1.114547	0.108126	0.121890
O2	O	0.869991	0.121527	0.121874
O3	O	0.998947	-0.007450	0.121870
O4	O	0.985591	0.237103	0.121895
O5	O	0.998945	-0.007454	-0.121729
O6	O	0.869989	0.121522	-0.121725
O7	O	1.114545	0.108121	-0.121709
Cu8	Cu	0.992267	0.114821	-0.143959
Cu9	Cu	0.992269	0.114827	0.144125
O10	O	0.985589	0.237098	-0.121704
C11	C	0.838695	0.120976	0.000073
C12	C	0.745447	0.119331	0.000066
C13	C	0.453911	0.194263	0.000096
C14	C	0.514941	0.155314	0.120202
C15	C	0.409810	0.113355	0.000100
C16	C	0.514925	0.155288	-0.119968
C17	C	0.574719	0.116296	0.000081
C18	C	0.469613	0.074383	0.120304
C19	C	0.469590	0.074368	-0.119973
C20	C	0.530603	0.035360	0.000162
C21	C	0.314810	0.111663	0.000112
C22	C	0.669718	0.117981	0.000079
C23	C	0.998392	-0.038746	0.000070
C24	C	0.996729	-0.131992	0.000069
C25	C	0.912823	-0.346833	0.000084
C26	C	0.951785	-0.407860	-0.120023
C27	C	0.993722	-0.302717	0.000080
C28	C	0.951806	-0.407838	0.120147
C29	C	0.990811	-0.467629	0.000097
C30	C	1.032707	-0.362516	-0.120126
C31	C	1.032716	-0.362488	0.120152
C32	C	1.071737	-0.423497	0.000016
C33	C	0.995397	-0.207715	0.000069
C34	C	0.989143	-0.562630	0.000098
C35	C	1.145840	0.108672	0.000096
C36	C	1.239089	0.110317	0.000112
C37	C	0.986144	0.268394	0.000099
C38	C	0.987806	0.361640	0.000110
N39	N	0.992271	0.114825	0.346748
N40	N	0.992271	0.114817	-0.346582
C41	C	1.106686	0.000827	0.346734
C42	C	1.163890	-0.056178	0.423393
C43	C	1.163890	-0.056188	0.576727
C44	C	1.106680	0.000816	0.653404
C45	C	1.049476	0.057821	0.576744
C46	C	1.049481	0.057822	0.423407
C47	C	0.935067	0.171822	0.576758
C48	C	0.935062	0.171828	0.423425
C49	C	0.877858	0.228825	0.653436
C50	C	0.820648	0.285828	0.576776
C51	C	0.820650	0.285834	0.423433
C52	C	0.877857	0.228833	0.346765
H53	H	0.449473	0.040173	-0.221523
C54	C	0.877858	0.228812	0.822107
N55	N	0.877855	0.228801	0.949152
C56	C	0.542101	0.201553	0.257372
N57	N	0.562558	0.236387	0.360680
H58	H	0.774076	0.332239	0.639216
C59	C	0.757719	0.348545	0.339120
N60	N	0.710317	0.395780	0.275620
H61	H	0.420581	0.261409	0.000219
C62	C	1.162530	-0.468319	-0.000073
N63	N	1.230914	-0.502081	-0.000149
H64	H	0.877861	0.228831	0.221913
C65	C	0.542043	0.201532	-0.257142
N66	N	0.562463	0.236369	-0.360457
C67	C	1.078889	-0.335523	-0.257458
N68	N	1.113670	-0.315190	-0.360898
C69	C	0.575433	-0.055429	0.000243
N70	N	0.609201	-0.123810	0.000311
C71	C	1.078903	-0.335295	0.257343
N72	N	1.113684	-0.314810	0.360687
C73	C	0.822110	-0.301812	-0.000086
N74	N	0.753787	-0.267899	-0.000223
H75	H	0.917579	-0.427907	0.221694
C76	C	0.442626	0.028198	0.257636
N77	N	0.422297	-0.006584	0.361076
C78	C	1.106688	0.000828	0.178063
N79	N	1.106692	0.000829	0.051017
H80	H	0.917567	-0.427964	-0.221568
H81	H	1.210471	-0.102589	0.360949
C82	C	1.226817	-0.118896	0.661055
N83	N	1.274212	-0.166129	0.724570
H84	H	1.106691	0.000812	0.778256
