data_functionalizedCrystal
_audit_creation_method	'MofGen! by Chris Wilmer'
_symmetry_space_group_name_H-M	'P1'
_symmetry_Int_Tables_number	1
_symmetry_cell_setting	triclinic
loop_
_symmetry_equiv_pos_as_xyz
  x,y,z
_cell_length_a	13.635800
_cell_length_b	7.076078
_cell_length_c	7.190378
_cell_angle_alpha	83.157426
_cell_angle_beta	119.389020
_cell_angle_gamma	117.701375
loop_
_atom_site_label
_atom_site_type_symbol
_atom_site_fract_x
_atom_site_fract_y
_atom_site_fract_z
V1	V	-2.149233	-0.291748	-0.663533
V2	V	-1.649233	0.208252	-0.163533
O3	O	-2.101116	0.017474	-0.652438
O4	O	-1.601116	0.517474	-0.152438
O5	O	-2.161847	-0.581810	-0.657518
O6	O	-1.661847	-0.081810	-0.157518
O7	O	-2.167044	-0.285745	-0.953596
O8	O	-1.667044	0.214255	-0.453596
O9	O	-2.095884	-0.280641	-0.354309
O10	O	-1.595884	0.219359	0.145691
V11	V	-2.380833	-0.254941	-0.626727
V12	V	-1.880833	0.245059	-0.126727
O13	O	-2.302152	-0.372489	-0.744270
O14	O	-1.802152	0.127511	-0.244270
O15	O	-2.453012	-0.174201	-0.545989
O16	O	-1.953012	0.325799	-0.045989
O17	O	-2.256615	0.035121	-0.632742
O18	O	-1.756615	0.535121	-0.132742
O19	O	-2.487648	-0.564163	-0.637822
O20	O	-1.987648	-0.064163	-0.137822
O21	O	-2.492881	-0.266049	-0.935950
O22	O	-1.992881	0.233951	-0.435950
O23	O	-2.251419	-0.260944	-0.336663
O24	O	-1.751419	0.239056	0.163337
V25	V	-1.880826	-0.254941	-0.626727
V26	V	-1.380826	0.245059	-0.126727
O27	O	-1.934175	-0.266049	-0.935950
O28	O	-1.434175	0.233951	-0.435950
O29	O	-1.863015	-0.260944	-0.336663
O30	O	-1.363015	0.239056	0.163337
O31	O	-1.868211	0.035121	-0.632742
O32	O	-1.368211	0.535121	-0.132742
O33	O	-1.928942	-0.564163	-0.637822
O34	O	-1.428942	-0.064163	-0.137822
V35	V	-1.649226	-0.291748	-0.663533
V36	V	-1.149226	0.208252	-0.163533
O37	O	-1.727906	-0.174201	-0.545989
O38	O	-1.227906	0.325799	-0.045989
O39	O	-1.577046	-0.372489	-0.744270
O40	O	-1.077046	0.127511	-0.244270
O41	O	-1.778640	-0.285745	-0.953596
O42	O	-1.278640	0.214255	-0.453596
O43	O	-1.537178	-0.280641	-0.354309
O44	O	-1.037178	0.219359	0.145691
O45	O	-1.542411	0.017474	-0.652438
O46	O	-1.042411	0.517474	-0.152438
O47	O	-1.773443	-0.581810	-0.657518
O48	O	-1.273443	-0.081810	-0.157518
C49	C	-2.095432	0.347432	-0.646668
C50	C	-1.595432	0.847432	-0.146668
C51	C	-2.158195	0.105859	-0.643602
C52	C	-1.658195	0.605859	-0.143602
C53	C	-1.875007	-0.274900	-0.024343
C54	C	-1.375007	0.225100	0.475657
C55	C	-1.931496	-0.271820	-0.265914
C56	C	-1.431496	0.228180	0.234086
C57	C	-2.155077	-0.271901	-1.265921
C58	C	-1.655077	0.228099	-0.765921
C59	C	-2.098574	-0.274926	-1.024342
C60	C	-1.598574	0.225074	-0.524342
C61	C	-1.938111	0.105867	-0.643594
C62	C	-1.438111	0.605867	-0.143594
C63	C	-1.885917	0.347440	-0.646656
C64	C	-1.385917	0.847440	-0.146656
