data_functionalizedCrystal
_audit_creation_method	'MofGen! by Chris Wilmer'
_symmetry_space_group_name_H-M	'P1'
_symmetry_Int_Tables_number	1
_symmetry_cell_setting	triclinic
loop_
_symmetry_equiv_pos_as_xyz
  x,y,z
_cell_length_a	19.077399
_cell_length_b	19.077068
_cell_length_c	19.077314
_cell_angle_alpha	89.878373
_cell_angle_beta	94.665049
_cell_angle_gamma	94.530727
loop_
_atom_site_label
_atom_site_type_symbol
_atom_site_fract_x
_atom_site_fract_y
_atom_site_fract_z
Zn1	Zn	1.052326	-0.223299	-0.364730
Zn2	Zn	1.552326	0.276701	0.135270
Zn3	Zn	1.051855	-0.345546	-0.251957
Zn4	Zn	1.551855	0.154454	0.248043
Zn5	Zn	0.938797	-0.232407	-0.251964
Zn6	Zn	1.438797	0.267593	0.248036
Zn7	Zn	0.929288	-0.345510	-0.374525
Zn8	Zn	1.429288	0.154490	0.125475
O9	O	0.993067	-0.286690	-0.310794
O10	O	1.493067	0.213310	0.189206
O11	O	1.151071	-0.235718	-0.345668
O12	O	1.651071	0.264282	0.154332
O13	O	1.040640	-0.334365	-0.153469
O14	O	1.540640	0.165635	0.346531
O15	O	0.958033	-0.132705	-0.262826
O16	O	1.458033	0.367295	0.237174
O17	O	1.150725	-0.325533	-0.262814
O18	O	1.650725	0.174467	0.237186
O19	O	1.041443	-0.126013	-0.345675
O20	O	1.541443	0.373987	0.154325
O21	O	0.957577	-0.251242	-0.153474
O22	O	1.457577	0.248758	0.346526
O23	O	0.838728	-0.251207	-0.272324
O24	O	1.338728	0.248793	0.227676
O25	O	0.941827	-0.325471	-0.471715
O26	O	1.441827	0.174529	0.028285
O27	O	0.831742	-0.334303	-0.362370
O28	O	1.331742	0.165697	0.137630
O29	O	1.032222	-0.235683	-0.464518
O30	O	1.532222	0.264317	0.035482
O31	O	1.031420	-0.444035	-0.272312
O32	O	1.531420	0.055965	0.227688
O33	O	0.941370	-0.444009	-0.362363
O34	O	1.441370	0.055991	0.137637
C35	C	0.809615	-0.293740	-0.318411
C36	C	1.309615	0.206260	0.181589
C37	C	0.731133	-0.296773	-0.321687
C38	C	1.231133	0.203227	0.178313
C39	C	0.697878	-0.254863	-0.276415
C40	C	1.197878	0.245137	0.223585
C41	C	0.624135	-0.257718	-0.279493
C42	C	1.124135	0.242282	0.220507
C43	C	0.583648	-0.302480	-0.327847
C44	C	1.083648	0.197520	0.172153
C45	C	0.616908	-0.344394	-0.373121
C46	C	1.116908	0.155606	0.126879
C47	C	0.690650	-0.341542	-0.370039
C48	C	1.190650	0.158458	0.129961
C49	C	0.362716	-0.315660	-0.342081
C50	C	0.862716	0.184340	0.157919
C51	C	0.288970	-0.318507	-0.345161
C52	C	0.788970	0.181493	0.154839
C53	C	0.296202	-0.231832	-0.251532
C54	C	0.796202	0.268168	0.248468
C55	C	0.369945	-0.228981	-0.248457
C56	C	0.869945	0.271019	0.251543
C57	C	0.403198	-0.270898	-0.293729
C58	C	0.903198	0.229102	0.206271
N59	N	0.508271	-0.305398	-0.330996
N60	N	1.008271	0.194602	0.169004
N61	N	0.478574	-0.267983	-0.290576
N62	N	0.978574	0.232017	0.209424
C63	C	0.985331	-0.469559	-0.318414
C64	C	1.485331	0.030441	0.181586
C65	C	0.982085	-0.547788	-0.321695
C66	C	1.482085	-0.047788	0.178305
C67	C	1.027478	-0.584528	-0.276387
C68	C	1.527478	-0.084528	0.223613
C69	C	1.024429	-0.658032	-0.279477
C70	C	1.524429	-0.158032	0.220523
C71	C	0.975984	-0.694795	-0.327871
C72	C	1.475984	-0.194795	0.172129
C73	C	0.930589	-0.658050	-0.373184
C74	C	1.430589	-0.158050	0.126816
C75	C	0.933642	-0.584547	-0.370097
C76	C	1.433642	-0.084547	0.129903
C77	C	0.961826	-0.914626	-0.342130
C78	C	1.461826	-0.414626	0.157870
C79	C	0.958776	-0.988134	-0.345212
C80	C	1.458776	-0.488134	0.154788
C81	C	1.052617	-0.988110	-0.251506
C82	C	1.552617	-0.488110	0.248494
C83	C	1.055663	-0.914606	-0.248421
C84	C	1.555663	-0.414606	0.251579
C85	C	1.010270	-0.877868	-0.293736
C86	C	1.510270	-0.377868	0.206264
N87	N	0.972865	-0.769928	-0.331029
N88	N	1.472865	-0.269928	0.168971
N89	N	1.013393	-0.802736	-0.290581
N90	N	1.513393	-0.302736	0.209419
C91	C	1.177234	-0.279613	-0.303148
C92	C	1.677234	0.220387	0.196852
C93	C	1.255715	-0.276598	-0.299889
C94	C	1.755715	0.223402	0.200111
C95	C	0.986016	-0.279557	-0.494368
C96	C	1.486016	0.220443	0.005632
C97	C	0.983012	-0.276518	-0.572596
C98	C	1.483012	0.223482	-0.072596
C99	C	1.000851	-0.103106	-0.303159
C100	C	1.500851	0.396894	0.196841
C101	C	1.004168	-0.024873	-0.299905
C102	C	1.504168	0.475127	0.200095
C103	C	1.024844	-0.318365	-0.609348
C104	C	1.524844	0.181635	-0.109348
C105	C	1.022021	-0.315500	-0.682851
C106	C	1.522021	0.184500	-0.182851
C107	C	0.977363	-0.270791	-0.719601
C108	C	1.477363	0.229209	-0.219601
C109	C	0.935529	-0.228940	-0.682844
C110	C	1.435529	0.271060	-0.182844
C111	C	0.938356	-0.231801	-0.609342
C112	C	1.438356	0.268199	-0.109342
C113	C	0.964275	-0.257589	-0.939429
C114	C	1.464275	0.242411	-0.439429
C115	C	0.961450	-0.254733	-1.012937
C116	C	1.461450	0.245267	-0.512937
C117	C	1.047943	-0.341292	-1.012939
C118	C	1.547943	0.158708	-0.512939
C119	C	1.050763	-0.344153	-0.939435
C120	C	1.550763	0.155847	-0.439435
C121	C	1.008932	-0.302298	-0.902684
C122	C	1.508932	0.197702	-0.402684
N123	N	0.974475	-0.267864	-0.794734
N124	N	1.474475	0.232136	-0.294734
N125	N	1.011824	-0.305223	-0.827553
N126	N	1.511824	0.194777	-0.327553
C127	C	1.000132	-0.293743	-0.127931
C128	C	1.500132	0.206257	0.372069
C129	C	1.003281	-0.296580	-0.049689
C130	C	1.503281	0.203420	0.450311
H131	H	0.389782	-0.349792	-0.378944
H132	H	0.889782	0.150208	0.121056
H133	H	0.583937	-0.380844	-0.412488
H134	H	1.083937	0.119156	0.087512
H135	H	1.066925	-0.554600	-0.236977
H136	H	1.566925	-0.054600	0.263023
H137	H	0.402905	-0.192536	-0.209078
H138	H	0.902905	0.307464	0.290922
O139	O	1.073387	-0.697660	-0.230608
O140	O	1.573387	-0.197660	0.269392
H141	H	1.064018	-0.686203	-0.175272
H142	H	1.564018	-0.186203	0.324728
O143	O	0.906524	-1.027796	-0.397409
O144	O	1.406524	-0.527796	0.102591
H145	H	0.917059	-1.011057	-0.451565
H146	H	1.417059	-0.511057	0.048435
O147	O	0.878330	-0.697703	-0.425373
O148	O	1.378330	-0.197703	0.074627
H149	H	0.907133	-0.728552	-0.461296
H150	H	1.407133	-0.228552	0.038704
O151	O	0.919157	-0.212443	-0.899805
O152	O	1.419157	0.287557	-0.399805
H153	H	0.883184	-0.246619	-0.869111
H154	H	1.383184	0.253381	-0.369111
O155	O	1.067128	-0.360655	-0.722484
O156	O	1.567128	0.139345	-0.222484
H157	H	1.123601	-0.347022	-0.705571
H158	H	1.623601	0.152978	-0.205571
O159	O	1.107923	-0.874962	-0.196226
O160	O	1.607923	-0.374962	0.303774
H161	H	1.097395	-0.891722	-0.142075
H162	H	1.597395	-0.391722	0.357925
H163	H	0.924865	-0.884719	-0.379026
H164	H	1.424865	-0.384719	0.120974
H165	H	0.256007	-0.354957	-0.384541
H166	H	0.756007	0.145043	0.115459
H167	H	1.089574	-1.018031	-0.214615
H168	H	1.589574	-0.518031	0.285385
O169	O	1.098947	-0.392357	-0.899795
O170	O	1.598947	0.107643	-0.399795
H171	H	1.127571	-0.420967	-0.937700
H172	H	1.627571	0.079033	-0.437700
H173	H	0.597063	-0.223595	-0.242624
H174	H	1.097063	0.276405	0.257376
O175	O	0.884675	-0.544916	-0.418956
O176	O	1.384675	-0.044916	0.081044
H177	H	0.850468	-0.582827	-0.453120
H178	H	1.350468	-0.082827	0.046880
H179	H	0.717724	-0.375670	-0.406904
H180	H	1.217724	0.124330	0.093096
H181	H	1.061212	-0.354769	-0.579431
H182	H	1.561212	0.145231	-0.079431
H183	H	1.082001	-0.375366	-1.042869
H184	H	1.582001	0.124634	-0.542869
H185	H	0.925085	-0.218320	-1.042857
H186	H	1.425085	0.281680	-0.542857
H187	H	0.899170	-0.192534	-0.712772
H188	H	1.399170	0.307466	-0.212772
O189	O	0.260327	-0.186646	-0.202693
O190	O	0.760327	0.313354	0.297307
H191	H	0.227022	-0.150961	-0.234155
H192	H	0.727022	0.349039	0.265845
H193	H	0.730838	-0.218407	-0.237045
H194	H	1.230838	0.281593	0.262955
O195	O	0.893239	-0.186666	-0.569696
O196	O	1.393239	0.313334	-0.069696
H197	H	0.861706	-0.155100	-0.607599
H198	H	1.361706	0.344900	-0.107599
