data_functionalizedCrystal
_audit_creation_method	'MofGen! by Chris Wilmer'
_symmetry_space_group_name_H-M	'P1'
_symmetry_Int_Tables_number	1
_symmetry_cell_setting	triclinic
loop_
_symmetry_equiv_pos_as_xyz
  x,y,z
_cell_length_a	20.919309
_cell_length_b	14.628931
_cell_length_c	14.628931
_cell_angle_alpha	90.000000
_cell_angle_beta	62.591806
_cell_angle_gamma	57.441951
loop_
_atom_site_label
_atom_site_type_symbol
_atom_site_fract_x
_atom_site_fract_y
_atom_site_fract_z
Zr1	Zr	0.700763	-0.158947	0.919621
O2	O	0.834326	-0.312340	0.781093
O3	O	0.567200	-0.106772	0.956932
O4	O	0.700763	-0.304908	0.964365
O5	O	0.700763	0.036229	0.773660
O6	O	0.700763	-0.304908	1.114797
O7	O	0.700763	-0.114203	0.773660
O8	O	0.461843	0.049522	1.101500
O9	O	0.939682	-0.318201	0.786957
O10	O	0.622136	-0.090745	1.091338
O11	O	0.622136	0.021521	0.979073
O12	O	0.779389	-0.211760	0.987825
O13	O	0.779389	-0.099494	0.875559
Zr14	Zr	0.700762	0.080975	1.159543
Zr15	Zr	0.700762	-0.158947	1.159542
Zr16	Zr	0.700762	0.080974	0.919621
Zr17	Zr	0.868794	-0.168296	0.928973
Zr18	Zr	0.532731	0.090323	1.150191
O19	O	0.834324	0.028799	1.122231
O20	O	0.834325	-0.312339	1.122231
O21	O	0.834325	0.028798	0.781093
O22	O	0.567199	0.234367	1.298070
O23	O	0.567200	-0.106771	1.298070
O24	O	0.567200	0.234366	0.956932
O25	O	0.700762	-0.114202	1.305503
O26	O	0.700762	0.226936	1.114798
O27	O	0.700762	0.226936	0.964366
O28	O	0.700762	0.036230	1.305504
O29	O	0.939682	-0.318201	0.977663
O30	O	0.461843	0.240228	1.101501
O31	O	0.461842	0.240229	1.292207
O32	O	0.461843	0.049523	1.292206
O33	O	0.939682	-0.127495	0.786957
O34	O	0.939681	-0.127495	0.977663
O35	O	0.622136	0.133787	1.091339
O36	O	0.622136	0.021521	1.203604
O37	O	0.779389	-0.099494	1.100090
O38	O	0.779389	0.012772	0.987825
C39	C	0.490581	-0.027293	1.027884
C40	C	0.419247	-0.023324	1.023914
C41	C	0.700763	-0.038987	0.739476
C42	C	0.700763	-0.038987	0.637623
C43	C	0.700762	0.261119	1.039582
C44	C	0.700762	0.362972	1.039582
C45	C	0.385735	-0.080061	1.080647
C46	C	0.318704	-0.076321	1.076919
C47	C	0.285192	-0.015850	1.016451
C48	C	0.318708	0.040894	0.959716
C49	C	0.385732	0.037160	0.963451
C50	C	0.082817	-0.001638	1.002249
C51	C	0.015790	0.002088	0.998516
C52	C	0.015790	-0.115125	1.115721
C53	C	0.082820	-0.118860	1.119445
C54	C	0.116326	-0.062111	1.062715
C55	C	0.216679	-0.012029	1.012637
C56	C	0.184834	-0.065926	1.066536
C57	C	0.910944	-0.050680	1.051280
C58	C	0.982277	-0.054649	1.055250
C59	C	0.700763	-0.339092	1.039581
C60	C	0.700763	-0.440945	1.039581
C61	C	0.778770	0.348350	0.988232
C62	C	0.778771	0.453619	0.988231
C63	C	0.622755	0.021045	0.643563
C64	C	0.622754	0.021046	0.538294
C65	C	0.700762	-0.038986	1.339687
C66	C	0.700762	-0.038986	1.441540
C67	C	0.490580	-0.027292	1.327989
C68	C	0.419246	-0.023323	1.425872
C69	C	0.490580	0.272813	1.027884
C70	C	0.419246	0.378635	1.023914
C71	C	0.490580	0.272814	1.327990
C72	C	0.419246	0.378636	1.425873
C73	C	0.910945	-0.350786	0.751173
C74	C	0.982279	-0.456608	0.653290
C75	C	0.910944	-0.050681	0.751174
C76	C	0.982278	-0.054649	0.653291
C77	C	0.910944	-0.350786	1.051279
C78	C	0.982278	-0.456608	1.055249
C79	C	0.385747	-0.080071	1.413238
C80	C	0.318731	-0.076365	1.505200
C81	C	0.285210	-0.015903	1.609797
C82	C	0.318716	0.040846	1.622430
C83	C	0.385735	0.037132	1.530468
C84	C	0.385747	0.486942	1.080651
C85	C	0.318731	0.586381	1.076917
C86	C	0.285210	0.577512	1.016452
C87	C	0.318716	0.469193	0.959708
C88	C	0.385736	0.369756	0.963436
C89	C	0.385746	0.369729	1.530451
C90	C	0.318730	0.469151	1.622433
C91	C	0.285209	0.577477	1.609833
C92	C	0.318715	0.586381	1.505243
C93	C	0.385735	0.486961	1.413265
C94	C	1.015786	-0.447702	0.548712
C95	C	1.082824	-0.547125	0.456732
C96	C	1.116348	-0.655452	0.469332
C97	C	1.082838	-0.664355	0.573921
C98	C	1.015806	-0.564934	0.665899
C99	C	1.015784	0.002088	0.665926
C100	C	1.082819	-0.001646	0.573964
C101	C	1.116342	-0.062111	0.469368
C102	C	1.082834	-0.118855	0.456735
C103	C	1.015805	-0.115128	0.548696
C104	C	1.015777	-0.447701	1.115725
C105	C	1.082794	-0.547122	1.119477
C106	C	1.116315	-0.655449	1.062745
C107	C	1.082810	-0.664353	1.002267
C108	C	1.015789	-0.564933	0.998523
H109	H	0.291418	-0.122520	1.123117
O110	O	0.282536	0.459659	0.894515
H111	H	0.338777	0.410076	0.807566
O112	O	0.282550	0.106068	1.735246
H113	H	0.230311	0.099122	1.797059
H114	H	-0.011498	-0.161327	1.161910
H115	H	0.413002	0.083350	1.540771
O116	O	0.180536	0.053186	0.947412
H117	H	0.236803	0.016188	0.860476
H118	H	0.413029	0.281533	1.540731
H119	H	0.291459	-0.122577	1.494893
H120	H	1.110142	-0.752567	0.584168
H121	H	0.988525	-0.572199	0.751049
O122	O	1.118938	0.059581	0.587603
H123	H	1.149452	0.024041	0.635798
O124	O	0.979659	-0.574544	0.933293
H125	H	0.992521	-0.534465	0.869235
H126	H	0.413040	-0.129320	1.328078
H127	H	0.767551	-0.090388	0.436621
O128	O	0.979647	0.067288	0.778736
H129	H	1.014228	0.106091	0.772055
H130	H	1.110113	-0.752566	0.956079
O131	O	0.421889	0.098357	0.902279
H132	H	0.452444	0.062801	0.813901
O133	O	0.421889	0.496533	1.145875
H134	H	0.474116	0.409200	1.138954
H135	H	1.110068	-0.539850	1.168723
H136	H	0.291412	0.674594	1.495000
O137	O	0.212913	0.684708	1.709042
H138	H	0.195247	0.660305	1.783875
H139	H	0.291458	0.674569	1.123130
H140	H	0.555968	0.072433	0.543206
H141	H	0.767547	-0.090379	0.554603
H142	H	1.170922	-0.065137	0.394497
H143	H	0.291456	0.461881	1.707586
H144	H	0.212118	-0.115156	1.115774
O145	O	0.212909	0.684767	1.012454
H146	H	0.195241	0.761566	1.062084
H147	H	0.413019	-0.129309	1.129881
O148	O	0.979621	-0.330871	1.176936
H149	H	1.035882	-0.324265	1.146223
H150	H	0.230637	-0.012887	1.684668
H151	H	1.110097	-0.539853	0.371580
O152	O	1.188613	-0.762680	1.066772
H153	H	1.206279	-0.738276	1.118347
O154	O	0.534289	0.089120	0.753531
H155	H	0.494903	0.181399	0.761149
O156	O	0.979669	-0.176324	0.535052
H157	H	0.927430	-0.163589	0.616563
O158	O	0.118968	-0.184085	1.184660
H159	H	0.084400	-0.222907	1.223490
H160	H	0.413002	0.281572	0.917237
O161	O	0.867241	0.228543	0.930010
H162	H	0.853356	0.164661	0.939161
H163	H	0.413001	0.494229	1.328115
O164	O	0.979640	-0.330870	0.535109
H165	H	1.014219	-0.341400	0.446931
H166	H	1.170929	-0.736398	0.394429
O167	O	1.118999	-0.184072	0.343916
H168	H	1.106133	-0.124181	0.296807
O169	O	-0.020371	0.067331	0.933311
H170	H	0.014179	0.106178	0.894502
H171	H	0.291413	0.090137	0.910488
O172	O	0.118958	0.059556	0.941052
H173	H	0.149501	0.023976	0.852682
O174	O	0.867245	0.437249	0.929985
H175	H	0.853362	0.522500	0.939115
H176	H	0.633977	0.453425	1.083538
O177	O	0.612280	0.575448	1.097834
H178	H	0.608393	0.534837	1.038424
