data_functionalizedCrystal
_audit_creation_method	'MofGen! by Chris Wilmer'
_symmetry_space_group_name_H-M	'P1'
_symmetry_Int_Tables_number	1
_symmetry_cell_setting	triclinic
loop_
_symmetry_equiv_pos_as_xyz
  x,y,z
_cell_length_a	12.594517
_cell_length_b	12.594516
_cell_length_c	12.594517
_cell_angle_alpha	90.001204
_cell_angle_beta	89.995598
_cell_angle_gamma	90.011773
loop_
_atom_site_label
_atom_site_type_symbol
_atom_site_fract_x
_atom_site_fract_y
_atom_site_fract_z
Zn1	Zn	1.627102	-0.423991	0.601663
Zn2	Zn	1.627064	-0.601919	0.423686
Zn3	Zn	1.449164	-0.423955	0.423714
Zn4	Zn	1.449101	-0.601928	0.601637
O5	O	1.538108	-0.512948	0.512675
O6	O	1.776042	-0.447605	0.578053
O7	O	1.603475	-0.578292	0.274743
O8	O	1.472810	-0.275014	0.447341
O9	O	1.776015	-0.578328	0.447294
O10	O	1.603540	-0.275041	0.578080
O11	O	1.472773	-0.447543	0.274764
O12	O	1.300210	-0.447552	0.447317
O13	O	1.472703	-0.578344	0.750586
O14	O	1.300164	-0.578308	0.578036
O15	O	1.603479	-0.447614	0.750605
O16	O	1.603415	-0.750866	0.447269
O17	O	1.472666	-0.750873	0.578009
C18	C	1.261567	-0.512928	0.512677
C19	C	1.143261	-0.512944	0.512704
C20	C	1.003250	-0.584192	0.583670
C21	C	1.074054	-0.610054	0.486529
C22	C	1.074029	-0.487129	0.609834
C23	C	1.003280	-0.538892	0.415479
C24	C	1.003248	-0.415922	0.538850
C25	C	1.074020	-0.441747	0.441642
C26	C	1.538058	-0.789489	0.512656
C27	C	1.538135	-0.907795	0.512684
C28	C	1.609331	-0.977005	0.441650
C29	C	1.635310	-1.047747	0.538796
C30	C	1.512289	-1.047852	0.415600
C31	C	1.564163	-0.976978	0.609881
C32	C	1.441097	-0.977077	0.486619
C33	C	1.467039	-1.047786	0.583832
C34	C	1.815728	-0.512970	0.512673
C35	C	1.934034	-0.512979	0.512672
C36	C	1.538088	-0.512984	0.790296
C37	C	1.538080	-0.513000	0.908601
C38	C	1.538186	-0.235327	0.512717
C39	C	1.538219	-0.117022	0.512734
C40	C	1.466949	-0.584076	1.048608
C41	C	1.440942	-0.486980	0.977808
C42	C	1.564039	-0.610085	0.977829
C43	C	1.512014	-0.415811	1.048587
C44	C	1.635156	-0.538982	1.048614
C45	C	1.609186	-0.441819	0.977847
C46	C	1.538105	-0.512946	1.236134
C47	C	1.538071	-0.512959	1.117828
H48	H	1.105107	-0.465280	0.691990
N49	N	1.337946	-0.459386	0.938800
N50	N	1.259522	-0.515843	0.961479
H51	H	1.186778	-0.496361	0.933934
H52	H	1.717409	-1.078792	0.560871
H53	H	1.489960	-0.333666	1.079539
N54	N	1.738126	-0.566604	1.087652
N55	N	1.811462	-0.587138	1.024009
H56	H	1.884186	-0.606655	1.051580
N57	N	0.964487	-0.566419	0.312375
N58	N	0.987900	-0.510300	0.233933
H59	H	0.960504	-0.529742	0.161117
H60	H	1.586001	-0.692207	0.946748
H61	H	1.406753	-0.644124	1.079678
N62	N	1.112762	-0.366164	0.366273
N63	N	1.088714	-0.270300	0.375276
H64	H	1.116076	-0.216921	0.322045
N65	N	0.964207	-0.313002	0.566663
N66	N	0.986828	-0.273512	0.654862
H67	H	0.959255	-0.200824	0.674517
H68	H	1.669550	-0.945927	0.381633
H69	H	1.585977	-0.945978	0.692076
N70	N	1.484818	-1.086885	0.312570
N71	N	1.465941	-1.023233	0.238805
H72	H	1.446547	-1.050795	0.166038
N73	N	1.391556	-1.086520	0.659310
N74	N	1.401206	-1.063579	0.755386
H75	H	1.347900	-1.090935	0.808696
N76	N	0.964256	-0.659793	0.658894
N77	N	0.988193	-0.651222	0.754828
H78	H	0.960652	-0.704616	0.807952
H79	H	1.669336	-0.381626	0.946974
H80	H	1.359021	-0.946009	0.464515
H81	H	1.105155	-0.692119	0.464393
