data_functionalizedCrystal
_audit_creation_method	'MofGen! by Chris Wilmer'
_symmetry_space_group_name_H-M	'P1'
_symmetry_Int_Tables_number	1
_symmetry_cell_setting	triclinic
loop_
_symmetry_equiv_pos_as_xyz
  x,y,z
_cell_length_a	14.044220
_cell_length_b	14.853567
_cell_length_c	13.930277
_cell_angle_alpha	90.000757
_cell_angle_beta	89.997723
_cell_angle_gamma	91.588096
loop_
_atom_site_label
_atom_site_type_symbol
_atom_site_fract_x
_atom_site_fract_y
_atom_site_fract_z
O1	O	1.257997	-0.217372	-0.079714
O2	O	1.757997	0.282628	0.420286
O3	O	0.982017	-0.209528	-0.079738
O4	O	1.482017	0.290472	0.420262
O5	O	1.127379	-0.082805	-0.079728
O6	O	1.627379	0.417195	0.420272
O7	O	1.112635	-0.344096	-0.079724
O8	O	1.612635	0.155904	0.420276
O9	O	1.127359	-0.082800	0.079934
O10	O	1.627359	0.417200	0.579934
O11	O	0.981997	-0.209524	0.079923
O12	O	1.481997	0.290476	0.579923
O13	O	1.257976	-0.217368	0.079948
O14	O	1.757976	0.282632	0.579948
Zn15	Zn	1.119983	-0.213445	0.105286
Zn16	Zn	1.619983	0.286555	0.605286
Zn17	Zn	1.120010	-0.213451	-0.105076
Zn18	Zn	1.620010	0.286549	0.394924
O19	O	1.112615	-0.344091	0.079938
O20	O	1.612615	0.155909	0.579938
C21	C	1.126701	-0.049161	0.000100
C22	C	1.626701	0.450839	0.500100
C23	C	1.124699	0.051082	0.000091
C24	C	1.624699	0.551082	0.500091
C25	C	0.946688	-0.206092	0.000089
C26	C	1.446688	0.293908	0.500089
C27	C	0.841449	-0.195851	0.000079
C28	C	1.341449	0.304149	0.500079
N29	N	1.119972	-0.213441	0.248852
N30	N	1.619972	0.286559	0.748852
C31	C	0.648763	-0.177127	0.000098
C32	C	1.148763	0.322873	0.500098
C33	C	0.591225	-0.249765	0.000103
C34	C	1.091225	0.250235	0.500103
C35	C	0.484008	-0.239347	0.000114
C36	C	0.984008	0.260653	0.500114
C37	C	0.755990	-0.187544	0.000088
C38	C	1.255990	0.312456	0.500088
C39	C	1.293306	-0.220803	0.000118
C40	C	1.793306	0.279197	0.500118
C41	C	1.398545	-0.231045	0.000122
C42	C	1.898545	0.268955	0.500122
C43	C	1.113293	-0.377735	0.000108
C44	C	1.613293	0.122265	0.500108
C45	C	1.115295	-0.477978	0.000110
C46	C	1.615295	0.022022	0.500110
C47	C	1.029888	0.471127	0.000101
C48	C	1.529888	0.971127	0.500101
C49	C	1.202581	0.478726	0.000116
C50	C	1.702581	0.978726	0.500116
C51	C	1.204464	0.384543	0.000111
C52	C	1.704464	0.884543	0.500111
C53	C	1.119057	0.333648	0.000102
C54	C	1.619057	0.833648	0.500102
C55	C	1.031768	0.376935	0.000098
C56	C	1.531768	0.876935	0.500098
C57	C	1.291751	0.341248	0.000124
C58	C	1.791751	0.841248	0.500124
C59	C	1.293637	0.247060	0.000120
C60	C	1.793637	0.747060	0.500120
C61	C	1.208229	0.196163	0.000104
C62	C	1.708229	0.696163	0.500104
C63	C	1.120937	0.239456	0.000099
C64	C	1.620937	0.739456	0.500099
C65	C	1.035530	0.188561	0.000090
C66	C	1.535530	0.688561	0.500090
C67	C	0.948237	0.231852	0.000079
C68	C	1.448237	0.731852	0.500079
C69	C	0.946360	0.326038	0.000083
C70	C	1.446360	0.826038	0.500083
C71	C	1.210105	0.101977	0.000100
C72	C	1.710105	0.601977	0.500100
C73	C	1.037410	0.094369	0.000088
C74	C	1.537410	0.594369	0.500088
N75	N	1.120029	-0.213449	-0.248642
N76	N	1.620029	0.286551	0.251358
C77	C	1.055641	-0.269540	0.701116
C78	C	1.555641	0.230460	1.201116
C79	C	1.184405	-0.157357	0.701095
C80	C	1.684405	0.342643	1.201095
C81	C	1.184394	-0.157353	0.600599
C82	C	1.684394	0.342647	1.100599
C83	C	1.120006	-0.213445	0.550357
C84	C	1.620006	0.286555	1.050357
C85	C	1.055630	-0.269540	0.600611
C86	C	1.555630	0.230460	1.100611
C87	C	1.248775	-0.101266	0.550338
C88	C	1.748775	0.398734	1.050338
C89	C	1.248767	-0.101260	0.449836
C90	C	1.748767	0.398740	0.949836
C91	C	1.184374	-0.157348	0.399592
C92	C	1.684374	0.342652	0.899592
C93	C	1.119995	-0.213445	0.449852
C94	C	1.619995	0.286555	0.949852
C95	C	1.055608	-0.269536	0.399611
C96	C	1.555608	0.230464	0.899611
C97	C	0.991223	-0.325629	0.449869
C98	C	1.491223	0.174371	0.949869
C99	C	0.991237	-0.325627	0.550368
C100	C	1.491237	0.174373	1.050368
C101	C	1.184360	-0.157349	0.299093
C102	C	1.684360	0.342651	0.799093
C103	C	1.055596	-0.269536	0.299106
C104	C	1.555596	0.230464	0.799106
H105	H	0.617501	-0.107120	0.000102
H106	H	1.117501	0.392880	0.500102
O107	O	0.945292	0.039475	0.000087
O108	O	1.445292	0.539475	0.500087
H109	H	0.884282	0.085403	0.000088
H110	H	1.384282	0.585403	0.500088
O111	O	0.856119	0.176957	0.000077
O112	O	1.356119	0.676957	0.500077
H113	H	0.852852	0.133864	-0.064999
H114	H	1.352852	0.633864	0.435001
O115	O	1.304248	0.055288	0.000113
O116	O	1.804248	0.555288	0.500113
H117	H	1.291209	-0.018757	0.000113
H118	H	1.791209	0.481243	0.500113
H119	H	1.236785	-0.111684	0.258178
H120	H	1.736785	0.388316	0.758178
O121	O	1.383859	0.396145	0.000146
O122	O	1.883859	0.896145	0.500146
H123	H	1.425646	0.379891	-0.064918
H124	H	1.925646	0.879891	0.435082
H125	H	1.301191	-0.055586	0.408921
H126	H	1.801191	0.444414	0.908921
O127	O	0.632633	-0.342506	0.000102
O128	O	1.132633	0.157494	0.500102
H129	H	0.573941	-0.394112	0.000115
H130	H	1.073941	0.105888	0.500115
H131	H	0.875291	0.361295	0.000074
H132	H	1.375291	0.861295	0.500074
H133	H	0.958816	0.506379	0.000088
H134	H	1.458816	1.006379	0.500088
O135	O	1.294696	0.533613	0.000136
O136	O	1.794696	1.033613	0.500136
H137	H	1.278725	0.606379	0.000136
H138	H	1.778725	1.106379	0.500136
H139	H	1.364716	0.211820	0.000128
H140	H	1.864716	0.711820	0.500128
H141	H	1.236832	-0.111694	0.742005
H142	H	1.736832	0.388306	1.242005
O143	O	0.921780	-0.386118	0.395661
O144	O	1.421780	0.113882	0.895661
H145	H	0.933943	-0.457389	0.414932
H146	H	1.433943	0.042611	0.914932
O147	O	0.921808	-0.386135	0.604571
O148	O	1.421808	0.113865	1.104571
H149	H	0.932645	-0.376720	0.682895
H150	H	1.432645	0.123280	1.182895
O151	O	0.986151	-0.330038	0.244916
O152	O	1.486151	0.169962	0.744916
H153	H	0.941392	-0.369044	0.296750
H154	H	1.441392	0.130956	0.796750
O155	O	0.986204	-0.330044	0.755313
O156	O	1.486204	0.169956	1.255313
H157	H	0.997028	-0.320629	0.833638
H158	H	1.497028	0.179371	1.333638
H159	H	1.301202	-0.055602	0.591248
H160	H	1.801202	0.444398	1.091248
