data_functionalizedCrystal
_audit_creation_method	'MofGen! by Chris Wilmer'
_symmetry_space_group_name_H-M	'P1'
_symmetry_Int_Tables_number	1
_symmetry_cell_setting	triclinic
loop_
_symmetry_equiv_pos_as_xyz
  x,y,z
_cell_length_a	21.395362
_cell_length_b	12.594516
_cell_length_c	21.395355
_cell_angle_alpha	90.011407
_cell_angle_beta	90.043940
_cell_angle_gamma	90.031933
loop_
_atom_site_label
_atom_site_type_symbol
_atom_site_fract_x
_atom_site_fract_y
_atom_site_fract_z
Zn1	Zn	0.957923	-0.423414	0.354617
Zn2	Zn	1.457923	0.076586	0.854617
Zn3	Zn	0.957853	-0.601379	0.249852
Zn4	Zn	1.457853	-0.101379	0.749852
Zn5	Zn	0.853138	-0.423464	0.249818
Zn6	Zn	1.353138	0.076536	0.749818
Zn7	Zn	0.853134	-0.601400	0.354557
Zn8	Zn	1.353134	-0.101400	0.854557
O9	O	0.905512	-0.512414	0.302211
O10	O	1.405512	-0.012414	0.802211
O11	O	1.045592	-0.446992	0.340759
O12	O	1.545592	0.053008	0.840759
O13	O	0.943934	-0.577789	0.162170
O14	O	1.443934	-0.077789	0.662170
O15	O	0.867069	-0.274511	0.263730
O16	O	1.367069	0.225489	0.763730
O17	O	1.045540	-0.577741	0.263789
O18	O	1.545540	-0.077741	0.763789
O19	O	0.944055	-0.274475	0.340725
O20	O	1.444055	0.225525	0.840725
O21	O	0.867001	-0.447076	0.162144
O22	O	1.367001	0.052924	0.662144
O23	O	0.765460	-0.447097	0.263672
O24	O	1.265460	0.052903	0.763672
O25	O	0.867063	-0.577779	0.442243
O26	O	1.367063	-0.077779	0.942243
O27	O	0.765457	-0.577827	0.340624
O28	O	1.265457	-0.077827	0.840624
O29	O	0.944051	-0.447013	0.442287
O30	O	1.444051	0.052987	0.942287
O31	O	0.943930	-0.750327	0.263731
O32	O	1.443930	-0.250327	0.763731
O33	O	0.866994	-0.750343	0.340657
O34	O	1.366994	-0.250343	0.840657
C35	C	0.742724	-0.512471	0.302138
C36	C	1.242724	-0.012471	0.802138
C37	C	0.673083	-0.512520	0.302122
C38	C	1.173083	-0.012520	0.802122
C39	C	0.640385	-0.580681	0.342130
C40	C	1.140385	-0.080681	0.842130
C41	C	0.574949	-0.580655	0.342158
C42	C	1.074949	-0.080655	0.842158
C43	C	0.542215	-0.512479	0.302167
C44	C	1.042215	-0.012479	0.802167
C45	C	0.574921	-0.444305	0.262155
C46	C	1.074921	0.055695	0.762155
C47	C	0.640355	-0.444326	0.262133
C48	C	1.140355	0.055674	0.762133
C49	C	0.438489	-0.503905	0.245761
C50	C	0.938489	-0.003905	0.745761
C51	C	0.373056	-0.503892	0.245782
C52	C	0.873056	-0.003892	0.745782
C53	C	0.340394	-0.512410	0.302236
C54	C	0.840394	-0.012410	0.802236
C55	C	0.373173	-0.520963	0.358670
C56	C	0.873173	-0.020963	0.858670
C57	C	0.438608	-0.520984	0.358648
C58	C	0.938608	-0.020984	0.858648
C59	C	0.471262	-0.512449	0.302187
C60	C	0.971262	-0.012449	0.802187
C61	C	0.236743	-0.580546	0.342278
C62	C	0.736743	-0.080546	0.842278
C63	C	0.171307	-0.580513	0.342307
C64	C	0.671307	-0.080513	0.842307
C65	C	0.171280	-0.444168	0.262298
C66	C	0.671280	0.055832	0.762298
C67	C	0.236715	-0.444196	0.262275
C68	C	0.736715	0.055804	0.762275
C69	C	0.269443	-0.512391	0.302264
C70	C	0.769443	-0.012391	0.802264
C71	C	0.905471	-0.788955	0.302205
C72	C	1.405471	-0.288955	0.802205
C73	C	0.905511	-0.907261	0.302223
C74	C	1.405511	-0.407261	0.802223
C75	C	0.863661	-0.976561	0.344034
C76	C	1.363661	-0.476561	0.844034
C77	C	0.848392	-1.047409	0.286856
C78	C	1.348392	-0.547409	0.786856
C79	C	0.920837	-1.047212	0.359410
C80	C	1.420837	-0.547212	0.859410
C81	C	0.890211	-0.976550	0.245015
C82	C	1.390211	-0.476550	0.745015
C83	C	0.962683	-0.976347	0.317608
C84	C	1.462683	-0.476347	0.817608
C85	C	0.947436	-1.047163	0.260391
C86	C	1.447436	-0.547163	0.760391
C87	C	1.068935	-0.512359	0.302284
C88	C	1.568935	-0.012359	0.802284
C89	C	1.138577	-0.512335	0.302315
C90	C	1.638577	-0.012335	0.802315
C91	C	0.905564	-0.512393	0.465634
C92	C	1.405564	-0.012393	0.965634
C93	C	0.905586	-0.512384	0.535275
C94	C	1.405586	-0.012384	1.035275
C95	C	0.905570	-0.234793	0.302231
C96	C	1.405570	0.265207	0.802231
C97	C	0.905595	-0.116488	0.302239
C98	C	1.405595	0.383512	0.802239
C99	C	0.905496	-0.512359	0.139423
C100	C	1.405496	-0.012359	0.639423
C101	C	0.905596	-0.512068	0.069782
C102	C	1.405596	-0.012068	0.569782
C103	C	0.945672	-0.444291	0.568012
C104	C	1.445672	0.055709	1.068012
C105	C	0.945671	-0.444245	0.633448
C106	C	1.445671	0.055755	1.133448
C107	C	0.905591	-0.512311	0.666144
C108	C	1.405591	-0.012311	1.166144
C109	C	0.865497	-0.580408	0.633399
C110	C	1.365497	-0.080408	1.133399
C111	C	0.865495	-0.580445	0.567965
C112	C	1.365495	-0.080445	1.067965
C113	C	0.900630	-0.608151	0.769815
C114	C	1.400630	-0.108151	1.269815
C115	C	0.900636	-0.608116	0.835248
C116	C	1.400636	-0.108116	1.335248
C117	C	0.905595	-0.512199	0.867965
C118	C	1.405595	-0.012199	1.367965
C119	C	0.910560	-0.416312	0.835241
C120	C	1.410560	0.083688	1.335241
C121	C	0.910557	-0.416349	0.769806
C122	C	1.410557	0.083651	1.269806
C123	C	0.905589	-0.512279	0.737096
C124	C	1.405589	-0.012279	1.237096
C125	C	0.945682	-0.444051	0.971654
C126	C	1.445682	0.055949	1.471654
C127	C	0.945677	-0.444003	1.037091
C128	C	1.445677	0.055997	1.537091
C129	C	0.865506	-0.580176	1.037041
C130	C	1.365506	-0.080176	1.537041
C131	C	0.865508	-0.580214	0.971605
C132	C	1.365508	-0.080214	1.471605
C133	C	0.905599	-0.512153	0.938916
C134	C	1.405599	-0.012153	1.438916
H135	H	0.667028	-0.636209	0.374694
H136	H	1.167028	-0.136209	0.874694
H137	H	0.465294	-0.527945	0.404598
H138	H	0.965294	-0.027945	0.904598
H139	H	0.548264	-0.388794	0.229595
H140	H	1.048264	0.111206	0.729595
H141	H	0.933766	-1.078251	0.407766
H142	H	1.433766	-0.578251	0.907766
H143	H	0.832862	-0.635825	0.660024
H144	H	1.332862	-0.135825	1.160024
H145	H	0.144628	-0.388653	0.229739
H146	H	0.644628	0.111347	0.729739
H147	H	0.263392	-0.636069	0.374843
H148	H	0.763392	-0.136069	0.874843
H149	H	0.548321	-0.636159	0.374740
H150	H	1.048321	-0.136159	0.874740
H151	H	0.263338	-0.388697	0.229692
H152	H	0.763338	0.111303	0.729692
H153	H	0.346372	-0.496933	0.199830
H154	H	0.846372	0.003067	0.699830
H155	H	0.978319	-0.388548	1.063744
H156	H	1.478319	0.111452	1.563744
H157	H	0.832870	-0.635669	0.944951
H158	H	1.332870	-0.135669	1.444951
H159	H	0.144685	-0.636015	0.374891
H160	H	0.644685	-0.136015	0.874891
H161	H	0.832866	-0.635585	1.063661
H162	H	1.332866	-0.135585	1.563661
H163	H	0.346582	-0.527898	0.404640
H164	H	0.846582	-0.027898	0.904640
H165	H	0.465077	-0.496964	0.199786
H166	H	0.965077	0.003036	0.699786
H167	H	0.896598	-0.686193	0.861887
H168	H	1.396598	-0.186193	1.361887
H169	H	0.832849	-0.635892	0.541311
H170	H	1.332849	-0.135892	1.041311
H171	H	0.914598	-0.338275	0.743165
H172	H	1.414598	0.161725	1.243165
H173	H	0.666978	-0.388818	0.229553
H174	H	1.166978	0.111182	0.729553
H175	H	1.010983	-0.945114	0.330634
H176	H	1.510983	-0.445114	0.830634
H177	H	0.828207	-0.945559	0.379340
H178	H	1.328207	-0.445559	0.879340
H179	H	0.896424	-0.686239	0.743182
H180	H	1.396424	-0.186239	1.243182
H181	H	0.800081	-1.078645	0.273857
H182	H	1.300081	-0.578645	0.773857
H183	H	0.877226	-0.945639	0.196646
H184	H	1.377226	-0.445639	0.696646
H185	H	0.982863	-1.077968	0.224999
H186	H	1.482863	-0.577968	0.724999
H187	H	0.914599	-0.338207	0.861877
H188	H	1.414599	0.161793	1.361877
H189	H	0.978317	-0.388869	0.541401
H190	H	1.478317	0.111131	1.041401
H191	H	0.978313	-0.388790	0.660108
H192	H	1.478313	0.111210	1.160108
H193	H	0.978323	-0.388625	0.945037
H194	H	1.478323	0.111375	1.445037
