data_functionalizedCrystal
_audit_creation_method	'MofGen! by Chris Wilmer'
_symmetry_space_group_name_H-M	'P1'
_symmetry_Int_Tables_number	1
_symmetry_cell_setting	triclinic
loop_
_symmetry_equiv_pos_as_xyz
  x,y,z
_cell_length_a	14.971486
_cell_length_b	13.101039
_cell_length_c	14.044220
_cell_angle_alpha	86.332523
_cell_angle_beta	88.401503
_cell_angle_gamma	93.356744
loop_
_atom_site_label
_atom_site_type_symbol
_atom_site_fract_x
_atom_site_fract_y
_atom_site_fract_z
O1	O	1.201174	0.085098	0.118316
O2	O	1.534507	0.418431	0.451650
O3	O	1.867841	0.751765	0.784983
O4	O	0.941941	0.085126	0.133109
O5	O	1.275274	0.418460	0.466442
O6	O	1.608607	0.751793	0.799775
O7	O	1.067666	0.085103	-0.012276
O8	O	1.400999	0.418436	0.321057
O9	O	1.734332	0.751769	0.654391
O10	O	1.075449	0.085122	0.263701
O11	O	1.408782	0.418455	0.597034
O12	O	1.742116	0.751789	0.930368
O13	O	1.058646	-0.085326	-0.001827
O14	O	1.391980	0.248008	0.331506
O15	O	1.725313	0.581341	0.664839
O16	O	0.932922	-0.085302	0.143557
O17	O	1.266255	0.248032	0.476890
O18	O	1.599588	0.581365	0.810224
O19	O	1.192155	-0.085330	0.128765
O20	O	1.525488	0.248003	0.462098
O21	O	1.858821	0.581337	0.795432
Zn22	Zn	1.061106	-0.112375	0.137820
Zn23	Zn	1.394439	0.220958	0.471153
Zn24	Zn	1.727773	0.554292	0.804487
Zn25	Zn	1.072989	0.112171	0.124054
Zn26	Zn	1.406323	0.445505	0.457387
Zn27	Zn	1.739656	0.778838	0.790720
O28	O	1.066430	-0.085306	0.274149
O29	O	1.399763	0.248027	0.607483
O30	O	1.733096	0.581360	0.940816
C31	C	0.904054	-0.000084	0.137671
C32	C	1.237388	0.333249	0.471004
C33	C	1.570721	0.666582	0.804338
C34	C	0.804602	-0.000074	0.135688
C35	C	1.137935	0.333260	0.469021
C36	C	1.471268	0.666593	0.802354
N37	N	1.053003	-0.265622	0.147214
N38	N	1.386336	0.067711	0.480548
N39	N	1.719669	0.401045	0.813881
C40	C	0.754105	-0.000069	0.221098
C41	C	1.087438	0.333264	0.554431
C42	C	1.420772	0.666597	0.887764
C43	C	0.660658	-0.000085	0.219230
C44	C	0.993991	0.333249	0.552563
C45	C	1.327324	0.666582	0.885897
C46	C	0.617709	-0.000097	0.131951
C47	C	0.951042	0.333236	0.465284
C48	C	1.284376	0.666569	0.798618
C49	C	0.668212	-0.000105	0.046535
C50	C	1.001546	0.333228	0.379868
C51	C	1.334879	0.666562	0.713201
C52	C	0.761658	-0.000097	0.048404
C53	C	1.094991	0.333236	0.381737
C54	C	1.428324	0.666570	0.715070
C55	C	0.473442	-0.000119	0.042645
C56	C	0.806776	0.333214	0.375978
C57	C	1.140109	0.666547	0.709312
C58	C	0.379991	-0.000125	0.040775
C59	C	0.713324	0.333208	0.374108
C60	C	1.046657	0.666541	0.707442
C61	C	0.372443	-0.000107	0.213471
C62	C	0.705776	0.333226	0.546805
C63	C	1.039109	0.666560	0.880138
C64	C	0.465888	-0.000099	0.215340
C65	C	0.799221	0.333234	0.548674
C66	C	1.132555	0.666568	0.882007
C67	C	0.516385	-0.000105	0.129923
C68	C	0.849718	0.333229	0.463257
C69	C	1.183052	0.666562	0.796590
C70	C	1.041978	-0.474663	0.160005
C71	C	1.375311	-0.141329	0.493338
C72	C	1.708645	0.192004	0.826671
C73	C	1.092121	-0.525548	0.101864
C74	C	1.425454	-0.192214	0.435198
C75	C	1.758788	0.141119	0.768531
C76	C	1.085987	-0.641865	0.108981
C77	C	1.419320	-0.308532	0.442314
C78	C	1.752654	0.024802	0.775648
C79	C	1.048111	-0.358335	0.152889
C80	C	1.381445	-0.025001	0.486223
C81	C	1.714778	0.308332	0.819556
C82	C	1.230041	-0.000117	0.124202
C83	C	1.563374	0.333216	0.457536
C84	C	1.896708	0.666549	0.790869
C85	C	1.329494	-0.000121	0.126185
C86	C	1.662828	0.333212	0.459519
C87	C	1.996161	0.666546	0.792852
C88	C	1.059750	-0.000112	-0.042370
C89	C	1.393083	0.333222	0.290963
C90	C	1.726416	0.666555	0.624297
C91	C	1.049588	-0.000112	-0.147607
C92	C	1.382922	0.333222	0.185726
C93	C	1.716255	0.666555	0.519059
N94	N	1.081099	0.265418	0.114652
N95	N	1.414433	0.598752	0.447985
N96	N	1.747766	0.932085	0.781318
C97	C	1.031013	-0.000095	-0.340291
C98	C	1.364346	0.333238	-0.006957
C99	C	1.697679	0.666572	0.326376
C100	C	1.103079	-0.000100	-0.397842
C101	C	1.436413	0.333234	-0.064509
C102	C	1.769746	0.666567	0.268825
C103	C	1.092743	-0.000090	-0.505058
C104	C	1.426077	0.333243	-0.171724
C105	C	1.759410	0.666576	0.161609
C106	C	1.041347	-0.000104	-0.233065
C107	C	1.374680	0.333229	0.100268
C108	C	1.708014	0.666562	0.433602
C109	C	1.074346	-0.000090	0.304243
C110	C	1.407679	0.333244	0.637577
C111	C	1.741013	0.666577	0.970910
C112	C	1.084508	-0.000083	0.409480
C113	C	1.417841	0.333250	0.742814
C114	C	1.751174	0.666584	1.076147
H115	H	0.789067	-0.000058	0.292170
H116	H	1.122400	0.333275	0.625504
H117	H	1.455734	0.666608	0.958837
H118	H	0.331323	-0.000107	0.283021
H119	H	0.664656	0.333226	0.616354
H120	H	0.997990	0.666560	0.949688
F121	F	0.334282	-0.000165	-0.052115
F122	F	0.667615	0.333168	0.281218
F123	F	1.000949	0.666501	0.614552
F124	F	0.511596	-0.000075	0.308232
F125	F	0.844929	0.333258	0.641565
F126	F	1.178262	0.666592	0.974898
H127	H	1.139657	-0.481754	0.046745
H128	H	1.472991	-0.148421	0.380078
H129	H	1.806324	0.184912	0.713411
H130	H	1.172544	-0.000038	-0.366596
H131	H	1.505877	0.333295	-0.033263
H132	H	1.839211	0.666628	0.300071
F133	F	0.979851	-0.531898	0.232049
F134	F	1.313184	-0.198564	0.565382
F135	F	1.646517	0.134769	0.898715
H136	H	0.619547	-0.000080	0.288780
H137	H	0.952880	0.333254	0.622113
H138	H	1.286214	0.666587	0.955446
F139	F	0.940228	-0.000080	-0.381135
F140	F	1.273561	0.333254	-0.047801
F141	F	1.606895	0.666587	0.285532
F142	F	0.527183	-0.000129	-0.048266
F143	F	0.860516	0.333205	0.285067
F144	F	1.193850	0.666538	0.618401
F145	F	0.622500	-0.000125	-0.046354
F146	F	0.955834	0.333208	0.286979
F147	F	1.289167	0.666542	0.620312
H148	H	0.802771	-0.000100	-0.021146
H149	H	1.136104	0.333233	0.312187
H150	H	1.469438	0.666567	0.645521
