data_functionalizedCrystal
_audit_creation_method	'MofGen! by Chris Wilmer'
_symmetry_space_group_name_H-M	'P1'
_symmetry_Int_Tables_number	1
_symmetry_cell_setting	triclinic
loop_
_symmetry_equiv_pos_as_xyz
  x,y,z
_cell_length_a	29.917948
_cell_length_b	29.917021
_cell_length_c	29.913391
_cell_angle_alpha	60.005297
_cell_angle_beta	60.010472
_cell_angle_gamma	59.993667
loop_
_atom_site_label
_atom_site_type_symbol
_atom_site_fract_x
_atom_site_fract_y
_atom_site_fract_z
O1	O	0.061938	-0.653075	0.546110
O2	O	0.561938	-0.153075	1.046110
O3	O	0.023328	-0.508466	0.440017
O4	O	0.523328	-0.008466	0.940017
O5	O	0.114898	-0.599963	0.439941
O6	O	0.614898	-0.099963	0.939941
O7	O	-0.029633	-0.561578	0.546186
O8	O	0.470367	-0.061578	1.046186
O9	O	0.145278	-0.569587	0.470242
O10	O	0.645278	-0.069587	0.970242
O11	O	0.053708	-0.478090	0.470318
O12	O	0.553708	0.021910	0.970318
O13	O	0.092318	-0.622699	0.576411
O14	O	0.592318	-0.122699	1.076411
Zn15	Zn	0.077836	-0.545572	0.528175
Zn16	Zn	0.577836	-0.045572	1.028175
Zn17	Zn	0.037809	-0.585593	0.488253
Zn18	Zn	0.537809	-0.085593	0.988253
O19	O	0.000747	-0.531202	0.576487
O20	O	0.500747	-0.031202	1.076487
N21	N	0.105154	-0.518262	0.555424
N22	N	0.605154	-0.018262	1.055424
N23	N	0.010496	-0.612908	0.461004
N24	N	0.510496	-0.112908	0.961004
C25	C	0.164136	-0.309209	0.614352
C26	C	0.664136	0.190791	1.114352
C27	C	0.164251	-0.459335	0.764424
C28	C	0.664251	0.040665	1.264424
C29	C	0.164150	-0.459313	0.614341
C30	C	0.664150	0.040687	1.114341
C31	C	0.314282	-0.459305	0.614278
C32	C	0.814282	0.040695	1.114278
C33	C	0.180666	-0.358742	0.630849
C34	C	0.680666	0.141258	1.130849
C35	C	0.180732	-0.442815	0.714891
C36	C	0.680732	0.057185	1.214891
C37	C	0.264747	-0.442797	0.630809
C38	C	0.764747	0.057203	1.130809
C39	C	0.180676	-0.442802	0.630843
C40	C	0.680676	0.057198	1.130843
C41	C	0.143097	-0.246161	0.593354
C42	C	0.643097	0.253839	1.093354
C43	C	0.143120	-0.480326	0.593337
C44	C	0.643120	0.019674	1.093337
C45	C	0.201706	-0.421790	0.651848
C46	C	0.701706	0.078210	1.151848
C47	C	0.405963	-0.443499	0.565998
C48	C	0.905963	0.056501	1.065998
C49	C	0.463273	-0.462598	0.546874
C50	C	0.963273	0.037402	1.046874
C51	C	0.463297	-0.555329	0.582235
C52	C	0.963297	-0.055329	1.082235
C53	C	0.405988	-0.536228	0.601360
C54	C	0.905988	-0.036228	1.101360
C55	C	0.156905	-0.217495	0.537012
C56	C	0.656905	0.282505	1.037012
C57	C	0.137776	-0.160180	0.517926
C58	C	0.637776	0.339820	1.017926
C59	C	0.091035	-0.160201	0.611524
C60	C	0.591035	0.339799	1.111524
C61	C	0.110164	-0.217516	0.630611
C62	C	0.610164	0.282484	1.130611
C63	C	0.086772	-0.466488	0.607209
C64	C	0.586772	0.033512	1.107209
C65	C	0.067659	-0.485590	0.588108
C66	C	0.567659	0.014410	1.088108
C67	C	0.161236	-0.532368	0.541277
C68	C	0.661236	-0.032368	1.041277
C69	C	0.180352	-0.513266	0.560371
C70	C	0.680352	-0.013266	1.060371
C71	C	0.086942	-0.466529	0.856152
C72	C	0.586942	0.033471	1.356152
C73	C	0.067877	-0.485647	0.913465
C74	C	0.567877	0.014353	1.413465
C75	C	0.161489	-0.532436	0.913415
C76	C	0.661489	-0.032436	1.413415
C77	C	0.180552	-0.513318	0.856101
C78	C	0.680552	-0.013318	1.356101
C79	C	0.143277	-0.480363	0.827471
C80	C	0.643277	0.019637	1.327471
C81	C	0.377323	-0.480313	0.593239
C82	C	0.877323	0.019687	1.093239
C83	C	-0.111377	-0.650681	0.422736
C84	C	0.388623	-0.150681	0.922736
C85	C	-0.027364	-0.650787	0.422929
C86	C	0.472636	-0.150787	0.922929
C87	C	-0.048335	-0.671770	0.401835
C88	C	0.451665	-0.171770	0.901835
C89	C	-0.064214	-0.763416	0.450041
C90	C	0.435786	-0.263416	0.950041
C91	C	-0.045160	-0.820731	0.469172
C92	C	0.454840	-0.320731	0.969172
C93	C	0.047573	-0.820841	0.433980
C94	C	0.547573	-0.320841	0.933980
C95	C	0.028517	-0.763527	0.414847
C96	C	0.528517	-0.263527	0.914847
C97	C	-0.140115	-0.664483	0.479060
C98	C	0.359885	-0.164483	0.979060
C99	C	-0.197425	-0.645309	0.498058
C100	C	0.302575	-0.145309	0.998058
C101	C	-0.197256	-0.598535	0.404405
C102	C	0.302744	-0.098535	0.904405
C103	C	-0.139946	-0.617709	0.385407
C104	C	0.360054	-0.117709	0.885407
C105	C	-0.041168	-0.594444	0.409067
C106	C	0.458832	-0.094444	0.909067
C107	C	-0.022104	-0.575374	0.428250
C108	C	0.477896	-0.075374	0.928250
C109	C	0.024568	-0.668986	0.475143
C110	C	0.524568	-0.168986	0.975143
C111	C	0.005504	-0.688059	0.455967
C112	C	0.505504	-0.188059	0.955967
C113	C	-0.041000	-0.594453	0.310105
C114	C	0.459000	-0.094453	0.810105
C115	C	-0.021803	-0.575386	0.252792
C116	C	0.478197	-0.075386	0.752792
C117	C	0.024951	-0.669004	0.252854
C118	C	0.524951	-0.169004	0.752854
C119	C	0.005755	-0.688070	0.310168
C120	C	0.505755	-0.188070	0.810168
C121	C	-0.027222	-0.650793	0.338792
C122	C	0.472778	-0.150793	0.838792
C123	C	-0.027377	-0.734817	0.422881
C124	C	0.472623	-0.234817	0.922881
N125	N	0.491125	-0.518235	0.555255
N126	N	0.991125	-0.018235	1.055255
O127	O	0.678406	-0.527360	0.420422
O128	O	1.178406	-0.027360	0.920422
O129	O	0.678588	-0.633782	0.564887
O130	O	1.178588	-0.133782	1.064887
O131	O	0.678516	-0.633539	0.473265
O132	O	1.178516	-0.133539	0.973265
O133	O	0.678478	-0.527602	0.512044
O134	O	1.178478	-0.027602	1.012044
O135	O	0.587469	-0.603251	0.503685
O136	O	1.087469	-0.103251	1.003685
O137	O	0.587541	-0.603493	0.595307
O138	O	1.087541	-0.103493	1.095307
O139	O	0.587359	-0.497071	0.450842
O140	O	1.087359	0.002929	0.950842
Zn141	Zn	0.572994	-0.545473	0.527905
Zn142	Zn	1.072994	-0.045473	1.027905
Zn143	Zn	0.692953	-0.585380	0.487825
Zn144	Zn	1.192953	-0.085380	0.987825
O145	O	0.587431	-0.497313	0.542465
O146	O	1.087431	0.002687	1.042465
N147	N	0.774821	-0.612618	0.460470
N148	N	1.274821	-0.112618	0.960470
N149	N	0.105125	-0.132348	0.555445
N150	N	0.605125	0.367652	1.055445
O151	O	-0.029633	0.055031	0.546198
O152	O	0.470367	0.555031	1.046198
O153	O	0.114837	0.055047	0.439777
O154	O	0.614837	0.555047	0.939777
O155	O	0.023189	0.055024	0.440050
O156	O	0.523189	0.555024	0.940050
O157	O	0.062016	0.055054	0.545925
O158	O	0.562016	0.555054	1.045925
O159	O	0.053572	-0.036031	0.470398
O160	O	0.553572	0.463969	0.970398
O161	O	0.145220	-0.036008	0.470125
O162	O	0.645220	0.463992	0.970125
O163	O	0.000750	-0.036024	0.576546
O164	O	0.500750	0.463976	1.076546
Zn165	Zn	0.077809	-0.050473	0.528154
Zn166	Zn	0.577809	0.449527	1.028154
Zn167	Zn	0.037778	0.069496	0.488169
Zn168	Zn	0.537778	0.569496	0.988169
O169	O	0.092399	-0.036001	0.576273
O170	O	0.592399	0.463999	1.076273
N171	N	0.010456	0.151371	0.460879
N172	N	0.510456	0.651371	0.960879
N173	N	0.105414	-0.518315	0.941279
N174	N	0.605414	-0.018315	1.441279
O175	O	0.096182	-0.653057	1.128644
O176	O	0.596182	-0.153057	1.628644
O177	O	-0.010215	-0.508539	1.128670
O178	O	0.489785	-0.008539	1.628670
O179	O	-0.009968	-0.600172	1.128636
O180	O	0.490032	-0.100172	1.628636
O181	O	0.095935	-0.561424	1.128678
O182	O	0.595935	-0.061424	1.628678
O183	O	0.020367	-0.569808	1.037586
O184	O	0.520367	-0.069808	1.537586
O185	O	0.020121	-0.478175	1.037620
O186	O	0.520121	0.021825	1.537620
O187	O	0.126517	-0.622693	1.037594
O188	O	0.626517	-0.122693	1.537594
Zn189	Zn	0.078135	-0.545613	1.023151
Zn190	Zn	0.578135	-0.045613	1.523151
Zn191	Zn	0.038167	-0.585619	1.143113
Zn192	Zn	0.538167	-0.085619	1.643113
O193	O	0.126270	-0.531061	1.037628
O194	O	0.626270	-0.031061	1.537628
N195	N	0.010887	-0.612923	1.224985
N196	N	0.510887	-0.112923	1.724985
C197	C	0.034899	-0.475056	0.440551
C198	C	0.534899	0.024944	0.940551
C199	C	0.148298	-0.588365	0.440456
C200	C	0.648298	-0.088365	0.940456
C201	C	0.080746	-0.656109	0.575876
C202	C	0.580746	-0.156109	1.075876
C203	C	-0.032653	-0.542801	0.575971
C204	C	0.467347	-0.042801	1.075971
C205	C	0.633086	-0.633292	0.598298
C206	C	1.133086	-0.133292	1.098298
C207	C	0.632998	-0.632993	0.484834
C208	C	1.132998	-0.132993	0.984834
C209	C	0.632857	-0.497559	0.417433
C210	C	1.132857	0.002441	0.917433
C211	C	0.632949	-0.497860	0.530895
C212	C	1.132949	0.002140	1.030895
C213	C	0.148191	0.009634	0.440259
C214	C	0.648191	0.509634	0.940259
C215	C	0.034733	0.009493	0.440634
C216	C	0.534733	0.509493	0.940634
C217	C	-0.032641	0.009502	0.576027
C218	C	0.467359	0.509502	1.076027
C219	C	0.080854	0.009529	0.575690
C220	C	0.580854	0.509529	1.075690
C221	C	-0.009699	-0.475150	1.083148
C222	C	0.490301	0.024850	1.583148
C223	C	-0.009388	-0.588620	1.083088
C224	C	0.490612	-0.088620	1.583088
C225	C	0.126001	-0.656082	1.083116
C226	C	0.626001	-0.156082	1.583116
C227	C	0.125697	-0.542605	1.083155
C228	C	0.625697	-0.042605	1.583155
H229	H	0.022003	-0.474373	0.936811
H230	H	0.522003	0.025627	1.436811
H231	H	0.633132	-0.666701	0.639790
H232	H	1.133132	-0.166701	1.139790
H233	H	0.026418	0.009490	0.407371
H234	H	0.526418	0.509490	0.907371
C235	C	-0.035306	-0.385224	1.083177
C236	C	0.464694	0.114776	1.583177
C237	C	-0.054796	-0.419121	1.083159
C238	C	0.445204	0.080879	1.583159
H239	H	-0.063149	-0.350636	1.083188
H240	H	0.436851	0.149364	1.583188
H241	H	-0.004205	-0.380432	1.051430
H242	H	0.495795	0.119568	1.551430
H243	H	-0.025356	-0.401614	1.114933
H244	H	0.474644	0.098386	1.614933
H245	H	-0.064742	-0.402732	1.051401
H246	H	0.435258	0.097268	1.551401
H247	H	-0.085907	-0.423912	1.114909
H248	H	0.414093	0.076088	1.614909
C249	C	0.632958	-0.658192	0.420215
C250	C	1.132958	-0.158192	0.920215
C251	C	0.633014	-0.677921	0.473636
C252	C	1.133014	-0.177921	0.973636
H253	H	0.632964	-0.685928	0.413305
H254	H	1.132964	-0.185928	0.913305
H255	H	0.664682	-0.648202	0.394949
H256	H	1.164682	-0.148202	0.894949
H257	H	0.601182	-0.627069	0.416166
H258	H	1.101182	-0.127069	0.916166
H259	H	0.664793	-0.709041	0.477685
H260	H	1.164793	-0.209041	0.977685
H261	H	0.601286	-0.687918	0.498910
H262	H	1.101286	-0.187918	0.998910
H263	H	0.088995	-0.697649	0.609197
H264	H	0.588995	-0.197649	1.109197
C265	C	0.183783	-0.721943	1.036288
C266	C	0.683783	-0.221943	1.536288
C267	C	0.171098	-0.712111	1.083105
C268	C	0.671098	-0.212111	1.583105
H269	H	0.211622	-0.756534	1.036284
H270	H	0.711622	-0.256534	1.536284
H271	H	0.196327	-0.694090	1.004551
H272	H	0.696327	-0.194090	1.504551
H273	H	0.152001	-0.721881	1.036286
H274	H	0.652001	-0.221881	1.536286
H275	H	0.202879	-0.712169	1.083105
H276	H	0.702879	-0.212169	1.583105
H277	H	0.158556	-0.739972	1.114850
H278	H	0.658556	-0.239972	1.614850
H279	H	0.632798	-0.464146	0.375944
H280	H	1.132798	0.035854	0.875944
H281	H	0.632941	-0.464583	0.539193
H282	H	1.132941	0.035417	1.039193
H283	H	0.056452	-0.439666	0.634048
H284	H	0.556452	0.060334	1.134048
H285	H	-0.067855	-0.564093	0.333408
H286	H	0.432145	-0.064093	0.833408
C287	C	0.411698	-0.353757	0.529128
C288	C	0.911698	0.146243	1.029128
C289	C	0.374452	-0.382034	0.557075
C290	C	0.874452	0.117966	1.057075
H291	H	0.392245	-0.315813	0.523621
H292	H	0.892245	0.184187	1.023621
H293	H	0.434033	-0.359072	0.494694
H294	H	0.934033	0.140928	0.994694
H295	H	0.434069	-0.367206	0.550121
H296	H	0.934069	0.132794	1.050121
H297	H	0.352084	-0.368588	0.536080
H298	H	0.852084	0.131412	1.036080
H299	H	0.352108	-0.376715	0.591514
H300	H	0.852108	0.123285	1.091514
C301	C	-0.146039	-0.708781	0.573541
C302	C	0.353961	-0.208781	1.073541
C303	C	-0.108711	-0.700723	0.520090
C304	C	0.391289	-0.200723	1.020090
H305	H	-0.126651	-0.731152	0.598872
H306	H	0.373349	-0.231152	1.098872
H307	H	-0.168394	-0.726246	0.578992
H308	H	0.331606	-0.226246	1.078992
H309	H	-0.168383	-0.674410	0.579012
H310	H	0.331617	-0.174410	1.079012
H311	H	-0.086369	-0.735095	0.514618
H312	H	0.413631	-0.235095	1.014618
H313	H	-0.086347	-0.683260	0.514637
H314	H	0.413653	-0.183260	1.014637
C315	C	0.237963	0.010104	0.414481
C316	C	0.737963	0.510104	0.914481
C317	C	0.204083	0.009986	0.395039
C318	C	0.704083	0.509986	0.895039
H319	H	0.272467	0.010325	0.386562
H320	H	0.772467	0.510325	0.886562
H321	H	0.242954	-0.021716	0.445484
H322	H	0.742954	0.478284	0.945484
H323	H	0.221449	0.041789	0.424573
H324	H	0.721449	0.541789	0.924573
H325	H	0.220595	-0.021701	0.384950
H326	H	0.720595	0.478299	0.884950
H327	H	0.199094	0.041809	0.364026
H328	H	0.699094	0.541809	0.864026
H329	H	0.089168	0.009538	0.608950
H330	H	0.589168	0.509538	1.108950
H331	H	0.056584	-0.439691	0.832846
H332	H	0.556584	0.060309	1.332846
C333	C	0.255937	-0.576767	0.907608
C334	C	0.755937	-0.076767	1.407608
C335	C	0.202463	-0.568659	0.944886
C336	C	0.702463	-0.068659	1.444886
H337	H	0.281231	-0.599137	0.927038
H338	H	0.781231	-0.099137	1.427038
H339	H	0.261425	-0.542415	0.885264
H340	H	0.761425	-0.042415	1.385264
H341	H	0.261422	-0.594256	0.885248
H342	H	0.761422	-0.094256	1.385248
H343	H	0.196976	-0.551166	0.967244
H344	H	0.696976	-0.051166	1.467244
H345	H	0.196972	-0.603017	0.967240
H346	H	0.696972	-0.103017	1.467240
H347	H	0.026652	-0.433515	0.407232
H348	H	0.526652	0.066485	0.907232
H349	H	0.189808	-0.596548	0.407092
H350	H	0.689808	-0.096548	0.907092
C351	C	-0.122573	0.009504	0.601648
C352	C	0.377427	0.509504	1.101648
C353	C	-0.088655	0.009510	0.621128
C354	C	0.411345	0.509510	1.121128
H355	H	-0.157155	0.009516	0.629490
H356	H	0.342845	0.509516	1.129490
H357	H	-0.106202	-0.022253	0.591716
H358	H	0.393798	0.477747	1.091716
H359	H	-0.127372	0.041253	0.570532
H360	H	0.372628	0.541253	1.070532
H361	H	-0.083852	-0.022241	0.652242
H362	H	0.416148	0.477759	1.152242
H363	H	-0.105029	0.041271	0.631067
H364	H	0.394971	0.541271	1.131067
C365	C	-0.034553	-0.653215	1.082985
C366	C	0.465447	-0.153215	1.582985
C367	C	-0.054284	-0.599786	1.083017
C368	C	0.445716	-0.099786	1.583017
H369	H	-0.062270	-0.660106	1.082938
H370	H	0.437730	-0.160106	1.582938
H371	H	-0.024607	-0.678478	1.114746
H372	H	0.475393	-0.178478	1.614746
H373	H	-0.003406	-0.657292	1.051243
H374	H	0.496594	-0.157292	1.551243
H375	H	-0.085430	-0.595711	1.114761
H376	H	0.414570	-0.095711	1.614761
H377	H	-0.064238	-0.574516	1.051253
H378	H	0.435762	-0.074516	1.551253
H379	H	0.158967	-0.534314	1.083161
H380	H	0.658967	-0.034314	1.583161
H381	H	0.021776	-0.474310	0.599390
H382	H	0.521776	0.025690	1.099390
C383	C	0.251345	-0.504794	0.768224
C384	C	0.751345	-0.004794	1.268224
C385	C	0.242481	-0.528528	0.824575
C386	C	0.742481	-0.028528	1.324575
H387	H	0.289577	-0.514187	0.748763
H388	H	0.789577	-0.014187	1.248763
H389	H	0.235240	-0.466128	0.758846
H390	H	0.735240	0.033872	1.258846
H391	H	0.235238	-0.517978	0.758845
H392	H	0.735238	-0.017978	1.258845
H393	H	0.258585	-0.515341	0.833954
H394	H	0.758585	-0.015341	1.333954
H395	H	0.258594	-0.567202	0.833957
H396	H	0.758594	-0.067202	1.333957
C397	C	0.235090	-0.539894	0.457271
C398	C	0.735090	-0.039894	0.957271
C399	C	0.202169	-0.568577	0.505040
C400	C	0.702169	-0.068577	1.005040
H401	H	0.260357	-0.562245	0.434899
H402	H	0.760357	-0.062245	0.934899
H403	H	0.254532	-0.530501	0.466667
H404	H	0.754532	-0.030501	0.966667
H405	H	0.212706	-0.507486	0.437848
H406	H	0.712706	-0.007486	0.937848
H407	H	0.224553	-0.600983	0.524465
H408	H	0.724553	-0.100983	1.024465
H409	H	0.182726	-0.577978	0.495645
H410	H	0.682726	-0.077978	0.995645
C411	C	0.251207	-0.504750	0.568849
C412	C	0.751207	-0.004750	1.068849
C413	C	0.242291	-0.528474	0.545126
C414	C	0.742291	-0.028474	1.045126
H415	H	0.289446	-0.514139	0.559434
H416	H	0.789446	-0.014139	1.059434
H417	H	0.235138	-0.517942	0.607514
H418	H	0.735138	-0.017942	1.107514
H419	H	0.235092	-0.466080	0.555678
H420	H	0.735092	0.033920	1.055678
H421	H	0.258402	-0.567146	0.558300
H422	H	0.758402	-0.067146	1.058300
H423	H	0.258367	-0.515286	0.506452
H424	H	0.758367	-0.015286	1.006452
C425	C	0.411777	-0.629808	0.634385
C426	C	0.911777	-0.129808	1.134385
C427	C	0.374509	-0.576698	0.631303
C428	C	0.874509	-0.076698	1.131303
H429	H	0.392342	-0.654792	0.652868
H430	H	0.892342	-0.154792	1.152868
H431	H	0.434146	-0.639393	0.653901
H432	H	0.934146	-0.139393	1.153901
H433	H	0.434113	-0.631259	0.598473
H434	H	0.934113	-0.131259	1.098473
H435	H	0.352175	-0.575246	0.667215
H436	H	0.852175	-0.075246	1.167215
H437	H	0.352131	-0.567111	0.611788
H438	H	0.852131	-0.067111	1.111788
C439	C	-0.098491	-0.487770	0.633634
C440	C	0.401509	0.012230	1.133634
C441	C	-0.088689	-0.531763	0.621016
C442	C	0.411311	-0.031763	1.121016
H443	H	-0.133084	-0.480959	0.661446
H444	H	0.366916	0.019041	1.161446
H445	H	-0.098401	-0.456084	0.601824
H446	H	0.401599	0.043916	1.101824
H447	H	-0.070639	-0.496436	0.646198
H448	H	0.429361	0.003564	1.146198
H449	H	-0.116539	-0.523095	0.608449
H450	H	0.383461	-0.023095	1.108449
H451	H	-0.088783	-0.563455	0.652833
H452	H	0.411217	-0.063455	1.152833
C453	C	0.527790	-0.636596	0.622088
C454	C	1.027790	-0.136596	1.122088
C455	C	0.494809	-0.616791	0.591156
C456	C	0.994809	-0.116791	1.091156
H457	H	0.547247	-0.674540	0.627592
H458	H	1.047247	-0.174540	1.127592
H459	H	0.505450	-0.631286	0.656523
H460	H	1.005450	-0.131286	1.156523
H461	H	0.553046	-0.617399	0.603122
H462	H	1.053046	-0.117399	1.103122
H463	H	0.469549	-0.635986	0.610125
H464	H	0.969549	-0.135986	1.110125
H465	H	0.517151	-0.622106	0.556715
H466	H	1.017151	-0.122106	1.056715
H467	H	0.486593	-0.432619	0.524694
H468	H	0.986593	0.067381	1.024694
H469	H	0.183721	-0.240813	0.506671
H470	H	0.683721	0.259187	1.006671
H471	H	0.064226	-0.136878	0.641864
H472	H	0.564226	0.363122	1.141864
C473	C	0.185899	-0.165912	0.427321
C474	C	0.685899	0.334088	0.927321
C475	C	0.152951	-0.128665	0.455991
C476	C	0.652951	0.371335	0.955991
H477	H	0.195268	-0.146457	0.389086
H478	H	0.695268	0.353543	0.889086
H479	H	0.166461	-0.188271	0.436725
H480	H	0.666461	0.311729	0.936725
H481	H	0.218317	-0.188263	0.436704
H482	H	0.718317	0.311737	0.936704
H483	H	0.120530	-0.106316	0.446612
H484	H	0.620530	0.393684	0.946612
H485	H	0.172388	-0.106297	0.446584
H486	H	0.672388	0.393703	0.946584
H487	H	-0.033030	-0.529506	0.229442
H488	H	0.466970	-0.029506	0.729442
C489	C	0.062042	-0.211775	0.721211
C490	C	0.562042	0.288225	1.221211
C491	C	0.094987	-0.249024	0.692544
C492	C	0.594987	0.250976	1.192544
H493	H	0.052674	-0.231229	0.759447
H494	H	0.552674	0.268771	1.259447
H495	H	0.029628	-0.189425	0.711830
H496	H	0.529628	0.310575	1.211830
H497	H	0.081485	-0.189415	0.711805
H498	H	0.581485	0.310585	1.211805
H499	H	0.075543	-0.271382	0.701947
H500	H	0.575543	0.228618	1.201947
H501	H	0.127407	-0.271384	0.701929
H502	H	0.627407	0.228616	1.201929
H503	H	0.016979	-0.733950	0.333522
H504	H	0.516979	-0.233950	0.833522
C505	C	0.032502	-0.742884	0.235186
C506	C	0.532502	-0.242884	0.735186
C507	C	0.061189	-0.709983	0.221396
C508	C	0.561189	-0.209983	0.721396
H509	H	0.054877	-0.768186	0.215768
H510	H	0.554877	-0.268186	0.715768
H511	H	0.000140	-0.720490	0.225716
H512	H	0.500140	-0.220490	0.725716
H513	H	0.023041	-0.762294	0.273426
H514	H	0.523041	-0.262294	0.773426
H515	H	0.070646	-0.690569	0.183156
H516	H	0.570646	-0.190569	0.683156
H517	H	0.093561	-0.732380	0.230863
H518	H	0.593561	-0.232380	0.730863
C519	C	-0.070120	-0.484750	0.379939
C520	C	0.429880	0.015250	0.879939
C521	C	-0.037256	-0.513439	0.412999
C522	C	0.462744	-0.013439	0.912999
H523	H	-0.079467	-0.446516	0.370517
H524	H	0.420533	0.053484	0.870517
H525	H	-0.102549	-0.494084	0.399322
H526	H	0.397451	0.005916	0.899322
H527	H	-0.050628	-0.494190	0.347553
H528	H	0.449372	0.005810	0.847553
H529	H	-0.056750	-0.504003	0.445387
H530	H	0.443250	-0.004003	0.945387
H531	H	-0.004822	-0.504102	0.393616
H532	H	0.495178	-0.004102	0.893616
H533	H	0.051334	-0.699339	0.502037
H534	H	0.551334	-0.199339	1.002037
C535	C	0.001162	-0.773700	0.528171
C536	C	0.501162	-0.273700	1.028171
C537	C	0.020677	-0.749989	0.471177
C538	C	0.520677	-0.249989	0.971177
H539	H	0.010534	-0.811932	0.537552
H540	H	0.510534	-0.311932	1.037552
H541	H	-0.037501	-0.757563	0.541284
H542	H	0.462499	-0.257563	1.041284
H543	H	0.017228	-0.767691	0.544327
H544	H	0.517228	-0.267691	1.044327
H545	H	0.004608	-0.755994	0.455020
H546	H	0.504608	-0.255994	0.955020
H547	H	0.059348	-0.766131	0.458057
H548	H	0.559348	-0.266131	0.958057
C549	C	0.122095	-0.769395	0.381990
C550	C	0.622095	-0.269395	0.881990
C551	C	0.069012	-0.732089	0.384994
C552	C	0.569012	-0.232089	0.884994
H553	H	0.147093	-0.749986	0.363561
H554	H	0.647093	-0.249986	0.863561
H555	H	0.131704	-0.791753	0.362453
H556	H	0.631704	-0.291753	0.862453
H557	H	0.123489	-0.791742	0.417921
H558	H	0.623489	-0.291742	0.917921
H559	H	0.067617	-0.709745	0.349062
H560	H	0.567617	-0.209745	0.849062
H561	H	0.059401	-0.709722	0.404530
H562	H	0.559401	-0.209722	0.904530
H563	H	-0.067926	-0.564092	0.382165
H564	H	0.432074	-0.064092	0.882165
H565	H	-0.075156	-0.844016	0.491279
H566	H	0.424844	-0.344016	0.991279
C567	C	0.116751	-0.885351	0.475962
C568	C	0.616751	-0.385351	0.975962
C569	C	0.109014	-0.852403	0.425155
C570	C	0.609014	-0.352403	0.925155
H571	H	0.154682	-0.904832	0.470511
H572	H	0.654682	-0.404832	0.970511
H573	H	0.097542	-0.910586	0.494870
H574	H	0.597542	-0.410586	0.994870
H575	H	0.103283	-0.862978	0.496957
H576	H	0.603283	-0.362978	0.996957
H577	H	0.122478	-0.874777	0.404161
H578	H	0.622478	-0.374777	0.904161
H579	H	0.128229	-0.827166	0.406238
H580	H	0.628229	-0.327166	0.906238
H581	H	-0.220824	-0.656545	0.543924
H582	H	0.279176	-0.156545	1.043924
C583	C	-0.143051	-0.745681	0.433233
C584	C	0.356949	-0.245681	0.933233
C585	C	-0.125649	-0.731849	0.458848
C586	C	0.374351	-0.231849	0.958848
H587	H	-0.180977	-0.726186	0.438662
H588	H	0.319023	-0.226186	0.938662
H589	H	-0.136984	-0.783902	0.448524
H590	H	0.363016	-0.283902	0.948524
H591	H	-0.122999	-0.736325	0.395139
H592	H	0.377001	-0.236325	0.895139
H593	H	-0.145698	-0.741209	0.496943
H594	H	0.354302	-0.241209	0.996943
H595	H	-0.131721	-0.693619	0.443560
H596	H	0.368279	-0.193619	0.943560
C597	C	-0.191336	-0.554240	0.309923
C598	C	0.308664	-0.054240	0.809923
C599	C	-0.228663	-0.562297	0.363375
C600	C	0.271337	-0.062297	0.863375
H601	H	-0.210726	-0.531866	0.284594
H602	H	0.289274	-0.031866	0.784594
H603	H	-0.168996	-0.588607	0.304452
H604	H	0.331004	-0.088607	0.804452
H605	H	-0.168977	-0.536775	0.304471
H606	H	0.331023	-0.036775	0.804471
H607	H	-0.251019	-0.579766	0.368829
H608	H	0.248981	-0.079766	0.868829
H609	H	-0.251012	-0.527924	0.368848
H610	H	0.248988	-0.027924	0.868848
H611	H	-0.116547	-0.606465	0.339541
H612	H	0.383453	-0.106465	0.839541
