data_functionalizedCrystal
_audit_creation_method	'MofGen! by Chris Wilmer'
_symmetry_space_group_name_H-M	'P1'
_symmetry_Int_Tables_number	1
_symmetry_cell_setting	triclinic
loop_
_symmetry_equiv_pos_as_xyz
  x,y,z
_cell_length_a	8.559649
_cell_length_b	8.559649
_cell_length_c	7.681481
_cell_angle_alpha	85.086760
_cell_angle_beta	85.069100
_cell_angle_gamma	110.221336
loop_
_atom_site_label
_atom_site_type_symbol
_atom_site_fract_x
_atom_site_fract_y
_atom_site_fract_z
O1	O	-0.037797	-2.109661	-0.146402
O2	O	0.045985	-1.634175	-0.146408
O3	O	-0.233649	-1.913809	-0.146402
O4	O	0.241837	-1.830027	-0.146407
O5	O	-0.268136	-1.948236	0.146456
O6	O	0.011497	-1.668602	0.146450
O7	O	-0.072285	-2.144088	0.146457
Zn8	Zn	-0.035869	-1.911811	0.192951
Zn9	Zn	0.009570	-1.866452	-0.192902
O10	O	0.207349	-1.864454	0.146451
C11	C	0.035090	-1.591080	0.000020
C12	C	0.053990	-1.411380	0.000017
N13	N	-0.066883	-1.942779	0.456286
C14	C	-0.311201	-1.937371	0.000024
C15	C	-0.490899	-1.956269	0.000014
C16	C	0.284902	-1.840891	0.000021
C17	C	0.464601	-1.821992	0.000019
C18	C	-0.061390	-2.187183	0.000025
C19	C	-0.080288	-2.366881	0.000016
N20	N	0.040569	-1.835499	-0.456237
H21	H	-0.436021	-1.692573	0.000023
H22	H	-0.209706	-1.466259	0.000009
H23	H	-0.590289	-2.085699	0.000030
C24	C	0.228838	-1.277128	0.000013
H25	H	0.219035	-1.169909	0.000022
H26	H	0.299700	-1.277316	-0.102109
H27	H	0.275635	-1.301325	0.102156
C28	C	0.188731	-1.687554	0.442184
H29	H	0.185343	-1.690914	0.319223
H30	H	0.291272	-1.695554	0.472308
H31	H	0.180966	-1.584912	0.472326
C32	C	-0.215052	-2.090732	0.557873
H33	H	-0.211679	-2.087363	0.680834
H34	H	-0.207302	-2.193370	0.527724
H35	H	-0.317596	-2.082715	0.527750
