data_functionalizedCrystal
_audit_creation_method	'MofGen! by Chris Wilmer'
_symmetry_space_group_name_H-M	'P1'
_symmetry_Int_Tables_number	1
_symmetry_cell_setting	triclinic
loop_
_symmetry_equiv_pos_as_xyz
  x,y,z
_cell_length_a	33.592126
_cell_length_b	33.591377
_cell_length_c	33.588093
_cell_angle_alpha	60.004089
_cell_angle_beta	60.008299
_cell_angle_gamma	59.994549
loop_
_atom_site_label
_atom_site_type_symbol
_atom_site_fract_x
_atom_site_fract_y
_atom_site_fract_z
O1	O	0.055297	-0.581666	0.486338
O2	O	0.555297	-0.081666	0.986338
O3	O	0.020882	-0.452873	0.391864
O4	O	0.520882	0.047127	0.891864
O5	O	0.102445	-0.534352	0.391775
O6	O	0.602445	-0.034352	0.891775
O7	O	-0.026266	-0.500187	0.486427
O8	O	0.473734	-0.000187	0.986427
O9	O	0.129510	-0.507292	0.418747
O10	O	0.629510	-0.007292	0.918747
O11	O	0.047947	-0.425814	0.418835
O12	O	0.547947	0.074186	0.918835
O13	O	0.082362	-0.554606	0.513309
O14	O	0.582362	-0.054606	1.013309
Cu15	Cu	0.067626	-0.487739	0.468535
Cu16	Cu	0.567626	0.012261	0.968535
Cu17	Cu	0.035618	-0.519740	0.436638
Cu18	Cu	0.535618	-0.019740	0.936638
O19	O	0.000799	-0.473128	0.513398
O20	O	0.500799	0.026872	1.013398
N21	N	0.090139	-0.465235	0.490972
N22	N	0.590139	0.034765	0.990972
N23	N	0.013110	-0.542249	0.414202
N24	N	0.513110	-0.042249	0.914202
C25	C	0.124394	-0.431229	0.734914
C26	C	0.624394	0.068771	1.234914
C27	C	0.334265	-0.431145	0.524799
C28	C	0.834265	0.068855	1.024799
C29	C	0.124204	-0.431200	0.524965
C30	C	0.624204	0.068800	1.024965
C31	C	0.124184	-0.221175	0.524955
C32	C	0.624184	0.278825	1.024955
C33	C	0.158017	-0.322536	0.558710
C34	C	0.658017	0.177464	1.058710
C35	C	0.158027	-0.397406	0.558711
C36	C	0.658027	0.102594	1.058711
C37	C	0.176763	-0.378688	0.577408
C38	C	0.676763	0.121312	1.077408
C39	C	0.258412	-0.364594	0.534386
C40	C	0.758412	0.135406	1.034386
C41	C	0.309454	-0.381596	0.517340
C42	C	0.809454	0.118404	1.017340
C43	C	0.309485	-0.464188	0.548836
C44	C	0.809485	0.035812	1.048836
C45	C	0.258444	-0.447186	0.565883
C46	C	0.758444	0.052814	1.065883
C47	C	0.170304	-0.297002	0.508532
C48	C	0.670304	0.202998	1.008532
C49	C	0.153260	-0.245956	0.491537
C50	C	0.653260	0.254044	0.991537
C51	C	0.111648	-0.245983	0.574901
C52	C	0.611648	0.254017	1.074901
C53	C	0.128691	-0.297029	0.591896
C54	C	0.628691	0.202971	1.091896
C55	C	0.107841	-0.385091	0.571080
C56	C	0.607841	0.114909	1.071080
C57	C	0.090813	-0.402108	0.554078
C58	C	0.590813	0.097892	1.054078
C59	C	0.174153	-0.443755	0.512351
C60	C	0.674153	0.056245	1.012351
C61	C	0.191183	-0.426739	0.529347
C62	C	0.691183	0.073261	1.029347
C63	C	0.107923	-0.385106	0.659111
C64	C	0.607923	0.114894	1.159111
C65	C	0.090955	-0.402138	0.710156
C66	C	0.590955	0.097862	1.210156
C67	C	0.174335	-0.443795	0.710087
C68	C	0.674335	0.056205	1.210087
C69	C	0.191302	-0.426764	0.659041
C70	C	0.691302	0.073236	1.159041
C71	C	0.158095	-0.397418	0.633555
C72	C	0.658095	0.102582	1.133555
C73	C	0.232909	-0.397388	0.558656
C74	C	0.732909	0.102612	1.058656
C75	C	0.105069	-0.449619	0.791057
C76	C	0.605069	0.050381	1.291057
C77	C	0.390406	-0.449193	0.505789
C78	C	0.890406	0.050807	1.005789
C79	C	0.104813	-0.449599	0.506607
C80	C	0.604813	0.050401	1.006607
C81	C	0.105125	-0.165028	0.506915
C82	C	0.605125	0.334972	1.006915
C83	C	-0.020560	-0.576246	0.169890
C84	C	0.479440	-0.076246	0.669890
C85	C	-0.020889	-0.786183	0.379970
C86	C	0.479111	-0.286183	0.879970
C87	C	-0.020859	-0.576235	0.380063
C88	C	0.479141	-0.076235	0.880063
C89	C	-0.230772	-0.576015	0.379658
C90	C	0.269228	-0.076015	0.879658
C91	C	-0.129417	-0.609898	0.346025
C92	C	0.370583	-0.109898	0.846025
C93	C	-0.054587	-0.609979	0.346172
C94	C	0.445413	-0.109979	0.846172
C95	C	-0.073269	-0.628671	0.327396
C96	C	0.426731	-0.128671	0.827396
C97	C	-0.087401	-0.710299	0.370335
C98	C	0.412599	-0.210299	0.870335
C99	C	-0.070424	-0.761345	0.387369
C100	C	0.429576	-0.261345	0.887369
C101	C	0.012165	-0.761428	0.356003
C102	C	0.512165	-0.261428	0.856003
C103	C	-0.004813	-0.710383	0.338967
C104	C	0.495187	-0.210383	0.838967
C105	C	-0.155001	-0.622196	0.396191
C106	C	0.344999	-0.122196	0.896191
C107	C	-0.206043	-0.605128	0.413125
C108	C	0.293957	-0.105128	0.913125
C109	C	-0.205914	-0.563467	0.329724
C110	C	0.294086	-0.063467	0.829724
C111	C	-0.154872	-0.580535	0.312790
C112	C	0.345128	-0.080535	0.812790
C113	C	-0.066886	-0.559797	0.333828
C114	C	0.433114	-0.059797	0.833828
C115	C	-0.049903	-0.542809	0.350903
C116	C	0.450097	-0.042809	0.850903
C117	C	-0.008321	-0.626180	0.392654
C118	C	0.491679	-0.126180	0.892654
C119	C	-0.025304	-0.643170	0.375585
C120	C	0.474696	-0.143170	0.875585
C121	C	-0.066758	-0.559805	0.245702
C122	C	0.433242	-0.059805	0.745702
C123	C	-0.049671	-0.542819	0.194658
C124	C	0.450329	-0.042819	0.694658
C125	C	-0.008026	-0.626194	0.194706
C126	C	0.491974	-0.126194	0.694706
C127	C	-0.025111	-0.643179	0.245752
C128	C	0.474889	-0.143179	0.745752
C129	C	-0.054479	-0.609983	0.271248
C130	C	0.445521	-0.109983	0.771248
C131	C	-0.054597	-0.684821	0.346135
C132	C	0.445403	-0.184821	0.846135
C133	C	-0.002109	-0.556901	0.113746
C134	C	0.497891	-0.056901	0.613746
C135	C	-0.002869	-0.842328	0.398966
C136	C	0.497131	-0.342328	0.898966
C137	C	-0.002496	-0.556887	0.398501
C138	C	0.497504	-0.056887	0.898501
C139	C	-0.286914	-0.556929	0.397631
C140	C	0.213086	-0.056929	0.897631
N141	N	0.436349	-0.465146	0.490703
N142	N	0.936349	0.034854	0.990703
O143	O	0.592194	-0.469605	0.374236
O144	O	1.092194	0.030395	0.874236
O145	O	0.592389	-0.564393	0.502890
O146	O	1.092389	-0.064393	1.002890
O147	O	0.592305	-0.564176	0.421300
O148	O	1.092305	-0.064176	0.921300
O149	O	0.592277	-0.469822	0.455826
O150	O	1.092277	0.030178	0.955826
O151	O	0.511216	-0.537214	0.448415
O152	O	1.011216	-0.037214	0.948415
O153	O	0.511300	-0.537431	0.530004
O154	O	1.011300	-0.037431	1.030004
O155	O	0.511104	-0.442643	0.401350
O156	O	1.011104	0.057357	0.901350
Cu157	Cu	0.503798	-0.487575	0.468153
Cu158	Cu	1.003798	0.012425	0.968153
Cu159	Cu	0.599695	-0.519461	0.436087
Cu160	Cu	1.099695	-0.019461	0.936087
O161	O	0.511188	-0.442860	0.482940
O162	O	1.011188	0.057140	0.982940
N163	N	0.667145	-0.541890	0.413532
N164	N	1.167145	-0.041890	0.913532
N165	N	0.090108	-0.119085	0.490958
N166	N	0.590108	0.380915	0.990958
O167	O	-0.026275	0.036848	0.486394
O168	O	0.473725	0.536848	0.986394
O169	O	0.102381	0.036888	0.391584
O170	O	0.602381	0.536888	0.891584
O171	O	0.020751	0.036852	0.391854
O172	O	0.520751	0.536852	0.891854
O173	O	0.055356	0.036884	0.486124
O174	O	0.555356	0.536884	0.986124
O175	O	0.047821	-0.044242	0.418876
O176	O	0.547821	0.455758	0.918876
O177	O	0.129452	-0.044207	0.418606
O178	O	0.629452	0.455793	0.918606
O179	O	0.000796	-0.044246	0.513417
O180	O	0.500796	0.455754	1.013417
Cu181	Cu	0.067596	-0.051631	0.468479
Cu182	Cu	0.567596	0.448369	0.968479
Cu183	Cu	0.035582	0.044273	0.436522
Cu184	Cu	0.535582	0.544273	0.936522
O185	O	0.082426	-0.044211	0.513146
O186	O	0.582426	0.455789	1.013146
N187	N	0.013063	0.111726	0.414043
N188	N	0.513063	0.611726	0.914043
N189	N	0.090453	-0.465282	0.837001
N190	N	0.590453	0.034718	1.337001
O191	O	0.085913	-0.581648	0.992925
O192	O	0.585913	-0.081648	1.492925
O193	O	-0.008857	-0.452947	0.992970
O194	O	0.491143	0.047053	1.492970
O195	O	-0.008635	-0.534562	0.992946
O196	O	0.491365	-0.034562	1.492946
O197	O	0.085691	-0.500033	0.992949
O198	O	0.585691	-0.000033	1.492949
O199	O	0.018365	-0.507512	0.911855
O200	O	0.518365	-0.007512	1.411855
O201	O	0.018143	-0.425898	0.911878
O202	O	0.518143	0.074102	1.411878
O203	O	0.112912	-0.554598	0.911834
O204	O	0.612912	-0.054598	1.411834
Cu205	Cu	0.067993	-0.487778	0.904452
Cu206	Cu	0.567993	0.012222	1.404452
Cu207	Cu	0.036063	-0.519767	1.000352
Cu208	Cu	0.536063	-0.019767	1.500352
O209	O	0.112691	-0.472984	0.911857
O210	O	0.612691	0.027016	1.411857
N211	N	0.013602	-0.542269	1.067803
N212	N	0.513602	-0.042269	1.567803
C213	C	0.031188	-0.423114	0.392334
C214	C	0.531188	0.076886	0.892334
C215	C	0.132194	-0.524016	0.392223
C216	C	0.632194	-0.024016	0.892223
C217	C	0.072056	-0.584366	0.512840
C218	C	0.572056	-0.084366	1.012840
C219	C	-0.028950	-0.483464	0.512950
C220	C	0.471050	0.016536	1.012950
C221	C	0.551868	-0.563965	0.532655
C222	C	1.051868	-0.063965	1.032655
C223	C	0.551766	-0.563697	0.431617
C224	C	1.051766	-0.063697	0.931617
C225	C	0.551623	-0.443070	0.371586
C226	C	1.051623	0.056930	0.871586
C227	C	0.551728	-0.443339	0.472623
C228	C	1.051728	0.056661	0.972623
C229	C	0.132090	-0.003555	0.392006
C230	C	0.632090	0.496445	0.892006
C231	C	0.031035	-0.003698	0.392374
C232	C	0.531035	0.496302	0.892374
C233	C	-0.028947	-0.003703	0.512961
C234	C	0.471053	0.496297	1.012961
C235	C	0.072143	-0.003661	0.512626
C236	C	0.572143	0.496339	1.012626
C237	C	-0.008408	-0.423209	0.952430
C238	C	0.491592	0.076791	1.452430
C239	C	-0.008128	-0.524272	0.952385
C240	C	0.491872	-0.024272	1.452385
C241	C	0.112464	-0.584336	0.952374
C242	C	0.612464	-0.084336	1.452374
C243	C	0.112190	-0.483267	0.952401
C244	C	0.612190	0.016733	1.452401
H245	H	0.050098	-0.392105	0.730957
H246	H	0.550098	0.107895	1.230957
O247	O	0.027110	-0.685685	0.315410
O248	O	0.527110	-0.185685	0.815410
C249	C	0.097910	-0.670123	0.246684
C250	C	0.597910	-0.170123	0.746684
C251	C	0.061799	-0.698132	0.273320
C252	C	0.561799	-0.198132	0.773320
H253	H	0.125958	-0.680168	0.212643
H254	H	0.625958	-0.180168	0.712643
H255	H	0.117267	-0.680183	0.271910
H256	H	0.617267	-0.180183	0.771910
H257	H	0.077211	-0.629251	0.235763
H258	H	0.577211	-0.129251	0.735763
H259	H	0.082460	-0.739010	0.284244
H260	H	0.582460	-0.239010	0.784244
H261	H	0.042441	-0.688031	0.248078
H262	H	0.542441	-0.188031	0.748078
H263	H	-0.037749	-0.531650	0.952352
H264	H	0.462251	-0.031650	1.452352
O265	O	0.022283	-0.003776	0.357020
O266	O	0.522283	0.496224	0.857020
C267	C	0.045700	-0.045819	0.303867
C268	C	0.545700	0.454181	0.803867
C269	C	0.055666	-0.045784	0.343897
C270	C	0.555666	0.454216	0.843897
H271	H	0.072677	-0.079784	0.293253
H272	H	0.572677	0.420216	0.793253
H273	H	0.050064	-0.011903	0.270560
H274	H	0.550064	0.488097	0.770560
H275	H	0.006950	-0.045811	0.318179
H276	H	0.506950	0.454189	0.818179
H277	H	0.094414	-0.045809	0.329631
H278	H	0.594414	0.454191	0.829631
H279	H	0.051270	-0.079697	0.377196
H280	H	0.551270	0.420303	0.877196
H281	H	0.551779	-0.593338	0.424228
H282	H	1.051779	-0.093338	0.924228
O283	O	0.080751	-0.628468	0.548302
O284	O	0.580751	-0.128468	1.048302
C285	C	0.048780	-0.678621	0.630477
C286	C	0.548780	-0.178621	1.130477
C287	C	0.038872	-0.628650	0.590364
C288	C	0.538872	-0.128650	1.090364
H289	H	0.014924	-0.678789	0.664490
H290	H	0.514924	-0.178789	1.164490
H291	H	0.080677	-0.685729	0.639630
H292	H	0.580677	-0.185729	1.139630
H293	H	0.058067	-0.708356	0.616990
H294	H	0.558067	-0.208356	1.116990
H295	H	0.029564	-0.598884	0.603817
H296	H	0.529564	-0.098884	1.103817
H297	H	0.006988	-0.621584	0.581216
H298	H	0.506988	-0.121584	1.081216
H299	H	-0.038161	-0.386246	0.952443
H300	H	0.461839	0.113754	1.452443
H301	H	0.551722	-0.413701	0.480010
H302	H	1.051722	0.086299	0.980010
O303	O	0.147901	-0.628464	0.952377
O304	O	0.647901	-0.128464	1.452377
C305	C	0.170586	-0.708776	0.952316
C306	C	0.670586	-0.208776	1.452316
C307	C	0.130406	-0.658828	0.952325
C308	C	0.630406	-0.158828	1.452325
H309	H	0.156460	-0.733335	0.952263
H310	H	0.656460	-0.233335	1.452263
H311	H	0.181231	-0.726326	0.986256
H312	H	0.681231	-0.226326	1.486256
H313	H	0.203831	-0.703628	0.918383
H314	H	0.703831	-0.203628	1.418383
H315	H	0.097136	-0.663933	0.986235
H316	H	0.597136	-0.163933	1.486235
H317	H	0.119803	-0.641294	0.918362
H318	H	0.619803	-0.141294	1.418362
H319	H	0.141823	-0.475877	0.952395
H320	H	0.641823	0.024123	1.452395
H321	H	0.168963	-0.003318	0.362168
H322	H	0.668963	0.496682	0.862168
O323	O	0.551571	-0.407625	0.327475
O324	O	1.051571	0.092375	0.827475
C325	C	0.551434	-0.384938	0.247191
C326	C	1.051434	0.115062	0.747191
C327	C	0.551506	-0.425127	0.297119
C328	C	1.051506	0.074873	0.797119
H329	H	0.551371	-0.399070	0.222638
H330	H	1.051371	0.100930	0.722638
H331	H	0.585355	-0.374271	0.229616
H332	H	1.085355	0.125729	0.729616
H333	H	0.517484	-0.351704	0.252370
H334	H	1.017484	0.148296	0.752370
H335	H	0.585433	-0.458387	0.291983
H336	H	1.085433	0.041613	0.791983
H337	H	0.517562	-0.435753	0.314677
H338	H	1.017562	0.064247	0.814677
H339	H	-0.065919	-0.476185	0.542670
H340	H	0.434081	0.023815	1.042670
H341	H	0.079554	-0.003651	0.542242
H342	H	0.579554	0.496349	1.042242
O343	O	0.075597	-0.356622	0.634430
O344	O	0.575597	0.143378	1.134430
C345	C	-0.008896	-0.317075	0.639886
C346	C	0.491104	0.182925	1.139886
C347	C	0.027656	-0.349343	0.667898
C348	C	0.527656	0.150657	1.167898
H349	H	-0.047664	-0.311171	0.666933
H350	H	0.452336	0.188829	1.166933
H351	H	-0.003072	-0.335767	0.616006
H352	H	0.496928	0.164233	1.116006
H353	H	-0.003008	-0.280365	0.615975
H354	H	0.496992	0.219635	1.115975
H355	H	0.021791	-0.386059	0.691835
H356	H	0.521791	0.113941	1.191835
H357	H	0.021823	-0.330613	0.691747
H358	H	0.521823	0.169387	1.191747
O359	O	0.206660	-0.472305	0.734765
O360	O	0.706660	0.027695	1.234765
C361	C	0.291154	-0.511788	0.729302
C362	C	0.791154	-0.011788	1.229302
C363	C	0.254599	-0.479506	0.701294
C364	C	0.754599	0.020494	1.201294
H365	H	0.329921	-0.517612	0.702253
H366	H	0.829921	-0.017612	1.202253
H367	H	0.285341	-0.548534	0.753186
H368	H	0.785341	-0.048534	1.253186
H369	H	0.285260	-0.493087	0.753210
H370	H	0.785260	0.006913	1.253210
H371	H	0.260472	-0.498164	0.677360
H372	H	0.760472	0.001836	1.177360
H373	H	0.260422	-0.442762	0.677441
H374	H	0.760422	0.057238	1.177441
H375	H	-0.065895	-0.003715	0.542725
H376	H	0.434105	0.496285	1.042725
H377	H	0.232159	-0.436796	0.638236
H378	H	0.732159	0.063204	1.138236
O379	O	0.551848	-0.599456	0.576755
O380	O	1.051848	-0.099456	1.076755
C381	C	0.509957	-0.652849	0.648312
C382	C	1.009957	-0.152849	1.148312
C383	C	0.509911	-0.612648	0.598386
C384	C	1.009911	-0.112648	1.098386
H385	H	0.476060	-0.663535	0.665811
H386	H	0.976060	-0.163535	1.165811
H387	H	0.509941	-0.638734	0.672928
H388	H	1.009941	-0.138734	1.172928
H389	H	0.543930	-0.686068	0.643142
H390	H	1.043930	-0.186068	1.143142
H391	H	0.475944	-0.579416	0.603510
H392	H	0.975944	-0.079416	1.103510
H393	H	0.509953	-0.626803	0.573787
H394	H	1.009953	-0.126803	1.073787
O395	O	0.042059	-0.390209	0.566175
O396	O	0.542059	0.109791	1.066175
C397	C	-0.034349	-0.394119	0.630935
C398	C	0.465651	0.105881	1.130935
C399	C	0.020858	-0.407634	0.617303
C400	C	0.520858	0.092366	1.117303
H401	H	-0.051508	-0.408193	0.672272
H402	H	0.448492	0.091807	1.172272
H403	H	-0.040850	-0.411337	0.613777
H404	H	0.459150	0.088663	1.113777
H405	H	-0.051568	-0.352788	0.616844
H406	H	0.448432	0.147212	1.116844
H407	H	0.038114	-0.448958	0.631391
H408	H	0.538114	0.051042	1.131391
H409	H	0.027324	-0.390382	0.634454
H410	H	0.527324	0.109618	1.134454
O411	O	0.206429	-0.472228	0.483817
O412	O	0.706429	0.027772	0.983817
C413	C	0.290892	-0.511768	0.444252
C414	C	0.790892	-0.011768	0.944252
C415	C	0.254392	-0.479510	0.476561
C416	C	0.754392	0.020490	0.976561
H417	H	0.329678	-0.517673	0.438384
H418	H	0.829678	-0.017673	0.938384
H419	H	0.285013	-0.493066	0.407529
H420	H	0.785013	0.006934	0.907529
H421	H	0.285000	-0.548478	0.462953
H422	H	0.785000	-0.048478	0.962953
H423	H	0.260261	-0.442794	0.457903
H424	H	0.760261	0.057206	0.957903
H425	H	0.260279	-0.498250	0.513283
H426	H	0.760279	0.001750	1.013283
H427	H	0.080840	-0.361208	0.594989
H428	H	0.580840	0.138792	1.094989
H429	H	0.232048	-0.436761	0.519270
H430	H	0.732048	0.063239	1.019270
H431	H	0.237680	-0.473893	0.585645
H432	H	0.737680	0.026107	1.085645
H433	H	0.330277	-0.504737	0.554712
H434	H	0.830277	-0.004737	1.054712
H435	H	0.330218	-0.354891	0.497577
H436	H	0.830218	0.145109	0.997577
H437	H	0.237625	-0.324046	0.528499
H438	H	0.737625	0.175954	1.028499
O439	O	0.198716	-0.321760	0.476281
O440	O	0.698716	0.178240	0.976281
C441	C	0.205188	-0.337346	0.410242
C442	C	0.705188	0.162654	0.910242
C443	C	0.172956	-0.309286	0.446750
C444	C	0.672956	0.190714	0.946750
H445	H	0.184378	-0.327264	0.386350
H446	H	0.684378	0.172736	0.886350
H447	H	0.215249	-0.378221	0.430985
H448	H	0.715249	0.121779	0.930985
H449	H	0.239817	-0.327300	0.386342
H450	H	0.739817	0.172700	0.886342
H451	H	0.138307	-0.319291	0.470660
H452	H	0.638307	0.180709	0.970660
H453	H	0.162934	-0.268417	0.425977
H454	H	0.662934	0.231583	0.925977
O455	O	0.165109	-0.221126	0.442796
O456	O	0.665109	0.278874	0.942796
C457	C	0.135707	-0.163462	0.375258
C458	C	0.635707	0.336538	0.875258
C459	C	0.122220	-0.191559	0.430460
C460	C	0.622220	0.308441	0.930460
H461	H	0.101039	-0.139543	0.365268
H462	H	0.601039	0.360457	0.865268
H463	H	0.159571	-0.190438	0.354433
H464	H	0.659571	0.309562	0.854433
H465	H	0.156500	-0.139577	0.365211
H466	H	0.656500	0.360423	0.865211
H467	H	0.101409	-0.215445	0.440551
H468	H	0.601409	0.284555	0.940551
H469	H	0.098379	-0.164557	0.451254
H470	H	0.598379	0.335443	0.951254
H471	H	0.087777	-0.225214	0.601924
H472	H	0.587777	0.274786	1.101924
H473	H	-0.059677	-0.501957	0.173865
H474	H	0.440323	-0.001957	0.673865
O475	O	0.116730	-0.321761	0.640658
O476	O	0.616730	0.178239	1.140658
C477	C	0.073631	-0.316404	0.721552
C478	C	0.573631	0.183596	1.221552
C479	C	0.087151	-0.288335	0.666344
C480	C	0.587151	0.211665	1.166344
H481	H	0.049707	-0.289392	0.742335
H482	H	0.549707	0.210608	1.242335
H483	H	0.108270	-0.340281	0.731600
H484	H	0.608270	0.159719	1.231600
H485	H	0.052879	-0.340325	0.731591
H486	H	0.552879	0.159675	1.231591
H487	H	0.107891	-0.264388	0.656265
H488	H	0.607891	0.235612	1.156265
H489	H	0.052495	-0.264489	0.656325
H490	H	0.552495	0.235511	1.156325
H491	H	-0.090673	-0.532769	0.266460
H492	H	0.409327	-0.032769	0.766460
H493	H	-0.015108	-0.684041	0.266548
H494	H	0.484892	-0.184041	0.766548
O495	O	0.020506	-0.658507	0.170018
O496	O	0.520506	-0.158507	0.670018
C497	C	0.059973	-0.742999	0.175460
C498	C	0.559973	-0.242999	0.675460
C499	C	0.027666	-0.706456	0.203480
C500	C	0.527666	-0.206456	0.703480
H501	H	0.065764	-0.781773	0.202502
H502	H	0.565764	-0.281773	0.702502
H503	H	0.096730	-0.737201	0.151632
H504	H	0.596730	-0.237201	0.651632
H505	H	0.041314	-0.737070	0.151497
H506	H	0.541314	-0.237070	0.651497
H507	H	0.046283	-0.712362	0.227469
H508	H	0.546283	-0.212362	0.727469
H509	H	-0.009088	-0.712262	0.227278
H510	H	0.490912	-0.212262	0.727278
O511	O	-0.095346	-0.527489	0.305282
O512	O	0.404654	-0.027489	0.805282
C513	C	-0.134776	-0.443002	0.265650
C514	C	0.365224	0.056998	0.765650
C515	C	-0.102552	-0.479538	0.297993
C516	C	0.397448	0.020462	0.797993
H517	H	-0.140604	-0.404225	0.259738
H518	H	0.359396	0.095775	0.759738
H519	H	-0.171521	-0.448806	0.284285
H520	H	0.328479	0.051194	0.784285
H521	H	-0.116028	-0.448931	0.228951
H522	H	0.383972	0.051069	0.728951
H523	H	-0.121257	-0.473630	0.334698
H524	H	0.378743	0.026370	0.834698
H525	H	-0.065808	-0.473724	0.279320
H526	H	0.434192	0.026276	0.779320
H527	H	0.015526	-0.653210	0.416597
H528	H	0.515526	-0.153210	0.916597
O529	O	-0.061755	-0.494076	0.338895
O530	O	0.438245	0.005924	0.838895
C531	C	-0.032355	-0.426558	0.299656
C532	C	0.467645	0.073442	0.799656
C533	C	-0.018867	-0.481754	0.313233
C534	C	0.481133	0.018246	0.813233
H535	H	0.002311	-0.416577	0.278897
H536	H	0.502311	0.083423	0.778897
H537	H	-0.053151	-0.416471	0.334270
H538	H	0.446849	0.083529	0.834270
H539	H	-0.056217	-0.405756	0.275718
H540	H	0.443783	0.094244	0.775718
H541	H	0.005011	-0.502594	0.337158
H542	H	0.505011	-0.002594	0.837158
H543	H	0.001904	-0.491804	0.278599
H544	H	0.501904	0.008196	0.778599
H545	H	0.052703	-0.782242	0.350169
H546	H	0.552703	-0.282242	0.850169
O547	O	-0.013294	-0.691932	0.387599
O548	O	0.486706	-0.191932	0.887599
C549	C	0.029720	-0.772835	0.430834
C550	C	0.529720	-0.272835	0.930834
C551	C	0.016162	-0.717627	0.417258
C552	C	0.516162	-0.217627	0.917258
H553	H	0.053529	-0.793626	0.454823
H554	H	0.553529	-0.293626	0.954823
H555	H	0.050572	-0.782929	0.396220
H556	H	0.550572	-0.282929	0.896220
H557	H	-0.004940	-0.782822	0.451536
H558	H	0.495060	-0.282822	0.951536
H559	H	0.050797	-0.707600	0.396567
H560	H	0.550797	-0.207600	0.896567
H561	H	-0.004708	-0.707563	0.451889
H562	H	0.495292	-0.207563	0.951889
H563	H	0.023834	-0.386116	0.362662
H564	H	0.523834	0.113884	0.862662
H565	H	-0.097137	-0.782089	0.407066
H566	H	0.402863	-0.282089	0.907066
H567	H	-0.134277	-0.646110	0.423254
H568	H	0.365723	-0.146110	0.923254
O569	O	-0.135750	-0.685486	0.377218
O570	O	0.364250	-0.185486	0.877218
C571	C	-0.206099	-0.669819	0.362115
C572	C	0.293901	-0.169819	0.862115
C573	C	-0.151341	-0.697948	0.354283
C574	C	0.348659	-0.197948	0.854283
H575	H	-0.218723	-0.679892	0.343586
H576	H	0.281277	-0.179892	0.843586
H577	H	-0.212615	-0.628954	0.345757
H578	H	0.287385	-0.128954	0.845757
H579	H	-0.227505	-0.679812	0.402838
H580	H	0.272495	-0.179812	0.902838
H581	H	-0.129899	-0.687995	0.313571
H582	H	0.370101	-0.187995	0.813571
H583	H	-0.144862	-0.738806	0.370674
H584	H	0.355138	-0.238806	0.870674
O585	O	-0.230824	-0.617140	0.461875
O586	O	0.269176	-0.117140	0.961875
C587	C	-0.225568	-0.660248	0.542813
C588	C	0.274432	-0.160248	1.042813
C589	C	-0.197445	-0.646687	0.487618
C590	C	0.302555	-0.146687	0.987618
H591	H	-0.198594	-0.684130	0.563642
H592	H	0.301406	-0.184130	1.063642
H593	H	-0.249456	-0.681028	0.552833
H594	H	0.250544	-0.181028	1.052833
H595	H	-0.249480	-0.625592	0.552824
H596	H	0.250520	-0.125592	1.052824
H597	H	-0.173507	-0.681318	0.477568
H598	H	0.326493	-0.181318	0.977568
H599	H	-0.173589	-0.625889	0.477627
H600	H	0.326411	-0.125889	0.977627
O601	O	-0.230592	-0.535005	0.297397
O602	O	0.269408	-0.035005	0.797397
C603	C	-0.246141	-0.528486	0.231311
C604	C	0.253859	-0.028486	0.731311
C605	C	-0.218154	-0.560768	0.267886
C606	C	0.281846	-0.060768	0.767886
H607	H	-0.236103	-0.549306	0.207449
H608	H	0.263897	-0.049306	0.707449
H609	H	-0.236058	-0.493876	0.207389
H610	H	0.263942	0.006124	0.707389
H611	H	-0.287014	-0.518386	0.252046
H612	H	0.212986	-0.018386	0.752046
H613	H	-0.177275	-0.570905	0.247190
H614	H	0.322725	-0.070905	0.747190
H615	H	-0.228278	-0.595355	0.291807
H616	H	0.271722	-0.095355	0.791807
O617	O	0.176328	-0.532771	0.356823
O618	O	0.676328	-0.032771	0.856823
C619	C	0.256611	-0.590542	0.334248
C620	C	0.756611	-0.090542	0.834248
C621	C	0.206656	-0.580688	0.374385
C622	C	0.706656	-0.080688	0.874385
H623	H	0.281141	-0.629286	0.348428
H624	H	0.781141	-0.129286	0.848428
H625	H	0.274185	-0.563526	0.323580
H626	H	0.774185	-0.063526	0.823580
H627	H	0.251475	-0.586116	0.301004
H628	H	0.751475	-0.086116	0.801004
H629	H	0.211749	-0.585121	0.407655
H630	H	0.711749	-0.085121	0.907655
H631	H	0.189099	-0.607702	0.385011
H632	H	0.689099	-0.107702	0.885011
H633	H	-0.134040	-0.570516	0.271939
H634	H	0.365960	-0.070516	0.771939
