data_functionalizedCrystal
_audit_creation_method	'MofGen! by Chris Wilmer'
_symmetry_space_group_name_H-M	'P1'
_symmetry_Int_Tables_number	1
_symmetry_cell_setting	triclinic
loop_
_symmetry_equiv_pos_as_xyz
  x,y,z
_cell_length_a	21.395362
_cell_length_b	13.897448
_cell_length_c	21.395355
_cell_angle_alpha	90.015629
_cell_angle_beta	90.043940
_cell_angle_gamma	90.033571
loop_
_atom_site_label
_atom_site_type_symbol
_atom_site_fract_x
_atom_site_fract_y
_atom_site_fract_z
Zn1	Zn	0.957916	-0.383718	0.354598
Zn2	Zn	0.957842	-0.544997	0.249826
Zn3	Zn	0.853131	-0.383763	0.249799
Zn4	Zn	0.853124	-0.545017	0.354531
O5	O	0.905503	-0.464374	0.302189
O6	O	1.045584	-0.405085	0.340739
O7	O	0.943924	-0.523620	0.162145
O8	O	0.867065	-0.248775	0.263718
O9	O	1.045530	-0.523576	0.263764
O10	O	0.944050	-0.248742	0.340714
O11	O	0.866993	-0.405161	0.162125
O12	O	0.765452	-0.405181	0.263653
O13	O	0.867053	-0.523610	0.442218
O14	O	0.765447	-0.523654	0.340599
O15	O	0.944043	-0.405104	0.442267
O16	O	0.943918	-0.679982	0.263698
O17	O	0.866981	-0.679996	0.340624
C18	C	0.905458	-0.714988	0.302170
C19	C	0.905495	-0.822202	0.302184
C20	C	0.742716	-0.464425	0.302116
C21	C	0.673074	-0.464470	0.302100
C22	C	0.640375	-0.526240	0.342105
C23	C	0.574940	-0.526217	0.342133
C24	C	0.542206	-0.464433	0.302144
C25	C	0.574913	-0.402650	0.262136
C26	C	0.640348	-0.402669	0.262114
C27	C	0.438480	-0.456662	0.245739
C28	C	0.373047	-0.456650	0.245760
C29	C	0.340385	-0.464370	0.302214
C30	C	0.373165	-0.472121	0.358647
C31	C	0.438599	-0.472140	0.358625
C32	C	0.471254	-0.464405	0.302164
C33	C	0.236734	-0.526118	0.342253
C34	C	0.171297	-0.526088	0.342282
C35	C	0.171272	-0.402526	0.262279
C36	C	0.236707	-0.402551	0.262255
C37	C	0.269434	-0.464352	0.302242
C38	C	0.905561	-1.018497	0.302223
C39	C	0.905523	-0.909265	0.302203
C40	C	1.068927	-0.464323	0.302262
C41	C	1.138568	-0.464302	0.302293
C42	C	0.905555	-0.464354	0.465612
C43	C	0.905578	-0.464346	0.535253
C44	C	0.905566	-0.212781	0.302221
C45	C	0.905593	-0.105567	0.302234
C46	C	0.905488	-0.464324	0.139401
C47	C	0.905587	-0.464060	0.069760
C48	C	0.945665	-0.402637	0.567993
C49	C	0.945664	-0.402596	0.633429
C50	C	0.905582	-0.464280	0.666122
C51	C	0.865488	-0.525993	0.633374
C52	C	0.865485	-0.526026	0.567940
C53	C	0.900619	-0.551135	0.769788
C54	C	0.900626	-0.551103	0.835221
C55	C	0.905586	-0.464178	0.867942
C56	C	0.910553	-0.377282	0.835223
C57	C	0.910550	-0.377315	0.769788
C58	C	0.905580	-0.464251	0.737074
C59	C	0.945675	-0.402419	0.971635
C60	C	0.945669	-0.402376	1.037072
C61	C	0.865496	-0.525782	1.037016
C62	C	0.865498	-0.525817	0.971580
C63	C	0.905591	-0.464137	0.938894
H64	H	0.667017	-0.576562	0.374666
H65	H	0.978317	-0.352190	0.945020
O66	O	0.988909	-0.335818	1.072389
H67	H	1.016790	-0.292944	1.038665
H68	H	0.832855	-0.575997	1.063634
O69	O	0.988901	-0.336018	0.668740
H70	H	0.960867	-0.286927	0.698520
O71	O	0.136070	-0.592841	0.385388
H72	H	0.148688	-0.576521	0.434593
O73	O	0.895268	-0.644896	0.734499
H74	H	0.852819	-0.643394	0.704661
O75	O	0.822263	-0.592383	0.936266
H76	H	0.828991	-0.582038	0.885274
O77	O	0.895263	-0.644820	0.870511
H78	H	0.891798	-0.705268	0.836767
H79	H	0.548311	-0.576517	0.374713
H80	H	0.346364	-0.450344	0.199808
O81	O	0.135969	-0.335891	0.219148
H82	H	0.148573	-0.260213	0.229977
H83	H	0.832851	-0.576214	0.659997
H84	H	0.832838	-0.576275	0.541283
H85	H	0.914593	-0.306560	0.743151
H86	H	0.465285	-0.478449	0.404575
H87	H	0.346573	-0.478406	0.404617
O88	O	0.272034	-0.592738	0.385402
H89	H	0.323029	-0.582375	0.378666
O90	O	0.271983	-0.335952	0.219090
H91	H	0.238230	-0.292996	0.191280
H92	H	0.465068	-0.450372	0.199765
H93	H	0.666971	-0.352365	0.229536
O94	O	0.539614	-0.336030	0.218990
H95	H	0.488619	-0.346408	0.225716
O96	O	0.988905	-0.336112	0.532739
H97	H	0.978179	-0.260403	0.545284
O98	O	0.915886	-0.283513	0.870503
H99	H	0.915040	-0.298082	0.921500
