data_functionalizedCrystal
_audit_creation_method	'MofGen! by Chris Wilmer'
_symmetry_space_group_name_H-M	'P1'
_symmetry_Int_Tables_number	1
_symmetry_cell_setting	triclinic
loop_
_symmetry_equiv_pos_as_xyz
  x,y,z
_cell_length_a	8.634740
_cell_length_b	8.559649
_cell_length_c	7.681481
_cell_angle_alpha	94.925366
_cell_angle_beta	83.376723
_cell_angle_gamma	85.174486
loop_
_atom_site_label
_atom_site_type_symbol
_atom_site_fract_x
_atom_site_fract_y
_atom_site_fract_z
O1	O	1.969386	0.524269	0.146406
O2	O	2.469386	1.024269	0.646406
O3	O	1.525514	0.481367	0.146412
O4	O	2.025514	0.981367	0.646412
O5	O	1.786556	0.276236	0.146407
O6	O	2.286556	0.776236	0.646407
O7	O	1.708345	0.729400	0.146412
O8	O	2.208345	1.229400	0.646412
O9	O	1.818711	0.250945	-0.146451
O10	O	2.318711	0.750945	0.353549
O11	O	1.557670	0.456076	-0.146446
O12	O	2.057670	0.956076	0.353554
O13	O	2.001542	0.498977	-0.146452
O14	O	2.501542	0.998977	0.353548
Zn15	Zn	1.784711	0.473511	-0.192947
Zn16	Zn	2.284711	0.973511	0.307053
Zn17	Zn	1.742345	0.506834	0.192907
Zn18	Zn	2.242345	1.006834	0.692907
O19	O	1.740500	0.704108	-0.146447
O20	O	2.240500	1.204108	0.353553
C21	C	1.485293	0.459002	-0.000016
C22	C	1.985293	0.959002	0.499984
C23	C	1.317541	0.430024	-0.000014
C24	C	1.817541	0.930024	0.499986
C25	C	1.808560	0.204973	-0.000019
C26	C	2.308560	0.704973	0.499981
C27	C	1.826202	0.030310	-0.000009
C28	C	2.326202	0.530310	0.499991
C29	C	2.041763	0.521342	-0.000020
C30	C	2.541763	1.021342	0.499980
C31	C	2.209513	0.550321	-0.000011
C32	C	2.709513	1.050321	0.499989
C33	C	1.718495	0.775371	-0.000017
C34	C	2.218495	1.275371	0.499983
C35	C	1.700852	0.950035	-0.000015
C36	C	2.200852	1.450035	0.499985
N37	N	1.813636	0.450770	-0.456281
N38	N	2.313636	0.950770	0.043719
N39	N	1.713433	0.529564	0.456242
N40	N	2.213433	1.029564	0.956242
H41	H	1.281688	0.304868	0.000031
H42	H	1.781688	0.804868	0.500031
F43	F	1.256371	0.713927	-0.000024
F44	F	1.756371	1.213927	0.499976
H45	H	1.580038	0.014932	-0.000019
H46	H	2.080038	0.514932	0.499981
F47	F	1.984131	-0.054520	-0.000032
F48	F	2.484131	0.445480	0.499968
F49	F	1.947346	0.345665	-0.554570
F50	F	2.447346	0.845665	-0.054570
H51	H	1.611141	0.609993	-0.468551
H52	H	2.111141	1.109993	0.031449
