data_functionalizedCrystal
_audit_creation_method	'MofGen! by Chris Wilmer'
_symmetry_space_group_name_H-M	'P1'
_symmetry_Int_Tables_number	1
_symmetry_cell_setting	triclinic
loop_
_symmetry_equiv_pos_as_xyz
  x,y,z
_cell_length_a	14.971486
_cell_length_b	18.266242
_cell_length_c	14.971494
_cell_angle_alpha	90.003404
_cell_angle_beta	83.615843
_cell_angle_gamma	90.003985
loop_
_atom_site_label
_atom_site_type_symbol
_atom_site_fract_x
_atom_site_fract_y
_atom_site_fract_z
O1	O	1.186954	0.060794	0.116562
O2	O	1.686954	0.560794	0.616562
O3	O	0.926554	0.060814	0.130521
O4	O	1.426554	0.560814	0.630521
O5	O	1.063730	0.060802	-0.006658
O6	O	1.563730	0.560802	0.493342
O7	O	1.049779	0.060806	0.253741
O8	O	1.549779	0.560806	0.753741
O9	O	1.063706	-0.060960	-0.006662
O10	O	1.563706	0.439040	0.493338
O11	O	0.926531	-0.060948	0.130517
O12	O	1.426531	0.439052	0.630517
O13	O	1.186931	-0.060968	0.116558
O14	O	1.686931	0.439032	0.616558
Zn15	Zn	1.056727	-0.080291	0.123537
Zn16	Zn	1.556727	0.419709	0.623537
Zn17	Zn	1.056758	0.080136	0.123542
Zn18	Zn	1.556758	0.580136	0.623542
O19	O	1.049755	-0.060956	0.253737
O20	O	1.549755	0.439044	0.753737
C21	C	0.893218	-0.000065	0.129895
C22	C	1.393218	0.499935	0.629895
C23	C	0.793921	-0.000057	0.128024
C24	C	1.293921	0.499943	0.628024
N25	N	1.056712	-0.189778	0.123533
N26	N	1.556712	0.310222	0.623533
C27	C	0.736698	-0.000057	0.208613
C28	C	1.236698	0.499943	0.708613
C29	C	0.643398	-0.000068	0.206850
C30	C	1.143398	0.499932	0.706850
C31	C	0.607323	-0.000074	0.124497
C32	C	1.107323	0.499926	0.624497
C33	C	0.664554	-0.000077	0.043902
C34	C	1.164554	0.499923	0.543902
C35	C	0.757851	-0.000071	0.045666
C36	C	1.257851	0.499929	0.545666
C37	C	0.470091	-0.000087	0.040231
C38	C	0.970091	0.499913	0.540231
C39	C	0.376787	-0.000091	0.038466
C40	C	0.876787	0.499909	0.538466
C41	C	0.355638	-0.000084	0.201415
C42	C	0.855638	0.499916	0.701415
C43	C	0.448936	-0.000078	0.203179
C44	C	0.948936	0.499922	0.703179
C45	C	0.506159	-0.000079	0.122583
C46	C	1.006159	0.499921	0.622583
C47	C	1.111011	-0.228084	0.177876
C48	C	1.611011	0.271916	0.677876
C49	C	1.111026	-0.304729	0.177874
C50	C	1.611026	0.195271	0.677874
C51	C	1.056725	-0.343064	0.123538
C52	C	1.556725	0.156936	0.623538
C53	C	1.002423	-0.304749	0.069184
C54	C	1.502423	0.195251	0.569184
C55	C	1.002417	-0.228106	0.069181
C56	C	1.502417	0.271894	0.569181
N57	N	0.978380	-0.463411	0.121012
N58	N	1.478380	0.036589	0.621012
N59	N	0.978388	-0.536219	0.121019
N60	N	1.478388	-0.036219	0.621019
C61	C	1.056743	-0.573987	0.123542
C62	C	1.556743	-0.073987	0.623542
N63	N	1.135090	-0.536196	0.126073
N64	N	1.635090	-0.036196	0.626073
N65	N	1.135080	-0.463381	0.126070
N66	N	1.635080	0.036619	0.626070
C67	C	1.056727	-0.426171	0.123535
C68	C	1.556727	0.073829	0.623535
C69	C	1.111063	-0.695400	0.177885
C70	C	1.611063	-0.195400	0.677885
C71	C	1.111080	-0.772046	0.177876
C72	C	1.611080	-0.272046	0.677876
C73	C	1.002468	-0.772065	0.069191
C74	C	1.502468	-0.272065	0.569191
C75	C	1.002460	-0.695421	0.069195
C76	C	1.502460	-0.195421	0.569195
C77	C	1.056756	-0.657093	0.123547
C78	C	1.556756	-0.157093	0.623547
C79	C	1.220267	-0.000088	0.117184
C80	C	1.720267	0.499912	0.617184
C81	C	1.319564	-0.000091	0.119055
C82	C	1.819564	0.499909	0.619055
C83	C	1.063093	-0.000078	-0.039985
C84	C	1.563093	0.499922	0.460015
C85	C	1.061219	-0.000075	-0.139281
C86	C	1.561219	0.499925	0.360719
N87	N	1.056779	0.189623	0.123539
N88	N	1.556779	0.689623	0.623539
C89	C	1.060353	0.066299	-0.185924
C90	C	1.560353	0.566299	0.314076
C91	C	1.058587	0.066300	-0.279223
C92	C	1.558587	0.566300	0.220777
C93	C	1.057693	-0.000073	-0.325879
C94	C	1.557693	0.499927	0.174121
C95	C	1.058556	-0.066452	-0.279229
C96	C	1.558556	0.433548	0.220771
C97	C	1.060315	-0.066452	-0.185931
C98	C	1.560315	0.433548	0.314069
C99	C	1.054890	-0.066447	-0.473692
C100	C	1.554890	0.433553	0.026308
C101	C	1.053131	-0.066447	-0.566997
C102	C	1.553131	0.433553	-0.066997
C103	C	1.053161	0.066305	-0.566984
C104	C	1.553161	0.566305	-0.066984
C105	C	1.054921	0.066305	-0.473686
C106	C	1.554921	0.566305	0.026314
C107	C	1.055786	-0.000074	-0.427043
C108	C	1.555786	0.499926	0.072957
C109	C	1.050392	-0.000075	0.287064
C110	C	1.550392	0.499925	0.787064
C111	C	1.052266	-0.000073	0.386360
C112	C	1.552266	0.499927	0.886360
H113	H	0.766062	-0.000052	0.275674
H114	H	1.266062	0.499948	0.775674
Br115	Br	0.497894	-0.000059	0.314944
Br116	Br	0.997894	0.499941	0.814944
Br117	Br	0.928734	-0.356774	-0.004564
Br118	Br	1.428734	0.143226	0.495436
Br119	Br	1.057411	0.156382	-0.342520
Br120	Br	1.557411	0.656382	0.157480
Br121	Br	0.835513	-0.000078	-0.063709
Br122	Br	1.335513	0.499922	0.436291
H123	H	1.155243	-0.335924	0.222129
H124	H	1.655243	0.164076	0.722129
Br125	Br	1.184785	-0.824035	0.251628
Br126	Br	1.684785	-0.324035	0.751628
Br127	Br	0.547752	-0.000092	-0.069150
Br128	Br	1.047752	0.499908	0.430850
H129	H	1.061087	0.120347	-0.147944
H130	H	1.561087	0.620347	0.352056
Br131	Br	0.928715	-0.176115	-0.004573
Br132	Br	1.428715	0.323885	0.495427
H133	H	1.061008	-0.120500	-0.147954
H134	H	1.561008	0.379500	0.352046
Br135	Br	1.184677	-0.176070	0.251660
Br136	Br	1.684677	0.323930	0.751660
H137	H	1.155274	-0.664192	0.222141
H138	H	1.655274	-0.164192	0.722141
H139	H	0.309041	-0.000086	0.267038
H140	H	0.809041	0.499914	0.767038
H141	H	0.347418	-0.000097	-0.028593
H142	H	0.847418	0.499903	0.471407
Br143	Br	0.615596	-0.000092	-0.067865
Br144	Br	1.115596	0.499908	0.432135
H145	H	0.958256	-0.803278	0.024949
H146	H	1.458256	-0.303278	0.524949
H147	H	0.596810	-0.000067	0.272473
H148	H	1.096810	0.499933	0.772473
H149	H	0.958240	-0.664231	0.024946
H150	H	1.458240	-0.164231	0.524946
Br151	Br	1.056147	0.156384	-0.410369
Br152	Br	1.556147	0.656384	0.089631
Br153	Br	1.056064	-0.156533	-0.410392
Br154	Br	1.556064	0.343467	0.089608
H155	H	1.052456	0.120353	-0.604965
H156	H	1.552456	0.620353	-0.104965
Br157	Br	1.051922	-0.156525	-0.630316
Br158	Br	1.551922	0.343475	-0.130316
H159	H	1.057822	-0.120494	-0.317223
H160	H	1.557822	0.379506	0.182777
