data_functionalizedCrystal
_audit_creation_method	'MofGen! by Chris Wilmer'
_symmetry_space_group_name_H-M	'P1'
_symmetry_Int_Tables_number	1
_symmetry_cell_setting	triclinic
loop_
_symmetry_equiv_pos_as_xyz
  x,y,z
_cell_length_a	12.759401
_cell_length_b	11.169416
_cell_length_c	12.759393
_cell_angle_alpha	90.027570
_cell_angle_beta	90.020938
_cell_angle_gamma	90.011865
loop_
_atom_site_label
_atom_site_type_symbol
_atom_site_fract_x
_atom_site_fract_y
_atom_site_fract_z
Zn1	Zn	1.606298	-0.477700	0.594041
Zn2	Zn	1.606203	-0.678429	0.418371
Zn3	Zn	1.430597	-0.477764	0.418377
Zn4	Zn	1.430602	-0.678345	0.594008
O5	O	1.518425	-0.578060	0.506199
O6	O	1.753307	-0.504336	0.570750
O7	O	1.582866	-0.651872	0.271350
O8	O	1.453942	-0.309806	0.441696
O9	O	1.753236	-0.651810	0.441685
O10	O	1.583029	-0.309759	0.570756
O11	O	1.453849	-0.504445	0.271355
O12	O	1.283577	-0.504363	0.441663
O13	O	1.453951	-0.651667	0.741033
O14	O	1.283580	-0.651729	0.570698
O15	O	1.583034	-0.504254	0.741058
O16	O	1.582871	-0.846368	0.441653
O17	O	1.453858	-0.846306	0.570692
C18	C	1.245458	-0.578045	0.506178
C19	C	1.128681	-0.578068	0.506194
C20	C	1.073849	-0.654918	0.573277
C21	C	0.964125	-0.654923	0.573298
C22	C	0.964075	-0.501223	0.439144
C23	C	1.073797	-0.501213	0.439129
C24	C	1.518383	-0.889884	0.506191
C25	C	1.518462	-1.023284	0.506223
C26	C	1.792458	-0.578075	0.506221
C27	C	1.909235	-0.578082	0.506230
C28	C	1.518504	-0.577944	0.780233
C29	C	1.518537	-0.577895	0.897009
C30	C	1.518495	-0.265017	0.506230
C31	C	1.518525	-0.131617	0.506243
C32	C	1.518407	-0.578088	0.233232
C33	C	1.518577	-0.577799	0.116456
C34	C	1.585756	-0.501125	0.951886
C35	C	1.585773	-0.501073	1.061610
C36	C	1.451351	-0.654573	1.061571
C37	C	1.451329	-0.654617	0.951849
H38	H	1.118532	-0.717495	0.627889
O39	O	1.650969	-0.426534	1.115079
C40	C	1.636595	-0.442957	1.223683
H41	H	1.555509	-0.482253	1.238651
H42	H	1.643746	-0.353037	1.265388
H43	H	1.698904	-0.506855	1.254831
O44	O	1.386173	-0.729063	1.115007
C45	C	1.400587	-0.712544	1.223619
H46	H	1.481680	-0.673240	1.238623
H47	H	1.393446	-0.802426	1.265308
H48	H	1.338292	-0.648613	1.254754
O49	O	0.910745	-0.729637	0.638314
C50	C	0.847254	-0.807093	0.578393
H51	H	0.830778	-0.764653	0.498840
H52	H	0.770119	-0.823243	0.621178
H53	H	0.889522	-0.896015	0.566708
O54	O	1.127115	-0.426431	0.374109
C55	C	1.190641	-0.349013	0.434033
H56	H	1.157613	-0.341715	0.516793
H57	H	1.191883	-0.256598	0.396170
H58	H	1.273793	-0.386123	0.437590
H59	H	1.640478	-0.438650	0.907238
H60	H	1.396584	-0.717132	0.907168
H61	H	0.919375	-0.438653	0.384540
