data_functionalizedCrystal
_audit_creation_method	'MofGen! by Chris Wilmer'
_symmetry_space_group_name_H-M	'P1'
_symmetry_Int_Tables_number	1
_symmetry_cell_setting	triclinic
loop_
_symmetry_equiv_pos_as_xyz
  x,y,z
_cell_length_a	16.974800
_cell_length_b	13.330367
_cell_length_c	16.992695
_cell_angle_alpha	90.004445
_cell_angle_beta	92.978326
_cell_angle_gamma	93.648618
loop_
_atom_site_label
_atom_site_type_symbol
_atom_site_fract_x
_atom_site_fract_y
_atom_site_fract_z
O1	O	1.055459	0.002297	-0.099873
O2	O	1.555459	0.502297	0.400127
O3	O	0.826058	-0.016336	-0.112614
O4	O	1.326058	0.483664	0.387386
O5	O	0.939839	-0.007086	0.007898
O6	O	1.439839	0.492914	0.507898
O7	O	0.941678	-0.006953	-0.220385
O8	O	1.441678	0.493047	0.279615
O9	O	0.939820	0.159759	0.007900
O10	O	1.439820	0.659759	0.507900
O11	O	0.826039	0.150509	-0.112612
O12	O	1.326039	0.650509	0.387388
O13	O	1.055440	0.169143	-0.099871
O14	O	1.555440	0.669143	0.400129
Cu15	Cu	0.940738	0.175060	-0.106241
Cu16	Cu	1.440738	0.675060	0.393759
Cu17	Cu	0.940761	-0.022254	-0.106244
Cu18	Cu	1.440761	0.477746	0.393756
O19	O	0.941659	0.159893	-0.220383
O20	O	1.441659	0.659893	0.279617
C21	C	0.796560	0.064691	-0.112130
C22	C	1.296560	0.564691	0.387870
C23	C	0.708692	0.057554	-0.110683
C24	C	1.208692	0.557554	0.389317
N25	N	0.940727	0.313841	-0.106239
N26	N	1.440727	0.813841	0.393761
C27	C	0.667406	0.145151	-0.110000
C28	C	1.167406	0.645151	0.390000
C29	C	0.584845	0.138448	-0.108627
C30	C	1.084845	0.638448	0.391373
C31	C	0.543572	0.044147	-0.107943
C32	C	1.043572	0.544147	0.392057
C33	C	0.584865	-0.043457	-0.108624
C34	C	1.084865	0.456543	0.391376
C35	C	0.667424	-0.036752	-0.109991
C36	C	1.167424	0.463248	0.390009
C37	C	0.296658	0.014344	-0.103850
C38	C	0.796658	0.514344	0.396150
C39	C	0.214093	0.007646	-0.102485
C40	C	0.714093	0.507646	0.397515
C41	C	0.214079	0.189552	-0.102487
C42	C	0.714079	0.689552	0.397513
C43	C	0.296640	0.196247	-0.103859
C44	C	0.796640	0.696247	0.396141
C45	C	0.337925	0.108644	-0.104535
C46	C	0.837925	0.608644	0.395465
N47	N	0.459182	0.037293	-0.106543
N48	N	0.959182	0.537293	0.393457
N49	N	0.422314	0.115499	-0.105930
N50	N	0.922314	0.615499	0.394070
C51	C	0.890368	0.782370	-0.159588
C52	C	1.390368	1.282370	0.340412
C53	C	0.991160	0.790532	-0.052899
C54	C	1.491160	1.290532	0.447101
C55	C	0.991152	0.685513	-0.052896
C56	C	1.491152	1.185513	0.447104
C57	C	0.940752	0.628917	-0.106241
C58	C	1.440752	1.128917	0.393759
C59	C	0.890360	0.677341	-0.159589
C60	C	1.390360	1.177341	0.340411
C61	C	1.041549	0.637082	0.000445
C62	C	1.541549	1.137082	0.500445
C63	C	1.041543	0.532056	0.000450
C64	C	1.541543	1.032056	0.500450
C65	C	0.991138	0.475459	-0.052892
C66	C	1.491138	0.975459	0.447108
C67	C	0.940744	0.523889	-0.106241
C68	C	1.440744	1.023889	0.393759
C69	C	0.890343	0.467293	-0.159586
C70	C	1.390343	0.967293	0.340414
C71	C	0.839944	0.515721	-0.212933
C72	C	1.339944	1.015721	0.287067
C73	C	0.839955	0.620743	-0.212931
C74	C	1.339955	1.120743	0.287069
C75	C	0.991128	0.370436	-0.052894
C76	C	1.491128	0.870436	0.447106
C77	C	0.890335	0.362264	-0.159587
C78	C	1.390335	0.862264	0.340413
C79	C	1.084938	0.088113	-0.100355
C80	C	1.584938	0.588113	0.399645
C81	C	1.172806	0.095243	-0.101802
C82	C	1.672806	0.595243	0.398198
C83	C	0.937464	0.076144	0.037109
C84	C	1.437464	0.576144	0.537109
C85	C	0.930404	0.075570	0.124145
C86	C	1.430404	0.575570	0.624145
N87	N	0.940768	0.838965	-0.106243
N88	N	1.440768	1.338965	0.393757
C89	C	0.944035	0.076660	-0.249594
C90	C	1.444035	0.576660	0.250406
C91	C	0.951094	0.077227	-0.336630
C92	C	1.451094	0.577227	0.163370
C93	C	0.998519	0.081104	0.174463
C94	C	1.498519	0.581104	0.674463
C95	C	0.991881	0.080555	0.256242
C96	C	1.491881	0.580555	0.756242
C97	C	0.917127	0.074480	0.287702
C98	C	1.417127	0.574480	0.787702
C99	C	0.849007	0.068943	0.237378
C100	C	1.349007	0.568943	0.737378
C101	C	0.855646	0.069484	0.155600
C102	C	1.355646	0.569484	0.655600
C103	C	0.889613	0.072231	0.531268
C104	C	1.389613	0.572231	1.031268
C105	C	0.882979	0.071693	0.613052
C106	C	1.382979	0.571693	1.113052
C107	C	1.025854	0.083304	0.631911
C108	C	1.525854	0.583304	1.131911
C109	C	1.032486	0.083851	0.550131
C110	C	1.532486	0.583851	1.050131
C111	C	0.964366	0.078309	0.499814
C112	C	1.464366	0.578309	0.999814
N113	N	0.910341	0.073922	0.371293
N114	N	1.410341	0.573922	0.871293
N115	N	0.971153	0.078859	0.416225
N116	N	1.471153	0.578859	0.916225
H117	H	0.701004	0.221941	-0.110563
H118	H	1.201004	0.721941	0.389437
H119	H	1.047348	0.085064	0.297208
H120	H	1.547348	0.585064	0.797208
N121	N	1.113113	0.090410	0.516200
N122	N	1.613113	0.590410	1.016200
H123	H	1.155258	0.093833	0.560486
H124	H	1.655258	0.593833	1.060486
H125	H	1.118989	0.029038	0.482675
H126	H	1.618989	0.529038	0.982675
N127	N	0.836005	0.834592	-0.217120
N128	N	1.336005	1.334592	0.282880
H129	H	0.843652	0.909712	-0.209026
H130	H	1.343652	1.409712	0.290974
H131	H	0.848647	0.817255	-0.272737
H132	H	1.348647	1.317255	0.227263
H133	H	0.849290	0.316190	-0.203024
H134	H	1.349290	0.816190	0.296976
H135	H	0.822103	0.066762	0.638663
H136	H	1.322103	0.566762	1.138663
H137	H	0.551254	-0.120238	-0.108062
H138	H	1.051254	0.379762	0.391938
N139	N	1.079147	0.087666	0.140534
N140	N	1.579147	0.587666	0.640534
H141	H	1.121289	0.091087	0.184822
H142	H	1.621289	0.591087	0.684822
H143	H	1.085022	0.026294	0.107009
H144	H	1.585022	0.526294	0.607009
H145	H	0.330263	-0.056989	-0.104398
H146	H	0.830263	0.443011	0.395602
H147	H	0.701038	-0.108083	-0.110548
H148	H	1.201038	0.391917	0.389452
H149	H	0.788141	0.063990	0.262999
H150	H	1.288141	0.563990	0.762999
N151	N	0.785589	0.454675	-0.270472
N152	N	1.285589	0.954675	0.229528
H153	H	0.793238	0.380798	-0.262376
H154	H	1.293238	0.880798	0.237624
H155	H	0.728930	0.468439	-0.261444
H156	H	1.228930	0.968439	0.238556
H157	H	0.330239	0.273037	-0.104412
H158	H	0.830239	0.773037	0.395588
H159	H	0.551235	0.209779	-0.108058
H160	H	1.051235	0.709779	0.391942
N161	N	1.099323	0.089283	0.686179
N162	N	1.599323	0.589283	1.186179
H163	H	1.083778	0.088019	0.742759
H164	H	1.583778	0.588019	1.242759
H165	H	1.131686	0.030061	0.675999
H166	H	1.631686	0.530061	1.175999
H167	H	0.798922	0.660180	-0.256364
H168	H	1.298922	1.160180	0.243636
N169	N	0.816144	0.066258	0.477005
N170	N	1.316144	0.566258	0.977005
H171	H	0.767783	0.062332	0.509346
H172	H	1.267783	0.562332	1.009346
H173	H	0.815778	0.128080	0.442667
H174	H	1.315778	0.628080	0.942667
N175	N	0.782186	0.063521	0.101317
N176	N	1.282186	0.563521	0.601317
H177	H	0.749805	-0.000960	0.111418
H178	H	1.249805	0.499040	0.611418
H179	H	0.749852	0.122786	0.111450
H180	H	1.249852	0.622786	0.611450
N181	N	0.169550	0.284033	-0.101756
N182	N	0.669550	0.784033	0.398244
H183	H	0.110921	0.265481	-0.101868
H184	H	0.610921	0.765481	0.398132
H185	H	0.186542	0.324533	-0.052867
H186	H	0.686542	0.824533	0.447133
N187	N	0.169573	-0.094068	-0.101754
N188	N	0.669573	0.405932	0.398246
H189	H	0.208254	-0.148548	-0.102390
H190	H	0.708254	0.351452	0.397610
H191	H	0.138657	-0.100534	-0.052610
H192	H	0.638657	0.399466	0.447390
H193	H	1.082587	0.683165	0.043874
H194	H	1.582587	1.183165	0.543874
N195	N	1.045524	0.851568	0.004629
N196	N	1.545524	1.351568	0.504629
H197	H	1.037885	0.925448	-0.003468
H198	H	1.537885	1.425448	0.496532
H199	H	1.032878	0.832198	0.060246
H200	H	1.532878	1.332198	0.560246
H201	H	1.082580	0.492633	0.043887
H202	H	1.582580	0.992633	0.543887
N203	N	1.045485	0.318202	0.004630
N204	N	1.545485	0.818202	0.504630
H205	H	1.077418	0.369992	0.038420
H206	H	1.577418	0.869992	0.538420
H207	H	1.013028	0.272007	0.039280
H208	H	1.513028	0.772007	0.539280
