data_functionalizedCrystal
_audit_creation_method	'MofGen! by Chris Wilmer'
_symmetry_space_group_name_H-M	'P1'
_symmetry_Int_Tables_number	1
_symmetry_cell_setting	triclinic
loop_
_symmetry_equiv_pos_as_xyz
  x,y,z
_cell_length_a	6.817900
_cell_length_b	7.076028
_cell_length_c	13.563541
_cell_angle_alpha	103.755584
_cell_angle_beta	104.704624
_cell_angle_gamma	117.700652
loop_
_atom_site_label
_atom_site_type_symbol
_atom_site_fract_x
_atom_site_fract_y
_atom_site_fract_z
V1	V	-4.254735	-0.754227	-0.151609
O2	O	-4.180539	-0.646987	0.009103
O3	O	-4.259869	-0.838400	-0.302363
O4	O	-4.280589	-1.042416	-0.148480
O5	O	-4.159676	-0.441558	-0.145846
V6	V	-4.721805	-0.705977	-0.132480
O7	O	-4.552086	-0.860066	-0.193570
O8	O	-4.874652	-0.600138	-0.090520
O9	O	-4.493464	-0.621804	0.018274
O10	O	-4.913398	-0.813217	-0.293192
O11	O	-4.934261	-1.018646	-0.138243
O12	O	-4.472745	-0.417788	-0.135610
C13	C	-4.115491	-0.849552	-0.339139
C14	C	-4.201470	-0.920294	-0.462377
C15	C	-4.057462	-0.302347	-0.748512
C16	C	-3.976664	-0.235876	-0.632723
C17	C	-4.032861	-0.406975	-0.590130
C18	C	-4.169865	-0.644556	-0.663339
C19	C	-4.250654	-0.711032	-0.779139
C20	C	-4.226054	-0.815660	-0.620758
C21	C	-4.363057	-1.053241	-0.693966
C22	C	-4.443838	-1.119706	-0.809755
C23	C	-4.387641	-0.948607	-0.852347
C24	C	-4.145264	-0.749184	-0.504958
C25	C	-4.338457	-1.157869	-0.535585
C26	C	-4.419255	-1.224340	-0.651374
C27	C	-4.274740	-0.350403	-0.141248
C28	C	-4.148883	-0.109779	-0.142837
C29	C	-4.301185	-0.610650	0.055043
C30	C	-4.194448	-0.539922	0.178280
H31	H	-4.555370	-1.313158	-0.869359
H32	H	-4.530810	-1.417782	-0.710996
H33	H	-4.033715	-0.555743	-0.445362
C34	C	-3.943993	-0.333848	-0.462758
N35	N	-3.877062	-0.278758	-0.366817
C36	C	-4.476959	-1.021747	-0.979735
N37	N	-4.544389	-1.076841	-1.075689
H38	H	-4.384215	-1.297192	-0.500908
H39	H	-3.865123	-0.042438	-0.573124
H40	H	-4.011709	-0.163064	-0.783202
