data_functionalizedCrystal
_audit_creation_method	'MofGen! by Chris Wilmer'
_symmetry_space_group_name_H-M	'P1'
_symmetry_Int_Tables_number	1
_symmetry_cell_setting	triclinic
loop_
_symmetry_equiv_pos_as_xyz
  x,y,z
_cell_length_a	13.033291
_cell_length_b	13.031981
_cell_length_c	21.395355
_cell_angle_alpha	82.800183
_cell_angle_beta	82.784784
_cell_angle_gamma	103.320130
loop_
_atom_site_label
_atom_site_type_symbol
_atom_site_fract_x
_atom_site_fract_y
_atom_site_fract_z
Zn1	Zn	1.570278	-0.217007	-0.457506
Zn2	Zn	1.547607	-0.394638	-0.337468
Zn3	Zn	1.392634	-0.239544	-0.337476
Zn4	Zn	1.370079	-0.417134	-0.426953
O5	O	1.470150	-0.317081	-0.389851
O6	O	1.715912	-0.221724	-0.454366
O7	O	1.527001	-0.374082	-0.249786
O8	O	1.435125	-0.087894	-0.366188
O9	O	1.699256	-0.352229	-0.366174
O10	O	1.565640	-0.071336	-0.454374
O11	O	1.413142	-0.260135	-0.249792
O12	O	1.241001	-0.281948	-0.336562
O13	O	1.396685	-0.390569	-0.518689
O14	O	1.224430	-0.412422	-0.402300
O15	O	1.543770	-0.243537	-0.541136
O16	O	1.505131	-0.546284	-0.336548
O17	O	1.374702	-0.562811	-0.402293
C18	C	1.194175	-0.352073	-0.366117
C19	C	1.076108	-0.367068	-0.355976
C20	C	1.435038	-0.593090	-0.366120
C21	C	1.420114	-0.711155	-0.355998
C22	C	0.909675	-0.324770	-0.384666
C23	C	1.031702	-0.309274	-0.395146
C24	C	1.477995	-0.755522	-0.395151
C25	C	1.462572	-0.877548	-0.384690
C26	C	1.747202	-0.281953	-0.413677
C27	C	1.865265	-0.266984	-0.423831
C28	C	1.470241	-0.317048	-0.553283
C29	C	1.470279	-0.317034	-0.622929
C30	C	1.505427	-0.039991	-0.413690
C31	C	1.520461	0.078089	-0.423849
C32	C	1.546864	-0.240472	-0.667331
C33	C	1.546868	-0.240427	-0.732770
C34	C	1.470297	-0.316961	-0.753804
C35	C	1.393698	-0.393529	-0.709392
C36	C	1.393690	-0.393566	-0.643955
C37	C	1.449741	-0.413678	-0.848534
C38	C	1.449757	-0.413642	-0.913971
C39	C	1.470318	-0.316848	-0.955635
C40	C	1.490885	-0.220084	-0.931856
C41	C	1.490876	-0.220120	-0.866419
C42	C	1.470297	-0.316929	-0.824759
C43	C	1.546911	-0.240230	-1.070995
C44	C	1.546908	-0.240184	-1.136435
C45	C	1.393743	-0.393295	-1.113055
C46	C	1.393741	-0.393333	-1.047617
C47	C	1.470331	-0.316801	-1.026591
C48	C	1.470130	-0.317029	-0.227065
C49	C	1.470335	-0.316718	-0.157464
H50	H	0.857355	-0.385710	-0.343375
N51	N	1.100989	-0.228543	-0.449847
H52	H	1.178339	-0.228920	-0.449582
H53	H	1.079572	-0.247635	-0.491498
H54	H	1.023793	-0.428018	-0.314684
N55	N	1.339356	-0.780496	-0.301332
H56	H	1.302849	-0.734123	-0.276639
H57	H	1.284396	-0.832784	-0.318661
N58	N	1.629480	-0.157856	-0.780674
H59	H	1.592591	-0.114080	-0.808336
H60	H	1.677974	-0.109452	-0.757379
N61	N	1.629521	-0.157593	-1.184322
H62	H	1.673249	-0.194507	-1.212008
H63	H	1.592555	-0.113832	-1.211934
H64	H	0.917586	-0.206034	-0.465117
H65	H	1.401591	-0.929901	-0.343424
N66	N	1.629521	-0.157706	-1.048305
H67	H	1.592635	-0.113964	-1.021654
H68	H	1.673205	-0.194762	-1.021724
N69	N	1.629468	-0.157917	-0.644663
H70	H	1.622632	-0.084103	-0.661153
H71	H	1.617808	-0.169640	-0.596471
N72	N	1.558751	-0.686185	-0.449819
H73	H	1.558318	-0.608842	-0.449545
H74	H	1.632205	-0.695832	-0.444992
N75	N	1.513060	-0.115764	-0.840770
H76	H	1.526090	-0.054435	-0.877089
H77	H	1.449595	-0.114120	-0.808889
N78	N	1.601226	-0.852580	-0.478518
H79	H	1.600796	-0.775236	-0.478245
H80	H	1.674677	-0.862230	-0.473688
H81	H	1.507628	-0.141264	-0.965779
H82	H	1.331387	-0.455602	-1.130180
H83	H	1.331383	-0.455684	-1.011463
H84	H	1.433017	-0.492432	-0.933326
N85	N	1.427578	-0.518083	-0.803599
H86	H	1.414567	-0.579373	-0.828592
H87	H	1.491048	-0.519741	-0.781185
H88	H	1.331350	-0.455841	-0.726522
H89	H	1.331320	-0.455911	-0.607801
