data_functionalizedCrystal
_audit_creation_method	'MofGen! by Chris Wilmer'
_symmetry_space_group_name_H-M	'P1'
_symmetry_Int_Tables_number	1
_symmetry_cell_setting	triclinic
loop_
_symmetry_equiv_pos_as_xyz
  x,y,z
_cell_length_a	27.732048
_cell_length_b	27.732048
_cell_length_c	26.809956
_cell_angle_alpha	89.999364
_cell_angle_beta	89.996742
_cell_angle_gamma	82.642655
loop_
_atom_site_label
_atom_site_type_symbol
_atom_site_fract_x
_atom_site_fract_y
_atom_site_fract_z
O1	O	0.640931	0.057510	-0.041421
O2	O	1.140931	0.557510	0.458579
O3	O	0.500138	0.066256	-0.041436
O4	O	1.000138	0.566256	0.458564
O5	O	0.574907	-0.008514	-0.041419
O6	O	1.074907	0.491486	0.458581
O7	O	0.566162	0.132280	-0.041439
O8	O	1.066162	0.632280	0.458561
O9	O	0.574893	-0.008502	0.041541
O10	O	1.074893	0.491498	0.541541
O11	O	0.500123	0.066267	0.041523
O12	O	1.000123	0.566267	0.541523
O13	O	0.640917	0.057522	0.041539
O14	O	1.140917	0.557522	0.541539
Zn15	Zn	0.570518	0.061896	0.054702
Zn16	Zn	1.070518	0.561896	0.554702
Zn17	Zn	0.570536	0.061881	-0.054600
Zn18	Zn	1.070536	0.561881	0.445400
O19	O	0.566147	0.132291	0.041521
O20	O	1.066147	0.632291	0.541521
C21	C	0.482124	0.066078	0.000041
C22	C	0.982124	0.566078	0.500041
C23	C	0.428469	0.065525	0.000036
C24	C	0.928469	0.565525	0.500036
C25	C	0.089654	0.106229	0.000051
C26	C	0.589654	0.606229	0.500051
C27	C	-0.112006	0.104178	0.000056
C28	C	0.387994	0.604178	0.500056
O29	O	-0.143262	0.141398	0.000073
O30	O	0.356738	0.641398	0.500073
N31	N	-0.131130	0.059843	0.000062
N32	N	0.368870	0.559843	0.500062
C33	C	-0.099835	0.016017	0.000069
C34	C	0.400165	0.516017	0.500069
O35	O	-0.120728	-0.021740	0.000079
O36	O	0.379272	0.478260	0.500079
C37	C	0.101824	0.018068	0.000068
C38	C	0.601824	0.518068	0.500068
C39	C	0.120944	0.062407	0.000057
C40	C	0.620944	0.562407	0.500057
C41	C	0.108775	0.150563	0.000042
C42	C	0.608775	0.650563	0.500042
C43	C	0.159187	0.151076	0.000038
C44	C	0.659187	0.651076	0.500038
C45	C	0.190477	0.107253	0.000044
C46	C	0.690477	0.607253	0.500044
C47	C	0.171356	0.062919	0.000054
C48	C	0.671356	0.562919	0.500054
C49	C	0.133117	-0.025757	0.000079
C50	C	0.633117	0.474243	0.500079
C51	C	0.183535	-0.025240	0.000080
C52	C	0.683535	0.474760	0.500080
C53	C	0.202655	0.019098	0.000069
C54	C	0.702655	0.519098	0.500069
C55	C	0.253059	0.019609	0.000056
C56	C	0.753059	0.519609	0.500056
N57	N	0.272183	0.063944	0.000050
N58	N	0.772183	0.563944	0.500050
C59	C	0.240892	0.107766	0.000044
C60	C	0.740892	0.607766	0.500044
C61	C	-0.205709	0.014943	0.000069
C62	C	0.294291	0.514943	0.500069
C63	C	-0.256124	0.014430	0.000068
C64	C	0.243876	0.514430	0.500068
C65	C	-0.268291	0.102591	0.000056
C66	C	0.231709	0.602591	0.500056
C67	C	-0.217876	0.103104	0.000053
C68	C	0.282124	0.603104	0.500053
C69	C	-0.186585	0.059278	0.000063
C70	C	0.313415	0.559278	0.500063
C71	C	0.346761	0.108839	0.000036
C72	C	0.846761	0.608839	0.500036
C73	C	0.397178	0.109347	0.000030
C74	C	0.897178	0.609347	0.500030
C75	C	0.409341	0.021186	0.000044
C76	C	0.909341	0.521186	0.500044
C77	C	0.358929	0.020678	0.000048
C78	C	0.858929	0.520678	0.500048
C79	C	0.327639	0.064508	0.000045
C80	C	0.827639	0.564508	0.500045
O81	O	0.284343	-0.017592	0.000045
O82	O	0.784343	0.482408	0.500045
O83	O	0.261794	0.145518	0.000045
O84	O	0.761794	0.645518	0.500045
C85	C	0.039242	0.105716	0.000055
C86	C	0.539242	0.605716	0.500055
C87	C	0.020120	0.061382	0.000065
C88	C	0.520120	0.561382	0.500065
C89	C	0.051411	0.017560	0.000071
C90	C	0.551411	0.517560	0.500071
C91	C	-0.030294	0.060869	0.000065
C92	C	0.469706	0.560869	0.500065
C93	C	-0.061585	0.104691	0.000059
C94	C	0.438415	0.604691	0.500059
C95	C	-0.042461	0.149026	0.000053
C96	C	0.457539	0.649026	0.500053
C97	C	0.007951	0.149539	0.000049
C98	C	0.507951	0.649539	0.500049
C99	C	0.032287	-0.026775	0.000077
C100	C	0.532287	0.473225	0.500077
C101	C	-0.018125	-0.027284	0.000080
C102	C	0.481875	0.472716	0.500080
C103	C	-0.049416	0.016538	0.000074
C104	C	0.450584	0.516538	0.500074
C105	C	0.574716	-0.026515	0.000062
C106	C	1.074716	0.473485	0.500062
C107	C	0.574164	-0.080170	0.000066
C108	C	1.074164	0.419830	0.500066
C109	C	0.614867	-0.418985	0.000045
C110	C	1.114867	0.081015	0.500045
C111	C	0.612816	-0.620645	0.000038
C112	C	1.112816	-0.120645	0.500038
O113	O	0.650037	-0.651900	0.000021
O114	O	1.150037	-0.151900	0.500021
N115	N	0.568481	-0.639768	0.000034
N116	N	1.068481	-0.139768	0.500034
C117	C	0.524656	-0.608474	0.000028
C118	C	1.024656	-0.108474	0.500028
O119	O	0.486899	-0.629367	0.000019
O120	O	0.986899	-0.129367	0.500019
C121	C	0.526707	-0.406815	0.000031
C122	C	1.026707	0.093185	0.500031
C123	C	0.571045	-0.387694	0.000041
C124	C	1.071045	0.112306	0.500041
C125	C	0.659202	-0.399864	0.000054
C126	C	1.159202	0.100136	0.500054
C127	C	0.659714	-0.349452	0.000059
C128	C	1.159714	0.150548	0.500059
C129	C	0.615892	-0.318161	0.000054
C130	C	1.115892	0.181839	0.500054
C131	C	0.571557	-0.337282	0.000045
C132	C	1.071557	0.162718	0.500045
C133	C	0.482882	-0.375521	0.000022
C134	C	0.982882	0.124479	0.500022
C135	C	0.483399	-0.325104	0.000021
C136	C	0.983399	0.174896	0.500021
C137	C	0.527737	-0.305983	0.000031
C138	C	1.027737	0.194017	0.500031
C139	C	0.528247	-0.255580	0.000045
C140	C	1.028247	0.244420	0.500045
N141	N	0.572583	-0.236456	0.000050
N142	N	1.072583	0.263544	0.500050
C143	C	0.616405	-0.267747	0.000054
C144	C	1.116405	0.232253	0.500054
C145	C	0.523582	-0.714348	0.000027
C146	C	1.023582	-0.214348	0.500027
C147	C	0.523069	-0.764762	0.000027
C148	C	1.023069	-0.264762	0.500027
C149	C	0.611230	-0.776930	0.000036
C150	C	1.111230	-0.276930	0.500036
C151	C	0.611742	-0.726514	0.000040
C152	C	1.111742	-0.226514	0.500040
C153	C	0.567917	-0.695224	0.000031
C154	C	1.067917	-0.195224	0.500031
C155	C	0.617477	-0.161878	0.000064
C156	C	1.117477	0.338122	0.500064
C157	C	0.617986	-0.111461	0.000071
C158	C	1.117986	0.388539	0.500071
C159	C	0.529825	-0.099298	0.000059
C160	C	1.029825	0.400702	0.500059
C161	C	0.529316	-0.149710	0.000055
C162	C	1.029316	0.350290	0.500055
C163	C	0.573147	-0.180999	0.000056
C164	C	1.073147	0.319001	0.500056
O165	O	0.491047	-0.224296	0.000057
O166	O	0.991047	0.275704	0.500057
O167	O	0.654156	-0.246844	0.000053
O168	O	1.154156	0.253156	0.500053
C169	C	0.614355	-0.469397	0.000041
C170	C	1.114355	0.030603	0.500041
C171	C	0.570021	-0.488518	0.000032
C172	C	1.070021	0.011482	0.500032
C173	C	0.526198	-0.457228	0.000027
C174	C	1.026198	0.042772	0.500027
C175	C	0.569508	-0.538933	0.000032
C176	C	1.069508	-0.038933	0.500032
C177	C	0.613330	-0.570223	0.000036
C178	C	1.113330	-0.070223	0.500036
C179	C	0.657665	-0.551100	0.000041
C180	C	1.157665	-0.051100	0.500041
C181	C	0.658177	-0.500688	0.000045
C182	C	1.158177	-0.000688	0.500045
C183	C	0.481863	-0.476351	0.000023
C184	C	0.981863	0.023649	0.500023
C185	C	0.481355	-0.526764	0.000019
C186	C	0.981355	-0.026764	0.500019
C187	C	0.525177	-0.558054	0.000023
C188	C	1.025177	-0.058054	0.500023
C189	C	0.658931	0.057699	0.000060
C190	C	1.158931	0.557699	0.500060
C191	C	0.712586	0.058252	0.000062
C192	C	1.212586	0.558252	0.500062
C193	C	0.566338	0.150292	0.000039
C194	C	1.066338	0.650292	0.500039
C195	C	0.566891	0.203947	0.000031
C196	C	1.066891	0.703947	0.500031
N197	N	0.570509	0.061906	0.129298
N198	N	1.070509	0.561906	0.629298
N199	N	0.570549	0.061867	-0.129196
N200	N	1.070549	0.561867	0.370804
C201	C	0.603640	0.028781	0.473932
C202	C	1.103640	0.528781	0.973932
C203	C	0.603652	0.028774	0.682810
C204	C	1.103652	0.528774	1.182810
O205	O	0.631801	0.000613	0.709820
O206	O	1.131801	0.500613	1.209820
N207	N	0.570539	0.061870	0.708925
N208	N	1.070539	0.561870	1.208925
C209	C	0.537419	0.094969	0.682818
C210	C	1.037419	0.594969	1.182818
O211	O	0.509252	0.123116	0.709824
O212	O	1.009252	0.623116	1.209824
C213	C	0.537406	0.094974	0.473941
C214	C	1.037406	0.594974	0.973941
C215	C	0.570524	0.061878	0.447829
C216	C	1.070524	0.561878	0.947829
C217	C	0.636755	-0.004312	0.447819
C218	C	1.136755	0.495688	0.947819
C219	C	0.636754	-0.004308	0.395603
C220	C	1.136754	0.495692	0.895603
C221	C	0.603637	0.028789	0.369500
C222	C	1.103637	0.528789	0.869500
C223	C	0.570522	0.061882	0.395612
C224	C	1.070522	0.561882	0.895612
C225	C	0.504284	0.128070	0.447835
C226	C	1.004284	0.628070	0.947835
C227	C	0.504283	0.128067	0.395613
C228	C	1.004283	0.628067	0.895613
C229	C	0.537401	0.094972	0.369500
C230	C	1.037401	0.594972	0.869500
C231	C	0.537405	0.094983	0.317293
C232	C	1.037405	0.594983	0.817293
N233	N	0.570517	0.061887	0.291177
N234	N	1.070517	0.561887	0.791177
C235	C	0.603633	0.028790	0.317281
C236	C	1.103633	0.528790	0.817281
C237	C	0.537429	0.094965	0.792481
C238	C	1.037429	0.594965	1.292481
C239	C	0.537433	0.094964	0.844700
C240	C	1.037433	0.594964	1.344700
C241	C	0.603665	0.028768	0.844689
C242	C	1.103665	0.528768	1.344689
C243	C	0.603663	0.028772	0.792469
C244	C	1.103663	0.528772	1.292469
C245	C	0.570542	0.061868	0.766366
C246	C	1.070542	0.561868	1.266366
C247	C	0.603628	0.028801	0.207623
C248	C	1.103628	0.528801	0.707623
C249	C	0.603625	0.028809	0.155402
C250	C	1.103625	0.528809	0.655402
C251	C	0.537392	0.095003	0.155418
C252	C	1.037392	0.595003	0.655418
C253	C	0.537396	0.094997	0.207635
C254	C	1.037396	0.594997	0.707635
C255	C	0.570516	0.061892	0.233735
C256	C	1.070516	0.561892	0.733735
O257	O	0.509266	0.123126	0.290250
O258	O	1.009266	0.623126	0.790250
O259	O	0.631789	0.000640	0.290266
O260	O	1.131789	0.500640	0.790266
C261	C	0.603642	0.028777	0.526149
C262	C	1.103642	0.528777	1.026149
C263	C	0.570527	0.061870	0.552261
C264	C	1.070527	0.561870	1.052261
C265	C	0.537410	0.094968	0.526158
C266	C	1.037410	0.594968	1.026158
C267	C	0.570531	0.061870	0.604480
C268	C	1.070531	0.561870	1.104480
C269	C	0.603647	0.028773	0.630584
C270	C	1.103647	0.528773	1.130584
C271	C	0.636759	-0.004324	0.604468
C272	C	1.136759	0.495676	1.104468
C273	C	0.636758	-0.004320	0.552252
C274	C	1.136758	0.495680	1.052252
C275	C	0.504298	0.128064	0.552273
C276	C	1.004298	0.628064	1.052273
C277	C	0.504303	0.128058	0.604489
C278	C	1.004303	0.628058	1.104489
C279	C	0.537419	0.094961	0.630593
C280	C	1.037419	0.594961	1.130593
H281	H	0.083302	0.186251	0.000038
H282	H	0.583302	0.686251	0.500038
H283	H	0.446177	-0.450879	0.000018
H284	H	0.946177	0.049121	0.500018
N285	N	0.501713	0.130661	0.872860
N286	N	1.001713	0.630661	1.372860
H287	H	0.506737	0.125642	0.909903
H288	H	1.006737	0.625642	1.409903
H289	H	0.507037	0.164916	0.863730
H290	H	1.007037	0.664916	1.363730
N291	N	0.443093	-0.026078	0.000053
N292	N	0.943093	0.473922	0.500053
H293	H	0.464285	-0.027836	-0.030698
H294	H	0.964285	0.472164	0.469302
H295	H	0.464246	-0.027791	0.030828
H296	H	0.964246	0.472209	0.530828
H297	H	0.023514	0.185643	0.000042
H298	H	0.523514	0.685643	0.500042
N299	N	0.705998	-0.480067	0.000050
N300	N	1.205998	0.019933	0.500050
H301	H	0.708175	-0.459423	0.030804
H302	H	1.208175	0.040577	0.530804
H303	H	0.733650	-0.507570	0.000033
H304	H	1.233650	-0.007570	0.500033
N305	N	0.468556	0.163765	0.367463
N306	N	0.968556	0.663765	0.867463
H307	H	0.473863	0.198035	0.376553
H308	H	0.973863	0.698035	0.876553
H309	H	0.473593	0.158706	0.330428
H310	H	0.973593	0.658706	0.830428
H311	H	0.174750	0.187180	0.000029
H312	H	0.674750	0.687180	0.500029
N313	N	0.639348	-0.006887	0.127237
N314	N	1.139348	0.493113	0.627237
H315	H	0.660325	-0.027854	0.151701
H316	H	1.160325	0.472146	0.651701
H317	H	0.621004	-0.028129	0.105571
H318	H	1.121004	0.471871	0.605571
N319	N	-0.302035	0.149864	0.000075
N320	N	0.197965	0.649864	0.500075
H321	H	-0.295928	0.169236	-0.030671
H322	H	0.204072	0.669236	0.469329
H323	H	-0.336862	0.142779	0.000103
H324	H	0.163138	0.642779	0.500103
H325	H	0.663725	-0.031269	0.530995
H326	H	1.163725	0.468731	1.030995
N327	N	-0.076209	0.196297	0.000062
N328	N	0.423791	0.696297	0.500062
H329	H	-0.070101	0.215662	-0.030690
H330	H	0.429899	0.715662	0.469310
H331	H	-0.111034	0.189206	0.000088
H332	H	0.388966	0.689206	0.500088
H333	H	0.510457	0.121917	0.771232
H334	H	1.010457	0.621917	1.271232
N335	N	-0.197254	0.150924	0.000040
N336	N	0.302746	0.650924	0.500040
H337	H	-0.224731	0.178605	0.000034
H338	H	0.275269	0.678605	0.500034
H339	H	-0.176606	0.153066	0.030794
H340	H	0.323394	0.653066	0.530794
N341	N	0.659563	-0.705893	0.000051
N342	N	1.159563	-0.205893	0.500051
H343	H	0.687244	-0.733370	0.000055
H344	H	1.187244	-0.233370	0.500055
H345	H	0.661705	-0.685242	-0.030704
H346	H	1.161705	-0.185242	0.469296
H347	H	0.630630	0.001820	0.865951
H348	H	1.130630	0.501820	1.365951
N349	N	0.468577	0.163753	0.632651
N350	N	0.968577	0.663753	1.132651
H351	H	0.486879	0.185033	0.654318
H352	H	0.986879	0.685033	1.154318
H353	H	0.447607	0.184683	0.608153
H354	H	0.947607	0.684683	1.108153
N355	N	0.435062	-0.396141	0.000005
N356	N	0.935062	0.103859	0.500005
H357	H	0.432872	-0.416788	0.030756
H358	H	0.932872	0.083212	0.530756
H359	H	0.407409	-0.368639	-0.000021
H360	H	0.907409	0.131361	0.499979
N361	N	0.639353	-0.006900	0.235771
N362	N	1.139353	0.493100	0.735771
H363	H	0.634049	-0.041170	0.226680
H364	H	1.134049	0.458830	0.726680
H365	H	0.673597	-0.001519	0.226664
H366	H	1.173597	0.498481	0.726664
N367	N	-0.038745	-0.075109	0.000088
N368	N	0.461255	0.424891	0.500088
H369	H	-0.011268	-0.102790	0.000093
H370	H	0.488732	0.397210	0.500093
H371	H	-0.059395	-0.077237	0.030846
H372	H	0.440605	0.422763	0.530846
H373	H	-0.271687	-0.021674	0.000069
H374	H	0.228313	0.478326	0.500069
N375	N	0.066033	-0.074043	0.000087
N376	N	0.566033	0.425957	0.500087
H377	H	0.046264	-0.102203	0.000092
H378	H	0.546264	0.397797	0.500092
H379	H	0.087216	-0.075758	-0.030668
H380	H	0.587216	0.424242	0.469332
N381	N	0.707539	-0.328838	0.000065
N382	N	1.207539	0.171162	0.500065
H383	H	0.726721	-0.340276	-0.030687
H384	H	1.226721	0.159724	0.469313
H385	H	0.701184	-0.292155	0.000084
H386	H	1.201184	0.207845	0.500084
N387	N	0.672472	-0.040006	0.367442
N388	N	1.172472	0.459994	0.867442
H389	H	0.693447	-0.060971	0.391909
H390	H	1.193447	0.439029	0.891909
H391	H	0.654127	-0.061250	0.345780
H392	H	1.154127	0.438750	0.845780
H393	H	0.630630	0.001822	0.771211
H394	H	1.130630	0.501822	1.271211
H395	H	0.209009	-0.060929	0.000089
H396	H	0.709009	0.439071	0.500089
H397	H	0.693347	-0.576585	0.000047
H398	H	1.193347	-0.076585	0.500047
H399	H	0.654093	-0.095896	0.000080
H400	H	1.154093	0.404104	0.500080
H401	H	0.510433	0.121951	0.228896
H402	H	1.010433	0.621951	0.728896
N403	N	0.468556	0.163758	0.475991
N404	N	0.968556	0.663758	0.975991
H405	H	0.447576	0.184717	0.451523
H406	H	0.947576	0.684717	0.951523
H407	H	0.447330	0.145389	0.497653
H408	H	0.947330	0.645389	0.997653
H409	H	-0.180236	-0.020747	0.000077
H410	H	0.319764	0.479253	0.500077
N411	N	0.436125	-0.291362	0.000021
N412	N	0.936125	0.208638	0.500021
H413	H	0.434366	-0.270178	0.030777
H414	H	0.934366	0.229822	0.530777
H415	H	0.434399	-0.270201	-0.030749
H416	H	0.934399	0.229799	0.469251
H417	H	0.477330	0.155015	0.531024
H418	H	0.977330	0.655015	1.031024
H419	H	0.646911	-0.802415	0.000040
H420	H	1.146911	-0.302415	0.500040
H421	H	0.445246	-0.542327	0.000015
H422	H	0.945246	-0.042327	0.500015
N423	N	0.501675	0.130699	0.127259
N424	N	1.001675	0.630699	0.627259
H425	H	0.506700	0.125675	0.090217
H426	H	1.006700	0.625675	0.590217
H427	H	0.467428	0.125347	0.136389
H428	H	0.967428	0.625347	0.636389
N429	N	0.672481	-0.040020	0.632628
N430	N	1.172481	0.459980	1.132628
H431	H	0.667453	-0.034996	0.669670
H432	H	1.167453	0.465004	1.169670
H433	H	0.667155	-0.074274	0.623502
H434	H	1.167155	0.425726	1.123502
H435	H	0.493213	-0.165279	0.000061
H436	H	0.993213	0.334721	0.500061
N437	N	0.672484	-0.040005	0.475969
N438	N	1.172484	0.459995	0.975969
H439	H	0.693460	-0.060963	0.451495
H440	H	1.193460	0.439037	0.951495
H441	H	0.693713	-0.021637	0.497625
H442	H	1.193713	0.478363	0.997625
N443	N	0.338297	-0.027140	0.000061
N444	N	0.838297	0.472860	0.500061
H445	H	0.317648	-0.029324	-0.030687
H446	H	0.817648	0.470676	0.469313
H447	H	0.365795	-0.054797	0.000083
H448	H	0.865795	0.445203	0.500083
H449	H	0.412743	0.145454	0.000021
H450	H	0.912743	0.645454	0.500021
H451	H	0.321291	0.144530	0.000035
H452	H	0.821291	0.644530	0.500035
H453	H	0.117558	-0.061861	0.000088
H454	H	0.617558	0.438139	0.500088
H455	H	0.653168	-0.187348	0.000063
H456	H	1.153168	0.312652	0.500063
N457	N	0.706470	-0.433611	0.000063
N458	N	1.206470	0.066389	0.500063
H459	H	0.725838	-0.427496	-0.030686
H460	H	1.225838	0.072504	0.469314
H461	H	0.725780	-0.427474	0.030841
H462	H	1.225780	0.072526	0.530841
N463	N	0.475247	-0.785383	0.000030
N464	N	0.975247	-0.285383	0.500030
H465	H	0.447566	-0.757906	0.000027
H466	H	0.947566	-0.257906	0.500027
H467	H	0.473115	-0.806035	-0.030723
H468	H	0.973115	-0.306035	0.469277
N469	N	0.476310	-0.680602	0.000019
N470	N	0.976310	-0.180602	0.500019
H471	H	0.448150	-0.700372	0.000017
H472	H	0.948150	-0.200372	0.500017
H473	H	0.474595	-0.659420	0.030773
H474	H	0.974595	-0.159420	0.530773
H475	H	0.494146	-0.073812	0.000057
H476	H	0.994146	0.426188	0.500057
