data_functionalizedCrystal
_audit_creation_method	'MofGen! by Chris Wilmer'
_symmetry_space_group_name_H-M	'P1'
_symmetry_Int_Tables_number	1
_symmetry_cell_setting	triclinic
loop_
_symmetry_equiv_pos_as_xyz
  x,y,z
_cell_length_a	26.210047
_cell_length_b	19.188930
_cell_length_c	19.188922
_cell_angle_alpha	83.142936
_cell_angle_beta	90.001990
_cell_angle_gamma	89.977114
loop_
_atom_site_label
_atom_site_type_symbol
_atom_site_fract_x
_atom_site_fract_y
_atom_site_fract_z
O1	O	0.042596	-0.926148	-0.087158
O2	O	0.042561	-0.722836	-0.098892
O3	O	0.042573	-0.830362	0.008631
O4	O	0.042584	-0.818622	-0.194681
O5	O	-0.042285	-0.830342	0.008614
O6	O	-0.042297	-0.722815	-0.098909
O7	O	-0.042262	-0.926127	-0.087175
Cu8	Cu	-0.050028	-0.824469	-0.093043
Cu9	Cu	0.050327	-0.824494	-0.093024
O10	O	-0.042274	-0.818601	-0.194698
C11	C	0.000128	-0.696815	-0.098521
C12	C	0.000114	-0.619310	-0.097380
C13	C	0.000143	-0.829973	0.034634
C14	C	0.000141	-0.828835	0.112139
N15	N	-0.120612	-0.824457	-0.093057
C16	C	-0.473121	-0.872102	-0.045423
C17	C	-0.686779	-0.872117	-0.045413
O18	O	-0.714397	-0.912599	-0.004916
N19	N	-0.713506	-0.824498	-0.093008
C20	C	-0.686814	-0.776868	-0.140606
O21	O	-0.714449	-0.736360	-0.181083
C22	C	-0.473157	-0.776850	-0.140612
C23	C	-0.446433	-0.824477	-0.093018
C24	C	-0.446397	-0.919724	0.002167
C25	C	-0.392985	-0.919723	0.002162
C26	C	-0.366298	-0.872098	-0.045434
C27	C	-0.393021	-0.824475	-0.093024
C28	C	-0.446466	-0.729217	-0.188206
C29	C	-0.393048	-0.729216	-0.188202
C30	C	-0.366325	-0.776843	-0.140608
C31	C	-0.312922	-0.776849	-0.140625
N32	N	-0.286196	-0.824468	-0.093030
C33	C	-0.312883	-0.872093	-0.045434
C34	C	-0.798988	-0.776882	-0.140600
C35	C	-0.852402	-0.776887	-0.140600
C36	C	-0.852363	-0.872135	-0.045406
C37	C	-0.798948	-0.872133	-0.045411
C38	C	-0.772261	-0.824501	-0.093005
C39	C	-0.200716	-0.872086	-0.045450
C40	C	-0.147299	-0.872082	-0.045461
C41	C	-0.147343	-0.776831	-0.140652
C42	C	-0.200754	-0.776837	-0.140644
C43	C	-0.227439	-0.824467	-0.093036
O44	O	-0.285272	-0.736383	-0.181095
O45	O	-0.285239	-0.912584	-0.004953
C46	C	-0.526532	-0.872103	-0.045418
C47	C	-0.553256	-0.824481	-0.093008
C48	C	-0.526568	-0.776856	-0.140603
C49	C	-0.606670	-0.824486	-0.093007
C50	C	-0.633358	-0.872110	-0.045412
C51	C	-0.606631	-0.919730	0.002183
C52	C	-0.553220	-0.919728	0.002178
C53	C	-0.553295	-0.729237	-0.188198
C54	C	-0.606706	-0.729243	-0.188189
C55	C	-0.633394	-0.776867	-0.140594
N56	N	0.120911	-0.824512	-0.093004
C57	C	0.000172	-0.952148	-0.087546
C58	C	0.000189	-1.029653	-0.088687
C59	C	0.000126	-0.574384	-0.160471
C60	C	0.000131	-0.501560	-0.159399
C61	C	0.000136	-0.473666	-0.095233
C62	C	0.000121	-0.518602	-0.032134
C63	C	0.000111	-0.591424	-0.033207
N64	N	0.029034	-0.365694	-0.046180
N65	N	0.029045	-0.296516	-0.045165
C66	C	0.000167	-0.254257	-0.091995
N67	N	-0.028718	-0.283790	-0.139889
N68	N	-0.028727	-0.352974	-0.140907
C69	C	0.000147	-0.394704	-0.094062
C70	C	0.000183	-0.130367	-0.153928
C71	C	0.000186	-0.057542	-0.152854
C72	C	0.000181	-0.074585	-0.025586
C73	C	0.000173	-0.147408	-0.026663
C74	C	0.000177	-0.175295	-0.090835
C75	C	0.046397	-0.828315	0.148547
C76	C	0.046400	-0.827235	0.221369
C77	C	0.000145	-0.826690	0.257783
C78	C	-0.046117	-0.827206	0.221366
C79	C	-0.046119	-0.828278	0.148544
N80	N	-0.034275	-0.864730	0.377440
N81	N	-0.034270	-0.863713	0.446618
C82	C	0.000148	-0.823458	0.477193
N83	N	0.034570	-0.784266	0.435977
N84	N	0.034566	-0.785287	0.366792
C85	C	0.000142	-0.825527	0.336747
C86	C	0.046411	-0.821766	0.592563
C87	C	0.046412	-0.820683	0.665387
C88	C	-0.046106	-0.820660	0.665383
C89	C	-0.046106	-0.821737	0.592560
C90	C	0.000154	-0.822293	0.556155
C91	C	0.000155	-0.818992	0.779300
C92	C	0.000157	-0.820136	0.701795
H93	H	-0.125543	-0.910868	-0.006705
C94	C	-0.523945	-0.676851	-0.240560
H95	H	-0.547516	-0.648498	-0.268905
H96	H	-0.503113	-0.647861	-0.215526
H97	H	-0.503106	-0.701880	-0.269569
C98	C	0.000169	-0.196829	0.042739
H99	H	0.000176	-0.169788	0.081108
H100	H	-0.029426	-0.225569	0.044961
H101	H	0.029761	-0.225613	0.044968
C102	C	0.000120	-0.605056	-0.231058
H103	H	0.000123	-0.567865	-0.268480
H104	H	0.029706	-0.633138	-0.234121
H105	H	-0.029482	-0.633080	-0.234125
H106	H	0.000179	-0.153073	-0.206182
H107	H	0.084079	-0.822215	0.562920
H108	H	-0.083768	-0.820211	0.695030
C109	C	-0.636096	-0.676846	-0.240542
H110	H	-0.612547	-0.648480	-0.268881
H111	H	-0.656931	-0.701858	-0.269549
H112	H	-0.656936	-0.647861	-0.215485
C113	C	-0.363696	-0.676823	-0.240561
H114	H	-0.387265	-0.648466	-0.268906
H115	H	-0.342865	-0.647838	-0.215520
H116	H	-0.342855	-0.701848	-0.269571
H117	H	0.084066	-0.828766	0.118910
C118	C	0.000129	-0.487921	0.038447
H119	H	0.000143	-0.438116	0.030051
H120	H	-0.029465	-0.503329	0.064413
H121	H	0.029722	-0.503383	0.064419
H122	H	0.084069	-0.826808	0.251018
C123	C	0.000199	-0.008120	-0.222256
H124	H	0.000199	0.039245	-0.212428
H125	H	0.029792	-0.016577	-0.248567
H126	H	-0.029395	-0.016530	-0.248586
C127	C	-0.096996	-0.826608	0.261418
H128	H	-0.090371	-0.825902	0.310004
H129	H	-0.116010	-0.786072	0.244035
H130	H	-0.115996	-0.867490	0.254932
C131	C	0.000146	-0.452130	-0.228800
H132	H	0.000149	-0.404766	-0.218968
H133	H	0.029739	-0.460588	-0.255113
H134	H	-0.029449	-0.460535	-0.255130
C135	C	-0.097003	-0.828857	0.108494
H136	H	-0.124551	-0.828381	0.140608
H137	H	-0.098933	-0.788571	0.074632
H138	H	-0.098918	-0.869989	0.085541
H139	H	0.000101	-0.628004	0.018171
H140	H	0.084081	-0.820256	0.695029
C141	C	-0.475745	-0.972120	0.054523
H142	H	-0.452172	-1.000480	0.082857
H143	H	-0.496592	-0.947110	0.083533
H144	H	-0.496569	-1.001111	0.029473
H145	H	-0.083773	-0.822166	0.562917
H146	H	0.000216	-0.051875	0.026659
H147	H	-0.222437	-0.910870	-0.006683
H148	H	-0.371230	-0.958503	0.040918
H149	H	-0.777192	-0.910915	-0.006656
H150	H	-0.874101	-0.910914	-0.006653
H151	H	-0.874156	-0.738112	-0.179362
H152	H	-0.468217	-0.690435	-0.226960
C153	C	-0.230152	-0.724423	-0.192968
H154	H	-0.206605	-0.696049	-0.221304
H155	H	-0.250999	-0.749412	-0.221981
H156	H	-0.250979	-0.695448	-0.167884
C157	C	-0.769638	-0.724489	-0.192964
H158	H	-0.793210	-0.696139	-0.221311
H159	H	-0.748810	-0.695498	-0.167928
H160	H	-0.748796	-0.749515	-0.221972
H161	H	-0.125605	-0.738058	-0.179406
H162	H	-0.531465	-0.958510	0.040933
H163	H	-0.628369	-0.958510	0.040935
