data_functionalizedCrystal
_audit_creation_method	'MofGen! by Chris Wilmer'
_symmetry_space_group_name_H-M	'P1'
_symmetry_Int_Tables_number	1
_symmetry_cell_setting	triclinic
loop_
_symmetry_equiv_pos_as_xyz
  x,y,z
_cell_length_a	27.440280
_cell_length_b	27.440280
_cell_length_c	19.851628
_cell_angle_alpha	59.998962
_cell_angle_beta	90.007782
_cell_angle_gamma	59.998992
loop_
_atom_site_label
_atom_site_type_symbol
_atom_site_fract_x
_atom_site_fract_y
_atom_site_fract_z
Zr1	Zr	-0.063978	0.533417	0.648948
O2	O	-0.141813	0.635096	0.541374
O3	O	-0.040106	0.431738	0.681929
O4	O	-0.141785	0.533405	0.681921
O5	O	0.040059	0.533439	0.541383
O6	O	-0.141775	0.533396	0.792783
O7	O	-0.040134	0.533429	0.541382
O8	O	0.040110	0.351532	0.792796
O9	O	-0.141826	0.715302	0.541370
O10	O	-0.029931	0.473553	0.778725
O11	O	0.029909	0.473567	0.695991
O12	O	-0.089805	0.593267	0.695983
O13	O	-0.029965	0.593281	0.613249
Zr14	Zr	0.063937	0.533417	0.825762
Zr15	Zr	-0.063962	0.533402	0.825760
Zr16	Zr	0.063921	0.533432	0.648951
Zr17	Zr	-0.063998	0.661337	0.648941
Zr18	Zr	0.063957	0.405498	0.825769
O19	O	0.040065	0.635096	0.792782
O20	O	-0.141791	0.635075	0.792778
O21	O	0.040043	0.635117	0.541378
O22	O	0.141773	0.431738	0.933336
O23	O	-0.040084	0.431717	0.933332
O24	O	0.141751	0.431760	0.681932
O25	O	-0.040100	0.533396	0.933327
O26	O	0.141744	0.533429	0.792789
O27	O	0.141734	0.533439	0.681927
O28	O	0.040094	0.533405	0.933329
O29	O	-0.141814	0.715290	0.681912
O30	O	0.141773	0.351544	0.792798
O31	O	0.141785	0.351532	0.933340
O32	O	0.040123	0.351521	0.933338
O33	O	-0.040163	0.715314	0.541372
O34	O	-0.040151	0.715302	0.681914
O35	O	0.089764	0.473567	0.778728
O36	O	0.029924	0.473553	0.861461
O37	O	-0.029950	0.593267	0.778719
O38	O	0.029890	0.593281	0.695985
C39	C	0.000005	0.373410	0.737363
C40	C	0.000014	0.319105	0.737366
C41	C	-0.044229	0.026606	0.676276
C42	C	-0.044235	-0.024411	0.676275
O43	O	-0.081833	-0.013218	0.624348
N44	N	-0.000044	-0.094115	0.737352
C45	C	0.044154	-0.112802	0.798438
O46	O	0.081741	-0.176775	0.850390
C47	C	0.044157	-0.061785	0.798442
C48	C	-0.000034	0.007919	0.737356
C49	C	-0.088417	0.096307	0.615196
C50	C	-0.088410	0.147320	0.615196
C51	C	-0.044215	0.128633	0.676276
C52	C	-0.000027	0.058932	0.737356
C53	C	0.088351	-0.080473	0.859531
C54	C	0.088350	-0.029449	0.859529
C55	C	0.044159	0.040255	0.798443
C56	C	0.044175	0.091258	0.798436
N57	N	-0.000017	0.160962	0.737359
C58	C	-0.044212	0.179650	0.676279
C59	C	0.044143	-0.219937	0.798428
C60	C	0.044143	-0.270953	0.798422
C61	C	-0.044247	-0.182558	0.676260
C62	C	-0.044244	-0.131542	0.676263
C63	C	-0.000049	-0.150233	0.737351
C64	C	-0.044193	0.286778	0.676283
C65	C	-0.044181	0.337792	0.676286
C66	C	0.044207	0.249393	0.798451
C67	C	0.044196	0.198383	0.798445
C68	C	-0.000009	0.217081	0.737358
O69	O	0.081751	0.080117	0.850338
O70	O	-0.081798	0.243623	0.624343
C71	C	-0.160003	0.533399	0.737352
C72	C	-0.214299	0.533392	0.737351
C73	C	-0.582287	0.595918	0.694172
C74	C	-0.633309	0.595922	0.694174
O75	O	-0.686277	0.649066	0.657468
N76	N	-0.627573	0.533433	0.737363
C77	C	-0.570810	0.470937	0.780560
O78	O	-0.570616	0.417786	0.817296
C79	C	-0.519789	0.470934	0.780562
C80	C	-0.525530	0.533426	0.737363
C81	C	-0.588025	0.658406	0.650977
C82	C	-0.537006	0.658401	0.650974
C83	C	-0.480249	0.595910	0.694165
C84	C	-0.474511	0.533422	0.737359
C85	C	-0.463027	0.408438	0.823762
C86	C	-0.412005	0.408440	0.823761
C87	C	-0.417746	0.470933	0.780562
C88	C	-0.366735	0.470926	0.780547
N89	N	-0.372471	0.533415	0.737358
C90	C	-0.429228	0.595907	0.694167
C91	C	-0.677960	0.470948	0.780553
C92	C	-0.728980	0.470950	0.780547
C93	C	-0.791475	0.595936	0.694163
C94	C	-0.740454	0.595933	0.694165
C95	C	-0.683696	0.533436	0.737364
C96	C	-0.322083	0.595893	0.694162
C97	C	-0.271056	0.595884	0.694160
C98	C	-0.208565	0.470899	0.780547
C99	C	-0.259587	0.470908	0.780547
C100	C	-0.316347	0.533411	0.737352
O101	O	-0.313748	0.417809	0.817238
O102	O	-0.429412	0.649049	0.657445
C103	C	0.159962	0.533436	0.737358
C104	C	0.214259	0.533442	0.737359
C105	C	-0.000040	0.533436	0.516191
C106	C	-0.000046	0.533442	0.441129
C107	C	-0.000046	0.693425	0.737347
C108	C	-0.000055	0.747730	0.737344
C109	C	-0.032672	0.598700	0.214670
C110	C	-0.056314	0.566067	0.192310
C111	C	-0.000029	0.533425	0.303723
C112	C	0.023602	0.566061	0.192342
C113	C	-0.000013	0.533412	0.170991
C114	C	-0.023704	0.500792	0.282351
C115	C	0.056243	0.500795	0.282381
C116	C	0.032615	0.468115	0.260074
C117	C	-0.000040	0.533434	0.380185
C118	C	-0.000003	0.533398	0.094534
C119	C	-0.000001	0.533398	0.958520
C120	C	0.000006	0.533392	1.033581
C121	C	0.000025	0.373391	0.958528
C122	C	0.000040	0.319079	1.033592
C123	C	0.159988	0.373428	0.737367
C124	C	0.214293	0.319130	0.737371
C125	C	0.160007	0.373410	0.958531
C126	C	0.214319	0.319105	1.033596
C127	C	-0.160048	0.693425	0.516179
C128	C	-0.214360	0.747730	0.441114
C129	C	-0.000065	0.693444	0.516182
C130	C	-0.000081	0.747755	0.441118
C131	C	-0.160028	0.693406	0.737344
C132	C	-0.214333	0.747705	0.737340
C133	C	-0.031202	0.293574	1.025656
C134	C	-0.031199	0.242550	1.096179
C135	C	0.000049	0.217028	1.174639
C136	C	0.031291	0.242538	1.182574
C137	C	0.031285	0.293565	1.112051
C138	C	0.271044	0.293630	0.780560
C139	C	0.322074	0.242618	0.780560
C140	C	0.316352	0.217103	0.737376
C141	C	0.259595	0.242607	0.694181
C142	C	0.208566	0.293622	0.694177
C143	C	0.208588	0.293595	1.112041
C144	C	0.259615	0.242577	1.182580
C145	C	0.316372	0.217065	1.174671
C146	C	0.322101	0.242580	1.096218
C147	C	0.271075	0.293601	1.025682
C148	C	-0.208629	0.773246	0.362669
C149	C	-0.259656	0.824280	0.292131
C150	C	-0.316413	0.849794	0.300039
C151	C	-0.322142	0.824276	0.378492
C152	C	-0.271116	0.773246	0.449029
C153	C	0.031156	0.773266	0.449055
C154	C	0.031139	0.824304	0.378531
C155	C	-0.000110	0.849828	0.300071
C156	C	-0.031351	0.824315	0.292136
C157	C	-0.031337	0.773281	0.362659
C158	C	-0.208592	0.773204	0.780532
C159	C	-0.259613	0.824217	0.780545
C160	C	-0.316374	0.849733	0.737359
C161	C	-0.322114	0.824228	0.694165
C162	C	-0.271094	0.773213	0.694158
H163	H	-0.275738	0.646775	0.658979
C164	C	-0.146129	0.402163	0.828065
H165	H	-0.116568	0.411117	0.821883
H166	H	-0.141645	0.376478	0.806755
H167	H	-0.141650	0.376495	0.884888
H168	H	0.368284	0.221859	0.815737
H169	H	-0.056655	0.314353	0.961776
H170	H	-0.000116	0.891383	0.242653
C171	C	-0.253346	0.852339	0.205841
H172	H	-0.291861	0.886391	0.164959
H173	H	-0.232146	0.815709	0.199662
H174	H	-0.232144	0.872240	0.199666
C175	C	0.120503	0.463570	0.334820
H176	H	0.137235	0.486839	0.303395
H177	H	0.143868	0.417437	0.350685
H178	H	0.120049	0.463487	0.382727
C179	C	0.384535	0.214507	1.087530
H180	H	0.414099	0.180461	1.140778
H181	H	0.389015	0.251130	1.058225
H182	H	0.389013	0.194592	1.058237
H183	H	0.060220	0.412876	0.278684
H184	H	-0.368359	0.845056	0.384921
H185	H	0.043580	0.593666	0.153540
C186	C	0.065534	0.745198	0.535351
H187	H	0.084128	0.767712	0.529965
H188	H	0.095109	0.697027	0.564662
H189	H	0.038567	0.753557	0.564659
H190	H	0.275749	0.314364	0.961811
C191	C	-0.384511	0.664645	0.646642
H192	H	-0.380613	0.701855	0.620913
H193	H	-0.405713	0.667252	0.683910
H194	H	-0.405717	0.667246	0.605768
H195	H	-0.056641	0.221786	1.089703
H196	H	-0.745135	0.646820	0.658988
H197	H	0.080133	-0.327707	0.848157
C198	C	0.000057	0.160894	1.252207
H199	H	-0.023021	0.149357	1.236236
H200	H	-0.016668	0.177605	1.284119
H201	H	0.039870	0.121078	1.284112
H202	H	0.056732	0.221751	1.246465
H203	H	-0.080235	-0.167350	0.626527
C204	C	0.136957	-0.157138	0.926734
H205	H	0.163268	-0.160949	0.963112
H206	H	0.158784	-0.178890	0.901663
H207	H	0.118801	-0.178870	0.956902
H208	H	0.056581	0.845068	0.385008
H209	H	-0.275789	0.752472	0.512900
C210	C	-0.384552	0.852340	0.646606
H211	H	-0.380670	0.829859	0.620864
H212	H	-0.405726	0.900512	0.605752
H213	H	-0.405777	0.843993	0.683850
H214	H	-0.080225	-0.074788	0.626517
C215	C	-0.372491	0.905853	0.737366
H216	H	-0.360937	0.917387	0.769271
H217	H	-0.395571	0.889132	0.760489
H218	H	-0.395580	0.945673	0.682338
C219	C	-0.146203	0.745197	0.353954
H220	H	-0.150107	0.767715	0.297128
H221	H	-0.124987	0.697025	0.379666
H222	H	-0.125007	0.753565	0.379675
C223	C	-0.065718	0.852390	0.205829
H224	H	-0.061242	0.886431	0.164971
H225	H	-0.106823	0.872295	0.199624
H226	H	-0.050276	0.815761	0.199640
H227	H	0.357908	0.175563	0.737387
H228	H	-0.162379	0.752437	0.815699
C229	C	-0.650453	0.727153	0.603457
H230	H	-0.646554	0.764361	0.577732
H231	H	-0.671659	0.729761	0.640722
H232	H	-0.671658	0.729755	0.562581
H233	H	0.080190	0.234188	0.848179
H234	H	-0.254928	0.844977	0.815717
H235	H	0.162359	0.314377	0.659010
H236	H	0.056729	0.314325	1.118525
H237	H	0.275715	0.314400	0.815726
C238	C	0.372496	0.160938	1.252266
H239	H	0.360949	0.149398	1.300116
H240	H	0.395577	0.177657	1.252282
H241	H	0.395579	0.121123	1.252280
H242	H	-0.056772	0.752512	0.356186
H243	H	-0.541688	0.709290	0.615801
C244	C	-0.277417	0.745177	0.646632
H245	H	-0.318530	0.767689	0.620909
H246	H	-0.258806	0.697003	0.683896
H247	H	-0.258825	0.753559	0.605753
H248	H	-0.080190	0.302012	0.626541
C249	C	-0.092792	0.414467	0.609091
H250	H	-0.086458	0.442177	0.617830
H251	H	-0.130935	0.424266	0.611620
H252	H	-0.090962	0.424260	0.556366
C253	C	-0.137027	0.223989	0.548010
H254	H	-0.163349	0.227802	0.511644
H255	H	-0.118890	0.245740	0.517834
H256	H	-0.158848	0.245722	0.573107
C257	C	-0.137033	0.116875	0.547998
H258	H	-0.163342	0.165696	0.511624
H259	H	-0.158862	0.098816	0.573071
H260	H	-0.118885	0.098816	0.517823
C261	C	0.253309	0.214528	0.646694
H262	H	0.291831	0.180487	0.652897
H263	H	0.232101	0.251149	0.589870
H264	H	0.232124	0.194606	0.668036
C265	C	-0.456704	0.339696	0.871284
H266	H	-0.495215	0.348637	0.865102
H267	H	-0.435494	0.314022	0.928101
H268	H	-0.435506	0.314022	0.849957
H269	H	-0.043737	0.473219	0.321047
H270	H	-0.837698	0.646820	0.658993
H271	H	0.124340	-0.044677	0.909276
C272	C	0.092768	-0.240505	0.865620
H273	H	0.119086	-0.289325	0.901985
H274	H	0.074631	-0.222447	0.895795
H275	H	0.114592	-0.222441	0.840526
H276	H	0.162379	0.314359	1.118496
C277	C	0.253302	0.214513	1.268867
H278	H	0.212191	0.237008	1.263468
H279	H	0.271897	0.222879	1.298183
H280	H	0.271916	0.166337	1.298178
C281	C	-0.722659	0.402208	0.828057
H282	H	-0.681547	0.364994	0.853781
H283	H	-0.741270	0.399612	0.790784
H284	H	-0.741253	0.399605	0.868934
H285	H	0.080186	0.141625	0.848179
C286	C	-0.349573	0.339693	0.871277
H287	H	-0.353467	0.302479	0.896996
H288	H	-0.328361	0.337088	0.912144
H289	H	-0.328379	0.337095	0.833995
C290	C	-0.615528	0.402198	0.828063
H291	H	-0.619424	0.364987	0.853774
H292	H	-0.594313	0.399586	0.868935
H293	H	-0.594334	0.399602	0.790779
H294	H	-0.254911	0.420021	0.815711
C295	C	-0.372538	0.905922	0.222446
H296	H	-0.407164	0.917469	0.238385
H297	H	-0.372535	0.889198	0.190543
H298	H	-0.372543	0.945735	0.190546
C299	C	-0.070015	0.673255	0.189756
H300	H	-0.109991	0.696337	0.158408
H301	H	-0.053628	0.696678	0.157538
H302	H	-0.069473	0.672741	0.237962
C303	C	-0.120590	0.603329	0.139873
H304	H	-0.143738	0.649707	0.123170
H305	H	-0.137597	0.580589	0.171622
H306	H	-0.120087	0.602690	0.092464
