data_functionalizedCrystal
_audit_creation_method	'MofGen! by Chris Wilmer'
_symmetry_space_group_name_H-M	'P1'
_symmetry_Int_Tables_number	1
_symmetry_cell_setting	triclinic
loop_
_symmetry_equiv_pos_as_xyz
  x,y,z
_cell_length_a	17.640112
_cell_length_b	25.639239
_cell_length_c	17.639306
_cell_angle_alpha	101.185844
_cell_angle_beta	87.804122
_cell_angle_gamma	101.263838
loop_
_atom_site_label
_atom_site_type_symbol
_atom_site_fract_x
_atom_site_fract_y
_atom_site_fract_z
Zn1	Zn	1.247712	-0.067208	-0.195068
Zn2	Zn	1.747712	0.432792	0.304932
Zn3	Zn	1.221936	-0.141116	-0.068094
Zn4	Zn	1.721936	0.358884	0.431906
Zn5	Zn	1.095061	-0.074108	-0.093721
Zn6	Zn	1.595061	0.425892	0.406279
Zn7	Zn	1.120633	-0.175050	-0.220667
Zn8	Zn	1.620633	0.324950	0.279333
O9	O	1.171336	-0.114370	-0.144387
O10	O	1.671336	0.385630	0.355613
O11	O	1.350574	-0.059923	-0.156787
O12	O	1.850574	0.440077	0.343213
O13	O	1.183616	-0.120914	0.034773
O14	O	1.683616	0.379086	0.534773
O15	O	1.115396	-0.000018	-0.107176
O16	O	1.615396	0.499982	0.392824
O17	O	1.331636	-0.114223	-0.063500
O18	O	1.831636	0.385777	0.436500
O19	O	1.227548	0.005052	-0.181635
O20	O	1.727548	0.505052	0.318365
O21	O	1.090402	-0.071683	0.015945
O22	O	1.590402	0.428317	0.515945
O23	O	0.992173	-0.104587	-0.131998
O24	O	1.492173	0.395413	0.368002
O25	O	1.158980	-0.172058	-0.323537
O26	O	1.658980	0.327942	0.176463
O27	O	1.010960	-0.178748	-0.225265
O28	O	1.510960	0.321252	0.274735
O29	O	1.252344	-0.092827	-0.304730
O30	O	1.752344	0.407173	0.195270
O31	O	1.208412	-0.218793	-0.088322
O32	O	1.708412	0.281207	0.411678
O33	O	1.133986	-0.243723	-0.200416
O34	O	1.633986	0.256277	0.299584
C35	C	0.974009	-0.146099	-0.184191
C36	C	1.474009	0.353901	0.315809
C37	C	0.889596	-0.159687	-0.201236
C38	C	1.389596	0.340313	0.298764
C39	C	0.563031	-0.011134	-0.014897
C40	C	1.063031	0.488866	0.485103
C41	C	0.483714	-0.023914	-0.030925
C42	C	0.983714	0.476086	0.469075
C43	C	0.503298	-0.101212	-0.127876
C44	C	1.003298	0.398788	0.372124
C45	C	0.582619	-0.088437	-0.111859
C46	C	1.082619	0.411563	0.388141
C47	C	0.612479	-0.043398	-0.055368
C48	C	1.112479	0.456602	0.444632
C49	C	0.632067	-0.120701	-0.152330
C50	C	1.132067	0.379299	0.347670
C51	C	0.711381	-0.107929	-0.136312
C52	C	1.211381	0.392071	0.363688
C53	C	0.741246	-0.062892	-0.079822
C54	C	1.241246	0.437108	0.420178
C55	C	0.691793	-0.030625	-0.039350
C56	C	1.191793	0.469375	0.460650
C57	C	0.602205	-0.165743	-0.208817
C58	C	1.102205	0.334257	0.291183
C59	C	0.651653	-0.198007	-0.249288
C60	C	1.151653	0.301993	0.250712
C61	C	0.730969	-0.185232	-0.233274
C62	C	1.230969	0.314768	0.266726
C63	C	0.760834	-0.140196	-0.176784
C64	C	1.260834	0.359804	0.323216
C65	C	0.780422	-0.217499	-0.273746
C66	C	1.280422	0.282501	0.226254
C67	C	0.859736	-0.204727	-0.257727
C68	C	1.359736	0.295273	0.242273
C69	C	0.840148	-0.127423	-0.160765
C70	C	1.340148	0.372577	0.339235
C71	C	1.171201	-0.250230	-0.144378
C72	C	1.671201	0.249770	0.355622
C73	C	1.171218	-0.308343	-0.144386
C74	C	1.671218	0.191657	0.355614
C75	C	1.210233	-0.655684	-0.086077
C76	C	1.710233	-0.155684	0.413923
C77	C	1.210265	-0.710285	-0.086081
C78	C	1.710265	-0.210285	0.413919
O79	O	1.243296	-0.727468	-0.036494
O80	O	1.743296	-0.227468	0.463506
N81	N	1.171479	-0.750593	-0.144411
N82	N	1.671479	-0.250593	0.355589
C83	C	1.132666	-0.736299	-0.202744
C84	C	1.632666	-0.236299	0.297256
O85	O	1.099680	-0.775598	-0.252359
O86	O	1.599680	-0.275598	0.247641
C87	C	1.132640	-0.681699	-0.202742
C88	C	1.632640	-0.181699	0.297258
C89	C	1.171421	-0.641393	-0.144405
C90	C	1.671421	-0.141393	0.355595
C91	C	1.249012	-0.615379	-0.027745
C92	C	1.749012	-0.115379	0.472255
C93	C	1.248979	-0.560783	-0.027740
C94	C	1.748979	-0.060783	0.472260
C95	C	1.210167	-0.546491	-0.086067
C96	C	1.710167	-0.046491	0.413933
C97	C	1.171388	-0.586796	-0.144400
C98	C	1.671388	-0.086796	0.355600
C99	C	1.093832	-0.667405	-0.261078
C100	C	1.593832	-0.167405	0.238922
C101	C	1.093810	-0.612800	-0.261072
C102	C	1.593810	-0.112800	0.238928
C103	C	1.132591	-0.572494	-0.202734
C104	C	1.632591	-0.072494	0.297266
C105	C	1.132544	-0.517907	-0.202723
C106	C	1.632544	-0.017907	0.297277
N107	N	1.171329	-0.477599	-0.144393
N108	N	1.671329	0.022401	0.355607
C109	C	1.210141	-0.491891	-0.086066
C110	C	1.710141	0.008109	0.413934
C111	C	1.132726	-0.850961	-0.202744
C112	C	1.632726	-0.350961	0.297256
C113	C	1.132747	-0.905561	-0.202744
C114	C	1.632747	-0.405561	0.297256
C115	C	1.210347	-0.879543	-0.086081
C116	C	1.710347	-0.379543	0.413919
C117	C	1.210320	-0.824943	-0.086080
C118	C	1.710320	-0.324943	0.413920
C119	C	1.171511	-0.810653	-0.144415
C120	C	1.671511	-0.310653	0.355585
C121	C	1.210068	-0.377235	-0.086060
C122	C	1.710068	0.122765	0.413940
C123	C	1.210029	-0.322634	-0.086058
C124	C	1.710029	0.177366	0.413942
C125	C	1.132434	-0.348656	-0.202722
C126	C	1.632434	0.151344	0.297278
C127	C	1.132469	-0.403252	-0.202722
C128	C	1.632469	0.096748	0.297278
C129	C	1.171292	-0.417539	-0.144387
C130	C	1.671292	0.082461	0.355613
O131	O	1.099531	-0.500684	-0.252287
O132	O	1.599531	-0.000684	0.247713
O133	O	1.243130	-0.452587	-0.036465
O134	O	1.743130	0.047413	0.463535
C135	C	1.369433	-0.082518	-0.104429
C136	C	1.869433	0.417482	0.395571
C137	C	1.453850	-0.068945	-0.087401
C138	C	1.953850	0.431055	0.412599
C139	C	1.211390	-0.135458	-0.342458
C140	C	1.711390	0.364542	0.157542
C141	C	1.228459	-0.144444	-0.426863
C142	C	1.728459	0.355556	0.073137
C143	C	1.171495	0.022021	-0.144409
C144	C	1.671495	0.522021	0.355591
C145	C	1.171563	0.080143	-0.144418
C146	C	1.671563	0.580143	0.355582
C147	C	1.041961	-0.045860	-0.753495
C148	C	1.541961	0.454140	-0.253495
C149	C	1.058017	-0.054312	-0.832803
C150	C	1.558017	0.445688	-0.332803
C151	C	1.155071	-0.105571	-0.813180
C152	C	1.655071	0.394429	-0.313180
C153	C	1.139026	-0.097120	-0.733868
C154	C	1.639026	0.402880	-0.233868
C155	C	1.082470	-0.067265	-0.704032
C156	C	1.582470	0.432735	-0.204032
C157	C	1.179535	-0.118526	-0.684405
C158	C	1.679535	0.381474	-0.184405
C159	C	1.163488	-0.110078	-0.605100
C160	C	1.663488	0.389922	-0.105100
C161	C	1.106932	-0.080226	-0.575258
C162	C	1.606932	0.419774	-0.075258
C163	C	1.066423	-0.058818	-0.624727
C164	C	1.566423	0.441182	-0.124727
C165	C	1.236087	-0.148384	-0.714243
C166	C	1.736087	0.351616	-0.214243
C167	C	1.276595	-0.169789	-0.664780
C168	C	1.776595	0.330211	-0.164780
C169	C	1.260552	-0.161339	-0.585473
C170	C	1.760552	0.338661	-0.085473
C171	C	1.203997	-0.131486	-0.555631
C172	C	1.703997	0.368514	-0.055631
C173	C	1.301062	-0.182747	-0.536004
C174	C	1.801062	0.317253	-0.036004
C175	C	1.285015	-0.174300	-0.456699
C176	C	1.785015	0.325700	0.043301
C177	C	1.187950	-0.123039	-0.476326
C178	C	1.687950	0.376961	0.023674
C179	C	1.131481	-0.093320	0.052921
C180	C	1.631481	0.406680	0.552921
C181	C	1.114559	-0.084163	0.137356
C182	C	1.614559	0.415837	0.637356
H183	H	0.716108	0.006057	0.006639
H184	H	1.216108	0.506057	0.506639
F185	F	1.052504	-0.597596	-0.323163
F186	F	1.552504	-0.097596	0.176837
H187	H	0.537622	-0.176140	-0.221857
H188	H	1.037622	0.323860	0.278143
H189	H	1.241953	-0.891189	-0.038590
H190	H	1.741953	-0.391189	0.461410
H191	H	1.020377	-0.034500	-0.600432
H192	H	1.520377	0.465500	-0.100432
H193	H	1.093863	-0.073353	-0.510683
H194	H	1.593863	0.426647	-0.010683
H195	H	1.241609	-0.289817	-0.038550
H196	H	1.741609	0.210183	0.461450
F197	F	1.091411	-0.835759	-0.264833
F198	F	1.591411	-0.335759	0.235167
H199	H	1.241684	-0.388859	-0.038559
H200	H	1.741684	0.111141	0.461441
F201	F	1.091461	-0.948453	-0.264828
F202	F	1.591461	-0.448453	0.235172
H203	H	1.280561	-0.527967	0.019762
H204	H	1.780561	-0.027967	0.519762
H205	H	0.627329	-0.234679	-0.295281
H206	H	1.127329	0.265321	0.204719
H207	H	0.995915	-0.021542	-0.729199
H208	H	1.495915	0.478458	-0.229199
H209	H	0.478975	-0.137885	-0.173869
H210	H	0.978975	0.362115	0.326131
H211	H	0.587347	0.025548	0.031092
H212	H	1.087347	0.525548	0.531092
F213	F	1.215258	-0.137346	-0.844943
F214	F	1.715258	0.362654	-0.344943
F215	F	1.052563	-0.710290	-0.323175
F216	F	1.552563	-0.210290	0.176825
H217	H	0.443456	0.002366	0.002031
H218	H	0.943456	0.502366	0.502031
F219	F	1.091177	-0.446151	-0.264800
F220	F	1.591177	0.053849	0.235200
F221	F	0.912364	-0.239066	-0.300800
F222	F	1.412364	0.260934	0.199200
F223	F	0.748630	-0.265439	-0.333853
F224	F	1.248630	0.234561	0.166147
H225	H	1.280621	-0.627008	0.019754
H226	H	1.780621	-0.127008	0.519754
F227	F	1.251597	-0.782051	-0.023990
F228	F	1.751597	-0.282051	0.476010
H229	H	1.100831	-0.337012	-0.250210
H230	H	1.600831	0.162988	0.249790
H231	H	1.347104	-0.207060	-0.560310
H232	H	1.847104	0.292940	-0.060310
F233	F	1.127763	-0.091258	-0.444567
F234	F	1.627763	0.408742	0.055433
F235	F	1.253165	-0.157373	-0.798648
F236	F	1.753165	0.342627	-0.298648
F237	F	1.014916	-0.031512	-0.885440
F238	F	1.514916	0.468488	-0.385440
H239	H	1.318011	-0.191721	-0.416423
H240	H	1.818011	0.308279	0.083577
H241	H	1.322641	-0.194100	-0.689085
H242	H	1.822641	0.305900	-0.189085
H243	H	0.864463	-0.090741	-0.114776
H244	H	1.364463	0.409259	0.385224
H245	H	0.805829	-0.052495	-0.066779
H246	H	1.305829	0.447505	0.433221
