data_functionalizedCrystal
_audit_creation_method	'MofGen! by Chris Wilmer'
_symmetry_space_group_name_H-M	'P1'
_symmetry_Int_Tables_number	1
_symmetry_cell_setting	triclinic
loop_
_symmetry_equiv_pos_as_xyz
  x,y,z
_cell_length_a	14.853566
_cell_length_b	14.519709
_cell_length_c	13.330367
_cell_angle_alpha	89.994415
_cell_angle_beta	89.995295
_cell_angle_gamma	83.657280
loop_
_atom_site_label
_atom_site_type_symbol
_atom_site_fract_x
_atom_site_fract_y
_atom_site_fract_z
O1	O	1.196416	0.120399	-0.083359
O2	O	0.933962	0.134744	-0.083376
O3	O	1.072148	-0.006670	-0.083358
O4	O	1.058231	0.261813	-0.083377
O5	O	1.072128	-0.006673	0.083489
O6	O	0.933942	0.134740	0.083471
O7	O	1.196396	0.120396	0.083488
Cu8	Cu	1.065167	0.127568	0.098714
Cu9	Cu	1.065191	0.127572	-0.098602
O10	O	1.058211	0.261809	0.083470
C11	C	0.900363	0.134092	0.000045
C12	C	0.800279	0.132145	0.000039
C13	C	0.377102	0.123911	-0.090891
C14	C	0.377101	0.123909	0.091012
C15	C	0.471136	0.125737	0.091009
C16	C	0.518158	0.126654	0.000054
C17	C	0.471145	0.125743	-0.090897
C18	C	0.518155	0.126658	0.181959
C19	C	0.612195	0.128487	0.181959
C20	C	0.659219	0.129398	0.091003
C21	C	0.612201	0.128485	0.000048
C22	C	0.659223	0.129403	-0.090906
C23	C	0.612206	0.128483	-0.181862
C24	C	0.518169	0.126653	-0.181853
C25	C	0.753257	0.131228	0.090994
C26	C	0.753266	0.131234	-0.090912
C27	C	1.071489	-0.041031	0.000065
C28	C	1.069546	-0.143412	0.000066
C29	C	1.062390	-0.518304	0.000039
C30	C	1.064377	-0.413997	0.000047
C31	C	1.065968	-0.330861	0.000053
C32	C	1.067955	-0.226548	0.000059
C33	C	1.229995	0.121047	0.000064
C34	C	1.330080	0.122994	0.000064
C35	C	1.058869	0.296171	0.000044
C36	C	1.060813	0.398551	0.000037
N37	N	1.065157	0.127565	0.237495
N38	N	1.065208	0.127568	-0.237384
C39	C	1.004000	0.190165	0.710110
C40	C	1.126407	0.064971	0.710094
C41	C	1.126396	0.064968	0.605076
C42	C	1.065188	0.127566	0.552570
C43	C	1.003989	0.190166	0.605082
C44	C	1.187600	0.002376	0.552556
C45	C	1.187593	0.002371	0.447531
C46	C	1.126379	0.064965	0.395023
C47	C	1.065178	0.127567	0.447542
C48	C	1.003969	0.190164	0.395036
C49	C	0.942762	0.252762	0.447553
C50	C	0.942776	0.252760	0.552574
C51	C	1.126366	0.064967	0.290001
C52	C	1.003959	0.190165	0.290008
H53	H	0.650468	0.129234	0.256021
C54	C	0.466946	0.125625	0.280599
C55	C	0.374532	0.123801	0.261134
C56	C	0.327327	0.122840	0.351980
H57	H	0.475459	0.179650	0.318030
H58	H	0.489092	0.072171	0.317992
H59	H	0.352393	0.177250	0.223757
H60	H	0.365992	0.069779	0.223717
H61	H	0.349474	0.069386	0.389373
H62	H	0.335848	0.176866	0.389405
H63	H	0.264621	0.121594	0.338786
C64	C	0.804146	0.132174	0.189839
C65	C	0.742842	0.130961	0.269494
C66	C	0.789689	0.131817	0.360569
H67	H	0.834051	0.186608	0.193754
H68	H	0.847599	0.079127	0.193678
H69	H	0.699405	0.184003	0.265656
H70	H	0.712935	0.076531	0.265611
H71	H	0.833142	0.078770	0.364408
H72	H	0.819592	0.186252	0.364474
H73	H	0.748102	0.130986	0.414626
H74	H	0.892930	0.303734	0.404790
H75	H	1.237429	-0.048600	0.404778
H76	H	0.479880	0.125904	-0.255904
C77	C	1.192851	-0.003091	0.233164
C78	C	1.246446	-0.057921	0.301625
C79	C	1.307697	-0.120639	0.249305
H80	H	1.230507	0.030050	0.192177
H81	H	1.160383	-0.041597	0.192231
H82	H	1.278913	-0.019420	0.342542
H83	H	1.208815	-0.091082	0.342615
H84	H	1.275229	-0.159145	0.208371
H85	H	1.345347	-0.087490	0.208320
H86	H	1.344063	-0.157854	0.295747
H87	H	0.338817	0.123159	-0.164945
C88	C	0.937462	0.258234	0.233186
C89	C	0.883882	0.313064	0.301659
C90	C	0.822624	0.375787	0.249353
H91	H	0.899796	0.225097	0.192221
H92	H	0.969924	0.296740	0.192231
H93	H	0.851422	0.274563	0.342596
H94	H	0.921523	0.346221	0.342627
H95	H	0.855087	0.414293	0.208398
H96	H	0.784965	0.342643	0.208389
H97	H	0.786269	0.413002	0.295803
H98	H	0.892945	0.303726	0.595340
H99	H	0.954164	0.241129	0.752872
C100	C	1.192805	-0.003140	0.766975
C101	C	1.178044	-0.093790	0.741427
C102	C	1.239198	-0.156565	0.793802
H103	H	1.184105	0.005700	0.837058
H104	H	1.253007	0.006921	0.749735
H105	H	1.117856	-0.103847	0.758674
H106	H	1.186751	-0.102660	0.671353
H107	H	1.299400	-0.146504	0.776562
H108	H	1.230493	-0.147717	0.863882
H109	H	1.229196	-0.218078	0.776468
H110	H	1.237438	-0.048585	0.595309
H111	H	0.791545	0.131978	-0.164980
H112	H	0.650503	0.129237	-0.255918
H113	H	0.338809	0.123168	0.165063
