data_functionalizedCrystal
_audit_creation_method	'MofGen! by Chris Wilmer'
_symmetry_space_group_name_H-M	'P1'
_symmetry_Int_Tables_number	1
_symmetry_cell_setting	triclinic
loop_
_symmetry_equiv_pos_as_xyz
  x,y,z
_cell_length_a	19.288865
_cell_length_b	19.288864
_cell_length_c	18.366186
_cell_angle_alpha	90.022929
_cell_angle_beta	90.010368
_cell_angle_gamma	83.136245
loop_
_atom_site_label
_atom_site_type_symbol
_atom_site_fract_x
_atom_site_fract_y
_atom_site_fract_z
O1	O	0.086648	0.921353	0.060791
O2	O	0.586648	1.421353	0.560791
O3	O	0.098336	0.719092	0.060743
O4	O	0.598336	1.219092	0.560743
O5	O	-0.008638	0.826067	0.060754
O6	O	0.491362	1.326067	0.560754
O7	O	0.193622	0.814378	0.060780
O8	O	0.693622	1.314378	0.560780
O9	O	-0.008641	0.826049	-0.060345
O10	O	0.491359	1.326049	0.439655
O11	O	0.098333	0.719074	-0.060357
O12	O	0.598333	1.219074	0.439643
O13	O	0.086645	0.921334	-0.060308
O14	O	0.586645	1.421334	0.439692
Zn15	Zn	0.092488	0.820201	-0.079559
Zn16	Zn	0.592488	1.320201	0.420441
Zn17	Zn	0.092492	0.820226	0.079994
Zn18	Zn	0.592492	1.320226	0.579994
O19	O	0.193619	0.814360	-0.060319
O20	O	0.693619	1.314360	0.439681
C21	C	0.097959	0.693207	0.000187
C22	C	0.597959	1.193207	0.500187
C23	C	0.096830	0.616103	0.000167
C24	C	0.596830	1.116103	0.500167
C25	C	-0.034516	0.825682	0.000202
C26	C	0.465484	1.325682	0.500202
C27	C	-0.111620	0.824553	0.000195
C28	C	0.388380	1.324553	0.500195
C29	C	0.159598	0.571407	0.000187
C30	C	0.659598	1.071407	0.500187
C31	C	0.158537	0.498960	0.000195
C32	C	0.658537	0.998960	0.500195
C33	C	0.094705	0.471212	0.000198
C34	C	0.594705	0.971212	0.500198
C35	C	0.031929	0.515918	0.000174
C36	C	0.531929	1.015918	0.500174
C37	C	0.032991	0.588364	0.000159
C38	C	0.532991	1.088364	0.500159
C39	C	0.044527	0.362957	0.042642
C40	C	0.544527	0.862957	0.542642
C41	C	0.043467	0.290512	0.042662
C42	C	0.543467	0.790512	0.542662
C43	C	0.091425	0.247767	0.000241
C44	C	0.591425	0.747767	0.500241
C45	C	0.140455	0.277473	-0.042189
C46	C	0.640455	0.777473	0.457811
C47	C	0.141518	0.349918	-0.042205
C48	C	0.641518	0.849918	0.457795
C49	C	0.093546	0.392658	0.000214
C50	C	0.593546	0.892658	0.500214
C51	C	0.153047	0.124514	0.000269
C52	C	0.653047	0.624514	0.500269
C53	C	0.151984	0.052066	0.000272
C54	C	0.651984	0.552066	0.500272
C55	C	0.025374	0.069026	0.000259
C56	C	0.525374	0.569026	0.500259
C57	C	0.026439	0.141473	0.000248
C58	C	0.526439	0.641473	0.500248
C59	C	0.090278	0.169212	0.000256
C60	C	0.590278	0.669212	0.500256
C61	C	-0.156316	0.887321	0.000207
C62	C	0.343684	1.387321	0.500207
C63	C	-0.228763	0.886260	0.000218
C64	C	0.271237	1.386260	0.500218
C65	C	-0.256511	0.822428	0.000203
C66	C	0.243489	1.322428	0.500203
C67	C	-0.211805	0.759652	0.000196
C68	C	0.288195	1.259652	0.500196
C69	C	-0.139359	0.760714	0.000192
C70	C	0.360641	1.260714	0.500192
C71	C	-0.364799	0.772242	-0.042227
C72	C	0.135201	1.272242	0.457773
C73	C	-0.437244	0.771182	-0.042228
C74	C	0.062756	1.271182	0.457772
C75	C	-0.479956	0.819148	0.000219
C76	C	0.020044	1.319148	0.500219
C77	C	-0.450217	0.868186	0.042657
C78	C	0.049783	1.368186	0.542657
C79	C	-0.377772	0.869248	0.042653
C80	C	0.122228	1.369248	0.542653
C81	C	-0.335065	0.821269	0.000208
C82	C	0.164935	1.321269	0.500208
C83	C	-0.603209	0.880770	0.000244
C84	C	-0.103209	1.380770	0.500244
C85	C	-0.675657	0.879707	0.000259
C86	C	-0.175657	1.379707	0.500259
C87	C	-0.658697	0.753097	0.000230
C88	C	-0.158697	1.253097	0.500230
C89	C	-0.586250	0.754162	0.000221
C90	C	-0.086250	1.254162	0.500221
C91	C	-0.558511	0.818001	0.000225
C92	C	-0.058511	1.318001	0.500225
C93	C	0.219497	0.814745	0.000234
C94	C	0.719497	1.314745	0.500234
C95	C	0.296601	0.815874	0.000246
C96	C	0.796601	1.315874	0.500246
C97	C	0.087022	0.947220	0.000250
C98	C	0.587022	1.447220	0.500250
C99	C	0.088151	1.024324	0.000274
C100	C	0.588151	1.524324	0.500274
N101	N	0.092485	0.820190	-0.188451
N102	N	0.592485	1.320190	0.311549
C103	C	0.134509	0.862177	-0.226528
C104	C	0.634509	1.362177	0.273472
C105	C	0.134507	0.862189	-0.302756
C106	C	0.634507	1.362189	0.197244
C107	C	0.092490	0.820199	-0.340903
C108	C	0.592490	1.320199	0.159097
C109	C	0.050457	0.778209	-0.302816
C110	C	0.550457	1.278209	0.197184
C111	C	0.050455	0.778204	-0.226590
C112	C	0.550455	1.278204	0.273410
C113	C	0.090733	0.757588	-0.461700
C114	C	0.590733	1.257588	0.038300
C115	C	0.090740	0.757591	-0.537925
C116	C	0.590740	1.257591	-0.037925
C117	C	0.092492	0.820215	-0.576011
C118	C	0.592492	1.320215	-0.076011
C119	C	0.094252	0.882837	-0.537862
C120	C	0.594252	1.382837	-0.037862
C121	C	0.094249	0.882832	-0.461636
C122	C	0.594249	1.382832	0.038364
C123	C	0.092487	0.820200	-0.423558
C124	C	0.592487	1.320200	0.076442
C125	C	0.134516	0.862219	-0.696744
C126	C	0.634516	1.362219	-0.196744
C127	C	0.134509	0.862231	-0.772973
C128	C	0.634509	1.362231	-0.272973
C129	C	0.050463	0.778245	-0.773031
C130	C	0.550463	1.278245	-0.273031
C131	C	0.050466	0.778239	-0.696804
C132	C	0.550466	1.278239	-0.196804
C133	C	0.092496	0.820225	-0.658664
C134	C	0.592496	1.320225	-0.158664
N135	N	0.092490	0.820243	0.188885
N136	N	0.592490	1.320243	0.688885
H137	H	0.209652	0.462561	0.000209
H138	H	0.709652	0.962561	0.500209
N139	N	-0.276984	0.953962	0.000232
N140	N	0.223016	1.453962	0.500232
H141	H	-0.248418	0.994563	0.000235
H142	H	0.251582	1.494563	0.500235
H143	H	-0.307419	0.956265	-0.044660
H144	H	0.192581	1.456265	0.455340
N145	N	-0.469318	0.718302	-0.088006
N146	N	0.030682	1.218302	0.411994
H147	H	-0.431268	0.688073	-0.114891
H148	H	0.068732	1.188073	0.385109
H149	H	-0.495385	0.688085	-0.055472
H150	H	0.004615	1.188085	0.444528
H151	H	0.168730	0.896380	-0.333765
H152	H	0.668730	1.396380	0.166235
N153	N	0.221899	0.154436	0.000273
N154	N	0.721899	0.654436	0.500273
H155	H	0.249387	0.138099	-0.044615
H156	H	0.749387	0.638099	0.455385
H157	H	0.212992	0.207108	0.000294
H158	H	0.712992	0.707108	0.500294
N159	N	0.192177	0.231379	-0.087958
N160	N	0.692177	0.731379	0.412042
H161	H	0.223394	0.261190	-0.114840
H162	H	0.723394	0.761190	0.385160
H163	H	0.221522	0.197344	-0.055414
H164	H	0.721522	0.697344	0.444586
N165	N	-0.723870	0.947409	0.000267
N166	N	-0.223870	1.447409	0.500267
H167	H	-0.754295	0.949804	0.045162
H168	H	-0.254295	1.449804	0.545162
H169	H	-0.695253	0.987970	0.000238
H170	H	-0.195253	1.487970	0.500238
H171	H	0.095680	0.933821	-0.430579
H172	H	0.595680	1.433821	0.069421
N173	N	-0.345694	0.922133	0.088422
N174	N	0.154306	1.422133	0.588422
H175	H	-0.383740	0.952361	0.115314
H176	H	0.116260	1.452361	0.615314
H177	H	-0.312205	0.897017	0.124651
H178	H	0.187795	1.397017	0.624651
H179	H	-0.020044	0.493322	0.000187
H180	H	0.479956	0.993322	0.500187
N181	N	0.005126	0.732915	-0.185519
N182	N	0.505126	1.232915	0.314481
H183	H	0.018954	0.682337	-0.198807
H184	H	0.518954	1.182337	0.301193
H185	H	0.011520	0.739339	-0.131456
H186	H	0.511520	1.239339	0.368544
H187	H	-0.484993	0.907244	0.077221
H188	H	0.015007	1.407244	0.577221
H189	H	0.168728	0.896428	-0.803975
H190	H	0.668728	1.396428	-0.303975
N191	N	0.219701	0.003875	0.000250
N192	N	0.719701	0.503875	0.500250
H193	H	0.247578	0.012793	0.045133
H194	H	0.747578	0.512793	0.545133
H195	H	0.209308	-0.046216	0.000213
H196	H	0.709308	0.453784	0.500213
H197	H	-0.234401	0.707679	0.000185
H198	H	0.265599	1.207679	0.500185
N199	N	0.179838	0.907503	-0.655595
N200	N	0.679838	1.407503	-0.155595
H201	H	0.230411	0.893645	-0.668858
H202	H	0.730411	1.393645	-0.168858
H203	H	0.165948	0.958067	-0.668850
H204	H	0.665948	1.458067	-0.168850
N205	N	0.005133	0.732924	-0.343955
N206	N	0.505133	1.232924	0.156045
H207	H	0.011512	0.739297	-0.398023
H208	H	0.511512	1.239297	0.101977
H209	H	0.018982	0.682365	-0.330652
H210	H	0.518982	1.182365	0.169348
H211	H	0.181437	0.374102	-0.076756
H212	H	0.681437	0.874102	0.423244
N213	N	-0.043476	0.039110	0.000254
N214	N	0.456524	0.539110	0.500254
H215	H	-0.034626	-0.013567	0.000264
H216	H	0.465374	0.486433	0.500264
H217	H	-0.070934	0.055499	0.045140
H218	H	0.429066	0.555499	0.545140
H219	H	-0.580622	0.932751	0.000250
H220	H	-0.080622	1.432751	0.500250
N221	N	-0.688613	0.684247	0.000222
N222	N	-0.188613	1.184247	0.500222
H223	H	-0.741290	0.693097	0.000229
H224	H	-0.241290	1.193097	0.500229
H225	H	-0.672258	0.656781	-0.044678
H226	H	-0.172258	1.156781	0.455322
H227	H	-0.024674	0.177866	0.000236
H228	H	0.475326	0.677866	0.500236
N229	N	-0.538034	0.686463	0.000194
N230	N	-0.038034	1.186463	0.500194
H231	H	-0.507588	0.684088	0.045083
H232	H	-0.007588	1.184088	0.545083
H233	H	-0.566650	0.645902	0.000157
H234	H	-0.066650	1.145902	0.500157
N235	N	0.228454	0.601317	0.000197
N236	N	0.728454	1.101317	0.500197
H237	H	0.255945	0.584974	-0.044686
H238	H	0.755945	1.084974	0.455314
H239	H	0.219553	0.653989	0.000214
H240	H	0.719553	1.153989	0.500214
H241	H	-0.018124	0.624756	0.000144
H242	H	0.481876	1.124756	0.500144
H243	H	0.003546	0.266331	0.077215
H244	H	0.503546	0.766331	0.577215
N245	N	-0.007205	0.409058	0.088396
N246	N	0.492795	0.909058	0.588396
H247	H	-0.038421	0.379248	0.115282
H248	H	0.461579	0.879248	0.615282
H249	H	0.018797	0.435713	0.124631
H250	H	0.518797	0.935713	0.624631
H251	H	-0.133736	0.939303	0.000212
H252	H	0.366264	1.439303	0.500212
H253	H	-0.330028	0.733180	-0.076796
H254	H	0.169972	1.233180	0.423204
H255	H	0.089311	0.706587	-0.430697
H256	H	0.589311	1.206587	0.069303
N257	N	-0.091146	0.693012	0.000180
N258	N	0.408854	1.193012	0.500180
H259	H	-0.119713	0.652411	0.000175
H260	H	0.380287	1.152411	0.500175
H261	H	-0.060729	0.690688	-0.044717
H262	H	0.439271	1.190688	0.455283
H263	H	0.168731	0.896368	-0.195480
H264	H	0.668731	1.396368	0.304520
N265	N	0.005151	0.732939	-0.655731
N266	N	0.505151	1.232939	-0.155731
H267	H	0.011526	0.739306	-0.601654
H268	H	0.511526	1.239306	-0.101654
H269	H	-0.045402	0.746821	-0.669058
H270	H	0.454598	1.246821	-0.169058
H271	H	0.095682	0.933831	-0.568870
H272	H	0.595682	1.433831	-0.068870
H273	H	0.016250	0.744058	-0.804090
H274	H	0.516250	1.244058	-0.304090
N275	N	0.088827	0.690056	-0.579068
N276	N	0.588827	1.190056	-0.079068
H277	H	0.087702	0.650385	-0.543376
H278	H	0.587702	1.150385	-0.043376
H279	H	0.045709	0.693677	-0.610696
H280	H	0.545709	1.193677	-0.110696
