data_functionalizedCrystal
_audit_creation_method	'MofGen! by Chris Wilmer'
_symmetry_space_group_name_H-M	'P1'
_symmetry_Int_Tables_number	1
_symmetry_cell_setting	triclinic
loop_
_symmetry_equiv_pos_as_xyz
  x,y,z
_cell_length_a	12.645331
_cell_length_b	12.645330
_cell_length_c	16.120297
_cell_angle_alpha	87.125115
_cell_angle_beta	87.122086
_cell_angle_gamma	90.012860
loop_
_atom_site_label
_atom_site_type_symbol
_atom_site_fract_x
_atom_site_fract_y
_atom_site_fract_z
Zn1	Zn	1.590350	-0.452455	0.471406
Zn2	Zn	1.599243	-0.620744	0.332001
Zn3	Zn	1.422060	-0.443496	0.332009
Zn4	Zn	1.413065	-0.629675	0.471366
O5	O	1.506179	-0.536593	0.401695
O6	O	1.739876	-0.474791	0.452927
O7	O	1.583225	-0.589745	0.215339
O8	O	1.444427	-0.296339	0.350521
O9	O	1.746410	-0.598432	0.350507
O10	O	1.568069	-0.302921	0.452935
O11	O	1.453049	-0.459522	0.215345
O12	O	1.272520	-0.468182	0.350481
O13	O	1.429096	-0.613653	0.588034
O14	O	1.265912	-0.604966	0.452866
O15	O	1.559347	-0.483450	0.588064
O16	O	1.574503	-0.770275	0.350467
O17	O	1.437719	-0.776836	0.452858
C18	C	1.230751	-0.536572	0.401671
C19	C	1.112921	-0.536590	0.401680
C20	C	1.072154	-0.450418	0.337375
C21	C	0.949580	-0.450129	0.337595
C22	C	0.939410	-0.512478	0.489687
C23	C	1.062034	-0.511839	0.489285
C24	C	1.069191	-0.647171	0.378809
C25	C	0.946707	-0.646463	0.376901
C26	C	1.506128	-0.812021	0.401676
C27	C	1.506201	-0.929852	0.401695
C28	C	1.592129	-1.093236	0.337150
C29	C	1.592385	-0.970686	0.337308
C30	C	1.530830	-0.979907	0.489573
C31	C	1.531501	-1.102483	0.489231
C32	C	1.395555	-1.095730	0.379228
C33	C	1.396220	-0.972998	0.377257
C34	C	1.782683	-0.536614	0.401721
C35	C	1.900512	-0.536624	0.401731
C36	C	1.492226	-0.550547	0.619144
C37	C	1.486280	-0.556494	0.711808
C38	C	1.506259	-0.260090	0.401733
C39	C	1.506293	-0.142261	0.401750
C40	C	1.520139	-0.522616	0.185092
C41	C	1.526291	-0.516370	0.092429
C42	C	1.475386	-0.567328	0.881466
C43	C	1.537182	-0.505540	0.922777
C44	C	1.531120	-0.511568	1.017180
C45	C	1.481446	-0.561301	0.787054
H46	H	1.095214	-0.711298	0.425646
H47	H	1.102006	-0.368822	0.352364
H48	H	1.089397	-0.431190	0.508618
F49	F	1.371805	-0.929637	0.292729
H50	H	1.331670	-1.127775	0.426278
H51	H	0.919283	-0.368084	0.352784
F52	F	1.400291	-0.642384	0.927905
F53	F	1.364849	-1.130949	0.296929
F54	F	1.452924	-1.145463	0.554280
F55	F	1.116139	-0.468909	0.251857
F56	F	0.915679	-0.468937	0.252363
H57	H	1.594639	-0.448114	0.887245
H58	H	1.088555	-0.572207	0.538857
H59	H	0.907138	-0.573580	0.538931
F60	F	0.897641	-0.408282	0.515411
H61	H	1.577625	-1.118570	0.271799
F62	F	1.114853	-0.677441	0.296369
H63	H	0.921747	-0.664780	0.312169
H64	H	1.673828	-1.124917	0.351880
H65	H	0.913315	-0.713617	0.420296
H66	H	1.612277	-1.132227	0.508308
F67	F	1.573045	-0.925969	0.252149
H68	H	1.674520	-0.942239	0.352205
F69	F	1.635173	-0.941304	0.514926
F70	F	1.451276	-0.945994	0.554171
H71	H	1.329275	-0.945199	0.420858
