data_functionalizedCrystal
_audit_creation_method	'MofGen! by Chris Wilmer'
_symmetry_space_group_name_H-M	'P1'
_symmetry_Int_Tables_number	1
_symmetry_cell_setting	triclinic
loop_
_symmetry_equiv_pos_as_xyz
  x,y,z
_cell_length_a	11.792241
_cell_length_b	10.654550
_cell_length_c	9.730223
_cell_angle_alpha	90.003749
_cell_angle_beta	89.998500
_cell_angle_gamma	95.660841
loop_
_atom_site_label
_atom_site_type_symbol
_atom_site_fract_x
_atom_site_fract_y
_atom_site_fract_z
O1	O	0.159415	-1.667383	-0.114404
O2	O	0.174603	-1.301862	-0.114382
O3	O	0.001859	-1.493493	-0.114383
O4	O	0.332159	-1.475752	-0.114402
O5	O	0.001863	-1.493490	0.114196
O6	O	0.174608	-1.301859	0.114198
O7	O	0.159419	-1.667381	0.114176
Zn8	Zn	0.167014	-1.484620	0.150479
Zn9	Zn	0.167008	-1.484623	-0.150685
O10	O	0.332163	-1.475750	0.114178
C11	C	0.173490	-1.255066	-0.000089
C12	C	0.170154	-1.115632	-0.000080
C13	C	-0.040432	-1.492377	-0.000094
C14	C	-0.166454	-1.489042	-0.000095
C15	C	0.160532	-1.714177	-0.000120
C16	C	0.163869	-1.853611	-0.000137
C17	C	-0.397180	-1.482908	-0.000118
C18	C	-0.268787	-1.486316	-0.000105
C19	C	0.374455	-1.476865	-0.000114
C20	C	0.500476	-1.480201	-0.000122
N21	N	0.167017	-1.484627	0.356016
C22	C	0.271863	-1.035858	-0.000106
C23	C	0.268721	-0.904847	-0.000129
C24	C	0.062152	-0.933394	-0.000107
C25	C	0.065295	-1.064404	-0.000074
C26	C	0.376722	-1.087087	-0.000112
C27	C	0.478439	-1.007312	-0.000139
C28	C	0.475297	-0.876300	-0.000163
C29	C	0.370438	-0.825063	-0.000159
N30	N	0.166996	-1.484625	-0.356221
C31	C	0.090552	-1.569503	0.427941
C32	C	0.090539	-1.569500	0.571824
C33	C	0.243465	-1.399740	0.571844
C34	C	0.243472	-1.399739	0.427963
C35	C	0.014098	-1.654391	0.355993
C36	C	-0.062373	-1.739275	0.427919
C37	C	-0.062387	-1.739272	0.571802
C38	C	0.014070	-1.654385	0.643759
H39	H	0.563812	-1.049039	-0.000130
O40	O	0.317579	-1.317241	0.641893
C41	C	0.256134	-1.239339	0.725100
H42	H	0.167734	-1.288759	0.746642
H43	H	0.303336	-1.219799	0.826282
H44	H	0.247647	-1.146469	0.669661
H45	H	0.379291	-1.193762	-0.000099
H46	H	0.558120	-0.811350	-0.000171
H47	H	0.014104	-1.654404	0.238837
H48	H	-0.124659	-1.808379	0.630362
H49	H	0.305736	-1.330623	0.369401
O50	O	-0.033474	-1.141953	0.000188
C51	C	-0.037818	-1.218576	0.118574
H52	H	0.019846	-1.170971	0.201303
H53	H	-0.129129	-1.232678	0.158319
H54	H	-0.007687	-1.314038	0.091833
O55	O	-0.039770	-0.883773	-0.000301
C56	C	-0.101823	-0.924478	-0.118691
H57	H	-0.070176	-1.015554	-0.158132
H58	H	-0.196201	-0.942006	-0.092063
H59	H	-0.089271	-0.848791	-0.201610
O60	O	0.367441	-0.697790	-0.000422
C61	C	0.423067	-0.646214	-0.118800
H62	H	0.423058	-0.721984	-0.201528
H63	H	0.376462	-0.564729	-0.158554
H64	H	0.514660	-0.610225	-0.092044
O65	O	-0.136572	-1.821637	0.357813
C66	C	-0.120207	-1.803398	0.215396
H67	H	-0.030340	-1.757130	0.195737
H68	H	-0.132100	-1.898402	0.160684
H69	H	-0.184944	-1.739917	0.174605
H70	H	0.014044	-1.654381	0.760918
