data_functionalizedCrystal
_audit_creation_method	'MofGen! by Chris Wilmer'
_symmetry_space_group_name_H-M	'P1'
_symmetry_Int_Tables_number	1
_symmetry_cell_setting	triclinic
loop_
_symmetry_equiv_pos_as_xyz
  x,y,z
_cell_length_a	16.793024
_cell_length_b	16.793047
_cell_length_c	33.586455
_cell_angle_alpha	113.253857
_cell_angle_beta	66.219990
_cell_angle_gamma	112.758327
loop_
_atom_site_label
_atom_site_type_symbol
_atom_site_fract_x
_atom_site_fract_y
_atom_site_fract_z
O1	O	0.005016	-0.570216	-0.583573
O2	O	-0.034529	-0.474528	-0.453458
O3	O	0.114723	-0.474535	-0.528082
O4	O	-0.144235	-0.570209	-0.508949
O5	O	0.108729	-0.346329	-0.530229
O6	O	-0.040523	-0.346322	-0.455605
O7	O	-0.000977	-0.442010	-0.585721
Zn8	Zn	-0.021701	-0.373810	-0.521004
Zn9	Zn	-0.013805	-0.542728	-0.518175
O10	O	-0.150229	-0.442003	-0.511097
C11	C	0.005100	-0.790970	-0.238461
C12	C	0.009223	-0.693065	-0.217557
C13	C	0.003804	-0.645758	-0.241627
C14	C	-0.075059	-0.538459	-0.266316
C15	C	0.049838	-0.422849	-0.250165
C16	C	-0.040584	-0.395375	-0.435637
C17	C	-0.044693	-0.353446	-0.386631
C18	C	-0.039275	-0.401741	-0.363054
C19	C	-0.040566	-0.125547	-0.300731
C20	C	-0.044689	-0.223451	-0.321635
C21	C	-0.039266	-0.270752	-0.297563
C22	C	0.039597	-0.378051	-0.272874
C23	C	-0.085304	-0.493667	-0.289026
C24	C	0.005118	-0.521142	-0.103554
C25	C	0.009231	-0.563064	-0.152559
C26	C	0.003809	-0.514775	-0.176138
C27	C	0.010758	-0.652581	-0.172822
C28	C	0.001010	-0.556371	-0.220792
C29	C	-0.008251	-0.506059	-0.245823
C30	C	-0.046224	-0.263935	-0.366370
C31	C	-0.036476	-0.360146	-0.318399
C32	C	-0.027211	-0.410451	-0.293367
C33	C	0.815184	-0.521162	-0.508596
C34	C	0.717729	-0.563083	-0.506815
C35	C	0.669923	-0.514793	-0.509201
C36	C	0.564072	-0.463272	-0.548285
C37	C	0.445555	-0.498966	-0.486078
C38	C	0.415541	-0.125553	-0.528781
C39	C	0.375032	-0.223457	-0.531493
C40	C	0.423813	-0.270761	-0.529101
C41	C	0.149318	-0.395376	-0.530584
C42	C	0.246774	-0.353455	-0.532364
C43	C	0.294574	-0.401748	-0.529976
C44	C	0.400424	-0.453269	-0.490892
C45	C	0.518948	-0.417572	-0.553101
C46	C	0.548961	-0.790984	-0.510398
C47	C	0.589464	-0.693083	-0.507684
C48	C	0.540690	-0.645776	-0.510078
C49	C	0.678399	-0.652598	-0.506649
C50	C	0.581167	-0.556389	-0.510877
C51	C	0.530434	-0.506073	-0.515170
C52	C	0.286104	-0.263940	-0.532530
C53	C	0.383336	-0.360149	-0.528302
C54	C	0.434062	-0.410467	-0.524008
C55	C	-0.040530	-0.395407	-0.935652
C56	C	-0.044651	-0.353482	-0.886645
C57	C	-0.039242	-0.401770	-0.863061
C58	C	0.039602	-0.453292	-0.810474
C59	C	-0.085288	-0.417587	-0.750981
C60	C	0.005063	-0.791004	-0.738448
C61	C	0.009186	-0.693099	-0.717543
C62	C	0.003779	-0.645796	-0.741620
C63	C	0.005077	-0.521171	-0.603544
C64	C	0.009198	-0.563096	-0.652550
C65	C	0.003786	-0.514804	-0.676131
C66	C	-0.075058	-0.463283	-0.728717
C67	C	0.049835	-0.498991	-0.788214
C68	C	-0.040516	-0.125574	-0.800747
C69	C	-0.044642	-0.223476	-0.821649
C70	C	-0.039232	-0.270782	-0.797575
C71	C	-0.046172	-0.263965	-0.866386
C72	C	-0.036447	-0.360171	-0.818406
C73	C	-0.027197	-0.410486	-0.793373
C74	C	0.010719	-0.652613	-0.672809
C75	C	0.000994	-0.556406	-0.720789
C76	C	-0.008259	-0.506089	-0.745819
O77	O	-0.000965	0.173549	-0.277957
O78	O	-0.040516	-0.085616	-0.325254
O79	O	0.108737	0.059592	-0.327284
O80	O	-0.150219	0.028341	-0.275927
O81	O	0.114753	0.055151	-0.263265
O82	O	-0.034500	-0.090057	-0.261234
O83	O	0.005051	0.169108	-0.213937
Zn84	Zn	-0.013769	0.038820	-0.227421
Zn85	Zn	-0.021696	0.044672	-0.311770
O86	O	-0.144202	0.023900	-0.211907
O87	O	-0.034458	-0.474571	0.046517
O88	O	0.005076	-0.570190	-0.083599
O89	O	-0.144170	-0.570237	-0.008972
O90	O	0.114787	-0.474523	-0.028110
O91	O	-0.150200	-0.442024	-0.011093
O92	O	-0.000954	-0.441976	-0.085720
O93	O	-0.040488	-0.346357	0.044396
Zn94	Zn	-0.021679	-0.373810	-0.020999
Zn95	Zn	-0.013734	-0.542737	-0.018204
O96	O	0.108757	-0.346309	-0.030231
C97	C	-0.850734	0.086244	-0.289716
C98	C	-0.753280	0.087165	-0.312001
C99	C	-0.705462	0.081107	-0.288506
C100	C	-0.599592	0.000085	-0.264184
C101	C	-0.481080	0.121287	-0.283645
C102	C	-0.450996	0.035117	-0.097351
C103	C	-0.410501	0.028587	-0.146852
C104	C	-0.459292	0.034683	-0.169840
C105	C	-0.184802	0.024283	-0.235878
C106	C	-0.282257	0.023363	-0.213592
C107	C	-0.330068	0.029423	-0.237088
C108	C	-0.435938	0.110445	-0.261411
C109	C	-0.554456	-0.010759	-0.241948
C110	C	-0.584541	0.075410	-0.428242
C111	C	-0.625029	0.081943	-0.378743
C112	C	-0.576244	0.075844	-0.355753
C113	C	-0.713963	0.086424	-0.357292
C114	C	-0.616708	0.075351	-0.310510
C115	C	-0.565963	0.065400	-0.286043
C116	C	-0.321573	0.024104	-0.168302
C117	C	-0.418828	0.035176	-0.215083
C118	C	-0.469568	0.045131	-0.239552
O119	O	0.585213	0.169090	-0.504004
O120	O	0.494056	-0.090076	-0.525516
O121	O	0.488081	0.055124	-0.449918
O122	O	0.591189	0.023889	-0.579602
O123	O	0.359978	0.059584	-0.452885
O124	O	0.365953	-0.085616	-0.528483
O125	O	0.457110	0.173550	-0.506971
Zn126	Zn	0.391193	0.044675	-0.518198
Zn127	Zn	0.559974	0.038798	-0.514289
O128	O	0.463086	0.028349	-0.582569
C129	C	0.815354	-0.521094	-0.008709
C130	C	0.717898	-0.563028	-0.006927
C131	C	0.670072	-0.514739	-0.009298
C132	C	0.564182	-0.463204	-0.048354
C133	C	0.445681	-0.498945	0.013847
C134	C	0.415547	-0.125494	-0.028771
C135	C	0.375059	-0.223405	-0.031498
C136	C	0.423859	-0.270708	-0.029121
C137	C	0.149365	-0.395355	-0.030599
C138	C	0.246820	-0.353421	-0.032381
C139	C	0.294640	-0.401713	-0.030008
C140	C	0.400530	-0.453248	0.009048
C141	C	0.519038	-0.417504	-0.053155
C142	C	0.549171	-0.790955	-0.010537
C143	C	0.589653	-0.693047	-0.007809
C144	C	0.540859	-0.645741	-0.010187
C145	C	0.678588	-0.652551	-0.006775
C146	C	0.581317	-0.556344	-0.010973
C147	C	0.530562	-0.506029	-0.015250
C148	C	0.286131	-0.263897	-0.032533
C149	C	0.383402	-0.360104	-0.028335
C150	C	0.434150	-0.410423	-0.024057
O151	O	-0.620614	0.089309	0.052274
O152	O	-0.529507	0.043784	-0.078544
O153	O	-0.523494	0.194833	-0.006033
O154	O	-0.626628	-0.061740	-0.020236
O155	O	-0.395386	0.185419	-0.005549
O156	O	-0.401400	0.034370	-0.078059
O157	O	-0.492507	0.079895	0.052758
Zn158	Zn	-0.426614	0.055638	-0.012574
Zn159	Zn	-0.595401	0.068041	-0.013212
O160	O	-0.498521	-0.071154	-0.019752
C161	C	-0.437537	0.048335	0.402491
C162	C	-0.397043	0.041789	0.352989
C163	C	-0.445822	0.047883	0.329994
C164	C	-0.496646	0.126653	0.277022
C165	C	-0.465894	-0.000633	0.218811
C166	C	-0.837226	0.099430	0.210091
C167	C	-0.739773	0.100339	0.187806
C168	C	-0.691967	0.094287	0.211308
C169	C	-0.571027	0.088563	0.071568
C170	C	-0.611521	0.095108	0.121070
C171	C	-0.562739	0.089011	0.144061
C172	C	-0.511915	0.010241	0.197033
C173	C	-0.542670	0.137531	0.255247
C174	C	-0.171338	0.037467	0.263967
C175	C	-0.268788	0.036555	0.286249
C176	C	-0.316597	0.042611	0.262750
C177	C	-0.308112	0.037305	0.331542
C178	C	-0.405351	0.048369	0.284750
C179	C	-0.456092	0.058317	0.260279
C180	C	-0.700452	0.099593	0.142516
C181	C	-0.603213	0.088528	0.189308
C182	C	-0.552469	0.078578	0.213776
O183	O	-0.040608	-1.085661	-0.825229
O184	O	-0.001018	-0.826491	-0.777938
O185	O	-0.150287	-0.971682	-0.775894
O186	O	0.108661	-0.940470	-0.827272
O187	O	-0.144253	-0.976123	-0.711878
O188	O	0.005016	-0.830932	-0.713922
O189	O	-0.034575	-1.090102	-0.761213
Zn190	Zn	-0.013821	-0.961222	-0.727403
Zn191	Zn	-0.021771	-0.955371	-0.811747
O192	O	0.114695	-0.944911	-0.763256
O193	O	-0.036862	-0.230384	-0.253947
C194	C	-0.113095	-0.156247	-0.177817
C195	C	-0.115936	-0.201960	-0.227192
H196	H	-0.177010	-0.133236	-0.156173
H197	H	-0.108751	-0.206109	-0.164063
H198	H	-0.051377	-0.095492	-0.176669
H199	H	-0.177648	-0.262709	-0.228380
H200	H	-0.120232	-0.152039	-0.240925
H201	H	-0.449229	0.177371	-0.300885
O202	O	0.454090	-0.686276	-0.511684
C203	C	0.354186	-0.807159	-0.552132
C204	C	0.452298	-0.761397	-0.550363
H205	H	0.352707	-0.867891	-0.583406
H206	H	0.311126	-0.830172	-0.520334
H207	H	0.326096	-0.757242	-0.553979
H208	H	0.480470	-0.811263	-0.548531
H209	H	0.495296	-0.738366	-0.582160
H210	H	-0.037104	-0.474911	-0.880014
O211	O	-0.489647	0.070282	-0.377182
C212	C	-0.389764	-0.013334	-0.438981
C213	C	-0.487872	-0.007132	-0.414763
H214	H	-0.388299	-0.075928	-0.469364
H215	H	-0.346708	0.049091	-0.451076
H216	H	-0.361659	-0.017784	-0.414408
H217	H	-0.516058	-0.002710	-0.439310
H218	H	-0.530866	-0.069557	-0.402660
H219	H	0.413699	-0.532573	-0.457601
O220	O	0.726430	-0.700340	-0.505396
C221	C	0.726439	-0.842624	-0.503903
C222	C	0.671958	-0.788672	-0.505346
H223	H	0.682416	-0.914045	-0.503853
H224	H	0.788597	-0.845096	-0.534938
H225	H	0.748625	-0.808642	-0.471815
H226	H	0.649709	-0.822612	-0.537414
H227	H	0.609844	-0.786196	-0.474289
H228	H	-0.434254	-0.059305	0.203012
H229	H	-0.669612	-0.046576	-0.265443
H230	H	0.088092	-0.309407	-0.275738
O231	O	0.118340	-0.386022	-0.231053
C232	C	0.246602	-0.260355	-0.217772
C233	C	0.169053	-0.301945	-0.239430
H234	H	0.287636	-0.192381	-0.224545
H235	H	0.217386	-0.250723	-0.179619
H236	H	0.292236	-0.307212	-0.233148
H237	H	0.123391	-0.255128	-0.224091
H238	H	0.198331	-0.311595	-0.277584
H239	H	0.245727	-0.224039	-0.533582
H240	H	0.468233	-0.679598	-0.011487
O241	O	-0.352442	0.166107	-0.259836
C242	C	-0.259346	0.275066	-0.212575
C243	C	-0.353952	0.212061	-0.214289
H244	H	-0.260539	0.312252	-0.175754
H245	H	-0.208257	0.233729	-0.228849
H246	H	-0.239216	0.325911	-0.231859
H247	H	-0.374166	0.161205	-0.195001
H248	H	-0.404984	0.253457	-0.198030
O249	O	-0.592295	-0.077703	-0.221411
C250	C	-0.579332	-0.211953	-0.217197
C251	C	-0.536379	-0.136181	-0.240486
H252	H	-0.534152	-0.259263	-0.232616
H253	H	-0.587042	-0.181511	-0.179345
H254	H	-0.648643	-0.251216	-0.222412
H255	H	-0.467047	-0.096891	-0.235307
H256	H	-0.528737	-0.166680	-0.278330
H257	H	-0.283673	0.042875	0.225734
H258	H	0.001660	-0.441639	-0.159184
H259	H	0.550810	-0.383955	-0.581575
O260	O	-0.762008	0.090359	-0.380466
C261	C	-0.772921	0.172120	-0.422211
C262	C	-0.718411	0.167752	-0.395990
H263	H	-0.737705	0.234697	-0.434762
H264	H	-0.777653	0.109521	-0.452435
H265	H	-0.843804	0.175404	-0.398817
H266	H	-0.647502	0.164498	-0.419348
H267	H	-0.713753	0.230351	-0.365761
O268	O	-0.744826	0.080623	-0.244372
C269	C	-0.866536	0.006079	-0.190887
C270	C	-0.822036	0.006505	-0.240887
H271	H	-0.928978	-0.053827	-0.188052
H272	H	-0.816455	0.000637	-0.177772
H273	H	-0.887150	0.071163	-0.169814
H274	H	-0.801421	-0.058564	-0.261996
H275	H	-0.872144	0.011996	-0.253966
H276	H	-0.267732	0.034117	0.350946
O277	O	-0.290821	0.029578	-0.281271
C278	C	-0.220791	-0.050593	-0.357318
C279	C	-0.265234	-0.050882	-0.307297
H280	H	-0.200074	-0.115629	-0.378372
H281	H	-0.270919	-0.045271	-0.370446
H282	H	-0.158416	0.009378	-0.360159
H283	H	-0.327602	-0.110846	-0.304417
H284	H	-0.215046	-0.056158	-0.294191
O285	O	0.726642	-0.700197	-0.005461
C286	C	0.737571	-0.783979	0.035268
C287	C	0.683050	-0.730072	0.033823
H288	H	0.702359	-0.808133	0.067031
H289	H	0.742314	-0.844552	0.003903
H290	H	0.808451	-0.739099	0.035953
H291	H	0.612144	-0.774879	0.033153
H292	H	0.678382	-0.669491	0.065186
O293	O	-0.488534	0.185465	0.317821
C294	C	-0.387253	0.294034	0.360834
C295	C	-0.396304	0.227477	0.314602
H296	H	-0.312690	0.328005	0.358250
H297	H	-0.423494	0.347275	0.370944
H298	H	-0.418884	0.256041	0.387547
H299	H	-0.364666	0.265394	0.287858
H300	H	-0.360087	0.174238	0.304532
H301	H	-0.531920	0.039247	-0.151930
O302	O	0.013741	-0.700201	-0.149016
C303	C	-0.059386	-0.756797	-0.083614
C304	C	-0.062884	-0.702865	-0.110536
H305	H	-0.121321	-0.758953	-0.052493
H306	H	-0.058646	-0.828331	-0.106019
H307	H	0.004444	-0.722977	-0.072385
H308	H	-0.126706	-0.736608	-0.121770
H309	H	-0.063575	-0.631333	-0.088115
H310	H	0.107227	-0.532615	-0.804368
O311	O	-0.273486	0.020146	-0.145156
C312	C	-0.262718	-0.061410	-0.103263
C313	C	-0.317255	-0.057052	-0.129473
H314	H	-0.298094	-0.123809	-0.090568
H315	H	-0.191893	-0.064943	-0.126660
H316	H	-0.257823	0.001345	-0.073127
H317	H	-0.322221	-0.119791	-0.159610
H318	H	-0.388049	-0.053474	-0.106045
H319	H	0.261721	-0.474856	-0.029430
O320	O	0.317015	-0.448070	0.038059
C321	C	0.197579	-0.489245	0.102622
C322	C	0.292181	-0.495153	0.069807
H323	H	0.177464	-0.527322	0.128292
H324	H	0.198675	-0.415661	0.121221
H325	H	0.146532	-0.520432	0.082620
H326	H	0.343281	-0.464013	0.089773
H327	H	0.291011	-0.568752	0.051206
H328	H	0.413839	-0.532573	0.042316
O329	O	0.709377	-0.427441	-0.009911
C330	C	0.779283	-0.277232	0.029274
C331	C	0.734818	-0.376074	0.030012
H332	H	0.799847	-0.235671	0.061551
H333	H	0.841729	-0.273124	-0.001517
H334	H	0.729126	-0.249716	0.027251
H335	H	0.784905	-0.403653	0.032050
H336	H	0.672357	-0.380123	0.060798
H337	H	0.001650	-0.679613	-0.278166
O338	O	0.647726	-0.468341	-0.077346
C339	C	0.767106	-0.427305	-0.141957
C340	C	0.672497	-0.421405	-0.109149
H341	H	0.787154	-0.389379	-0.167683
H342	H	0.818238	-0.396049	-0.122000
H343	H	0.765938	-0.500922	-0.160493
H344	H	0.673576	-0.347813	-0.090605
H345	H	0.621405	-0.452716	-0.129130
H346	H	0.550886	-0.383867	-0.081621
O347	O	0.001348	-0.427508	-0.655981
C348	C	0.073098	-0.273371	-0.657763
C349	C	0.075950	-0.372200	-0.680632
H350	H	0.133417	-0.228624	-0.677678
H351	H	0.007770	-0.266130	-0.657085
H352	H	0.076025	-0.252187	-0.621573
H353	H	0.073058	-0.393449	-0.716831
H354	H	0.141273	-0.379386	-0.681274
O355	O	0.510451	-0.230250	-0.027496
C356	C	0.610370	-0.109318	0.012926
C357	C	0.512261	-0.155054	0.011148
H358	H	0.611868	-0.048503	0.044162
H359	H	0.638507	-0.159158	0.014811
H360	H	0.653378	-0.086400	-0.018902
H361	H	0.469182	-0.177973	0.042969
H362	H	0.484197	-0.105184	0.009241
O363	O	0.237853	-0.216284	-0.033688
C364	C	0.106262	-0.159736	0.003281
C365	C	0.160865	-0.213657	0.004647
H366	H	0.043996	-0.157611	0.034266
H367	H	0.150094	-0.088192	0.003398
H368	H	0.084243	-0.193545	-0.028856
H369	H	0.182894	-0.179925	0.036779
H370	H	0.117000	-0.285200	0.004506
H371	H	0.088099	-0.448874	-0.845454
O372	O	-0.476102	0.083511	0.122762
C373	C	-0.343263	0.071853	0.129010
C374	C	-0.441379	0.078050	0.153182
H375	H	-0.315154	0.067455	0.153596
H376	H	-0.341708	0.009284	0.098613
H377	H	-0.300266	0.134304	0.116931
H378	H	-0.484434	0.015645	0.165290
H379	H	-0.442865	0.140658	0.183557
O380	O	-0.519796	-0.048603	0.156209
C381	C	-0.483771	-0.180853	0.097493
C382	C	-0.474799	-0.114291	0.143735
H383	H	-0.447381	-0.233968	0.087388
H384	H	-0.558306	-0.214983	0.100047
H385	H	-0.452216	-0.142841	0.070791
H386	H	-0.506305	-0.152236	0.170461
H387	H	-0.400251	-0.080162	0.141143
H388	H	0.001632	-0.679646	-0.778160
H389	H	-0.123560	-0.607102	-0.263443
O390	O	-0.036827	-0.230422	-0.753959
C391	C	-0.113043	-0.156291	-0.677824
C392	C	-0.115896	-0.201993	-0.727197
H393	H	-0.176954	-0.133277	-0.656174
H394	H	-0.108698	-0.206162	-0.664076
H395	H	-0.051322	-0.095540	-0.676676
H396	H	-0.177611	-0.262739	-0.728384
H397	H	-0.120194	-0.152064	-0.740924
H398	H	0.013347	-0.692513	-0.652885
O399	O	-0.532514	0.053191	0.351323
C400	C	-0.688631	-0.014246	0.352641
C401	C	-0.590498	-0.020380	0.328444
H402	H	-0.735536	-0.073709	0.334148
H403	H	-0.708993	-0.015733	0.389138
H404	H	-0.694000	0.051294	0.352534
H405	H	-0.585055	-0.085911	0.328516
H406	H	-0.570180	-0.018841	0.291959
O407	O	-0.580322	0.207600	0.274144
C408	C	-0.605258	0.338184	0.337323
C409	C	-0.562563	0.258879	0.315972
H410	H	-0.590932	0.379654	0.371149
H411	H	-0.575094	0.382459	0.313524
H412	H	-0.681419	0.311106	0.343115
H413	H	-0.486402	0.285877	0.310180
H414	H	-0.592797	0.214617	0.339782
O415	O	-0.153851	-0.530463	-0.308106
C416	C	-0.282038	-0.656190	-0.321438
C417	C	-0.204464	-0.614613	-0.299797
H418	H	-0.322969	-0.724239	-0.314736
H419	H	-0.327778	-0.609433	-0.306050
H420	H	-0.252751	-0.665700	-0.359580
H421	H	-0.233673	-0.605101	-0.261655
H422	H	-0.158736	-0.661389	-0.315220
H423	H	-0.037138	-0.474881	-0.380005
O424	O	-0.049204	-0.216238	-0.390138
C425	C	0.023934	-0.087413	-0.419426
C426	C	0.027428	-0.141358	-0.392509
H427	H	0.085873	-0.026851	-0.421343
H428	H	0.023187	-0.132201	-0.455182
H429	H	-0.039891	-0.063219	-0.401649
H430	H	0.091245	-0.165561	-0.410246
H431	H	0.028125	-0.096536	-0.356753
H432	H	-0.724884	0.094041	0.248327
O433	O	-0.748488	0.103507	0.119332
C434	C	-0.759392	0.185219	0.077559
C435	C	-0.704892	0.180886	0.103795
H436	H	-0.724177	0.247784	0.064998
H437	H	-0.764112	0.122606	0.047340
H438	H	-0.830281	0.188501	0.100946
H439	H	-0.633978	0.177633	0.080445
H440	H	-0.700247	0.243497	0.134018
H441	H	0.702857	-0.441654	-0.509785
H442	H	0.261638	-0.474883	-0.529387
H443	H	0.330406	-0.448859	-0.466617
H444	H	0.634089	-0.467700	-0.572564
H445	H	-0.123559	-0.467696	-0.693740
O446	O	-0.153781	-0.377495	-0.731642
C447	C	-0.282035	-0.347437	-0.667074
C448	C	-0.204497	-0.392867	-0.688916
H449	H	-0.323072	-0.359865	-0.632530
H450	H	-0.252806	-0.271922	-0.662657
H451	H	-0.327669	-0.376948	-0.689884
H452	H	-0.158835	-0.363429	-0.666126
H453	H	-0.233787	-0.468381	-0.693341
H454	H	-0.048809	-0.224052	-0.886301
H455	H	0.496441	-0.236915	-0.527803
