data_functionalizedCrystal
_audit_creation_method	'MofGen! by Chris Wilmer'
_symmetry_space_group_name_H-M	'P1'
_symmetry_Int_Tables_number	1
_symmetry_cell_setting	triclinic
loop_
_symmetry_equiv_pos_as_xyz
  x,y,z
_cell_length_a	12.827893
_cell_length_b	12.827892
_cell_length_c	12.827885
_cell_angle_alpha	89.970214
_cell_angle_beta	89.980538
_cell_angle_gamma	90.015362
loop_
_atom_site_label
_atom_site_type_symbol
_atom_site_fract_x
_atom_site_fract_y
_atom_site_fract_z
Zn1	Zn	1.597672	-0.415983	-0.590849
Zn2	Zn	1.597565	-0.590761	-0.416109
Zn3	Zn	1.422912	-0.416034	-0.416122
Zn4	Zn	1.422898	-0.590683	-0.590809
O5	O	1.510262	-0.503365	-0.503472
O6	O	1.743893	-0.439179	-0.567680
O7	O	1.574358	-0.567637	-0.269875
O8	O	1.446145	-0.269791	-0.439322
O9	O	1.743815	-0.567587	-0.439300
O10	O	1.574540	-0.269754	-0.567693
O11	O	1.446042	-0.439266	-0.269884
O12	O	1.276674	-0.439190	-0.439284
O13	O	1.446121	-0.567455	-0.737050
O14	O	1.276664	-0.567504	-0.567625
O15	O	1.574526	-0.439104	-0.737080
O16	O	1.574345	-0.736986	-0.439261
O17	O	1.446018	-0.736929	-0.567612
C18	C	1.238752	-0.503345	-0.503452
C19	C	1.122599	-0.503362	-0.503469
C20	C	1.070837	-0.566954	-0.566878
C21	C	0.950786	-0.566973	-0.566896
C22	C	1.510196	-0.774875	-0.503454
C23	C	1.510264	-0.891028	-0.503481
C24	C	1.573840	-0.942807	-0.440039
C25	C	1.573911	-1.062857	-0.440066
C26	C	1.782832	-0.503386	-0.503493
C27	C	1.898985	-0.503395	-0.503502
C28	C	1.510334	-0.503265	-0.776043
C29	C	1.510365	-0.503222	-0.892196
C30	C	1.510356	-0.230795	-0.503514
C31	C	1.510396	-0.114642	-0.503531
C32	C	1.573897	-0.566673	-1.064020
C33	C	1.573867	-0.566718	-0.943970
C34	C	1.510250	-0.503390	-0.231962
C35	C	1.510422	-0.503138	-0.115810
H36	H	0.943493	-0.448952	-0.449208
H37	H	1.628338	-1.107385	-0.385748
C38	C	0.891252	-0.639459	-0.639248
C39	C	0.784017	-0.625041	-0.624907
C40	C	0.729140	-0.691789	-0.691552
H41	H	0.908948	-0.709711	-0.623917
H42	H	0.909064	-0.624249	-0.709524
H43	H	0.766213	-0.640259	-0.554648
H44	H	0.766291	-0.554804	-0.640246
H45	H	0.746952	-0.676579	-0.761827
H46	H	0.746844	-0.762037	-0.676214
H47	H	0.656376	-0.682009	-0.681838
H48	H	1.628214	-0.621108	-0.899432
H49	H	1.628257	-0.621038	-1.108558
C50	C	1.063145	-0.430961	-0.430954
C51	C	1.000470	-0.490128	-0.363923
C52	C	0.945703	-0.423470	-0.297092
H53	H	1.020501	-0.385493	-0.470917
H54	H	1.111160	-0.391086	-0.391107
H55	H	0.952460	-0.529986	-0.403766
H56	H	1.043087	-0.535594	-0.323937
H57	H	0.993718	-0.383595	-0.257245
H58	H	0.903065	-0.378006	-0.337064
H59	H	0.903179	-0.463606	-0.251598
C60	C	1.437856	-0.430572	-0.951377
C61	C	1.379284	-0.371985	-0.880338
C62	C	1.312488	-0.305040	-0.934826
H63	H	1.392268	-0.470449	-0.993952
H64	H	1.477873	-0.385007	-0.993943
H65	H	1.339269	-0.417544	-0.837791
H66	H	1.424844	-0.332086	-0.837761
H67	H	1.352505	-0.259475	-0.977391
H68	H	1.266907	-0.344925	-0.977399
H69	H	1.272746	-0.265274	-0.886634
H70	H	1.628221	-0.898262	-0.385708
C71	C	1.437988	-1.055228	-0.576092
C72	C	1.497144	-0.992485	-0.643069
C73	C	1.430480	-0.937740	-0.709935
H74	H	1.392469	-1.012633	-0.536150
H75	H	1.398168	-1.103257	-0.615975
H76	H	1.536947	-0.944462	-0.603190
H77	H	1.542660	-1.035054	-0.683033
H78	H	1.390659	-0.985769	-0.749818
H79	H	1.384964	-0.895151	-0.669985
H80	H	1.470607	-0.895170	-0.755393
C81	C	1.130378	-0.639366	-0.639311
C82	C	1.193098	-0.580210	-0.706308
C83	C	1.247970	-0.646882	-0.773039
H84	H	1.082457	-0.679292	-0.679196
H85	H	1.172993	-0.684788	-0.599240
H86	H	1.150486	-0.534806	-0.746374
H87	H	1.241039	-0.540286	-0.666451
H88	H	1.290586	-0.692303	-0.732968
H89	H	1.200042	-0.686804	-0.812917
H90	H	1.290540	-0.606754	-0.818497
H91	H	1.455892	-0.935576	-0.557819
H92	H	1.456053	-0.448781	-1.071272
