data_functionalizedCrystal
_audit_creation_method	'MofGen! by Chris Wilmer'
_symmetry_space_group_name_H-M	'P1'
_symmetry_Int_Tables_number	1
_symmetry_cell_setting	triclinic
loop_
_symmetry_equiv_pos_as_xyz
  x,y,z
_cell_length_a	19.288867
_cell_length_b	19.188924
_cell_length_c	17.766277
_cell_angle_alpha	89.991559
_cell_angle_beta	89.992126
_cell_angle_gamma	83.139516
loop_
_atom_site_label
_atom_site_type_symbol
_atom_site_fract_x
_atom_site_fract_y
_atom_site_fract_z
O1	O	0.921356	0.087106	-0.062571
O2	O	0.719097	0.098854	-0.062579
O3	O	0.826066	-0.008676	-0.062566
O4	O	0.814387	0.194637	-0.062584
O5	O	0.826047	-0.008682	0.062622
O6	O	0.719078	0.098849	0.062610
O7	O	0.921338	0.087101	0.062617
Cu8	Cu	0.820206	0.092974	0.074044
Cu9	Cu	0.820228	0.092981	-0.074006
O10	O	0.814369	0.194631	0.062604
C11	C	0.693211	0.098473	0.000014
C12	C	0.616107	0.097338	0.000012
C13	C	0.825679	-0.034690	0.000029
C14	C	0.824546	-0.112195	0.000031
C15	C	0.060552	0.089162	-0.068219
C16	C	0.132999	0.090225	-0.068222
C17	C	0.169218	0.090757	0.000018
C18	C	0.132985	0.090207	0.068266
C19	C	0.060540	0.089138	0.068267
C20	C	0.278539	0.133342	0.052295
C21	C	0.350983	0.134416	0.052291
C22	C	0.392663	0.094053	0.000018
C23	C	0.361891	0.052624	-0.052264
C24	C	0.289446	0.051554	-0.052263
C25	C	0.247772	0.091916	0.000025
C26	C	0.507444	0.095749	-0.068229
C27	C	0.579894	0.096807	-0.068229
C28	C	0.579877	0.096797	0.068261
C29	C	0.507430	0.095732	0.068259
C30	C	0.471217	0.095211	0.000012
C31	C	0.824028	-0.148591	-0.068210
C32	C	0.822953	-0.221413	-0.068215
C33	C	0.822412	-0.257839	0.000023
C34	C	0.822926	-0.221434	0.068273
C35	C	0.823994	-0.148612	0.068277
N36	N	0.860255	-0.377507	0.050813
N37	N	0.859242	-0.446685	0.050805
C38	C	0.819194	-0.477248	0.000016
N39	N	0.780205	-0.436020	-0.050776
N40	N	0.781221	-0.366836	-0.050770
C41	C	0.821254	-0.336802	0.000027
C42	C	0.817510	-0.592606	-0.068236
C43	C	0.816431	-0.665430	-0.068238
C44	C	0.816411	-0.665450	0.068252
C45	C	0.817483	-0.592627	0.068253
C46	C	0.818035	-0.556210	0.000007
C47	C	0.947224	0.087482	0.000022
C48	C	1.024327	0.088617	0.000020
C49	C	0.814755	0.220645	0.000008
C50	C	0.815888	0.298150	0.000001
N51	N	0.820196	0.092969	0.178174
N52	N	0.820244	0.092980	-0.178136
C53	C	0.867577	0.045378	0.217567
C54	C	0.867581	0.045375	0.296369
C55	C	0.820210	0.092975	0.335775
C56	C	0.772820	0.140570	0.296373
C57	C	0.772813	0.140567	0.217573
C58	C	0.810915	0.156592	0.460607
C59	C	0.810927	0.156595	0.539406
C60	C	0.820229	0.092983	0.578821
C61	C	0.829533	0.029365	0.539428
C62	C	0.829526	0.029362	0.460628
C63	C	0.820213	0.092983	0.421221
C64	C	0.867617	0.045385	0.703660
C65	C	0.867616	0.045380	0.782463
C66	C	0.772859	0.140581	0.782466
C67	C	0.772856	0.140579	0.703664
C68	C	0.820239	0.092982	0.664266
H69	H	0.031072	0.088735	-0.123791
H70	H	0.906197	0.006626	0.671581
C71	C	0.720783	0.192985	0.660330
N72	N	0.681574	0.232474	0.627692
H73	H	0.162479	0.090639	0.123828
C74	C	0.839764	-0.040615	0.582779
N75	N	0.847471	-0.093321	0.615435
H76	H	0.906165	0.006619	0.328448
C77	C	0.822379	-0.261456	-0.143288
N78	N	0.821945	-0.291614	-0.199833
C79	C	0.919693	-0.006988	0.174234
N80	N	0.958945	-0.046432	0.141594
H81	H	0.803328	0.208396	0.428522
H82	H	0.816005	-0.695062	-0.123810
C83	C	0.824568	-0.108575	0.143350
N84	N	0.825003	-0.078420	0.199896
C85	C	0.407735	0.008219	-0.109769
N86	N	0.442267	-0.025224	-0.153081
C87	C	0.839752	-0.040617	0.417299
N88	N	0.847450	-0.093327	0.384663
C89	C	0.919730	-0.006988	0.825795
N90	N	0.958981	-0.046437	0.858433
H91	H	0.162499	0.090673	-0.123792
H92	H	0.734286	0.179335	0.814549
H93	H	0.609366	0.097227	0.123823
C94	C	0.800685	0.226576	0.582731
N95	N	0.792966	0.279288	0.615361
C96	C	0.822329	-0.261503	0.143335
N97	N	0.821876	-0.291683	0.199875
C98	C	0.720709	0.192927	0.339721
N99	N	0.681455	0.232361	0.372371
H100	H	0.817956	-0.562953	-0.123805
H101	H	0.734228	0.179322	0.185498
C102	C	0.384826	0.179988	0.109803
N103	N	0.410315	0.214312	0.153124
C104	C	0.467609	0.095168	-0.143301
N105	N	0.437607	0.094728	-0.199847
C106	C	0.255599	0.005975	-0.109764
N107	N	0.230107	-0.028361	-0.153071
H108	H	0.609387	0.097246	-0.123800
H109	H	0.477935	0.095290	0.123827
C110	C	0.232697	0.177744	0.109808
N111	N	0.198171	0.211185	0.153126
H112	H	0.817911	-0.562994	0.123821
C113	C	0.824629	-0.108535	-0.143282
N114	N	0.825080	-0.078364	-0.199827
C115	C	0.020690	0.088548	0.143339
N116	N	-0.009326	0.088108	0.199884
H117	H	0.815964	-0.695106	0.123813
