data_functionalizedCrystal
_audit_creation_method	'MofGen! by Chris Wilmer'
_symmetry_space_group_name_H-M	'P1'
_symmetry_Int_Tables_number	1
_symmetry_cell_setting	triclinic
loop_
_symmetry_equiv_pos_as_xyz
  x,y,z
_cell_length_a	19.288864
_cell_length_b	27.732048
_cell_length_c	17.766277
_cell_angle_alpha	89.988664
_cell_angle_beta	89.976791
_cell_angle_gamma	82.889449
loop_
_atom_site_label
_atom_site_type_symbol
_atom_site_fract_x
_atom_site_fract_y
_atom_site_fract_z
O1	O	0.920977	0.060300	-0.062844
O2	O	1.420977	0.560300	0.437156
O3	O	0.718666	0.068434	-0.062793
O4	O	1.218666	0.568434	0.437207
O5	O	0.826105	-0.006011	-0.062806
O6	O	1.326105	0.493989	0.437194
O7	O	0.813538	0.134745	-0.062831
O8	O	1.313538	0.634745	0.437169
O9	O	0.826086	-0.006014	0.062383
O10	O	1.326086	0.493986	0.562383
O11	O	0.718647	0.068430	0.062395
O12	O	1.218647	0.568430	0.562395
O13	O	0.920958	0.060296	0.062345
O14	O	1.420958	0.560296	0.562345
Cu15	Cu	0.819801	0.064363	0.073801
Cu16	Cu	1.319801	0.564363	0.573801
Cu17	Cu	0.819823	0.064367	-0.074249
Cu18	Cu	1.319823	0.564367	0.425751
O19	O	0.813519	0.134741	0.062357
O20	O	1.313519	0.634741	0.562357
C21	C	0.692781	0.068171	-0.000192
C22	C	1.192781	0.568171	0.499808
C23	C	0.615683	0.067385	-0.000172
C24	C	1.115683	0.567385	0.499828
C25	C	0.570714	0.111066	-0.000192
C26	C	1.070714	0.611066	0.499808
C27	C	0.498271	0.110328	-0.000200
C28	C	0.998271	0.610328	0.499800
C29	C	0.470801	0.065906	-0.000204
C30	C	0.970801	0.565906	0.499796
C31	C	0.515780	0.022219	-0.000180
C32	C	1.015780	0.522219	0.499820
C33	C	0.588220	0.022959	-0.000164
C34	C	1.088220	0.522959	0.499836
C35	C	0.362763	0.030987	-0.044082
C36	C	0.862763	0.530987	0.455918
C37	C	0.290324	0.030250	-0.044102
C38	C	0.790324	0.530250	0.455898
C39	C	0.247370	0.063624	-0.000249
C40	C	0.747370	0.563624	0.499751
C41	C	0.276863	0.097744	0.043615
C42	C	0.776863	0.597744	0.543615
C43	C	0.349304	0.098483	0.043631
C44	C	0.849304	0.598483	0.543631
C45	C	0.392252	0.065099	-0.000220
C46	C	0.892252	0.565099	0.499780
C47	C	0.123850	0.106507	-0.000277
C48	C	0.623850	0.606507	0.499723
C49	C	0.051406	0.105767	-0.000280
C50	C	0.551406	0.605767	0.499720
C51	C	0.068916	0.017658	-0.000267
C52	C	0.568916	0.517658	0.499733
C53	C	0.141358	0.018399	-0.000256
C54	C	0.641358	0.518399	0.499744
C55	C	0.168820	0.062825	-0.000264
C56	C	0.668820	0.562825	0.499736
C57	C	0.825831	-0.024020	-0.000209
C58	C	1.325831	0.475980	0.499791
C59	C	0.825037	-0.077678	-0.000203
C60	C	1.325037	0.422322	0.499797
C61	C	0.883526	-0.416316	-0.000256
C62	C	1.383526	0.083684	0.499744
C63	C	0.880579	-0.617985	-0.000266
C64	C	1.380579	-0.117985	0.499734
O65	O	0.934063	-0.649079	-0.000312
O66	O	1.434063	-0.149079	0.499688
N67	N	0.816872	-0.637301	-0.000249
N68	N	1.316872	-0.137301	0.499751
C69	C	0.753897	-0.606196	-0.000235
C70	C	1.253897	-0.106196	0.499765
O71	O	0.699643	-0.627253	-0.000229
O72	O	1.199643	-0.127253	0.499771
C73	C	0.756845	-0.404529	-0.000231
C74	C	1.256845	0.095471	0.499769
C75	C	0.820556	-0.385216	-0.000240
C76	C	1.320556	0.114784	0.499760
C77	C	0.947232	-0.397002	-0.000266
C78	C	1.447232	0.102998	0.499734
C79	C	0.947968	-0.346588	-0.000259
C80	C	1.447968	0.153412	0.499741
C81	C	0.884998	-0.315488	-0.000243
C82	C	1.384998	0.184512	0.499757
C83	C	0.821292	-0.334801	-0.000233
C84	C	1.321292	0.165199	0.499767
C85	C	0.693871	-0.373425	-0.000222
C86	C	1.193871	0.126575	0.499778
C87	C	0.694614	-0.323006	-0.000223
C88	C	1.194614	0.176994	0.499777
C89	C	0.758325	-0.303693	-0.000232
C90	C	1.258325	0.196307	0.499768
C91	C	0.759059	-0.253287	-0.000210
C92	C	1.259059	0.246713	0.499790
N93	N	0.822766	-0.233971	-0.000227
N94	N	1.322766	0.266029	0.499773
C95	C	0.885735	-0.265071	-0.000243
C96	C	1.385735	0.234929	0.499757
C97	C	0.752354	-0.712075	-0.000236
C98	C	1.252354	-0.212075	0.499764
C99	C	0.751617	-0.762492	-0.000236
C100	C	1.251617	-0.262492	0.499764
C101	C	0.878299	-0.774276	-0.000268
C102	C	1.378299	-0.274276	0.499732
C103	C	0.879035	-0.723859	-0.000263
C104	C	1.379035	-0.223859	0.499737
C105	C	0.816061	-0.692759	-0.000253
C106	C	1.316061	-0.192759	0.499747
C107	C	0.887276	-0.159197	-0.000229
C108	C	1.387276	0.340803	0.499771
C109	C	0.888007	-0.108778	-0.000219
C110	C	1.388007	0.391222	0.499781
C111	C	0.761325	-0.096998	-0.000191
C112	C	1.261325	0.403002	0.499809
C113	C	0.760595	-0.147412	-0.000197
C114	C	1.260595	0.352588	0.499803
C115	C	0.823576	-0.178511	-0.000218
C116	C	1.323576	0.321489	0.499782
O117	O	0.705603	-0.222164	-0.000172
O118	O	1.205603	0.277836	0.499828
O119	O	0.939982	-0.244005	-0.000266
O120	O	1.439982	0.255995	0.499734
C121	C	0.882790	-0.466730	-0.000263
C122	C	1.382790	0.033270	0.499737
C123	C	0.819084	-0.486044	-0.000253
C124	C	1.319084	0.013956	0.499747
C125	C	0.756114	-0.454943	-0.000236
C126	C	1.256114	0.045057	0.499764
C127	C	0.818347	-0.536461	-0.000253
C128	C	1.318347	-0.036461	0.499747
C129	C	0.881317	-0.567561	-0.000269
C130	C	1.381317	-0.067561	0.499731
C131	C	0.945023	-0.548245	-0.000285
C132	C	1.445023	-0.048245	0.499715
C133	C	0.945760	-0.497831	-0.000279
C134	C	1.445760	0.002169	0.499721
C135	C	0.692407	-0.474260	-0.000220
C136	C	1.192407	0.025740	0.499780
C137	C	0.691676	-0.524674	-0.000226
C138	C	1.191676	-0.024674	0.499774
C139	C	0.754646	-0.555775	-0.000242
C140	C	1.254646	-0.055775	0.499758
C141	C	0.946842	0.060560	-0.000258
C142	C	1.446842	0.560560	0.499742
C143	C	1.023941	0.061345	-0.000282
C144	C	1.523941	0.561345	0.499718
C145	C	0.813792	0.152751	-0.000241
C146	C	1.313792	0.652751	0.499759
C147	C	0.814587	0.206408	-0.000252
C148	C	1.314587	0.706408	0.499748
N149	N	0.819790	0.064359	0.177931
N150	N	1.319790	0.564359	0.677931
N151	N	0.819839	0.064367	-0.178379
N152	N	1.319839	0.564367	0.321621
C153	C	0.867380	0.031411	0.217313
C154	C	1.367380	0.531411	0.717313
C155	C	0.867384	0.031409	0.296114
C156	C	1.367384	0.531409	0.796114
C157	C	0.819805	0.064363	0.335532
C158	C	1.319805	0.564363	0.835532
C159	C	0.772207	0.097314	0.296141
C160	C	1.272207	0.597314	0.796141
C161	C	0.772200	0.097312	0.217341
C162	C	1.272200	0.597312	0.717341
C163	C	0.810231	0.108406	0.460363
C164	C	1.310231	0.608406	0.960363
C165	C	0.810244	0.108408	0.539162
C166	C	1.310244	0.608408	1.039162
C167	C	0.819823	0.064369	0.578578
C168	C	1.319823	0.564369	1.078578
C169	C	0.829406	0.020325	0.539186
C170	C	1.329406	0.520325	1.039186
C171	C	0.829399	0.020323	0.460385
C172	C	1.329399	0.520323	0.960385
C173	C	0.819807	0.064369	0.420977
C174	C	1.319807	0.564369	0.920977
C175	C	0.867420	0.031416	0.703405
C176	C	1.367420	0.531416	1.203405
C177	C	0.867419	0.031413	0.782209
C178	C	1.367419	0.531413	1.282209
C179	C	0.772245	0.097322	0.782234
C180	C	1.272245	0.597322	1.282234
C181	C	0.772243	0.097321	0.703432
C182	C	1.272243	0.597321	1.203432
C183	C	0.819834	0.064368	0.664023
C184	C	1.319834	0.564368	1.164023
H185	H	0.938562	-0.184513	-0.000249
H186	H	1.438562	0.315487	0.499751
H187	H	0.733446	0.124143	0.185276
H188	H	1.233446	0.624143	0.685276
O189	O	0.913677	-0.000529	0.820551
O190	O	1.413677	0.499471	1.320551
C191	C	0.956255	0.025287	0.866088
C192	C	1.456255	0.525287	1.366088
H193	H	0.928178	0.063160	0.877893
H194	H	1.428178	0.563160	1.377893
H195	H	0.967466	0.005093	0.921502
H196	H	1.467466	0.505093	1.421502
H197	H	1.007550	0.028484	0.835693
H198	H	1.507550	0.528484	1.335693
O199	O	0.725997	0.129268	0.820596
O200	O	1.225997	0.629268	1.320596
C201	C	0.683419	0.103456	0.866194
C202	C	1.183419	0.603456	1.366194
H203	H	0.711493	0.065583	0.877999
H204	H	1.211493	0.565583	1.377999
H205	H	0.672215	0.123653	0.921605
H206	H	1.172215	0.623653	1.421605
H207	H	0.632121	0.100261	0.835851
H208	H	1.132121	0.600261	1.335851
O209	O	0.633483	-0.292747	-0.000111
O210	O	1.133483	0.207253	0.499889
C211	C	0.630094	-0.263250	0.064738
C212	C	1.130094	0.236750	0.564738
H213	H	0.685192	-0.260813	0.086345
H214	H	1.185192	0.239187	0.586345
H215	H	0.603803	-0.225301	0.050164
H216	H	1.103803	0.274699	0.550164
H217	H	0.598546	-0.279780	0.110142
H218	H	1.098546	0.220220	0.610142
H219	H	0.930914	-0.708138	-0.000271
H220	H	1.430914	-0.208138	0.499729
H221	H	0.929571	-0.799607	-0.000281
H222	H	1.429571	-0.299607	0.499719
O223	O	0.725993	0.129378	0.665289
O224	O	1.225993	0.629378	1.165289
C225	C	0.683987	0.158456	0.716974
C226	C	1.183987	0.658456	1.216974
H227	H	0.712462	0.158953	0.773130
H228	H	1.212462	0.658953	1.273130
H229	H	0.672972	0.197078	0.694197
H230	H	1.172972	0.697078	1.194197
H231	H	0.632560	0.142852	0.725388
H232	H	1.132560	0.642852	1.225388
H233	H	0.837199	-0.015539	0.428315
H234	H	1.337199	0.484461	0.928315
O235	O	0.629800	-0.543455	-0.000084
O236	O	1.129800	-0.043455	0.499916
C237	C	0.625568	-0.572288	0.064735
C238	C	1.125568	-0.072288	0.564735
H239	H	0.661723	-0.560452	0.110053
H240	H	1.161723	-0.060452	0.610053
H241	H	0.569533	-0.567648	0.086503
H242	H	1.069533	-0.067648	0.586503
H243	H	0.642025	-0.612079	0.050065
H244	H	1.142025	-0.112079	0.550065
H245	H	0.802445	0.144271	0.571229
H246	H	1.302445	0.644271	1.071229
H247	H	0.906138	0.004578	0.328185
H248	H	1.406138	0.504578	0.828185
H249	H	0.906129	0.004578	0.185228
H250	H	1.406129	0.504578	0.685228
H251	H	0.701070	-0.686757	-0.000228
H252	H	1.201070	-0.186757	0.499772
H253	H	0.837207	-0.015536	0.571276
H254	H	1.337207	0.484464	1.071276
O255	O	1.007605	-0.479016	-0.000394
O256	O	1.507605	0.020984	0.499606
C257	C	1.011845	-0.450209	-0.065240
C258	C	1.511845	0.049791	0.434760
H259	H	0.956966	-0.437529	-0.086840
H260	H	1.456966	0.062471	0.413160
H261	H	1.039178	-0.417256	-0.050665
H262	H	1.539178	0.082744	0.449335
H263	H	1.042818	-0.472545	-0.110650
H264	H	1.542818	0.027455	0.389350
H265	H	0.999848	-0.330868	-0.000270
H266	H	1.499848	0.169132	0.499730
H267	H	0.146211	0.142682	-0.000272
H268	H	0.646211	0.642682	0.499728
O269	O	0.597274	0.154262	-0.000159
O270	O	1.097274	0.654262	0.499841
C271	C	0.542043	0.192658	-0.000196
C272	C	1.042043	0.692658	0.499804
H273	H	0.492957	0.179214	0.023493
H274	H	0.992957	0.679214	0.523493
H275	H	0.556828	0.223681	0.036150
H276	H	1.056828	0.723681	0.536150
H277	H	0.531682	0.206127	-0.060259
H278	H	1.031682	0.706127	0.439741
O279	O	0.404382	-0.001453	-0.086759
O280	O	0.904382	0.498547	0.413241
C281	C	0.362820	-0.031728	-0.125470
C282	C	0.862820	0.468272	0.374530
H283	H	0.307263	-0.012528	-0.130773
H284	H	0.807263	0.487472	0.369227
H285	H	0.385472	-0.040027	-0.183988
H286	H	0.885472	0.459973	0.316012
H287	H	0.362116	-0.067108	-0.092952
H288	H	0.862116	0.432892	0.407048
H289	H	0.906169	0.004582	0.671317
H290	H	1.406169	0.504582	1.171317
H291	H	0.802418	0.144270	0.428277
H292	H	1.302418	0.644270	0.928277
O293	O	0.700140	-0.066803	-0.000046
O294	O	1.200140	0.433197	0.499954
C295	C	0.661398	-0.075548	0.064783
C296	C	1.161398	0.424452	0.564783
H297	H	0.698240	-0.092863	0.110098
H298	H	1.198240	0.407137	0.610098
H299	H	0.633150	-0.039719	0.086547
H300	H	1.133150	0.460281	0.586547
H301	H	0.621476	-0.101133	0.050127
H302	H	1.121476	0.398867	0.550127
H303	H	0.733467	0.124145	0.328238
H304	H	1.233467	0.624145	0.828238
O305	O	1.006175	-0.578481	-0.000437
O306	O	1.506175	-0.078481	0.499563
C307	C	1.009530	-0.607993	-0.065269
C308	C	1.509530	-0.107993	0.434731
H309	H	0.973816	-0.589443	-0.110572
H310	H	1.473816	-0.089443	0.389428
H311	H	1.065543	-0.613780	-0.087050
H312	H	1.565543	-0.113780	0.412950
H313	H	0.991944	-0.644619	-0.050610
H314	H	1.491944	-0.144619	0.449390
O315	O	0.631963	-0.392153	-0.000352
O316	O	1.131963	0.107847	0.499648
C317	C	0.593626	-0.376222	-0.065174
C318	C	1.093626	0.123778	0.434826
H319	H	0.630907	-0.365811	-0.110492
H320	H	1.130907	0.134189	0.389508
H321	H	0.564404	-0.406695	-0.086939
H322	H	1.064404	0.093305	0.413061
H323	H	0.554566	-0.343278	-0.050508
H324	H	1.054566	0.156722	0.449492
H325	H	0.708716	-0.163138	-0.000169
H326	H	1.208716	0.336862	0.499831
O327	O	1.008470	-0.427140	-0.000246
O328	O	1.508470	0.072860	0.499754
C329	C	1.064847	-0.399272	-0.000275
C330	C	1.564847	0.100728	0.499725
H331	H	1.046786	-0.361608	0.023426
H332	H	1.546786	0.138392	0.523426
H333	H	1.108929	-0.417957	0.036066
H334	H	1.608929	0.082043	0.536066
H335	H	1.084413	-0.395714	-0.060337
H336	H	1.584413	0.104286	0.439663
O337	O	0.949855	-0.089961	-0.000332
O338	O	1.449855	0.410039	0.499668
C339	C	0.954090	-0.061150	-0.065175
C340	C	1.454090	0.438850	0.434825
H341	H	0.899211	-0.048474	-0.086775
H342	H	1.399211	0.451526	0.413225
H343	H	0.981418	-0.028196	-0.050597
H344	H	1.481418	0.471804	0.449403
H345	H	0.985067	-0.083483	-0.110587
H346	H	1.485067	0.416517	0.389413
O347	O	0.378043	0.131556	0.086290
O348	O	0.878043	0.631556	0.586290
C349	C	0.424846	0.107093	0.138606
C350	C	0.924846	0.607093	0.638606
H351	H	0.443310	0.068935	0.117083
H352	H	0.943310	0.568935	0.617083
H353	H	0.471746	0.127943	0.146011
H354	H	0.971746	0.627943	0.646011
H355	H	0.397331	0.104620	0.195026
H356	H	0.897331	0.604620	0.695026
H357	H	0.461651	0.145899	-0.000214
H358	H	0.961651	0.645899	0.499786
O359	O	0.689667	-0.781169	-0.000252
O360	O	1.189667	-0.281169	0.499748
C361	C	0.634251	-0.742902	-0.000220
C362	C	1.134251	-0.242902	0.499780
H363	H	0.653356	-0.708690	-0.023924
H364	H	1.153356	-0.208690	0.476076
H365	H	0.589743	-0.753338	-0.036557
H366	H	1.089743	-0.253338	0.463443
H367	H	0.614844	-0.735734	0.059843
H368	H	1.114844	-0.235734	0.559843
O369	O	0.007820	0.148246	-0.000331
O370	O	0.507820	0.648246	0.499669
C371	C	0.047597	0.187613	-0.000316
C372	C	0.547597	0.687613	0.499684
H373	H	0.101814	0.175225	-0.024006
H374	H	0.601814	0.675225	0.475994
H375	H	0.020562	0.218209	-0.036674
H376	H	0.520562	0.718209	0.463326
H377	H	0.052580	0.201238	0.059740
H378	H	0.552580	0.701238	0.559740
O379	O	0.042324	-0.025524	-0.000370
O380	O	0.542324	0.474476	0.499630
C381	C	0.065372	-0.052136	-0.065208
C382	C	0.565372	0.447864	0.434792
H383	H	0.115490	-0.039071	-0.086817
H384	H	0.615490	0.460929	0.413183
H385	H	0.075853	-0.092412	-0.050619
H386	H	0.575853	0.407588	0.449381
H387	H	0.023411	-0.046445	-0.110617
H388	H	0.523411	0.453555	0.389383
H389	H	0.241891	0.124920	0.079325
H390	H	0.741891	0.624920	0.579325
H391	H	0.177973	-0.017171	-0.000244
H392	H	0.677973	0.482829	0.499756
H393	H	0.266316	0.002469	-0.079822
H394	H	0.766316	0.502469	0.420178
O395	O	0.489180	-0.020962	-0.000287
O396	O	0.989180	0.479038	0.499713
C397	C	0.512231	-0.047574	-0.065123
C398	C	1.012231	0.452426	0.434877
H399	H	0.562352	-0.034511	-0.086727
H400	H	1.062352	0.465489	0.413273
H401	H	0.522709	-0.087850	-0.050534
H402	H	1.022709	0.412150	0.449466
H403	H	0.470274	-0.041881	-0.110536
H404	H	0.970274	0.458119	0.389464
O405	O	0.631977	-0.019443	-0.000251
O406	O	1.131977	0.480557	0.499749
C407	C	0.674423	-0.021654	-0.065091
C408	C	1.174423	0.478346	0.434909
H409	H	0.677684	0.016706	-0.086711
H410	H	1.177684	0.516706	0.413289
H411	H	0.729062	-0.039779	-0.050499
H412	H	1.229062	0.460221	0.449501
H413	H	0.650847	-0.043677	-0.110492
H414	H	1.150847	0.456323	0.389508
O415	O	0.631171	-0.444121	-0.000166
O416	O	1.131171	0.055879	0.499834
C417	C	0.574792	-0.471987	-0.000172
C418	C	1.074792	0.028013	0.499828
H419	H	0.592842	-0.509658	0.023515
H420	H	1.092842	-0.009658	0.523515
H421	H	0.530699	-0.453311	0.036192
H422	H	1.030699	0.046689	0.536192
H423	H	0.555243	-0.475527	-0.060226
H424	H	1.055243	0.024473	0.439774
