data_functionalizedCrystal
_audit_creation_method	'MofGen! by Chris Wilmer'
_symmetry_space_group_name_H-M	'P1'
_symmetry_Int_Tables_number	1
_symmetry_cell_setting	triclinic
loop_
_symmetry_equiv_pos_as_xyz
  x,y,z
_cell_length_a	10.489741
_cell_length_b	9.065218
_cell_length_c	7.540329
_cell_angle_alpha	90.001757
_cell_angle_beta	90.000270
_cell_angle_gamma	84.777530
loop_
_atom_site_label
_atom_site_type_symbol
_atom_site_fract_x
_atom_site_fract_y
_atom_site_fract_z
O1	O	-1.694803	-0.208165	-0.147365
O2	O	-1.323678	-0.227705	-0.147392
O3	O	-1.516911	-0.003256	-0.147374
O4	O	-1.501569	-0.432615	-0.147382
O5	O	-1.516900	-0.003253	0.147591
O6	O	-1.323666	-0.227702	0.147573
O7	O	-1.694791	-0.208162	0.147600
Cu8	Cu	-1.509228	-0.217932	0.174519
Cu9	Cu	-1.509241	-0.217935	-0.174311
O10	O	-1.501558	-0.432612	0.147583
C11	C	-1.515431	0.051725	0.000105
C12	C	-1.511022	0.215547	0.000097
C13	C	-1.276135	-0.226228	0.000087
C14	C	-1.134489	-0.221813	0.000077
C15	C	-1.742334	-0.209640	0.000117
C16	C	-1.883979	-0.214055	0.000116
C17	C	-1.065834	-0.079002	0.000096
C18	C	-0.973956	-0.146466	-0.145334
C19	C	-0.973979	-0.146497	0.145478
C20	C	-1.044478	-0.289335	-0.145474
C21	C	-1.044510	-0.289346	0.145469
C22	C	-0.952660	-0.356914	0.000003
C23	C	-1.503038	-0.487593	0.000099
C24	C	-1.507447	-0.651414	0.000096
N25	N	-1.509227	-0.217929	0.419868
N26	N	-1.509252	-0.217927	-0.419659
H27	H	-1.115099	0.038397	-0.000083
C28	C	-1.086753	-0.370905	0.311580
N29	N	-1.118576	-0.432322	0.436709
H30	H	-0.942778	-0.086044	0.268429
H31	H	-0.903661	-0.474437	-0.000079
H32	H	-0.942728	-0.086041	-0.268286
H33	H	-1.075528	-0.349715	-0.268563
