data_functionalizedCrystal
_audit_creation_method	'MofGen! by Chris Wilmer'
_symmetry_space_group_name_H-M	'P1'
_symmetry_Int_Tables_number	1
_symmetry_cell_setting	triclinic
loop_
_symmetry_equiv_pos_as_xyz
  x,y,z
_cell_length_a	10.654550
_cell_length_b	17.699083
_cell_length_c	9.130313
_cell_angle_alpha	89.997869
_cell_angle_beta	89.996220
_cell_angle_gamma	83.883958
loop_
_atom_site_label
_atom_site_type_symbol
_atom_site_fract_x
_atom_site_fract_y
_atom_site_fract_z
O1	O	1.665973	0.106299	-0.121923
O2	O	1.300318	0.116427	-0.121900
O3	O	1.493476	0.001240	-0.121899
O4	O	1.472815	0.221487	-0.121924
O5	O	1.493474	0.001243	0.121700
O6	O	1.300315	0.116430	0.121699
O7	O	1.665971	0.106302	0.121676
Cu8	Cu	1.483143	0.111366	0.143930
Cu9	Cu	1.483146	0.111363	-0.144154
O10	O	1.472812	0.221490	0.121675
C11	C	1.253531	0.115685	-0.000097
C12	C	1.114127	0.113460	-0.000088
C13	C	1.033454	0.181281	-0.000117
C14	C	0.902470	0.179185	-0.000142
C15	C	0.932845	0.041443	-0.000115
C16	C	1.063826	0.043539	-0.000080
C17	C	1.015917	0.260805	-0.000139
C18	C	0.884933	0.258710	-0.000164
C19	C	1.492735	-0.026961	-0.000099
C20	C	1.490514	-0.110993	-0.000099
C21	C	1.603894	-0.158893	-0.000104
C22	C	1.601799	-0.237850	-0.000117
C23	C	1.486324	-0.268905	-0.000114
C24	C	1.372935	-0.220998	-0.000113
C25	C	1.375031	-0.142043	-0.000111
C26	C	1.364481	-0.539415	-0.000124
C27	C	1.362394	-0.618376	-0.000122
C28	C	1.591249	-0.635222	-0.000130
C29	C	1.593345	-0.556266	-0.000128
C30	C	1.479957	-0.508367	-0.000135
C31	C	1.482229	-0.422753	-0.000124
C32	C	1.484050	-0.354517	-0.000114
C33	C	1.712757	0.107044	-0.000130
C34	C	1.852161	0.109269	-0.000149
C35	C	1.473554	0.249690	-0.000128
C36	C	1.475775	0.333722	-0.000138
N37	N	1.483150	0.111369	0.346553
N38	N	1.483149	0.111355	-0.346777
C39	C	1.568702	0.060381	0.423205
C40	C	1.568699	0.060372	0.576542
C41	C	1.397587	0.162345	0.576561
C42	C	1.397585	0.162349	0.423226
C43	C	1.667496	0.001510	0.423195
C44	C	1.667493	0.001501	0.576532
H45	H	0.838840	0.282744	0.105002
N46	N	1.062569	0.294357	-0.139437
H47	H	1.157204	0.294674	-0.134324
H48	H	1.040215	0.262744	-0.225800
H49	H	0.842677	0.288672	-0.102121
H50	H	1.687377	-0.530986	-0.000123
N51	N	1.305309	0.217334	0.659255
H52	H	1.216216	0.208115	0.632572
H53	H	1.318396	0.209567	0.767998
N54	N	1.242188	-0.487760	-0.000128
H55	H	1.237949	-0.454623	0.090168
H56	H	1.238034	-0.454678	-0.090496
N57	N	1.728444	-0.125401	-0.000093
H58	H	1.799951	-0.167729	-0.000100
H59	H	1.734302	-0.093005	-0.090396
N60	N	1.787846	0.025921	0.360164
H61	H	1.798660	0.079120	0.394294
H62	H	1.861989	-0.010082	0.394303
N63	N	1.640439	-0.075542	0.368063
H64	H	1.640435	-0.075570	0.257443
H65	H	1.707633	-0.115563	0.405006
H66	H	1.683575	-0.674231	-0.000132
H67	H	1.637942	-0.053472	0.624087
N68	N	1.237833	-0.651866	-0.000116
H69	H	1.188175	-0.634445	-0.090421
H70	H	1.253814	-0.709147	-0.000052
N71	N	1.795024	0.018677	0.631666
H72	H	1.851935	0.026353	0.545671
H73	H	1.784636	0.066363	0.693167
H74	H	1.129507	-0.011687	-0.000035
H75	H	0.891873	-0.015484	-0.000131
H76	H	1.044703	0.291908	0.101809
H77	H	1.694125	-0.276847	-0.000118
N78	N	1.248383	-0.254489	-0.000120
H79	H	1.264257	-0.311775	-0.000117
H80	H	1.198778	-0.237009	0.090187
H81	H	1.282705	-0.103043	-0.000107
H82	H	1.327912	0.203861	0.360818
