data_functionalizedCrystal
_audit_creation_method	'MofGen! by Chris Wilmer'
_symmetry_space_group_name_H-M	'P1'
_symmetry_Int_Tables_number	1
_symmetry_cell_setting	triclinic
loop_
_symmetry_equiv_pos_as_xyz
  x,y,z
_cell_length_a	13.897449
_cell_length_b	16.120297
_cell_length_c	13.897448
_cell_angle_alpha	87.126532
_cell_angle_beta	89.981481
_cell_angle_gamma	92.876717
loop_
_atom_site_label
_atom_site_type_symbol
_atom_site_fract_x
_atom_site_fract_y
_atom_site_fract_z
Zn1	Zn	1.447027	-0.471424	0.411676
Zn2	Zn	1.697027	-0.221424	0.661676
Zn3	Zn	1.947027	0.028576	0.911676
Zn4	Zn	2.197027	0.278576	1.161676
Zn5	Zn	1.455105	-0.332016	0.564802
Zn6	Zn	1.705105	-0.082016	0.814802
Zn7	Zn	1.955105	0.167984	1.064802
Zn8	Zn	2.205105	0.417984	1.314802
Zn9	Zn	1.293900	-0.332025	0.403526
Zn10	Zn	1.543900	-0.082025	0.653526
Zn11	Zn	1.793900	0.167975	0.903526
Zn12	Zn	2.043900	0.417975	1.153526
Zn13	Zn	1.285701	-0.471378	0.572930
Zn14	Zn	1.535701	-0.221378	0.822930
Zn15	Zn	1.785701	0.028622	1.072930
Zn16	Zn	2.035701	0.278622	1.322930
O17	O	1.370433	-0.401711	0.488233
O18	O	1.620433	-0.151711	0.738233
O19	O	1.870433	0.098289	0.988233
O20	O	2.120433	0.348289	1.238233
O21	O	1.583080	-0.452948	0.431998
O22	O	1.833080	-0.202948	0.681998
O23	O	2.083080	0.047052	0.931998
O24	O	2.333080	0.297052	1.181998
O25	O	1.440533	-0.215355	0.536596
O26	O	1.690533	0.034645	0.786596
O27	O	1.940533	0.284645	1.036596
O28	O	2.190533	0.534645	1.286596
O29	O	1.314263	-0.350539	0.269627
O30	O	1.564263	-0.100539	0.519627
O31	O	1.814263	0.149461	0.769627
O32	O	2.064263	0.399461	1.019627
O33	O	1.589014	-0.350525	0.544499
O34	O	1.839014	-0.100525	0.794499
O35	O	2.089014	0.149475	1.044499
O36	O	2.339014	0.399475	1.294499
O37	O	1.426765	-0.452956	0.275614
O38	O	1.676765	-0.202956	0.525614
O39	O	1.926765	0.047044	0.775614
O40	O	2.176765	0.297044	1.025614
O41	O	1.322096	-0.215361	0.418107
O42	O	1.572096	0.034639	0.668107
O43	O	1.822096	0.284639	0.918107
O44	O	2.072096	0.534639	1.168107
O45	O	1.157832	-0.350494	0.425988
O46	O	1.407832	-0.100494	0.675988
O47	O	1.657832	0.149506	0.925988
O48	O	1.907832	0.399506	1.175988
O49	O	1.300289	-0.588047	0.558352
O50	O	1.550289	-0.338047	0.808352
O51	O	1.800289	-0.088047	1.058352
O52	O	2.050289	0.161953	1.308352
O53	O	1.151808	-0.452877	0.550449
O54	O	1.401808	-0.202877	0.800449
O55	O	1.651808	0.047123	1.050449
O56	O	1.901808	0.297123	1.300449
O57	O	1.418815	-0.588081	0.439879
O58	O	1.668815	-0.338081	0.689879
O59	O	1.918815	-0.088081	0.939879
O60	O	2.168815	0.161919	1.189879
O61	O	1.432583	-0.350480	0.700861
O62	O	1.682583	-0.100480	0.950861
O63	O	1.932583	0.149520	1.200861
O64	O	2.182583	0.399520	1.450861
O65	O	1.308122	-0.452869	0.706832
O66	O	1.558122	-0.202869	0.956832
O67	O	1.808122	0.047131	1.206832
O68	O	2.058122	0.297131	1.456832
C69	C	1.119821	-0.401682	0.488217
C70	C	1.369821	-0.151682	0.738217
C71	C	1.619821	0.098318	0.988217
C72	C	1.869821	0.348318	1.238217
C73	C	1.012606	-0.401689	0.488234
C74	C	1.262606	-0.151689	0.738234
C75	C	1.512606	0.098311	0.988234
C76	C	1.762606	0.348311	1.238234
C77	C	0.925536	-0.401703	0.488238
C78	C	1.175536	-0.151703	0.738238
C79	C	1.425536	0.098297	0.988238
C80	C	1.675536	0.348297	1.238238
C81	C	0.816302	-0.401728	0.488247
C82	C	1.066302	-0.151728	0.738247
C83	C	1.316302	0.098272	0.988247
C84	C	1.566302	0.348272	1.238247
C85	C	1.357736	-0.619159	0.500931
C86	C	1.607736	-0.369159	0.750931
C87	C	1.857736	-0.119159	1.000931
C88	C	2.107736	0.130841	1.250931
C89	C	1.352326	-0.711823	0.506342
C90	C	1.602326	-0.461823	0.756342
C91	C	1.852326	-0.211823	1.006342
C92	C	2.102326	0.038177	1.256342
C93	C	1.342412	-0.881480	0.516200
C94	C	1.592412	-0.631480	0.766200
C95	C	1.842412	-0.381480	1.016200
C96	C	2.092412	-0.131480	1.266200
C97	C	1.398645	-0.922793	0.459978
C98	C	1.648645	-0.672793	0.709978
C99	C	1.898645	-0.422793	0.959978
C100	C	2.148645	-0.172793	1.209978
C101	C	1.393129	-1.017197	0.465463
C102	C	1.643129	-0.767197	0.715463
C103	C	1.893129	-0.517197	0.965463
C104	C	2.143129	-0.267197	1.215463
C105	C	1.347927	-0.787069	0.510716
C106	C	1.597927	-0.537069	0.760716
C107	C	1.847927	-0.287069	1.010716
C108	C	2.097927	-0.037069	1.260716
C109	C	1.622025	-0.401741	0.488251
C110	C	1.872025	-0.151741	0.738251
C111	C	2.122025	0.098259	0.988251
C112	C	2.372025	0.348259	1.238251
C113	C	1.729238	-0.401753	0.488258
C114	C	1.979238	-0.151753	0.738258
C115	C	2.229238	0.098247	0.988258
C116	C	2.479238	0.348247	1.238258
C117	C	1.370364	-0.401687	0.738846
C118	C	1.620364	-0.151687	0.988846
C119	C	1.870364	0.098313	1.238846
C120	C	2.120364	0.348313	1.488846
C121	C	1.370422	-0.401704	0.846061
C122	C	1.620422	-0.151704	1.096061
C123	C	1.870422	0.098296	1.346061
C124	C	2.120422	0.348296	1.596061
C125	C	1.383137	-0.185108	0.475516
C126	C	1.633137	0.064892	0.725516
C127	C	1.883137	0.314892	0.975516
C128	C	2.133137	0.564892	1.225516
C129	C	1.388734	-0.092445	0.469833
C130	C	1.638734	0.157555	0.719833
C131	C	1.888734	0.407555	0.969833
C132	C	2.138734	0.657555	1.219833
C133	C	1.370528	-0.401753	0.236643
C134	C	1.620528	-0.151753	0.486643
C135	C	1.870528	0.098247	0.736643
C136	C	2.120528	0.348247	0.986643
C137	C	1.370568	-0.401771	0.129430
C138	C	1.620568	-0.151771	0.379430
C139	C	1.870568	0.098229	0.629430
C140	C	2.120568	0.348229	0.879430
C141	C	1.370520	-0.401757	1.042359
C142	C	1.620520	-0.151757	1.292359
C143	C	1.870520	0.098243	1.542359
C144	C	2.120520	0.348243	1.792359
C145	C	1.370462	-0.401730	0.933125
C146	C	1.620462	-0.151730	1.183125
C147	C	1.870462	0.098270	1.433125
C148	C	2.120462	0.348270	1.683125
H149	H	1.450930	-0.887264	0.407726
H150	H	1.700930	-0.637264	0.657726
H151	H	1.950930	-0.387264	0.907726
H152	H	2.200930	-0.137264	1.157726
H153	H	1.290131	-0.917008	0.568448
H154	H	1.540131	-0.667008	0.818448
H155	H	1.790131	-0.417008	1.068448
H156	H	2.040131	-0.167008	1.318448
