data_functionalizedCrystal
_audit_creation_method	'MofGen! by Chris Wilmer'
_symmetry_space_group_name_H-M	'P1'
_symmetry_Int_Tables_number	1
_symmetry_cell_setting	triclinic
loop_
_symmetry_equiv_pos_as_xyz
  x,y,z
_cell_length_a	13.339070
_cell_length_b	10.268362
_cell_length_c	13.339070
_cell_angle_alpha	90.002467
_cell_angle_beta	115.629294
_cell_angle_gamma	90.004641
loop_
_atom_site_label
_atom_site_type_symbol
_atom_site_fract_x
_atom_site_fract_y
_atom_site_fract_z
O1	O	1.496807	0.108334	0.550527
O2	O	1.996807	0.608334	1.050527
O3	O	1.181998	0.108328	0.478267
O4	O	1.681998	0.608328	0.978267
O5	O	1.303273	0.108327	0.356993
O6	O	1.803273	0.608327	0.856993
O7	O	1.375533	0.108336	0.671802
O8	O	1.875533	0.608336	1.171802
O9	O	1.303256	-0.108274	0.356982
O10	O	1.803256	0.391726	0.856982
O11	O	1.181981	-0.108272	0.478256
O12	O	1.681981	0.391728	0.978256
O13	O	1.496791	-0.108266	0.550516
O14	O	1.996791	0.391734	1.050516
Cu15	Cu	1.339385	-0.128047	0.514385
Cu16	Cu	1.839385	0.371953	1.014385
Cu17	Cu	1.339404	0.128109	0.514398
Cu18	Cu	1.839404	0.628109	1.014398
O19	O	1.375516	-0.108265	0.671791
O20	O	1.875516	0.391735	1.171791
C21	C	1.140874	0.000027	0.466056
C22	C	1.640874	0.500027	0.966056
C23	C	1.018360	0.000025	0.429672
C24	C	1.518360	0.500025	0.929672
C25	C	0.732973	0.000054	0.712571
C26	C	1.232973	0.500054	1.212571
C27	C	0.848081	0.000060	0.746759
C28	C	1.348081	0.500060	1.246759
C29	C	0.890657	0.000051	0.667490
C30	C	1.390657	0.500051	1.167490
C31	C	0.818112	0.000036	0.554028
C32	C	1.318112	0.500036	1.054028
C33	C	0.702992	0.000040	0.519837
C34	C	1.202992	0.500040	1.019837
C35	C	0.860676	0.000037	0.474756
C36	C	1.360676	0.500037	0.974756
C37	C	0.788132	0.000023	0.361294
C38	C	1.288132	0.500023	0.861294
C39	C	0.673023	0.000026	0.327109
C40	C	1.173023	0.500026	0.827109
C41	C	0.630448	0.000035	0.406377
C42	C	1.130448	0.500035	0.906377
C43	C	0.975796	0.000033	0.508947
C44	C	1.475796	0.500033	1.008947
C45	C	0.945816	0.000020	0.316213
C46	C	1.445816	0.500020	0.816213
C47	C	0.830707	0.000013	0.282025
C48	C	1.330707	0.500013	0.782025
N49	N	1.339379	-0.308213	0.514378
N50	N	1.839379	0.191787	1.014378
C51	C	1.339398	-0.573883	0.514395
C52	C	1.839398	-0.073883	1.014395
C53	C	1.339385	-0.426045	0.514387
C54	C	1.839385	0.073955	1.014387
C55	C	1.537914	0.000038	0.562728
C56	C	2.037914	0.500038	1.062728
C57	C	1.660428	0.000049	0.599111
C58	C	2.160428	0.500049	1.099111
C59	C	1.291058	0.000028	0.315872
C60	C	1.791058	0.500028	0.815872
C61	C	1.254675	0.000033	0.193358
C62	C	1.754675	0.500033	0.693358
N63	N	1.339416	0.308275	0.514400
N64	N	1.839416	0.808275	1.014400
C65	C	1.537574	0.000037	-0.092030
C66	C	2.037574	0.500037	0.407970
C67	C	1.571761	0.000026	0.023079
C68	C	2.071761	0.500026	0.523079
C69	C	1.492492	0.000028	0.065654
C70	C	1.992492	0.500028	0.565654
C71	C	1.379030	0.000041	-0.006890
C72	C	1.879030	0.500041	0.493110
C73	C	1.344839	0.000042	-0.122010
C74	C	1.844839	0.500042	0.377990
C75	C	1.299758	0.000033	0.035674
C76	C	1.799758	0.500033	0.535674
C77	C	1.186296	0.000046	-0.036871
C78	C	1.686296	0.500046	0.463129
C79	C	1.152111	0.000048	-0.151979
C80	C	1.652111	0.500048	0.348021
C81	C	1.231380	0.000046	-0.194555
C82	C	1.731380	0.500046	0.305445
C83	C	1.333949	0.000031	0.150794
C84	C	1.833949	0.500031	0.650794
C85	C	1.141215	0.000036	0.120813
C86	C	1.641215	0.500036	0.620813
C87	C	1.107028	0.000048	0.005705
C88	C	1.607028	0.500048	0.505705
C89	C	1.387730	0.000037	0.712912
C90	C	1.887730	0.500037	1.212912
C91	C	1.424114	0.000041	0.835426
C92	C	1.924114	0.500041	1.335426
H93	H	0.907140	0.000082	0.839139
H94	H	1.407140	0.500082	1.339139
H95	H	1.034852	0.000040	0.601328
H96	H	1.534852	0.500040	1.101328
H97	H	0.698296	0.000072	0.777099
H98	H	1.198296	0.500072	1.277099
H99	H	0.984385	0.000059	0.695333
H100	H	1.484385	0.500059	1.195333
H101	H	1.426331	0.000020	0.209849
H102	H	1.926331	0.500020	0.709849
H103	H	0.536718	0.000029	0.378547
H104	H	1.036718	0.500029	0.878547
H105	H	0.613959	0.000028	0.234721
H106	H	1.113959	0.500028	0.734721
H107	H	0.771625	0.000012	0.189642
H108	H	1.271625	0.500012	0.689642
H109	H	0.980479	0.000018	0.251665
H110	H	1.480479	0.500018	0.751665
H111	H	1.076667	0.000031	0.155477
H112	H	1.576667	0.500031	0.655477
H113	H	1.520335	0.000018	0.159382
H114	H	2.020335	0.500018	0.659382
H115	H	1.664142	0.000013	0.082137
H116	H	2.164142	0.500013	0.582137
H117	H	1.602102	0.000025	-0.126707
H118	H	2.102102	0.500025	0.373293
H119	H	1.203550	0.000060	-0.288284
H120	H	1.703550	0.500060	0.211716
H121	H	1.059723	0.000049	-0.211043
H122	H	1.559723	0.500049	0.288957
H123	H	1.014645	0.000058	-0.053377
H124	H	1.514645	0.500058	0.446623
