data_functionalizedCrystal
_audit_creation_method	'MofGen! by Chris Wilmer'
_symmetry_space_group_name_H-M	'P1'
_symmetry_Int_Tables_number	1
_symmetry_cell_setting	triclinic
loop_
_symmetry_equiv_pos_as_xyz
  x,y,z
_cell_length_a	16.625547
_cell_length_b	16.625546
_cell_length_c	13.897441
_cell_angle_alpha	90.033447
_cell_angle_beta	90.026124
_cell_angle_gamma	90.022405
loop_
_atom_site_label
_atom_site_type_symbol
_atom_site_fract_x
_atom_site_fract_y
_atom_site_fract_z
Zn1	Zn	1.232691	-0.320977	0.545501
Zn2	Zn	1.566024	0.012356	0.878834
Zn3	Zn	1.899358	0.345689	1.212167
Zn4	Zn	1.232591	-0.455828	0.384194
Zn5	Zn	1.565924	-0.122494	0.717528
Zn6	Zn	1.899258	0.210839	1.050861
Zn7	Zn	1.097850	-0.321012	0.384204
Zn8	Zn	1.431183	0.012321	0.717537
Zn9	Zn	1.764516	0.345654	1.050871
Zn10	Zn	1.097823	-0.455771	0.545432
Zn11	Zn	1.431156	-0.122438	0.878765
Zn12	Zn	1.764490	0.210895	1.212098
O13	O	1.165239	-0.388397	0.464833
O14	O	1.498572	-0.055064	0.798166
O15	O	1.831905	0.278270	1.131499
O16	O	1.345510	-0.338874	0.524128
O17	O	1.678843	-0.005541	0.857461
O18	O	2.012177	0.327793	1.190795
O19	O	1.214687	-0.437982	0.249214
O20	O	1.548020	-0.104649	0.582547
O21	O	1.881353	0.228684	0.915880
O22	O	1.115789	-0.208175	0.405633
O23	O	1.449123	0.125158	0.738967
O24	O	1.782456	0.458491	1.072300
O25	O	1.345437	-0.437948	0.405617
O26	O	1.678770	-0.104615	0.738950
O27	O	2.012103	0.228719	1.072283
O28	O	1.214857	-0.208149	0.524138
O29	O	1.548190	0.125184	0.857471
O30	O	1.881523	0.458517	1.190804
O31	O	1.115693	-0.338934	0.249221
O32	O	1.449026	-0.005601	0.582554
O33	O	1.782359	0.327732	0.915888
O34	O	0.985014	-0.338880	0.405566
O35	O	1.318347	-0.005546	0.738900
O36	O	1.651680	0.327787	1.072233
O37	O	1.115744	-0.437852	0.680423
O38	O	1.449078	-0.104519	1.013756
O39	O	1.782411	0.228814	1.347089
O40	O	0.984994	-0.437887	0.524020
O41	O	1.318328	-0.104553	0.857353
O42	O	1.651661	0.228780	1.190686
O43	O	1.214831	-0.338820	0.680473
O44	O	1.548164	-0.005486	1.013807
O45	O	1.881498	0.327847	1.347140
O46	O	1.214661	-0.568652	0.405550
O47	O	1.547994	-0.235319	0.738883
O48	O	1.881328	0.098014	1.072216
O49	O	1.115647	-0.568611	0.524010
O50	O	1.448981	-0.235278	0.857343
O51	O	1.782314	0.098055	1.190677
C52	C	0.955748	-0.388381	0.464787
C53	C	1.289081	-0.055048	0.798120
C54	C	1.622414	0.278285	1.131454
C55	C	0.866127	-0.388394	0.464790
C56	C	1.199460	-0.055061	0.798124
C57	C	1.532793	0.278272	1.131457
C58	C	1.165162	-0.597888	0.464792
C59	C	1.498496	-0.264555	0.798126
C60	C	1.831829	0.068779	1.131459
C61	C	1.165203	-0.687509	0.464807
C62	C	1.498537	-0.354176	0.798141
C63	C	1.831870	-0.020842	1.131474
C64	C	0.793344	-0.388396	0.464802
C65	C	1.126678	-0.055062	0.798136
C66	C	1.460011	0.278271	1.131469
C67	C	0.702036	-0.388400	0.464827
C68	C	1.035369	-0.055067	0.798160
C69	C	1.368702	0.278267	1.131493
C70	C	0.629259	-0.388407	0.464851
C71	C	0.962593	-0.055074	0.798184
C72	C	1.295926	0.278259	1.131518
C73	C	0.537945	-0.388413	0.464874
C74	C	0.871278	-0.055080	0.798208
C75	C	1.204612	0.278254	1.131541
C76	C	1.165344	-1.015685	0.464908
C77	C	1.498677	-0.682351	0.798241
C78	C	1.832011	-0.349018	1.131574
C79	C	1.165302	-0.924376	0.464882
C80	C	1.498636	-0.591043	0.798216
C81	C	1.831969	-0.257710	1.131549
C82	C	1.165273	-0.851600	0.464857
C83	C	1.498606	-0.518266	0.798190
C84	C	1.831940	-0.184933	1.131524
C85	C	1.165233	-0.760286	0.464833
C86	C	1.498566	-0.426952	0.798166
C87	C	1.831899	-0.093619	1.131499
C88	C	1.375548	-0.388413	0.464879
C89	C	1.708881	-0.055080	0.798212
C90	C	2.042214	0.278253	1.131546
C91	C	1.465169	-0.388420	0.464899
C92	C	1.798502	-0.055087	0.798232
C93	C	2.131835	0.278246	1.131565
C94	C	1.165296	-0.388326	0.716426
C95	C	1.498629	-0.054993	1.049759
C96	C	1.831963	0.278341	1.383092
C97	C	1.165320	-0.388296	0.823640
C98	C	1.498654	-0.054962	1.156973
C99	C	1.831987	0.278371	1.490306
C100	C	1.165337	-0.178088	0.464894
C101	C	1.498671	0.155245	0.798228
C102	C	1.832004	0.488578	1.131561
C103	C	1.165379	-0.088467	0.464921
C104	C	1.498713	0.244866	0.798254
C105	C	1.832046	0.578200	1.131587
C106	C	1.165228	-0.388410	0.214218
C107	C	1.498561	-0.055077	0.547552
C108	C	1.831895	0.278257	0.880885
C109	C	1.165360	-0.388213	0.107005
C110	C	1.498693	-0.054880	0.440338
C111	C	1.832027	0.278453	0.773672
C112	C	1.165342	-0.388241	1.019935
C113	C	1.498675	-0.054908	1.353268
C114	C	1.832009	0.278426	1.686602
C115	C	1.165327	-0.388274	0.910702
C116	C	1.498661	-0.054940	1.244036
C117	C	1.831994	0.278393	1.577369
