data_functionalizedCrystal
_audit_creation_method	'MofGen! by Chris Wilmer'
_symmetry_space_group_name_H-M	'P1'
_symmetry_Int_Tables_number	1
_symmetry_cell_setting	triclinic
loop_
_symmetry_equiv_pos_as_xyz
  x,y,z
_cell_length_a	15.995350
_cell_length_b	15.995292
_cell_length_c	14.472310
_cell_angle_alpha	89.985801
_cell_angle_beta	90.001162
_cell_angle_gamma	83.480495
loop_
_atom_site_label
_atom_site_type_symbol
_atom_site_fract_x
_atom_site_fract_y
_atom_site_fract_z
O1	O	0.107689	1.111027	-0.076861
O2	O	0.607689	1.611027	0.423139
O3	O	0.121067	0.867245	-0.076857
O4	O	0.621067	1.367245	0.423143
O5	O	-0.007511	0.995800	-0.076858
O6	O	0.492489	1.495800	0.423142
O7	O	0.236267	0.982472	-0.076860
O8	O	0.736267	1.482472	0.423140
O9	O	-0.007503	0.995767	0.076824
O10	O	0.492497	1.495767	0.576824
O11	O	0.121075	0.867212	0.076825
O12	O	0.621075	1.367212	0.576825
O13	O	0.107696	1.110994	0.076821
O14	O	0.607696	1.610994	0.576821
Cu15	Cu	0.114386	0.989100	0.090855
Cu16	Cu	0.614386	1.489100	0.590855
Cu17	Cu	0.114378	0.989139	-0.090892
Cu18	Cu	0.614378	1.489139	0.409108
O19	O	0.236275	0.982439	0.076822
O20	O	0.736275	1.482439	0.576822
C21	C	0.120527	0.836033	-0.000016
C22	C	0.620527	1.336033	0.499984
C23	C	0.118894	0.743080	-0.000014
C24	C	0.618894	1.243080	0.499986
C25	C	-0.038702	0.995232	-0.000019
C26	C	0.461298	1.495232	0.499981
C27	C	-0.131652	0.993580	-0.000024
C28	C	0.368348	1.493580	0.499976
C29	C	0.112893	0.405341	-0.000025
C30	C	0.612893	0.905341	0.499975
C31	C	0.205697	0.428654	-0.000368
C32	C	0.705697	0.928654	0.499632
C33	C	0.207461	0.525329	-0.000018
C34	C	0.707461	1.025329	0.499982
C35	C	0.115871	0.572897	-0.000020
C36	C	0.615871	1.072897	0.499980
C37	C	0.069477	0.543777	0.087737
C38	C	0.569477	1.043777	0.587737
C39	C	0.068360	0.446986	0.087807
C40	C	0.568360	0.946986	0.587807
C41	C	0.066457	0.447168	-0.086958
C42	C	0.566457	0.947168	0.413042
C43	C	0.069896	0.543661	-0.088114
C44	C	0.569896	1.043661	0.411886
C45	C	0.117549	0.667593	-0.000014
C46	C	0.617549	1.167593	0.499986
C47	C	0.111212	0.310646	-0.000024
C48	C	0.611212	0.810646	0.499976
C49	C	-0.469398	0.987648	-0.000021
C50	C	0.030602	1.487648	0.499979
C51	C	-0.421945	0.896094	-0.000364
C52	C	0.078055	1.396094	0.499636
C53	C	-0.325255	0.897746	-0.000018
C54	C	0.174745	1.397746	0.499982
C55	C	-0.301838	0.990591	-0.000023
C56	C	0.198162	1.490591	0.499977
C57	C	-0.342921	1.035730	0.087734
C58	C	0.157079	1.535730	0.587734
C59	C	-0.439556	1.033430	0.087808
C60	C	0.060444	1.533430	0.587808
C61	C	-0.439923	1.035359	-0.086958
C62	C	0.060077	1.535359	0.413042
C63	C	-0.342978	1.035337	-0.088117
C64	C	0.157022	1.535337	0.411883
C65	C	-0.207141	0.992259	-0.000021
C66	C	0.292859	1.492259	0.499979
C67	C	-0.564095	0.985983	-0.000017
C68	C	-0.064095	1.485983	0.499983
C69	C	0.267466	0.983006	-0.000019
C70	C	0.767466	1.483006	0.499981
C71	C	0.360416	0.984658	-0.000020
C72	C	0.860416	1.484658	0.499980
C73	C	0.108237	1.142206	-0.000023
C74	C	0.608237	1.642206	0.499977
C75	C	0.109870	1.235159	-0.000030
C76	C	0.609870	1.735159	0.499970
N77	N	0.114392	0.989078	0.218686
N78	N	0.614392	1.489078	0.718686
N79	N	0.114365	0.989167	-0.218722
N80	N	0.614365	1.489167	0.281278
C81	C	0.114374	0.989138	0.592777
C82	C	0.614374	1.489138	1.092777
C83	C	0.182943	0.920120	0.553612
C84	C	0.682943	1.420120	1.053612
C85	C	0.183193	0.920279	0.446524
C86	C	0.683193	1.420279	0.946524
C87	C	0.114383	0.989108	0.407186
C88	C	0.614383	1.489108	0.907186
C89	C	0.133447	1.076475	0.446022
C90	C	0.633447	1.576475	0.946022
C91	C	0.133934	1.076087	0.553143
C92	C	0.633934	1.576087	1.053143
C93	C	0.026538	0.971568	0.553308
C94	C	0.526538	1.471568	1.053308
C95	C	0.027124	0.969564	0.446180
C96	C	0.527124	1.469564	0.946180
C97	C	0.114386	0.989096	0.302298
C98	C	0.614386	1.489096	0.802298
C99	C	0.114373	0.989155	0.697665
C100	C	0.614373	1.489155	1.197665
H101	H	0.243790	0.544369	-0.062928
H102	H	0.743790	1.044369	0.437072
H103	H	-0.457847	1.000486	0.153412
H104	H	0.042153	1.500486	0.653412
H105	H	-0.026291	1.016569	0.419406
H106	H	0.473709	1.516569	0.919406
H107	H	-0.471698	1.102861	-0.087551
H108	H	0.028302	1.602861	0.412449
Br109	Br	0.164325	0.812023	0.402759
Br110	Br	0.664325	1.312023	0.902759
Br111	Br	-0.278786	0.838156	0.105011
Br112	Br	0.221214	1.338156	0.605011
H113	H	0.171775	0.854968	0.579401
H114	H	0.671775	1.354968	1.079401
H115	H	0.003044	0.576632	-0.093416
H116	H	0.503044	1.076632	0.406584
Br117	Br	-0.454983	0.835174	0.103626
Br118	Br	0.045017	1.335174	0.603626
Br119	Br	0.052419	1.164125	0.403556
Br120	Br	0.552419	1.664125	0.903556
Br121	Br	0.240700	1.101893	0.594775
Br122	Br	0.740700	1.601893	1.094775
H123	H	-0.314530	1.004351	0.153044
H124	H	0.185470	1.504351	0.653044
Br125	Br	0.291846	0.938940	0.403789
Br126	Br	0.791846	1.438940	0.903789
H127	H	0.008203	0.909244	0.580376
H128	H	0.508203	1.409244	1.080376
Br129	Br	0.238995	1.102903	0.401292
Br130	Br	0.738995	1.602903	0.901292
H131	H	0.101701	0.563822	0.153047
H132	H	0.601701	1.063822	0.653047
H133	H	0.247758	0.931185	0.580521
H134	H	0.747758	1.431185	1.080521
Br135	Br	0.265000	0.380263	0.103932
Br136	Br	0.765000	0.880263	0.603932
H137	H	0.012657	0.905296	0.420799
H138	H	0.512657	1.405296	0.920799
Br139	Br	-0.047400	0.423854	-0.087947
Br140	Br	0.452600	0.923854	0.412053
Br141	Br	-0.042863	0.596877	0.093172
Br142	Br	0.457137	1.096877	0.593172
H143	H	-0.315725	1.002335	-0.153038
H144	H	0.184275	1.502335	0.346962
H145	H	0.103675	0.562245	-0.153037
H146	H	0.603675	1.062245	0.346963
H147	H	0.241465	0.400671	-0.063303
H148	H	0.741465	0.900671	0.436697
Br149	Br	0.268391	0.555989	0.105015
Br150	Br	0.768391	1.055989	0.605015
Br151	Br	-0.452820	0.835119	-0.105259
Br152	Br	0.047180	1.335119	0.394741
Br153	Br	-0.493333	1.145458	0.094450
Br154	Br	0.006667	1.645458	0.594450
Br155	Br	-0.319406	1.149419	0.093173
Br156	Br	0.180594	1.649419	0.593173
H157	H	-0.296829	0.862262	-0.062926
H158	H	0.203171	1.362262	0.437074
Br159	Br	0.053767	1.164172	0.596327
Br160	Br	0.553767	1.664172	1.096327
Br161	Br	0.121925	0.402260	0.197145
Br162	Br	0.621925	0.902260	0.697145
H163	H	-0.460460	1.005439	-0.153473
H164	H	0.039540	1.505439	0.346527
Br165	Br	-0.045045	0.422727	0.094507
Br166	Br	0.454955	0.922727	0.594507
H167	H	-0.327630	1.103045	-0.093420
H168	H	0.172370	1.603045	0.406580
H169	H	-0.024488	1.021900	0.578633
H170	H	0.475512	1.521900	1.078633
Br171	Br	0.114805	0.399988	-0.197823
Br172	Br	0.614805	0.899988	0.302177
