data_functionalizedCrystal
_audit_creation_method	'MofGen! by Chris Wilmer'
_symmetry_space_group_name_H-M	'P1'
_symmetry_Int_Tables_number	1
_symmetry_cell_setting	triclinic
loop_
_symmetry_equiv_pos_as_xyz
  x,y,z
_cell_length_a	14.044220
_cell_length_b	14.044191
_cell_length_c	13.101039
_cell_angle_alpha	86.337551
_cell_angle_beta	93.667477
_cell_angle_gamma	93.190327
loop_
_atom_site_label
_atom_site_type_symbol
_atom_site_fract_x
_atom_site_fract_y
_atom_site_fract_z
O1	O	0.225377	1.281976	-0.085169
O2	O	0.725377	1.781976	0.414831
O3	O	0.217064	1.005305	-0.085182
O4	O	0.717064	1.505305	0.414818
O5	O	0.082885	1.139487	-0.085166
O6	O	0.582885	1.639487	0.414834
O7	O	0.359556	1.147794	-0.085186
O8	O	0.859556	1.647794	0.414814
O9	O	0.092530	1.129861	0.085263
O10	O	0.592530	1.629861	0.585263
O11	O	0.226708	0.995679	0.085247
O12	O	0.726708	1.495679	0.585247
O13	O	0.235022	1.272350	0.085259
O14	O	0.735022	1.772350	0.585259
Zn15	Zn	0.232396	1.132486	0.112312
Zn16	Zn	0.732396	1.632486	0.612312
Zn17	Zn	0.219689	1.145169	-0.112235
Zn18	Zn	0.719689	1.645169	0.387765
O19	O	0.369200	1.138168	0.085243
O20	O	0.869200	1.638168	0.585243
C21	C	0.218250	0.964870	0.000031
C22	C	0.718250	1.464870	0.500031
C23	C	0.207402	0.858727	0.000026
C24	C	0.707402	1.358727	0.500026
C25	C	0.264503	0.613268	0.000032
C26	C	0.764503	1.113268	0.500032
C27	C	0.187587	0.664393	0.000036
C28	C	0.687587	1.164393	0.500036
C29	C	0.198615	0.772531	0.000031
C30	C	0.698615	1.272531	0.500031
C31	C	0.253476	0.505121	0.000038
C32	C	0.753476	1.005121	0.500038
C33	C	0.052086	1.131038	0.000049
C34	C	0.552086	1.631038	0.500049
C35	C	-0.054057	1.120194	0.000050
C36	C	0.445943	1.620194	0.500050
C37	C	-0.248396	1.100368	0.000034
C38	C	0.251604	1.600368	0.500034
C39	C	-0.299524	1.177283	0.000034
C40	C	0.200476	1.677283	0.500034
C41	C	-0.407661	1.166252	0.000026
C42	C	0.092339	1.666252	0.500026
C43	C	-0.140250	1.111398	0.000043
C44	C	0.359750	1.611398	0.500043
C45	C	0.400000	1.146617	0.000026
C46	C	0.900000	1.646617	0.500026
C47	C	0.506143	1.157462	0.000019
C48	C	1.006143	1.657462	0.500019
C49	C	0.233836	1.312785	0.000044
C50	C	0.733836	1.812785	0.500044
C51	C	0.244683	1.418929	0.000042
C52	C	0.744683	1.918929	0.500042
N53	N	0.241069	1.123838	0.265560
N54	N	0.741069	1.623838	0.765560
N55	N	0.211010	1.153824	-0.265482
N56	N	0.711010	1.653824	0.234518
C57	C	0.252876	1.112072	0.474601
C58	C	0.752876	1.612072	0.974601
C59	C	0.199205	1.165588	0.525483
C60	C	0.699205	1.665588	1.025483
C61	C	0.205775	1.159041	0.641801
C62	C	0.705775	1.659041	1.141801
C63	C	0.246308	1.118617	0.358273
C64	C	0.746308	1.618617	0.858273
H65	H	0.113451	0.626954	-0.000031
H66	H	0.613451	1.126954	0.499969
H67	H	-0.285836	1.026241	0.000028
H68	H	0.214164	1.526241	0.500028
H69	H	0.338629	0.650710	0.000024
H70	H	0.838629	1.150710	0.500024
O71	O	0.138395	1.225909	0.473085
O72	O	0.638395	1.725909	0.973085
C73	C	0.145133	1.218948	0.366930
C74	C	0.645133	1.718948	0.866930
H75	H	0.217342	1.190864	0.352332
H76	H	0.717342	1.690864	0.852332
H77	H	0.137952	1.292515	0.325957
H78	H	0.637952	1.792515	0.825957
H79	H	0.085553	1.167839	0.336659
H80	H	0.585553	1.667839	0.836659
O81	O	0.313564	1.051636	0.526998
O82	O	0.813564	1.551636	1.026998
C83	C	0.306685	1.058467	0.633151
C84	C	0.806685	1.558467	1.133151
H85	H	0.278135	1.130490	0.647666
H86	H	0.778135	1.630490	1.147666
H87	H	0.380367	1.051827	0.674015
H88	H	0.880367	1.551827	1.174015
H89	H	0.255992	0.998608	0.663612
H90	H	0.755992	1.498608	1.163612
O91	O	-0.254766	1.265684	-0.000086
O92	O	0.245234	1.765684	0.499914
C93	C	-0.202306	1.281643	-0.088357
C94	C	0.297694	1.781643	0.411643
H95	H	-0.185647	1.210123	-0.117796
H96	H	0.314353	1.710123	0.382204
H97	H	-0.132695	1.323984	-0.068491
H98	H	0.367305	1.823984	0.431509
H99	H	-0.246151	1.323726	-0.150162
H100	H	0.253849	1.823726	0.349838
