data_functionalizedCrystal
_audit_creation_method	'MofGen! by Chris Wilmer'
_symmetry_space_group_name_H-M	'P1'
_symmetry_Int_Tables_number	1
_symmetry_cell_setting	triclinic
loop_
_symmetry_equiv_pos_as_xyz
  x,y,z
_cell_length_a	19.188930
_cell_length_b	19.188905
_cell_length_c	18.266242
_cell_angle_alpha	89.983837
_cell_angle_beta	89.988525
_cell_angle_gamma	83.139668
loop_
_atom_site_label
_atom_site_type_symbol
_atom_site_fract_x
_atom_site_fract_y
_atom_site_fract_z
O1	O	0.087085	0.926160	-0.061010
O2	O	0.587085	1.426160	0.438990
O3	O	0.098838	0.722847	-0.060986
O4	O	0.598838	1.222847	0.439014
O5	O	-0.008694	0.830371	-0.060984
O6	O	0.491306	1.330371	0.439016
O7	O	0.194618	0.818636	-0.061011
O8	O	0.694618	1.318636	0.438989
O9	O	-0.008700	0.830353	0.060778
O10	O	0.491300	1.330353	0.560778
O11	O	0.098833	0.722828	0.060776
O12	O	0.598833	1.222828	0.560776
O13	O	0.087080	0.926142	0.060752
O14	O	0.587080	1.426142	0.560752
Zn15	Zn	0.092955	0.824482	0.080097
Zn16	Zn	0.592955	1.324482	0.580097
Zn17	Zn	0.092963	0.824506	-0.080330
Zn18	Zn	0.592963	1.324506	0.419670
O19	O	0.194612	0.818618	0.060751
O20	O	0.694612	1.318618	0.560751
C21	C	0.098458	0.696826	-0.000102
C22	C	0.598458	1.196826	0.499898
C23	C	0.097324	0.619321	-0.000092
C24	C	0.597324	1.119321	0.499908
C25	C	0.096782	0.582939	-0.066466
C26	C	0.596782	1.082939	0.433534
C27	C	0.095709	0.510115	-0.066475
C28	C	0.595709	1.010115	0.433525
C29	C	0.095164	0.473678	-0.000106
C30	C	0.595164	0.973678	0.499894
C31	C	0.095709	0.510068	0.066277
C32	C	0.595709	1.010068	0.566277
C33	C	0.096789	0.582890	0.066284
C34	C	0.596789	1.082890	0.566284
N35	N	0.053733	0.364651	0.049292
N36	N	0.553733	0.864651	0.549292
N37	N	0.052705	0.295474	0.049280
N38	N	0.552705	0.795474	0.549280
C39	C	0.091911	0.254272	-0.000123
C40	C	0.591911	0.754272	0.499877
N41	N	0.132174	0.284861	-0.049526
N42	N	0.632174	0.784861	0.450474
N43	N	0.133199	0.354045	-0.049517
N44	N	0.633199	0.854045	0.450483
C45	C	0.093993	0.394716	-0.000106
C46	C	0.593993	0.894716	0.499894
C47	C	0.090207	0.138926	-0.066512
C48	C	0.590207	0.638926	0.433488
C49	C	0.089138	0.066100	-0.066518
C50	C	0.589138	0.566100	0.433482
C51	C	0.089132	0.066056	0.066236
C52	C	0.589132	0.566056	0.566236
C53	C	0.090207	0.138879	0.066240
C54	C	0.590207	0.638879	0.566240
C55	C	0.090742	0.175310	-0.000136
C56	C	0.590742	0.675310	0.499864
C57	C	-0.034708	0.829982	-0.000101
C58	C	0.465292	1.329982	0.499899
C59	C	-0.112213	0.828841	-0.000095
C60	C	0.387787	1.328841	0.499905
C61	C	-0.157142	0.891933	-0.000099
C62	C	0.342858	1.391933	0.499901
C63	C	-0.229966	0.890861	-0.000110
C64	C	0.270034	1.390861	0.499890
C65	C	-0.257857	0.826694	-0.000103
C66	C	0.242143	1.326694	0.499897
C67	C	-0.212917	0.763594	-0.000103
C68	C	0.287083	1.263594	0.499897
C69	C	-0.140095	0.764668	-0.000099
C70	C	0.359905	1.264668	0.499901
N71	N	-0.365859	0.777640	0.041341
N72	N	0.134141	1.277640	0.541341
N73	N	-0.435038	0.776624	0.041338
N74	N	0.064962	1.276624	0.541338
C75	C	-0.477265	0.823456	-0.000118
C76	C	0.022735	1.323456	0.499882
N77	N	-0.447702	0.871352	-0.041561
N78	N	0.052298	1.371352	0.458439
N79	N	-0.378517	0.872369	-0.041556
N80	N	0.121483	1.372369	0.458444
C81	C	-0.336819	0.825523	-0.000108
C82	C	0.163181	1.325523	0.499892
C83	C	-0.601159	0.885390	-0.000135
C84	C	-0.101159	1.385390	0.499865
C85	C	-0.673984	0.884315	-0.000151
C86	C	-0.173984	1.384315	0.499849
C87	C	-0.656933	0.757047	-0.000137
C88	C	-0.156933	1.257047	0.499863
C89	C	-0.584110	0.758123	-0.000128
C90	C	-0.084110	1.258123	0.499872
C91	C	-0.556228	0.822296	-0.000124
C92	C	-0.056228	1.322296	0.499876
C93	C	0.220626	0.819007	-0.000134
C94	C	0.720626	1.319007	0.499866
C95	C	0.298131	0.820148	-0.000145
C96	C	0.798131	1.320148	0.499855
C97	C	0.087460	0.952163	-0.000134
C98	C	0.587460	1.452163	0.499866
C99	C	0.088594	1.029668	-0.000148
C100	C	0.588594	1.529668	0.499852
N101	N	0.092950	0.824471	0.189583
N102	N	0.592950	1.324471	0.689583
N103	N	0.092962	0.824523	-0.189817
N104	N	0.592962	1.324523	0.310183
C105	C	0.045358	0.872098	0.227893
C106	C	0.545358	1.372098	0.727893
C107	C	0.045355	0.872103	0.304538
C108	C	0.545355	1.372103	0.804538
C109	C	0.092956	0.824487	0.342870
C110	C	0.592956	1.324487	0.842870
C111	C	0.140551	0.776851	0.304552
C112	C	0.640551	1.276851	0.804552
C113	C	0.140549	0.776843	0.227908
C114	C	0.640549	1.276843	0.727908
N115	N	0.154764	0.815411	0.463195
N116	N	0.654764	1.315411	0.963195
N117	N	0.154764	0.815423	0.536003
N118	N	0.654764	1.315423	1.036003
C119	C	0.092966	0.824506	0.573793
C120	C	0.592966	1.324506	1.073793
N121	N	0.031165	0.833592	0.536024
N122	N	0.531165	1.333592	1.036024
N123	N	0.031165	0.833584	0.463209
N124	N	0.531165	1.333584	0.963209
C125	C	0.092963	0.824490	0.425977
C126	C	0.592963	1.324490	0.925977
C127	C	0.045366	0.872141	0.695210
C128	C	0.545366	1.372141	1.195210
C129	C	0.045362	0.872141	0.771856
C130	C	0.545362	1.372141	1.271856
C131	C	0.140565	0.776892	0.771868
C132	C	0.640565	1.276892	1.271868
C133	C	0.140563	0.776889	0.695223
C134	C	0.640563	1.276889	1.195223
C135	C	0.092964	0.824517	0.656898
C136	C	0.592964	1.324517	1.156898
H137	H	0.090644	0.168502	0.120290
H138	H	0.590644	0.668502	0.620290
O139	O	0.088582	0.026711	0.137792
O140	O	0.588582	0.526711	0.637792
H141	H	0.041226	0.047007	0.169675
H142	H	0.541226	0.547007	0.669675
O143	O	-0.005968	0.923522	0.813174
O144	O	0.494032	1.423522	1.313174
H145	H	-0.060378	0.914810	0.798475
H146	H	0.439622	1.414810	1.298475
H147	H	0.095267	0.480396	0.120315
H148	H	0.595267	0.980396	0.620315
H149	H	-0.547527	0.706747	-0.000121
H150	H	-0.047527	1.206747	0.499879
H151	H	0.097231	0.612511	0.120336
H152	H	0.597231	1.112511	0.620336
O153	O	-0.127066	0.961145	-0.000114
O154	O	0.372934	1.461145	0.499886
H155	H	-0.170548	1.004837	-0.000130
H156	H	0.329452	1.504837	0.499870
O157	O	-0.278440	0.958911	-0.000104
O158	O	0.221560	1.458911	0.499896
H159	H	-0.246817	1.003714	-0.000095
H160	H	0.253183	1.503714	0.499905
H161	H	-0.235631	0.711349	-0.000099
H162	H	0.264369	1.211349	0.499901
H163	H	0.097218	0.612597	-0.120515
H164	H	0.597218	1.112597	0.379485
H165	H	-0.710565	0.935694	-0.000158
H166	H	-0.210565	1.435694	0.499842
H167	H	-0.679641	0.704801	-0.000135
H168	H	-0.179641	1.204801	0.499865
O169	O	-0.005987	0.923457	0.186555
O170	O	0.494013	1.423457	0.686555
H171	H	-0.039087	0.956571	0.226076
H172	H	0.460913	1.456571	0.726076
H173	H	0.095269	0.480487	-0.120527
H174	H	0.595269	0.980487	0.379473
O175	O	0.191910	0.725533	0.813199
O176	O	0.691910	1.225533	1.313199
H177	H	0.183920	0.733542	0.872931
H178	H	0.683920	1.233542	1.372931
H179	H	0.006598	0.910888	0.335735
H180	H	0.506598	1.410888	0.835735
H181	H	0.179308	0.738080	0.335766
H182	H	0.679308	1.238080	0.835766
H183	H	0.179304	0.738058	0.196716
H184	H	0.679304	1.238058	0.696716
H185	H	0.006606	0.910921	0.664004
H186	H	0.506606	1.410921	1.164004
H187	H	-0.103513	0.713289	-0.000096
H188	H	0.396487	1.213289	0.499904
H189	H	-0.578456	0.937644	-0.000135
H190	H	-0.078456	1.437644	0.499865
O191	O	0.090789	0.178232	-0.138095
O192	O	0.590789	0.678232	0.361905
H193	H	0.138165	0.157900	-0.169929
H194	H	0.638165	0.657900	0.330071
O195	O	0.088530	0.026857	-0.138111
O196	O	0.588530	0.526857	0.361889
H197	H	0.089067	0.064430	-0.184261
H198	H	0.589067	0.564430	0.315739
O199	O	0.191902	0.725527	0.653895
O200	O	0.691902	1.225527	1.153895
H201	H	0.225007	0.692421	0.693424
H202	H	0.725007	1.192421	1.193424
