data_functionalizedCrystal
_audit_creation_method	'MofGen! by Chris Wilmer'
_symmetry_space_group_name_H-M	'P1'
_symmetry_Int_Tables_number	1
_symmetry_cell_setting	triclinic
loop_
_symmetry_equiv_pos_as_xyz
  x,y,z
_cell_length_a	12.759400
_cell_length_b	12.759401
_cell_length_c	17.077396
_cell_angle_alpha	90.018030
_cell_angle_beta	89.974414
_cell_angle_gamma	89.989346
loop_
_atom_site_label
_atom_site_type_symbol
_atom_site_fract_x
_atom_site_fract_y
_atom_site_fract_z
Zn1	Zn	-0.418379	-1.606234	-0.443828
Zn2	Zn	-0.594080	-1.606135	-0.312568
Zn3	Zn	-0.418403	-1.430542	-0.312579
Zn4	Zn	-0.594004	-1.430524	-0.443795
O5	O	-0.506217	-1.518359	-0.378193
O6	O	-0.441708	-1.753242	-0.426425
O7	O	-0.570817	-1.582808	-0.202723
O8	O	-0.271379	-1.453897	-0.330007
O9	O	-0.570794	-1.753169	-0.329989
O10	O	-0.271361	-1.582977	-0.426435
O11	O	-0.441749	-1.453801	-0.202731
O12	O	-0.441675	-1.283519	-0.329976
O13	O	-0.570666	-1.453867	-0.553647
O14	O	-0.570689	-1.283506	-0.426380
O15	O	-0.441635	-1.582960	-0.553670
O16	O	-0.741091	-1.582791	-0.329958
O17	O	-0.741035	-1.453771	-0.426370
C18	C	-0.506177	-1.245391	-0.378176
C19	C	-0.506186	-1.128615	-0.378188
C20	C	-0.439094	-1.073784	-0.428478
C21	C	-0.439109	-0.964060	-0.428481
C22	C	-0.573315	-0.964007	-0.327900
C23	C	-0.573294	-1.073729	-0.327894
C24	C	-0.361615	-1.073813	-0.486551
C25	C	-0.361629	-0.964089	-0.486553
C26	C	-0.779184	-1.518296	-0.378176
C27	C	-0.895961	-1.518366	-0.378195
C28	C	-0.950817	-1.585621	-0.328049
C29	C	-1.060541	-1.585686	-0.328073
C30	C	-1.060543	-1.451231	-0.428392
C31	C	-0.950821	-1.451172	-0.428371
C32	C	-0.950816	-1.663245	-0.270129
C33	C	-1.060540	-1.663309	-0.270153
C34	C	-0.232183	-1.518450	-0.378226
C35	C	-0.115407	-1.518489	-0.378240
C36	C	-0.506139	-1.518422	-0.582937
C37	C	-0.506106	-1.518449	-0.670187
C38	C	-0.506243	-0.792392	-0.378204
C39	C	-0.506220	-0.909169	-0.378196
C40	C	-0.438914	-1.585671	-0.711191
C41	C	-0.438879	-1.585683	-0.793171
C42	C	-0.506042	-1.518479	-0.834146
C43	C	-0.573237	-1.451251	-0.793137
C44	C	-0.573266	-1.451234	-0.711158
C45	C	-0.573174	-1.451293	-0.964007
C46	C	-0.573147	-1.451311	-1.045992
C47	C	-0.438787	-1.585743	-1.046020
C48	C	-0.438816	-1.585725	-0.964041
C49	C	-0.506013	-1.518498	-0.923037
C50	C	-0.506218	-1.518356	-0.174245
C51	C	-0.505955	-1.518532	-0.086995
H52	H	-0.627917	-1.118369	-0.286935
O53	O	-0.396650	-1.114514	-0.555333
C54	C	-0.525538	-1.222814	-0.619239
C55	C	-0.485990	-1.176767	-0.541292
H56	H	-0.597762	-1.273173	-0.607912
H57	H	-0.546743	-1.156350	-0.660927
H58	H	-0.461330	-1.273070	-0.646581
H59	H	-0.550150	-1.126523	-0.513883
H60	H	-0.464754	-1.243281	-0.499658
H61	H	-1.090392	-1.641575	-0.209349
O62	O	-0.897651	-1.385895	-0.477196
C63	C	-0.863950	-1.334831	-0.610687
C64	C	-0.924246	-1.408810	-0.555479
H65	H	-0.885413	-1.353345	-0.673991
H66	H	-0.885622	-1.250119	-0.596920
H67	H	-0.776110	-1.346308	-0.602017
H68	H	-1.012100	-1.397426	-0.564119
H69	H	-0.902487	-1.493494	-0.569260
H70	H	-1.105224	-1.396525	-0.469244
H71	H	-0.920966	-1.744587	-0.286457
H72	H	-1.094493	-1.740612	-0.291980
O73	O	-0.373572	-1.650988	-0.671512
C74	C	-0.240342	-1.784365	-0.680203
C75	C	-0.314276	-1.710431	-0.725233
H76	H	-0.192397	-1.832460	-0.723616
H77	H	-0.185342	-1.736191	-0.641846
H78	H	-0.288614	-1.839233	-0.641801
H79	H	-0.266088	-1.655549	-0.763677
H80	H	-0.369278	-1.758671	-0.763540
H81	H	-0.384167	-1.640424	-0.826553
H82	H	-0.627970	-1.396485	-0.677773
O83	O	-0.910469	-1.628530	-0.201143
C84	C	-0.947051	-1.563209	-0.071571
C85	C	-0.992885	-1.602527	-0.149649
H86	H	-1.013662	-1.542154	-0.029923
H87	H	-0.896782	-1.627396	-0.044279
H88	H	-0.896765	-1.490892	-0.082733
H89	H	-1.043218	-1.674825	-0.138554
H90	H	-1.043094	-1.538276	-0.176917
H91	H	-0.627877	-1.396533	-0.930624
H92	H	-0.284296	-0.930048	-0.464886
H93	H	-0.384132	-1.640455	-0.930681
O94	O	-0.638626	-1.386020	-0.832852
C95	C	-0.817325	-1.335009	-0.857941
C96	C	-0.743387	-1.408930	-0.812903
H97	H	-0.902041	-1.353520	-0.841841
H98	H	-0.798954	-1.250277	-0.841802
H99	H	-0.805711	-1.346553	-0.923573
H100	H	-0.754960	-1.397479	-0.747261
H101	H	-0.761775	-1.493634	-0.829107
H102	H	-0.627952	-0.919306	-0.286953
H103	H	-0.280211	-1.103581	-0.470373
H104	H	-0.384071	-1.640480	-1.079410
O105	O	-0.638417	-1.385927	-1.085675
C106	C	-0.771720	-1.252621	-1.077000
C107	C	-0.697838	-1.326597	-1.031962
H108	H	-0.819797	-1.204649	-1.033593
H109	H	-0.723506	-1.197649	-1.115362
H110	H	-0.826607	-1.300862	-1.115399
H111	H	-0.642937	-1.278441	-0.993521
H112	H	-0.746118	-1.381572	-0.993650
H113	H	-0.383531	-0.934341	-0.547323
