data_functionalizedCrystal
_audit_creation_method	'MofGen! by Chris Wilmer'
_symmetry_space_group_name_H-M	'P1'
_symmetry_Int_Tables_number	1
_symmetry_cell_setting	triclinic
loop_
_symmetry_equiv_pos_as_xyz
  x,y,z
_cell_length_a	16.120530
_cell_length_b	18.215404
_cell_length_c	16.120297
_cell_angle_alpha	87.128027
_cell_angle_beta	90.128140
_cell_angle_gamma	92.880662
loop_
_atom_site_label
_atom_site_type_symbol
_atom_site_fract_x
_atom_site_fract_y
_atom_site_fract_z
Zn1	Zn	1.247438	0.372844	-0.534560
Zn2	Zn	1.580772	0.706177	-0.201227
Zn3	Zn	1.914105	1.039511	0.132107
Zn4	Zn	1.254388	0.489999	-0.395501
Zn5	Zn	1.587722	0.823332	-0.062168
Zn6	Zn	1.921055	1.156666	0.271166
Zn7	Zn	1.115429	0.360408	-0.388478
Zn8	Zn	1.448762	0.693741	-0.055145
Zn9	Zn	1.782095	1.027075	0.278188
Zn10	Zn	1.108345	0.489321	-0.527470
Zn11	Zn	1.441678	0.822655	-0.194137
Zn12	Zn	1.775011	1.155988	0.139196
O13	O	1.181400	0.428143	-0.461502
O14	O	1.514733	0.761476	-0.128169
O15	O	1.848067	1.094810	0.205164
O16	O	1.364726	0.393873	-0.522020
O17	O	1.698060	0.727206	-0.188686
O18	O	2.031393	1.060540	0.144647
O19	O	1.241828	0.467888	-0.278204
O20	O	1.575162	0.801221	0.055129
O21	O	1.908495	1.134554	0.388463
O22	O	1.132996	0.259077	-0.407884
O23	O	1.466329	0.592410	-0.074551
O24	O	1.799663	0.925744	0.258782
O25	O	1.369833	0.479946	-0.419854
O26	O	1.703166	0.813280	-0.086520
O27	O	2.036499	1.146613	0.246813
O28	O	1.229983	0.268214	-0.515210
O29	O	1.563316	0.601547	-0.181877
O30	O	1.896649	0.934880	0.151457
O31	O	1.139735	0.372678	-0.273044
O32	O	1.473068	0.706011	0.060289
O33	O	1.806402	1.039344	0.393622
O34	O	0.998123	0.372020	-0.401010
O35	O	1.331456	0.705354	-0.067676
O36	O	1.664789	1.038687	0.265657
O37	O	1.120922	0.478791	-0.644776
O38	O	1.454256	0.812124	-0.311443
O39	O	1.787589	1.145458	0.021891
O40	O	0.992918	0.466733	-0.503127
O41	O	1.326251	0.800066	-0.169793
O42	O	1.659585	1.133399	0.163540
O43	O	1.223114	0.393216	-0.649985
O44	O	1.556447	0.726549	-0.316652
O45	O	1.889781	1.059882	0.016682
O46	O	1.234959	0.592890	-0.412979
O47	O	1.568293	0.926223	-0.079646
O48	O	1.901626	1.259556	0.253688
O49	O	1.127662	0.592392	-0.509936
O50	O	1.460995	0.925725	-0.176603
O51	O	1.794328	1.259058	0.156730
C52	C	0.965348	0.417954	-0.450537
C53	C	1.298681	0.751287	-0.117204
C54	C	1.632015	1.084621	0.216130
C55	C	0.872919	0.413614	-0.445866
C56	C	1.206252	0.746947	-0.112533
C57	C	1.539586	1.080280	0.220801
C58	C	1.181318	0.619344	-0.461470
C59	C	1.514651	0.952678	-0.128136
C60	C	1.847984	1.286011	0.205197
C61	C	1.181357	0.701146	-0.461487
C62	C	1.514690	1.034479	-0.128154
C63	C	1.848024	1.367812	0.205179
C64	C	1.170453	0.437315	-0.678396
C65	C	1.503786	0.770648	-0.345063
C66	C	1.837119	1.103982	-0.011730
C67	C	1.165788	0.441224	-0.770824
C68	C	1.499121	0.774557	-0.437490
C69	C	1.832454	1.107890	-0.104157
C70	C	0.703689	0.405673	-0.437345
C71	C	1.037023	0.739006	-0.104011
C72	C	1.370356	1.072339	0.229322
C73	C	0.659948	0.450670	-0.485721
C74	C	0.993281	0.784004	-0.152387
C75	C	1.326615	1.117337	0.180946
C76	C	0.565783	0.446252	-0.480980
C77	C	0.899116	0.779585	-0.147646
C78	C	1.232449	1.112918	0.185687
C79	C	0.797863	0.410090	-0.442085
C80	C	1.131196	0.743423	-0.108751
C81	C	1.464530	1.076757	0.224582
C82	C	1.398296	0.438372	-0.472511
C83	C	1.731629	0.771706	-0.139178
C84	C	2.064962	1.105039	0.194156
C85	C	1.490724	0.442731	-0.477202
C86	C	1.824057	0.776065	-0.143869
C87	C	2.157390	1.109398	0.189465
C88	C	1.237350	0.889585	-0.411117
C89	C	1.570683	1.222918	-0.077784
C90	C	1.904017	1.556252	0.255549
C91	C	1.237388	0.966447	-0.411144
C92	C	1.570721	1.299780	-0.077811
C93	C	1.904054	1.633113	0.255523
C94	C	1.125571	0.965960	-0.512014
C95	C	1.458904	1.299293	-0.178680
C96	C	1.792238	1.632627	0.154653
C97	C	1.125538	0.889100	-0.511991
C98	C	1.458871	1.222434	-0.178657
C99	C	1.792205	1.555767	0.154676
C100	C	1.181427	0.850914	-0.461538
C101	C	1.514760	1.184248	-0.128204
C102	C	1.848093	1.517581	0.205129
C103	C	1.181497	1.004636	-0.461587
C104	C	1.514830	1.337969	-0.128254
C105	C	1.848164	1.671303	0.205079
C106	C	1.181537	1.087973	-0.461617
C107	C	1.514871	1.421306	-0.128283
C108	C	1.848204	1.754639	0.205050
C109	C	1.181388	0.767573	-0.461509
C110	C	1.514721	1.100906	-0.128176
C111	C	1.848054	1.434239	0.205157
C112	C	1.181509	1.236198	-0.461570
C113	C	1.514842	1.569531	-0.128237
C114	C	1.848175	1.902865	0.205097
C115	C	1.181567	1.154405	-0.461638
C116	C	1.514900	1.487738	-0.128305
C117	C	1.848233	1.821071	0.205029
C118	C	1.157240	0.448342	-0.940048
C119	C	1.490573	0.781675	-0.606715
C120	C	1.823907	1.115008	-0.273382
C121	C	1.205724	0.407732	-0.983817
C122	C	1.539057	0.741065	-0.650483
C123	C	1.872390	1.074398	-0.317150
C124	C	1.200968	0.411692	-1.077979
C125	C	1.534301	0.745025	-0.744646
C126	C	1.867634	1.078359	-0.411312
C127	C	1.161995	0.444382	-0.845877
C128	C	1.495328	0.777715	-0.512544
C129	C	1.828661	1.111049	-0.179211
C130	C	1.192352	0.418956	-0.245455
C131	C	1.525686	0.752289	0.087879
C132	C	1.859019	1.085623	0.421212
C133	C	1.197179	0.414848	-0.153036
C134	C	1.530512	0.748181	0.180297
C135	C	1.863845	1.081514	0.513631
H136	H	0.693220	0.492512	-0.530699
H137	H	1.026553	0.825845	-0.197366
H138	H	1.359887	1.159178	0.135968
Br139	Br	1.049643	0.836614	-0.580431
Br140	Br	1.382976	1.169948	-0.247098
Br141	Br	1.716310	1.503281	0.086235
H142	H	0.670419	0.363834	-0.392371
H143	H	1.003753	0.697168	-0.059037
H144	H	1.337086	1.030501	0.274296
H145	H	1.282859	0.858496	-0.370037
H146	H	1.616192	1.191829	-0.036703
H147	H	1.949526	1.525163	0.296630
H148	H	1.282927	0.997929	-0.370088
H149	H	1.616261	1.331262	-0.036754
H150	H	1.949594	1.664596	0.296579
H151	H	1.250803	0.369989	-0.950570
H152	H	1.584137	0.703322	-0.617236
H153	H	1.917470	1.036655	-0.283903
H154	H	1.080067	0.997060	-0.553089
H155	H	1.413401	1.330394	-0.219756
H156	H	1.746734	1.663727	0.113577
H157	H	1.112164	0.486081	-0.973293
H158	H	1.445497	0.819415	-0.639960
H159	H	1.778831	1.152748	-0.306627
