data_functionalizedCrystal
_audit_creation_method	'MofGen! by Chris Wilmer'
_symmetry_space_group_name_H-M	'P1'
_symmetry_Int_Tables_number	1
_symmetry_cell_setting	triclinic
loop_
_symmetry_equiv_pos_as_xyz
  x,y,z
_cell_length_a	16.120490
_cell_length_b	16.120444
_cell_length_c	19.076919
_cell_angle_alpha	95.047308
_cell_angle_beta	89.501355
_cell_angle_gamma	90.165174
loop_
_atom_site_label
_atom_site_type_symbol
_atom_site_fract_x
_atom_site_fract_y
_atom_site_fract_z
Zn1	Zn	1.231078	-0.416797	-0.468390
Zn2	Zn	1.229513	-0.550806	-0.356362
Zn3	Zn	1.098205	-0.404170	-0.344490
Zn4	Zn	1.084959	-0.548714	-0.467750
O5	O	1.160939	-0.480122	-0.409248
O6	O	1.346974	-0.440734	-0.458765
O7	O	1.216983	-0.526945	-0.256318
O8	O	1.122029	-0.289270	-0.356226
O9	O	1.345825	-0.539189	-0.376459
O10	O	1.219650	-0.298547	-0.447254
O11	O	1.120511	-0.419212	-0.247596
O12	O	0.980343	-0.417184	-0.355605
O13	O	1.099454	-0.535624	-0.566304
O14	O	0.970612	-0.523380	-0.446163
O15	O	1.206807	-0.438705	-0.566774
O16	O	1.204139	-0.667103	-0.375838
O17	O	1.097937	-0.665566	-0.457675
C18	C	0.945373	-0.468685	-0.399527
C19	C	0.853152	-0.463813	-0.395386
C20	C	1.149453	-0.696563	-0.417992
C21	C	1.144614	-0.789163	-0.421759
C22	C	0.638416	-0.505385	-0.430730
C23	C	0.684306	-0.454927	-0.387825
C24	C	0.778260	-0.459873	-0.392033
C25	C	0.544453	-0.500440	-0.426522
C26	C	1.186237	-1.000701	-0.389865
C27	C	1.135794	-0.958700	-0.428645
C28	C	1.140703	-0.864361	-0.424813
C29	C	1.181329	-1.095048	-0.393697
C30	C	1.377346	-0.491603	-0.419007
C31	C	1.469565	-0.496496	-0.423166
C32	C	1.151827	-0.488340	-0.592784
C33	C	1.147945	-0.491842	-0.670997
C34	C	1.172491	-0.262836	-0.400487
C35	C	1.177414	-0.170243	-0.396753
C36	C	1.202011	-0.443029	-0.707987
C37	C	1.198352	-0.446316	-0.781475
C38	C	1.140632	-0.498420	-0.817972
C39	C	1.086560	-0.547235	-0.780977
C40	C	1.090215	-0.543943	-0.707489
C41	C	1.123704	-0.513672	-1.037729
C42	C	1.120055	-0.516962	-1.111221
C43	C	1.231847	-0.416042	-1.111714
C44	C	1.235500	-0.412758	-1.038226
C45	C	1.181425	-0.461569	-1.001237
N46	N	1.136893	-0.501783	-0.893089
N47	N	1.185161	-0.458201	-0.926121
C48	C	1.170065	-0.471878	-0.226425
C49	C	1.174121	-0.468150	-0.148211
H50	H	0.653031	-0.408013	-0.347931
H51	H	1.233105	-0.965812	-0.353787
H52	H	0.669689	-0.552296	-0.470619
Cl53	Cl	1.063422	-1.012568	-0.484347
H54	H	1.249015	-0.400602	-0.678277
H55	H	1.242380	-0.406569	-0.811589
H56	H	1.282504	-0.370331	-1.008515
Cl57	Cl	1.047482	-0.582465	-1.157102
Cl58	Cl	1.299819	-0.354680	-1.158219
Cl59	Cl	1.055725	-0.575036	-0.991237
H60	H	1.039560	-0.589657	-0.810698
Cl61	Cl	1.022241	-0.605308	-0.660987
