data_functionalizedCrystal
_audit_creation_method	'MofGen! by Chris Wilmer'
_symmetry_space_group_name_H-M	'P1'
_symmetry_Int_Tables_number	1
_symmetry_cell_setting	triclinic
loop_
_symmetry_equiv_pos_as_xyz
  x,y,z
_cell_length_a	11.792241
_cell_length_b	8.559649
_cell_length_c	7.088929
_cell_angle_alpha	95.344185
_cell_angle_beta	96.247323
_cell_angle_gamma	103.013960
loop_
_atom_site_label
_atom_site_type_symbol
_atom_site_fract_x
_atom_site_fract_y
_atom_site_fract_z
O1	O	1.473807	-0.235147	-0.158941
O2	O	1.141401	-0.257702	-0.158952
O3	O	1.336890	-0.014076	-0.158944
O4	O	1.278319	-0.478773	-0.158949
O5	O	1.363021	0.018556	0.159033
O6	O	1.167532	-0.225070	0.159024
O7	O	1.499939	-0.202515	0.159035
Cu8	Cu	1.336122	-0.210813	0.188064
Cu9	Cu	1.305218	-0.249404	-0.187980
O10	O	1.304450	-0.446141	0.159027
C11	C	1.354394	0.061731	0.000041
C12	C	1.367605	0.238996	0.000031
C13	C	1.529034	-0.220248	0.000045
C14	C	1.654659	-0.224490	0.000037
C15	C	1.112305	-0.239970	0.000035
C16	C	0.986679	-0.235730	0.000030
C17	C	1.884658	-0.232287	0.000037
C18	C	1.756669	-0.227954	0.000037
C19	C	1.286946	-0.521949	0.000038
C20	C	1.273733	-0.699215	0.000036
N21	N	1.357866	-0.183669	0.452553
N22	N	1.283484	-0.276536	-0.452469
H23	H	1.183258	0.218073	0.000039
O24	O	1.191613	-0.391556	0.450223
C25	C	1.200395	-0.544757	0.499028
H26	H	1.295648	-0.540605	0.554156
H27	H	1.169685	-0.638194	0.367303
H28	H	1.142954	-0.579353	0.615084
O29	O	1.475461	0.337889	-0.000044
C30	C	1.465096	0.498808	0.000022
H31	H	1.371594	0.499640	-0.060173
H32	H	1.529221	0.564329	-0.092288
H33	H	1.486092	0.562580	0.152577
H34	H	1.434966	-0.087437	0.534212
