data_functionalizedCrystal
_audit_creation_method	'MofGen! by Chris Wilmer'
_symmetry_space_group_name_H-M	'P1'
_symmetry_Int_Tables_number	1
_symmetry_cell_setting	triclinic
loop_
_symmetry_equiv_pos_as_xyz
  x,y,z
_cell_length_a	15.944545
_cell_length_b	15.944551
_cell_length_c	13.101039
_cell_angle_alpha	93.361595
_cell_angle_beta	86.644973
_cell_angle_gamma	83.497455
loop_
_atom_site_label
_atom_site_type_symbol
_atom_site_fract_x
_atom_site_fract_y
_atom_site_fract_z
O1	O	1.119144	0.103675	-0.085150
O2	O	0.874595	0.117035	-0.085167
O3	O	1.003547	-0.011919	-0.085149
O4	O	0.990192	0.232629	-0.085168
O5	O	0.994295	-0.002652	0.085280
O6	O	0.865343	0.126303	0.085262
O7	O	1.109892	0.112942	0.085278
Zn8	Zn	0.986149	0.121094	0.112329
Zn9	Zn	0.998339	0.108884	-0.112218
O10	O	0.980940	0.241897	0.085260
C11	C	0.838675	0.121115	0.000045
C12	C	0.745429	0.119455	0.000039
C13	C	0.474795	0.034562	0.000057
C14	C	0.520815	0.080060	0.084086
C15	C	0.409784	0.113535	0.000057
C16	C	0.529918	0.070944	-0.083943
C17	C	0.574698	0.116439	0.000047
C18	C	0.454572	0.159016	0.084156
C19	C	0.463675	0.149884	-0.083949
C20	C	0.509661	0.195442	0.000101
C21	C	0.314782	0.111860	0.000064
C22	C	0.669698	0.118121	0.000047
C23	C	0.998367	-0.038580	0.000066
C24	C	0.996704	-0.131826	0.000066
C25	C	0.912801	-0.346681	0.000046
C26	C	0.947201	-0.403130	0.084080
C27	C	0.993698	-0.302552	0.000058
C28	C	0.956342	-0.412251	-0.083949
C29	C	0.990787	-0.467465	0.000046
C30	C	1.028117	-0.357768	0.084162
C31	C	1.037250	-0.366887	-0.083943
C32	C	1.071709	-0.423316	0.000112
C33	C	0.995372	-0.207549	0.000066
C34	C	0.989119	-0.562466	0.000045
C35	C	1.145812	0.108862	0.000064
C36	C	1.239059	0.110522	0.000063
C37	C	0.986121	0.268557	0.000044
C38	C	0.987783	0.361803	0.000036
N39	N	0.977835	0.129427	0.265577
N40	N	1.006659	0.100544	-0.265465
C41	C	0.966525	0.140772	0.474618
C42	C	1.017967	0.089202	0.525500
C43	C	1.011673	0.095514	0.641818
C44	C	0.972817	0.134460	0.358289
H45	H	0.545889	0.050571	0.155132
Br46	Br	0.584547	0.008896	-0.202339
Br47	Br	1.099604	0.008068	0.452512
H48	H	0.845648	-0.313368	0.000125
Br49	Br	0.535477	0.308891	0.000163
H50	H	0.909128	-0.419374	0.155120
H51	H	0.925973	-0.436190	-0.154998
H52	H	0.459137	-0.033445	0.000144
Br53	Br	0.400126	0.221012	0.202689
H54	H	1.058443	-0.333911	0.155284
Br55	Br	1.100662	-0.339773	-0.202354
H56	H	1.138913	-0.456474	0.000164
H57	H	0.438586	0.179344	-0.154997
Br58	Br	0.885247	0.222258	0.547606
