data_functionalizedCrystal
_audit_creation_method	'MofGen! by Chris Wilmer'
_symmetry_space_group_name_H-M	'P1'
_symmetry_Int_Tables_number	1
_symmetry_cell_setting	triclinic
loop_
_symmetry_equiv_pos_as_xyz
  x,y,z
_cell_length_a	14.044220
_cell_length_b	14.044220
_cell_length_c	12.503572
_cell_angle_alpha	93.843168
_cell_angle_beta	86.164750
_cell_angle_gamma	93.188878
loop_
_atom_site_label
_atom_site_type_symbol
_atom_site_fract_x
_atom_site_fract_y
_atom_site_fract_z
O1	O	1.282200	0.225116	-0.089210
O2	O	1.005530	0.216809	-0.089237
O3	O	1.139712	0.082627	-0.089213
O4	O	1.148019	0.359298	-0.089234
O5	O	1.129622	0.092737	0.089427
O6	O	0.995440	0.226918	0.089403
O7	O	1.272110	0.235226	0.089430
Cu8	Cu	1.132854	0.231995	0.105728
Cu9	Cu	1.144786	0.220040	-0.105535
O10	O	1.137929	0.369407	0.089406
C11	C	0.964864	0.218228	0.000080
C12	C	0.858721	0.207383	0.000070
C13	C	0.664382	0.187558	0.000092
C14	C	0.613253	0.264472	0.000091
C15	C	0.505116	0.253441	0.000104
C16	C	0.772529	0.198587	0.000080
C17	C	1.131031	0.052060	0.000107
C18	C	1.120187	-0.054082	0.000107
C19	C	1.100361	-0.248421	0.000090
C20	C	1.177275	-0.299551	0.000094
C21	C	1.166244	-0.407687	0.000084
C22	C	1.111391	-0.140274	0.000099
C23	C	1.312777	0.233807	0.000111
C24	C	1.418920	0.244651	0.000114
C25	C	1.146609	0.399974	0.000084
C26	C	1.157454	0.506117	0.000077
N27	N	1.124469	0.240404	0.254319
N28	N	1.153179	0.211624	-0.254126
C29	C	1.112134	0.252782	0.473432
C30	C	1.165511	0.199249	0.526768
C31	C	1.158648	0.206136	0.648690
C32	C	1.118996	0.245896	0.351499
H33	H	1.251413	-0.262115	0.000029
O34	O	1.226062	0.138188	0.472174
C35	C	1.200784	0.043979	0.499740
H36	H	1.122562	0.038961	0.530668
H37	H	1.247593	0.024038	0.565018
C38	C	1.311678	-0.019053	0.361906
C39	C	1.215603	-0.025218	0.399884
H40	H	1.320823	-0.061738	0.300313
H41	H	1.328712	0.044418	0.343337
H42	H	1.350675	-0.035668	0.416314
H43	H	1.176609	-0.008591	0.345482
H44	H	1.198563	-0.088687	0.418443
H45	H	0.626945	0.113431	0.000104
O46	O	1.051529	0.313758	0.528063
C47	C	1.076735	0.408036	0.500695
H48	H	1.118052	0.406443	0.419006
H49	H	1.123302	0.445036	0.563956
C50	C	0.934805	0.465144	0.596025
C51	C	0.985544	0.463188	0.495689
H52	H	0.878555	0.499167	0.592941
H53	H	0.917824	0.401628	0.614467
H54	H	0.973621	0.495976	0.648731
H55	H	0.946732	0.432346	0.442987
H56	H	1.002516	0.526700	0.477238
O57	O	0.658066	0.352840	0.000004
C58	C	0.757624	0.344329	0.000008
H59	H	0.776488	0.269844	-0.033781
H60	H	0.780930	0.356133	0.085700
C61	C	0.786243	0.511184	-0.028601
C62	C	0.809413	0.419704	-0.070109
H63	H	0.818191	0.557681	-0.071848
H64	H	0.719169	0.516920	-0.028600
H65	H	0.805666	0.521008	0.042808
H66	H	0.789980	0.409877	-0.141511
H67	H	0.876486	0.413967	-0.070124
H68	H	1.026234	-0.285859	0.000080
