data_functionalizedCrystal
_audit_creation_method	'MofGen! by Chris Wilmer'
_symmetry_space_group_name_H-M	'P1'
_symmetry_Int_Tables_number	1
_symmetry_cell_setting	triclinic
loop_
_symmetry_equiv_pos_as_xyz
  x,y,z
_cell_length_a	19.288864
_cell_length_b	10.654550
_cell_length_c	17.766277
_cell_angle_alpha	89.994852
_cell_angle_beta	89.976791
_cell_angle_gamma	83.810575
loop_
_atom_site_label
_atom_site_type_symbol
_atom_site_fract_x
_atom_site_fract_y
_atom_site_fract_z
O1	O	0.922379	0.156657	-0.062834
O2	O	0.720257	0.177789	-0.062782
O3	O	0.825965	-0.015616	-0.062807
O4	O	0.816670	0.350062	-0.062810
O5	O	0.825946	-0.015625	0.062382
O6	O	0.720238	0.177780	0.062406
O7	O	0.922360	0.156647	0.062355
Cu8	Cu	0.821297	0.167212	0.073811
Cu9	Cu	0.821319	0.167224	-0.074239
O10	O	0.816652	0.350052	0.062379
C11	C	0.694366	0.177105	-0.000181
C12	C	0.617249	0.175063	-0.000162
C13	C	0.573296	0.288545	-0.000175
C14	C	0.500836	0.286627	-0.000183
C15	C	0.472333	0.171222	-0.000193
C16	C	0.516296	0.057725	-0.000176
C17	C	0.588754	0.059646	-0.000160
C18	C	0.363484	0.080503	-0.044077
C19	C	0.291027	0.078587	-0.044098
C20	C	0.248849	0.165292	-0.000239
C21	C	0.279135	0.253934	0.043630
C22	C	0.351593	0.255855	0.043646
C23	C	0.393766	0.169126	-0.000210
C24	C	0.126326	0.276702	-0.000260
C25	C	0.053865	0.274779	-0.000263
C26	C	0.069327	0.045875	-0.000264
C27	C	0.141786	0.047800	-0.000253
C28	C	0.170281	0.163217	-0.000254
C29	C	0.825273	-0.062404	-0.000213
C30	C	0.823231	-0.201803	-0.000215
C31	C	0.885471	-0.282621	-0.000229
C32	C	0.883548	-0.413601	-0.000234
C33	C	0.757141	-0.382932	-0.000208
C34	C	0.759065	-0.251955	-0.000208
C35	C	0.958451	-0.300329	-0.000240
C36	C	0.956528	-0.431309	-0.000245
C37	C	0.948250	0.157332	-0.000248
C38	C	1.025367	0.159373	-0.000273
C39	C	0.817344	0.396840	-0.000216
C40	C	0.819385	0.536240	-0.000219
N41	N	0.821287	0.167203	0.177941
N42	N	0.821335	0.167223	-0.178369
C43	C	0.868110	0.081606	0.217318
C44	C	0.868114	0.081600	0.296119
C45	C	0.821301	0.167213	0.335542
C46	C	0.774469	0.252818	0.296156
C47	C	0.774462	0.252813	0.217356
C48	C	0.812752	0.281634	0.460380
C49	C	0.812764	0.281641	0.539179
C50	C	0.821320	0.167229	0.578588
C51	C	0.829879	0.052804	0.539189
C52	C	0.829871	0.052799	0.460389
C53	C	0.821304	0.167228	0.420988
C54	C	0.868150	0.081617	0.703410
C55	C	0.868149	0.081610	0.782214
C56	C	0.774508	0.252839	0.782249
C57	C	0.774506	0.252835	0.703447
C58	C	0.821330	0.167226	0.664033
H59	H	0.149528	0.370681	-0.000250
H60	H	0.624542	-0.032767	-0.000150
H61	H	0.836838	-0.040369	0.428313
H62	H	0.596492	0.382526	-0.000177
C63	C	0.005516	0.399616	-0.000278
H64	H	0.032867	0.468623	-0.000283
H65	H	-0.023095	0.403630	0.043373
H66	H	-0.023047	0.403618	-0.043945
C67	C	0.997016	-0.261477	-0.071021
H68	H	1.011566	-0.334379	-0.100134
H69	H	1.036645	-0.221545	-0.056479
H70	H	0.966619	-0.204549	-0.100123
H71	H	0.978592	-0.477420	-0.054304
C72	C	0.686564	-0.438104	-0.000195
H73	H	0.694331	-0.527684	-0.000192
H74	H	0.660916	-0.410330	-0.043843
H75	H	0.660905	-0.410346	0.043474
H76	H	0.984018	-0.473662	0.052138
C77	C	0.919647	-0.012560	0.660051
H78	H	0.947527	-0.063555	0.694792
H79	H	0.948773	0.032477	0.629292
H80	H	0.894404	-0.064723	0.629329
C81	C	0.723007	0.347008	0.660131
H82	H	0.695131	0.398004	0.694894
H83	H	0.693876	0.301969	0.629409
H84	H	0.748245	0.399171	0.629376
H85	H	0.708383	-0.186156	-0.000208
H86	H	0.736353	0.322524	0.328258
C87	C	0.803345	0.407497	0.417038
H88	H	0.798261	0.475641	0.451786
H89	H	0.762914	0.410231	0.386317
H90	H	0.843068	0.414271	0.386279
H91	H	0.397820	0.009895	-0.079796
H92	H	0.906235	0.011895	0.185229
H93	H	0.465043	0.379040	-0.000191
C94	C	0.919622	-0.012559	0.339442
H95	H	0.947510	-0.063541	0.304682
H96	H	0.894393	-0.064719	0.370203
H97	H	0.948752	0.032502	0.370160
H98	H	0.981682	-0.265204	0.053808
H99	H	0.736332	0.322518	0.185295
H100	H	0.736390	0.322542	0.814346
C101	C	0.919659	-0.012551	0.825528
H102	H	0.947547	-0.063524	0.790765
H103	H	0.894432	-0.064718	0.856286
H104	H	0.948787	0.032509	0.856248
C105	C	0.037982	-0.081069	-0.000281
H106	H	-0.011467	-0.065962	-0.000297
H107	H	0.053009	-0.127791	0.043375
H108	H	0.053057	-0.127766	-0.043942
H109	H	0.836845	-0.040361	0.571274
H110	H	0.376250	0.328027	0.079369
C111	C	0.484949	-0.069220	-0.000189
H112	H	0.521507	-0.136534	-0.000174
H113	H	0.457030	-0.074726	-0.043852
H114	H	0.456980	-0.074728	0.043465
C115	C	0.803351	0.407496	0.582515
H116	H	0.804589	0.391116	0.635089
H117	H	0.759758	0.452472	0.569623
H118	H	0.839910	0.456542	0.569575
H119	H	0.244795	0.324537	0.079345
C120	C	0.257718	-0.018917	-0.092348
H121	H	0.293215	-0.070297	-0.118454
H122	H	0.226539	0.023739	-0.127625
H123	H	0.232860	-0.070370	-0.060724
H124	H	0.177574	-0.044609	-0.000247
