data_functionalizedCrystal
_audit_creation_method	'MofGen! by Chris Wilmer'
_symmetry_space_group_name_H-M	'P1'
_symmetry_Int_Tables_number	1
_symmetry_cell_setting	triclinic
loop_
_symmetry_equiv_pos_as_xyz
  x,y,z
_cell_length_a	19.188928
_cell_length_b	9.065218
_cell_length_c	7.540329
_cell_angle_alpha	90.001757
_cell_angle_beta	90.019655
_cell_angle_gamma	84.079849
loop_
_atom_site_label
_atom_site_type_symbol
_atom_site_fract_x
_atom_site_fract_y
_atom_site_fract_z
O1	O	-0.927575	-0.184158	-0.148163
O2	O	-0.724456	-0.208954	-0.148015
O3	O	-0.830214	0.018232	-0.148088
O4	O	-0.821817	-0.411344	-0.148089
O5	O	-0.830208	0.018235	0.146877
O6	O	-0.724450	-0.208952	0.146950
O7	O	-0.927569	-0.184155	0.146802
Cu8	Cu	-0.826009	-0.196553	0.173809
Cu9	Cu	-0.826016	-0.196556	-0.175021
O10	O	-0.821811	-0.411341	0.146876
C11	C	-0.698436	-0.208151	-0.000513
C12	C	-0.620913	-0.205742	-0.000457
C13	C	-0.577024	-0.339047	-0.000480
C14	C	-0.504183	-0.336784	-0.000491
C15	C	-0.475233	-0.201208	-0.000514
C16	C	-0.519131	-0.067885	-0.000480
C17	C	-0.591971	-0.070152	-0.000452
N18	N	-0.366450	-0.097580	-0.100960
N19	N	-0.297254	-0.095436	-0.100991
C20	C	-0.255771	-0.194370	-0.000594
N21	N	-0.286095	-0.295553	0.099811
N22	N	-0.355297	-0.297702	0.099834
C23	C	-0.396251	-0.198735	-0.000543
C24	C	-0.132899	-0.325231	-0.000626
C25	C	-0.060056	-0.322963	-0.000626
C26	C	-0.075006	-0.054060	-0.000633
C27	C	-0.147847	-0.056332	-0.000616
C28	C	-0.176789	-0.191922	-0.000621
C29	C	-0.829404	0.073192	-0.000608
C30	C	-0.826991	0.236951	-0.000615
C31	C	0.046411	-0.184963	-0.000671
C32	C	-0.031112	-0.187385	-0.000646
C33	C	-0.822621	-0.466301	-0.000608
C34	C	-0.825034	-0.630061	-0.000613
N35	N	-0.826009	-0.196550	0.419157
N36	N	-0.826022	-0.196548	-0.420370
H37	H	-0.468442	-0.445341	-0.000504
C38	C	-0.640253	0.076486	-0.000440
H39	H	-0.687779	0.055717	-0.000415
H40	H	-0.631405	0.132101	-0.103303
H41	H	-0.631369	0.132096	0.102432
H42	H	-0.156464	-0.435636	-0.000604
H43	H	-0.051436	0.056329	-0.000762
C44	C	-0.487289	0.081244	-0.000516
H45	H	-0.437622	0.063503	-0.000556
H46	H	-0.502275	0.136120	0.102347
H47	H	-0.502319	0.136107	-0.103388
H48	H	-0.024323	-0.431520	-0.000634
H49	H	-0.600584	-0.449455	-0.000488
C50	C	-0.196126	0.090305	-0.000618
H51	H	-0.168455	0.171376	-0.000648
H52	H	-0.224834	0.095016	0.102250
H53	H	-0.224869	0.095003	-0.103485
