data_functionalizedCrystal
_audit_creation_method	'MofGen! by Chris Wilmer'
_symmetry_space_group_name_H-M	'P1'
_symmetry_Int_Tables_number	1
_symmetry_cell_setting	triclinic
loop_
_symmetry_equiv_pos_as_xyz
  x,y,z
_cell_length_a	14.971486
_cell_length_b	14.971486
_cell_length_c	13.448316
_cell_angle_alpha	90.001801
_cell_angle_beta	89.993189
_cell_angle_gamma	96.385871
loop_
_atom_site_label
_atom_site_type_symbol
_atom_site_fract_x
_atom_site_fract_y
_atom_site_fract_z
O1	O	0.116565	-1.186947	-0.082578
O2	O	0.616565	-0.686947	0.417422
O3	O	0.130524	-0.926547	-0.082605
O4	O	0.630524	-0.426547	0.417395
O5	O	-0.006656	-1.063727	-0.082584
O6	O	0.493344	-0.563727	0.417416
O7	O	0.253744	-1.049768	-0.082599
O8	O	0.753744	-0.549768	0.417401
O9	O	-0.006664	-1.063709	0.082800
O10	O	0.493336	-0.563709	0.582800
O11	O	0.130515	-0.926530	0.082779
O12	O	0.630515	-0.426530	0.582779
O13	O	0.116556	-1.186930	0.082806
O14	O	0.616556	-0.686930	0.582806
Cu15	Cu	0.123535	-1.056728	0.097893
Cu16	Cu	0.623535	-0.556728	0.597893
Cu17	Cu	0.123545	-1.056749	-0.097692
Cu18	Cu	0.623545	-0.556749	0.402308
O19	O	0.253736	-1.049751	0.082784
O20	O	0.753736	-0.549751	0.582784
C21	C	-0.039985	-1.063094	0.000108
C22	C	0.460015	-0.563094	0.500108
C23	C	-0.139282	-1.061223	0.000107
C24	C	0.360718	-0.561223	0.500107
C25	C	0.129895	-0.893214	0.000083
C26	C	0.629895	-0.393214	0.500083
C27	C	0.128024	-0.793917	0.000073
C28	C	0.628024	-0.293917	0.500073
C29	C	0.117185	-1.220263	0.000115
C30	C	0.617185	-0.720263	0.500115
C31	C	0.119056	-1.319561	0.000119
C32	C	0.619056	-0.819561	0.500119
C33	C	-0.196507	-1.141812	0.000116
C34	C	0.303493	-0.641812	0.500116
C35	C	-0.289807	-1.140049	0.000106
C36	C	0.210193	-0.640049	0.500106
C37	C	-0.325879	-1.057696	0.000093
C38	C	0.174121	-0.557696	0.500093
C39	C	-0.268646	-0.977101	0.000081
C40	C	0.231354	-0.477101	0.500081
C41	C	-0.175349	-0.978865	0.000084
C42	C	0.324651	-0.478865	0.500084
C43	C	-0.463109	-0.973430	0.000077
C44	C	0.036891	-0.473430	0.500077
C45	C	-0.556413	-0.971665	0.000076
C46	C	-0.056413	-0.471665	0.500076
C47	C	-0.577567	-1.134614	0.000099
C48	C	-0.077567	-0.634614	0.500099
C49	C	-0.484269	-1.136378	0.000102
C50	C	0.015731	-0.636378	0.500102
C51	C	-0.427043	-1.055782	0.000091
C52	C	0.072957	-0.555782	0.500091
C53	C	0.287065	-1.050384	0.000091
C54	C	0.787065	-0.550384	0.500091
C55	C	0.386362	-1.052254	0.000085
C56	C	0.886362	-0.552254	0.500085
N57	N	0.123527	-1.056721	0.235457
N58	N	0.623527	-0.556721	0.735457
C59	C	0.208614	-0.736692	0.000070
C60	C	0.708614	-0.236692	0.500070
C61	C	0.206850	-0.643392	0.000085
C62	C	0.706850	-0.143392	0.500085
C63	C	0.124497	-0.607320	0.000096
C64	C	0.624497	-0.107320	0.500096
C65	C	0.043902	-0.664552	0.000102
C66	C	0.543902	-0.164552	0.500102
C67	C	0.045666	-0.757850	0.000095
C68	C	0.545666	-0.257850	0.500095
C69	C	0.040231	-0.470090	0.000116
C70	C	0.540231	0.029910	0.500116
C71	C	0.038466	-0.376786	0.000122
C72	C	0.538466	0.123214	0.500122
C73	C	0.201415	-0.355632	0.000106
C74	C	0.701415	0.144368	0.500106
C75	C	0.203179	-0.448930	0.000099
C76	C	0.703179	0.051070	0.500099
C77	C	0.122584	-0.506156	0.000103
C78	C	0.622584	-0.006156	0.500103
N79	N	0.123545	-1.056764	-0.235257
N80	N	0.623545	-0.556764	0.264743
C81	C	0.062809	-1.117483	0.287507
C82	C	0.562809	-0.617483	0.787507
C83	C	0.062809	-1.117488	0.391610
C84	C	0.562809	-0.617488	0.891610
C85	C	0.123531	-1.056735	0.443662
C86	C	0.623531	-0.556735	0.943662
C87	C	0.184252	-0.995967	0.391605
C88	C	0.684252	-0.495967	0.891605
C89	C	0.184248	-0.995958	0.287504
C90	C	0.684248	-0.495958	0.787504
C91	C	0.184258	-0.995992	0.608585
C92	C	0.684258	-0.495992	1.108585
C93	C	0.184264	-0.996002	0.712693
C94	C	0.684264	-0.496002	1.212693
C95	C	0.062819	-1.117522	0.712692
C96	C	0.562819	-0.617522	1.212692
C97	C	0.062815	-1.117513	0.608591
C98	C	0.562815	-0.617513	1.108591
C99	C	0.123537	-1.056745	0.556541
C100	C	0.623537	-0.556745	1.056541
H101	H	-0.336396	-1.205673	0.000115
H102	H	0.163604	-0.705673	0.500115
H103	H	-0.128756	-0.913240	0.000077
H104	H	0.371244	-0.413240	0.500077
O105	O	-0.002670	-1.183043	0.447742
O106	O	0.497330	-0.683043	0.947742
H107	H	-0.072422	-1.171594	0.427767
H108	H	0.427578	-0.671594	0.927767
H109	H	-0.028593	-0.347419	0.000133
H110	H	0.471407	0.152581	0.500133
O111	O	0.288345	-0.293913	0.000107
O112	O	0.788345	0.206087	0.500107
H113	H	0.327752	-0.306760	0.067505
H114	H	0.827752	0.193240	0.567505
H115	H	-0.585780	-0.904606	0.000082
H116	H	-0.085780	-0.404606	0.500082
O117	O	-0.157611	-1.230642	0.000123
O118	O	0.342389	-0.730642	0.500123
H119	H	-0.115625	-1.235346	0.067536
H120	H	0.384375	-0.735346	0.567536
H121	H	-0.025399	-0.516682	0.000121
H122	H	0.474601	-0.016682	0.500121
H123	H	-0.454903	-1.203437	0.000119
H124	H	0.045097	-0.703437	0.500119
O125	O	-0.639281	-1.221547	0.000100
O126	O	-0.139281	-0.721547	0.500100
H127	H	-0.710218	-1.206488	0.000082
H128	H	-0.210218	-0.706488	0.500082
O129	O	-0.002682	-1.183033	0.552445
O130	O	0.497318	-0.683033	1.052445
H131	H	0.008821	-1.252773	0.572412
H132	H	0.508821	-0.752773	1.072412
H133	H	0.233702	-0.946505	0.566209
H134	H	0.733702	-0.446505	1.066209
H135	H	-0.416517	-0.907800	0.000066
H136	H	0.083483	-0.407800	0.500066
H137	H	-0.298024	-0.910047	0.000065
H138	H	0.201976	-0.410047	0.500065
O139	O	0.293772	-0.581669	0.000085
O140	O	0.793772	-0.081669	0.500085
H141	H	0.333177	-0.594492	-0.067333
H142	H	0.833177	-0.094492	0.432667
H143	H	0.233689	-0.946478	0.245125
H144	H	0.733689	-0.446478	0.745125
O145	O	0.297438	-0.775597	0.000067
O146	O	0.797438	-0.275597	0.500067
H147	H	0.353180	-0.720127	0.000081
H148	H	0.853180	-0.220127	0.500081
H149	H	0.270239	-0.478296	0.000080
H150	H	0.770239	0.021704	0.500080
H151	H	0.013377	-1.167001	0.755077
H152	H	0.513377	-0.667001	1.255077
H153	H	0.233709	-0.946530	0.755069
H154	H	0.733709	-0.446530	1.255069
H155	H	-0.023152	-0.635175	0.000126
H156	H	0.476848	-0.135175	0.500126
O157	O	-0.041254	-0.819579	0.000095
O158	O	0.458746	-0.319579	0.500095
H159	H	-0.098817	-0.778823	0.000095
H160	H	0.401183	-0.278823	0.500095
O161	O	-0.002688	-1.183006	0.231367
O162	O	0.497312	-0.683006	0.731367
H163	H	-0.044916	-1.225251	0.285054
H164	H	0.455084	-0.725251	0.785054
O165	O	0.249755	-0.930445	0.447739
O166	O	0.749755	-0.430445	0.947739
H167	H	0.212040	-0.886943	0.495193
H168	H	0.712040	-0.386943	0.995193
