data_functionalizedCrystal
_audit_creation_method	'MofGen! by Chris Wilmer'
_symmetry_space_group_name_H-M	'P1'
_symmetry_Int_Tables_number	1
_symmetry_cell_setting	triclinic
loop_
_symmetry_equiv_pos_as_xyz
  x,y,z
_cell_length_a	18.215407
_cell_length_b	12.594516
_cell_length_c	12.594510
_cell_angle_alpha	90.031906
_cell_angle_beta	90.022619
_cell_angle_gamma	90.016501
loop_
_atom_site_label
_atom_site_type_symbol
_atom_site_fract_x
_atom_site_fract_y
_atom_site_fract_z
Zn1	Zn	1.125137	-0.423637	0.601870
Zn2	Zn	1.625137	0.076363	1.101870
Zn3	Zn	1.125059	-0.601665	0.423898
Zn4	Zn	1.625059	-0.101665	0.923898
Zn5	Zn	1.002064	-0.423703	0.423900
Zn6	Zn	1.502064	0.076297	0.923900
Zn7	Zn	1.002055	-0.601576	0.601829
Zn8	Zn	1.502055	-0.101576	1.101829
O9	O	1.063579	-0.512645	0.512874
O10	O	1.563579	-0.012645	1.012874
O11	O	1.228111	-0.447263	0.578279
O12	O	1.728111	0.052737	1.078279
O13	O	1.108714	-0.578123	0.274952
O14	O	1.608714	-0.078123	0.774952
O15	O	1.018427	-0.274748	0.447526
O16	O	1.518427	0.225252	0.947526
O17	O	1.228053	-0.578060	0.447523
O18	O	1.728053	-0.078060	0.947523
O19	O	1.108848	-0.274700	0.578280
O20	O	1.608848	0.225300	1.078280
O21	O	1.018350	-0.447375	0.274954
O22	O	1.518350	0.052625	0.774954
O23	O	0.899078	-0.447288	0.447486
O24	O	1.399078	0.052712	0.947486
O25	O	1.018411	-0.577907	0.750780
O26	O	1.518411	-0.077907	1.250780
O27	O	0.899072	-0.577970	0.578209
O28	O	1.399072	-0.077970	1.078209
O29	O	1.108839	-0.447176	0.750811
O30	O	1.608839	0.052824	1.250811
O31	O	1.108705	-0.750599	0.447483
O32	O	1.608705	-0.250599	0.947483
O33	O	1.018335	-0.750533	0.578208
O34	O	1.518335	-0.250533	1.078208
C35	C	0.872372	-0.512627	0.512844
C36	C	1.372372	-0.012627	1.012844
C37	C	0.790574	-0.512645	0.512856
C38	C	1.290574	-0.012645	1.012856
C39	C	0.602395	-0.580798	0.580838
C40	C	1.102395	-0.080798	1.080838
C41	C	0.525537	-0.580802	0.580852
C42	C	1.025537	-0.080802	1.080852
C43	C	0.525514	-0.444511	0.444933
C44	C	1.025514	0.055489	0.944933
C45	C	0.602371	-0.444504	0.444926
C46	C	1.102371	0.055496	0.944926
C47	C	0.640810	-0.512653	0.512877
C48	C	1.140810	-0.012653	1.012877
C49	C	0.487094	-0.512664	0.512898
C50	C	0.987094	-0.012664	1.012898
C51	C	0.403760	-0.512667	0.512911
C52	C	0.903760	-0.012667	1.012911
C53	C	0.724149	-0.512649	0.512865
C54	C	1.224149	-0.012649	1.012865
C55	C	1.063531	-0.789186	0.512864
C56	C	1.563531	-0.289186	1.012864
C57	C	1.063577	-0.907492	0.512895
C58	C	1.563577	-0.407492	1.012895
C59	C	1.014420	-0.976748	0.583946
C60	C	1.514420	-0.476748	1.083946
C61	C	0.996487	-1.047623	0.486823
C62	C	1.496487	-0.547623	0.986823
C63	C	1.081577	-1.047415	0.610035
C64	C	1.581577	-0.547415	1.110035
C65	C	1.045609	-0.976809	0.415720
C66	C	1.545609	-0.476809	0.915720
C67	C	1.130730	-0.976595	0.538997
C68	C	1.630730	-0.476595	1.038997
C69	C	1.112823	-1.047438	0.441807
C70	C	1.612823	-0.547438	0.941807
C71	C	1.255532	-0.512664	0.512905
C72	C	1.755532	-0.012664	1.012905
C73	C	1.337331	-0.512672	0.512919
C74	C	1.837331	-0.012672	1.012919
C75	C	1.063633	-0.512524	0.790495
C76	C	1.563633	-0.012524	1.290495
C77	C	1.063656	-0.512473	0.908801
C78	C	1.563656	-0.012473	1.408801
C79	C	1.063647	-0.235024	0.512908
C80	C	1.563647	0.264976	1.012908
C81	C	1.063676	-0.116719	0.512922
C82	C	1.563676	0.383281	1.012922
C83	C	1.063567	-0.512689	0.236333
C84	C	1.563567	-0.012689	0.736333
C85	C	1.063687	-0.512440	0.118028
C86	C	1.563687	-0.012440	0.618028
C87	C	1.112857	-0.441347	1.048834
C88	C	1.612857	0.058653	1.548834
C89	C	1.130826	-0.538468	0.978017
C90	C	1.630826	-0.038468	1.478017
C91	C	1.045720	-0.415363	0.978047
C92	C	1.545720	0.084637	1.478047
C93	C	1.081690	-0.609612	1.048769
C94	C	1.581690	-0.109612	1.548769
C95	C	0.996553	-0.486442	1.048805
C96	C	1.496553	0.013558	1.548805
C97	C	1.014496	-0.583630	0.978020
C98	C	1.514496	-0.083630	1.478020
H99	H	0.494263	-0.636291	0.636194
H100	H	0.994263	-0.136291	1.136194
H101	H	1.030359	-0.945922	0.333559
H102	H	1.530359	-0.445922	0.833559
H103	H	0.633649	-0.389005	0.389584
H104	H	1.133649	0.110995	0.889584
O105	O	1.162558	-1.084121	0.370131
O106	O	1.662558	-0.584121	0.870131
C107	C	1.233046	-1.046358	0.396937
C108	C	1.733046	-0.546358	0.896937
H109	H	1.227673	-0.971407	0.447121
H110	H	1.727673	-0.471407	0.947121
H111	H	1.264831	-1.027408	0.321326
H112	H	1.764831	-0.527408	0.821326
H113	H	1.263634	-1.109719	0.444039
H114	H	1.763634	-0.609719	0.944039
H115	H	0.972901	-0.643834	0.947124
H116	H	1.472901	-0.143834	1.447124
O117	O	1.198386	-0.939390	0.565547
O118	O	1.698386	-0.439390	1.065547
C119	C	1.217107	-0.975321	0.668045
C120	C	1.717107	-0.475321	1.168045
H121	H	1.164950	-0.995245	0.713898
H122	H	1.664950	-0.495245	1.213898
H123	H	1.248663	-0.910453	0.711735
H124	H	1.748663	-0.410453	1.211735
H125	H	1.252848	-1.049316	0.661385
H126	H	1.752848	-0.549316	1.161385
H127	H	0.494208	-0.389028	0.389609
H128	H	0.994208	0.110972	0.889609
H129	H	0.939744	-1.078845	0.464768
H130	H	1.439744	-0.578845	0.964768
H131	H	0.939810	-0.464402	1.079924
H132	H	1.439810	0.035598	1.579924
O133	O	0.964642	-0.939758	0.655404
O134	O	1.464642	-0.439758	1.155404
C135	C	0.893969	-0.975978	0.627506
C136	C	1.393969	-0.475978	1.127506
H137	H	0.892622	-0.995896	0.539220
H138	H	1.392622	-0.495896	1.039220
H139	H	0.851949	-0.911286	0.645194
H140	H	1.351949	-0.411286	1.145194
H141	H	0.880187	-1.050037	0.675545
H142	H	1.380187	-0.550037	1.175545
O143	O	1.100018	-0.707530	1.085710
O144	O	1.600018	-0.207530	1.585710
C145	C	1.164130	-0.700027	1.148030
C146	C	1.664130	-0.200027	1.648030
H147	H	1.196115	-0.625864	1.124540
H148	H	1.696115	-0.125864	1.624540
H149	H	1.199699	-0.773243	1.134447
H150	H	1.699699	-0.273243	1.634447
H151	H	1.148418	-0.694910	1.235494
H152	H	1.648418	-0.194910	1.735494
H153	H	1.096761	-1.078431	0.692174
H154	H	1.596761	-0.578431	1.192174
H155	H	1.154484	-0.381287	1.079926
H156	H	1.654484	0.118713	1.579926
H157	H	1.187586	-0.560477	0.946920
H158	H	1.687586	-0.060477	1.446920
O159	O	1.027687	-0.317329	0.941111
O160	O	1.527687	0.182671	1.441111
C161	C	1.079702	-0.242623	0.977173
C162	C	1.579702	0.257377	1.477173
H163	H	1.107738	-0.274151	1.051696
H164	H	1.607738	0.225849	1.551696
H165	H	1.050871	-0.164592	0.996273
H166	H	1.550871	0.335408	1.496273
H167	H	1.122556	-0.228715	0.912713
H168	H	1.622556	0.271285	1.412713
H169	H	0.633690	-0.636287	0.636171
H170	H	1.133690	-0.136287	1.136171
