data_functionalizedCrystal
_audit_creation_method	'MofGen! by Chris Wilmer'
_symmetry_space_group_name_H-M	'P1'
_symmetry_Int_Tables_number	1
_symmetry_cell_setting	triclinic
loop_
_symmetry_equiv_pos_as_xyz
  x,y,z
_cell_length_a	11.792241
_cell_length_b	11.792241
_cell_length_c	10.868271
_cell_angle_alpha	90.005281
_cell_angle_beta	90.000107
_cell_angle_gamma	84.193416
loop_
_atom_site_label
_atom_site_type_symbol
_atom_site_fract_x
_atom_site_fract_y
_atom_site_fract_z
O1	O	-1.506908	-0.155568	-0.102203
O2	O	-1.006908	0.344432	0.397797
O3	O	-1.176567	-0.171601	-0.102232
O4	O	-0.676567	0.328399	0.397768
O5	O	-1.349754	0.001586	-0.102208
O6	O	-0.849754	0.501586	0.397792
O7	O	-1.333721	-0.328755	-0.102227
O8	O	-0.833721	0.171245	0.397773
O9	O	-1.349740	0.001592	0.102436
O10	O	-0.849740	0.501592	0.602436
O11	O	-1.176553	-0.171595	0.102413
O12	O	-0.676553	0.328405	0.602413
O13	O	-1.506894	-0.155562	0.102441
O14	O	-1.006894	0.344438	0.602441
Zn15	Zn	-1.341721	-0.163577	0.134919
Zn16	Zn	-0.841721	0.336423	0.634919
Zn17	Zn	-1.341740	-0.163586	-0.134709
Zn18	Zn	-0.841740	0.336414	0.365291
O19	O	-1.333707	-0.328749	0.102418
O20	O	-0.833707	0.171251	0.602418
C21	C	-1.348740	0.043880	0.000114
C22	C	-0.848740	0.543880	0.500114
C23	C	-1.345726	0.169894	0.000112
C24	C	-0.845726	0.669894	0.500112
C25	C	-1.134269	-0.170591	0.000087
C26	C	-0.634269	0.329409	0.500087
C27	C	-1.008255	-0.167576	0.000076
C28	C	-0.508255	0.332424	0.500076
C29	C	-1.549192	-0.156572	0.000120
C30	C	-1.049192	0.343428	0.500120
C31	C	-1.675206	-0.159587	0.000123
C32	C	-1.175206	0.340413	0.500123
C33	C	-0.777543	-0.162034	0.000112
C34	C	-0.277543	0.337966	0.500112
C35	C	-0.905928	-0.165113	0.000092
C36	C	-0.405928	0.334887	0.500092
C37	C	-1.334721	-0.371043	0.000093
C38	C	-0.834721	0.128957	0.500093
C39	C	-1.337736	-0.497057	0.000087
C40	C	-0.837736	0.002943	0.500087
N41	N	-1.341717	-0.163570	0.318933
N42	N	-0.841717	0.336430	0.818933
C43	C	-1.340183	0.400606	0.000091
C44	C	-0.840183	0.900606	0.500091
C45	C	-1.343262	0.272221	0.000102
C46	C	-0.843262	0.772221	0.500102
N47	N	-1.341754	-0.163584	-0.318723
N48	N	-0.841754	0.336416	0.181277
C49	C	-1.341734	-0.163584	0.569939
C50	C	-0.841734	0.336416	1.069939
C51	C	-1.341721	-0.163580	0.430261
C52	C	-0.841721	0.336420	0.930261
