data_functionalizedCrystal
_audit_creation_method	'MofGen! by Chris Wilmer'
_symmetry_space_group_name_H-M	'P1'
_symmetry_Int_Tables_number	1
_symmetry_cell_setting	triclinic
loop_
_symmetry_equiv_pos_as_xyz
  x,y,z
_cell_length_a	27.732025
_cell_length_b	27.732048
_cell_length_c	26.210047
_cell_angle_alpha	90.003465
_cell_angle_beta	90.019000
_cell_angle_gamma	97.361939
loop_
_atom_site_label
_atom_site_type_symbol
_atom_site_fract_x
_atom_site_fract_y
_atom_site_fract_z
O1	O	0.057511	-0.640926	-0.042348
O2	O	0.557511	-0.140926	0.457652
O3	O	0.066256	-0.500132	-0.042361
O4	O	0.566256	-0.000132	0.457639
O5	O	-0.008514	-0.574908	-0.042370
O6	O	0.491486	-0.074908	0.457630
O7	O	0.132281	-0.566151	-0.042339
O8	O	0.632281	-0.066151	0.457661
O9	O	-0.008502	-0.574893	0.042488
O10	O	0.491498	-0.074893	0.542488
O11	O	0.066268	-0.500118	0.042497
O12	O	0.566268	-0.000118	0.542497
O13	O	0.057522	-0.640912	0.042510
O14	O	0.557522	-0.140912	0.542510
Cu15	Cu	0.061896	-0.570514	0.050252
Cu16	Cu	0.561896	-0.070514	0.550252
Cu17	Cu	0.061882	-0.570531	-0.050103
Cu18	Cu	0.561882	-0.070531	0.449897
O19	O	0.132293	-0.566137	0.042519
O20	O	0.632293	-0.066137	0.542519
C21	C	0.066079	-0.482118	0.000066
C22	C	0.566079	0.017882	0.500066
C23	C	0.065526	-0.428463	0.000060
C24	C	0.565526	0.071537	0.500060
N25	N	0.061906	-0.570505	0.120836
N26	N	0.561906	-0.070505	0.620836
C27	C	-0.026515	-0.574719	0.000054
C28	C	0.473485	-0.074719	0.500054
C29	C	-0.080171	-0.574170	0.000039
C30	C	0.419829	-0.074170	0.500039
C31	C	-0.463343	-0.570281	-0.046188
C32	C	0.036657	-0.070281	0.453812
C33	C	-0.261683	-0.572334	-0.046204
C34	C	0.238317	-0.072334	0.453796
O35	O	-0.235621	-0.572625	-0.085544
O36	O	0.264379	-0.072625	0.414456
N37	N	-0.236456	-0.572582	0.000051
N38	N	0.263544	-0.072582	0.500051
C39	C	-0.261646	-0.572321	0.046313
C40	C	0.238354	-0.072321	0.546313
O41	O	-0.235562	-0.572585	0.085655
O42	O	0.264438	-0.072585	0.585655
C43	C	-0.463305	-0.570272	0.046329
C44	C	0.036695	-0.070272	0.546329
C45	C	-0.488530	-0.570019	0.000071
C46	C	0.011470	-0.070019	0.500071
C47	C	-0.488567	-0.570028	-0.092442
C48	C	0.011433	-0.070028	0.407558
C49	C	-0.538979	-0.569512	-0.092437
C50	C	-0.038979	-0.069512	0.407563
C51	C	-0.564166	-0.569250	-0.046179
C52	C	-0.064166	-0.069250	0.453821
C53	C	-0.538941	-0.569503	0.000075
C54	C	-0.038941	-0.069503	0.500075
C55	C	-0.488496	-0.570014	0.092590
C56	C	0.011504	-0.070014	0.592590
C57	C	-0.538914	-0.569503	0.092590
C58	C	-0.038914	-0.069503	0.592590
C59	C	-0.564138	-0.569250	0.046332
C60	C	-0.064138	-0.069250	0.546332
C61	C	-0.614540	-0.568724	0.046339
C62	C	-0.114540	-0.068724	0.546339
N63	N	-0.639767	-0.568476	0.000084
N64	N	-0.139767	-0.068476	0.500084
C65	C	-0.614580	-0.568738	-0.046175
C66	C	-0.114580	-0.068738	0.453825
C67	C	-0.155772	-0.573396	0.046301
C68	C	0.344228	-0.073396	0.546301
C69	C	-0.105358	-0.573907	0.046298
C70	C	0.394642	-0.073907	0.546298
C71	C	-0.105398	-0.573921	-0.046219
C72	C	0.394602	-0.073921	0.453781
C73	C	-0.155813	-0.573406	-0.046215
C74	C	0.344187	-0.073406	0.453785
C75	C	-0.181000	-0.573147	0.000047
C76	C	0.319000	-0.073147	0.500047
C77	C	-0.720448	-0.567655	-0.046162
C78	C	-0.220448	-0.067655	0.453838
C79	C	-0.770864	-0.567137	-0.046153
C80	C	-0.270864	-0.067137	0.453847
C81	C	-0.770819	-0.567126	0.046364
C82	C	-0.270819	-0.067126	0.546364
C83	C	-0.720408	-0.567641	0.046355
C84	C	-0.220408	-0.067641	0.546355
C85	C	-0.695223	-0.567907	0.000088
C86	C	-0.195223	-0.067907	0.500088
O87	O	-0.640634	-0.568438	0.085658
O88	O	-0.140634	-0.068438	0.585658
O89	O	-0.640675	-0.568485	-0.085511
O90	O	-0.140675	-0.068485	0.414489
C91	C	-0.412931	-0.570797	-0.046192
C92	C	0.087069	-0.070797	0.453808
C93	C	-0.387707	-0.571050	0.000062
C94	C	0.112293	-0.071050	0.500062
C95	C	-0.412894	-0.570787	0.046320
C96	C	0.087106	-0.070787	0.546320
C97	C	-0.337292	-0.571561	0.000058
C98	C	0.162708	-0.071561	0.500058
C99	C	-0.312105	-0.571824	-0.046201
C100	C	0.187895	-0.071824	0.453799
C101	C	-0.337333	-0.571575	-0.092455
C102	C	0.162667	-0.071575	0.407545
C103	C	-0.387744	-0.571060	-0.092451
C104	C	0.112256	-0.071060	0.407549
C105	C	-0.387666	-0.571036	0.092575
C106	C	0.112334	-0.071036	0.592575
C107	C	-0.337255	-0.571551	0.092567
C108	C	0.162745	-0.071551	0.592567
C109	C	-0.312068	-0.571814	0.046308
C110	C	0.187932	-0.071814	0.546308
C111	C	0.150294	-0.566326	0.000094
C112	C	0.650294	-0.066326	0.500094
C113	C	0.203949	-0.566874	0.000105
C114	C	0.703949	-0.066874	0.500105
C115	C	0.057700	-0.658926	0.000082
C116	C	0.557700	-0.158926	0.500082
C117	C	0.058253	-0.712581	0.000085
C118	C	0.558253	-0.212581	0.500085
C119	C	0.106230	-0.089645	0.000091
C120	C	0.606230	0.410355	0.500091
C121	C	0.104179	0.112014	0.000095
C122	C	0.604179	0.612014	0.500095
O123	O	0.141400	0.143273	0.000125
O124	O	0.641400	0.643273	0.500125
N125	N	0.059843	0.131135	0.000085
N126	N	0.559843	0.631135	0.500085
C127	C	0.016017	0.099836	0.000076
C128	C	0.516017	0.599836	0.500076
O129	O	-0.021740	0.120726	0.000073
O130	O	0.478260	0.620726	0.500073
C131	C	0.018069	-0.101822	0.000076
C132	C	0.518069	0.398178	0.500076
C133	C	0.062407	-0.120939	0.000081
C134	C	0.562407	0.379061	0.500081
C135	C	0.150565	-0.108763	0.000097
C136	C	0.650565	0.391237	0.500097
C137	C	0.151077	-0.159175	0.000093
C138	C	0.651077	0.340825	0.500093
C139	C	0.107255	-0.190469	0.000083
C140	C	0.607255	0.309531	0.500083
C141	C	0.062920	-0.171351	0.000077
C142	C	0.562920	0.328649	0.500077
C143	C	-0.025757	-0.133119	0.000072
C144	C	0.474243	0.366881	0.500072
C145	C	-0.025240	-0.183537	0.000073
C146	C	0.474760	0.316463	0.500073
C147	C	0.019099	-0.202654	0.000078
C148	C	0.519099	0.297346	0.500078
C149	C	0.019609	-0.253057	0.000064
C150	C	0.519609	0.246943	0.500064
N151	N	0.063945	-0.272177	0.000074
N152	N	0.563945	0.227823	0.500074
C153	C	0.107768	-0.240883	0.000084
C154	C	0.607768	0.259117	0.500084
C155	C	0.014943	0.205710	0.000076
C156	C	0.514943	0.705710	0.500076
C157	C	0.014430	0.256125	0.000075
C158	C	0.514430	0.756125	0.500075
C159	C	0.102592	0.268299	0.000094
C160	C	0.602592	0.768299	0.500094
C161	C	0.103105	0.217884	0.000092
C162	C	0.603105	0.717884	0.500092
C163	C	0.059279	0.186590	0.000086
C164	C	0.559279	0.686590	0.500086
C165	C	0.108840	-0.346752	0.000076
C166	C	0.608840	0.153248	0.500076
C167	C	0.109348	-0.397169	0.000070
C168	C	0.609348	0.102831	0.500070
C169	C	0.021187	-0.409339	0.000053
C170	C	0.521187	0.090661	0.500053
C171	C	0.020678	-0.358927	0.000056
C172	C	0.520678	0.141073	0.500056
C173	C	0.064509	-0.327634	0.000069
C174	C	0.564509	0.172366	0.500069
O175	O	-0.017592	-0.284344	0.000040
O176	O	0.482408	0.215656	0.500040
O177	O	0.145519	-0.261783	0.000099
O178	O	0.645519	0.238217	0.500099
C179	C	0.105718	-0.039233	0.000095
C180	C	0.605718	0.460767	0.500095
C181	C	0.061383	-0.020115	0.000089
C182	C	0.561383	0.479885	0.500089
C183	C	0.017560	-0.051410	0.000079
C184	C	0.517560	0.448590	0.500079
C185	C	0.060870	0.030299	0.000088
C186	C	0.560870	0.530299	0.500088
C187	C	0.104692	0.061593	0.000098
C188	C	0.604692	0.561593	0.500098
C189	C	0.149028	0.042473	0.000108
C190	C	0.649028	0.542473	0.500108
C191	C	0.149540	-0.007939	0.000104
C192	C	0.649540	0.492061	0.500104
C193	C	-0.026776	-0.032289	0.000069
C194	C	0.473224	0.467711	0.500069
C195	C	-0.027284	0.018123	0.000072
C196	C	0.472716	0.518123	0.500072
C197	C	0.016538	0.049417	0.000082
C198	C	0.516538	0.549417	0.500082
N199	N	0.061869	-0.570543	-0.120687
N200	N	0.561869	-0.070543	0.379313
C201	C	0.028782	-0.603638	0.473346
C202	C	0.528782	-0.103638	0.973346
C203	C	0.028775	-0.603649	0.687005
C204	C	0.528775	-0.103649	1.187005
O205	O	0.000614	-0.631801	0.714623
O206	O	0.500614	-0.131801	1.214623
N207	N	0.061872	-0.570533	0.713730
N208	N	0.561872	-0.070533	1.213730
C209	C	0.094971	-0.537411	0.687037
C210	C	0.594971	-0.037411	1.187037
O211	O	0.123118	-0.509241	0.714671
O212	O	0.623118	-0.009241	1.214671
C213	C	0.094975	-0.537398	0.473379
C214	C	0.594975	-0.037398	0.973379
C215	C	0.061879	-0.570519	0.446657
C216	C	0.561879	-0.070519	0.946657
C217	C	-0.004312	-0.636756	0.446624
C218	C	0.495688	-0.136756	0.946624
C219	C	-0.004308	-0.636754	0.393212
C220	C	0.495692	-0.136754	0.893212
C221	C	0.028789	-0.603635	0.366523
C222	C	0.528789	-0.103635	0.866523
C223	C	0.061883	-0.570518	0.393245
C224	C	0.561883	-0.070518	0.893245
C225	C	0.128071	-0.504274	0.446687
C226	C	0.628071	-0.004274	0.946687
C227	C	0.128068	-0.504273	0.393269
C228	C	0.628068	-0.004273	0.893269
C229	C	0.094972	-0.537394	0.366547
C230	C	0.594972	-0.037394	0.866547
C231	C	0.094984	-0.537398	0.313145
C232	C	0.594984	-0.037398	0.813145
N233	N	0.061887	-0.570513	0.286420
N234	N	0.561887	-0.070513	0.786420
C235	C	0.028789	-0.603632	0.313109
C236	C	0.528789	-0.103632	0.813109
C237	C	0.094967	-0.537421	0.799210
C238	C	0.594967	-0.037421	1.299210
C239	C	0.094967	-0.537424	0.852624
C240	C	0.594967	-0.037424	1.352624
C241	C	0.028770	-0.603661	0.852588
C242	C	0.528770	-0.103661	1.352588
C243	C	0.028773	-0.603660	0.799173
C244	C	0.528773	-0.103660	1.299173
C245	C	0.061870	-0.570536	0.772485
C246	C	0.561870	-0.070536	1.272485
C247	C	0.028800	-0.603627	0.200941
C248	C	0.528800	-0.103627	0.700941
C249	C	0.028808	-0.603624	0.147525
C250	C	0.528808	-0.103624	0.647525
C251	C	0.095003	-0.537385	0.147565
C252	C	0.595003	-0.037385	0.647565
C253	C	0.094997	-0.537390	0.200977
C254	C	0.594997	-0.037390	0.700977
C255	C	0.061891	-0.570512	0.227663
C256	C	0.561891	-0.070512	0.727663
O257	O	0.123126	-0.509257	0.285493
O258	O	0.623126	-0.009257	0.785493
O259	O	0.000639	-0.631790	0.285466
O260	O	0.500639	-0.131790	0.785466
C261	C	0.028778	-0.603639	0.526757
C262	C	0.528778	-0.103639	1.026757
C263	C	0.061871	-0.570522	0.553480
C264	C	0.561871	-0.070522	1.053480
C265	C	0.094969	-0.537403	0.526791
C266	C	0.594969	-0.037403	1.026791
C267	C	0.061871	-0.570525	0.606894
C268	C	0.561871	-0.070525	1.106894
C269	C	0.028774	-0.603644	0.633583
C270	C	0.528774	-0.103644	1.133583
C271	C	-0.004323	-0.636759	0.606858
C272	C	0.495677	-0.136759	1.106858
C273	C	-0.004320	-0.636758	0.553446
C274	C	0.495680	-0.136758	1.053446
C275	C	0.128066	-0.504287	0.553516
C276	C	0.628066	-0.004287	1.053516
C277	C	0.128060	-0.504292	0.606927
C278	C	0.628060	-0.004292	1.106927
C279	C	0.094962	-0.537411	0.633616
C280	C	0.594962	-0.037411	1.133616
H281	H	-0.791399	-0.566929	-0.083823
H282	H	-0.291399	-0.066929	0.416177
H283	H	-0.021675	0.271685	0.000063
H284	H	0.478325	0.771685	0.500063
O285	O	-0.080874	-0.574089	-0.091131
O286	O	0.419126	-0.074089	0.408869
C287	C	-0.045952	-0.532487	-0.093895
C288	C	0.454048	-0.032487	0.406105
H289	H	-0.036451	-0.518614	-0.053728
H290	H	0.463549	-0.018614	0.446272
H291	H	-0.011809	-0.542245	-0.113492
H292	H	0.488191	-0.042245	0.386508
H293	H	-0.061358	-0.502962	-0.116699
H294	H	0.438642	-0.002962	0.383301
O295	O	-0.463955	-0.570331	0.137492
O296	O	0.036045	-0.070331	0.637492
C297	C	-0.440591	-0.612516	0.140260
C298	C	0.059409	-0.112516	0.640260
H299	H	-0.434979	-0.626554	0.100096
H300	H	0.065021	-0.126554	0.600096
H301	H	-0.403833	-0.603462	0.159841
H302	H	0.096167	-0.103462	0.659841
H303	H	-0.464068	-0.641644	0.163082
H304	H	0.035932	-0.141644	0.663082
O305	O	-0.696060	-0.567888	-0.091150
O306	O	-0.196060	-0.067888	0.408850
C307	C	-0.729144	-0.567566	-0.131969
C308	C	-0.229144	-0.067566	0.368031
H309	H	-0.762959	-0.551890	-0.118397
H310	H	-0.262959	-0.051890	0.381603
H311	H	-0.711353	-0.544239	-0.164324
H312	H	-0.211353	-0.044239	0.335676
H313	H	-0.739873	-0.606306	-0.146193
H314	H	-0.239873	-0.106306	0.353807
O315	O	-0.003450	-0.635812	0.878463
O316	O	0.496550	-0.135812	1.378463
C317	C	-0.051247	-0.628304	0.865407
C318	C	0.448753	-0.128304	1.365407
H319	H	-0.051059	-0.609674	0.826624
H320	H	0.448941	-0.109674	1.326624
H321	H	-0.075309	-0.664815	0.863573
H322	H	0.424691	-0.164815	1.363573
H323	H	-0.066024	-0.604352	0.895464
H324	H	0.433976	-0.104352	1.395464
H325	H	-0.316816	-0.571786	-0.130121
H326	H	0.183184	-0.071786	0.369879
H327	H	-0.014493	-0.434828	0.000043
H328	H	0.485507	0.065172	0.500043
H329	H	0.121921	-0.510459	0.874378
H330	H	0.621921	-0.010459	1.374378
H331	H	0.155019	-0.477298	0.371542
H332	H	0.655019	0.022702	0.871542
O333	O	0.127169	-0.505226	0.773368
O334	O	0.627169	-0.005226	1.273368
C335	C	0.156369	-0.475995	0.808416
C336	C	0.656369	0.024005	1.308416
H337	H	0.156772	-0.495816	0.846487
H338	H	0.656772	0.004184	1.346487
H339	H	0.195028	-0.468327	0.793004
H340	H	0.695028	0.031673	1.293004
H341	H	0.140922	-0.440207	0.814098
H342	H	0.640922	0.059793	1.314098
H343	H	-0.020747	0.180235	0.000071
H344	H	0.479253	0.680235	0.500071
O345	O	-0.036512	-0.668865	0.472567
O346	O	0.463488	-0.168865	0.972567
C347	C	-0.066156	-0.643218	0.503469
C348	C	0.433844	-0.143218	1.003469
H349	H	-0.066712	-0.605100	0.487385
H350	H	0.433288	-0.105100	0.987385
H351	H	-0.104713	-0.663235	0.504050
H352	H	0.395287	-0.163235	1.004050
H353	H	-0.051015	-0.640579	0.543958
H354	H	0.448985	-0.140579	1.043958
O355	O	0.160287	-0.472163	0.527619
O356	O	0.660287	0.027837	1.027619
C357	C	0.208081	-0.479656	0.540708
C358	C	0.708081	0.020344	1.040708
H359	H	0.208044	-0.518356	0.555384
H360	H	0.708044	-0.018356	1.055384
H361	H	0.232389	-0.473909	0.505597
H362	H	0.732389	0.026091	1.005597
H363	H	0.222459	-0.452762	0.571727
H364	H	0.722459	0.047238	1.071727
O365	O	0.160165	-0.472050	0.632859
O366	O	0.660165	0.027950	1.132859
C367	C	0.152638	-0.424264	0.619791
C368	C	0.652638	0.075736	1.119791
H369	H	0.113936	-0.424328	0.605093
H370	H	0.613936	0.075672	1.105093
H371	H	0.158362	-0.399959	0.654919
H372	H	0.658362	0.100041	1.154919
H373	H	0.179529	-0.409864	0.588796
H374	H	0.679529	0.090136	1.088796
H375	H	0.155020	-0.477304	0.468437
H376	H	0.655020	0.022696	0.968437
H377	H	-0.060929	-0.209014	0.000069
H378	H	0.439071	0.290986	0.500069
H379	H	-0.408169	-0.570824	0.130245
H380	H	0.091831	-0.070824	0.630245
O381	O	0.127164	-0.505170	0.226859
O382	O	0.627164	-0.005170	0.726859
C383	C	0.156385	-0.475948	0.191846
C384	C	0.656385	0.024052	0.691846
H385	H	0.136575	-0.475559	0.153760
H386	H	0.636575	0.024441	0.653760
H387	H	0.164018	-0.437288	0.207280
H388	H	0.664018	0.062712	0.707280
H389	H	0.192191	-0.491364	0.186185
H390	H	0.692191	0.008636	0.686185
H391	H	-0.061862	-0.117563	0.000068
H392	H	0.438138	0.382437	0.500068
O393	O	0.145207	0.298635	0.000084
O394	O	0.645207	0.798635	0.500084
C395	C	0.184454	0.270956	0.000110
C396	C	0.684454	0.770956	0.500110
H397	H	0.171903	0.233232	-0.015961
H398	H	0.671903	0.733232	0.484039
H399	H	0.215133	0.289785	-0.024514
H400	H	0.715133	0.789785	0.475486
H401	H	0.198062	0.267469	0.040826
H402	H	0.698062	0.767469	0.540826
H403	H	-0.559512	-0.569309	-0.130105
H404	H	-0.059512	-0.069309	0.369895
O405	O	0.193151	-0.078388	0.000013
O406	O	0.693151	0.421612	0.500013
C407	C	0.220085	-0.087025	-0.043926
C408	C	0.720085	0.412975	0.456074
H409	H	0.194423	-0.104446	-0.074645
H410	H	0.694423	0.395554	0.425355
H411	H	0.239747	-0.051115	-0.058678
H412	H	0.739747	0.448885	0.441322
H413	H	0.247863	-0.112498	-0.033985
H414	H	0.747863	0.387502	0.466015
H415	H	-0.063393	0.033683	0.000064
H416	H	0.436607	0.533683	0.500064
H417	H	-0.031271	-0.663728	0.628597
H418	H	0.468729	-0.163728	1.128597
H419	H	-0.084823	-0.574105	0.083965
H420	H	0.415177	-0.074105	0.583965
H421	H	0.001823	-0.630629	0.777419
H422	H	0.501823	-0.130629	1.277419
O423	O	-0.003437	-0.635750	0.121622
O424	O	0.496563	-0.135750	0.621622
C425	C	-0.051215	-0.628228	0.134713
C426	C	0.448785	-0.128228	0.634713
H427	H	-0.051148	-0.589518	0.149377
H428	H	0.448852	-0.089518	0.649377
H429	H	-0.075550	-0.633981	0.099605
H430	H	0.424450	-0.133981	0.599605
H431	H	-0.065581	-0.655102	0.165741
H432	H	0.434419	-0.155102	0.665741
H433	H	-0.176275	-0.573186	0.083976
H434	H	0.323725	-0.073186	0.583976
H435	H	-0.408277	-0.570853	-0.130119
H436	H	0.091723	-0.070853	0.369881
O437	O	0.194138	-0.177760	0.000005
O438	O	0.694138	0.322240	0.500005
C439	C	0.197066	-0.206564	-0.043941
C440	C	0.697066	0.293436	0.456059
H441	H	0.171884	-0.194836	-0.074658
H442	H	0.671884	0.305164	0.425342
H443	H	0.236054	-0.201738	-0.058690
H444	H	0.736054	0.298262	0.441310
H445	H	0.185628	-0.246410	-0.034009
H446	H	0.685628	0.253590	0.465991
O447	O	-0.069392	-0.062616	0.000035
O448	O	0.430608	0.437384	0.500035
C449	C	-0.108628	-0.034924	0.000040
C450	C	0.391372	0.465076	0.500040
H451	H	-0.096066	0.002798	-0.016018
H452	H	0.403934	0.502798	0.483982
H453	H	-0.139314	-0.053743	-0.024607
H454	H	0.360686	0.446257	0.475393
H455	H	-0.122233	-0.031433	0.040748
H456	H	0.377767	0.468567	0.540748
H457	H	-0.015426	-0.343361	0.000044
H458	H	0.484574	0.156639	0.500044
O459	O	0.192654	-0.026425	0.000135
O460	O	0.692654	0.473575	0.500135
C461	C	0.231217	0.012015	0.000132
C462	C	0.731217	0.512015	0.500132
H463	H	0.217925	0.046165	0.016195
H464	H	0.717925	0.546165	0.516195
H465	H	0.262200	0.001714	0.024775
H466	H	0.762200	0.501714	0.524775
H467	H	0.244711	0.019248	-0.040576
H468	H	0.744711	0.519248	0.459424
O469	O	-0.563302	-0.569230	0.137576
O470	O	-0.063302	-0.069230	0.637576
C471	C	-0.530225	-0.569576	0.178398
C472	C	-0.030225	-0.069576	0.678398
H473	H	-0.492179	-0.554636	0.164832
H474	H	0.007821	-0.054636	0.664832
H475	H	-0.541532	-0.545948	0.210754
H476	H	-0.041532	-0.045948	0.710754
H477	H	-0.530217	-0.608424	0.192620
H478	H	-0.030217	-0.108424	0.692620
H479	H	0.001842	-0.630598	0.222663
H480	H	0.501842	-0.130598	0.722663
H481	H	0.144531	-0.321279	0.000088
H482	H	0.644531	0.178721	0.500088
O483	O	0.152464	-0.415658	0.000099
O484	O	0.652464	0.084342	0.500099
C485	C	0.191031	-0.377222	0.000097
C486	C	0.691031	0.122778	0.500097
H487	H	0.177743	-0.343071	0.016162
H488	H	0.677743	0.156929	0.516162
H489	H	0.222013	-0.387528	0.024739
H490	H	0.722013	0.112472	0.524739
H491	H	0.204525	-0.369988	-0.040610
H492	H	0.704525	0.130012	0.459390
O493	O	-0.464177	-0.570259	-0.137427
O494	O	0.035823	-0.070259	0.362573
C495	C	-0.497263	-0.569939	-0.178244
C496	C	0.002737	-0.069939	0.321756
H497	H	-0.531079	-0.554267	-0.164671
H498	H	-0.031079	-0.054267	0.335329
H499	H	-0.479475	-0.546611	-0.210600
H500	H	0.020525	-0.046611	0.289400
H501	H	-0.507988	-0.608680	-0.192468
H502	H	-0.007988	-0.108680	0.307532
H503	H	-0.176347	-0.573198	-0.083882
H504	H	0.323653	-0.073198	0.416118
O505	O	-0.695977	-0.567890	0.091334
O506	O	-0.195977	-0.067890	0.591334
C507	C	-0.729018	-0.567524	0.132164
C508	C	-0.229018	-0.067524	0.632164
H509	H	-0.767074	-0.582477	0.118611
H510	H	-0.267074	-0.082477	0.618611
H511	H	-0.717678	-0.591132	0.164526
H512	H	-0.217678	-0.091132	0.664526
H513	H	-0.729018	-0.528669	0.146370
H514	H	-0.229018	-0.028669	0.646370
O515	O	-0.036518	-0.668948	0.527571
O516	O	0.463482	-0.168948	1.027571
C517	C	-0.065719	-0.698184	0.562591
C518	C	0.434281	-0.198184	1.062591
H519	H	-0.066125	-0.678368	0.600666
H520	H	0.433875	-0.178368	1.100666
H521	H	-0.104377	-0.705852	0.547148
H522	H	0.395623	-0.205852	1.047148
H523	H	-0.050271	-0.733972	0.568275
H524	H	0.449729	-0.233972	1.068275
O525	O	-0.795337	-0.566810	0.091264
O526	O	-0.295337	-0.066810	0.591264
C527	C	-0.818706	-0.524630	0.094042
C528	C	-0.318706	-0.024630	0.594042
H529	H	-0.824339	-0.510588	0.053881
H530	H	-0.324339	-0.010588	0.553881
H531	H	-0.855455	-0.533692	0.113613
H532	H	-0.355455	-0.033692	0.613613
H533	H	-0.795224	-0.495502	0.116877
H534	H	-0.295224	0.004498	0.616877
H535	H	-0.031259	-0.663723	0.371458
H536	H	0.468741	-0.163723	0.871458
H537	H	-0.316721	-0.571753	0.130238
H538	H	0.183279	-0.071753	0.630238
H539	H	0.139209	0.202323	0.000099
H540	H	0.639209	0.702323	0.500099
H541	H	0.184710	0.067962	0.000114
H542	H	0.684710	0.567962	0.500114
H543	H	0.121952	-0.510422	0.125827
H544	H	0.621952	-0.010422	0.625827
