data_functionalizedCrystal
_audit_creation_method	'MofGen! by Chris Wilmer'
_symmetry_space_group_name_H-M	'P1'
_symmetry_Int_Tables_number	1
_symmetry_cell_setting	triclinic
loop_
_symmetry_equiv_pos_as_xyz
  x,y,z
_cell_length_a	19.121241
_cell_length_b	19.121063
_cell_length_c	19.121324
_cell_angle_alpha	89.866514
_cell_angle_beta	90.083384
_cell_angle_gamma	95.003121
loop_
_atom_site_label
_atom_site_type_symbol
_atom_site_fract_x
_atom_site_fract_y
_atom_site_fract_z
Zn1	Zn	1.045284	-0.215900	-0.450988
Zn2	Zn	1.545284	0.284100	0.049012
Zn3	Zn	1.044767	-0.338162	-0.338724
Zn4	Zn	1.544767	0.161838	0.161276
Zn5	Zn	0.932603	-0.225912	-0.329163
Zn6	Zn	1.432603	0.274088	0.170837
Zn7	Zn	0.922562	-0.338542	-0.450928
Zn8	Zn	1.422562	0.161458	0.049072
O9	O	0.986304	-0.279629	-0.392451
O10	O	1.486304	0.220371	0.107549
O11	O	1.143517	-0.227770	-0.440122
O12	O	1.643517	0.272230	0.059878
O13	O	1.033874	-0.327302	-0.239514
O14	O	1.533874	0.172698	0.260486
O15	O	0.951969	-0.126280	-0.341347
O16	O	1.451969	0.373720	0.158653
O17	O	1.143137	-0.317595	-0.357643
O18	O	1.643137	0.182405	0.142357
O19	O	1.034755	-0.118925	-0.430851
O20	O	1.534755	0.381075	0.069149
O21	O	0.951467	-0.244833	-0.232489
O22	O	1.451467	0.255167	0.267511
O23	O	0.832970	-0.245201	-0.341289
O24	O	1.332970	0.254799	0.158711
O25	O	0.934856	-0.318243	-0.548878
O26	O	1.434856	0.181757	-0.048878
O27	O	0.825593	-0.327951	-0.430750
O28	O	1.325593	0.172049	0.069250
O29	O	1.025019	-0.228139	-0.548922
O30	O	1.525019	0.271861	-0.048922
O31	O	1.024138	-0.436516	-0.357585
O32	O	1.524138	0.063484	0.142415
O33	O	0.934354	-0.436795	-0.440021
O34	O	1.434354	0.063205	0.059979
C35	C	0.803793	-0.287704	-0.384976
C36	C	1.303793	0.212296	0.115024
C37	C	0.725713	-0.291175	-0.381795
C38	C	1.225713	0.208825	0.118205
C39	C	0.689223	-0.246107	-0.423315
C40	C	1.189223	0.253893	0.076685
C41	C	0.615858	-0.249365	-0.420320
C42	C	1.115858	0.250635	0.079680
C43	C	0.578985	-0.297695	-0.375809
C44	C	1.078985	0.202305	0.124191
C45	C	0.615480	-0.342765	-0.334284
C46	C	1.115480	0.157235	0.165716
C47	C	0.688843	-0.339503	-0.337276
C48	C	1.188843	0.160497	0.162724
C49	C	0.357465	-0.309877	-0.364621
C50	C	0.857465	0.190123	0.135379
C51	C	0.284097	-0.313137	-0.361634
C52	C	0.784097	0.186863	0.138366
C53	C	0.284480	-0.219736	-0.447669
C54	C	0.784480	0.280264	0.052331
C55	C	0.357845	-0.216481	-0.450660
C56	C	0.857845	0.283519	0.049340
C57	C	0.394334	-0.261548	-0.409133
C58	C	0.894334	0.238452	0.090867
C59	C	0.503994	-0.301028	-0.372748
C60	C	1.003994	0.198972	0.127252
C61	C	0.469323	-0.258211	-0.412190
C62	C	0.969323	0.241789	0.087810
C63	C	0.978119	-0.462143	-0.399850
C64	C	1.478119	0.037857	0.100150
C65	C	0.974681	-0.540219	-0.403041
C66	C	1.474681	-0.040219	0.096959
C67	C	1.019845	-0.576728	-0.361659
C68	C	1.519845	-0.076728	0.138341
C69	C	1.016615	-0.650089	-0.364665
C70	C	1.516615	-0.150089	0.135335
C71	C	0.968218	-0.686940	-0.409050
C72	C	1.468218	-0.186940	0.090950
C73	C	0.923052	-0.650426	-0.450437
C74	C	1.423052	-0.150426	0.049563
C75	C	0.926286	-0.577066	-0.447434
C76	C	1.426286	-0.077066	0.052566
C77	C	0.956117	-0.908447	-0.420265
C78	C	1.456117	-0.408447	0.079735
C79	C	0.952885	-0.981812	-0.423262
C80	C	1.452885	-0.481812	0.076738
C81	C	1.046450	-0.981469	-0.337492
C82	C	1.546450	-0.481469	0.162508
C83	C	1.049676	-0.908109	-0.334490
C84	C	1.549676	-0.408109	0.165510
C85	C	1.004513	-0.871601	-0.375879
C86	C	1.504513	-0.371601	0.124121
C87	C	0.964914	-0.761926	-0.412122
C88	C	1.464914	-0.261926	0.087878
C89	C	1.007821	-0.796615	-0.372811
C90	C	1.507821	-0.296615	0.127189
C91	C	1.169528	-0.271523	-0.399956
C92	C	1.669528	0.228477	0.100044
C93	C	1.247607	-0.268069	-0.403154
C94	C	1.747607	0.231931	0.096846
C95	C	0.978875	-0.272117	-0.575006
C96	C	1.478875	0.227883	-0.075006
C97	C	0.975709	-0.268915	-0.652800
C98	C	1.475709	0.231085	-0.152800
C99	C	0.994540	-0.096401	-0.385039
C100	C	1.494540	0.403599	0.114961
C101	C	0.998049	-0.018320	-0.381880
C102	C	1.498049	0.481680	0.118120
C103	C	1.017123	-0.310346	-0.693007
C104	C	1.517123	0.189654	-0.193007
C105	C	1.014149	-0.307330	-0.766103
C106	C	1.514149	0.192670	-0.266103
C107	C	0.969756	-0.262885	-0.798989
C108	C	1.469756	0.237115	-0.298989
C109	C	0.928341	-0.221449	-0.758776
C110	C	1.428341	0.278551	-0.258776
C111	C	0.931319	-0.224462	-0.685682
C112	C	1.431319	0.275538	-0.185682
C113	C	0.958620	-0.251635	-1.019503
C114	C	1.458620	0.248365	-0.519503
C115	C	0.955644	-0.248626	-1.092602
C116	C	1.455644	0.251374	-0.592602
C117	C	1.041453	-0.334506	-1.099924
C118	C	1.541453	0.165494	-0.599924
C119	C	1.044425	-0.337519	-1.026828
C120	C	1.544425	0.162481	-0.526828
C121	C	1.003012	-0.296080	-0.986621
C122	C	1.503012	0.203920	-0.486621
C123	C	0.966714	-0.259802	-0.873704
C124	C	1.466714	0.240198	-0.373704
C125	C	1.006059	-0.299160	-0.911908
C126	C	1.506059	0.200840	-0.411908
C127	C	0.993747	-0.287060	-0.210606
C128	C	1.493747	0.212940	0.289394
C129	C	0.997058	-0.290058	-0.132810
C130	C	1.497058	0.209942	0.367190
H131	H	0.718553	-0.376202	-0.303466
H132	H	1.218553	0.123798	0.196534
H133	H	0.919496	-0.212428	-1.119375
H134	H	1.419496	0.287572	-0.619375
H135	H	0.924896	-0.217896	-0.986775
H136	H	1.424896	0.282104	-0.486775
H137	H	0.499349	-0.218859	-0.448428
H138	H	0.999349	0.281141	0.051572
H139	H	0.919342	-0.878728	-0.453964
H140	H	1.419342	-0.378728	0.046036
O141	O	0.575710	-0.394892	-0.286275
O142	O	1.075710	0.105108	0.213725
H143	H	0.592554	-0.384385	-0.231445
H144	H	1.092554	0.115615	0.268555
H145	H	1.080562	-0.373722	-1.000057
H146	H	1.580562	0.126278	-0.500057
H147	H	0.892199	-0.185258	-0.785558
H148	H	1.392199	0.314742	-0.285558
O149	O	0.244327	-0.365264	-0.313617
O150	O	0.744327	0.134736	0.186383
H151	H	0.213747	-0.336711	-0.275429
H152	H	0.713747	0.163289	0.224571
H153	H	0.473964	-0.340378	-0.336507
H154	H	0.973964	0.159622	0.163493
O155	O	0.886653	-0.179775	-0.642309
O156	O	1.386653	0.320225	-0.142309
H157	H	0.855280	-0.148367	-0.677456
H158	H	1.355280	0.351633	-0.177456
H159	H	1.059252	-0.546729	-0.325513
H160	H	1.559252	-0.046729	0.174487
O161	O	1.101884	-0.868369	-0.286620
O162	O	1.601884	-0.368369	0.213380
H163	H	1.091497	-0.885284	-0.231767
H164	H	1.591497	-0.385284	0.268233
O165	O	0.245120	-0.171124	-0.492446
O166	O	0.745120	0.328876	0.007554
H167	H	0.256426	-0.180372	-0.548425
H168	H	0.756426	0.319628	-0.048425
H169	H	0.930567	-0.223617	-0.900488
H170	H	1.430567	0.276383	-0.400488
H171	H	0.387862	-0.177128	-0.486908
H172	H	0.887862	0.322872	0.013092
O173	O	0.728993	-0.193975	-0.471319
O174	O	1.228993	0.306025	0.028681
H175	H	0.691292	-0.163178	-0.499680
H176	H	1.191292	0.336822	0.000320
H177	H	1.083220	-1.011202	-0.303796
H178	H	1.583220	-0.511202	0.196204
H179	H	0.883649	-0.680436	-0.486579
H180	H	1.383649	-0.180436	0.013421
O181	O	1.065322	-0.689469	-0.320028
O182	O	1.565322	-0.189469	0.179972
H183	H	1.099512	-0.651520	-0.288652
H184	H	1.599512	-0.151520	0.211348
H185	H	1.075171	-0.368242	-1.132668
H186	H	1.575171	0.131758	-0.632668
H187	H	0.387166	-0.346575	-0.330807
H188	H	0.887166	0.153425	0.169193
H189	H	0.913482	-1.011813	-0.459418
H190	H	1.413482	-0.511813	0.040582
O191	O	0.877566	-0.537684	-0.492059
O192	O	1.377566	-0.037684	0.007941
H193	H	0.843363	-0.575633	-0.523420
H194	H	1.343363	-0.075633	-0.023420
H195	H	1.042206	-0.335344	-0.885129
H196	H	1.542206	0.164656	-0.385129
H197	H	0.586151	-0.212667	-0.454131
H198	H	1.086151	0.287333	0.045869
O199	O	1.060028	-0.756868	-0.324951
O200	O	1.560028	-0.256868	0.175049
H201	H	1.031540	-0.726343	-0.286664
H202	H	1.531540	-0.226343	0.213336
O203	O	0.912704	-0.801681	-0.459978
O204	O	1.412704	-0.301681	0.040022
H205	H	0.941190	-0.832212	-0.498262
H206	H	1.441190	-0.332212	0.001738
O207	O	1.065010	-0.358277	-0.657538
O208	O	1.565010	0.141723	-0.157538
H209	H	1.093315	-0.386573	-0.697780
H210	H	1.593315	0.113427	-0.197780
H211	H	1.047873	-0.341068	-0.798837
H212	H	1.547873	0.158932	-0.298837
