data_functionalizedCrystal
_audit_creation_method	'MofGen! by Chris Wilmer'
_symmetry_space_group_name_H-M	'P1'
_symmetry_Int_Tables_number	1
_symmetry_cell_setting	triclinic
loop_
_symmetry_equiv_pos_as_xyz
  x,y,z
_cell_length_a	11.792241
_cell_length_b	10.868271
_cell_length_c	11.792241
_cell_angle_alpha	90.005281
_cell_angle_beta	84.193416
_cell_angle_gamma	90.000107
loop_
_atom_site_label
_atom_site_type_symbol
_atom_site_fract_x
_atom_site_fract_y
_atom_site_fract_z
O1	O	1.506908	0.102203	0.155568
O2	O	1.176567	0.102232	0.171601
O3	O	1.349754	0.102208	-0.001586
O4	O	1.333721	0.102227	0.328755
O5	O	1.349740	-0.102436	-0.001592
O6	O	1.176553	-0.102413	0.171595
O7	O	1.506894	-0.102441	0.155562
Zn8	Zn	1.341721	-0.134919	0.163577
Zn9	Zn	1.341740	0.134709	0.163586
O10	O	1.333707	-0.102418	0.328749
C11	C	1.134269	-0.000087	0.170591
C12	C	1.008255	-0.000076	0.167576
N13	N	1.341717	-0.318933	0.163570
C14	C	0.777543	-0.000112	0.162034
C15	C	0.905928	-0.000092	0.165113
C16	C	1.341734	-0.569939	0.163584
C17	C	1.341721	-0.430261	0.163580
C18	C	1.549192	-0.000120	0.156572
C19	C	1.675206	-0.000123	0.159587
C20	C	1.348740	-0.000114	-0.043880
C21	C	1.345726	-0.000112	-0.169894
N22	N	1.341754	0.318723	0.163584
C23	C	1.340183	-0.000091	-0.400606
C24	C	1.343262	-0.000102	-0.272221
C25	C	1.334721	-0.000093	0.371043
C26	C	1.337736	-0.000087	0.497057
