data_functionalizedCrystal
_audit_creation_method	'MofGen! by Chris Wilmer'
_symmetry_space_group_name_H-M	'P1'
_symmetry_Int_Tables_number	1
_symmetry_cell_setting	triclinic
loop_
_symmetry_equiv_pos_as_xyz
  x,y,z
_cell_length_a	16.625548
_cell_length_b	13.032721
_cell_length_c	13.032268
_cell_angle_alpha	103.289627
_cell_angle_beta	82.837807
_cell_angle_gamma	82.794397
loop_
_atom_site_label
_atom_site_type_symbol
_atom_site_fract_x
_atom_site_fract_y
_atom_site_fract_z
Zn1	Zn	1.119641	0.499057	0.654215
Zn2	Zn	1.619641	0.999057	1.154215
Zn3	Zn	1.119553	0.654142	0.499163
Zn4	Zn	1.619553	1.154142	0.999163
Zn5	Zn	1.004420	0.476555	0.476634
Zn6	Zn	1.504420	0.976555	0.976634
Zn7	Zn	0.965173	0.676619	0.676703
Zn8	Zn	1.465173	1.176619	1.176703
O9	O	1.052197	0.576593	0.576679
O10	O	1.552197	1.076593	1.076679
O11	O	1.232459	0.519640	0.633665
O12	O	1.732459	1.019640	1.133665
O13	O	1.120669	0.611760	0.347555
O14	O	1.620669	1.111760	0.847555
O15	O	1.036166	0.330909	0.481350
O16	O	1.536166	0.830909	0.981350
O17	O	1.232395	0.633580	0.519749
O18	O	1.732395	1.133580	1.019749
O19	O	1.120819	0.347442	0.611819
O20	O	1.620819	0.847442	1.111819
O21	O	1.036081	0.481288	0.331002
O22	O	1.536081	0.981288	0.831002
O23	O	0.886384	0.503083	0.503156
O24	O	1.386384	1.003083	1.003156
O25	O	0.969275	0.671889	0.822340
O26	O	1.469275	1.171889	1.322340
O27	O	0.857549	0.650069	0.650146
O28	O	1.357549	1.150069	1.150146
O29	O	1.082763	0.541436	0.805818
O30	O	1.582763	1.041436	1.305818
O31	O	1.082613	0.805754	0.541554
O32	O	1.582613	1.305754	1.041554
O33	O	0.969190	0.822268	0.671992
O34	O	1.469190	1.322268	1.171992
C35	C	1.021652	0.852553	0.611681
C36	C	1.521652	1.352553	1.111681
C37	C	1.008655	0.970614	0.626691
C38	C	1.508655	1.470614	1.126691
C39	C	0.842711	0.576574	0.576647
C40	C	1.342711	1.076574	1.076647
C41	C	0.753086	0.576595	0.576662
C42	C	1.253086	1.076595	1.076662
C43	C	1.021651	0.611680	0.853692
C44	C	1.521651	1.111680	1.353692
C45	C	1.008634	0.626632	0.971738
C46	C	1.508634	1.126632	1.471738
C47	C	0.424905	0.576608	0.576708
C48	C	0.924905	1.076608	1.076708
C49	C	0.516216	0.576601	0.576692
C50	C	1.016216	1.076601	1.076692
C51	C	0.588993	0.576602	0.576684
C52	C	1.088993	1.076602	1.076684
C53	C	0.680309	0.576594	0.576669
C54	C	1.180309	1.076594	1.076669
C55	C	1.262501	0.576613	0.576711
C56	C	1.762501	1.076613	1.076711
C57	C	1.352119	0.576622	0.576725
C58	C	1.852119	1.076622	1.076725
C59	C	1.082880	0.299559	0.541563
C60	C	1.582880	0.799559	1.041563
C61	C	1.095956	0.181504	0.526599
C62	C	1.595956	0.681504	1.026599
C63	C	1.059018	1.015050	0.568893
C64	C	1.559018	1.515050	1.068893
C65	C	1.045586	1.137072	0.584405
C66	C	1.545586	1.637072	1.084405
C67	C	1.082679	0.541567	0.300734
C68	C	1.582679	1.041567	0.800734
C69	C	1.095885	0.526316	0.182650
C70	C	1.595885	1.026316	0.682650
C71	C	1.058982	0.568752	1.016192
C72	C	1.558982	1.068752	1.516192
C73	C	1.045530	0.584204	1.138199
C74	C	1.545530	1.084204	1.638199
H75	H	1.112083	0.962760	0.507929
H76	H	1.612083	1.462760	1.007929
N77	N	1.129279	0.487973	0.946963
N78	N	1.629279	0.987973	1.446963
H79	H	1.123067	0.414495	0.956573
H80	H	1.623067	0.914495	1.456573
H81	H	1.128880	0.488493	0.869652
H82	H	1.628880	0.988493	1.369652
N83	N	0.938361	1.039871	0.707442
N84	N	1.438361	1.539871	1.207442
H85	H	0.906596	0.993452	0.743881
H86	H	1.406596	1.493452	1.243881
H87	H	0.960700	1.092071	0.762436
H88	H	1.460700	1.592071	1.262436
N89	N	0.975224	0.664987	1.207414
N90	N	1.475224	1.164987	1.707414
H91	H	0.975575	0.664569	1.284759
H92	H	1.475575	1.164569	1.784759
H93	H	0.981479	0.738419	1.197708
H94	H	1.481479	1.238419	1.697708
H95	H	1.149024	1.129216	0.465631
H96	H	1.649024	1.629216	0.965631
H97	H	1.148949	0.465313	1.130388
H98	H	1.648949	0.965313	1.630388
H99	H	0.955566	0.687617	1.024004
H100	H	1.455566	1.187617	1.524004
H101	H	0.992523	1.189362	0.645380
H102	H	1.492523	1.689362	1.145380
