data_functionalizedCrystal
_audit_creation_method	'MofGen! by Chris Wilmer'
_symmetry_space_group_name_H-M	'P1'
_symmetry_Int_Tables_number	1
_symmetry_cell_setting	triclinic
loop_
_symmetry_equiv_pos_as_xyz
  x,y,z
_cell_length_a	10.654550
_cell_length_b	10.654551
_cell_length_c	9.130313
_cell_angle_alpha	90.001552
_cell_angle_beta	89.996220
_cell_angle_gamma	84.485132
loop_
_atom_site_label
_atom_site_type_symbol
_atom_site_fract_x
_atom_site_fract_y
_atom_site_fract_z
O1	O	1.667835	0.176393	-0.121910
O2	O	1.302356	0.193199	-0.121885
O3	O	1.493498	0.002057	-0.121899
O4	O	1.476693	0.367535	-0.121896
O5	O	1.493496	0.002062	0.121700
O6	O	1.302354	0.193204	0.121713
O7	O	1.667832	0.176398	0.121689
Cu8	Cu	1.485093	0.184802	0.143944
Cu9	Cu	1.485096	0.184796	-0.144140
O10	O	1.476691	0.367540	0.121703
C11	C	1.255557	0.191968	-0.000083
C12	C	1.116114	0.188276	-0.000074
C13	C	1.036629	0.300817	-0.000095
C14	C	0.905608	0.297341	-0.000120
C15	C	0.933570	0.068771	-0.000110
C16	C	1.064589	0.072249	-0.000074
C17	C	1.088154	0.416844	-0.000094
C18	C	1.008667	0.529395	-0.000116
C19	C	0.877647	0.525918	-0.000142
C20	C	0.826112	0.409891	-0.000145
C21	C	1.492263	-0.044739	-0.000103
C22	C	1.488570	-0.184182	-0.000112
C23	C	1.486839	-0.249696	-0.132895
C24	C	1.483359	-0.380717	-0.132888
C25	C	1.483346	-0.380697	0.132696
C26	C	1.486817	-0.249678	0.132688
C27	C	1.488592	-0.184201	-0.265696
C28	C	1.486863	-0.249716	-0.398490
C29	C	1.483382	-0.380736	-0.398483
C30	C	1.481632	-0.446241	-0.265682
C31	C	1.714632	0.177629	-0.000117
C32	C	1.854075	0.181321	-0.000135
C33	C	1.477926	0.414336	-0.000097
C34	C	1.481619	0.553779	-0.000097
N35	N	1.485100	0.184805	0.346566
N36	N	1.485098	0.184782	-0.346763
C37	C	1.569760	0.100196	0.423212
C38	C	1.569756	0.100181	0.576549
C39	C	1.400430	0.269395	0.576581
C40	C	1.400428	0.269403	0.423246
C41	C	1.654431	0.015599	0.346532
C42	C	1.739099	-0.069016	0.423178
C43	C	1.739095	-0.069031	0.576515
C44	C	1.654425	0.015569	0.653206
H45	H	1.129308	-0.019392	-0.000062
H46	H	1.491429	-0.077518	-0.265716
H47	H	1.488200	-0.196331	0.240812
H48	H	1.194836	0.419687	-0.000080
H49	H	1.808026	-0.137936	0.638919
O50	O	0.877984	-0.056362	-0.000126
H51	H	0.909798	-0.110486	0.099176
H52	H	1.654420	0.015541	0.778063
O53	O	1.488736	-0.179074	-0.541722
H54	H	1.575774	-0.129845	-0.548095
O55	O	1.830390	-0.160291	0.340476
H56	H	1.816170	-0.146071	0.220975
H57	H	1.481961	-0.434073	-0.506609
O58	O	1.309124	0.360652	0.659286
H59	H	1.323358	0.346441	0.778786
O60	O	1.064253	0.654528	-0.000103
H61	H	1.032390	0.708656	0.099188
O62	O	1.477893	-0.587559	-0.265665
H63	H	1.476994	-0.622117	-0.380309
O64	O	0.791909	0.647302	-0.000158
H65	H	0.849754	0.728561	-0.000161
O66	O	0.684796	0.406135	-0.000149
H67	H	0.656301	0.355871	-0.099433
H68	H	1.654444	0.015606	0.221678
O69	O	1.309127	0.360663	0.340561
H70	H	1.250264	0.419503	0.419639
H71	H	1.481921	-0.434042	0.240816
