data_functionalizedCrystal
_audit_creation_method	'MofGen! by Chris Wilmer'
_symmetry_space_group_name_H-M	'P1'
_symmetry_Int_Tables_number	1
_symmetry_cell_setting	triclinic
loop_
_symmetry_equiv_pos_as_xyz
  x,y,z
_cell_length_a	16.120490
_cell_length_b	18.101395
_cell_length_c	16.120256
_cell_angle_alpha	92.874436
_cell_angle_beta	90.129807
_cell_angle_gamma	87.123501
loop_
_atom_site_label
_atom_site_type_symbol
_atom_site_fract_x
_atom_site_fract_y
_atom_site_fract_z
Zn1	Zn	1.247390	-0.375265	-0.534537
Zn2	Zn	1.580724	-0.041931	-0.201204
Zn3	Zn	1.914057	0.291402	0.132129
Zn4	Zn	1.254324	-0.493153	-0.395479
Zn5	Zn	1.587657	-0.159820	-0.062146
Zn6	Zn	1.920990	0.173513	0.271188
Zn7	Zn	1.115382	-0.362740	-0.388458
Zn8	Zn	1.448715	-0.029407	-0.055125
Zn9	Zn	1.782049	0.303927	0.278209
Zn10	Zn	1.108279	-0.492468	-0.527452
Zn11	Zn	1.441613	-0.159135	-0.194119
Zn12	Zn	1.774946	0.174199	0.139214
O13	O	1.181344	-0.430907	-0.461482
O14	O	1.514677	-0.097573	-0.128148
O15	O	1.848011	0.235760	0.205185
O16	O	1.364676	-0.396431	-0.521994
O17	O	1.698010	-0.063098	-0.188661
O18	O	2.031343	0.270235	0.144672
O19	O	1.241767	-0.470899	-0.278182
O20	O	1.575100	-0.137566	0.055152
O21	O	1.908434	0.195767	0.388485
O22	O	1.132964	-0.260773	-0.407862
O23	O	1.466298	0.072560	-0.074529
O24	O	1.799631	0.405894	0.258804
O25	O	1.369770	-0.483044	-0.419829
O26	O	1.703103	-0.149710	-0.086496
O27	O	2.036437	0.183623	0.246838
O28	O	1.229950	-0.269975	-0.515186
O29	O	1.563284	0.063359	-0.181853
O30	O	1.896617	0.396692	0.151481
O31	O	1.139687	-0.375085	-0.273023
O32	O	1.473020	-0.041752	0.060310
O33	O	1.806354	0.291582	0.393644
O34	O	0.998074	-0.374420	-0.400992
O35	O	1.331407	-0.041087	-0.067659
O36	O	1.664741	0.292246	0.265674
O37	O	1.120859	-0.481875	-0.644758
O38	O	1.454192	-0.148542	-0.311425
O39	O	1.787525	0.184791	0.021908
O40	O	0.992856	-0.469731	-0.503111
O41	O	1.326189	-0.136398	-0.169778
O42	O	1.659522	0.196936	0.163556
O43	O	1.223063	-0.395767	-0.649964
O44	O	1.556396	-0.062433	-0.316630
O45	O	1.889730	0.270900	0.016703
O46	O	1.234880	-0.596691	-0.412959
O47	O	1.568213	-0.263358	-0.079626
O48	O	1.901546	0.069976	0.253708
O49	O	1.127582	-0.596187	-0.509919
O50	O	1.460915	-0.262854	-0.176586
O51	O	1.794248	0.070479	0.156747
C52	C	0.965292	-0.420643	-0.450522
C53	C	1.298626	-0.087309	-0.117188
C54	C	1.631959	0.246024	0.216145
C55	C	0.872863	-0.416271	-0.445852
C56	C	1.206197	-0.082937	-0.112519
C57	C	1.539530	0.250396	0.220814
C58	C	0.659896	-0.453580	-0.485702
C59	C	0.993229	-0.120247	-0.152369
C60	C	1.326562	0.213086	0.180964
C61	C	0.703640	-0.408295	-0.437327
C62	C	1.036973	-0.074961	-0.103993
C63	C	1.370307	0.258372	0.229340
C64	C	0.797805	-0.412734	-0.442072
C65	C	1.131138	-0.079401	-0.108739
C66	C	1.464471	0.253933	0.224595
C67	C	0.565723	-0.449142	-0.480958
C68	C	0.899056	-0.115809	-0.147625
C69	C	1.232389	0.217524	0.185708
C70	C	1.181234	-0.623311	-0.461452
C71	C	1.514567	-0.289978	-0.128118
C72	C	1.847901	0.043356	0.205215
C73	C	1.181262	-0.705627	-0.461470
C74	C	1.514595	-0.372294	-0.128137
C75	C	1.847928	-0.038960	0.205196
C76	C	1.181442	-1.004728	-0.461524
C77	C	1.514775	-0.671395	-0.128191
C78	C	1.848108	-0.338062	0.205142
C79	C	1.114074	-0.973131	-0.522696
C80	C	1.447407	-0.639798	-0.189363
C81	C	1.780740	-0.306464	0.143970
C82	C	1.113779	-0.887490	-0.522479
C83	C	1.447112	-0.554157	-0.189146
C84	C	1.780446	-0.220823	0.144187
C85	C	1.181352	-0.856341	-0.461498
C86	C	1.514686	-0.523007	-0.128165
C87	C	1.848019	-0.189674	0.205168
C88	C	1.162070	-0.882614	-0.372659
C89	C	1.495404	-0.549281	-0.039326
C90	C	1.828737	-0.215948	0.294008
C91	C	1.161637	-0.968256	-0.373024
C92	C	1.494971	-0.634923	-0.039690
C93	C	1.828304	-0.301590	0.293643
C94	C	1.268271	-0.978206	-0.488428
C95	C	1.601605	-0.644873	-0.155094
C96	C	1.934938	-0.311540	0.178239
C97	C	1.267657	-0.892613	-0.490323
C98	C	1.600990	-0.559280	-0.156990
C99	C	1.934323	-0.225946	0.176343
C100	C	1.181303	-0.772478	-0.461478
C101	C	1.514637	-0.439145	-0.128145
C102	C	1.847970	-0.105812	0.205188
C103	C	1.181489	-1.088591	-0.461538
C104	C	1.514822	-0.755257	-0.128205
C105	C	1.848155	-0.421924	0.205128
C106	C	1.398239	-0.441211	-0.472485
C107	C	1.731573	-0.107878	-0.139152
C108	C	2.064906	0.225456	0.194182
C109	C	1.490667	-0.445602	-0.477174
C110	C	1.824000	-0.112269	-0.143841
C111	C	2.157334	0.221065	0.189493
C112	C	1.170395	-0.440142	-0.678377
C113	C	1.503729	-0.106808	-0.345044
C114	C	1.837062	0.226525	-0.011710
C115	C	1.165729	-0.444077	-0.770805
C116	C	1.499063	-0.110744	-0.437472
C117	C	1.832396	0.222590	-0.104138
C118	C	1.181476	-0.237753	-0.461531
C119	C	1.514809	0.095581	-0.128198
C120	C	1.848143	0.428914	0.205135
C121	C	1.181532	-0.155442	-0.461552
C122	C	1.514866	0.177891	-0.128219
C123	C	1.848199	0.511224	0.205114
C124	C	1.205674	-0.410365	-0.983788
C125	C	1.539007	-0.077031	-0.650454
C126	C	1.872340	0.256302	-0.317121
C127	C	1.157183	-0.451230	-0.940025
C128	C	1.490517	-0.117897	-0.606692
C129	C	1.823850	0.215437	-0.273359
C130	C	1.161940	-0.447249	-0.845862
C131	C	1.495273	-0.113916	-0.512529
C132	C	1.828606	0.219418	-0.179196
C133	C	1.200918	-0.414345	-1.077959
C134	C	1.534251	-0.081012	-0.744626
C135	C	1.867585	0.252322	-0.411293
C136	C	1.192298	-0.421656	-0.245433
C137	C	1.525631	-0.088323	0.087901
C138	C	1.858965	0.245010	0.421234
C139	C	1.197125	-0.417520	-0.153013
C140	C	1.530458	-0.084187	0.180320
C141	C	1.863791	0.249147	0.513653
H142	H	0.693163	-0.495681	-0.530677
H143	H	1.026497	-0.162348	-0.197344
H144	H	1.359830	0.170985	0.135989
C145	C	1.096282	-0.502542	-0.984946
C146	C	1.429615	-0.169209	-0.651613
C147	C	1.762948	0.164124	-0.318279
N148	N	1.050417	-0.541193	-1.018785
N149	N	1.383750	-0.207859	-0.685451
N150	N	1.717083	0.125474	-0.352118
C151	C	1.266583	-0.359068	-0.938868
C152	C	1.599916	-0.025735	-0.605534
C153	C	1.933250	0.307599	-0.272201
N154	N	1.312462	-0.320434	-0.905024
N155	N	1.645795	0.012899	-0.571691
N156	N	1.979129	0.346233	-0.238358
H157	H	0.670370	-0.366191	-0.392347
H158	H	1.003704	-0.032857	-0.059014
H159	H	1.337037	0.300476	0.274319
C160	C	1.293188	-1.012331	-0.574773
C161	C	1.626521	-0.678998	-0.241439
C162	C	1.959855	-0.345665	0.091894
N163	N	1.311946	-1.038034	-0.639811
N164	N	1.645279	-0.704700	-0.306478
N165	N	1.978612	-0.371367	0.026855
H166	H	1.125465	-0.997167	-0.588633
H167	H	1.458798	-0.663834	-0.255300
H168	H	1.792131	-0.330501	0.078033
H169	H	1.320148	-0.871723	-0.449371
H170	H	1.653481	-0.538390	-0.116037
H171	H	1.986815	-0.205057	0.217296
C172	C	1.077440	-0.848536	-0.342158
C173	C	1.410773	-0.515202	-0.008824
C174	C	1.744106	-0.181869	0.324509
N175	N	1.013693	-0.822869	-0.319189
N176	N	1.347026	-0.489536	0.014144
N177	N	1.680360	-0.156203	0.347478
C178	C	1.027524	-0.997280	-0.498421
C179	C	1.360857	-0.663947	-0.165088
C180	C	1.694191	-0.330614	0.168245
N181	N	0.962335	-1.015467	-0.480132
N182	N	1.295668	-0.682134	-0.146799
N183	N	1.629002	-0.348801	0.186534
C184	C	1.129378	-0.863742	-0.611284
C185	C	1.462711	-0.530408	-0.277951
C186	C	1.796045	-0.197075	0.055382
N187	N	1.141124	-0.845858	-0.678177
N188	N	1.474457	-0.512525	-0.344843
N189	N	1.807790	-0.179191	-0.011510
H190	H	1.049329	-0.863337	-0.504308
H191	H	1.382663	-0.530004	-0.170974
H192	H	1.715996	-0.196671	0.162359
H193	H	1.098298	-0.984435	-0.350751
H194	H	1.431631	-0.651101	-0.017418
H195	H	1.764964	-0.317768	0.315916
H196	H	1.208818	-0.988967	-0.325652
H197	H	1.542151	-0.655634	0.007681
H198	H	1.875484	-0.322300	0.341014
H199	H	1.209790	-0.862278	-0.325644
H200	H	1.543124	-0.528945	0.007689
H201	H	1.876457	-0.195611	0.341023
C202	C	1.287432	-0.869950	-0.578663
C203	C	1.620765	-0.536616	-0.245330
C204	C	1.954098	-0.203283	0.088004
N205	N	1.302330	-0.852866	-0.645196
N206	N	1.635664	-0.519532	-0.311862
N207	N	1.968997	-0.186199	0.021471
C208	C	1.336005	-1.005914	-0.428315
C209	C	1.669339	-0.672581	-0.094982
C210	C	2.002672	-0.339247	0.238352
N211	N	1.387017	-1.026789	-0.383036
N212	N	1.720350	-0.693455	-0.049703
N213	N	2.053683	-0.360122	0.283630
