data_functionalizedCrystal
_audit_creation_method	'MofGen! by Chris Wilmer'
_symmetry_space_group_name_H-M	'P1'
_symmetry_Int_Tables_number	1
_symmetry_cell_setting	triclinic
loop_
_symmetry_equiv_pos_as_xyz
  x,y,z
_cell_length_a	14.446369
_cell_length_b	23.196402
_cell_length_c	23.196401
_cell_angle_alpha	60.008822
_cell_angle_beta	90.013799
_cell_angle_gamma	59.999147
loop_
_atom_site_label
_atom_site_type_symbol
_atom_site_fract_x
_atom_site_fract_y
_atom_site_fract_z
Zr1	Zr	0.891770	0.630968	-0.075607
O2	O	0.743930	0.751240	-0.167657
O3	O	0.937087	0.510701	-0.047392
O4	O	0.937046	0.630968	-0.167658
O5	O	0.744007	0.630972	0.047480
O6	O	1.089383	0.630963	-0.167654
O7	O	0.743971	0.630973	-0.047392
O8	O	1.089456	0.415827	0.047479
O9	O	0.743934	0.846108	-0.167653
O10	O	1.070106	0.560163	-0.035352
O11	O	0.956445	0.560166	0.035447
O12	O	0.956397	0.701765	-0.106150
O13	O	0.842737	0.701768	-0.035351
Zr14	Zr	1.134788	0.630958	0.075708
Zr15	Zr	1.134730	0.630960	-0.075601
Zr16	Zr	0.891828	0.630966	0.075702
Zr17	Zr	0.891776	0.782271	-0.075600
Zr18	Zr	1.134781	0.479655	0.075701
O19	O	1.089471	0.751225	0.047493
O20	O	1.089388	0.751228	-0.167649
O21	O	0.744013	0.751237	0.047485
O22	O	1.282627	0.510686	0.167757
O23	O	1.282545	0.510689	-0.047384
O24	O	0.937169	0.510698	0.167750
O25	O	1.282550	0.630955	-0.047379
O26	O	1.089512	0.630958	0.167758
O27	O	0.937175	0.630963	0.167755
O28	O	1.282586	0.630953	0.047492
O29	O	0.937055	0.846101	-0.167648
O30	O	1.089502	0.415825	0.167749
O31	O	1.282623	0.415819	0.167753
O32	O	1.282577	0.415821	0.047483
O33	O	0.743980	0.846106	-0.047382
O34	O	0.937101	0.846099	-0.047378
O35	O	1.070160	0.560161	0.106251
O36	O	1.183820	0.560158	0.035452
O37	O	1.070112	0.701760	-0.035346
O38	O	0.956452	0.701763	0.035453
C39	C	1.013270	0.441707	0.000042
C40	C	1.013267	0.377475	0.000039
C41	C	1.072589	0.347303	-0.036919
C42	C	1.072600	0.286942	-0.036914
C43	C	1.013267	0.256767	0.000041
C44	C	0.953943	0.286943	0.037008
C45	C	0.953943	0.347297	0.037007
C46	C	0.913863	0.194741	-0.005235
C47	C	0.913860	0.134392	-0.005240
C48	C	1.013269	0.070612	0.000048
C49	C	1.112680	0.067197	0.005326
C50	C	1.112680	0.127551	0.005325
C51	C	1.013261	0.191323	0.000047
C52	C	1.072608	-0.025011	-0.036906
C53	C	1.072622	-0.085377	-0.036895
C54	C	0.953954	-0.085369	0.037022
C55	C	0.953950	-0.025010	0.037016
C56	C	1.013275	0.005168	0.000048
C57	C	0.709373	0.630974	0.000043
C58	C	0.606230	0.630977	0.000041
C59	C	0.387848	0.720276	-0.044386
C60	C	0.495079	0.720336	-0.044636
C61	C	0.602892	0.586618	-0.032533
C62	C	0.495123	0.587185	-0.032858
C63	C	0.496528	0.585344	0.077098
C64	C	0.602498	0.587027	0.076977
C65	C	1.317185	0.630953	0.000057
C66	C	1.420328	0.630949	0.000060
C67	C	1.013206	0.630966	-0.189214
C68	C	1.013181	0.630967	-0.253449
C69	C	1.013287	0.820219	0.000058
C70	C	1.013290	0.884451	0.000061
C71	C	0.953832	0.704880	-0.320577
C72	C	0.953861	0.704881	-0.380933
C73	C	1.013223	0.630965	-0.374155
C74	C	1.072586	0.557043	-0.307014
C75	C	1.072564	0.557044	-0.246661
C76	C	1.004791	0.574337	-0.441475
C77	C	1.004804	0.574339	-0.501828
C78	C	1.013295	0.630959	-0.560303
C79	C	1.021750	0.687590	-0.558423
C80	C	1.021729	0.687591	-0.498070
C81	C	1.013254	0.630956	-0.439594
C82	C	0.953974	0.704878	-0.692878
C83	C	0.954011	0.704876	-0.753233
C84	C	1.072728	0.557036	-0.679312
C85	C	1.072699	0.557040	-0.618959
C86	C	1.013316	0.630963	-0.625747
C87	C	1.013351	0.630960	0.189315
C88	C	1.013376	0.630959	0.253549
C89	C	1.317176	0.441697	0.000049
C90	C	1.420316	0.377461	0.000049
C91	C	1.013343	0.441704	0.189307
C92	C	1.013365	0.377471	0.253538
C93	C	1.317249	0.441694	0.189314
C94	C	1.420414	0.377457	0.253548
C95	C	0.709308	0.820233	-0.189213
C96	C	0.606143	0.884469	-0.253447
C97	C	0.709381	0.820230	0.000051
C98	C	0.606241	0.884465	0.000052
C99	C	1.013214	0.820222	-0.189206
C100	C	1.013192	0.884455	-0.253438
C101	C	1.409394	0.347298	-0.036917
C102	C	1.506296	0.286951	-0.036931
C103	C	1.614119	0.256763	0.000024
C104	C	1.625039	0.286932	0.036991
C105	C	1.528138	0.347283	0.037001
C106	C	1.072733	0.347304	0.320668
C107	C	1.072749	0.286959	0.381026
C108	C	1.013403	0.256778	0.374254
C109	C	0.954028	0.286951	0.307117
C110	C	0.954006	0.347299	0.246760
C111	C	1.528201	0.347290	0.246757
C112	C	1.625144	0.286941	0.307106
C113	C	1.614298	0.256757	0.374245
C114	C	1.506500	0.286931	0.381035
C115	C	1.409559	0.347282	0.320687
C116	C	0.498356	0.914644	-0.246656
C117	C	0.401413	0.975011	-0.307005
C118	C	0.412259	1.005198	-0.374145
C119	C	0.520057	0.975021	-0.380934
C120	C	0.616998	0.914659	-0.320586
C121	C	0.617163	0.914634	0.037011
C122	C	0.520261	0.974999	0.037009
C123	C	0.412438	1.005188	0.000051
C124	C	0.401518	0.975017	-0.036913
C125	C	0.498419	0.914658	-0.036914
C126	C	1.072550	0.914617	-0.246643
C127	C	1.072552	0.974963	-0.306990
C128	C	1.013188	1.005149	-0.374131
C129	C	0.953829	0.974981	-0.380925
C130	C	0.953835	0.914633	-0.320578
H131	H	1.120898	0.371871	-0.067019
O132	O	1.030903	0.748668	-0.621486
H133	H	1.111554	0.740302	-0.605691
H134	H	1.121104	0.262399	0.435685
H135	H	1.013430	0.207639	0.423406
H136	H	1.497686	0.262346	0.435708
H137	H	1.120935	-0.109947	-0.066989
H138	H	0.601990	0.619371	0.101311
O139	O	0.889795	0.784609	-0.327899
H140	H	0.824189	0.788149	-0.302193
O141	O	0.532051	1.007525	0.076888
H142	H	0.623308	0.976375	0.102597
H143	H	1.537047	0.371834	0.067107
O144	O	0.889811	0.882102	-0.327910
H145	H	0.824227	0.893685	-0.302184
O146	O	1.718866	0.191657	0.439331
H147	H	1.718814	0.136662	0.471197
O148	O	0.486631	0.882099	-0.174248
H149	H	0.527931	0.815525	-0.144986
O150	O	1.293302	0.379802	0.328015
H151	H	1.302059	0.348660	0.384841
O152	O	0.889799	1.007530	-0.453336
H153	H	0.824196	1.074107	-0.482599
H154	H	0.905633	0.371863	0.067104
O155	O	0.889836	0.784603	-0.453349
H156	H	0.848534	0.836005	-0.447928
H157	H	0.905665	0.371853	0.192103
O158	O	1.136575	0.254401	-0.076788
H159	H	1.076631	0.265986	-0.117628
H160	H	0.704949	0.890059	0.067111
H161	H	1.013193	1.054289	-0.423263
H162	H	0.905686	0.765066	-0.807894
H163	H	0.333545	1.054337	0.000058
O164	O	1.136741	0.379854	0.327981
H165	H	1.178009	0.348738	0.384805
O166	O	0.285219	1.007585	-0.076774
H167	H	0.238251	0.996001	-0.039457
H168	H	0.489510	0.890095	-0.067009
O169	O	0.806638	0.138082	-0.010936
H170	H	0.823332	0.085407	-0.010058
O171	O	1.293109	0.379854	-0.076786
H172	H	1.246109	0.446432	-0.117625
O173	O	0.316387	0.766725	-0.015599
H174	H	0.233094	0.820913	-0.057112
O175	O	1.136575	1.007493	-0.299648
H176	H	1.126620	1.054521	-0.352886
O177	O	0.492965	0.766436	-0.015698
H178	H	0.415162	0.788891	-0.001402
O179	O	1.136596	0.882056	-0.174230
H180	H	1.177880	0.913167	-0.179655
O181	O	0.890057	0.254373	0.299816
H182	H	0.900077	0.207328	0.353068
O183	O	1.741341	0.254365	0.076847
H184	H	1.732671	0.285478	0.102553
O185	O	1.136756	0.477308	-0.671990
H186	H	1.126796	0.489723	-0.725235
O187	O	1.741405	0.254394	0.299775
H188	H	1.732650	0.285513	0.242949
H189	H	0.832901	0.246680	-0.009556
O190	O	1.219916	-0.001586	0.011031
H191	H	1.244253	-0.060627	0.058990
H192	H	1.028617	0.733700	-0.496542
O193	O	1.219892	0.123872	0.011022
H194	H	1.287126	0.066247	0.061259
O195	O	0.315031	0.766487	-0.119220
H196	H	0.301871	0.726111	-0.124895
H197	H	0.681667	0.521834	0.112879
H198	H	1.497383	0.262394	-0.067034
H199	H	1.120917	-0.000441	-0.067005
O200	O	0.889945	0.784603	-0.700189
H201	H	0.848696	0.836001	-0.757012
O202	O	0.889938	0.254406	0.076864
H203	H	0.899892	0.207376	0.070649
O204	O	0.285153	1.007539	-0.299675
H205	H	0.293907	0.976389	-0.242848
O206	O	1.136567	0.477321	-0.174250
H207	H	1.177848	0.425921	-0.179673
H208	H	1.537053	0.371857	0.192093
O209	O	0.307697	1.070312	-0.439233
H210	H	0.230927	1.086217	-0.423224
H211	H	0.528875	0.999607	-0.435607
O212	O	0.733264	0.882104	-0.327901
H213	H	0.743104	0.854607	-0.357206
O214	O	0.889953	-0.117903	0.076881
H215	H	0.899912	-0.164938	0.070670
H216	H	1.121022	0.496852	-0.564299
H217	H	0.997913	0.528230	-0.503354
H218	H	0.492613	0.755354	-0.101465
O219	O	0.889951	0.007549	0.076868
H220	H	0.848684	-0.023567	0.102562
O221	O	0.428389	0.628953	-0.107949
H222	H	0.473241	0.648560	-0.143689
O223	O	1.718633	0.191668	0.000014
H224	H	1.718566	0.136679	0.023140
H225	H	0.521785	0.521647	-0.002579
H226	H	1.120920	0.496860	-0.301499
O227	O	0.706586	0.499592	0.008266
H228	H	0.761735	0.487004	0.052297
H229	H	0.446516	0.613924	0.104309
O230	O	0.605668	0.627433	-0.106919
H231	H	0.684681	0.624627	-0.106149
O232	O	0.532897	0.498179	0.121178
H233	H	0.496908	0.487352	0.088420
O234	O	0.995624	0.513270	-0.378407
H235	H	0.989727	0.473902	-0.389858
