data_functionalizedCrystal
_audit_creation_method	'MofGen! by Chris Wilmer'
_symmetry_space_group_name_H-M	'P1'
_symmetry_Int_Tables_number	1
_symmetry_cell_setting	triclinic
loop_
_symmetry_equiv_pos_as_xyz
  x,y,z
_cell_length_a	12.759401
_cell_length_b	15.298852
_cell_length_c	12.759393
_cell_angle_alpha	99.704102
_cell_angle_beta	90.020938
_cell_angle_gamma	80.334674
loop_
_atom_site_label
_atom_site_type_symbol
_atom_site_fract_x
_atom_site_fract_y
_atom_site_fract_z
Zn1	Zn	1.678641	-0.359066	0.521699
Zn2	Zn	2.178641	0.140934	1.021699
Zn3	Zn	1.708944	-0.509945	0.315630
Zn4	Zn	2.208944	-0.009945	0.815630
Zn5	Zn	1.502950	-0.359114	0.346025
Zn6	Zn	2.002950	0.140886	0.846025
Zn7	Zn	1.533331	-0.509882	0.491280
Zn8	Zn	2.033331	-0.009882	0.991280
O9	O	1.605966	-0.434502	0.418658
O10	O	2.105966	0.065498	0.918658
O11	O	1.829683	-0.379087	0.494374
O12	O	2.329683	0.120913	0.994374
O13	O	1.681586	-0.489984	0.172631
O14	O	2.181586	0.010016	0.672631
O15	O	1.500859	-0.232867	0.394779
O16	O	2.000859	0.267133	0.894779
O17	O	1.851947	-0.489937	0.342976
O18	O	2.351947	0.010063	0.842976
O19	O	1.629939	-0.232832	0.523846
O20	O	2.129939	0.267168	1.023846
O21	O	1.530242	-0.379169	0.194962
O22	O	2.030242	0.120831	0.694962
O23	O	1.359957	-0.379108	0.365283
O24	O	1.859957	0.120892	0.865283
O25	O	1.552639	-0.489830	0.642346
O26	O	2.052639	0.010170	1.142346
O27	O	1.382278	-0.489876	0.472001
O28	O	1.882278	0.010124	0.972001
O29	O	1.659398	-0.379026	0.664694
O30	O	2.159398	0.120974	1.164694
O31	O	1.711045	-0.636177	0.313480
O32	O	2.211045	-0.136177	0.813480
O33	O	1.582023	-0.636131	0.442529
O34	O	2.082023	-0.136131	0.942529
C35	C	1.332997	-0.434491	0.418640
C36	C	1.832997	0.065509	0.918640
C37	C	1.216224	-0.434508	0.418652
C38	C	1.716224	0.065492	0.918652
C39	C	1.173029	-0.492273	0.474097
C40	C	1.673029	0.007727	0.974097
C41	C	1.063306	-0.492276	0.474117
C42	C	1.563306	0.007724	0.974117
C43	C	1.039980	-0.376747	0.363239
C44	C	1.539980	0.123253	0.863239
C45	C	1.149701	-0.376740	0.363226
C46	C	1.649701	0.123260	0.863226
C47	C	1.653148	-0.668887	0.371428
C48	C	2.153148	-0.168887	0.871428
C49	C	1.673428	-0.769158	0.351258
C50	C	2.173428	-0.269158	0.851258
C51	C	1.461707	-1.051834	0.562919
C52	C	1.961707	-0.551834	1.062919
C53	C	1.442655	-0.957624	0.581877
C54	C	1.942655	-0.457624	1.081877
C55	C	1.500346	-0.910503	0.524224
C56	C	2.000346	-0.410503	1.024224
C57	C	1.577093	-0.957600	0.447609
C58	C	2.077093	-0.457600	0.947609
C59	C	1.596153	-1.051819	0.428655
C60	C	2.096153	-0.551819	0.928655
C61	C	1.634792	-0.910488	0.389960
C62	C	2.134792	-0.410488	0.889960
C63	C	1.711539	-0.957586	0.313345
C64	C	2.211539	-0.457586	0.813345
C65	C	1.730595	-1.051795	0.294394
C66	C	2.230595	-0.551795	0.794394
C67	C	1.672904	-1.098916	0.352047
C68	C	2.172904	-0.598916	0.852047
C69	C	1.615733	-0.816270	0.408914
C70	C	2.115733	-0.316270	0.908914
C71	C	1.750179	-0.816255	0.274650
C72	C	2.250179	-0.316255	0.774650
C73	C	1.769231	-0.910464	0.255692
C74	C	2.269231	-0.410464	0.755692
C75	C	1.880002	-0.434514	0.418678
C76	C	2.380002	0.065486	0.918678
C77	C	1.996780	-0.434519	0.418686
C78	C	2.496780	0.065481	0.918686
C79	C	1.606028	-0.434415	0.692709
C80	C	2.106028	0.065585	1.192709
C81	C	1.606054	-0.434378	0.809493
C82	C	2.106054	0.065622	1.309493
C83	C	1.558630	-0.199202	0.466096
C84	C	2.058630	0.300798	0.966096
C85	C	1.538458	-0.098931	0.486311
C86	C	2.038458	0.401069	0.986311
C87	C	1.605953	-0.434523	0.145687
C88	C	2.105953	0.065477	0.645687
C89	C	1.606079	-0.434306	0.028954
C90	C	2.106079	0.065694	0.528954
C91	C	1.661646	-0.376674	0.875996
C92	C	2.161646	0.123326	1.375996
C93	C	1.661656	-0.376635	0.985728
C94	C	2.161656	0.123365	1.485728
C95	C	1.550480	-0.492013	0.962444
C96	C	2.050480	0.007987	1.462444
C97	C	1.550464	-0.492047	0.852715
C98	C	2.050464	0.007953	1.352715
H99	H	1.028143	-0.539313	0.519268
H100	H	1.528143	-0.039313	1.019268
H101	H	1.184868	-0.329695	0.318077
H102	H	1.684868	0.170305	0.818077
Br103	Br	1.511581	-0.752363	0.512889
Br104	Br	2.011581	-0.252363	1.012889
Br105	Br	1.737086	-0.298408	0.817342
Br106	Br	2.237086	0.201592	1.317342
Br107	Br	1.737115	-0.298324	1.075977
Br108	Br	2.237115	0.201676	1.575977
Br109	Br	1.475045	-0.570277	1.021108
Br110	Br	1.975045	-0.070277	1.521108
H111	H	1.484829	-0.833793	0.539664
H112	H	1.984829	-0.333793	1.039664
Br113	Br	1.834769	-1.115712	0.190434
Br114	Br	2.334769	-0.615712	0.690434
Br115	Br	0.949694	-0.298352	0.288021
Br116	Br	1.449694	0.201648	0.788021
H117	H	1.414748	-1.090208	0.609858
H118	H	1.914748	-0.590208	1.109858
Br119	Br	1.475001	-0.570358	0.762454
Br120	Br	1.975001	-0.070358	1.262454
Br121	Br	1.263307	-0.570670	0.549321
Br122	Br	1.763307	-0.070670	1.049321
H123	H	1.380169	-0.919281	0.644257
H124	H	1.880169	-0.419281	1.144257
H125	H	1.688405	-1.175629	0.336609
H126	H	2.188405	-0.675629	0.836609
H127	H	1.831720	-0.948824	0.193312
H128	H	2.331720	-0.448824	0.693312
Br129	Br	1.828486	-0.752313	0.196408
Br130	Br	2.328486	-0.252313	0.696408
