data_functionalizedCrystal
_audit_creation_method	'MofGen! by Chris Wilmer'
_symmetry_space_group_name_H-M	'P1'
_symmetry_Int_Tables_number	1
_symmetry_cell_setting	triclinic
loop_
_symmetry_equiv_pos_as_xyz
  x,y,z
_cell_length_a	15.297327
_cell_length_b	21.395364
_cell_length_c	21.395356
_cell_angle_alpha	90.024334
_cell_angle_beta	99.650480
_cell_angle_gamma	80.276484
loop_
_atom_site_label
_atom_site_type_symbol
_atom_site_fract_x
_atom_site_fract_y
_atom_site_fract_z
Zn1	Zn	-0.358808	-0.914750	-0.397382
Zn2	Zn	-0.509684	-0.896529	-0.310731
Zn3	Zn	-0.358876	-0.809958	-0.292626
Zn4	Zn	-0.509680	-0.791809	-0.415470
O5	O	-0.434262	-0.853261	-0.354052
O6	O	-0.378794	-1.000014	-0.385895
O7	O	-0.489709	-0.885015	-0.220655
O8	O	-0.232612	-0.839080	-0.291375
O9	O	-0.489643	-0.986627	-0.322233
O10	O	-0.232562	-0.916069	-0.368339
O11	O	-0.378911	-0.821412	-0.207353
O12	O	-0.378908	-0.719869	-0.308914
O13	O	-0.489637	-0.808148	-0.500745
O14	O	-0.489703	-0.706536	-0.399166
O15	O	-0.378791	-0.898471	-0.487456
O16	O	-0.635938	-0.867417	-0.339772
O17	O	-0.635935	-0.790480	-0.416723
C18	C	-0.434313	-0.690468	-0.354038
C19	C	-0.434357	-0.620821	-0.354050
C20	C	-0.376734	-0.595089	-0.387272
C21	C	-0.376713	-0.529656	-0.387271
C22	C	-0.434330	-0.489956	-0.354057
C23	C	-0.491957	-0.515695	-0.320828
C24	C	-0.491970	-0.581128	-0.320824
C25	C	-0.515587	-0.376470	-0.358780
C26	C	-0.515575	-0.311039	-0.358788
C27	C	-0.434290	-0.288140	-0.354063
C28	C	-0.353013	-0.330681	-0.349343
C29	C	-0.353026	-0.396114	-0.349340
C30	C	-0.434322	-0.419005	-0.354056
C31	C	-0.376639	-0.191459	-0.387285
C32	C	-0.376616	-0.126025	-0.387280
C33	C	-0.491869	-0.112064	-0.320841
C34	C	-0.491884	-0.177498	-0.320842
C35	C	-0.434270	-0.217191	-0.354068
C36	C	-0.668673	-0.825019	-0.382188
C37	C	-0.768955	-0.812994	-0.394246
C38	C	-1.051513	-0.939464	-0.268087
C39	C	-0.957293	-0.950762	-0.256755
C40	C	-0.910204	-0.916321	-0.291127
C41	C	-0.957344	-0.870580	-0.336833
C42	C	-1.051573	-0.859278	-0.348162
C43	C	-0.910264	-0.836135	-0.371202
C44	C	-0.957404	-0.790394	-0.416908
C45	C	-1.051624	-0.779094	-0.428236
C46	C	-1.098713	-0.813535	-0.393864
C47	C	-0.816035	-0.847437	-0.359872
C48	C	-0.816095	-0.767250	-0.439948
C49	C	-0.910315	-0.755953	-0.451280
C50	C	-0.198935	-0.881631	-0.325820
C51	C	-0.098653	-0.893721	-0.313789
C52	C	-0.434206	-0.853317	-0.517469
C53	C	-0.434182	-0.853341	-0.587107
C54	C	-0.434222	-0.016689	-0.354064
C55	C	-0.434234	-0.086329	-0.354064
C56	C	-0.376483	-0.820235	-0.612883
C57	C	-0.376466	-0.820234	-0.678317
C58	C	-0.434139	-0.853353	-0.717970
C59	C	-0.491849	-0.886462	-0.692188
C60	C	-0.491871	-0.886456	-0.626756
C61	C	-0.441209	-0.908956	-0.822507
C62	C	-0.441181	-0.908964	-0.887936
C63	C	-0.434078	-0.853371	-0.919784
C64	C	-0.426984	-0.797771	-0.886191
C65	C	-0.427006	-0.797765	-0.820760
C66	C	-0.434123	-0.853363	-0.788921
C67	C	-0.376358	-0.820261	-1.016510
C68	C	-0.376348	-0.820259	-1.081945
C69	C	-0.491726	-0.886492	-1.095815
C70	C	-0.491741	-0.886488	-1.030381
C71	C	-0.434052	-0.853374	-0.990732
C72	C	-0.434253	-0.853250	-0.191263
C73	C	-0.434022	-0.853378	-0.121595
H74	H	-0.538869	-0.483367	-0.293784
O75	O	-0.314147	-0.784544	-0.973739
H76	H	-0.329638	-0.733502	-0.988130
H77	H	-0.446953	-0.954238	-0.915282
H78	H	-0.538855	-0.913418	-0.605770
O79	O	-0.314589	-0.637898	-0.423104
H80	H	-0.324281	-0.687722	-0.417526
O81	O	-0.265373	-0.442000	-0.344244
H82	H	-0.256106	-0.472913	-0.301168
O83	O	-0.448863	-0.968922	-0.788157
H84	H	-0.453775	-1.007586	-0.822505
H85	H	-1.089862	-0.967497	-0.240102
H86	H	-0.538807	-0.913427	-0.724478
H87	H	-0.421232	-0.752493	-0.793412
O88	O	-0.554042	-0.205252	-0.285012
H89	H	-0.544366	-0.257421	-0.290585
H90	H	-0.833486	-0.925522	-0.281897
H91	H	-0.581755	-0.276406	-0.362634
O92	O	-0.314491	-0.234280	-0.423109
H93	H	-0.274404	-0.205393	-0.446201
H94	H	-0.329785	-0.508702	-0.414323
H95	H	-0.918915	-0.988003	-0.219541
H96	H	-0.329688	-0.105077	-0.414331
H97	H	-1.090003	-0.741841	-0.465446
H98	H	-0.538782	-0.079741	-0.293797
O99	O	-0.265330	-0.305997	-0.344241
H100	H	-0.278969	-0.253352	-0.345027
H101	H	-0.329365	-0.793295	-1.102931
O102	O	-0.603264	-0.401167	-0.363881
H103	H	-0.659777	-0.360594	-0.367175
H104	H	-0.538895	-0.602077	-0.293770
O105	O	-0.765313	-0.730094	-0.477016
H106	H	-0.813921	-0.696379	-0.510691
H107	H	-0.948710	-0.718710	-0.488494
H108	H	-1.175435	-0.804340	-0.403090
O109	O	-0.765196	-0.896781	-0.310591
H110	H	-0.722338	-0.873902	-0.273529
O111	O	-0.314259	-0.784525	-0.570117
H112	H	-0.274134	-0.761503	-0.599038
H113	H	-0.421194	-0.752503	-0.912119
O114	O	-0.314224	-0.784532	-0.706129
H115	H	-0.274109	-0.761509	-0.667566
H116	H	-0.538682	-0.913460	-1.128100
O117	O	-0.553954	-0.922213	-1.002571
H118	H	-0.594047	-0.945250	-1.041134
