data_functionalizedCrystal
_audit_creation_method	'MofGen! by Chris Wilmer'
_symmetry_space_group_name_H-M	'P1'
_symmetry_Int_Tables_number	1
_symmetry_cell_setting	triclinic
loop_
_symmetry_equiv_pos_as_xyz
  x,y,z
_cell_length_a	10.967926
_cell_length_b	19.188930
_cell_length_c	10.065875
_cell_angle_alpha	98.754308
_cell_angle_beta	93.120479
_cell_angle_gamma	83.946584
loop_
_atom_site_label
_atom_site_type_symbol
_atom_site_fract_x
_atom_site_fract_y
_atom_site_fract_z
O1	O	1.612253	0.121734	0.265677
O2	O	2.112253	0.621734	0.765677
O3	O	1.262199	0.123728	0.183344
O4	O	1.762199	0.623728	0.683344
O5	O	1.447324	0.021359	0.226912
O6	O	1.947324	0.521359	0.726912
O7	O	1.427128	0.224103	0.222109
O8	O	1.927128	0.724103	0.722109
O9	O	1.412022	0.040961	0.445593
O10	O	1.912022	0.540961	0.945593
O11	O	1.226897	0.143330	0.402024
O12	O	1.726897	0.643330	0.902024
O13	O	1.576952	0.141337	0.484358
O14	O	2.076952	0.641337	0.984358
Zn15	Zn	1.396320	0.145446	0.477911
Zn16	Zn	1.896320	0.645446	0.977911
Zn17	Zn	1.442831	0.119619	0.189790
Zn18	Zn	1.942831	0.619619	0.689790
O19	O	1.391827	0.243706	0.440789
O20	O	1.891827	0.743706	0.940789
C21	C	1.199763	0.131903	0.282151
C22	C	1.699763	0.631903	0.782151
C23	C	1.066318	0.127049	0.250765
C24	C	1.566318	0.627049	0.750765
C25	C	0.988537	0.135039	0.350056
C26	C	1.488537	0.635039	0.850056
C27	C	0.850614	0.130023	0.317620
C28	C	1.350614	0.630023	0.817620
C29	C	1.429018	0.005131	0.336102
C30	C	1.929018	0.505131	0.836102
C31	C	1.427052	-0.072427	0.335652
C32	C	1.927052	0.427573	0.835652
C33	C	1.535679	-0.114328	0.361207
C34	C	2.035679	0.385672	0.861207
C35	C	1.533837	-0.187205	0.360752
C36	C	2.033837	0.312795	0.860752
C37	C	1.423358	-0.218176	0.334766
C38	C	1.923358	0.281824	0.834766
C39	C	1.314719	-0.176266	0.309200
C40	C	1.814719	0.323734	0.809200
C41	C	1.316566	-0.103392	0.309642
C42	C	1.816566	0.396608	0.809642
N43	N	1.326897	-0.321860	0.389325
N44	N	1.826897	0.178140	0.889325
N45	N	1.325149	-0.391087	0.388909
N46	N	1.825149	0.108913	0.888909
C47	C	1.417787	-0.437742	0.333429
C48	C	1.917787	0.062258	0.833429
N49	N	1.512255	-0.412553	0.278400
N50	N	2.012255	0.087447	0.778400
N51	N	1.514005	-0.343319	0.278823
N52	N	2.014005	0.156681	0.778823
C53	C	1.421343	-0.297195	0.334283
C54	C	1.921343	0.202805	0.834283
C55	C	1.524425	-0.558665	0.358491
C56	C	2.024425	-0.058665	0.858491
C57	C	1.522580	-0.631544	0.358027
C58	C	2.022580	-0.131544	0.858027
C59	C	1.303456	-0.620602	0.306487
C60	C	1.803456	-0.120602	0.806487
C61	C	1.305306	-0.547726	0.306938
C62	C	1.805306	-0.047726	0.806938
C63	C	1.415793	-0.516761	0.332948
C64	C	1.915793	-0.016761	0.832948
C65	C	1.639388	0.133161	0.385548
C66	C	2.139388	0.633161	0.885548
C67	C	1.772834	0.138015	0.416925
C68	C	2.272834	0.638015	0.916925
C69	C	1.410133	0.259933	0.331596
C70	C	1.910133	0.759933	0.831596
C71	C	1.412100	0.337490	0.332038
C72	C	1.912100	0.837490	0.832038
N73	N	1.364586	0.163072	0.674548
N74	N	1.864586	0.663072	1.174548
N75	N	1.474574	0.101987	-0.006845
N76	N	1.974574	0.601987	0.493155
C77	C	1.431782	0.125747	0.758142
C78	C	1.931782	0.625747	1.258142
C79	C	1.407368	0.139318	0.909563
C80	C	1.907368	0.639318	1.409563
H81	H	1.030802	0.116492	0.141746
H82	H	1.530802	0.616492	0.641746
C83	C	0.717923	0.172130	0.143034
C84	C	1.217923	0.672130	0.643034
C85	C	0.802689	0.115775	0.170434
C86	C	1.302689	0.615775	0.670434
H87	H	0.688343	0.163336	0.052167
H88	H	1.188343	0.663336	0.552167
H89	H	0.651261	0.176486	0.201117
H90	H	1.151261	0.676486	0.701117
H91	H	0.756688	0.214788	0.157215
H92	H	1.256688	0.714788	0.657215
H93	H	0.763922	0.073119	0.156262
H94	H	1.263922	0.573119	0.656262
H95	H	0.869363	0.111412	0.112333
H96	H	1.369363	0.611412	0.612333
C97	C	1.741165	-0.111288	0.292862
C98	C	2.241165	0.388712	0.792862
C99	C	1.657128	-0.080294	0.389780
C100	C	2.157128	0.419706	0.889780
H101	H	1.816139	-0.090272	0.310498
H102	H	2.316139	0.409728	0.810498
H103	H	1.755601	-0.160679	0.296266
H104	H	2.255601	0.339321	0.796266
H105	H	1.708751	-0.103920	0.206093
H106	H	2.208751	0.396080	0.706093
H107	H	1.689537	-0.087667	0.476549
H108	H	2.189537	0.412333	0.976549
H109	H	1.642693	-0.030891	0.386389
H110	H	2.142693	0.469109	0.886389
C111	C	1.163822	0.151504	0.500877
C112	C	1.663822	0.651504	1.000877
C113	C	1.036469	0.149291	0.497233
C114	C	1.536469	0.649291	0.997233
H115	H	1.193407	0.160307	0.591742
H116	H	1.693407	0.660307	1.091742
H117	H	1.201593	0.107414	0.458915
H118	H	1.701593	0.607414	0.958915
H119	H	1.182833	0.188301	0.454463
H120	H	1.682833	0.688301	0.954463
H121	H	1.017459	0.112490	0.543639
H122	H	1.517459	0.612490	1.043639
H123	H	0.998686	0.193386	0.539215
H124	H	1.498686	0.693386	1.039215
C125	C	0.792701	0.098017	0.632491
C126	C	1.292701	0.598017	1.132491
C127	C	0.820757	0.152263	0.564111
C128	C	1.320757	0.652263	1.064111
H129	H	0.822294	0.106812	0.723353
H130	H	1.322294	0.606812	1.223353
H131	H	0.706312	0.096521	0.629997
H132	H	1.206312	0.596521	1.129997
H133	H	0.830490	0.053928	0.590505
H134	H	1.330490	0.553928	1.090505
H135	H	0.782960	0.196350	0.606091
H136	H	1.282960	0.696350	1.106091
H137	H	0.907163	0.153765	0.566613
H138	H	1.407163	0.653765	1.066613
H139	H	1.622298	-0.221327	0.381558
H140	H	2.122298	0.278673	0.881558
C141	C	1.509333	0.002865	0.732049
C142	C	2.009333	0.502865	1.232049
C143	C	1.533851	0.069055	0.703400
C144	C	2.033851	0.569055	1.203400
H145	H	1.572347	-0.032131	0.698238
H146	H	2.072347	0.467869	1.198238
H147	H	1.506347	0.004533	0.826619
H148	H	2.006347	0.504533	1.326619
H149	H	1.432684	-0.008702	0.690698
H150	H	1.932684	0.491298	1.190698
H151	H	1.610497	0.080624	0.744760
H152	H	2.110497	0.580624	1.244760
H153	H	1.536851	0.067388	0.608813
H154	H	2.036851	0.567388	1.108813
H155	H	1.224766	-0.201488	0.288039
H156	H	1.724766	0.298512	0.788039
C157	C	1.192413	-0.706269	0.163673
C158	C	1.692413	-0.206269	0.663673
C159	C	1.182014	-0.654638	0.277917
C160	C	1.682014	-0.154638	0.777917
H161	H	1.117440	-0.727286	0.146037
H162	H	1.617440	-0.227286	0.646037
H163	H	1.209993	-0.684892	0.088675
H164	H	1.709993	-0.184892	0.588675
H165	H	1.256849	-0.741654	0.178840
H166	H	1.756849	-0.241654	0.678840
H167	H	1.117584	-0.619250	0.262746
H168	H	1.617584	-0.119250	0.762746
H169	H	1.164419	-0.676016	0.352932
H170	H	1.664419	-0.176016	0.852932
H171	H	1.228106	-0.069276	0.288832
H172	H	1.728106	0.430724	0.788832
H173	H	1.331756	0.181320	0.950089
H174	H	1.831756	0.681320	1.450089
C175	C	1.740837	-0.576799	0.409359
C176	C	2.240837	-0.076799	0.909359
C177	C	1.645873	-0.524625	0.387047
C178	C	2.145873	-0.024625	0.887047
H179	H	1.815814	-0.555786	0.426975
H180	H	2.315814	-0.055786	0.926975
H181	H	1.723261	-0.598166	0.484372
H182	H	2.223261	-0.098166	0.984372
H183	H	1.747851	-0.611825	0.331846
H184	H	2.247851	-0.111825	0.831846
H185	H	1.638853	-0.489602	0.464563
H186	H	2.138853	0.010398	0.964563
H187	H	1.663453	-0.503247	0.312027
H188	H	2.163453	-0.003247	0.812027
H189	H	1.550178	0.059979	0.952627
H190	H	2.050178	0.559979	1.452627
H191	H	1.216849	-0.513609	0.286135
H192	H	1.716849	-0.013609	0.786135
C193	C	1.665785	-0.729897	0.275008
C194	C	2.165785	-0.229897	0.775008
C195	C	1.641997	-0.677603	0.386111
C196	C	2.141997	-0.177603	0.886111
H197	H	1.739514	-0.758329	0.292345
H198	H	2.239514	-0.258329	0.792345
H199	H	1.599734	-0.758769	0.259470
H200	H	2.099734	-0.258769	0.759470
H201	H	1.674260	-0.708056	0.197865
H202	H	2.174260	-0.208056	0.697865
H203	H	1.633513	-0.699444	0.463252
H204	H	2.133513	-0.199444	0.963252
H205	H	1.708063	-0.648727	0.401665
H206	H	2.208063	-0.148727	0.901665
H207	H	1.288978	0.205071	0.715081
H208	H	1.788978	0.705071	1.215081
