data_functionalizedCrystal
_audit_creation_method	'MofGen! by Chris Wilmer'
_symmetry_space_group_name_H-M	'P1'
_symmetry_Int_Tables_number	1
_symmetry_cell_setting	triclinic
loop_
_symmetry_equiv_pos_as_xyz
  x,y,z
_cell_length_a	19.288864
_cell_length_b	10.540539
_cell_length_c	18.366186
_cell_angle_alpha	89.995944
_cell_angle_beta	89.977106
_cell_angle_gamma	83.830869
loop_
_atom_site_label
_atom_site_type_symbol
_atom_site_fract_x
_atom_site_fract_y
_atom_site_fract_z
O1	O	0.922409	0.158345	-0.060780
O2	O	0.720291	0.179705	-0.060730
O3	O	0.825961	-0.015784	-0.060755
O4	O	0.816739	0.353834	-0.060755
O5	O	0.825943	-0.015794	0.060344
O6	O	0.720273	0.179696	0.060370
O7	O	0.922391	0.158335	0.060319
Zn8	Zn	0.821329	0.169014	0.079572
Zn9	Zn	0.821353	0.169027	-0.079982
O10	O	0.816721	0.353825	0.060345
C11	C	0.694401	0.179013	-0.000174
C12	C	0.617284	0.176950	-0.000155
C13	C	0.573353	0.291654	-0.000166
C14	C	0.500893	0.289716	-0.000174
C15	C	0.472367	0.173067	-0.000185
C16	C	0.516308	0.058347	-0.000170
C17	C	0.588766	0.060289	-0.000155
C18	C	0.363499	0.081371	-0.042637
C19	C	0.291042	0.079434	-0.042656
C20	C	0.248881	0.167074	-0.000230
C21	C	0.279186	0.256671	0.042208
C22	C	0.351644	0.258613	0.042223
C23	C	0.393799	0.170949	-0.000202
C24	C	0.126381	0.279684	-0.000249
C25	C	0.053919	0.277741	-0.000252
C26	C	0.069336	0.046369	-0.000255
C27	C	0.141795	0.048315	-0.000244
C28	C	0.170313	0.164976	-0.000245
C29	C	0.825261	-0.063076	-0.000207
C30	C	0.823192	-0.203978	-0.000210
C31	C	0.743903	-0.385638	-0.000462
C32	C	0.746000	-0.239067	-0.000190
C33	C	0.860329	-0.266469	0.068934
C34	C	0.857695	-0.412955	0.068993
C35	C	0.859285	-0.413498	-0.068720
C36	C	0.859996	-0.266531	-0.069634
C37	C	0.948281	0.159027	-0.000238
C38	C	1.025399	0.161091	-0.000262
C39	C	0.817422	0.401117	-0.000206
C40	C	0.819491	0.542019	-0.000207
N41	N	0.821318	0.169005	0.188463
N42	N	0.821370	0.169026	-0.188873
C43	C	0.868124	0.082484	0.226552
C44	C	0.868129	0.082479	0.302780
C45	C	0.821333	0.169015	0.340915
C46	C	0.774518	0.255542	0.302817
C47	C	0.774510	0.255537	0.226591
C48	C	0.812807	0.284670	0.461677
C49	C	0.812820	0.284677	0.537902
C50	C	0.821353	0.169031	0.576023
C51	C	0.829889	0.053374	0.537909
C52	C	0.829881	0.053368	0.461683
C53	C	0.821336	0.169030	0.423570
C54	C	0.868167	0.082497	0.696767
C55	C	0.868167	0.082490	0.772996
C56	C	0.774559	0.255565	0.773032
C57	C	0.774556	0.255561	0.696804
C58	C	0.821364	0.169029	0.658676
H59	H	0.149601	0.374676	-0.000238
N60	N	0.703512	-0.422615	-0.066135
H61	H	0.728372	-0.400001	-0.111985
H62	H	0.699946	-0.517494	-0.065111
N63	N	0.931225	-0.478147	0.073136
H64	H	0.965205	-0.411687	0.074919
H65	H	0.936506	-0.532582	0.118461
N66	N	0.233730	0.351211	0.087976
H67	H	0.200050	0.404925	0.055476
H68	H	0.206802	0.303701	0.124250
N69	N	0.485539	-0.067462	-0.000176
H70	H	0.455846	-0.073425	-0.045075
H71	H	0.524403	-0.139766	-0.000138
N72	N	0.408970	-0.013164	-0.088397
H73	H	0.378779	-0.070208	-0.115287
H74	H	0.435942	0.034355	-0.124628
H75	H	0.830233	-0.440547	0.120694
N76	N	0.189176	-0.075411	-0.000244
H77	H	0.219608	-0.079759	-0.045129
H78	H	0.219513	-0.079698	0.044684
N79	N	0.918614	-0.010836	0.343879
H80	H	0.910177	-0.100895	0.330629
H81	H	0.967956	0.003673	0.330573
H82	H	0.624535	-0.033120	-0.000146
N83	N	0.038580	-0.079449	-0.000259
H84	H	-0.013989	-0.063276	-0.000268
H85	H	0.054634	-0.129626	-0.045150
H86	H	0.716778	-0.195808	-0.049755
N87	N	0.826204	-0.454542	-0.138141
H88	H	0.852545	-0.425021	-0.181409
H89	H	0.827814	-0.550618	-0.139043
H90	H	0.018151	0.371151	-0.000257
H91	H	0.713527	-0.415173	0.048859
H92	H	0.805846	0.378848	0.430646
N93	N	0.918647	-0.010831	0.655636
H94	H	0.948297	-0.065651	0.691336
H95	H	0.891779	-0.066822	0.624024
N96	N	0.918665	-0.010812	0.814082
H97	H	0.948320	-0.065615	0.778359
H98	H	0.949601	0.037679	0.845682
N99	N	0.724080	0.348894	0.814153
H100	H	0.731185	0.335767	0.868223
H101	H	0.732544	0.438905	0.800820
H102	H	0.716558	-0.196659	0.049472
H103	H	0.917016	-0.245379	0.071492
H104	H	0.266374	0.006484	-0.077214
H105	H	0.834516	-0.223299	0.120403
N106	N	0.824050	-0.211521	-0.137396
H107	H	0.784092	-0.146348	-0.123191
H108	H	0.858462	-0.169269	-0.168093
H109	H	0.736445	0.326019	0.665790
H110	H	0.916275	-0.243564	-0.073824
N111	N	0.933139	-0.477691	-0.069359
H112	H	0.940814	-0.535312	-0.025510
H113	H	0.941184	-0.529950	-0.115268
N114	N	0.918605	-0.010846	0.185428
H115	H	0.948257	-0.065660	0.221129
H116	H	0.891736	-0.066845	0.153821
H117	H	0.836830	-0.040804	0.430654
N118	N	0.839098	-0.071371	0.579012
H119	H	0.837805	-0.053823	0.633085
H120	H	0.800223	-0.124055	0.565709
N121	N	0.803609	0.409413	0.579008
H122	H	0.798190	0.482672	0.543294
H123	H	0.760639	0.412252	0.610655
N124	N	0.724041	0.348873	0.343944
H125	H	0.731149	0.335750	0.398013
H126	H	0.732504	0.438884	0.330608
N127	N	0.724022	0.348854	0.185503
H128	H	0.694374	0.403673	0.221226
H129	H	0.750883	0.404849	0.153859
H130	H	0.465117	0.383125	-0.000181
N131	N	0.604112	0.417476	-0.000171
H132	H	0.565282	0.489847	-0.000182
H133	H	0.633815	0.423331	0.044726
H134	H	0.376315	0.331563	0.076779
