data_functionalizedCrystal
_audit_creation_method	'MofGen! by Chris Wilmer'
_symmetry_space_group_name_H-M	'P1'
_symmetry_Int_Tables_number	1
_symmetry_cell_setting	triclinic
loop_
_symmetry_equiv_pos_as_xyz
  x,y,z
_cell_length_a	14.853566
_cell_length_b	10.540510
_cell_length_c	13.930277
_cell_angle_alpha	89.997952
_cell_angle_beta	89.995631
_cell_angle_gamma	84.073862
loop_
_atom_site_label
_atom_site_type_symbol
_atom_site_fract_x
_atom_site_fract_y
_atom_site_fract_z
O1	O	1.197276	0.165722	-0.079762
O2	O	0.934925	0.185466	-0.079777
O3	O	1.072100	-0.009181	-0.079769
O4	O	1.060101	0.360369	-0.079770
O5	O	1.072080	-0.009185	0.079893
O6	O	0.934905	0.185462	0.079885
O7	O	1.197257	0.165718	0.079900
Zn8	Zn	1.066078	0.175589	0.105242
Zn9	Zn	1.066103	0.175595	-0.105119
O10	O	1.060082	0.360365	0.079891
C11	C	0.901321	0.184570	0.000052
C12	C	0.801223	0.181890	0.000046
C13	C	0.377986	0.170556	-0.086969
C14	C	0.377987	0.170553	0.087100
C15	C	0.472035	0.173069	0.087097
C16	C	0.519063	0.174332	0.000060
C17	C	0.472043	0.173077	-0.086975
C18	C	0.519061	0.174337	0.174130
C19	C	0.613114	0.176855	0.174131
C20	C	0.660144	0.178108	0.087092
C21	C	0.613119	0.176852	0.000054
C22	C	0.660147	0.178115	-0.086983
C23	C	0.613124	0.176849	-0.174022
C24	C	0.519073	0.174330	-0.174013
C25	C	0.754195	0.180627	0.087083
C26	C	0.754203	0.180635	-0.086989
C27	C	1.071196	-0.056477	0.000060
C28	C	1.068521	-0.197397	0.000054
C29	C	1.163816	-0.415902	0.000425
C30	C	1.166669	-0.269338	0.000061
C31	C	1.018289	-0.241600	-0.091122
C32	C	1.016131	-0.388338	-0.091193
C33	C	1.014065	-0.388128	0.090372
C34	C	1.018720	-0.241838	0.091572
C35	C	1.230860	0.166614	0.000069
C36	C	1.330959	0.169294	0.000068
C37	C	1.060985	0.407661	0.000060
C38	C	1.063661	0.548581	0.000060
N39	N	1.066067	0.175585	0.248808
N40	N	1.066121	0.175589	-0.248685
C41	C	1.005360	0.261751	0.701074
C42	C	1.126872	0.089429	0.701050
C43	C	1.126861	0.089425	0.600555
C44	C	1.066100	0.175586	0.550314
C45	C	1.005349	0.261752	0.600569
C46	C	1.187617	0.003270	0.550292
C47	C	1.187609	0.003263	0.449790
C48	C	1.126843	0.089420	0.399548
C49	C	1.066089	0.175588	0.449809
C50	C	1.005327	0.261749	0.399568
C51	C	0.944568	0.347912	0.449827
C52	C	0.944582	0.347908	0.550326
C53	C	1.126829	0.089423	0.299049
C54	C	1.005317	0.261750	0.299063
H55	H	1.205973	-0.240428	0.065418
H56	H	0.940374	-0.409467	0.090982
H57	H	1.237081	-0.066896	0.408876
F58	F	0.663184	0.178201	-0.266651
F59	F	0.940640	0.353451	0.245600
F60	F	0.327933	0.169222	0.179726
F61	F	1.061026	-0.441399	-0.180268
H62	H	0.480763	0.173318	0.244992
F63	F	0.879925	0.439604	0.603819
H64	H	0.942722	-0.410524	-0.095328
H65	H	0.792476	0.181670	0.157949
F66	F	0.663151	0.178199	0.266764
F67	F	1.213788	-0.471290	0.085892
H68	H	0.895100	0.418071	0.408909
F69	F	1.213520	-0.473309	-0.084550
H70	H	0.946034	-0.193416	-0.094516
H71	H	0.955888	0.331900	0.741997
H72	H	1.206217	-0.241366	-0.065406
H73	H	0.480779	0.173299	-0.244876
H74	H	1.176302	0.019277	0.258132
H75	H	1.176347	0.019285	0.741960
H76	H	0.792487	0.181659	-0.157867
F77	F	1.063906	-0.201775	-0.179807
H78	H	1.237092	-0.066874	0.591202
H79	H	1.045247	-0.430655	0.159483
F80	F	1.066488	-0.204961	0.179738
F81	F	0.327945	0.169180	-0.179598
F82	F	0.925057	-0.176677	0.098765
