data_functionalizedCrystal
_audit_creation_method	'MofGen! by Chris Wilmer'
_symmetry_space_group_name_H-M	'P1'
_symmetry_Int_Tables_number	1
_symmetry_cell_setting	triclinic
loop_
_symmetry_equiv_pos_as_xyz
  x,y,z
_cell_length_a	19.288864
_cell_length_b	26.809956
_cell_length_c	19.288862
_cell_angle_alpha	89.996837
_cell_angle_beta	96.864237
_cell_angle_gamma	90.022644
loop_
_atom_site_label
_atom_site_type_symbol
_atom_site_fract_x
_atom_site_fract_y
_atom_site_fract_z
O1	O	0.921353	0.041648	-0.086638
O2	O	1.421353	0.541648	0.413362
O3	O	0.719092	0.041615	-0.098327
O4	O	1.219092	0.541615	0.401673
O5	O	0.826068	0.041619	0.008648
O6	O	1.326068	0.541619	0.508648
O7	O	0.814377	0.041643	-0.193613
O8	O	1.314377	0.541643	0.306387
O9	O	0.826048	-0.041340	0.008632
O10	O	1.326048	0.458660	0.508632
O11	O	0.719072	-0.041345	-0.098343
O12	O	1.219072	0.458655	0.401657
O13	O	0.921333	-0.041312	-0.086654
O14	O	1.421333	0.458688	0.413346
Zn15	Zn	0.820199	-0.054500	-0.092501
Zn16	Zn	1.320199	0.445500	0.407499
Zn17	Zn	0.820226	0.054803	-0.092480
Zn18	Zn	1.320226	0.554803	0.407520
O19	O	0.814357	-0.041316	-0.193629
O20	O	1.314357	0.458684	0.306371
C21	C	0.693206	0.000131	-0.097959
C22	C	1.193206	0.500131	0.402041
C23	C	0.616102	0.000117	-0.096830
C24	C	1.116102	0.500117	0.403170
N25	N	0.820186	-0.129096	-0.092515
N26	N	1.320186	0.370904	0.407485
C27	C	0.571405	0.000133	-0.159598
C28	C	1.071405	0.500133	0.340402
C29	C	0.498958	0.000138	-0.158537
C30	C	0.998958	0.500138	0.341463
C31	C	0.471211	0.000138	-0.094705
C32	C	0.971211	0.500138	0.405295
C33	C	0.515918	0.000120	-0.031929
C34	C	1.015918	0.500120	0.468071
C35	C	0.588363	0.000110	-0.032991
C36	C	1.088363	0.500110	0.467009
C37	C	0.362957	0.029213	-0.044520
C38	C	0.862957	0.529213	0.455480
C39	C	0.290512	0.029227	-0.043460
C40	C	0.790512	0.529227	0.456540
C41	C	0.247766	0.000168	-0.091425
C42	C	0.747766	0.500168	0.408575
C43	C	0.277471	-0.028898	-0.140462
C44	C	0.777471	0.471102	0.359538
C45	C	0.349916	-0.028908	-0.141524
C46	C	0.849916	0.471092	0.358476
C47	C	0.392657	0.000149	-0.093546
C48	C	0.892657	0.500149	0.406454
C49	C	0.124513	0.000188	-0.153047
C50	C	0.624513	0.500188	0.346953
C51	C	0.052065	0.000191	-0.151984
C52	C	0.552065	0.500191	0.348016
C53	C	0.069026	0.000178	-0.025374
C54	C	0.569026	0.500178	0.474626
C55	C	0.141473	0.000171	-0.026439
C56	C	0.641473	0.500171	0.473561
C57	C	0.169211	0.000178	-0.090278
C58	C	0.669211	0.500178	0.409722
C59	C	0.867589	-0.473720	-0.045123
C60	C	1.367589	0.026280	0.454877
C61	C	0.867605	-0.682597	-0.045112
C62	C	1.367605	-0.182597	0.454888
O63	O	0.907880	-0.709599	-0.004822
O64	O	1.407880	-0.209599	0.495178
N65	N	0.820230	-0.708723	-0.092464
N66	N	1.320230	-0.208723	0.407536
C67	C	0.772844	-0.682626	-0.139819
C68	C	1.272844	-0.182626	0.360181
O69	O	0.732544	-0.709640	-0.180090
O70	O	1.232544	-0.209640	0.319910
C71	C	0.772825	-0.473749	-0.139826
C72	C	1.272825	0.026251	0.360174
C73	C	0.820208	-0.447626	-0.092476
C74	C	1.320208	0.052374	0.407524
C75	C	0.914967	-0.447597	0.002224
C76	C	1.414967	0.052403	0.502224
C77	C	0.914965	-0.395380	0.002219
C78	C	1.414965	0.104620	0.502219
C79	C	0.867584	-0.369287	-0.045134
C80	C	1.367584	0.130713	0.454866
C81	C	0.820206	-0.395410	-0.092481
C82	C	1.320206	0.104590	0.407519
C83	C	0.725436	-0.447653	-0.187177
C84	C	1.225436	0.052347	0.312823
C85	C	0.725434	-0.395430	-0.187174
C86	C	1.225434	0.104570	0.312826
C87	C	0.772817	-0.369307	-0.139823
C88	C	1.272817	0.130693	0.360177
C89	C	0.772823	-0.317100	-0.139840
C90	C	1.272823	0.182900	0.360160
N91	N	0.820198	-0.290975	-0.092488
N92	N	1.320198	0.209025	0.407512
C93	C	0.867579	-0.317068	-0.045135
C94	C	1.367579	0.182932	0.454865
C95	C	0.772858	-0.792289	-0.139813
C96	C	1.272858	-0.292289	0.360187
C97	C	0.772864	-0.844508	-0.139813
C98	C	1.272864	-0.344508	0.360187
C99	C	0.867624	-0.844476	-0.045105
C100	C	1.367624	-0.344476	0.454895
C101	C	0.867622	-0.792256	-0.045109
C102	C	1.367622	-0.292256	0.454891
C103	C	0.820234	-0.766163	-0.092461
C104	C	1.320234	-0.266163	0.407539
C105	C	0.867571	-0.207410	-0.045151
C106	C	1.367571	0.292590	0.454849
C107	C	0.867567	-0.155189	-0.045163
C108	C	1.367567	0.344811	0.454837
C109	C	0.772804	-0.155226	-0.139868
C110	C	1.272804	0.344774	0.360132
C111	C	0.772811	-0.207442	-0.139859
C112	C	1.272811	0.292558	0.360141
C113	C	0.820197	-0.233533	-0.092495
C114	C	1.320197	0.266467	0.407505
O115	O	0.732564	-0.290066	-0.180104
O116	O	1.232564	0.209934	0.319896
O117	O	0.907863	-0.290045	-0.004860
O118	O	1.407863	0.209955	0.495140
C119	C	0.867591	-0.525936	-0.045117
C120	C	1.367591	-0.025936	0.454883
C121	C	0.820212	-0.552059	-0.092464
C122	C	1.320212	-0.052059	0.407536
C123	C	0.772831	-0.525965	-0.139817
C124	C	1.272831	-0.025965	0.360183
C125	C	0.820217	-0.604278	-0.092464
C126	C	1.320217	-0.104278	0.407536
C127	C	0.867598	-0.630371	-0.045111
C128	C	1.367598	-0.130371	0.454889
C129	C	0.914974	-0.604246	0.002241
C130	C	1.414974	-0.104246	0.502241
C131	C	0.914972	-0.552029	0.002235
C132	C	1.414972	-0.052029	0.502235
C133	C	0.725456	-0.552091	-0.187169
C134	C	1.225456	-0.052091	0.312831
C135	C	0.725462	-0.604307	-0.187160
C136	C	1.225462	-0.104307	0.312840
C137	C	0.772843	-0.630400	-0.139807
C138	C	1.272843	-0.130400	0.360193
C139	C	0.947219	0.000174	-0.087022
C140	C	1.447219	0.500174	0.412978
C141	C	1.024323	0.000190	-0.088151
C142	C	1.524323	0.500190	0.411849
C143	C	0.825682	0.000137	0.034516
C144	C	1.325682	0.500137	0.534516
C145	C	0.824554	0.000131	0.111620
C146	C	1.324554	0.500131	0.611620
N147	N	0.820245	0.129399	-0.092460
N148	N	1.320245	0.629399	0.407540
C149	C	0.887322	0.000137	0.156316
C150	C	1.387322	0.500137	0.656316
C151	C	0.886262	0.000143	0.228764
C152	C	1.386262	0.500143	0.728764
C153	C	0.822430	0.000132	0.256511
C154	C	1.322430	0.500132	0.756511
C155	C	0.759653	0.000128	0.211805
C156	C	1.259653	0.500128	0.711805
C157	C	0.760715	0.000128	0.139359
C158	C	1.260715	0.500128	0.639359
C159	C	0.772244	-0.028938	0.364793
C160	C	1.272244	0.471062	0.864793
C161	C	0.771185	-0.028941	0.437238
C162	C	1.271185	0.471059	0.937238
C163	C	0.819152	0.000136	0.479957
C164	C	1.319152	0.500136	0.979957
C165	C	0.868190	0.029209	0.450225
C166	C	1.368190	0.529209	0.950225
C167	C	0.869252	0.029209	0.377779
C168	C	1.369252	0.529209	0.877779
C169	C	0.821271	0.000133	0.335065
C170	C	1.321271	0.500133	0.835065
C171	C	0.880775	0.000150	0.603209
C172	C	1.380775	0.500150	1.103209
C173	C	0.879713	0.000159	0.675658
C174	C	1.379713	0.500159	1.175658
C175	C	0.753102	0.000139	0.658697
C176	C	1.253102	0.500139	1.158697
C177	C	0.754167	0.000135	0.586251
C178	C	1.254167	0.500135	1.086251
C179	C	0.818005	0.000138	0.558511
C180	C	1.318005	0.500138	1.058511
C181	C	0.814745	0.000160	0.780503
C182	C	1.314745	0.500160	1.280503
C183	C	0.815880	0.000148	0.703400
C184	C	1.315880	0.500148	1.203400
H185	H	0.593985	0.000140	-0.211580
H186	H	1.093985	0.500140	0.288420
H187	H	0.953555	-0.530764	0.040793
H188	H	1.453555	-0.030764	0.540793
H189	H	0.266332	0.052896	-0.003534
H190	H	0.766332	0.552896	0.496466
O191	O	0.686462	0.000118	0.538042
O192	O	1.186462	0.500118	1.038042
H193	H	0.683919	0.033932	0.504631
H194	H	1.183919	0.533932	1.004631
O195	O	0.947419	0.000167	0.723867
O196	O	1.447419	0.500167	1.223867
H197	H	0.935958	0.000174	0.778904
H198	H	1.435958	0.500174	1.278904
H199	H	0.015673	0.000200	-0.203099
H200	H	0.515673	0.500200	0.296901
H201	H	0.462559	0.000149	-0.209652
H202	H	0.962559	0.500149	0.290348
H203	H	0.397756	0.052880	-0.005459
H204	H	0.897756	0.552880	0.494541
O205	O	0.674323	-0.367282	-0.238243
O206	O	1.174323	0.132718	0.261757
H207	H	0.682999	-0.377296	-0.292371
H208	H	1.182999	0.122704	0.207629
O209	O	0.189685	0.000156	0.041263
O210	O	0.689685	0.500156	0.541263
H211	H	0.223131	0.033961	0.043814
H212	H	0.723131	0.533961	0.543814
O213	O	0.956176	0.000154	0.126402
O214	O	1.456176	0.500154	0.626402
H215	H	0.986325	-0.033650	0.144379
H216	H	1.486325	0.466350	0.644379
O217	O	0.636579	0.000093	0.034711
O218	O	1.136579	0.500093	0.534711
H219	H	0.626774	0.033905	0.065277
H220	H	1.126774	0.533905	0.565277
H221	H	0.374100	-0.052576	-0.181450
H222	H	0.874100	0.447424	0.318550
O223	O	0.919938	0.060575	0.496282
O224	O	1.419938	0.560575	0.996282
H225	H	0.891364	0.087872	0.525515
H226	H	1.391364	0.587872	1.025515
O227	O	0.966068	-0.367209	0.053295
O228	O	1.466068	0.132791	0.553295
H229	H	0.936935	-0.343427	0.086977
H230	H	1.436935	0.156573	0.586977
H231	H	0.932756	0.000155	0.580623
H232	H	1.432756	0.500155	1.080623
O233	O	0.918671	-0.127018	0.005921
O234	O	1.418671	0.372982	0.505921
H235	H	0.889535	-0.103236	0.039599
H236	H	1.389535	0.396764	0.539599
H237	H	0.953551	-0.468838	0.040788
H238	H	1.453551	0.031162	0.540788
O239	O	0.693009	0.000114	0.091150
O240	O	1.193009	0.500114	0.591150
H241	H	0.690467	0.033926	0.057736
H242	H	1.190467	0.533926	0.557736
H243	H	0.493322	0.000127	0.020044
H244	H	0.993322	0.500127	0.520044
H245	H	0.906205	-0.865730	-0.006549
H246	H	1.406205	-0.365730	0.493451
H247	H	0.242668	-0.052561	-0.179519
H248	H	0.742668	0.447439	0.320481
H249	H	0.906205	-0.770990	-0.006552
H250	H	1.406205	-0.270990	0.493448
O251	O	0.918688	-0.235548	0.005925
O252	O	1.418688	0.264452	0.505925
H253	H	0.951635	-0.208603	0.038837
H254	H	1.451635	0.291397	0.538837
H255	H	0.734268	-0.771048	-0.178375
H256	H	1.234268	-0.271048	0.321625
O257	O	0.154440	0.000186	-0.221897
O258	O	0.654440	0.500186	0.278103
H259	H	0.111185	0.000188	-0.265367
H260	H	0.611185	0.500188	0.234633
H261	H	0.734287	-0.865773	-0.178377
H262	H	1.234287	-0.365773	0.321623
O263	O	0.674354	-0.475821	-0.238273
O264	O	1.174354	0.024179	0.261727
H265	H	0.641416	-0.448895	-0.271199
H266	H	1.141416	0.051105	0.228801
H267	H	0.734234	-0.228711	-0.178423
H268	H	1.234234	0.271289	0.321577
H269	H	0.046436	0.000209	0.026600
H270	H	0.546436	0.500209	0.526600
H271	H	0.734229	-0.133972	-0.178424
H272	H	1.234229	0.366028	0.321576
O273	O	0.684255	0.000126	0.688619
O274	O	1.184255	0.500126	1.188619
H275	H	0.640785	0.000122	0.645363
H276	H	1.140785	0.500122	1.145363
O277	O	0.966077	-0.632393	0.053319
O278	O	1.466077	-0.132393	0.553319
H279	H	0.958109	-0.673092	0.045365
H280	H	1.458109	-0.173092	0.545365
H281	H	0.686878	-0.625573	-0.225725
H282	H	1.186878	-0.125573	0.274275
H283	H	0.686871	-0.530849	-0.225729
H284	H	1.186871	-0.030849	0.274271
H285	H	0.937377	0.000150	0.265162
H286	H	1.437377	0.500150	0.765162
H287	H	0.731252	-0.052611	0.461439
H288	H	1.231252	0.447389	0.961439
H289	H	0.909179	0.052882	0.353574
H290	H	1.409179	0.552882	0.853574
H291	H	0.733182	-0.052619	0.330016
H292	H	1.233182	0.447381	0.830016
H293	H	0.707681	0.000120	0.234402
H294	H	1.207681	0.500120	0.734402
