data_functionalizedCrystal
_audit_creation_method	'MofGen! by Chris Wilmer'
_symmetry_space_group_name_H-M	'P1'
_symmetry_Int_Tables_number	1
_symmetry_cell_setting	triclinic
loop_
_symmetry_equiv_pos_as_xyz
  x,y,z
_cell_length_a	19.805407
_cell_length_b	18.050590
_cell_length_c	18.050582
_cell_angle_alpha	89.976663
_cell_angle_beta	89.985914
_cell_angle_gamma	90.015869
loop_
_atom_site_label
_atom_site_type_symbol
_atom_site_fract_x
_atom_site_fract_y
_atom_site_fract_z
Zn1	Zn	1.034748	-0.295760	-0.419892
Zn2	Zn	1.034685	-0.419943	-0.295700
Zn3	Zn	0.921570	-0.295766	-0.295718
Zn4	Zn	0.921541	-0.419907	-0.419851
O5	O	0.978136	-0.357844	-0.357790
O6	O	1.129456	-0.312246	-0.403428
O7	O	1.019666	-0.403488	-0.191778
O8	O	0.936621	-0.191840	-0.312215
O9	O	1.129410	-0.403483	-0.312185
O10	O	1.019772	-0.191836	-0.403445
O11	O	0.936561	-0.312256	-0.191791
O12	O	0.826849	-0.312220	-0.312174
O13	O	0.936573	-0.403421	-0.523781
O14	O	0.826829	-0.403426	-0.403374
O15	O	1.019745	-0.312210	-0.523811
O16	O	1.019639	-0.523863	-0.312145
O17	O	0.936512	-0.523836	-0.403357
C18	C	0.802280	-0.357821	-0.357772
C19	C	0.727048	-0.357828	-0.357782
C20	C	0.691728	-0.310405	-0.405365
C21	C	0.621040	-0.310409	-0.405368
C22	C	0.585673	-0.357841	-0.357791
C23	C	0.620997	-0.405266	-0.310203
C24	C	0.691684	-0.405257	-0.310197
C25	C	0.335924	-0.405299	-0.310226
C26	C	0.265232	-0.405305	-0.310237
C27	C	0.265280	-0.310451	-0.405396
C28	C	0.335967	-0.310443	-0.405390
C29	C	0.371285	-0.357865	-0.357800
C30	C	0.447934	-0.357859	-0.357797
C31	C	0.509025	-0.357851	-0.357798
C32	C	0.978084	-0.550796	-0.357761
C33	C	0.978124	-0.633342	-0.357773
C34	C	1.023422	-0.832780	-0.308241
C35	C	1.039951	-0.882119	-0.376020
C36	C	0.978162	-0.784472	-0.357802
C37	C	0.961702	-0.882214	-0.290053
C38	C	0.978201	-0.930457	-0.357825
C39	C	0.994722	-0.832724	-0.425618
C40	C	0.916446	-0.832815	-0.339605
C41	C	0.932951	-0.882132	-0.407431
C42	C	0.978142	-0.700374	-0.357788
C43	C	0.978221	-1.014554	-0.357847
C44	C	1.154679	-0.357868	-0.357809
C45	C	1.229911	-0.357878	-0.357817
C46	C	0.978163	-0.357811	-0.551496
C47	C	0.978174	-0.357797	-0.634042
C48	C	0.978207	-0.164138	-0.357836
C49	C	0.978237	-0.081592	-0.357856
C50	C	0.932979	-0.407329	-0.833476
C51	C	0.994734	-0.425486	-0.882866
C52	C	0.978207	-0.357740	-0.785172
C53	C	0.916487	-0.339563	-0.882864
C54	C	0.978234	-0.357687	-0.931157
C55	C	1.039994	-0.375932	-0.833475
C56	C	0.961705	-0.289978	-0.833469
C57	C	1.023502	-0.308109	-0.882836
C58	C	0.978191	-0.357773	-0.701074
C59	C	0.978257	-0.357654	-1.015254
C60	C	0.978149	-0.357823	-0.164838
C61	C	0.978269	-0.357628	-0.082293
H62	H	0.364672	-0.443914	-0.271476
H63	H	1.008708	-0.482768	-0.904564
H64	H	0.236438	-0.443931	-0.271492
O65	O	0.370217	-0.264298	-0.451629
C66	C	0.362802	-0.170239	-0.546045
C67	C	0.323931	-0.222451	-0.493707
H68	H	0.325397	-0.136404	-0.580090
H69	H	0.395873	-0.131308	-0.512049
H70	H	0.395922	-0.204396	-0.584781
H71	H	0.290775	-0.188354	-0.454961
H72	H	0.290903	-0.261385	-0.527749
O73	O	0.887469	-0.457520	-0.807649
C74	C	0.853464	-0.585643	-0.803558
C75	C	0.905057	-0.528882	-0.832842
H76	H	0.867657	-0.643350	-0.823928
H77	H	0.853535	-0.584888	-0.740405
H78	H	0.800971	-0.570697	-0.824706
H79	H	0.957575	-0.543789	-0.811749
H80	H	0.904927	-0.529648	-0.895994
H81	H	0.236515	-0.271835	-0.444144
O82	O	0.586539	-0.451316	-0.264056
C83	C	0.477623	-0.493340	-0.221860
C84	C	0.516560	-0.441160	-0.274171
H85	H	0.421038	-0.485136	-0.230009
H86	H	0.491466	-0.553256	-0.234793
H87	H	0.491545	-0.480221	-0.162007
H88	H	0.502659	-0.454212	-0.334041
H89	H	0.502713	-0.381260	-0.261174
H90	H	1.092159	-0.903779	-0.391427
O91	O	0.944950	-0.908110	-0.221713
C92	C	0.861463	-0.911253	-0.124631
C93	C	0.880335	-0.881892	-0.202039
H94	H	0.809227	-0.890054	-0.108695
H95	H	0.861105	-0.974405	-0.125409
H96	H	0.900117	-0.890994	-0.082458
H97	H	0.841701	-0.902096	-0.244256
H98	H	0.880715	-0.818742	-0.201200
O99	O	1.069043	-0.806797	-0.258297
C100	C	1.119771	-0.699366	-0.201919
C101	C	1.068070	-0.728692	-0.258487
H102	H	1.119012	-0.636216	-0.202064
H103	H	1.106243	-0.720517	-0.144274
H104	H	1.172372	-0.719665	-0.217578
H105	H	1.015450	-0.708406	-0.242896
H106	H	1.081656	-0.707548	-0.316116
H107	H	0.720441	-0.443874	-0.271450
O108	O	1.011445	-0.806783	-0.493949
C109	C	1.030144	-0.699395	-0.570609
C110	C	1.011209	-0.728674	-0.493188
H111	H	1.029946	-0.636241	-0.570023
H112	H	1.082624	-0.720089	-0.586245
H113	H	0.991828	-0.720187	-0.612893
H114	H	1.049480	-0.707895	-0.450852
H115	H	0.958712	-0.707986	-0.477615
O116	O	1.102248	-0.394352	-0.807585
C117	C	1.172086	-0.415001	-0.700254
C118	C	1.101551	-0.394145	-0.729476
H119	H	1.171550	-0.414825	-0.637100
H120	H	1.186267	-0.472582	-0.720988
H121	H	1.210675	-0.372981	-0.721049
H122	H	1.062915	-0.436115	-0.708693
H123	H	1.087427	-0.336545	-0.708748
O124	O	0.854160	-0.806916	-0.321335
C125	C	0.757954	-0.734589	-0.359326
C126	C	0.828480	-0.763884	-0.380128
H127	H	0.737177	-0.699779	-0.406841
H128	H	0.722633	-0.783256	-0.348362
H129	H	0.761863	-0.699000	-0.307342
H130	H	0.824635	-0.799462	-0.432122
H131	H	0.863773	-0.715183	-0.391043
O132	O	1.069099	-0.257962	-0.908562
C133	C	1.087326	-0.147393	-0.980702
C134	C	1.035614	-0.204120	-0.951606
H135	H	1.060276	-0.103856	-1.015521
H136	H	1.113485	-0.119366	-0.931934
H137	H	1.126516	-0.176999	-1.016234
H138	H	0.996384	-0.174571	-0.916086
H139	H	1.009507	-0.232145	-1.000407
H140	H	0.894693	-0.903665	-0.449402
O141	O	0.944937	-0.221720	-0.807465
C142	C	0.867388	-0.149701	-0.734049
C143	C	0.886320	-0.227047	-0.763436
H144	H	0.819987	-0.153980	-0.698459
H145	H	0.910694	-0.126897	-0.699259
H146	H	0.857445	-0.110953	-0.782726
H147	H	0.896253	-0.265850	-0.714804
H148	H	0.843004	-0.249790	-0.798248
O149	O	0.725977	-0.264262	-0.451607
C150	C	0.718555	-0.170209	-0.546028
C151	C	0.679688	-0.222419	-0.493684
H152	H	0.681147	-0.136377	-0.580072
H153	H	0.751628	-0.131276	-0.512037
H154	H	0.751672	-0.204369	-0.584765
H155	H	0.646534	-0.188319	-0.454937
H156	H	0.646658	-0.261355	-0.527721
O157	O	0.586659	-0.264449	-0.451631
C158	C	0.506920	-0.254615	-0.551959
C159	C	0.545800	-0.306750	-0.499597
H160	H	0.473887	-0.288795	-0.590763
H161	H	0.473777	-0.215744	-0.517983
H162	H	0.544356	-0.220703	-0.585930
H163	H	0.508413	-0.340710	-0.465615
H164	H	0.578953	-0.345572	-0.533616
H165	H	0.864279	-0.324211	-0.904559
