data_functionalizedCrystal
_audit_creation_method	'MofGen! by Chris Wilmer'
_symmetry_space_group_name_H-M	'P1'
_symmetry_Int_Tables_number	1
_symmetry_cell_setting	triclinic
loop_
_symmetry_equiv_pos_as_xyz
  x,y,z
_cell_length_a	7.088929
_cell_length_b	8.559649
_cell_length_c	17.019361
_cell_angle_alpha	103.397335
_cell_angle_beta	92.366984
_cell_angle_gamma	95.325275
loop_
_atom_site_label
_atom_site_type_symbol
_atom_site_fract_x
_atom_site_fract_y
_atom_site_fract_z
O1	O	-0.161824	2.103473	0.017498
O2	O	-0.155195	1.638860	-0.022866
O3	O	-0.177344	1.882202	0.111855
O4	O	-0.139675	1.860131	-0.117223
O5	O	0.137665	1.914722	0.129895
O6	O	0.159814	1.671380	-0.004826
O7	O	0.153185	2.135992	0.035538
Cu8	Cu	0.185262	1.906655	0.017003
Cu9	Cu	-0.187272	1.868197	-0.004331
O10	O	0.175334	1.892650	-0.099183
C11	C	0.002811	1.595635	-0.016905
C12	C	0.004304	1.418388	-0.026011
N13	N	0.447283	1.933717	0.032010
N14	N	-0.449294	1.841149	-0.019331
C15	C	-0.024622	1.896984	0.149930
C16	C	-0.038871	1.892560	0.236504
C17	C	-0.004825	2.179217	0.029577
C18	C	-0.006331	2.356463	0.038682
C19	C	0.126138	1.908203	0.287017
C20	C	0.112733	1.904055	0.368364
C21	C	-0.065682	1.884252	0.399194
C22	C	-0.230704	1.868612	0.348675
C23	C	-0.217297	1.872772	0.267332
C24	C	-0.114752	1.870816	0.644306
C25	C	-0.128146	1.866652	0.725655
C26	C	0.215293	1.902099	0.745339
C27	C	0.228684	1.906247	0.663992
C28	C	0.063662	1.890616	0.613481
C29	C	-0.079388	1.880006	0.482342
C30	C	0.077370	1.894873	0.530336
C31	C	0.022612	1.877869	0.862742
C32	C	0.036863	1.882296	0.776168
H33	H	0.477807	1.745213	-0.072537
H34	H	-0.016598	2.439043	0.101032
H35	H	0.014552	2.335797	-0.088366
C36	C	0.322411	1.929988	0.253113
N37	N	0.470250	1.946404	0.227579
H38	H	0.247102	1.916801	0.409489
H39	H	0.520192	2.029671	0.085214
H40	H	0.373968	1.922408	0.638901
H41	H	0.349644	1.914827	0.786473
C42	C	-0.324424	1.844804	0.759558
N43	N	-0.472253	1.828322	0.785090
C44	C	-0.398820	1.855558	0.211767
N45	N	-0.535550	1.842596	0.169916
H46	H	-0.249125	1.858085	0.603189
C47	C	-0.426963	1.846828	0.382591
N48	N	-0.574790	1.830412	0.408134
H49	H	0.222635	1.911005	0.505232
H50	H	-0.224655	1.863879	0.507452
