data_functionalizedCrystal
_audit_creation_method	'MofGen! by Chris Wilmer'
_symmetry_space_group_name_H-M	'P1'
_symmetry_Int_Tables_number	1
_symmetry_cell_setting	triclinic
loop_
_symmetry_equiv_pos_as_xyz
  x,y,z
_cell_length_a	19.188929
_cell_length_b	10.654559
_cell_length_c	9.730223
_cell_angle_alpha	89.999841
_cell_angle_beta	89.975682
_cell_angle_gamma	96.183267
loop_
_atom_site_label
_atom_site_type_symbol
_atom_site_fract_x
_atom_site_fract_y
_atom_site_fract_z
O1	O	-0.098091	1.665750	0.114371
O2	O	-0.107427	1.300076	0.114379
O3	O	-0.001172	1.493466	0.114290
O4	O	-0.204345	1.472360	0.114460
O5	O	-0.001172	1.493466	-0.114290
O6	O	-0.107427	1.300076	-0.114201
O7	O	-0.098091	1.665751	-0.114209
Zn8	Zn	-0.102759	1.482914	-0.150497
Zn9	Zn	-0.102759	1.482913	0.150667
O10	O	-0.204345	1.472361	-0.114120
C11	C	-0.106740	1.253293	0.000089
C12	C	-0.104685	1.113894	0.000087
C13	C	-0.040193	1.063718	0.000030
C14	C	-0.038266	0.932737	0.000038
C15	C	-0.165330	0.902116	0.000157
C16	C	-0.167256	1.033095	0.000158
C17	C	0.033167	1.081396	-0.000044
C18	C	0.035093	0.950415	-0.000036
C19	C	-0.230361	1.473044	0.000192
C20	C	-0.307879	1.475096	0.000257
C21	C	-0.352058	1.361621	0.000232
C22	C	-0.424895	1.363548	0.000201
C23	C	-0.453548	1.478957	0.000168
C24	C	-0.409359	1.592447	0.000201
C25	C	-0.336524	1.590516	0.000246
N26	N	-0.562095	1.567173	-0.077712
N27	N	-0.631286	1.568999	-0.077757
C28	C	-0.672995	1.484781	0.000035
N29	N	-0.642901	1.398649	0.077858
N30	N	-0.573705	1.396819	0.077898
C31	C	-0.532525	1.481064	0.000120
C32	C	-0.796153	1.373389	-0.000022
C33	C	-0.868990	1.375321	-0.000044
C34	C	-0.853453	1.604223	-0.000058
C35	C	-0.780617	1.602287	-0.000022
C36	C	-0.751972	1.486867	-0.000010
C37	C	0.024843	1.492782	-0.000019
C38	C	0.102361	1.490731	-0.000075
C39	C	-0.098778	1.712534	0.000084
C40	C	-0.100833	1.851933	0.000095
N41	N	-0.102759	1.482923	-0.356033
C42	C	-0.145494	1.558840	-0.571832
C43	C	-0.145498	1.558842	-0.427949
C44	C	-0.060017	1.406987	-0.428008
C45	C	-0.060017	1.406980	-0.571889
C46	C	-0.194843	1.646517	-0.571796
C47	C	-0.194848	1.646519	-0.427913
N48	N	-0.102754	1.482913	0.356203
H49	H	0.060812	1.123729	0.095587
H50	H	-0.172900	1.741559	-0.616448
C51	C	-0.765084	1.248045	0.000298
C52	C	-0.787512	1.179490	0.117915
C53	C	-0.758899	1.064027	0.118268
H54	H	-0.780163	1.201178	-0.079319
H55	H	-0.715375	1.263096	0.000395
H56	H	-0.837210	1.164435	0.117805
H57	H	-0.772433	1.226319	0.197551
H58	H	-0.709191	1.079078	0.118366
H59	H	-0.773981	1.017171	0.038646
H60	H	-0.774108	1.017503	0.198076
C61	C	-0.472792	1.240247	0.000382
C62	C	-0.459799	1.170701	0.117970
C63	C	-0.503900	1.057104	0.118173
H64	H	-0.520294	1.257754	0.000421
H65	H	-0.464007	1.192843	-0.079284
H66	H	-0.468589	1.218095	0.197615
H67	H	-0.412305	1.153161	0.117955
H68	H	-0.495115	1.009700	0.038508
H69	H	-0.551399	1.074624	0.118209
H70	H	-0.495086	1.009898	0.197948
C71	C	-0.233316	0.814538	0.000013
C72	C	-0.272124	0.837177	-0.117534
C73	C	-0.334762	0.756540	-0.117704
H74	H	-0.223033	0.729301	-0.000062
H75	H	-0.259771	0.829737	0.079707
H76	H	-0.245674	0.821969	-0.197207
H77	H	-0.282426	0.922398	-0.117484
H78	H	-0.361217	0.771738	-0.038010
H79	H	-0.324472	0.671308	-0.117775
H80	H	-0.361104	0.771897	-0.197451
C81	C	0.062778	1.142666	-0.131734
C82	C	0.084352	1.049740	-0.218983
C83	C	0.111639	1.106137	-0.340301
H84	H	0.027702	1.184394	-0.176165
H85	H	0.101742	1.202219	-0.110412
H86	H	0.045392	0.990210	-0.240308
H87	H	0.119434	1.008005	-0.174596
H88	H	0.150603	1.165690	-0.318979
H89	H	0.076560	1.147864	-0.384719
H90	H	0.126286	1.043098	-0.399509
H91	H	-0.876782	1.698191	0.000014
C92	C	-0.440599	1.717621	0.000093
C93	C	-0.513842	1.695026	0.000008
C94	C	-0.542643	1.810310	-0.000103
H95	H	-0.425581	1.764425	0.079788
H96	H	-0.425480	1.764342	-0.079644
H97	H	-0.528956	1.648326	0.079736
H98	H	-0.528880	1.648242	-0.079682
H99	H	-0.527523	1.857030	-0.079839
H100	H	-0.527619	1.857105	0.079594
H101	H	-0.592340	1.794995	-0.000173
C102	C	0.066304	0.903807	0.131598
C103	C	0.085011	1.006442	0.218802
C104	C	0.113771	0.963555	0.340064
H105	H	0.032704	0.845529	0.176101
H106	H	0.106736	0.863388	0.110194
H107	H	0.044584	1.046842	0.240208
H108	H	0.118618	1.064730	0.174343
H109	H	0.154203	0.923136	0.318660
H110	H	0.080167	0.905277	0.384554
H111	H	0.126473	1.033187	0.399241
C112	C	-0.732730	1.725589	0.000201
C113	C	-0.745817	1.795122	0.117767
C114	C	-0.701724	1.908728	0.118015
H115	H	-0.685226	1.708093	0.000303
H116	H	-0.741457	1.772997	-0.079479
H117	H	-0.737085	1.747725	0.197427
H118	H	-0.793313	1.812651	0.117690
H119	H	-0.710451	1.956135	0.038334
H120	H	-0.654223	1.891219	0.118112
H121	H	-0.710602	1.955925	0.197774
H122	H	0.063779	0.921653	-0.095721
H123	H	-0.219772	1.073941	0.000228
C124	C	-0.013544	1.324496	-0.649781
C125	C	0.023897	1.258024	-0.556015
C126	C	0.066722	1.182038	-0.627722
H127	H	-0.041785	1.266446	-0.705887
H128	H	0.018361	1.376103	-0.705910
H129	H	-0.008004	1.206422	-0.499910
H130	H	0.052151	1.316043	-0.499907
H131	H	0.098626	1.233645	-0.683851
H132	H	0.038475	1.123996	-0.683825
H133	H	0.092135	1.136936	-0.564113
C134	C	-0.268291	1.603628	-0.623541
C135	C	-0.313219	1.577401	-0.511350
C136	C	-0.380879	1.537872	-0.558964
H137	H	-0.284666	1.668552	-0.677737
H138	H	-0.267336	1.529658	-0.677733
H139	H	-0.314177	1.651362	-0.457181
H140	H	-0.296867	1.512470	-0.457142
H141	H	-0.379925	1.463902	-0.613156
H142	H	-0.397248	1.602801	-0.613161
H143	H	-0.411370	1.520061	-0.482851
H144	H	-0.300552	1.682924	0.000267
H145	H	-0.904962	1.282912	-0.000055
C146	C	-0.171915	1.779146	-0.376127
C147	C	-0.157883	1.860269	-0.488293
C148	C	-0.136747	1.982444	-0.440642
H149	H	-0.208215	1.807795	-0.321897
H150	H	-0.130783	1.778345	-0.321960
H151	H	-0.199010	1.861075	-0.542437
H152	H	-0.121579	1.831660	-0.542534
H153	H	-0.095615	1.981643	-0.386475
H154	H	-0.173049	2.011081	-0.386412
H155	H	-0.127217	2.037499	-0.516738
H156	H	-0.328741	1.267637	0.000254
H157	H	-0.025223	1.345163	-0.369443
H158	H	-0.247422	1.605895	-0.383244
