data_functionalizedCrystal
_audit_creation_method	'MofGen! by Chris Wilmer'
_symmetry_space_group_name_H-M	'P1'
_symmetry_Int_Tables_number	1
_symmetry_cell_setting	triclinic
loop_
_symmetry_equiv_pos_as_xyz
  x,y,z
_cell_length_a	10.489741
_cell_length_b	10.489741
_cell_length_c	9.016244
_cell_angle_alpha	89.995333
_cell_angle_beta	89.998652
_cell_angle_gamma	95.460826
loop_
_atom_site_label
_atom_site_type_symbol
_atom_site_fract_x
_atom_site_fract_y
_atom_site_fract_z
O1	O	-0.179963	1.694060	-0.123236
O2	O	-0.196856	1.322864	-0.123258
O3	O	-0.002811	1.516908	-0.123250
O4	O	-0.374007	1.500015	-0.123244
O5	O	-0.002816	1.516879	0.123431
O6	O	-0.196860	1.322835	0.123423
O7	O	-0.179967	1.694031	0.123445
Cu8	Cu	-0.188414	1.508430	0.145958
Cu9	Cu	-0.188409	1.508464	-0.145771
O10	O	-0.374011	1.499987	0.123437
C11	C	-0.195582	1.275318	0.000080
C12	C	-0.191765	1.133688	0.000071
C13	C	-0.068300	1.065548	0.000083
C14	C	-0.126621	0.973436	-0.121540
C15	C	-0.126655	0.973441	0.121668
C16	C	-0.250137	1.043441	-0.121652
C17	C	-0.250153	1.043456	0.121665
C18	C	-0.308564	0.951371	0.000013
C19	C	-0.421541	1.501277	0.000098
C20	C	-0.563170	1.505094	0.000100
C21	C	-0.631310	1.628559	0.000096
C22	C	-0.723433	1.570221	0.121718
C23	C	-0.723407	1.570220	-0.121490
C24	C	-0.653428	1.446705	0.121822
C25	C	-0.653392	1.446722	-0.121495
C26	C	-0.745487	1.388294	0.000157
C27	C	0.044718	1.515618	0.000087
C28	C	0.186348	1.511801	0.000074
C29	C	-0.181241	1.741577	0.000104
C30	C	-0.185058	1.883206	0.000103
N31	N	-0.188417	1.508416	0.351144
N32	N	-0.188396	1.508489	-0.350957
C33	C	-0.291869	1.404296	0.586172
C34	C	-0.292257	1.404527	0.414281
C35	C	-0.218712	1.641784	0.413491
C36	C	-0.219444	1.641215	0.585436
C37	C	-0.054330	1.480492	0.585683
C38	C	-0.055199	1.477432	0.413729
H39	H	-0.410168	0.901947	-0.000052
H40	H	-0.273918	1.304891	0.627560
Br41	Br	-0.548555	1.797750	0.000298
H42	H	0.022686	1.556460	0.626339
Br43	Br	0.100891	1.148303	-0.000113
Br44	Br	-0.827853	1.218945	0.000236
H45	H	-0.074379	0.942433	-0.224366
Br46	Br	-0.039554	0.921788	0.293047
H47	H	-0.622596	1.394495	0.224758
H48	H	-0.754445	1.622450	0.224548
Br49	Br	-0.337140	1.094832	-0.293224
H50	H	-0.302353	1.074490	0.224496
H51	H	-0.315417	1.666814	0.370417
H52	H	-0.145405	1.721212	0.372590
H53	H	-0.622348	1.394537	-0.224329
Br54	Br	-0.006303	1.321795	0.658035
Br55	Br	-0.775053	1.657346	-0.292858
H56	H	-0.274026	1.305432	0.372131
Br57	Br	-0.456720	1.433915	0.658133
H58	H	-0.391721	1.422525	0.373138
H59	H	-0.317255	1.665699	0.625528
Br60	Br	-0.098575	1.774294	0.654759
H61	H	-0.032236	1.379319	0.372981
Br62	Br	0.079313	1.595546	0.342128
