data_functionalizedCrystal
_audit_creation_method	'MofGen! by Chris Wilmer'
_symmetry_space_group_name_H-M	'P1'
_symmetry_Int_Tables_number	1
_symmetry_cell_setting	triclinic
loop_
_symmetry_equiv_pos_as_xyz
  x,y,z
_cell_length_a	12.645331
_cell_length_b	12.827892
_cell_length_c	12.827885
_cell_angle_alpha	90.029786
_cell_angle_beta	90.021447
_cell_angle_gamma	90.014371
loop_
_atom_site_label
_atom_site_type_symbol
_atom_site_fract_x
_atom_site_fract_y
_atom_site_fract_z
Zn1	Zn	1.620735	-0.416011	0.590909
Zn2	Zn	2.120735	0.083989	1.090909
Zn3	Zn	1.620628	-0.590788	0.416170
Zn4	Zn	2.120628	-0.090788	0.916170
Zn5	Zn	1.443454	-0.416059	0.416176
Zn6	Zn	1.943454	0.083941	0.916176
Zn7	Zn	1.443439	-0.590707	0.590863
Zn8	Zn	1.943439	-0.090707	1.090863
O9	O	1.532064	-0.503391	0.503530
O10	O	2.032064	-0.003391	1.003530
O11	O	1.769068	-0.439209	0.567746
O12	O	2.269068	0.060791	1.067746
O13	O	1.597087	-0.567664	0.269934
O14	O	2.097087	-0.067664	0.769934
O15	O	1.467022	-0.269816	0.439377
O16	O	1.967022	0.230184	0.939377
O17	O	1.768989	-0.567617	0.439366
O18	O	2.268989	-0.067617	0.939366
O19	O	1.597270	-0.269781	0.567753
O20	O	2.097270	0.230219	1.067753
O21	O	1.466918	-0.439291	0.269939
O22	O	1.966918	0.060709	0.769939
O23	O	1.295105	-0.439212	0.439332
O24	O	1.795105	0.060788	0.939332
O25	O	1.466996	-0.567480	0.737105
O26	O	1.966996	-0.067480	1.237105
O27	O	1.295094	-0.567526	0.567674
O28	O	1.795094	-0.067526	1.067674
O29	O	1.597255	-0.439131	0.737139
O30	O	2.097255	0.060869	1.237139
O31	O	1.597072	-0.737014	0.439321
O32	O	2.097072	-0.237014	0.939321
O33	O	1.466892	-0.736954	0.567667
O34	O	1.966892	-0.236954	1.067667
C35	C	1.531998	-0.774901	0.503511
C36	C	2.031998	-0.274901	1.003511
C37	C	1.532066	-0.891054	0.503538
C38	C	2.032066	-0.391054	1.003538
C39	C	1.256634	-0.503366	0.503499
C40	C	1.756634	-0.003366	1.003499
C41	C	1.138804	-0.503381	0.503511
C42	C	1.638804	-0.003381	1.003511
C43	C	1.596560	-0.942834	0.440099
C44	C	2.096560	-0.442834	0.940099
C45	C	1.596632	-1.062884	0.440125
C46	C	2.096632	-0.562884	0.940125
C47	C	0.971212	-0.422288	0.423217
C48	C	1.471212	0.077712	0.923217
C49	C	1.093771	-0.422497	0.422863
C50	C	1.593771	0.077503	0.922863
C51	C	1.094289	-0.613468	0.473429
C52	C	1.594289	-0.113468	0.973429
C53	C	0.971691	-0.613025	0.472881
C54	C	1.471691	-0.113025	0.972881
C55	C	0.971651	-0.475435	0.614198
C56	C	1.471651	0.024565	1.114198
C57	C	1.094257	-0.472976	0.613583
C58	C	1.594257	0.027024	1.113583
C59	C	1.808569	-0.503417	0.503560
C60	C	2.308569	-0.003417	1.003560
C61	C	1.926399	-0.503428	0.503574
C62	C	2.426399	-0.003428	1.003574
C63	C	1.532136	-0.503291	0.776100
C64	C	2.032136	-0.003291	1.276100
C65	C	1.532167	-0.503248	0.892253
C66	C	2.032167	-0.003248	1.392253
C67	C	1.532159	-0.230821	0.503571
C68	C	2.032159	0.269179	1.003571
C69	C	1.532200	-0.114668	0.503589
C70	C	2.032200	0.385332	1.003589
C71	C	1.532053	-0.503416	0.232020
C72	C	2.032053	-0.003416	0.732020
C73	C	1.532228	-0.503164	0.115867
C74	C	2.032228	-0.003164	0.615867
C75	C	1.596630	-0.439725	0.944055
C76	C	2.096630	0.060275	1.444055
C77	C	1.596663	-0.439679	1.064105
C78	C	2.096663	0.060321	1.564105
H79	H	1.651727	-0.898290	0.385769
H80	H	2.151727	-0.398290	0.885769
H81	H	1.651856	-0.385298	1.108653
H82	H	2.151856	0.114702	1.608653
Cl83	Cl	1.446938	-1.045931	0.587445
Cl84	Cl	1.946938	-0.545931	1.087445
H85	H	1.477039	-0.557556	1.071326
H86	H	1.977039	-0.057556	1.571326
Cl87	Cl	1.446986	-0.587161	0.960991
Cl88	Cl	1.946986	-0.087161	1.460991
H89	H	1.124947	-0.637613	0.393426
H90	H	1.624947	-0.137613	0.893426
Cl91	Cl	1.681778	-0.355780	0.875317
Cl92	Cl	2.181778	0.144220	1.375317
H93	H	1.123460	-0.675540	0.530120
H94	H	1.623460	-0.175540	1.030120
H95	H	1.651845	-1.107413	0.385810
H96	H	2.151845	-0.607413	0.885810
H97	H	1.123052	-0.441000	0.340886
H98	H	1.623052	0.059000	0.840886
Cl99	Cl	1.446902	-0.959822	0.587433
Cl100	Cl	1.946902	-0.459822	1.087433
Cl101	Cl	1.140244	-0.296460	0.451971
Cl102	Cl	1.640244	0.203540	0.951971
H103	H	0.941744	-0.340409	0.441870
H104	H	1.441744	0.159591	0.941870
Cl105	Cl	0.927463	-0.649669	0.348021
Cl106	Cl	1.427463	-0.149669	0.848021
H107	H	0.940366	-0.440585	0.341722
H108	H	1.440366	0.059415	0.841722
Cl109	Cl	0.925918	-0.709528	0.559294
Cl110	Cl	1.425918	-0.209528	1.059294
Cl111	Cl	0.923950	-0.353656	0.656434
Cl112	Cl	1.423950	0.146344	1.156434
Cl113	Cl	1.139204	-0.347910	0.648620
Cl114	Cl	1.639204	0.152090	1.148620
Cl115	Cl	1.141582	-0.557568	0.710968
Cl116	Cl	1.641582	-0.057568	1.210968
H117	H	0.942673	-0.534535	0.674070
H118	H	1.442673	-0.034535	1.174070
