data_functionalizedCrystal
_audit_creation_method	'MofGen! by Chris Wilmer'
_symmetry_space_group_name_H-M	'P1'
_symmetry_Int_Tables_number	1
_symmetry_cell_setting	triclinic
loop_
_symmetry_equiv_pos_as_xyz
  x,y,z
_cell_length_a	11.792241
_cell_length_b	11.792241
_cell_length_c	9.198806
_cell_angle_alpha	89.996670
_cell_angle_beta	90.000255
_cell_angle_gamma	84.193416
loop_
_atom_site_label
_atom_site_type_symbol
_atom_site_fract_x
_atom_site_fract_y
_atom_site_fract_z
O1	O	1.506908	0.155565	-0.120752
O2	O	1.840241	0.488899	0.212581
O3	O	2.173575	0.822232	0.545915
O4	O	1.176567	0.171598	-0.120786
O5	O	1.509900	0.504932	0.212548
O6	O	1.843234	0.838265	0.545881
O7	O	1.349754	-0.001589	-0.120758
O8	O	1.683087	0.331745	0.212576
O9	O	2.016421	0.665078	0.545909
O10	O	1.333721	0.328752	-0.120780
O11	O	1.667054	0.662086	0.212553
O12	O	2.000388	0.995419	0.545887
O13	O	1.349740	-0.001589	0.121027
O14	O	1.683074	0.331744	0.454361
O15	O	2.016407	0.665077	0.787694
O16	O	1.176553	0.171598	0.120999
O17	O	1.509887	0.504931	0.454333
O18	O	1.843220	0.838264	0.787666
O19	O	1.506894	0.155565	0.121033
O20	O	1.840228	0.488898	0.454367
O21	O	2.173561	0.822232	0.787700
Cu22	Cu	1.341723	0.163581	0.143093
Cu23	Cu	1.675056	0.496915	0.476426
Cu24	Cu	2.008389	0.830248	0.809760
Cu25	Cu	1.341739	0.163582	-0.142846
Cu26	Cu	1.675072	0.496915	0.190488
Cu27	Cu	2.008405	0.830248	0.523821
O28	O	1.333707	0.328752	0.121005
O29	O	1.667041	0.662085	0.454339
O30	O	2.000374	0.995418	0.787672
C31	C	1.134269	0.170591	0.000102
C32	C	1.467603	0.503924	0.333436
C33	C	1.800936	0.837258	0.666769
C34	C	1.008255	0.167576	0.000090
C35	C	1.341589	0.500910	0.333423
C36	C	1.674922	0.834243	0.666756
C37	C	1.348740	-0.043880	0.000134
C38	C	1.682073	0.289453	0.333467
C39	C	2.015407	0.622787	0.666801
C40	C	1.345726	-0.169894	0.000132
C41	C	1.679059	0.163440	0.333466
C42	C	2.012392	0.496773	0.666799
C43	C	0.777543	0.162034	0.000132
C44	C	1.110877	0.495367	0.333465
C45	C	1.444210	0.828700	0.666799
C46	C	0.905928	0.165113	0.000109
C47	C	1.239262	0.498447	0.333442
C48	C	1.572595	0.831780	0.666775
C49	C	1.340183	-0.400606	0.000108
C50	C	1.673516	-0.067272	0.333441
C51	C	2.006849	0.266061	0.666774
C52	C	1.343262	-0.272221	0.000121
C53	C	1.676596	0.061113	0.333454
C54	C	2.009929	0.394446	0.666788
C55	C	1.549192	0.156572	0.000142
C56	C	1.882525	0.489905	0.333475
C57	C	2.215859	0.823239	0.666808
C58	C	1.675206	0.159587	0.000145
C59	C	2.008539	0.492920	0.333478
C60	C	2.341873	0.826253	0.666812
C61	C	1.334721	0.371043	0.000110
C62	C	1.668055	0.704376	0.333443
C63	C	2.001388	1.037710	0.666777
C64	C	1.337736	0.497057	0.000102
C65	C	1.671069	0.830390	0.333436
C66	C	2.004402	1.163723	0.666769
N67	N	1.341719	0.163580	0.344207
N68	N	1.675053	0.496914	0.677540
N69	N	2.008386	0.830247	1.010874
N70	N	1.341751	0.163574	-0.343960
N71	N	1.675084	0.496907	-0.010626
N72	N	2.008418	0.830241	0.322707
C73	C	1.414436	0.090544	0.416416
C74	C	1.747770	0.423877	0.749749
C75	C	2.081103	0.757211	1.083083
C76	C	1.414454	0.090540	0.583828
C77	C	1.747787	0.423873	0.917161
C78	C	2.081121	0.757207	1.250495
H79	H	1.476676	0.028013	0.354300
H80	H	1.810009	0.361346	0.687633
H81	H	2.143342	0.694680	1.020966
N82	N	1.259270	0.246399	0.573805
N83	N	1.592603	0.579732	0.907139
N84	N	1.925936	0.913065	1.240472
H85	H	1.210753	0.295135	0.645005
H86	H	1.544086	0.628468	0.978339
H87	H	1.877419	0.961801	1.311672
H88	H	1.303216	0.296690	0.510641
H89	H	1.636549	0.630024	0.843974
H90	H	1.969882	0.963357	1.177308
N91	N	1.496932	0.007717	0.666070
N92	N	1.830265	0.341050	0.999403
N93	N	2.163599	0.674383	1.332736
H94	H	1.453068	-0.042652	0.729235
H95	H	1.786401	0.290681	1.062569
H96	H	2.119734	0.624014	1.395902
H97	H	1.545428	-0.040941	0.594775
H98	H	1.878761	0.292393	0.928109
H99	H	2.212094	0.625726	1.261442
N100	N	1.259266	0.246402	0.426482
N101	N	1.592600	0.579736	0.759815
N102	N	1.925933	0.913069	1.093149
H103	H	1.273032	0.327009	0.400066
H104	H	1.606365	0.660342	0.733400
H105	H	1.939699	0.993675	1.066733
H106	H	1.178589	0.232935	0.400048
H107	H	1.511923	0.566269	0.733381
H108	H	1.845256	0.899602	1.066714
