data_functionalizedCrystal
_audit_creation_method	'MofGen! by Chris Wilmer'
_symmetry_space_group_name_H-M	'P1'
_symmetry_Int_Tables_number	1
_symmetry_cell_setting	triclinic
loop_
_symmetry_equiv_pos_as_xyz
  x,y,z
_cell_length_a	33.510554
_cell_length_b	33.509711
_cell_length_c	33.506470
_cell_angle_alpha	60.004186
_cell_angle_beta	60.008358
_cell_angle_gamma	59.994760
loop_
_atom_site_label
_atom_site_type_symbol
_atom_site_fract_x
_atom_site_fract_y
_atom_site_fract_z
O1	O	0.055430	-0.583081	0.487524
O2	O	0.555430	-0.083081	0.987524
O3	O	0.020931	-0.453975	0.392819
O4	O	0.520931	0.046025	0.892819
O5	O	0.102693	-0.535652	0.392731
O6	O	0.602693	-0.035652	0.892731
O7	O	-0.026332	-0.501404	0.487613
O8	O	0.473668	-0.001404	0.987613
O9	O	0.129823	-0.508526	0.419767
O10	O	0.629823	-0.008526	0.919767
O11	O	0.048062	-0.426850	0.419856
O12	O	0.548062	0.073150	0.919856
O13	O	0.082561	-0.555956	0.514561
O14	O	0.582561	-0.055956	1.014561
Cu15	Cu	0.067789	-0.488926	0.469677
Cu16	Cu	0.567789	0.011074	0.969677
Cu17	Cu	0.035703	-0.521005	0.437703
Cu18	Cu	0.535703	-0.021005	0.937703
O19	O	0.000799	-0.474279	0.514649
O20	O	0.500799	0.025721	1.014649
N21	N	0.090357	-0.466366	0.492168
N22	N	0.590357	0.033634	0.992168
N23	N	0.013139	-0.543569	0.415212
N24	N	0.513139	-0.043569	0.915212
C25	C	0.143028	-0.279707	0.544737
C26	C	0.643028	0.220293	1.044737
C27	C	0.143165	-0.413746	0.678712
C28	C	0.643165	0.086254	1.178712
C29	C	0.143043	-0.413725	0.544739
C30	C	0.643043	0.086275	1.044739
C31	C	0.277090	-0.413694	0.544637
C32	C	0.777090	0.086306	1.044637
C33	C	0.157791	-0.323929	0.559462
C34	C	0.657791	0.176071	1.059462
C35	C	0.157869	-0.398994	0.634489
C36	C	0.657869	0.101006	1.134489
C37	C	0.232865	-0.398963	0.559407
C38	C	0.732865	0.101037	1.059407
C39	C	0.157801	-0.398982	0.559463
C40	C	0.657801	0.101018	1.059463
C41	C	0.124237	-0.223419	0.525994
C42	C	0.624237	0.276581	1.025994
C43	C	0.124262	-0.432490	0.525997
C44	C	0.624262	0.067510	1.025997
C45	C	0.176583	-0.380217	0.578205
C46	C	0.676583	0.119783	1.078205
C47	C	0.358938	-0.399566	0.501510
C48	C	0.858938	0.100434	1.001510
C49	C	0.410104	-0.416609	0.484423
C50	C	0.910104	0.083391	0.984423
C51	C	0.410135	-0.499402	0.515995
C52	C	0.910135	0.000598	1.015995
C53	C	0.358969	-0.482358	0.533084
C54	C	0.858969	0.017642	1.033084
C55	C	0.136554	-0.197822	0.475693
C56	C	0.636554	0.302178	0.975693
C57	C	0.119469	-0.146653	0.458657
C58	C	0.619469	0.353347	0.958657
C59	C	0.077755	-0.146680	0.542223
C60	C	0.577755	0.353320	1.042223
C61	C	0.094840	-0.197850	0.559260
C62	C	0.594840	0.302150	1.059260
C63	C	0.073954	-0.420144	0.538396
C64	C	0.573954	0.079856	1.038396
C65	C	0.056884	-0.437203	0.521352
C66	C	0.556884	0.062797	1.021352
C67	C	0.140427	-0.478952	0.479524
C68	C	0.640427	0.021048	0.979524
C69	C	0.157498	-0.461894	0.496561
C70	C	0.657498	0.038106	0.996561
C71	C	0.074158	-0.420182	0.760618
C72	C	0.574158	0.079818	1.260618
C73	C	0.057149	-0.437256	0.811786
C74	C	0.557149	0.062744	1.311786
C75	C	0.140732	-0.479014	0.811717
C76	C	0.640732	0.020986	1.311717
C77	C	0.157740	-0.461942	0.760547
C78	C	0.657740	0.038058	1.260547
C79	C	0.124452	-0.432525	0.734999
C80	C	0.624452	0.067475	1.234999
C81	C	0.333372	-0.432439	0.525839
C82	C	0.833372	0.067561	1.025839
C83	C	-0.020612	-0.577650	0.170305
C84	C	0.479388	-0.077650	0.670305
C85	C	-0.020943	-0.788098	0.380897
C86	C	0.479057	-0.288098	0.880897
C87	C	-0.020912	-0.577638	0.380991
C88	C	0.479088	-0.077638	0.880991
C89	C	-0.231336	-0.577418	0.380585
C90	C	0.268664	-0.077418	0.880585
C91	C	-0.129735	-0.611383	0.346870
C92	C	0.370265	-0.111383	0.846870
C93	C	-0.054722	-0.611464	0.347017
C94	C	0.445278	-0.111464	0.847017
C95	C	-0.073450	-0.630202	0.328195
C96	C	0.426550	-0.130202	0.828195
C97	C	-0.087616	-0.712029	0.371239
C98	C	0.412384	-0.212029	0.871239
C99	C	-0.070599	-0.763199	0.388315
C100	C	0.429401	-0.263199	0.888315
C101	C	0.012191	-0.763282	0.356872
C102	C	0.512191	-0.263282	0.856872
C103	C	-0.004828	-0.712113	0.339795
C104	C	0.495172	-0.212113	0.839795
C105	C	-0.155381	-0.623711	0.397158
C106	C	0.344619	-0.123711	0.897158
C107	C	-0.206547	-0.606601	0.414133
C108	C	0.293453	-0.106601	0.914133
C109	C	-0.206417	-0.564839	0.330529
C110	C	0.293583	-0.064839	0.830529
C111	C	-0.155251	-0.581949	0.313554
C112	C	0.344749	-0.081949	0.813554
C113	C	-0.067051	-0.561160	0.334643
C114	C	0.432949	-0.061160	0.834643
C115	C	-0.050026	-0.544131	0.351759
C116	C	0.449974	-0.044131	0.851759
C117	C	-0.008343	-0.627704	0.393612
C118	C	0.491657	-0.127704	0.893612
C119	C	-0.025368	-0.644736	0.376502
C120	C	0.474632	-0.144736	0.876502
C121	C	-0.066922	-0.561168	0.246303
C122	C	0.433078	-0.061168	0.746303
C123	C	-0.049794	-0.544141	0.195134
C124	C	0.450206	-0.044141	0.695134
C125	C	-0.008048	-0.627719	0.195183
C126	C	0.491952	-0.127719	0.695183
C127	C	-0.025175	-0.644745	0.246352
C128	C	0.474825	-0.144745	0.746352
C129	C	-0.054614	-0.611468	0.271911
C130	C	0.445386	-0.111468	0.771911
C131	C	-0.054732	-0.686488	0.346980
C132	C	0.445268	-0.186488	0.846980
C133	C	-0.002117	-0.558258	0.114025
C134	C	0.497883	-0.058258	0.614025
C135	C	-0.002879	-0.844379	0.399940
C136	C	0.497121	-0.344379	0.899940
C137	C	-0.002504	-0.558243	0.399473
C138	C	0.497496	-0.058243	0.899473
C139	C	-0.287615	-0.558285	0.398601
C140	C	0.212385	-0.058285	0.898601
N141	N	0.434975	-0.466279	0.491900
N142	N	0.934975	0.033721	0.991900
O143	O	0.591199	-0.470749	0.375150
O144	O	1.091199	0.029251	0.875150
O145	O	0.591395	-0.565767	0.504116
O146	O	1.091395	-0.065767	1.004116
O147	O	0.591311	-0.565550	0.422329
O148	O	1.091311	-0.065550	0.922329
O149	O	0.591283	-0.470966	0.456937
O150	O	1.091283	0.029034	0.956937
O151	O	0.510024	-0.538522	0.449509
O152	O	1.010024	-0.038522	0.949509
O153	O	0.510108	-0.538739	0.531297
O154	O	1.010108	-0.038739	1.031297
O155	O	0.509913	-0.443721	0.402330
O156	O	1.009913	0.056279	0.902330
Cu157	Cu	0.502588	-0.488762	0.469295
Cu158	Cu	1.002588	0.011238	0.969295
Cu159	Cu	0.598719	-0.520726	0.437151
Cu160	Cu	1.098719	-0.020726	0.937151
O161	O	0.509997	-0.443938	0.484117
O162	O	1.009997	0.056062	0.984117
N163	N	0.666332	-0.543209	0.414541
N164	N	1.166332	-0.043209	0.914541
N165	N	0.090323	-0.121809	0.492157
N166	N	0.590323	0.378191	0.992157
O167	O	-0.026342	0.034503	0.487582
O168	O	0.473658	0.534503	0.987582
O169	O	0.102626	0.034543	0.392540
O170	O	0.602626	0.534543	0.892540
O171	O	0.020797	0.034507	0.392812
O172	O	0.520797	0.534507	0.892812
O173	O	0.055487	0.034539	0.487310
O174	O	0.555487	0.534539	0.987310
O175	O	0.047933	-0.046785	0.419900
O176	O	0.547933	0.453215	0.919900
O177	O	0.129763	-0.046749	0.419628
O178	O	0.629763	0.453251	0.919628
O179	O	0.000794	-0.046789	0.514670
O180	O	0.500794	0.453211	1.014670
Cu181	Cu	0.067756	-0.054192	0.469623
Cu182	Cu	0.567756	0.445808	0.969623
Cu183	Cu	0.035664	0.041946	0.437588
Cu184	Cu	0.535664	0.541946	0.937588
O185	O	0.082623	-0.046753	0.514399
O186	O	0.582623	0.453247	1.014399
N187	N	0.013091	0.109564	0.415054
N188	N	0.513091	0.609564	0.915054
N189	N	0.090671	-0.466416	0.836606
N190	N	0.590671	0.033584	1.336606
O191	O	0.086120	-0.583065	0.992910
O192	O	0.586120	-0.083065	1.492910
O193	O	-0.008880	-0.454051	0.992954
O194	O	0.491120	0.045949	1.492954
O195	O	-0.008658	-0.535864	0.992931
O196	O	0.491342	-0.035864	1.492931
O197	O	0.085897	-0.501252	0.992933
O198	O	0.585897	-0.001252	1.492933
O199	O	0.018407	-0.508749	0.911642
O200	O	0.518407	-0.008749	1.411642
O201	O	0.018185	-0.426936	0.911665
O202	O	0.518185	0.073064	1.411665
O203	O	0.113185	-0.555949	0.911621
O204	O	0.613185	-0.055949	1.411621
Cu205	Cu	0.068156	-0.488967	0.904221
Cu206	Cu	0.568156	0.011033	1.404221
Cu207	Cu	0.036148	-0.521034	1.000355
Cu208	Cu	0.536148	-0.021034	1.500355
O209	O	0.112963	-0.474136	0.911644
O210	O	0.612963	0.025864	1.411644
N211	N	0.013633	-0.543590	1.067970
N212	N	0.513633	-0.043590	1.567970
C213	C	0.031262	-0.424144	0.393290
C214	C	0.531262	0.075856	0.893290
C215	C	0.132513	-0.525291	0.393180
C216	C	0.632513	-0.025291	0.893180
C217	C	0.072229	-0.585787	0.514090
C218	C	0.572229	-0.085787	1.014090
C219	C	-0.029022	-0.484640	0.514200
C220	C	0.470978	0.015360	1.014200
C221	C	0.550775	-0.565338	0.533954
C222	C	1.050775	-0.065338	1.033954
C223	C	0.550672	-0.565070	0.432670
C224	C	1.050672	-0.065070	0.932670
C225	C	0.550530	-0.444149	0.372492
C226	C	1.050530	0.055851	0.872492
C227	C	0.550635	-0.444418	0.473776
C228	C	1.050635	0.055582	0.973776
C229	C	0.132408	-0.005998	0.392963
C230	C	0.632408	0.494002	0.892963
C231	C	0.031106	-0.006142	0.393333
C232	C	0.531106	0.493858	0.893333
C233	C	-0.029021	-0.006147	0.514213
C234	C	0.470979	0.493853	1.014213
C235	C	0.072314	-0.006104	0.513878
C236	C	0.572314	0.493896	1.013878
C237	C	-0.008430	-0.424240	0.952316
C238	C	0.491570	0.075760	1.452316
C239	C	-0.008150	-0.525550	0.952271
C240	C	0.491850	-0.025550	1.452271
C241	C	0.112735	-0.585760	0.952260
C242	C	0.612735	-0.085760	1.452260
C243	C	0.112461	-0.484444	0.952286
C244	C	0.612461	0.015556	1.452286
H245	H	0.047048	-0.396226	0.739820
H246	H	0.547048	0.103774	1.239820
O247	O	-0.044000	-0.380017	0.952244
O248	O	0.456000	0.119983	1.452244
C249	C	-0.097486	-0.308293	0.910166
C250	C	0.402514	0.191707	1.410166
C251	C	-0.057198	-0.358361	0.910181
C252	C	0.442802	0.141639	1.410181
H253	H	-0.108175	-0.290774	0.876167
H254	H	0.391825	0.209226	1.376167
H255	H	-0.083339	-0.283613	0.910139
H256	H	0.416661	0.216387	1.410139
H257	H	-0.130796	-0.313444	0.944204
H258	H	0.369204	0.186556	1.444204
H259	H	-0.023874	-0.353257	0.876149
H260	H	0.476126	0.146743	1.376149
H261	H	-0.071384	-0.383024	0.910233
H262	H	0.428616	0.116976	1.410233
O263	O	0.081013	-0.630068	0.549533
O264	O	0.581013	-0.130068	1.049533
C265	C	0.102484	-0.717033	0.572958
C266	C	0.602484	-0.217033	1.072958
C267	C	0.092537	-0.666915	0.532782
C268	C	0.592537	-0.166915	1.032782
H269	H	0.111813	-0.746838	0.559426
H270	H	0.611813	-0.246838	1.059426
H271	H	0.068572	-0.717240	0.607081
H272	H	0.568572	-0.217240	1.107081
H273	H	0.134466	-0.724125	0.582101
H274	H	0.634466	-0.224125	1.082101
H275	H	0.060571	-0.659791	0.523597
H276	H	0.560571	-0.159791	1.023597
H277	H	0.126474	-0.666733	0.498684
H278	H	0.626474	-0.166733	0.998684
O279	O	0.550371	-0.408513	0.328345
O280	O	1.050371	0.091487	0.828345
C281	C	0.508166	-0.326996	0.284768
C282	C	1.008166	0.173004	0.784768
C283	C	0.508279	-0.367316	0.334794
C284	C	1.008279	0.132684	0.834794
H285	H	0.474144	-0.293675	0.289966
H286	H	0.974144	0.206325	0.789966
H287	H	0.508118	-0.341125	0.260115
H288	H	1.008118	0.158875	0.760115
H289	H	0.542179	-0.316327	0.267189
H290	H	1.042179	0.183673	0.767189
H291	H	0.474273	-0.378002	0.352415
H292	H	0.974273	0.121998	0.852415
H293	H	0.508353	-0.353165	0.359413
H294	H	1.008353	0.146835	0.859413
H295	H	0.550629	-0.414708	0.481180
H296	H	1.050629	0.085292	0.981180
O297	O	-0.095590	-0.528856	0.271147
O298	O	0.404410	-0.028856	0.771147
C299	C	-0.173512	-0.499547	0.328837
C300	C	0.326488	0.000453	0.828837
C301	C	-0.141105	-0.536158	0.300726
C302	C	0.358895	-0.036158	0.800726
H303	H	-0.210314	-0.505445	0.352766
H304	H	0.289686	-0.005445	0.852766
H305	H	-0.179407	-0.460662	0.301762
H306	H	0.320593	0.039338	0.801762
H307	H	-0.154787	-0.505452	0.352822
H308	H	0.345213	-0.005452	0.852822
H309	H	-0.159802	-0.530298	0.276741
H310	H	0.340198	-0.030298	0.776741
H311	H	-0.135209	-0.575031	0.327828
H312	H	0.364791	-0.075031	0.827828
H313	H	0.169370	-0.005761	0.363053
H314	H	0.669370	0.494239	0.863053
H315	H	-0.066081	-0.477343	0.543993
H316	H	0.433919	0.022657	1.043993
O317	O	0.148303	-0.629959	0.952178
O318	O	0.648303	-0.129959	1.452178
C319	C	0.199996	-0.688803	0.910021
C320	C	0.699996	-0.188803	1.410021
C321	C	0.159705	-0.638745	0.910060
C322	C	0.659705	-0.138745	1.410060
H323	H	0.209233	-0.695918	0.875968
H324	H	0.709233	-0.195918	1.375968
H325	H	0.186577	-0.718677	0.944011
H326	H	0.686577	-0.218677	1.444011
H327	H	0.234031	-0.688856	0.910041
H328	H	0.734031	-0.188856	1.410041
H329	H	0.125655	-0.638644	0.910023
H330	H	0.625655	-0.138644	1.410023
H331	H	0.173164	-0.608893	0.876073
H332	H	0.673164	-0.108893	1.376073
H333	H	0.550826	-0.595166	0.570996
H334	H	1.050826	-0.095166	1.070996
O335	O	0.081226	-0.006188	0.549316
O336	O	0.581226	0.493812	1.049316
C337	C	0.130894	-0.048281	0.600650
C338	C	0.630894	0.451719	1.100650
C339	C	0.120849	-0.048249	0.560521
C340	C	0.620849	0.451751	1.060521
H341	H	0.162936	-0.082279	0.609714
H342	H	0.662936	0.417721	1.109714
H343	H	0.097033	-0.048325	0.634824
H344	H	0.597033	0.451675	1.134824
H345	H	0.140170	-0.014239	0.587094
H346	H	0.640170	0.485761	1.087094
H347	H	0.111585	-0.082286	0.574031
H348	H	0.611585	0.417714	1.074031
H349	H	0.154717	-0.048180	0.526355
H350	H	0.654717	0.451820	1.026355
O351	O	-0.062016	-0.495250	0.339666
O352	O	0.437984	0.004750	0.839666
C353	C	-0.105149	-0.414150	0.296341
C354	C	0.394851	0.085850	0.796341
C355	C	-0.091605	-0.469493	0.309996
C356	C	0.408395	0.030507	0.809996
H357	H	-0.129082	-0.393309	0.272359
H358	H	0.370918	0.106691	0.772359
H359	H	-0.070418	-0.404109	0.275536
H360	H	0.429582	0.095891	0.775536
H361	H	-0.126000	-0.404061	0.331052
H362	H	0.374000	0.095939	0.831052
H363	H	-0.070766	-0.479621	0.275310
H364	H	0.429234	0.020379	0.775310
H365	H	-0.126353	-0.479504	0.330820
H366	H	0.373647	0.020496	0.830820
H367	H	0.550685	-0.594783	0.425263
H368	H	1.050685	-0.094783	0.925263
O369	O	0.022178	-0.006188	0.357978
O370	O	0.522178	0.493812	0.857978
C371	C	-0.035919	-0.006219	0.335671
C372	C	0.464081	0.493781	0.835671
C373	C	-0.025873	-0.006170	0.375754
C374	C	0.474127	0.493830	0.875754
H375	H	-0.074771	-0.006194	0.350024
H376	H	0.425229	0.493806	0.850024
H377	H	-0.008886	-0.040251	0.324998
H378	H	0.491114	0.459749	0.824998
H379	H	-0.031546	0.027790	0.302298
H380	H	0.468454	0.527790	0.802298
H381	H	-0.030252	-0.040156	0.409153
H382	H	0.469748	0.459844	0.909153
H383	H	-0.052904	0.027885	0.386385
H384	H	0.447096	0.527885	0.886385
O385	O	-0.043559	-0.534447	0.952294
O386	O	0.456441	-0.034447	1.452294
C387	C	-0.094959	-0.584019	0.994354
C388	C	0.405041	-0.084019	1.494354
C389	C	-0.054850	-0.574004	0.994382
C390	C	0.445150	-0.074004	1.494382
H391	H	-0.104108	-0.615994	1.028384
H392	H	0.395892	-0.115994	1.528384
H393	H	-0.081407	-0.593350	0.960340
H394	H	0.418593	-0.093350	1.460340
H395	H	-0.129083	-0.550099	0.994330
H396	H	0.370917	-0.050099	1.494330
H397	H	-0.020712	-0.607907	0.994423
H398	H	0.479288	-0.107907	1.494423
H399	H	-0.068442	-0.564652	1.028393
H400	H	0.431558	-0.064652	1.528393
O401	O	0.008275	-0.425194	0.836592
O402	O	0.508275	0.074806	1.336592
C403	C	-0.072830	-0.381987	0.831254
C404	C	0.427170	0.118013	1.331254
C405	C	-0.017494	-0.395598	0.803101
C406	C	0.482506	0.104402	1.303101
H407	H	-0.093681	-0.358065	0.804188
H408	H	0.406319	0.141935	1.304188
H409	H	-0.082911	-0.361132	0.855197
H410	H	0.417089	0.138868	1.355197
H411	H	-0.082864	-0.416722	0.855224
H412	H	0.417136	0.083278	1.355224
H413	H	-0.007420	-0.360888	0.779104
H414	H	0.492580	0.139112	1.279104
H415	H	-0.007443	-0.416472	0.779188
H416	H	0.492557	0.083528	1.279188
O417	O	0.173134	-0.507600	0.836459
O418	O	0.673134	-0.007600	1.336459
C419	C	0.257832	-0.547199	0.830990
C420	C	0.757832	-0.047199	1.330990
C421	C	0.221191	-0.514824	0.802909
C422	C	0.721191	-0.014824	1.302909
H423	H	0.296695	-0.553041	0.803878
H424	H	0.796695	-0.053041	1.303878
H425	H	0.251996	-0.584031	0.854927
H426	H	0.751996	-0.084031	1.354927
H427	H	0.251927	-0.528460	0.854961
H428	H	0.751927	-0.028460	1.354961
H429	H	0.227074	-0.533520	0.778912
H430	H	0.727074	-0.033520	1.278912
H431	H	0.227037	-0.477993	0.779004
H432	H	0.727037	0.022007	1.279004
O433	O	0.206594	-0.473990	0.735642
O434	O	0.706594	0.026010	1.235642
C435	C	0.274308	-0.513314	0.677813
C436	C	0.774308	-0.013314	1.177813
C437	C	0.218978	-0.499711	0.705995
C438	C	0.718978	0.000289	1.205995
H439	H	0.284336	-0.534102	0.653829
H440	H	0.784336	-0.034102	1.153829
H441	H	0.295200	-0.537296	0.704843
H442	H	0.795200	-0.037296	1.204843
H443	H	0.284344	-0.478578	0.653877
H444	H	0.784344	0.021422	1.153877
H445	H	0.208897	-0.534420	0.729931
H446	H	0.708897	-0.034420	1.229931
H447	H	0.198116	-0.475710	0.678938
H448	H	0.698116	0.024290	1.178938
O449	O	0.020150	-0.660092	0.422262
O450	O	0.520150	-0.160092	0.922262
C451	C	0.059723	-0.744787	0.461941
C452	C	0.559723	-0.244787	0.961941
C453	C	0.027442	-0.708160	0.429498
C454	C	0.527442	-0.208160	0.929498
H455	H	0.065637	-0.783657	0.467793
H456	H	0.565637	-0.283657	0.967793
H457	H	0.040938	-0.738910	0.498762
H458	H	0.540938	-0.238910	0.998762
H459	H	0.096526	-0.738903	0.443253
H460	H	0.596526	-0.238903	0.943253
H461	H	-0.009367	-0.714021	0.448143
H462	H	0.490633	-0.214021	0.948143
H463	H	0.046266	-0.714045	0.392678
H464	H	0.546266	-0.214045	0.892678
O465	O	-0.073243	-0.006129	0.549746
O466	O	0.426757	0.493871	1.049746
C467	C	-0.153758	-0.006171	0.572517
C468	C	0.346242	0.493829	1.072517
C469	C	-0.103702	-0.006185	0.532232
C470	C	0.396298	0.493815	1.032232
H471	H	-0.178395	-0.006226	0.558375
H472	H	0.321605	0.493774	1.058375
H473	H	-0.171336	0.027863	0.583163
H474	H	0.328664	0.527863	1.083163
H475	H	-0.148587	-0.040178	0.605855
H476	H	0.351413	0.459822	1.105855
H477	H	-0.108830	0.027799	0.498868
H478	H	0.391170	0.527799	0.998868
H479	H	-0.086142	-0.040241	0.521627
H480	H	0.413858	0.459759	1.021627
H481	H	0.142166	-0.477036	0.952281
H482	H	0.642166	0.022964	1.452281
H483	H	0.169570	-0.532590	0.363385
H484	H	0.669570	-0.032590	0.863385
H485	H	0.046887	-0.396202	0.562361
H486	H	0.546887	0.103798	1.062361
H487	H	0.015920	-0.427139	0.531437
H488	H	0.515920	0.072861	1.031437
H489	H	0.167497	-0.502899	0.455559
H490	H	0.667497	-0.002899	0.955559
O491	O	-0.061783	-0.495286	0.170210
O492	O	0.438217	0.004714	0.670210
C493	C	-0.101083	-0.427522	0.112377
C494	C	0.398917	0.072478	0.612377
C495	C	-0.087526	-0.482855	0.140564
C496	C	0.412474	0.017145	0.640564
H497	H	-0.121908	-0.417452	0.088409
H498	H	0.378092	0.082548	0.588409
H499	H	-0.066362	-0.417463	0.088439
H500	H	0.433638	0.082537	0.588439
H501	H	-0.125047	-0.406679	0.139447
H502	H	0.374953	0.093321	0.639447
H503	H	-0.063576	-0.503736	0.113529
H504	H	0.436424	-0.003736	0.613529
H505	H	-0.122268	-0.492877	0.164509
H506	H	0.377732	0.007123	0.664509
H507	H	0.198463	-0.471942	0.486461
H508	H	0.698463	0.028058	0.986461
O509	O	0.022507	-0.379942	0.357741
O510	O	0.522507	0.120058	0.857741
C511	C	0.017946	-0.336181	0.276338
C512	C	0.517946	0.163819	0.776338
C513	C	0.027885	-0.386271	0.316551
C514	C	0.527885	0.113729	0.816551
H515	H	0.022280	-0.341280	0.243030
H516	H	0.522280	0.158720	0.743030
H517	H	0.045037	-0.318552	0.265592
H518	H	0.545037	0.181448	0.765592
H519	H	-0.020876	-0.311622	0.290641
H520	H	0.479124	0.188378	0.790641
H521	H	0.066693	-0.410869	0.302282
H522	H	0.566693	0.089131	0.802282
H523	H	0.000763	-0.403861	0.327292
H524	H	0.500763	0.096139	0.827292
O525	O	0.334163	-0.514305	0.556636
O526	O	0.834163	-0.014305	1.056636
C527	C	0.318542	-0.574488	0.552096
C528	C	0.818542	-0.074488	1.052096
C529	C	0.346654	-0.538315	0.525365
C530	C	0.846654	-0.038315	1.025365
H531	H	0.328638	-0.593918	0.526829
H532	H	0.828638	-0.093918	1.026829
H533	H	0.277567	-0.553761	0.563054
H534	H	0.777567	-0.053761	1.063054
H535	H	0.328634	-0.602591	0.586215
H536	H	0.828634	-0.102591	1.086215
H537	H	0.336603	-0.510204	0.491229
H538	H	0.836603	-0.010204	0.991229
H539	H	0.387621	-0.559076	0.514444
H540	H	0.887621	-0.059076	1.014444
O541	O	0.434866	-0.384607	0.460778
O542	O	0.934866	0.115393	0.960778
C543	C	0.429442	-0.300692	0.431282
C544	C	0.929442	0.199308	0.931282
C545	C	0.401337	-0.336878	0.458061
C546	C	0.901337	0.163122	0.958061
H547	H	0.402346	-0.262097	0.429086
H548	H	0.902346	0.237903	0.929086
H549	H	0.453354	-0.302214	0.392792
H550	H	0.953354	0.197786	0.892792
H551	H	0.453438	-0.310985	0.452176
H552	H	0.953438	0.189015	0.952176
H553	H	0.377315	-0.326610	0.437208
H554	H	0.877315	0.173390	0.937208
H555	H	0.377456	-0.335351	0.496554
H556	H	0.877456	0.164649	0.996554
H557	H	0.430973	-0.540048	0.521891
H558	H	0.930973	-0.040048	1.021891
H559	H	0.160490	-0.218637	0.448603
H560	H	0.660490	0.281363	0.948603
O561	O	0.333996	-0.351086	0.494497
O562	O	0.833996	0.148914	0.994497
C563	C	0.255160	-0.288136	0.506852
C564	C	0.755160	0.211864	1.006852
C565	C	0.283342	-0.343048	0.514818
C566	C	0.783342	0.156952	1.014818
H567	H	0.214201	-0.281621	0.523286
H568	H	0.714201	0.218379	1.023286
H569	H	0.265151	-0.266699	0.466022
H570	H	0.765151	0.233301	0.966022
H571	H	0.265267	-0.275439	0.525379
H572	H	0.765267	0.224561	1.025379
H573	H	0.273249	-0.355791	0.496320
H574	H	0.773249	0.144209	0.996320
H575	H	0.273348	-0.364453	0.555655
H576	H	0.773348	0.135547	1.055655
O577	O	0.131409	-0.121837	0.409782
O578	O	0.631409	0.378163	0.909782
C579	C	0.127409	-0.106142	0.333177
C580	C	0.627409	0.393858	0.833177
C581	C	0.113868	-0.134283	0.388519
C582	C	0.613868	0.365717	0.888519
H583	H	0.113225	-0.116187	0.315971
H584	H	0.613225	0.383813	0.815971
H585	H	0.168835	-0.116194	0.315869
H586	H	0.668835	0.383806	0.815869
H587	H	0.110161	-0.065181	0.326728
H588	H	0.610161	0.434819	0.826728
H589	H	0.131083	-0.175252	0.395012
H590	H	0.631083	0.324748	0.895012
H591	H	0.072438	-0.124191	0.405799
H592	H	0.572438	0.375809	0.905799
O593	O	0.049191	-0.121915	0.574603
O594	O	0.549191	0.378085	1.074603
C595	C	0.009655	-0.127343	0.659289
C596	C	0.509655	0.372657	1.159289
C597	C	0.042000	-0.155448	0.622672
C598	C	0.542000	0.344552	1.122672
H599	H	0.003840	-0.154442	0.698161
H600	H	0.503840	0.345558	1.198161
H601	H	-0.027188	-0.103411	0.653465
H602	H	0.472812	0.396589	1.153465
H603	H	0.028400	-0.103364	0.653345
H604	H	0.528400	0.396636	1.153345
H605	H	0.023298	-0.179453	0.628594
H606	H	0.523298	0.320547	1.128594
H607	H	0.078842	-0.179349	0.628506
H608	H	0.578842	0.320651	1.128506
H609	H	0.015913	-0.654818	0.174378
H610	H	0.515913	-0.154818	0.674378
O611	O	0.082976	-0.222753	0.608113
O612	O	0.582976	0.277247	1.108113
C613	C	0.112479	-0.280464	0.675813
C614	C	0.612479	0.219536	1.175813
C615	C	0.125977	-0.252307	0.620475
C616	C	0.625977	0.247693	1.120475
H617	H	0.147237	-0.304357	0.685826
H618	H	0.647237	0.195643	1.185826
H619	H	0.091675	-0.304476	0.685955
H620	H	0.591675	0.195524	1.185955
H621	H	0.088525	-0.253372	0.696632
H622	H	0.588525	0.246628	1.196632
H623	H	0.149947	-0.279364	0.599618
H624	H	0.649947	0.220636	1.099618
H625	H	0.146756	-0.228288	0.610370
H626	H	0.646756	0.271712	1.110370
H627	H	-0.015148	-0.685706	0.267200
H628	H	0.484852	-0.185706	0.767200
H629	H	-0.015331	-0.685697	0.386578
H630	H	0.484669	-0.185697	0.886578
O631	O	0.027181	-0.687377	0.316259
O632	O	0.527181	-0.187377	0.816259
C633	C	0.111098	-0.692861	0.286849
C634	C	0.611098	-0.192861	0.786849
C635	C	0.074900	-0.720935	0.313523
C636	C	0.574900	-0.220935	0.813523
H637	H	0.149688	-0.719980	0.284620
H638	H	0.649688	-0.219980	0.784620
H639	H	0.100843	-0.668914	0.307777
H640	H	0.600843	-0.168914	0.807777
H641	H	0.109561	-0.668900	0.248369
H642	H	0.609561	-0.168900	0.748369
H643	H	0.076418	-0.744922	0.352004
H644	H	0.576418	-0.244922	0.852004
H645	H	0.085166	-0.744851	0.292558
H646	H	0.585166	-0.244851	0.792558
H647	H	-0.090949	-0.534065	0.310634
H648	H	0.409051	-0.034065	0.810634
H649	H	-0.097376	-0.783993	0.408060
H650	H	0.402624	-0.283993	0.908060
O651	O	0.060650	-0.788253	0.349956
O652	O	0.560650	-0.288253	0.849956
C653	C	0.123562	-0.867121	0.362305
C654	C	0.623562	-0.367121	0.862305
C655	C	0.068670	-0.838903	0.370181
C656	C	0.568670	-0.338903	0.870181
H657	H	0.130065	-0.908077	0.378643
H658	H	0.630065	-0.408077	0.878643
H659	H	0.136256	-0.857113	0.380923
H660	H	0.636256	-0.357113	0.880923
H661	H	0.145010	-0.857057	0.321481
H662	H	0.645010	-0.357057	0.821481
H663	H	0.047183	-0.848951	0.410993
H664	H	0.547183	-0.348951	0.910993
H665	H	0.056015	-0.848914	0.351531
H666	H	0.556015	-0.348914	0.851531
O667	O	-0.136104	-0.687215	0.378225
O668	O	0.363896	-0.187215	0.878225
C669	C	-0.216421	-0.692537	0.411207
C670	C	0.283579	-0.192537	0.911207
C671	C	-0.161522	-0.720700	0.403328
C672	C	0.338478	-0.220700	0.903328
H673	H	-0.236989	-0.719598	0.431512
H674	H	0.263011	-0.219598	0.931512
H675	H	-0.222075	-0.668607	0.374288
H676	H	0.277925	-0.168607	0.874288
H677	H	-0.230846	-0.668550	0.433684
H678	H	0.269154	-0.168550	0.933684
H679	H	-0.147060	-0.744714	0.380868
H680	H	0.352940	-0.244714	0.880868
H681	H	-0.155900	-0.744599	0.440264
H682	H	0.344100	-0.244599	0.940264
H683	H	-0.134607	-0.647683	0.424287
H684	H	0.365393	-0.147683	0.924287
H685	H	-0.227429	-0.616637	0.455084
H686	H	0.272571	-0.116637	0.955084
H687	H	-0.134369	-0.571905	0.272603
H688	H	0.365631	-0.071905	0.772603
O689	O	-0.231131	-0.536240	0.298102
O690	O	0.268869	-0.036240	0.798102
C691	C	-0.225605	-0.496663	0.213385
C692	C	0.274395	0.003337	0.713385
C693	C	-0.197557	-0.529046	0.250055
C694	C	0.302443	-0.029046	0.750055
H695	H	-0.198472	-0.490844	0.174532
H696	H	0.301528	0.009156	0.674532
H697	H	-0.249535	-0.459820	0.219213
H698	H	0.250465	0.040180	0.719213
H699	H	-0.249578	-0.515381	0.219269
H700	H	0.250422	-0.015381	0.719269
H701	H	-0.173558	-0.510371	0.244194
H702	H	0.326442	-0.010371	0.744194
H703	H	-0.173658	-0.565887	0.244219
H704	H	0.326342	-0.065887	0.744219
