data_functionalizedCrystal
_audit_creation_method	'MofGen! by Chris Wilmer'
_symmetry_space_group_name_H-M	'P1'
_symmetry_Int_Tables_number	1
_symmetry_cell_setting	triclinic
loop_
_symmetry_equiv_pos_as_xyz
  x,y,z
_cell_length_a	10.723023
_cell_length_b	14.044190
_cell_length_c	9.198806
_cell_angle_alpha	89.991997
_cell_angle_beta	89.996513
_cell_angle_gamma	88.829662
loop_
_atom_site_label
_atom_site_type_symbol
_atom_site_fract_x
_atom_site_fract_y
_atom_site_fract_z
O1	O	1.670503	0.133036	-0.120896
O2	O	1.308625	0.145772	-0.120904
O3	O	1.484127	0.001384	-0.120871
O4	O	1.495000	0.277424	-0.120928
O5	O	1.484112	0.001384	0.120914
O6	O	1.308609	0.145771	0.120881
O7	O	1.670487	0.133036	0.120889
Cu8	Cu	1.489547	0.139404	0.142962
Cu9	Cu	1.489565	0.139404	-0.142977
O10	O	1.494985	0.277424	0.120857
C11	C	1.262025	0.144845	-0.000012
C12	C	1.123193	0.142073	-0.000013
C13	C	1.061289	0.140836	0.125238
C14	C	0.917799	0.137971	0.125239
C15	C	1.479363	-0.033962	0.000025
C16	C	1.465175	-0.139280	0.000038
C17	C	1.539861	-0.389081	-0.000017
C18	C	1.439257	-0.332106	-0.000010
C19	C	1.453681	-0.224808	0.000017
C20	C	1.525438	-0.496389	-0.000044
C21	C	1.717087	0.133963	-0.000006
C22	C	1.855919	0.136735	-0.000014
C23	C	1.499749	0.312769	-0.000043
C24	C	1.513937	0.418088	-0.000065
N25	N	1.489543	0.139403	0.344076
N26	N	1.489578	0.139398	-0.344091
C27	C	1.563205	0.078511	0.416287
C28	C	1.563224	0.078508	0.583699
H29	H	0.864563	0.136913	0.232470
H30	H	0.909146	0.137804	-0.107251
H31	H	1.636816	-0.357277	-0.000000
O32	O	1.323669	-0.370198	0.000046
C33	C	1.334807	-0.470404	-0.000013
H34	H	1.429713	-0.492893	0.045754
H35	H	1.325752	-0.497975	-0.116015
C36	C	1.114434	-0.484620	0.038591
C37	C	1.230996	-0.512241	0.094813
H38	H	1.050396	-0.510428	0.097077
H39	H	1.106928	-0.417109	0.038625
H40	H	1.106906	-0.507598	-0.058077
H41	H	1.238528	-0.489253	0.191472
H42	H	1.238501	-0.579749	0.094797
O43	O	1.638281	0.016315	0.342003
C44	C	1.564642	-0.042476	0.253970
H45	H	1.471215	-0.005198	0.231363
H46	H	1.548209	-0.112668	0.312503
C47	C	1.747356	-0.108018	0.137044
C48	C	1.632611	-0.062229	0.109267
H49	H	1.789283	-0.120207	0.047786
H50	H	1.796970	-0.068413	0.196357
H51	H	1.733646	-0.166507	0.185824
H52	H	1.646323	-0.003737	0.060504
H53	H	1.583001	-0.101825	0.049942
H54	H	1.626294	0.026379	0.645797
H55	H	1.426514	0.191536	0.593821
O56	O	1.059829	0.140936	-0.128039
C57	C	1.086593	0.223593	-0.208267
H58	H	1.179677	0.252826	-0.170938
H59	H	1.009695	0.279552	-0.189893
C60	C	0.979639	0.162898	-0.416995
C61	C	1.093972	0.198798	-0.371156
H62	H	0.984185	0.147605	-0.517473
H63	H	0.961603	0.107212	-0.362943
H64	H	0.915569	0.209536	-0.401671
H65	H	1.158037	0.152155	-0.386463
H66	H	1.112019	0.254476	-0.425214
O67	O	1.414202	0.201630	0.417943
C68	C	1.345731	0.258264	0.318297
H69	H	1.339760	0.219450	0.209766
H70	H	1.394364	0.328917	0.302145
C71	C	1.220642	0.324793	0.511178
C72	C	1.213299	0.277117	0.377881
H73	H	1.138954	0.336427	0.547933
H74	H	1.266775	0.286641	0.578313
H75	H	1.261175	0.383665	0.497699
H76	H	1.172782	0.218241	0.391364
H77	H	1.167157	0.315260	0.310750
H78	H	1.114521	0.141894	0.232469
