data_functionalizedCrystal
_audit_creation_method	'MofGen! by Chris Wilmer'
_symmetry_space_group_name_H-M	'P1'
_symmetry_Int_Tables_number	1
_symmetry_cell_setting	triclinic
loop_
_symmetry_equiv_pos_as_xyz
  x,y,z
_cell_length_a	14.971486
_cell_length_b	14.044220
_cell_length_c	13.448316
_cell_angle_alpha	89.992660
_cell_angle_beta	89.998199
_cell_angle_gamma	88.401503
loop_
_atom_site_label
_atom_site_type_symbol
_atom_site_fract_x
_atom_site_fract_y
_atom_site_fract_z
O1	O	1.196679	0.123538	-0.082579
O2	O	1.530013	0.456871	0.250754
O3	O	1.863346	0.790205	0.584087
O4	O	0.937445	0.138332	-0.082607
O5	O	1.270778	0.471665	0.250727
O6	O	1.604111	0.804999	0.584060
O7	O	1.063171	-0.007054	-0.082584
O8	O	1.396504	0.326279	0.250750
O9	O	1.729838	0.659613	0.584083
O10	O	1.070953	0.268924	-0.082602
O11	O	1.404287	0.602257	0.250731
O12	O	1.737620	0.935591	0.584064
O13	O	1.063153	-0.007063	0.082800
O14	O	1.396486	0.326270	0.416133
O15	O	1.729820	0.659604	0.749467
O16	O	0.937427	0.138323	0.082777
O17	O	1.270760	0.471656	0.416110
O18	O	1.604093	0.804990	0.749444
O19	O	1.196661	0.123529	0.082804
O20	O	1.529995	0.456862	0.416138
O21	O	1.863328	0.790196	0.749471
Cu22	Cu	1.067042	0.130925	0.097892
Cu23	Cu	1.400376	0.464258	0.431225
Cu24	Cu	1.733709	0.797592	0.764558
Cu25	Cu	1.067064	0.130936	-0.097694
Cu26	Cu	1.400397	0.464269	0.235639
Cu27	Cu	1.733730	0.797602	0.568973
O28	O	1.070935	0.268915	0.082781
O29	O	1.404269	0.602248	0.416115
O30	O	1.737602	0.935582	0.749448
C31	C	0.904059	0.137666	0.000082
C32	C	1.237392	0.470999	0.333415
C33	C	1.570726	0.804332	0.666748
C34	C	0.804606	0.135683	0.000072
C35	C	1.137939	0.469016	0.333405
C36	C	1.471272	0.802350	0.666738
C37	C	0.754109	0.221093	0.000067
C38	C	1.087442	0.554427	0.333401
C39	C	1.420775	0.887760	0.666734
C40	C	0.660662	0.219225	0.000082
C41	C	0.993995	0.552558	0.333415
C42	C	1.327329	0.885892	0.666749
C43	C	0.617714	0.131945	0.000094
C44	C	0.951047	0.465278	0.333428
C45	C	1.284381	0.798612	0.666761
C46	C	0.668218	0.046528	0.000102
C47	C	1.001551	0.379862	0.333435
C48	C	1.334884	0.713195	0.666768
C49	C	0.761663	0.048398	0.000094
C50	C	1.094996	0.381731	0.333427
C51	C	1.428329	0.715064	0.666761
C52	C	0.473449	0.042638	0.000116
C53	C	0.806782	0.375971	0.333449
C54	C	1.140115	0.709304	0.666782
C55	C	0.379997	0.040767	0.000122
C56	C	0.713331	0.374101	0.333455
C57	C	1.046664	0.707434	0.666788
C58	C	0.372448	0.213465	0.000104
C59	C	0.705782	0.546798	0.333437
C60	C	1.039115	0.880131	0.666771
C61	C	0.465893	0.215334	0.000096
C62	C	0.799226	0.548668	0.333429
C63	C	1.132560	0.882001	0.666763
C64	C	0.516390	0.129917	0.000102
C65	C	0.849724	0.463250	0.333435
C66	C	1.183057	0.796584	0.666768
C67	C	1.059755	-0.042377	0.000108
C68	C	1.393089	0.290956	0.333442
C69	C	1.726422	0.624290	0.666775
C70	C	1.049594	-0.147614	0.000108
C71	C	1.382928	0.185719	0.333442
C72	C	1.716261	0.519053	0.666775
C73	C	1.031018	-0.340297	0.000092
C74	C	1.364351	-0.006963	0.333426
C75	C	1.697684	0.326370	0.666759
C76	C	1.103085	-0.397848	0.000097
C77	C	1.436418	-0.064515	0.333430
C78	C	1.769751	0.268819	0.666763
C79	C	1.092748	-0.505063	0.000088
C80	C	1.426082	-0.171730	0.333421
C81	C	1.759415	0.161603	0.666754
C82	C	1.041353	-0.233071	0.000101
C83	C	1.374686	0.100262	0.333435
C84	C	1.708019	0.433595	0.666768
C85	C	1.230047	0.124195	0.000114
C86	C	1.563381	0.457528	0.333447
C87	C	1.896714	0.790862	0.666780
C88	C	1.329501	0.126178	0.000117
C89	C	1.662834	0.459511	0.333451
C90	C	1.996167	0.792844	0.666784
C91	C	1.074351	0.304238	0.000087
C92	C	1.407684	0.637571	0.333420
C93	C	1.741017	0.970904	0.666754
C94	C	1.084512	0.409475	0.000080
C95	C	1.417845	0.742808	0.333414
C96	C	1.751179	1.076142	0.666747
N97	N	1.067034	0.130917	0.235456
N98	N	1.400367	0.464250	0.568789
N99	N	1.733701	0.797584	0.902123
N100	N	1.067079	0.130936	-0.235258
N101	N	1.400412	0.464270	0.098075
N102	N	1.733745	0.797603	0.431408
C103	C	1.122727	0.066567	0.287506
C104	C	1.456060	0.399900	0.620840
C105	C	1.789393	0.733233	0.954173
C106	C	1.122732	0.066566	0.391610
C107	C	1.456065	0.399899	0.724943
C108	C	1.789399	0.733233	1.058276
C109	C	1.067049	0.130921	0.443660
C110	C	1.400382	0.464254	0.776994
C111	C	1.733716	0.797588	1.110327
C112	C	1.011350	0.195274	0.391603
C113	C	1.344684	0.528608	0.724936
C114	C	1.678017	0.861941	1.058269
C115	C	1.011341	0.195270	0.287501
C116	C	1.344674	0.528603	0.620835
C117	C	1.678007	0.861936	0.954168
C118	C	1.011376	0.195281	0.608583
C119	C	1.344709	0.528614	0.941916
C120	C	1.678042	0.861947	1.275249
C121	C	1.011386	0.195287	0.712691
C122	C	1.344719	0.528620	1.046025
C123	C	1.678053	0.861953	1.379358
C124	C	1.122767	0.066577	0.712691
C125	C	1.456100	0.399910	1.046024
C126	C	1.789434	0.733244	1.379358
C127	C	1.122757	0.066572	0.608590
C128	C	1.456091	0.399906	0.941923
C129	C	1.789424	0.733239	1.275256
C130	C	1.067060	0.130927	0.556539
C131	C	1.400393	0.464261	0.889872
C132	C	1.733726	0.797594	1.223206
H133	H	0.789070	0.292167	0.000056
H134	H	1.122403	0.625500	0.333390
H135	H	1.455737	0.958833	0.666723
H136	H	0.966042	0.247690	0.755066
H137	H	1.299376	0.581024	1.088399
H138	H	1.632709	0.914357	1.421732
H139	H	0.500859	0.286405	0.000077
H140	H	0.834192	0.619738	0.333410
H141	H	1.167525	0.953072	0.666743
Br142	Br	0.592133	0.335144	0.000073
Br143	Br	0.925467	0.668478	0.333406
Br144	Br	1.258800	1.001811	0.666740
Br145	Br	0.303918	0.329389	0.000095
Br146	Br	0.637251	0.662722	0.333428
Br147	Br	0.970585	0.996055	0.666762
H148	H	1.168080	0.014166	0.433989
H149	H	1.501414	0.347500	0.767322
H150	H	1.834747	0.680833	1.100656
Br151	Br	1.198360	-0.020756	0.783334
Br152	Br	1.531693	0.312577	1.116667
Br153	Br	1.865026	0.645910	1.450001
H154	H	0.965989	0.247669	0.245123
H155	H	1.299322	0.581003	0.578456
H156	H	1.632656	0.914336	0.911789
H157	H	0.966017	0.247682	0.566206
H158	H	1.299351	0.581016	0.899540
H159	H	1.632684	0.914349	1.232873
H160	H	0.966007	0.247670	0.433988
H161	H	1.299341	0.581004	0.767322
H162	H	1.632674	0.914337	1.100655
H163	H	0.802776	-0.021152	0.000097
H164	H	1.136110	0.312181	0.333430
H165	H	1.469443	0.645514	0.666764
H166	H	0.961562	-0.371545	0.000082
H167	H	1.294895	-0.038211	0.333416
H168	H	1.628229	0.295122	0.666749
Br169	Br	1.198308	-0.020771	0.216877
Br170	Br	1.531641	0.312563	0.550210
Br171	Br	1.864975	0.645896	0.883544
H172	H	1.168103	0.014175	0.566210
H173	H	1.501437	0.347508	0.899544
H174	H	1.834770	0.680841	1.232877
H175	H	0.345032	-0.030303	0.000133
H176	H	0.678365	0.303030	0.333466
H177	H	1.011699	0.636363	0.666800
H178	H	0.633242	-0.024537	0.000126
H179	H	0.966575	0.308797	0.333459
H180	H	1.299909	0.642130	0.666793
Br181	Br	0.541980	-0.073287	0.000128
Br182	Br	0.875314	0.260046	0.333462
Br183	Br	1.208647	0.593380	0.666795
H184	H	1.172546	-0.366598	0.000037
H185	H	1.505879	-0.033265	0.333371
H186	H	1.839213	0.300068	0.666704
