data_functionalizedCrystal
_audit_creation_method	'MofGen! by Chris Wilmer'
_symmetry_space_group_name_H-M	'P1'
_symmetry_Int_Tables_number	1
_symmetry_cell_setting	triclinic
loop_
_symmetry_equiv_pos_as_xyz
  x,y,z
_cell_length_a	19.805407
_cell_length_b	14.908520
_cell_length_c	19.805399
_cell_angle_alpha	93.270609
_cell_angle_beta	89.980427
_cell_angle_gamma	93.320773
loop_
_atom_site_label
_atom_site_type_symbol
_atom_site_fract_x
_atom_site_fract_y
_atom_site_fract_z
Zn1	Zn	1.019204	-0.359181	-0.398269
Zn2	Zn	1.519204	0.140819	0.101731
Zn3	Zn	1.012594	-0.510047	-0.291612
Zn4	Zn	1.512594	-0.010047	0.208388
Zn5	Zn	0.906017	-0.359206	-0.285095
Zn6	Zn	1.406017	0.140794	0.214905
Zn7	Zn	0.899460	-0.509999	-0.404757
Zn8	Zn	1.399460	-0.009999	0.095243
O9	O	0.959319	-0.434608	-0.344934
O10	O	1.459319	0.065392	0.155066
O11	O	1.113043	-0.379203	-0.384134
O12	O	1.613043	0.120797	0.115866
O13	O	0.998435	-0.490068	-0.196033
O14	O	1.498435	0.009932	0.303967
O15	O	0.926542	-0.232958	-0.294665
O16	O	1.426542	0.267042	0.205335
O17	O	1.108187	-0.490044	-0.305773
O18	O	1.608187	0.009956	0.194227
O19	O	1.009699	-0.232939	-0.377814
O20	O	1.509699	0.267061	0.122186
O21	O	0.920133	-0.379246	-0.191244
O22	O	1.420133	0.120754	0.308756
O23	O	0.810431	-0.379199	-0.300956
O24	O	1.310431	0.120801	0.199044
O25	O	0.915366	-0.489962	-0.498612
O26	O	1.415366	0.010038	0.001388
O27	O	0.805614	-0.489986	-0.388871
O28	O	1.305614	0.010014	0.111129
O29	O	1.003341	-0.379157	-0.493845
O30	O	1.503341	0.120843	0.006155
O31	O	0.992077	-0.636286	-0.312064
O32	O	1.492077	-0.136286	0.187936
O33	O	0.908957	-0.636250	-0.395191
O34	O	1.408957	-0.136250	0.104809
C35	C	0.783463	-0.434591	-0.344911
C36	C	1.283463	0.065409	0.155089
C37	C	0.708231	-0.434605	-0.344918
C38	C	1.208231	0.065395	0.155082
C39	C	0.670392	-0.492379	-0.390629
C40	C	1.170392	0.007621	0.109371
C41	C	0.599704	-0.492380	-0.390639
C42	C	1.099704	0.007620	0.109361
C43	C	0.566855	-0.434612	-0.344934
C44	C	1.066855	0.065388	0.155066
C45	C	0.604699	-0.376832	-0.299220
C46	C	1.104699	0.123168	0.200780
C47	C	0.675386	-0.376827	-0.299214
C48	C	1.175386	0.123173	0.200786
C49	C	0.319625	-0.376852	-0.299244
C50	C	0.819625	0.123148	0.200756
C51	C	0.248932	-0.376864	-0.299252
C52	C	0.748932	0.123136	0.200748
C53	C	0.243942	-0.492406	-0.390668
C54	C	0.743942	0.007594	0.109332
C55	C	0.314629	-0.492400	-0.390662
C56	C	0.814629	0.007600	0.109338
C57	C	0.352467	-0.434618	-0.344952
C58	C	0.852467	0.065382	0.155048
C59	C	0.429116	-0.434615	-0.344943
C60	C	0.929116	0.065385	0.155057
C61	C	0.490208	-0.434618	-0.344939
C62	C	0.990208	0.065382	0.155061
C63	C	0.949107	-0.669002	-0.355053
C64	C	1.449107	-0.169002	0.144947
C65	C	0.944800	-0.769277	-0.359405
C66	C	1.444800	-0.269277	0.140595
C67	C	1.023348	-0.957679	-0.281093
C68	C	1.523348	-0.457679	0.218907
C69	C	1.019304	-1.051896	-0.285180
C70	C	1.519304	-0.551896	0.214820
C71	C	0.932671	-1.051929	-0.371669
C72	C	1.432671	-0.551929	0.128331
C73	C	0.936715	-0.957712	-0.367582
C74	C	1.436715	-0.457712	0.132418
C75	C	0.982055	-0.910590	-0.322292
C76	C	1.482055	-0.410590	0.177708
C77	C	0.986095	-0.816372	-0.318202
C78	C	1.486095	-0.316372	0.181798
C79	C	0.899466	-0.816407	-0.404694
C80	C	1.399466	-0.316407	0.095306
C81	C	0.895421	-0.910624	-0.408781
C82	C	1.395421	-0.410624	0.091219
C83	C	1.135861	-0.434626	-0.344957
C84	C	1.635861	0.065374	0.155043
C85	C	1.211092	-0.434634	-0.344967
C86	C	1.711092	0.065366	0.155033
C87	C	0.959359	-0.434551	-0.521474
C88	C	1.459359	0.065449	-0.021474
C89	C	0.959376	-0.434527	-0.596705
C90	C	1.459376	0.065473	-0.096705
C91	C	0.969589	-0.199299	-0.334789
C92	C	1.469589	0.300701	0.165211
C93	C	0.973966	-0.099024	-0.330466
C94	C	1.473966	0.400976	0.169534
C95	C	1.005186	-0.376828	-0.629568
C96	C	1.505186	0.123172	-0.129568
C97	C	1.005194	-0.376802	-0.700255
C98	C	1.505194	0.123198	-0.200255
C99	C	0.959395	-0.434480	-0.738078
C100	C	1.459395	0.065520	-0.238078
C101	C	0.913581	-0.492182	-0.705210
C102	C	1.413581	0.007818	-0.205210
C103	C	0.913570	-0.492203	-0.634524
C104	C	1.413570	0.007797	-0.134524
C105	C	0.913622	-0.492098	-0.990280
C106	C	1.413622	0.007902	-0.490280
C107	C	0.913638	-0.492074	-1.060971
C108	C	1.413638	0.007926	-0.560971
C109	C	1.005247	-0.376697	-1.056011
C110	C	1.505247	0.123303	-0.556011
C111	C	1.005236	-0.376718	-0.985325
C112	C	1.505236	0.123282	-0.485325
C113	C	0.959419	-0.434416	-0.952463
C114	C	1.459419	0.065584	-0.452463
C115	C	0.959410	-0.434442	-0.875816
C116	C	1.459410	0.065558	-0.375816
C117	C	0.959407	-0.434459	-0.814725
C118	C	1.459407	0.065541	-0.314725
C119	C	0.959320	-0.434600	-0.169077
C120	C	1.459320	0.065400	0.330923
C121	C	0.959445	-0.434370	-0.093836
C122	C	1.459445	0.065630	0.406164
H123	H	0.697132	-0.539423	-0.427846
H124	H	1.197132	-0.039423	0.072154
H125	H	0.876288	-0.539141	-0.736011
H126	H	1.376288	-0.039141	-0.236011
N127	N	0.558894	-0.554706	-0.439935
N128	N	1.058894	-0.054706	0.060065
H129	H	0.531173	-0.518111	-0.469776
H130	H	1.031173	-0.018111	0.030224
H131	H	0.590476	-0.591291	-0.468836
H132	H	1.090476	-0.091291	0.031164
N133	N	1.035000	-0.765551	-0.269358
N134	N	1.535000	-0.265551	0.230642
H135	H	1.068027	-0.726402	-0.295200
H136	H	1.568027	-0.226402	0.204800
H137	H	1.009144	-0.726570	-0.236278
H138	H	1.509144	-0.226570	0.263722
H139	H	1.052931	-1.090232	-0.251633
H140	H	1.552931	-0.590232	0.248367
N141	N	0.846520	-0.961457	-0.457622
N142	N	1.346520	-0.461457	0.042378
H143	H	0.798868	-0.945125	-0.446349
H144	H	1.298868	-0.445125	0.053651
H145	H	0.857760	-0.944991	-0.505262
H146	H	1.357760	-0.444991	-0.005262
N147	N	0.883776	-1.102765	-0.420515
N148	N	1.383776	-0.602765	0.079485
H149	H	0.836121	-1.086440	-0.409249
H150	H	1.336121	-0.586440	0.090751
H151	H	0.895022	-1.086296	-0.468153
H152	H	1.395022	-0.586296	0.031847
N153	N	1.054664	-0.314460	-1.091455
N154	N	1.554664	0.185540	-0.591455
H155	H	1.047722	-0.323193	-1.141974
H156	H	1.547722	0.176807	-0.641974
H157	H	1.046942	-0.250032	-1.076318
H158	H	1.546942	0.249968	-0.576318
H159	H	0.341371	-0.539444	-0.427878
H160	H	0.841371	-0.039444	0.072122
H161	H	0.865840	-0.778057	-0.438239
H162	H	1.365840	-0.278057	0.061761
N163	N	1.054631	-0.314507	-0.944529
N164	N	1.554631	0.185493	-0.444529
H165	H	1.084392	-0.351182	-0.916788
H166	H	1.584392	0.148818	-0.416788
H167	H	1.083607	-0.277960	-0.976116
H168	H	1.583607	0.222040	-0.476116
N169	N	1.072239	-0.906847	-0.232241
N170	N	1.572239	-0.406847	0.267759
H171	H	1.097783	-0.950975	-0.206758
H172	H	1.597783	-0.450975	0.293242
H173	H	1.105227	-0.867696	-0.258123
H174	H	1.605227	-0.367696	0.241877
H175	H	0.876260	-0.539178	-0.607768
H176	H	1.376260	-0.039178	-0.107768
H177	H	1.042483	-0.329862	-0.598777
H178	H	1.542483	0.170138	-0.098777
N179	N	0.716199	-0.314520	-0.249906
N180	N	1.216199	0.185480	0.250094
H181	H	0.765963	-0.323280	-0.256838
H182	H	1.265963	0.176720	0.243162
H183	H	0.706652	-0.250109	-0.257740
H184	H	1.206652	0.249891	0.242260
H185	H	0.876340	-0.539044	-1.091765
H186	H	1.376340	-0.039044	-0.591765
N187	N	0.203134	-0.554723	-0.439980
N188	N	0.703134	-0.054723	0.060020
H189	H	0.212625	-0.619161	-0.432165
H190	H	0.712625	-0.119161	0.067835
H191	H	0.153384	-0.545887	-0.433029
H192	H	0.653384	-0.045887	0.066971
H193	H	0.222189	-0.329817	-0.262033
H194	H	0.722189	0.170183	0.237967
H195	H	1.042499	-0.329820	-0.727009
H196	H	1.542499	0.170180	-0.227009
N197	N	0.864188	-0.554296	-0.954840
N198	N	1.364188	-0.054296	-0.454840
H199	H	0.835172	-0.590822	-0.989528
H200	H	1.335172	-0.090822	-0.489528
H201	H	0.889886	-0.596070	-0.927302
H202	H	1.389886	-0.096070	-0.427302
N203	N	0.569275	-0.314530	-0.249916
N204	N	1.069275	0.185470	0.250084
H205	H	0.580960	-0.328463	-0.202143
H206	H	1.080960	0.171537	0.297857
H207	H	0.584401	-0.250112	-0.257780
H208	H	1.084401	0.249888	0.242220
N209	N	0.360431	-0.314518	-0.249954
N210	N	0.860431	0.185482	0.250046
H211	H	0.328893	-0.277923	-0.221004
H212	H	0.828893	0.222077	0.278996
H213	H	0.388159	-0.351165	-0.220161
H214	H	0.888159	0.148835	0.279839
