data_functionalizedCrystal
_audit_creation_method	'MofGen! by Chris Wilmer'
_symmetry_space_group_name_H-M	'P1'
_symmetry_Int_Tables_number	1
_symmetry_cell_setting	triclinic
loop_
_symmetry_equiv_pos_as_xyz
  x,y,z
_cell_length_a	14.044191
_cell_length_b	14.044220
_cell_length_c	9.130307
_cell_angle_alpha	89.995545
_cell_angle_beta	90.000850
_cell_angle_gamma	93.190327
loop_
_atom_site_label
_atom_site_type_symbol
_atom_site_fract_x
_atom_site_fract_y
_atom_site_fract_z
O1	O	1.277168	0.230198	-0.121735
O2	O	1.000496	0.221885	-0.121753
O3	O	1.134679	0.087706	-0.121730
O4	O	1.142985	0.364377	-0.121758
O5	O	1.134674	0.087704	0.121869
O6	O	1.000491	0.221883	0.121846
O7	O	1.277164	0.230196	0.121864
Cu8	Cu	1.138827	0.226040	0.144097
Cu9	Cu	1.138833	0.226042	-0.143987
O10	O	1.142980	0.364376	0.121841
C11	C	0.964872	0.218248	0.000044
C12	C	0.858728	0.207401	0.000037
C13	C	0.613270	0.264501	0.000046
C14	C	0.664395	0.187585	0.000051
C15	C	0.772532	0.198613	0.000044
C16	C	0.505123	0.253474	0.000054
C17	C	1.131041	0.052083	0.000070
C18	C	1.120197	-0.054060	0.000071
C19	C	1.100370	-0.248398	0.000048
C20	C	1.177285	-0.299526	0.000049
C21	C	1.166253	-0.407663	0.000037
C22	C	1.111400	-0.140252	0.000061
C23	C	1.312788	0.233834	0.000063
C24	C	1.418931	0.244681	0.000060
C25	C	1.146618	0.399998	0.000037
C26	C	1.157463	0.506142	0.000027
N27	N	1.138830	0.226038	0.346720
N28	N	1.138837	0.226036	-0.346610
C29	C	1.257705	0.107264	0.346731
C30	C	1.317149	0.047880	0.423403
C31	C	1.317159	0.047880	0.576736
C32	C	1.257715	0.107269	0.653401
C33	C	1.198271	0.166652	0.576729
C34	C	1.198270	0.166648	0.423392
C35	C	1.079393	0.285420	0.576718
C36	C	1.079387	0.285426	0.423385
C37	C	1.019949	0.344809	0.653383
C38	C	0.960509	0.404199	0.576711
C39	C	0.960503	0.404197	0.423368
C40	C	1.019942	0.344810	0.346713
H41	H	0.626952	0.113452	-0.000044
H42	H	0.650711	0.338628	0.000034
H43	H	1.019955	0.344802	0.778235
H44	H	1.251419	-0.262085	-0.000044
H45	H	1.026242	-0.285837	0.000040
O46	O	1.257790	0.107122	0.197784
C47	C	1.323067	0.042008	-0.022255
C48	C	1.323046	0.042058	0.146427
H49	H	1.375835	-0.010576	-0.063828
H50	H	1.248547	0.020029	-0.063967
H51	H	1.344881	0.116597	-0.063848
H52	H	1.301273	-0.032507	0.188145
H53	H	1.397576	0.064091	0.188039
O54	O	1.374788	-0.009925	0.348960
C55	C	1.416792	-0.171135	0.302018
C56	C	1.351441	-0.105795	0.386404
H57	H	1.397953	-0.248658	0.332283
H58	H	1.406555	-0.160991	0.179248
H59	H	1.494305	-0.152113	0.332128
H60	H	1.273903	-0.124776	0.356417
H61	H	1.361760	-0.115949	0.509153
H62	H	1.365559	-0.000479	0.639163
H63	H	1.257718	0.107256	0.778253
H64	H	0.912110	0.452544	0.639141
H65	H	0.912092	0.452551	0.360950
H66	H	1.019946	0.344807	0.221861
