data_functionalizedCrystal
_audit_creation_method	'MofGen! by Chris Wilmer'
_symmetry_space_group_name_H-M	'P1'
_symmetry_Int_Tables_number	1
_symmetry_cell_setting	triclinic
loop_
_symmetry_equiv_pos_as_xyz
  x,y,z
_cell_length_a	12.837943
_cell_length_b	10.654550
_cell_length_c	11.295471
_cell_angle_alpha	85.863594
_cell_angle_beta	85.455831
_cell_angle_gamma	90.343078
loop_
_atom_site_label
_atom_site_type_symbol
_atom_site_fract_x
_atom_site_fract_y
_atom_site_fract_z
O1	O	1.370859	-0.334365	0.098999
O2	O	1.068937	-0.318225	0.099006
O3	O	1.226840	-0.144313	0.098998
O4	O	1.212956	-0.508277	0.099007
O5	O	1.240718	-0.129073	-0.099054
O6	O	1.082815	-0.302985	-0.099046
O7	O	1.384737	-0.319125	-0.099053
Cu8	Cu	1.235043	-0.309663	-0.117133
Cu9	Cu	1.218631	-0.327686	0.117086
O10	O	1.226834	-0.493037	-0.099045
C11	C	1.037216	-0.305152	-0.000019
C12	C	0.922022	-0.288890	-0.000016
N13	N	1.246594	-0.296987	-0.281870
C14	C	1.232759	-0.089784	-0.000027
C15	C	1.229709	0.049992	-0.000022
C16	C	0.682470	-0.484393	-0.000028
C17	C	0.574234	-0.469119	-0.000026
C18	C	0.597313	-0.243068	-0.000019
C19	C	0.705549	-0.258342	-0.000021
C20	C	0.748123	-0.379009	-0.000024
C21	C	0.856360	-0.394282	-0.000017
C22	C	0.879437	-0.168232	-0.000018
C23	C	0.771202	-0.152958	-0.000017
C24	C	1.416458	-0.332198	-0.000025
C25	C	1.531651	-0.348461	-0.000020
C26	C	1.220914	-0.547566	-0.000018
C27	C	1.223964	-0.687343	-0.000014
C28	C	1.322680	0.119333	-0.000028
C29	C	1.319808	0.250666	-0.000020
C30	C	1.130985	0.243307	-0.000005
C31	C	1.133858	0.111975	-0.000005
C32	C	1.431696	0.123583	-0.000042
C33	C	1.428823	0.254917	-0.000034
N34	N	1.207088	-0.340354	0.281823
C35	C	1.123939	-0.431517	0.468850
C36	C	1.132668	-0.421956	0.344185
C37	C	1.272785	-0.268310	0.344134
C38	C	1.264056	-0.277872	0.468799
C39	C	1.189630	-0.359476	0.531152
C40	C	1.180896	-0.369030	0.655819
C41	C	1.321018	-0.215392	0.655765
C42	C	1.329747	-0.205831	0.531101
H43	H	0.891022	-0.492535	-0.000021
C44	C	0.728854	-0.615309	-0.000211
C45	C	0.797478	-0.622832	-0.102089
C46	C	0.840235	-0.743408	-0.102290
H47	H	0.674362	-0.676003	-0.000269
H48	H	0.765819	-0.631295	0.068818
H49	H	0.760514	-0.606860	-0.171100
H50	H	0.851988	-0.562165	-0.102053
H51	H	0.877200	-0.759394	-0.033261
H52	H	0.785736	-0.804092	-0.102345
H53	H	0.886808	-0.748524	-0.171407
C54	C	1.480630	0.069533	0.110510
C55	C	1.408761	-0.011293	0.178140
C56	C	1.453803	-0.061119	0.279978
H57	H	1.499136	0.136080	0.156695
H58	H	1.541425	0.023991	0.087526
H59	H	1.347985	0.034247	0.201125
H60	H	1.390249	-0.077861	0.131991
H61	H	1.514598	-0.106661	0.256994
H62	H	1.472308	0.005436	0.326153
H63	H	1.405051	-0.115974	0.325872
H64	H	0.520782	-0.554934	-0.000033
H65	H	0.562637	-0.144819	-0.000116
C66	C	1.491327	0.312901	-0.110652
C67	C	1.532432	0.217071	-0.178323
C68	C	1.590000	0.270437	-0.280236
H69	H	1.546821	0.362883	-0.087790
H70	H	1.446989	0.364111	-0.156757
H71	H	1.576766	0.165882	-0.132227
H72	H	1.476960	0.167082	-0.201216
H73	H	1.545662	0.321648	-0.326341
H74	H	1.645488	0.320418	-0.257362
H75	H	1.617888	0.205426	-0.326169
C76	C	0.725100	-0.021896	0.000178
C77	C	0.751269	0.034733	0.102063
C78	C	0.708831	0.155474	0.102280
H79	H	0.651233	-0.027718	0.000239
H80	H	0.752447	0.027427	-0.068846
H81	H	0.723917	-0.014578	0.171070
H82	H	0.825127	0.040587	0.102024
H83	H	0.736178	0.204797	0.033256
H84	H	0.634967	0.149639	0.102338
H85	H	0.726589	0.193916	0.171402
C86	C	1.410638	-0.117195	0.463613
C87	C	1.466309	-0.056164	0.544862
C88	C	1.540838	0.025494	0.482739
H89	H	1.376548	-0.056465	0.414971
H90	H	1.457537	-0.163941	0.415011
H91	H	1.419418	-0.009420	0.593444
H92	H	1.500422	-0.116862	0.593507
H93	H	1.587736	-0.021253	0.434138
H94	H	1.506739	0.086215	0.434099
H95	H	1.578626	0.066904	0.537857
H96	H	1.333389	-0.201879	0.293350
H97	H	0.932904	-0.082420	-0.000007
C98	C	1.061170	-0.500005	0.276603
C99	C	0.957008	-0.469416	0.306908
C100	C	0.891114	-0.541281	0.244663
H101	H	1.071333	-0.586879	0.297001
H102	H	1.076957	-0.482609	0.193416
H103	H	0.941227	-0.486822	0.390077
H104	H	0.946813	-0.382555	0.286507
H105	H	0.906901	-0.523885	0.161475
H106	H	0.901286	-0.628151	0.265066
H107	H	0.820434	-0.520529	0.265207
C108	C	1.026876	0.310521	0.000255
C109	C	0.963493	0.268530	0.102167
C110	C	0.867584	0.330429	0.102454
H111	H	0.993260	0.292850	-0.068727
H112	H	1.038431	0.398674	0.000322
H113	H	0.951936	0.180397	0.102089
H114	H	0.997076	0.286202	0.171165
H115	H	0.879139	0.418582	0.102521
H116	H	0.833978	0.312753	0.033468
H117	H	0.824570	0.301955	0.171605
H118	H	1.374505	-0.156728	0.706506
C119	C	1.464551	0.302275	0.114059
C120	C	1.383469	0.368821	0.170410
C121	C	1.416334	0.412450	0.275521
H122	H	1.523671	0.356231	0.095654
H123	H	1.482710	0.232762	0.165554
H124	H	1.365324	0.438324	0.118926
H125	H	1.324342	0.314890	0.188844
H126	H	1.434493	0.342937	0.327016
H127	H	1.475455	0.466401	0.257105
H128	H	1.361322	0.457596	0.313774
C129	C	1.100066	-0.457749	0.723305
C130	C	1.044428	-0.518819	0.642054
C131	C	0.969970	-0.600573	0.704174
H132	H	1.053129	-0.411106	0.771933
H133	H	1.134244	-0.518443	0.771921
H134	H	1.010251	-0.458134	0.593458
H135	H	1.091336	-0.565486	0.593423
H136	H	1.004148	-0.661267	0.752790
H137	H	0.923040	-0.553920	0.752800
H138	H	0.932217	-0.642028	0.649055
H139	H	1.472402	0.090749	-0.085558
H140	H	1.063331	-0.497953	0.519619
H141	H	1.058151	0.055521	0.000017
