data_functionalizedCrystal
_audit_creation_method	'MofGen! by Chris Wilmer'
_symmetry_space_group_name_H-M	'P1'
_symmetry_Int_Tables_number	1
_symmetry_cell_setting	triclinic
loop_
_symmetry_equiv_pos_as_xyz
  x,y,z
_cell_length_a	16.120566
_cell_length_b	12.759399
_cell_length_c	12.759393
_cell_angle_alpha	90.032031
_cell_angle_beta	92.922057
_cell_angle_gamma	87.111367
loop_
_atom_site_label
_atom_site_type_symbol
_atom_site_fract_x
_atom_site_fract_y
_atom_site_fract_z
Zn1	Zn	-1.274623	0.499737	-0.675509
Zn2	Zn	-1.274538	0.675451	-0.499823
Zn3	Zn	-1.135200	0.490874	-0.490930
Zn4	Zn	-1.135189	0.666456	-0.666551
O5	O	-1.204887	0.583129	-0.583203
O6	O	-1.391278	0.530520	-0.659674
O7	O	-1.256023	0.651021	-0.351620
O8	O	-1.153734	0.345031	-0.515443
O9	O	-1.391216	0.659616	-0.530598
O10	O	-1.256168	0.351543	-0.651052
O11	O	-1.153652	0.515413	-0.345087
O12	O	-1.018531	0.506691	-0.506756
O13	O	-1.153717	0.644285	-0.814762
O14	O	-1.018524	0.635690	-0.635784
O15	O	-1.256158	0.521798	-0.821344
O16	O	-1.256013	0.821276	-0.521912
O17	O	-1.153635	0.814668	-0.644406
C18	C	-0.988277	0.569253	-0.569333
C19	C	-0.895611	0.563343	-0.563425
C20	C	-1.204836	0.856094	-0.583176
C21	C	-1.204891	0.972874	-0.583204
C22	C	-1.204946	0.583027	-0.857240
C23	C	-1.204970	0.582983	-0.974019
C24	C	-0.725947	0.552526	-0.552646
C25	C	-0.684668	0.613823	-0.613768
C26	C	-0.590262	0.607805	-0.607771
C27	C	-0.820362	0.558543	-0.558642
C28	C	-0.422343	0.597064	-0.597110
C29	C	-0.515010	0.603010	-0.602993
C30	C	-1.204961	0.309101	-0.583255
C31	C	-1.204993	0.192326	-0.583277
C32	C	-1.258260	1.031146	-0.519502
C33	C	-1.258314	1.140873	-0.519540
C34	C	-1.151621	1.134046	-0.646987
C35	C	-1.151573	1.024321	-0.646953
C36	C	-1.151685	0.512361	-1.025480
C37	C	-1.151704	0.512330	-1.135205
C38	C	-1.258302	0.653547	-1.141999
C39	C	-1.258278	0.653582	-1.032276
C40	C	-1.204877	0.583159	-0.310235
C41	C	-1.205014	0.582917	-0.193468
H42	H	-0.690388	0.495534	-0.495818
C43	C	-1.315996	0.730384	-0.976332
C44	C	-1.268751	0.794732	-0.910323
C45	C	-1.321886	0.865502	-0.858781
H46	H	-1.352339	0.692661	-0.935776
H47	H	-1.347736	0.772481	-1.026707
H48	H	-1.237025	0.752640	-0.859955
H49	H	-1.232410	0.832478	-0.950852
H50	H	-1.353626	0.907599	-0.909156
H51	H	-1.358226	0.827770	-0.818232
H52	H	-1.289838	0.909176	-0.813996
C53	C	-1.316284	0.730018	-1.205316
C54	C	-1.369766	0.673935	-1.271722
C55	C	-1.423200	0.744344	-1.330053
H56	H	-1.284486	0.773762	-1.246160
H57	H	-1.348064	0.772071	-1.158987
H58	H	-1.337990	0.631900	-1.318045
H59	H	-1.401583	0.630195	-1.230905
H60	H	-1.454980	0.786396	-1.283724
H61	H	-1.391395	0.788084	-1.370891
H62	H	-1.459499	0.706302	-1.375109
H63	H	-1.108313	0.454823	-1.177099
H64	H	-0.720229	0.670819	-0.670602
H65	H	-1.301774	1.188314	-0.467669
C66	C	-1.316103	0.975418	-0.450125
C67	C	-1.298020	1.001079	-0.345008
C68	C	-1.351298	0.949777	-0.281070
H69	H	-1.308484	0.901710	-0.459085
H70	H	-1.372135	0.996935	-0.469089
H71	H	-1.242002	0.979556	-0.326050
H72	H	-1.305645	1.074778	-0.336015
H73	H	-1.407330	0.971294	-0.300034
H74	H	-1.343675	0.876072	-0.290040
H75	H	-1.339042	0.967189	-0.209743
C76	C	-1.093760	1.190098	-0.716075
C77	C	-1.105206	1.298662	-0.702449
C78	C	-1.051908	1.350326	-0.766063
H79	H	-1.105869	1.172948	-0.787492
H80	H	-1.037725	1.168660	-0.697037
H81	H	-1.161229	1.320091	-0.721493
H82	H	-1.093091	1.315843	-0.631045
H83	H	-0.995873	1.328889	-0.747025
H84	H	-1.064022	1.333168	-0.837476
H85	H	-1.059662	1.423992	-0.756819
H86	H	-1.108113	0.976873	-0.698832
C87	C	-1.093711	0.435678	-0.962411
C88	C	-1.047033	0.373845	-1.030969
C89	C	-0.993606	0.303205	-0.972911
H90	H	-1.125509	0.391857	-0.921649
H91	H	-1.057321	0.473531	-0.917294
H92	H	-1.083418	0.335995	-1.076067
H93	H	-1.015217	0.417637	-1.071732
H94	H	-0.957216	0.341057	-0.927794
H95	H	-1.025411	0.259391	-0.932151
H96	H	-0.961924	0.261249	-1.019417
