data_functionalizedCrystal
_audit_creation_method	'MofGen! by Chris Wilmer'
_symmetry_space_group_name_H-M	'P1'
_symmetry_Int_Tables_number	1
_symmetry_cell_setting	triclinic
loop_
_symmetry_equiv_pos_as_xyz
  x,y,z
_cell_length_a	16.109301
_cell_length_b	10.540510
_cell_length_c	14.586319
_cell_angle_alpha	89.998684
_cell_angle_beta	89.998857
_cell_angle_gamma	83.987447
loop_
_atom_site_label
_atom_site_type_symbol
_atom_site_fract_x
_atom_site_fract_y
_atom_site_fract_z
O1	O	1.104117	0.163163	-0.076185
O2	O	1.604117	0.663163	0.423815
O3	O	0.862178	0.183467	-0.076197
O4	O	1.362178	0.683467	0.423803
O5	O	0.988680	-0.011473	-0.076190
O6	O	1.488680	0.488527	0.423810
O7	O	0.977615	0.358103	-0.076192
O8	O	1.477615	0.858103	0.423808
O9	O	0.988671	-0.011476	0.076290
O10	O	1.488671	0.488524	0.576290
O11	O	0.862169	0.183465	0.076284
O12	O	1.362169	0.683465	0.576284
O13	O	1.104108	0.163160	0.076296
O14	O	1.604108	0.663160	0.576296
Cu15	Cu	0.983138	0.173312	0.090212
Cu16	Cu	1.483138	0.673312	0.590212
Cu17	Cu	0.983148	0.173315	-0.090114
Cu18	Cu	1.483148	0.673315	0.409886
O19	O	0.977606	0.358100	0.076289
O20	O	1.477606	0.858100	0.576289
C21	C	0.831194	0.182643	0.000042
C22	C	1.331194	0.682643	0.500042
C23	C	0.738883	0.180177	0.000037
C24	C	1.238883	0.680177	0.500037
C25	C	0.430536	0.287790	0.000052
C26	C	0.930536	0.787790	0.500052
C27	C	0.517270	0.290119	0.000047
C28	C	1.017270	0.790119	0.500047
C29	C	0.535745	0.058828	0.000036
C30	C	1.035745	0.558828	0.500036
C31	C	0.449012	0.056501	0.000034
C32	C	0.949012	0.556501	0.500034
C33	C	0.396409	0.170985	0.000047
C34	C	0.896409	0.670985	0.500047
C35	C	0.569877	0.175642	0.000043
C36	C	1.069877	0.675642	0.500043
C37	C	0.663918	0.178166	0.000038
C38	C	1.163918	0.678166	0.500038
C39	C	0.302362	0.168461	0.000051
C40	C	0.802362	0.668461	0.500051
C41	C	0.987851	-0.058766	0.000048
C42	C	1.487851	0.441234	0.500048
C43	C	0.985384	-0.199681	0.000042
C44	C	1.485384	0.300319	0.500042
C45	C	1.073265	-0.418389	0.000396
C46	C	1.573265	0.081611	0.500396
C47	C	1.075896	-0.271831	0.000048
C48	C	1.575896	0.228169	0.500048
C49	C	0.939056	-0.243777	-0.087032
C50	C	1.439056	0.256223	0.412968
C51	C	0.937065	-0.390510	-0.087100
C52	C	1.437065	0.109490	0.412900
C53	C	0.935170	-0.390295	0.086299
C54	C	1.435170	0.109705	0.586299
C55	C	0.939463	-0.244015	0.087445
C56	C	1.439463	0.255985	0.587445
C57	C	1.135092	0.163984	0.000055
C58	C	1.635092	0.663984	0.500055
C59	C	1.227403	0.166450	0.000054
C60	C	1.727403	0.666450	0.500054
C61	C	0.978435	0.405393	0.000049
C62	C	1.478435	0.905393	0.500049
C63	C	0.980902	0.546308	0.000048
C64	C	1.480902	1.046308	0.500048
N65	N	0.983136	0.173309	0.217044
N66	N	1.483136	0.673309	0.717044
N67	N	0.983156	0.173308	-0.216945
N68	N	1.483156	0.673308	0.283055
C69	C	1.039170	0.087018	0.452054
C70	C	1.539170	0.587018	0.952054
C71	C	1.039173	0.087015	0.548035
C72	C	1.539173	0.587015	1.048035
C73	C	0.927116	0.259603	0.548038
C74	C	1.427116	0.759603	1.048038
C75	C	0.927110	0.259599	0.452059
C76	C	1.427110	0.759599	0.952059
C77	C	0.983142	0.173308	0.404069
C78	C	1.483142	0.673308	0.904069
C79	C	0.983150	0.173309	0.596030
C80	C	1.483150	0.673309	1.096030
C81	C	0.983152	0.173306	0.700097
C82	C	1.483152	0.673306	1.200097
C83	C	0.983139	0.173309	0.299995
C84	C	1.483139	0.673309	0.799995
H85	H	0.545051	0.385232	0.000050
H86	H	1.045051	0.885232	0.500050
H87	H	1.084794	0.016753	0.412983
H88	H	1.584794	0.516753	0.912983
H89	H	0.387708	0.381010	0.000062
H90	H	0.887708	0.881010	0.500062
H91	H	0.578584	-0.034380	0.000027
H92	H	1.078584	0.465620	0.500027
H93	H	0.421227	-0.038621	0.000027
H94	H	0.921227	0.461379	0.500027
C95	C	1.124250	-0.233637	0.083331
C96	C	1.624250	0.266363	0.583331
C97	C	1.151355	-0.342615	0.134419
C98	C	1.651355	0.157385	0.634419
C99	C	1.195896	-0.307487	0.211153
C100	C	1.695896	0.192513	0.711153
H101	H	1.089149	-0.176386	0.120243
H102	H	1.589149	0.323614	0.620243
H103	H	1.171192	-0.193150	0.063811
H104	H	1.671192	0.306850	0.563811
H105	H	1.104420	-0.383082	0.153940
H106	H	1.604420	0.116918	0.653940
H107	H	1.186467	-0.399878	0.097534
H108	H	1.686467	0.100122	0.597534
H109	H	1.242838	-0.267000	0.191633
H110	H	1.742838	0.233000	0.691633
H111	H	1.160790	-0.250235	0.248057
H112	H	1.660790	0.249765	0.748057
H113	H	1.214299	-0.381423	0.245821
H114	H	1.714299	0.118577	0.745821
H115	H	1.108524	-0.460848	0.062842
H116	H	1.608524	0.039152	0.562842
H117	H	1.108327	-0.462393	-0.061693
H118	H	1.608327	0.037607	0.438307
H119	H	1.084795	0.016748	0.587101
H120	H	1.584795	0.516748	1.087101
H121	H	0.881497	0.329861	0.587121
H122	H	1.381497	0.829861	1.087121
C123	C	0.850148	-0.179552	-0.091322
C124	C	1.350148	0.320448	0.408678
C125	C	0.794234	-0.272676	-0.090100
C126	C	1.294234	0.227324	0.409900
C127	C	0.712327	-0.213555	-0.094040
C128	C	1.212327	0.286445	0.405960
H129	H	0.842712	-0.131124	-0.146177
H130	H	1.342712	0.368876	0.353823
H131	H	0.839946	-0.124717	-0.039954
H132	H	1.339946	0.375283	0.460046
H133	H	0.804432	-0.327489	-0.141464
H134	H	1.304432	0.172511	0.358536
H135	H	0.801643	-0.321110	-0.035250
H136	H	1.301643	0.178890	0.464750
H137	H	0.702125	-0.158720	-0.042672
H138	H	1.202125	0.341280	0.457328
H139	H	0.704900	-0.165128	-0.148895
H140	H	1.204900	0.334872	0.351105
H141	H	0.674379	-0.276729	-0.093203
H142	H	1.174379	0.223271	0.406797
C143	C	0.866411	0.353359	0.399838
C144	C	1.366411	0.853359	0.899838
C145	C	0.911151	0.431056	0.344711
C146	C	1.411151	0.931056	0.844711
C147	C	0.855264	0.517425	0.296584
C148	C	1.355264	1.017425	0.796584
H149	H	0.833023	0.404881	0.442060
H150	H	1.333023	0.904881	0.942060
H151	H	0.831546	0.307713	0.362349
H152	H	1.331546	0.807713	0.862349
H153	H	0.946001	0.476699	0.382197
H154	H	1.446001	0.976699	0.882197
H155	H	0.944536	0.379571	0.302472
H156	H	1.444536	0.879571	0.802472
H157	H	0.820399	0.471779	0.259094
H158	H	1.320399	0.971779	0.759094
H159	H	0.821880	0.568937	0.338812
H160	H	1.321880	1.068937	0.838812
H161	H	0.885612	0.570145	0.259168
H162	H	1.385612	1.070145	0.759168
H163	H	0.971236	-0.213378	-0.151829
H164	H	1.471236	0.286622	0.348171
C165	C	0.973313	-0.447175	0.174378
C166	C	1.473313	0.052825	0.674378
C167	C	1.003976	-0.350845	0.226602
C168	C	1.503976	0.149155	0.726602
C169	C	1.039118	-0.403196	0.307744
C170	C	1.539118	0.096804	0.807744
H171	H	1.017739	-0.510533	0.159959
H172	H	1.517739	-0.010533	0.659959
H173	H	0.931916	-0.484657	0.208425
H174	H	1.431916	0.015343	0.708425
H175	H	1.045369	-0.313384	0.192562
H176	H	1.545369	0.186616	0.692562
H177	H	0.959566	-0.287480	0.241045
H178	H	1.459566	0.212520	0.741045
H179	H	0.997721	-0.440678	0.341791
H180	H	1.497721	0.059322	0.841791
H181	H	1.083541	-0.466554	0.293317
H182	H	1.583541	0.033446	0.793317
H183	H	1.059921	-0.337844	0.343192
H184	H	1.559921	0.162156	0.843192
C185	C	1.124513	-0.234381	-0.083251
C186	C	1.624513	0.265619	0.416749
C187	C	1.127028	-0.102008	-0.083770
C188	C	1.627028	0.397992	0.416230
C189	C	1.171811	-0.067466	-0.160492
C190	C	1.671811	0.432534	0.339508
H191	H	1.097926	-0.259411	-0.137474
H192	H	1.597926	0.240589	0.362526
H193	H	1.179785	-0.275702	-0.080711
H194	H	1.679785	0.224298	0.419289
H195	H	1.071767	-0.060702	-0.086318
H196	H	1.571767	0.439298	0.413682
H197	H	1.153622	-0.076946	-0.029565
H198	H	1.653622	0.423054	0.470435
H199	H	1.227083	-0.108786	-0.157952
H200	H	1.727083	0.391214	0.342048
H201	H	1.145219	-0.092503	-0.214709
H202	H	1.645219	0.407497	0.285291
H203	H	1.173530	0.022350	-0.160850
H204	H	1.673530	0.522350	0.339150
C205	C	0.979363	-0.444507	-0.173912
C206	C	1.479363	0.055493	0.326088
C207	C	1.006460	-0.344966	-0.225809
C208	C	1.506460	0.155034	0.274191
C209	C	1.045440	-0.394654	-0.305780
C210	C	1.545440	0.105346	0.194220
H211	H	0.940873	-0.486963	-0.208831
H212	H	1.440873	0.013037	0.291169
H213	H	1.025926	-0.503268	-0.158032
H214	H	1.525926	-0.003268	0.341968
H215	H	0.959903	-0.286227	-0.241690
H216	H	1.459903	0.213773	0.258310
H217	H	1.044959	-0.302500	-0.190918
H218	H	1.544959	0.197500	0.309082
H219	H	1.092004	-0.453415	-0.289901
H220	H	1.592004	0.046585	0.210099
H221	H	1.006946	-0.437110	-0.340691
H222	H	1.506946	0.062890	0.159309
H223	H	1.063837	-0.327125	-0.340999
H224	H	1.563837	0.172875	0.159001
H225	H	0.869368	-0.412540	-0.091049
H226	H	1.369368	0.087460	0.408951
C227	C	0.851286	-0.177581	0.094489
C228	C	1.351286	0.322419	0.594489
C229	C	0.794136	-0.268917	0.093412
C230	C	1.294136	0.231083	0.593412
C231	C	0.712898	-0.207766	0.099901
C232	C	1.212898	0.292234	0.599901
H233	H	0.840687	-0.121218	0.044043
H234	H	1.340687	0.378782	0.544043
H235	H	0.845541	-0.130521	0.150084
H236	H	1.345541	0.369479	0.650084
H237	H	0.799878	-0.315955	0.037823
H238	H	1.299878	0.184045	0.537823
H239	H	0.804708	-0.325285	0.143855
H240	H	1.304708	0.174715	0.643855
H241	H	0.707153	-0.160706	0.155496
H242	H	1.207153	0.339294	0.655496
H243	H	0.702307	-0.151404	0.049453
H244	H	1.202307	0.348596	0.549453
H245	H	0.674112	-0.269728	0.099179
H246	H	1.174112	0.230272	0.599179
H247	H	0.973173	-0.215885	0.151862
H248	H	1.473173	0.284115	0.651862
H249	H	0.867213	-0.411476	0.086882
H250	H	1.367213	0.088524	0.586882
