data_functionalizedCrystal
_audit_creation_method	'MofGen! by Chris Wilmer'
_symmetry_space_group_name_H-M	'P1'
_symmetry_Int_Tables_number	1
_symmetry_cell_setting	triclinic
loop_
_symmetry_equiv_pos_as_xyz
  x,y,z
_cell_length_a	17.077404
_cell_length_b	12.827892
_cell_length_c	17.077396
_cell_angle_alpha	89.975123
_cell_angle_beta	89.980499
_cell_angle_gamma	90.015617
loop_
_atom_site_label
_atom_site_type_symbol
_atom_site_fract_x
_atom_site_fract_y
_atom_site_fract_z
Zn1	Zn	1.200096	-0.416027	-0.443862
Zn2	Zn	1.700096	0.083973	0.056138
Zn3	Zn	1.200020	-0.590789	-0.312605
Zn4	Zn	1.700020	-0.090789	0.187395
Zn5	Zn	1.068827	-0.416063	-0.312610
Zn6	Zn	1.568827	0.083937	0.187390
Zn7	Zn	1.068812	-0.590727	-0.443828
Zn8	Zn	1.568812	-0.090727	0.056172
O9	O	1.134439	-0.503402	-0.378226
O10	O	1.634439	-0.003402	0.121774
O11	O	1.309932	-0.439220	-0.426463
O12	O	1.809932	0.060780	0.073537
O13	O	1.182591	-0.567653	-0.202758
O14	O	1.682591	-0.067653	0.297242
O15	O	1.086278	-0.269823	-0.330038
O16	O	1.586278	0.230177	0.169962
O17	O	1.309877	-0.567617	-0.330028
O18	O	1.809877	-0.067617	0.169972
O19	O	1.182720	-0.269796	-0.426468
O20	O	1.682720	0.230204	0.073532
O21	O	1.086205	-0.439282	-0.202763
O22	O	1.586205	0.060718	0.297237
O23	O	0.958978	-0.439222	-0.330005
O24	O	1.458978	0.060778	0.169995
O25	O	1.086253	-0.567511	-0.553680
O26	O	1.586253	-0.067511	-0.053680
O27	O	0.958968	-0.567547	-0.426410
O28	O	1.458968	-0.067547	0.073590
O29	O	1.182706	-0.439160	-0.553705
O30	O	1.682706	0.060840	-0.053705
O31	O	1.182577	-0.737017	-0.329995
O32	O	1.682577	-0.237017	0.170005
O33	O	1.086179	-0.736971	-0.426404
O34	O	1.586179	-0.236971	0.073596
C35	C	0.930491	-0.503383	-0.378205
C36	C	1.430491	-0.003383	0.121795
C37	C	0.843241	-0.503400	-0.378214
C38	C	1.343241	-0.003400	0.121786
C39	C	1.134390	-0.774912	-0.378213
C40	C	1.634390	-0.274912	0.121787
C41	C	1.134440	-0.891065	-0.378233
C42	C	1.634440	-0.391065	0.121767
C43	C	0.802266	-0.570319	-0.428332
C44	C	1.302266	-0.070319	0.071668
C45	C	0.720285	-0.570321	-0.428344
C46	C	1.220285	-0.070321	0.071656
C47	C	0.679282	-0.503409	-0.378235
C48	C	1.179282	-0.003409	0.121765
C49	C	0.720263	-0.436482	-0.328115
C50	C	1.220263	0.063518	0.171885
C51	C	0.802242	-0.436475	-0.328107
C52	C	1.302242	0.063525	0.171893
C53	C	0.549393	-0.436502	-0.328134
C54	C	1.049393	0.063498	0.171866
C55	C	0.467408	-0.436510	-0.328140
C56	C	0.967408	0.063490	0.171860
C57	C	0.467436	-0.570349	-0.428371
C58	C	0.967436	-0.070349	0.071629
C59	C	0.549415	-0.570342	-0.428363
C60	C	1.049415	-0.070342	0.071637
C61	C	0.590391	-0.503416	-0.378242
C62	C	1.090391	-0.003416	0.121758
C63	C	1.182198	-0.942837	-0.330579
C64	C	1.682198	-0.442837	0.169421
C65	C	1.182251	-1.062888	-0.330599
C66	C	1.682251	-0.562888	0.169401
C67	C	1.339183	-0.503421	-0.378249
C68	C	1.839183	-0.003421	0.121751
C69	C	1.426433	-0.503430	-0.378258
C70	C	1.926433	-0.003430	0.121742
C71	C	1.134486	-0.503325	-0.582971
C72	C	1.634486	-0.003325	-0.082971
C73	C	1.134506	-0.503292	-0.670221
C74	C	1.634506	-0.003292	-0.170221
C75	C	1.134509	-0.230831	-0.378257
C76	C	1.634509	0.269169	0.121743
C77	C	1.134540	-0.114678	-0.378271
C78	C	1.634540	0.385322	0.121729
C79	C	1.184731	-0.436454	-0.711225
C80	C	1.684731	0.063546	-0.211225
C81	C	1.184741	-0.436419	-0.793206
C82	C	1.684741	0.063581	-0.293206
C83	C	1.134529	-0.503228	-0.834180
C84	C	1.634529	-0.003228	-0.334180
C85	C	1.084298	-0.570069	-0.793170
C86	C	1.584298	-0.070069	-0.293170
C87	C	1.084285	-0.570098	-0.711191
C88	C	1.584285	-0.070098	-0.211191
C89	C	1.084330	-0.570007	-0.964040
C90	C	1.584330	-0.070007	-0.464040
C91	C	1.084344	-0.569980	-1.046025
C92	C	1.584344	-0.069980	-0.546025
C93	C	1.184785	-0.436327	-1.046055
C94	C	1.684785	0.063673	-0.546055
C95	C	1.184772	-0.436356	-0.964076
C96	C	1.684772	0.063644	-0.464076
C97	C	1.134543	-0.503199	-0.923071
C98	C	1.634543	-0.003199	-0.423071
C99	C	1.134437	-0.503403	-0.174279
C100	C	1.634437	-0.003403	0.325721
C101	C	1.134568	-0.503141	-0.087029
C102	C	1.634568	-0.003141	0.412971
H103	H	0.835645	-0.624811	-0.469134
H104	H	1.335645	-0.124811	0.030866
N105	N	0.676090	-0.642513	-0.482388
N106	N	1.176090	-0.142513	0.017612
H107	H	0.714505	-0.684911	-0.514123
H108	H	1.214505	-0.184911	-0.014123
H109	H	0.642059	-0.690813	-0.450363
H110	H	1.142059	-0.190813	0.049637
N111	N	1.080379	-1.055717	-0.432320
N112	N	1.580379	-0.555717	0.067680
H113	H	1.048547	-1.106779	-0.464136
H114	H	1.548547	-0.606779	0.035864
H115	H	1.044081	-1.010501	-0.400296
H116	H	1.544081	-0.510501	0.099704
H117	H	1.223136	-1.107411	-0.289799
H118	H	1.723136	-0.607411	0.210201
N119	N	0.593583	-0.364319	-0.274070
N120	N	1.093583	0.135681	0.225930
H121	H	0.627573	-0.406725	-0.237637
H122	H	1.127573	0.093275	0.262363
H123	H	0.627573	-0.315953	-0.306082
H124	H	1.127573	0.184047	0.193918
H125	H	0.434070	-0.624839	-0.469184
H126	H	0.934070	-0.124839	0.030816
H127	H	0.582798	-0.624834	-0.469163
H128	H	1.082798	-0.124834	0.030837
H129	H	1.043415	-0.624421	-0.930657
H130	H	1.543415	-0.124421	-0.430657
N131	N	1.236303	-0.883826	-0.276517
N132	N	1.736303	-0.383826	0.223483
H133	H	1.224166	-0.902827	-0.220409
H134	H	1.724166	-0.402827	0.279591
H135	H	1.292383	-0.902711	-0.288815
H136	H	1.792383	-0.402711	0.211185
N137	N	0.423180	-0.364342	-0.274096
N138	N	0.923180	0.135658	0.225904
H139	H	0.461575	-0.321938	-0.242347
H140	H	0.961575	0.178062	0.257653
H141	H	0.389186	-0.316047	-0.306119
H142	H	0.889186	0.183953	0.193881
H143	H	0.686871	-0.381996	-0.287318
H144	H	1.186871	0.118004	0.212682
N145	N	0.846441	-0.364291	-0.274057
N146	N	1.346441	0.135709	0.225943
H147	H	0.808027	-0.321902	-0.242314
H148	H	1.308027	0.178098	0.257686
H149	H	0.880435	-0.406758	-0.237671
H150	H	1.380435	0.093242	0.262329
N151	N	1.030107	-0.642178	-0.666960
N152	N	1.530107	-0.142178	-0.166960
H153	H	0.998299	-0.684497	-0.705356
H154	H	1.498299	-0.184497	-0.205356
H155	H	1.062035	-0.690556	-0.632942
H156	H	1.562035	-0.190556	-0.132942
H157	H	1.093597	-0.935617	-0.419049
H158	H	1.593597	-0.435617	0.080951
N159	N	1.238894	-0.364401	-0.667034
N160	N	1.738894	0.135599	-0.167034
H161	H	1.270712	-0.322053	-0.705453
H162	H	1.770712	0.177947	-0.205453
H163	H	1.206950	-0.316048	-0.633020
H164	H	1.706950	0.183952	-0.133020
N165	N	1.238896	-0.364309	-0.837433
N166	N	1.738896	0.135691	-0.337433
H167	H	1.270702	-0.321988	-0.799036
H168	H	1.770702	0.178012	-0.299036
H169	H	1.275220	-0.406820	-0.871458
H170	H	1.775220	0.093180	-0.371458
H171	H	1.225664	-0.381960	-0.930716
H172	H	1.725664	0.118040	-0.430716
H173	H	1.225683	-0.381900	-1.079445
H174	H	1.725683	0.118100	-0.579445
H175	H	1.043455	-0.624379	-1.079384
H176	H	1.543455	-0.124379	-0.579384
N177	N	1.030132	-0.642106	-0.837372
N178	N	1.530132	-0.142106	-0.337372
H179	H	1.062019	-0.690526	-0.871389
H180	H	1.562019	-0.190526	-0.371389
H181	H	0.998313	-0.684382	-0.798913
H182	H	1.498313	-0.184382	-0.298913
