data_functionalizedCrystal
_audit_creation_method	'MofGen! by Chris Wilmer'
_symmetry_space_group_name_H-M	'P1'
_symmetry_Int_Tables_number	1
_symmetry_cell_setting	triclinic
loop_
_symmetry_equiv_pos_as_xyz
  x,y,z
_cell_length_a	19.121102
_cell_length_b	18.215405
_cell_length_c	18.215399
_cell_angle_alpha	90.030551
_cell_angle_beta	92.458396
_cell_angle_gamma	87.579072
loop_
_atom_site_label
_atom_site_type_symbol
_atom_site_fract_x
_atom_site_fract_y
_atom_site_fract_z
Zn1	Zn	1.073728	-0.341065	0.464034
Zn2	Zn	1.323728	-0.091065	0.714034
Zn3	Zn	1.573728	0.158935	0.964034
Zn4	Zn	1.823728	0.408935	1.214034
Zn5	Zn	1.073640	-0.464132	0.340958
Zn6	Zn	1.323640	-0.214132	0.590958
Zn7	Zn	1.573640	0.035868	0.840958
Zn8	Zn	1.823640	0.285868	1.090958
Zn9	Zn	0.956277	-0.335830	0.335738
Zn10	Zn	1.206277	-0.085830	0.585738
Zn11	Zn	1.456277	0.164170	0.835738
Zn12	Zn	1.706277	0.414170	1.085738
Zn13	Zn	0.956244	-0.458834	0.458742
Zn14	Zn	1.206244	-0.208834	0.708742
Zn15	Zn	1.456244	0.041166	0.958742
Zn16	Zn	1.706244	0.291166	1.208742
O17	O	1.014972	-0.399965	0.399868
O18	O	1.264972	-0.149965	0.649868
O19	O	1.514972	0.100035	0.899868
O20	O	1.764972	0.350035	1.149868
O21	O	1.172001	-0.361798	0.452107
O22	O	1.422001	-0.111798	0.702107
O23	O	1.672001	0.138202	0.952107
O24	O	1.922001	0.388202	1.202107
O25	O	1.058049	-0.447139	0.237280
O26	O	1.308049	-0.197139	0.487280
O27	O	1.558049	0.052861	0.737280
O28	O	1.808049	0.302861	0.987280
O29	O	0.971907	-0.233542	0.352787
O30	O	1.221907	0.016458	0.602787
O31	O	1.471907	0.266458	0.852787
O32	O	1.721907	0.516458	1.102787
O33	O	1.171936	-0.452215	0.361683
O34	O	1.421936	-0.202215	0.611683
O35	O	1.671936	0.047785	0.861683
O36	O	1.921936	0.297785	1.111683
O37	O	1.058198	-0.237388	0.447045
O38	O	1.308198	0.012612	0.697045
O39	O	1.558198	0.262612	0.947045
O40	O	1.808198	0.512612	1.197045
O41	O	0.971822	-0.352875	0.233445
O42	O	1.221822	-0.102875	0.483445
O43	O	1.471822	0.147125	0.733445
O44	O	1.721822	0.397125	0.983445
O45	O	0.857988	-0.347738	0.347656
O46	O	1.107988	-0.097738	0.597656
O47	O	1.357988	0.152262	0.847656
O48	O	1.607988	0.402262	1.097656
O49	O	0.971852	-0.443186	0.562430
O50	O	1.221852	-0.193186	0.812430
O51	O	1.471852	0.056814	1.062430
O52	O	1.721852	0.306814	1.312430
O53	O	0.857964	-0.438109	0.438027
O54	O	1.107964	-0.188109	0.688027
O55	O	1.357964	0.061891	0.938027
O56	O	1.607964	0.311891	1.188027
O57	O	1.058166	-0.356661	0.566317
O58	O	1.308166	-0.106661	0.816317
O59	O	1.558166	0.143339	1.066317
O60	O	1.808166	0.393339	1.316317
O61	O	1.058017	-0.566412	0.356553
O62	O	1.308017	-0.316412	0.606553
O63	O	1.558017	-0.066412	0.856553
O64	O	1.808017	0.183588	1.106553
O65	O	0.971767	-0.562519	0.443088
O66	O	1.221767	-0.312519	0.693088
O67	O	1.471767	-0.062519	0.943088
O68	O	1.721767	0.187481	1.193088
C69	C	1.014898	-0.591168	0.399829
C70	C	1.264898	-0.341168	0.649829
C71	C	1.514898	-0.091168	0.899829
C72	C	1.764898	0.158832	1.149829
C73	C	1.014931	-0.672969	0.399840
C74	C	1.264931	-0.422969	0.649840
C75	C	1.514931	-0.172969	0.899840
C76	C	1.764931	0.077031	1.149840
C77	C	0.832492	-0.391781	0.391701
C78	C	1.082492	-0.141781	0.641701
C79	C	1.332492	0.108219	0.891701
C80	C	1.582492	0.358219	1.141701
C81	C	0.754426	-0.388298	0.388225
C82	C	1.004426	-0.138298	0.638225
C83	C	1.254426	0.111702	0.888225
C84	C	1.504426	0.361702	1.138225
C85	C	1.059947	-0.863170	0.354873
C86	C	1.309947	-0.613170	0.604873
C87	C	1.559947	-0.363170	0.854873
C88	C	1.809947	-0.113170	1.104873
C89	C	1.059978	-0.940030	0.354892
C90	C	1.309978	-0.690030	0.604892
C91	C	1.559978	-0.440030	0.854892
C92	C	1.809978	-0.190030	1.104892
C93	C	0.970088	-0.936013	0.444921
C94	C	1.220088	-0.686013	0.694921
C95	C	1.470088	-0.436013	0.944921
C96	C	1.720088	-0.186013	1.194921
C97	C	0.970060	-0.859154	0.444905
C98	C	1.220060	-0.609154	0.694905
C99	C	1.470060	-0.359154	0.944905
C100	C	1.720060	-0.109154	1.194905
C101	C	1.014989	-0.822735	0.399877
C102	C	1.264989	-0.572735	0.649877
C103	C	1.514989	-0.322735	0.899877
C104	C	1.764989	-0.072735	1.149877
C105	C	1.015048	-0.976453	0.399912
C106	C	1.265048	-0.726453	0.649912
C107	C	1.515048	-0.476453	0.899912
C108	C	1.765048	-0.226453	1.149912
C109	C	1.015081	-1.059788	0.399933
C110	C	1.265081	-0.809788	0.649933
C111	C	1.515081	-0.559788	0.899933
C112	C	1.765081	-0.309788	1.149933
C113	C	1.014956	-0.739394	0.399856
C114	C	1.264956	-0.489394	0.649856
C115	C	1.514956	-0.239394	0.899856
C116	C	1.764956	0.010606	1.149856
C117	C	0.717756	-0.433783	0.433569
C118	C	0.967756	-0.183783	0.683569
C119	C	1.217756	0.066217	0.933569
C120	C	1.467756	0.316217	1.183569
C121	C	0.644405	-0.430501	0.430306
C122	C	0.894405	-0.180501	0.680306
C123	C	1.144405	0.069499	0.930306
C124	C	1.394405	0.319499	1.180306
C125	C	0.607725	-0.381735	0.381695
C126	C	0.857725	-0.131735	0.631695
C127	C	1.107725	0.118265	0.881695
C128	C	1.357725	0.368265	1.131695
C129	C	0.644400	-0.336244	0.336349
C130	C	0.894400	-0.086244	0.586349
C131	C	1.144400	0.163756	0.836349
C132	C	1.394400	0.413756	1.086349
C133	C	0.717750	-0.339524	0.339616
C134	C	0.967750	-0.089524	0.589616
C135	C	1.217750	0.160476	0.839616
C136	C	1.467750	0.410476	1.089616
C137	C	0.386256	-0.369472	0.369483
C138	C	0.636256	-0.119472	0.619483
C139	C	0.886256	0.130528	0.869483
C140	C	1.136256	0.380528	1.119483
C141	C	0.312901	-0.366197	0.366218
C142	C	0.562901	-0.116197	0.616218
C143	C	0.812901	0.133803	0.866218
C144	C	1.062901	0.383803	1.116218
C145	C	0.312911	-0.460453	0.460176
C146	C	0.562911	-0.210453	0.710176
C147	C	0.812911	0.039547	0.960176
C148	C	1.062911	0.289547	1.210176
C149	C	0.386262	-0.463731	0.463436
C150	C	0.636262	-0.213731	0.713436
C151	C	0.886262	0.036269	0.963436
C152	C	1.136262	0.286269	1.213436
C153	C	0.422931	-0.418238	0.418093
C154	C	0.672931	-0.168238	0.668093
C155	C	0.922931	0.081762	0.918093
C156	C	1.172931	0.331762	1.168093
C157	C	0.532748	-0.378380	0.378356
C158	C	0.782748	-0.128380	0.628356
C159	C	1.032748	0.121620	0.878356
C160	C	1.282748	0.371620	1.128356
C161	C	0.497906	-0.421590	0.421435
C162	C	0.747906	-0.171590	0.671435
C163	C	0.997906	0.078410	0.921435
C164	C	1.247906	0.328410	1.171435
C165	C	1.198165	-0.408182	0.408068
C166	C	1.448165	-0.158182	0.658068
C167	C	1.698165	0.091818	0.908068
C168	C	1.948165	0.341818	1.158068
C169	C	1.276231	-0.411683	0.411562
C170	C	1.526231	-0.161683	0.661562
C171	C	1.776231	0.088317	0.911562
C172	C	2.026231	0.338317	1.161562
C173	C	1.015015	-0.399916	0.591823
C174	C	1.265015	-0.149916	0.841823
C175	C	1.515015	0.100084	1.091823
C176	C	1.765015	0.350084	1.341823
C177	C	1.015033	-0.399896	0.673623
C178	C	1.265033	-0.149896	0.923623
C179	C	1.515033	0.100104	1.173623
C180	C	1.765033	0.350104	1.423623
C181	C	1.015066	-0.208016	0.399924
C182	C	1.265066	0.041984	0.649924
C183	C	1.515066	0.291984	0.899924
C184	C	1.765066	0.541984	1.149924
C185	C	1.015106	-0.126219	0.399948
C186	C	1.265106	0.123781	0.649948
C187	C	1.515106	0.373781	0.899948
C188	C	1.765106	0.623781	1.149948
C189	C	1.014970	-0.399963	0.208662
C190	C	1.264970	-0.149963	0.458662
C191	C	1.514970	0.100037	0.708662
C192	C	1.764970	0.350037	0.958662
C193	C	1.015088	-0.399782	0.126869
C194	C	1.265088	-0.149782	0.376869
C195	C	1.515088	0.100218	0.626869
C196	C	1.765088	0.350218	0.876869
C197	C	1.059993	-0.354799	0.863843
C198	C	1.309993	-0.104799	1.113843
C199	C	1.559993	0.145201	1.363843
C200	C	1.809993	0.395201	1.613843
C201	C	1.060002	-0.354778	0.940702
C202	C	1.310002	-0.104778	1.190702
C203	C	1.560002	0.145222	1.440702
C204	C	1.810002	0.395222	1.690702
C205	C	0.970123	-0.444881	0.936643
C206	C	1.220123	-0.194881	1.186643
C207	C	1.470123	0.055119	1.436643
C208	C	1.720123	0.305119	1.686643
C209	C	0.970111	-0.444897	0.859785
C210	C	1.220111	-0.194897	1.109785
C211	C	1.470111	0.055103	1.359785
C212	C	1.720111	0.305103	1.609785
C213	C	1.015051	-0.399858	0.823387
C214	C	1.265051	-0.149858	1.073387
C215	C	1.515051	0.100142	1.323387
C216	C	1.765051	0.350142	1.573387
C217	C	1.015070	-0.399820	0.977104
C218	C	1.265070	-0.149820	1.227104
C219	C	1.515070	0.100180	1.477104
C220	C	1.765070	0.350180	1.727104
C221	C	1.015079	-0.399798	1.060438
C222	C	1.265079	-0.149798	1.310438
C223	C	1.515079	0.100202	1.560438
C224	C	1.765079	0.350202	1.810438
C225	C	1.015041	-0.399879	0.740048
C226	C	1.265041	-0.149879	0.990048
C227	C	1.515041	0.100121	1.240048
C228	C	1.765041	0.350121	1.490048
H229	H	1.096531	-0.833519	0.318209
H230	H	1.346531	-0.583519	0.568209
H231	H	1.596531	-0.333519	0.818209
H232	H	1.846531	-0.083519	1.068209
Cl233	Cl	0.913634	-0.501503	0.982405
Cl234	Cl	1.163634	-0.251503	1.232405
Cl235	Cl	1.413634	-0.001503	1.482405
Cl236	Cl	1.663634	0.248497	1.732405
H237	H	0.933507	-0.965675	0.481580
H238	H	1.183507	-0.715675	0.731580
H239	H	1.433507	-0.465675	0.981580
H240	H	1.683507	-0.215675	1.231580
H241	H	1.096598	-0.318085	0.973638
H242	H	1.346598	-0.068085	1.223638
H243	H	1.596598	0.181915	1.473638
H244	H	1.846598	0.431915	1.723638
Cl245	Cl	0.544019	-0.482893	0.482544
Cl246	Cl	0.794019	-0.232893	0.732544
Cl247	Cl	1.044019	0.017107	0.982544
Cl248	Cl	1.294019	0.267107	1.232544
H249	H	0.933508	-0.481589	0.826844
H250	H	1.183508	-0.231589	1.076844
H251	H	1.433508	0.018411	1.326844
H252	H	1.683508	0.268411	1.576844
Cl253	Cl	0.913541	-0.808318	0.501490
Cl254	Cl	1.163541	-0.558318	0.751490
Cl255	Cl	1.413541	-0.308318	1.001490
Cl256	Cl	1.663541	-0.058318	1.251490
Cl257	Cl	1.116501	-0.990859	0.298315
Cl258	Cl	1.366501	-0.740859	0.548315
Cl259	Cl	1.616501	-0.490859	0.798315
Cl260	Cl	1.866501	-0.240859	1.048315
Cl261	Cl	0.266789	-0.304893	0.305096
Cl262	Cl	0.516789	-0.054893	0.555096
Cl263	Cl	0.766789	0.195107	0.805096
Cl264	Cl	1.016789	0.445107	1.055096
H265	H	1.096584	-0.318123	0.834210
H266	H	1.346584	-0.068123	1.084210
H267	H	1.596584	0.181877	1.334210
H268	H	1.846584	0.431877	1.584210
Cl269	Cl	0.763861	-0.495095	0.494680
Cl270	Cl	1.013861	-0.245095	0.744680
Cl271	Cl	1.263861	0.004905	0.994680
Cl272	Cl	1.513861	0.254905	1.244680
H273	H	0.614552	-0.467541	0.467229
H274	H	0.864552	-0.217541	0.717229
H275	H	1.114552	0.032459	0.967229
H276	H	1.364552	0.282459	1.217229
H277	H	0.283048	-0.497490	0.497093
H278	H	0.533048	-0.247490	0.747093
H279	H	0.783048	0.002510	0.997093
H280	H	1.033048	0.252510	1.247093
Cl281	Cl	0.432369	-0.525041	0.524548
Cl282	Cl	0.682369	-0.275041	0.774548
Cl283	Cl	0.932369	-0.025041	1.024548
Cl284	Cl	1.182369	0.224959	1.274548
Cl285	Cl	0.486630	-0.317077	0.317247
Cl286	Cl	0.736630	-0.067077	0.567247
Cl287	Cl	0.986630	0.182923	0.817247
Cl288	Cl	1.236630	0.432923	1.067247
Cl289	Cl	0.432343	-0.312278	0.312482
Cl290	Cl	0.682343	-0.062278	0.562482
Cl291	Cl	0.932343	0.187722	0.812482
Cl292	Cl	1.182343	0.437722	1.062482
H293	H	0.747605	-0.302481	0.302696
H294	H	0.997605	-0.052481	0.552696
H295	H	1.247605	0.197519	0.802696
H296	H	1.497605	0.447519	1.052696
Cl297	Cl	0.598287	-0.274934	0.275242
Cl298	Cl	0.848287	-0.024934	0.525242
Cl299	Cl	1.098287	0.225066	0.775242
Cl300	Cl	1.348287	0.475066	1.025242
