data_functionalizedCrystal
_audit_creation_method	'MofGen! by Chris Wilmer'
_symmetry_space_group_name_H-M	'P1'
_symmetry_Int_Tables_number	1
_symmetry_cell_setting	triclinic
loop_
_symmetry_equiv_pos_as_xyz
  x,y,z
_cell_length_a	16.120530
_cell_length_b	12.645330
_cell_length_c	16.120256
_cell_angle_alpha	92.876632
_cell_angle_beta	90.128265
_cell_angle_gamma	87.108294
loop_
_atom_site_label
_atom_site_type_symbol
_atom_site_fract_x
_atom_site_fract_y
_atom_site_fract_z
Zn1	Zn	1.247519	-0.537103	-0.534584
Zn2	Zn	1.254495	-0.705860	-0.395531
Zn3	Zn	1.115507	-0.519184	-0.388501
Zn4	Zn	1.108451	-0.704889	-0.527501
O5	O	1.181493	-0.616759	-0.461529
O6	O	1.364812	-0.567395	-0.522044
O7	O	1.241930	-0.674004	-0.278232
O8	O	1.133052	-0.373217	-0.407901
O9	O	1.369937	-0.691380	-0.419883
O10	O	1.230041	-0.386383	-0.515228
O11	O	1.139816	-0.536854	-0.273067
O12	O	0.998204	-0.535912	-0.401033
O13	O	1.121026	-0.689725	-0.644806
O14	O	0.993020	-0.672349	-0.503155
O15	O	1.223199	-0.566453	-0.650010
O16	O	1.235088	-0.854075	-0.413015
O17	O	1.127790	-0.853361	-0.509972
C18	C	0.965439	-0.602081	-0.450563
C19	C	0.873009	-0.595829	-0.445892
C20	C	0.703778	-0.584389	-0.437370
C21	C	0.660046	-0.649211	-0.485749
C22	C	0.565880	-0.642845	-0.481007
C23	C	0.797952	-0.590753	-0.442110
C24	C	1.181452	-0.892185	-0.461507
C25	C	1.181510	-1.010020	-0.461529
C26	C	1.248914	-1.177974	-0.400398
C27	C	1.249115	-1.055437	-0.400566
C28	C	1.200830	-1.061389	-0.550386
C29	C	1.201356	-1.184000	-0.550071
C30	C	1.094716	-1.170009	-0.434667
C31	C	1.095237	-1.047312	-0.432722
C32	C	1.398391	-0.631495	-0.472538
C33	C	1.490820	-0.637774	-0.477229
C34	C	1.170548	-0.629980	-0.678424
C35	C	1.165883	-0.635614	-0.770852
C36	C	1.181556	-0.340260	-0.461570
C37	C	1.181582	-0.222433	-0.461588
C38	C	1.205815	-0.587352	-0.983835
C39	C	1.157340	-0.645854	-0.940073
C40	C	1.162095	-0.640154	-0.845910
C41	C	1.201061	-0.593050	-1.078006
C42	C	1.192444	-0.603517	-0.245480
C43	C	1.197269	-0.597595	-0.153060
H44	H	0.670498	-0.524119	-0.392393
N45	N	0.704131	-0.729061	-0.545320
H46	H	0.689709	-0.802983	-0.531550
H47	H	0.686076	-0.715260	-0.603994
N48	N	1.233796	-1.009070	-0.313479
H49	H	1.226851	-1.068230	-0.274634
H50	H	1.282589	-0.966745	-0.294916
N51	N	1.233844	-1.210487	-0.313063
H52	H	1.183229	-1.254359	-0.312312
H53	H	1.283816	-1.253734	-0.293424
N54	N	1.333809	-1.225695	-0.424198
H55	H	1.328842	-1.275987	-0.474445
H56	H	1.371358	-1.167325	-0.437656
N57	N	1.334454	-1.023531	-0.424623
H58	H	1.376665	-1.050425	-0.383287
H59	H	1.348861	-1.055093	-0.481888
H60	H	1.250884	-0.532992	-0.950584
N61	N	1.285290	-1.229104	-0.579571
H62	H	1.321600	-1.169308	-0.592658
H63	H	1.312226	-1.271800	-0.534591
H64	H	1.154220	-1.213686	-0.597474
H65	H	1.153089	-1.032196	-0.597390
H66	H	1.263450	-1.036101	-0.572953
H67	H	1.112263	-0.700213	-0.973325
H68	H	1.076289	-1.195701	-0.370769
N69	N	1.075825	-1.002058	-0.346076
H70	H	1.122713	-0.957583	-0.325562
H71	H	1.022571	-0.956496	-0.346948
N72	N	1.025668	-1.005752	-0.486934
H73	H	1.049195	-0.961971	-0.531138
H74	H	0.996553	-1.067299	-0.514140
H75	H	1.044603	-1.198656	-0.479179
