data_functionalizedCrystal
_audit_creation_method	'MofGen! by Chris Wilmer'
_symmetry_space_group_name_H-M	'P1'
_symmetry_Int_Tables_number	1
_symmetry_cell_setting	triclinic
loop_
_symmetry_equiv_pos_as_xyz
  x,y,z
_cell_length_a	31.640172
_cell_length_b	31.640172
_cell_length_c	31.640172
_cell_angle_alpha	90.008361
_cell_angle_beta	60.004780
_cell_angle_gamma	59.996622
loop_
_atom_site_label
_atom_site_type_symbol
_atom_site_fract_x
_atom_site_fract_y
_atom_site_fract_z
Zr1	Zr	0.462542	-0.055408	0.407238
O2	O	0.550726	-0.122906	0.339751
O3	O	0.374370	-0.034717	0.427918
O4	O	0.462548	-0.122895	0.427918
O5	O	0.462539	0.034829	0.339761
O6	O	0.462539	-0.122886	0.497475
O7	O	0.462548	-0.034728	0.339751
O8	O	0.304805	0.034848	0.497475
O9	O	0.620273	-0.122905	0.339760
O10	O	0.410625	-0.025885	0.488657
O11	O	0.410625	0.026018	0.436755
O12	O	0.514443	-0.077800	0.436755
O13	O	0.514443	-0.025898	0.384852
Zr14	Zr	0.462514	0.055542	0.518189
Zr15	Zr	0.462528	-0.055393	0.518173
Zr16	Zr	0.462528	0.055527	0.407253
Zr17	Zr	0.573462	-0.055407	0.407253
Zr18	Zr	0.351594	0.055541	0.518173
O19	O	0.550686	0.034851	0.497509
O20	O	0.550706	-0.122885	0.497487
O21	O	0.550706	0.034830	0.339773
O22	O	0.374330	0.123040	0.585676
O23	O	0.374350	-0.034696	0.585654
O24	O	0.374350	0.123019	0.427940
O25	O	0.462517	-0.034695	0.585666
O26	O	0.462508	0.123029	0.497509
O27	O	0.462517	0.123020	0.427952
O28	O	0.462508	0.034862	0.585675
O29	O	0.620262	-0.122893	0.427939
O30	O	0.304794	0.123027	0.497487
O31	O	0.304783	0.123039	0.585666
O32	O	0.304794	0.034860	0.585654
O33	O	0.620262	-0.034726	0.339773
O34	O	0.620251	-0.034715	0.427952
O35	O	0.410612	0.077934	0.488672
O36	O	0.410612	0.026031	0.540574
O37	O	0.514430	-0.025884	0.488672
O38	O	0.514430	0.026019	0.436769
C39	C	0.323784	0.000065	0.462694
C40	C	0.276695	0.000065	0.462688
C41	C	0.462545	0.000048	0.323950
C42	C	0.462551	0.000042	0.276855
C43	C	0.462510	0.138830	0.462732
C44	C	0.462504	0.185925	0.462739
C45	C	-0.015347	-0.027021	0.489816
C46	C	-0.192343	-0.027021	0.489827
O47	O	-0.215247	-0.050043	0.512887
N48	N	-0.214472	0.000071	0.462734
C49	C	-0.192352	0.027167	0.435639
O50	O	-0.215240	0.050215	0.412599
C51	C	-0.015360	0.027170	0.435631
C52	C	0.006771	0.000072	0.462722
C53	C	0.006784	-0.054116	0.516905
C54	C	0.051032	-0.054118	0.516900
C55	C	0.073150	-0.027025	0.489806
C56	C	0.051020	0.000070	0.462717
C57	C	0.006756	0.054269	0.408540
C58	C	0.051006	0.054268	0.408541
C59	C	0.073137	0.027170	0.435632
C60	C	0.117386	0.027161	0.435617
N61	N	0.139515	0.000069	0.462711
C62	C	0.117397	-0.027024	0.489805
C63	C	-0.285274	0.027163	0.435644
C64	C	-0.329521	0.027162	0.435645
C65	C	-0.329510	-0.027025	0.489834
C66	C	-0.285259	-0.027027	0.489829
C67	C	-0.263145	0.000072	0.462737
C68	C	0.210323	-0.027027	0.489791
C69	C	0.254577	-0.027028	0.489782
C70	C	0.254559	0.027161	0.435595
C71	C	0.210311	0.027161	0.435602
C72	C	0.188193	0.000066	0.462704
O73	O	0.140313	0.050176	0.412574
O74	O	0.140283	-0.050059	0.512850
C75	C	-0.059595	-0.027019	0.489821
C76	C	-0.081726	0.000076	0.462732
C77	C	-0.059608	0.027169	0.435638
C78	C	-0.125973	0.000075	0.462733
C79	C	-0.148091	-0.027018	0.489828
C80	C	-0.125962	-0.054110	0.516921
C81	C	-0.081713	-0.054112	0.516916
C82	C	-0.081737	0.054261	0.408545
C83	C	-0.125985	0.054260	0.408552
C84	C	-0.148103	0.027167	0.435646
C85	C	0.601272	0.000068	0.462732
C86	C	0.648361	0.000069	0.462739
C87	C	0.462545	-0.138696	0.462694
C88	C	0.462551	-0.185791	0.462687
C89	C	0.516725	0.450832	0.435610
C90	C	0.516736	0.627817	0.435599
O91	O	0.562824	0.627656	0.412539
N92	N	0.462544	0.677046	0.462693
C93	C	0.408346	0.682028	0.489788
O94	O	0.362253	0.727961	0.512828
C95	C	0.408336	0.505043	0.489795
C96	C	0.462532	0.455815	0.462704
C97	C	0.570916	0.401606	0.408521
C98	C	0.570913	0.357362	0.408526
C99	C	0.516719	0.362345	0.435621
C100	C	0.462528	0.411572	0.462710
C101	C	0.354139	0.510026	0.516887
C102	C	0.354141	0.465774	0.516885
C103	C	0.408337	0.416546	0.489795
C104	C	0.408331	0.372311	0.489809
N105	N	0.462523	0.323082	0.462716
C106	C	0.516717	0.318099	0.435622
C107	C	0.408355	0.774945	0.489783
C108	C	0.408357	0.819192	0.489782
C109	C	0.516747	0.764977	0.435592
C110	C	0.516744	0.720731	0.435597
C111	C	0.462547	0.725716	0.462689
C112	C	0.516706	0.225187	0.435635
C113	C	0.516698	0.180942	0.435645
C114	C	0.408309	0.235160	0.489832
C115	C	0.408316	0.279401	0.489825
C116	C	0.462520	0.274411	0.462723
O117	O	0.362267	0.372433	0.512853
O118	O	0.562803	0.272162	0.412576
C119	C	0.516729	0.495075	0.435605
C120	C	0.462538	0.544302	0.462694
C121	C	0.408344	0.549285	0.489788
C122	C	0.462540	0.588548	0.462693
C123	C	0.516734	0.583565	0.435599
C124	C	0.570926	0.534336	0.408505
C125	C	0.570922	0.490092	0.408511
C126	C	0.354152	0.598514	0.516881
C127	C	0.354160	0.642755	0.516874
C128	C	0.408354	0.637772	0.489780
C129	C	0.408330	0.027177	0.011941
C130	C	0.408320	0.027187	-0.165044
O131	O	0.362231	0.050253	-0.164888
N132	N	0.462511	0.000087	-0.214266
C133	C	0.516709	-0.027015	-0.219241
O134	O	0.562802	-0.050060	-0.265169
C135	C	0.516719	-0.027022	-0.042257
C136	C	0.462524	0.000076	0.006965
C137	C	0.354140	0.054272	0.061161
C138	C	0.354143	0.054267	0.105404
C139	C	0.408337	0.027166	0.100428
C140	C	0.462527	0.000071	0.051209
C141	C	0.570917	-0.054120	-0.047232
C142	C	0.570914	-0.054118	-0.002981
C143	C	0.516719	-0.027021	0.046241
C144	C	0.516724	-0.027035	0.090476
N145	N	0.462533	0.000065	0.139698
C146	C	0.408339	0.027165	0.144674
C147	C	0.516701	-0.027010	-0.312159
C148	C	0.516698	-0.027009	-0.356405
C149	C	0.408308	0.027193	-0.302204
C150	C	0.408311	0.027189	-0.257957
C151	C	0.462509	0.000090	-0.262936
C152	C	0.408349	0.027152	0.237586
C153	C	0.408357	0.027143	0.281831
C154	C	0.516747	-0.027057	0.227627
C155	C	0.516739	-0.027050	0.183386
C156	C	0.462536	0.000058	0.188369
O157	O	0.562789	-0.050084	0.090359
O158	O	0.362253	0.050217	0.190606
C159	C	0.408327	0.027182	-0.032302
C160	C	0.462518	0.000086	-0.081522
C161	C	0.516712	-0.027015	-0.086498
C162	C	0.462516	0.000087	-0.125768
C163	C	0.408322	0.027188	-0.120791
C164	C	0.354130	0.054288	-0.071569
C165	C	0.354133	0.054283	-0.027326
C166	C	0.570903	-0.054115	-0.135720
C167	C	0.570896	-0.054108	-0.179961
C168	C	0.516702	-0.027007	-0.174985
C169	C	0.462510	0.000085	0.601477
C170	C	0.462504	0.000092	0.648572
C171	C	0.323766	0.000084	0.601457
C172	C	0.276672	0.000090	0.648546
C173	C	0.323766	0.138829	0.462713
C174	C	0.276672	0.185923	0.462713
C175	C	0.323749	0.138847	0.601477
C176	C	0.276648	0.185948	0.648572
C177	C	0.601307	-0.138713	0.323950
C178	C	0.648408	-0.185814	0.276855
C179	C	0.601290	0.000050	0.323969
C180	C	0.648384	0.000044	0.276880
C181	C	0.601290	-0.138695	0.462713
C182	C	0.648384	-0.185789	0.462713
C183	C	0.254562	-0.027012	0.643559
C184	C	0.210318	-0.027017	0.687800
C185	C	0.188181	0.000083	0.737026
C186	C	0.210295	0.027186	0.742012
C187	C	0.254541	0.027187	0.697772
C188	C	0.254549	0.235144	0.489814
C189	C	0.210305	0.279398	0.489812
C190	C	0.188181	0.274431	0.462712
C191	C	0.210309	0.225205	0.435609
C192	C	0.254555	0.180952	0.435608
C193	C	0.254529	0.180974	0.697785
C194	C	0.210280	0.225226	0.742040
C195	C	0.188147	0.274451	0.737081
C196	C	0.210270	0.279424	0.687862
C197	C	0.254522	0.235172	0.643608
C198	C	0.670532	-0.180840	0.227641
C199	C	0.714795	-0.225092	0.183386
C200	C	0.736931	-0.274317	0.188346
C201	C	0.714804	-0.279290	0.237564
C202	C	0.670545	-0.235039	0.281818
C203	C	0.670498	0.027141	0.281867
C204	C	0.714754	0.027134	0.237627
C205	C	0.736893	0.000032	0.188400
C206	C	0.714777	-0.027068	0.183414
C207	C	0.670525	-0.027064	0.227654
C208	C	0.670493	-0.180806	0.489817
C209	C	0.714738	-0.225052	0.489828
C210	C	0.736875	-0.274281	0.462730
C211	C	0.714761	-0.279264	0.435624
C212	C	0.670515	-0.235018	0.435618
H213	H	0.192318	-0.049089	0.511861
N214	N	0.738651	-0.056290	0.130318
H215	H	0.704892	-0.042072	0.126171
H216	H	0.757023	-0.094193	0.126192
N217	N	0.646674	-0.056287	0.222265
H218	H	0.602257	-0.031433	0.239408
H219	H	0.654411	-0.083557	0.239403
H220	H	0.310004	0.076351	-0.067524
N221	N	0.629372	-0.083347	-0.008352
H222	H	0.663699	-0.100511	-0.046248
H223	H	0.631740	-0.110592	0.008816
N224	N	0.738642	-0.219720	0.130306
H225	H	0.770040	-0.255220	0.103020
H226	H	0.756952	-0.200144	0.126216
H227	H	0.560869	-0.049122	0.143306
N228	N	0.186435	0.332488	0.519053
H229	H	0.194138	0.352057	0.494211
H230	H	0.207170	0.328874	0.536224
N231	N	0.295700	0.695849	0.546100
H232	H	0.272015	0.699986	0.531882
H233	H	0.303967	0.723095	0.541981
H234	H	0.310006	0.076344	0.065222
N235	N	0.074892	-0.083334	0.546128
H236	H	0.119311	-0.110608	0.521281
H237	H	0.054117	-0.100460	0.563293
N238	N	0.738607	0.056362	0.243007
H239	H	0.704845	0.094271	0.262551
H240	H	0.770012	0.052202	0.207494
H241	H	0.152153	0.310469	0.462717
N242	N	0.140406	0.322176	0.784815
H243	H	0.129736	0.354117	0.774210
H244	H	0.155834	0.322151	0.806098
H245	H	0.192289	0.221168	0.413545
H246	H	0.192319	-0.049087	0.683730
H247	H	0.560870	-0.049124	0.223584
H248	H	0.192243	0.319509	0.683832
N249	N	0.646630	0.056368	0.334959
H250	H	0.602212	0.083642	0.354527
H251	H	0.667405	0.073495	0.331355
N252	N	0.784619	0.000030	0.140684
H253	H	0.821333	-0.015388	0.140670
H254	H	0.769160	0.036742	0.140701
N255	N	0.278445	0.127864	0.406346
H256	H	0.257722	0.131438	0.389171
H257	H	0.270762	0.108299	0.431196
H258	H	0.772969	-0.310346	0.152307
H259	H	0.652476	-0.140724	0.511884
H260	H	0.192264	0.049249	0.782098
N261	N	0.738582	-0.219671	0.519065
H262	H	0.717846	-0.181769	0.536225
H263	H	0.783002	-0.236854	0.494193
H264	H	0.732792	-0.319352	0.413562
N265	N	0.784593	-0.322001	0.462745
H266	H	0.795236	-0.311369	0.484030
H267	H	0.821288	-0.343289	0.426037
H268	H	0.652518	-0.239083	0.413544
N269	N	-0.017068	-0.083340	0.546131
H270	H	0.003672	-0.100501	0.563288
H271	H	-0.009362	-0.110587	0.521251
H272	H	0.192271	0.221168	0.782112
H273	H	0.272525	0.239229	0.603538
N274	N	0.278415	0.056387	0.406379
H275	H	0.257683	0.073555	0.389218
H276	H	0.322836	0.031505	0.379137
N277	N	0.738676	-0.332384	0.242911
H278	H	0.757033	-0.336535	0.262459
H279	H	0.770045	-0.359626	0.207389
H280	H	0.272544	0.140897	0.701833
H281	H	0.652512	-0.140763	0.223593
N282	N	0.646675	-0.240402	0.334900
H283	H	0.680432	-0.259949	0.339050
H284	H	0.628320	-0.259939	0.338996
N285	N	0.278446	-0.056259	0.519002
H286	H	0.244688	-0.042040	0.556907
H287	H	0.309845	-0.052144	0.514848
N288	N	-0.261390	-0.056253	0.519048
H289	H	-0.282119	-0.073417	0.536209
H290	H	-0.269095	-0.031371	0.546291
H291	H	0.364226	0.859272	0.511848
N292	N	0.278383	0.056422	0.703155
H293	H	0.257641	0.073589	0.741054
H294	H	0.270676	0.083665	0.685984
H295	H	-0.347525	-0.049086	0.511894
N296	N	0.278403	0.240509	0.519045
H297	H	0.257671	0.278408	0.536209
H298	H	0.322823	0.223324	0.494169
H299	H	-0.347530	0.049221	0.413578
N300	N	0.629354	-0.083333	-0.233049
H301	H	0.621136	-0.079219	-0.260328
H302	H	0.653028	-0.121229	-0.237159
N303	N	-0.261428	0.056394	0.406422
H304	H	-0.282164	0.073554	0.389261
H305	H	-0.217008	0.031514	0.379179
H306	H	0.152152	0.000078	0.773045
H307	H	0.069009	0.076334	0.386478
N308	N	-0.017115	0.083504	0.379328
H309	H	0.003612	0.100670	0.362172
H310	H	-0.061534	0.110748	0.404217
H311	H	0.192298	0.049219	0.413536
H312	H	-0.143975	-0.076172	0.538980
N313	N	-0.057846	-0.083340	0.546134
H314	H	-0.078578	-0.100500	0.563296
H315	H	-0.065547	-0.058459	0.573376
H316	H	0.364218	0.779013	0.511847
H317	H	-0.143997	0.076325	0.386487
N318	N	0.295680	0.083507	0.025761
H319	H	0.261353	0.100673	0.022191
H320	H	0.293310	0.110749	0.045309
H321	H	-0.063735	0.076325	0.386483
H322	H	0.560844	0.221116	0.413565
N323	N	0.575160	0.127849	0.406430
H324	H	0.598861	0.123689	0.368525
H325	H	0.566897	0.100600	0.410583
H326	H	0.615048	-0.076185	-0.087304
H327	H	0.615044	0.317282	0.386465
H328	H	0.615050	0.397539	0.386455
H329	H	0.560874	0.760927	0.413531
N330	N	0.575202	0.667640	0.406372
H331	H	0.577627	0.648066	0.379101
H332	H	0.577584	0.648119	0.431257
N333	N	0.295685	0.563116	0.546107
H334	H	0.261359	0.559549	0.563266
H335	H	0.293327	0.582647	0.521226
N336	N	0.295685	0.471150	0.546109
H337	H	0.271997	0.490694	0.531894
H338	H	0.272038	0.490695	0.584006
N339	N	0.349865	0.332500	0.519050
H340	H	0.315534	0.328940	0.536216
H341	H	0.347508	0.352029	0.494166
H342	H	0.364186	0.239208	0.511893
H343	H	0.615054	0.450012	0.386450
H344	H	0.615052	0.530285	0.386446
N345	N	0.295698	0.603893	0.546116
H346	H	0.261372	0.641794	0.563280
H347	H	0.293341	0.586724	0.573358
N348	N	0.629358	-0.083351	-0.141092
H349	H	0.663683	-0.100518	-0.178990
H350	H	0.631720	-0.110595	-0.123924
H351	H	0.364223	0.049211	0.321910
H352	H	0.364212	0.049227	0.241652
H353	H	0.310011	0.076331	0.145480
H354	H	0.364181	0.049259	-0.217882
H355	H	0.272586	-0.049087	0.603480
N356	N	0.349855	0.056423	-0.296840
H357	H	0.358082	0.052309	-0.332340
H358	H	0.326189	0.094318	-0.277270
H359	H	0.560829	-0.049081	-0.396480
H360	H	0.560837	-0.049081	-0.316221
