data_functionalizedCrystal
_audit_creation_method	'MofGen! by Chris Wilmer'
_symmetry_space_group_name_H-M	'P1'
_symmetry_Int_Tables_number	1
_symmetry_cell_setting	triclinic
loop_
_symmetry_equiv_pos_as_xyz
  x,y,z
_cell_length_a	21.295417
_cell_length_b	19.121246
_cell_length_c	19.120904
_cell_angle_alpha	89.874251
_cell_angle_beta	87.591662
_cell_angle_gamma	87.536295
loop_
_atom_site_label
_atom_site_type_symbol
_atom_site_fract_x
_atom_site_fract_y
_atom_site_fract_z
Zn1	Zn	-0.227297	-1.054844	0.442197
Zn2	Zn	0.272703	-0.554844	0.942197
Zn3	Zn	-0.327896	-1.059754	0.324951
Zn4	Zn	0.172104	-0.559754	0.824951
Zn5	Zn	-0.226922	-0.942611	0.319964
Zn6	Zn	0.273078	-0.442611	0.819964
Zn7	Zn	-0.336812	-0.937562	0.437134
Zn8	Zn	0.163188	-0.437562	0.937134
O9	O	-0.279732	-0.998693	0.381061
O10	O	0.220268	-0.498693	0.881061
O11	O	-0.237068	-1.153603	0.430850
O12	O	0.262932	-0.653603	0.930850
O13	O	-0.310613	-1.048382	0.226185
O14	O	0.189387	-0.548382	0.726185
O15	O	-0.138881	-0.957557	0.336210
O16	O	0.361119	-0.457557	0.836210
O17	O	-0.310977	-1.157210	0.344710
O18	O	0.189023	-0.657210	0.844710
O19	O	-0.139157	-1.040015	0.426014
O20	O	0.360843	-0.540015	0.926014
O21	O	-0.236428	-0.962318	0.222522
O22	O	0.263572	-0.462318	0.722522
O23	O	-0.245074	-0.843833	0.331301
O24	O	0.254926	-0.343833	0.831301
O25	O	-0.326173	-0.948952	0.535910
O26	O	0.173827	-0.448952	1.035910
O27	O	-0.325810	-0.840124	0.417385
O28	O	0.174190	-0.340124	0.917385
O29	O	-0.245713	-1.035119	0.539629
O30	O	0.254287	-0.535119	1.039629
O31	O	-0.417169	-1.043486	0.339801
O32	O	0.082831	-0.543486	0.839801
O33	O	-0.423720	-0.953712	0.422221
O34	O	0.076280	-0.453712	0.922221
C35	C	-0.286369	-0.816540	0.373253
C36	C	0.213631	-0.316540	0.873253
C37	C	-0.289224	-0.738614	0.369929
C38	C	0.210776	-0.238614	0.869929
C39	C	-0.252151	-0.700124	0.413285
C40	C	0.247849	-0.200124	0.913285
C41	C	-0.254831	-0.626904	0.410156
C42	C	0.245169	-0.126904	0.910156
C43	C	-0.294587	-0.592176	0.363674
C44	C	0.205413	-0.092176	0.863674
C45	C	-0.331661	-0.630671	0.320314
C46	C	0.168339	-0.130671	0.820314
C47	C	-0.328978	-0.703890	0.323440
C48	C	0.171022	-0.203890	0.823440
C49	C	-0.304607	-0.371197	0.351985
C50	C	0.195393	0.128803	0.851985
C51	C	-0.307289	-0.297973	0.348864
C52	C	0.192711	0.202027	0.848864
C53	C	-0.230457	-0.294211	0.438705
C54	C	0.269543	0.205789	0.938705
C55	C	-0.227780	-0.367431	0.441830
C56	C	0.272220	0.132569	0.941830
C57	C	-0.264852	-0.405920	0.398467
C58	C	0.235148	0.094080	0.898467
C59	C	-0.297328	-0.517333	0.360476
C60	C	0.202672	-0.017333	0.860476
C61	C	-0.262107	-0.480761	0.401662
C62	C	0.237893	0.019239	0.901662
C63	C	-0.443285	-0.998602	0.381019
C64	C	0.056715	-0.498602	0.881019
C65	C	-0.513253	-0.998627	0.381027
C66	C	-0.013253	-0.498627	0.881027
C67	C	-0.542688	-1.045410	0.338158
C68	C	-0.042688	-0.545410	0.838158
C69	C	-0.608430	-1.045442	0.338175
C70	C	-0.108430	-0.545442	0.838175
C71	C	-0.644734	-0.998679	0.381053
C72	C	-0.144734	-0.498679	0.881053
C73	C	-0.615292	-0.951892	0.423930
C74	C	-0.115292	-0.451892	0.923930
C75	C	-0.549551	-0.951866	0.423917
C76	C	-0.049551	-0.451866	0.923917
N77	N	-0.750452	-0.937121	0.383768
N78	N	-0.250452	-0.437121	0.883768
N79	N	-0.812903	-0.937147	0.383777
N80	N	-0.312903	-0.437147	0.883777
C81	C	-0.842808	-0.998756	0.381097
C82	C	-0.342808	-0.498756	0.881097
N83	N	-0.807902	-1.060338	0.378394
N84	N	-0.307902	-0.560338	0.878394
N85	N	-0.745446	-1.060311	0.378381
N86	N	-0.245446	-0.560311	0.878381
C87	C	-0.716020	-0.998703	0.381072
C88	C	-0.216020	-0.498703	0.881072
C89	C	-0.943528	-1.045578	0.338244
C90	C	-0.443528	-0.545578	0.838244
C91	C	-1.009271	-1.045611	0.338266
C92	C	-0.509271	-0.545611	0.838266
C93	C	-1.016131	-0.952055	0.424018
C94	C	-0.516131	-0.452055	0.924018
C95	C	-0.950389	-0.952028	0.424000
C96	C	-0.450389	-0.452028	0.924000
C97	C	-0.914091	-0.998789	0.381109
C98	C	-0.414091	-0.498789	0.881109
C99	C	-0.115540	-0.998802	0.381121
C100	C	0.384460	-0.498802	0.881121
C101	C	-0.045571	-0.998848	0.381146
C102	C	0.454429	-0.498848	0.881146
C103	C	-0.286980	-0.990924	0.563918
C104	C	0.213020	-0.490924	1.063918
C105	C	-0.290068	-0.987614	0.641840
C106	C	0.209932	-0.487614	1.141840
C107	C	-0.273066	-0.181557	0.388895
C108	C	0.226934	0.318443	0.888895
C109	C	-0.270216	-0.259483	0.392219
C110	C	0.229784	0.240517	0.892219
C111	C	-0.272465	-1.006471	0.198918
C112	C	0.227535	-0.506471	0.698918
C113	C	-0.269195	-1.009917	0.121002
C114	C	0.230805	-0.509917	0.621002
C115	C	-0.249630	-1.030919	0.680386
C116	C	0.250370	-0.530919	1.180386
C117	C	-0.252530	-1.027800	0.753602
C118	C	0.247470	-0.527800	1.253602
C119	C	-0.295872	-0.981379	0.788271
C120	C	0.204128	-0.481379	1.288271
C121	C	-0.336312	-0.938069	0.749720
C122	C	0.163688	-0.438069	1.249720
C123	C	-0.333408	-0.941185	0.676505
C124	C	0.166592	-0.441185	1.176505
C125	C	-0.306731	-0.969723	1.009236
C126	C	0.193269	-0.469723	1.509236
C127	C	-0.309633	-0.966612	1.082456
C128	C	0.190367	-0.466612	1.582456
C129	C	-0.225850	-1.056342	1.086333
C130	C	0.274150	-0.556342	1.586333
C131	C	-0.222953	-1.059457	1.013117
C132	C	0.277047	-0.559457	1.513117
C133	C	-0.263391	-1.016145	0.974572
C134	C	0.236609	-0.516145	1.474572
C135	C	-0.298838	-0.978191	0.863110
C136	C	0.201162	-0.478191	1.363110
C137	C	-0.260421	-1.019329	0.899734
C138	C	0.239579	-0.519329	1.399734
H139	H	-0.339666	-0.269699	0.311013
H140	H	0.160334	0.230301	0.811013
H141	H	-0.195409	-0.395702	0.479683
H142	H	0.304591	0.104298	0.979683
H143	H	-0.359166	-0.735228	0.288135
H144	H	0.140834	-0.235228	0.788135
H145	H	-0.200275	-0.262865	0.474007
H146	H	0.299725	0.237135	0.974007
C147	C	-0.201950	-1.081986	0.642257
C148	C	0.298050	-0.581986	1.142257
N149	N	-0.166033	-1.120448	0.613540
N150	N	0.333967	-0.620448	1.113540
C151	C	-0.208045	-1.075441	0.795999
C152	C	0.291955	-0.575441	1.295999
N153	N	-0.174537	-1.111326	0.827933
N154	N	0.325463	-0.611326	1.327933
C155	C	-0.375392	-0.592467	0.269183
C156	C	0.124608	-0.092467	0.769183
N157	N	-0.408333	-0.563693	0.230671
N158	N	0.091667	-0.063693	0.730671
H159	H	-0.334794	-0.402526	0.316677
H160	H	0.165206	0.097474	0.816677
C161	C	-0.208416	-0.738318	0.464418
C162	C	0.291584	-0.238318	0.964418
N163	N	-0.175470	-0.767084	0.502931
N164	N	0.324530	-0.267084	1.002931
H165	H	-0.229735	-0.509041	0.439504
H166	H	0.270265	-0.009041	0.939504
C167	C	-0.918010	-0.900576	0.471174
C168	C	-0.418010	-0.400576	0.971174
N169	N	-0.893622	-0.861827	0.506717
N170	N	-0.393622	-0.361827	1.006717
H171	H	-0.329697	-0.489049	0.322631
H172	H	0.170303	0.010951	0.822631
C173	C	-0.517172	-0.900407	0.471087
C174	C	-0.017172	-0.400407	0.971087
N175	N	-0.492783	-0.861650	0.506620
N176	N	0.007217	-0.361650	1.006620
H177	H	-1.033235	-1.083712	0.303359
H178	H	-0.533235	-0.583712	0.803359
C179	C	-0.346509	-0.927125	0.901253
C180	C	0.153491	-0.427125	1.401253
N181	N	-0.382412	-0.888658	0.929985
N182	N	0.117588	-0.388658	1.429985
H183	H	-0.513136	-1.083487	0.303236
H184	H	-0.013136	-0.583487	0.803236
H185	H	-0.632401	-1.083541	0.303266
H186	H	-0.132401	-0.583541	0.803266
H187	H	-0.644855	-0.913819	0.458843
H188	H	-0.144855	-0.413819	0.958843
H189	H	-0.224643	-0.595568	0.445462
H190	H	0.275357	-0.095568	0.945462
C191	C	-0.175267	-1.110517	0.974986
C192	C	0.324733	-0.610517	1.474986
N193	N	-0.139349	-1.148975	0.946266
N194	N	0.360651	-0.648975	1.446266
C195	C	-0.383983	-0.886999	0.787859
C196	C	0.116017	-0.386999	1.287859
N197	N	-0.419889	-0.848531	0.816584
N198	N	0.080111	-0.348531	1.316584
C199	C	-0.903597	-1.097025	0.291075
C200	C	-0.403597	-0.597025	0.791075
N201	N	-0.873524	-1.135778	0.255549
N202	N	-0.373524	-0.635778	0.755549
C203	C	-1.056063	-0.900616	0.471186
C204	C	-0.556063	-0.400616	0.971186
N205	N	-1.086142	-0.861872	0.506715
N206	N	-0.586142	-0.361872	1.006715
C207	C	-0.181364	-1.103974	1.128738
C208	C	0.318636	-0.603974	1.628738
N209	N	-0.147852	-1.139848	1.160677
N210	N	0.352148	-0.639848	1.660677
H211	H	-0.344929	-0.928809	1.110681
H212	H	0.155071	-0.428809	1.610681
C213	C	-0.377895	-0.893547	0.634105
C214	C	0.122105	-0.393547	1.134105
N215	N	-0.411403	-0.857664	0.602170
N216	N	0.088597	-0.357664	1.102170
H217	H	-0.339668	-0.934466	0.977862
H218	H	0.160332	-0.434466	1.477862
H219	H	-0.225129	-1.057122	0.871504
H220	H	0.274871	-0.557122	1.371504
