data_functionalizedCrystal
_audit_creation_method	'MofGen! by Chris Wilmer'
_symmetry_space_group_name_H-M	'P1'
_symmetry_Int_Tables_number	1
_symmetry_cell_setting	triclinic
loop_
_symmetry_equiv_pos_as_xyz
  x,y,z
_cell_length_a	21.395364
_cell_length_b	18.050590
_cell_length_c	21.395355
_cell_angle_alpha	89.981964
_cell_angle_beta	89.975448
_cell_angle_gamma	90.033504
loop_
_atom_site_label
_atom_site_type_symbol
_atom_site_fract_x
_atom_site_fract_y
_atom_site_fract_z
Zn1	Zn	0.957912	-0.295449	-0.354264
Zn2	Zn	0.957837	-0.419621	-0.249487
Zn3	Zn	0.853127	-0.295482	-0.249500
Zn4	Zn	0.853118	-0.419634	-0.354227
O5	O	0.905499	-0.357547	-0.301870
O6	O	1.045580	-0.311902	-0.340374
O7	O	0.943919	-0.403162	-0.161811
O8	O	0.867062	-0.191553	-0.263418
O9	O	1.045525	-0.403130	-0.263396
O10	O	0.944047	-0.191529	-0.340387
O11	O	0.866989	-0.311957	-0.161821
O12	O	0.765448	-0.311970	-0.263383
O13	O	0.867047	-0.403153	-0.441910
O14	O	0.765442	-0.403184	-0.340325
O15	O	0.944039	-0.311915	-0.441937
O16	O	0.943911	-0.523547	-0.263360
O17	O	0.866974	-0.523557	-0.340312
C18	C	0.742711	-0.357583	-0.301852
C19	C	0.673070	-0.357616	-0.301859
C20	C	0.640408	-0.310191	-0.342004
C21	C	0.574972	-0.310171	-0.342007
C22	C	0.542201	-0.357590	-0.301871
C23	C	0.574871	-0.405018	-0.261718
C24	C	0.640305	-0.405031	-0.261712
C25	C	0.438489	-0.424470	-0.296834
C26	C	0.373056	-0.424458	-0.296844
C27	C	0.340381	-0.357549	-0.301885
C28	C	0.373146	-0.290650	-0.306929
C29	C	0.438580	-0.290663	-0.306923
C30	C	0.471249	-0.357580	-0.301872
C31	C	0.236766	-0.310099	-0.342034
C32	C	0.171330	-0.310078	-0.342032
C33	C	0.171230	-0.404931	-0.261747
C34	C	0.236665	-0.404945	-0.261746
C35	C	0.269429	-0.357530	-0.301893
C36	C	0.905450	-0.550499	-0.301845
C37	C	0.905487	-0.633044	-0.301855
C38	C	0.947412	-0.832463	-0.260067
C39	C	0.962722	-0.881803	-0.317251
C40	C	0.905523	-0.784175	-0.301880
C41	C	0.890277	-0.881916	-0.244722
C42	C	0.905558	-0.930160	-0.301899
C43	C	0.920862	-0.832428	-0.359094
C44	C	0.848390	-0.832537	-0.286526
C45	C	0.863678	-0.881855	-0.343750
C46	C	0.905504	-0.700076	-0.301868
C47	C	0.905577	-1.014256	-0.301917
C48	C	1.068922	-0.357511	-0.301888
C49	C	1.138563	-0.357496	-0.301895
C50	C	0.905551	-0.357531	-0.465293
C51	C	0.905573	-0.357525	-0.534934
C52	C	0.905564	-0.163841	-0.301908
C53	C	0.905592	-0.081295	-0.301925
C54	C	0.945660	-0.310015	-0.567662
C55	C	0.945660	-0.309983	-0.633098
C56	C	0.905578	-0.357474	-0.665803
C57	C	0.865482	-0.404988	-0.633067
C58	C	0.865480	-0.405013	-0.567632
C59	C	0.900614	-0.424345	-0.769469
C60	C	0.900621	-0.424321	-0.834902
C61	C	0.905582	-0.357396	-0.867623
C62	C	0.910549	-0.290493	-0.834904
C63	C	0.910546	-0.290518	-0.769470
C64	C	0.905576	-0.357452	-0.736755
C65	C	0.945670	-0.309848	-0.971304
C66	C	0.945665	-0.309814	-1.036741
C67	C	0.865491	-0.404825	-1.036708
C68	C	0.865493	-0.404852	-0.971273
C69	C	0.905586	-0.357364	-0.938575
C70	C	0.905483	-0.357508	-0.139082
C71	C	0.905582	-0.357305	-0.069441
H72	H	0.465256	-0.236191	-0.311028
H73	H	0.828269	-0.903404	-0.379159
F74	F	0.822822	-0.455529	-0.667874
H75	H	0.914590	-0.235996	-0.861545
F76	F	0.785233	-0.804230	-0.269516
H77	H	0.978308	-0.271122	-1.063387
F78	F	0.338376	-0.219434	-0.312293
H79	H	0.346383	-0.478932	-0.292740
H80	H	0.877367	-0.903654	-0.196376
F81	F	0.988338	-0.259305	-0.936502
H82	H	0.667080	-0.271581	-0.374694
F83	F	0.988329	-0.259471	-0.532866
F84	F	0.822828	-0.455364	-1.071511
F85	F	0.988318	-0.259403	-0.667936
F86	F	0.271639	-0.259632	-0.384758
H87	H	0.548374	-0.271549	-0.374696
H88	H	0.465088	-0.478959	-0.292728
F89	F	0.822811	-0.455581	-0.532800
H90	H	0.832853	-0.443544	-0.944625
H91	H	1.011053	-0.903446	-0.330249
H92	H	0.666898	-0.443651	-0.229021
F93	F	0.915830	-0.219317	-0.734650
F94	F	0.993728	-0.804115	-0.213895
H95	H	0.144737	-0.271454	-0.374722
F96	F	0.895339	-0.495525	-0.869718
H97	H	0.144548	-0.443540	-0.229067
F98	F	0.271428	-0.455420	-0.219015
F99	F	0.937817	-0.804138	-0.422302
H100	H	0.548185	-0.443626	-0.229039
H101	H	0.896406	-0.478830	-0.742832
