data_functionalizedCrystal
_audit_creation_method	'MofGen! by Chris Wilmer'
_symmetry_space_group_name_H-M	'P1'
_symmetry_Int_Tables_number	1
_symmetry_cell_setting	triclinic
loop_
_symmetry_equiv_pos_as_xyz
  x,y,z
_cell_length_a	11.792254
_cell_length_b	13.330367
_cell_length_c	14.853567
_cell_angle_alpha	90.003824
_cell_angle_beta	83.916764
_cell_angle_gamma	89.998449
loop_
_atom_site_label
_atom_site_type_symbol
_atom_site_fract_x
_atom_site_fract_y
_atom_site_fract_z
O1	O	-1.506127	-0.083414	-0.123627
O2	O	-1.175709	-0.083415	-0.136350
O3	O	-1.349744	-0.083417	0.001207
O4	O	-1.332092	-0.083411	-0.261184
O5	O	-1.349750	0.083430	0.001220
O6	O	-1.175715	0.083432	-0.136336
O7	O	-1.506133	0.083434	-0.123613
Cu8	Cu	-1.340924	0.098667	-0.129974
Cu9	Cu	-1.340918	-0.098649	-0.129990
O10	O	-1.332098	0.083436	-0.261170
C11	C	-1.133426	0.000008	-0.135542
C12	C	-1.007428	0.000008	-0.133143
C13	C	-1.348947	0.000003	0.034805
C14	C	-1.346550	-0.000005	0.134898
C15	C	-1.548416	0.000008	-0.124422
C16	C	-1.674414	0.000002	-0.126821
C17	C	-0.905104	0.000003	-0.131194
C18	C	-0.776732	0.000003	-0.128756
N19	N	-1.340913	-0.237430	-0.129994
C20	C	-1.263701	-0.289954	-0.190774
C21	C	-1.418131	-0.289934	-0.069210
C22	C	-1.418136	-0.394952	-0.069201
C23	C	-1.340923	-0.447477	-0.129981
C24	C	-1.263706	-0.394982	-0.190769
C25	C	-1.495359	-0.447454	-0.008420
C26	C	-1.495368	-0.552479	-0.008409
C27	C	-1.418149	-0.605005	-0.069185
C28	C	-1.340928	-0.552505	-0.129976
C29	C	-1.263715	-0.605029	-0.190755
C30	C	-1.186488	-0.552530	-0.251542
C31	C	-1.186487	-0.447509	-0.251546
C32	C	-1.418150	-0.710027	-0.069182
C33	C	-1.263720	-0.710057	-0.190750
N34	N	-1.340938	0.237449	-0.129962
C35	C	-1.332895	0.000013	-0.294769
C36	C	-1.335292	0.000015	-0.394862
C37	C	-1.233038	0.000013	0.547878
C38	C	-1.439796	0.000014	0.568347
C39	C	-1.442049	0.000008	0.474304
C40	C	-1.339796	0.000006	0.417044
C41	C	-1.235289	0.000011	0.453827
C42	C	-1.546554	0.000014	0.437514
C43	C	-1.548812	0.000010	0.343467
C44	C	-1.446557	0.000001	0.286205
C45	C	-1.342046	0.000004	0.322993
C46	C	-1.239793	0.000002	0.265732
C47	C	-1.135280	-0.000002	0.302519
C48	C	-1.133034	0.000002	0.396565
C49	C	-1.448804	-0.000003	0.192158
C50	C	-1.242043	-0.000001	0.171681
H51	H	-1.123625	-0.595308	-0.301034
H52	H	-1.200820	-0.247207	-0.240264
N53	N	-1.030844	0.000009	0.244012
N54	N	-1.032880	0.000017	0.160045
H55	H	-0.959125	0.000027	0.118720
H56	H	-1.123612	-0.404758	-0.301037
H57	H	-1.200840	-0.752816	-0.240242
H58	H	-1.147947	0.000006	0.577834
H59	H	-1.481000	-0.247165	-0.019729
N60	N	-1.497025	-0.763613	-0.007067
N61	N	-1.567479	-0.822220	-0.036096
H62	H	-1.623187	-0.860046	0.007793
H63	H	-1.047946	-0.000001	0.426525
N64	N	-1.650998	0.000000	0.495999
N65	N	-1.720469	-0.070329	0.492345
H66	H	-1.794238	-0.070341	0.533653
N67	N	-1.574263	-0.393789	0.053619
N68	N	-1.574266	-0.300020	0.053585
H69	H	-1.630007	-0.262113	0.097390
H70	H	-1.633912	0.000012	0.313524
H71	H	-1.558250	-0.595217	0.041087
H72	H	-1.158775	-0.000007	0.125065
H73	H	-1.523045	0.000024	0.614973
N74	N	-1.555556	0.000017	0.154596
N75	N	-1.646845	0.000032	0.205731
H76	H	-1.722246	0.000047	0.179205
