data_functionalizedCrystal
_audit_creation_method	'MofGen! by Chris Wilmer'
_symmetry_space_group_name_H-M	'P1'
_symmetry_Int_Tables_number	1
_symmetry_cell_setting	triclinic
loop_
_symmetry_equiv_pos_as_xyz
  x,y,z
_cell_length_a	11.792254
_cell_length_b	14.519731
_cell_length_c	10.268362
_cell_angle_alpha	89.993732
_cell_angle_beta	89.995475
_cell_angle_gamma	83.943725
loop_
_atom_site_label
_atom_site_type_symbol
_atom_site_fract_x
_atom_site_fract_y
_atom_site_fract_z
O1	O	1.506211	0.126459	-0.108302
O2	O	2.006211	0.626459	0.391698
O3	O	1.175801	0.139474	-0.108305
O4	O	1.675801	0.639474	0.391695
O5	O	1.349754	-0.001238	-0.108292
O6	O	1.849754	0.498762	0.391708
O7	O	1.332258	0.267171	-0.108316
O8	O	1.832258	0.767171	0.391684
O9	O	1.349739	-0.001244	0.108309
O10	O	1.849739	0.498756	0.608309
O11	O	1.175786	0.139468	0.108295
O12	O	1.675786	0.639468	0.608295
O13	O	1.506196	0.126453	0.108298
O14	O	2.006196	0.626453	0.608298
Cu15	Cu	1.340990	0.132960	0.128074
Cu16	Cu	1.840990	0.632960	0.628074
Cu17	Cu	1.341007	0.132967	-0.128081
Cu18	Cu	1.841007	0.632967	0.371919
O19	O	1.332243	0.267165	0.108285
O20	O	1.832243	0.767165	0.608285
C21	C	1.133507	0.138651	-0.000005
C22	C	1.633507	0.638651	0.499995
C23	C	1.007508	0.136197	-0.000006
C24	C	1.507508	0.636197	0.499994
C25	C	0.905182	0.134203	-0.000012
C26	C	1.405182	0.634203	0.499988
C27	C	0.776809	0.131710	-0.000012
C28	C	1.276809	0.631710	0.499988
C29	C	1.348926	-0.035604	0.000009
C30	C	1.848926	0.464396	0.500009
C31	C	1.346470	-0.137993	0.000009
C32	C	1.846470	0.362007	0.500009
C33	C	1.344474	-0.221145	0.000006
C34	C	1.844474	0.278855	0.500006
C35	C	1.341980	-0.325463	-0.000004
C36	C	1.841980	0.174537	0.499996
C37	C	1.340000	-0.408609	-0.000012
C38	C	1.840000	0.091391	0.499988
C39	C	1.337506	-0.512934	-0.000020
C40	C	1.837506	-0.012934	0.499980
C41	C	1.548490	0.127276	-0.000005
C42	C	2.048490	0.627276	0.499995
C43	C	1.674489	0.129730	-0.000012
C44	C	2.174489	0.629730	0.499988
C45	C	1.333071	0.301531	-0.000019
C46	C	1.833071	0.801531	0.499981
C47	C	1.335527	0.403920	-0.000028
C48	C	1.835527	0.903920	0.499972
N49	N	1.340985	0.132955	0.308240
N50	N	1.840985	0.632955	0.808240
N51	N	1.341021	0.132965	-0.308247
N52	N	1.841021	0.632965	0.191753
C53	C	1.341002	0.132965	0.573911
C54	C	1.841002	0.632965	1.073911
C55	C	1.340989	0.132962	0.426073
C56	C	1.840989	0.632962	0.926073
