data_functionalizedCrystal
_audit_creation_method	'MofGen! by Chris Wilmer'
_symmetry_space_group_name_H-M	'P1'
_symmetry_Int_Tables_number	1
_symmetry_cell_setting	triclinic
loop_
_symmetry_equiv_pos_as_xyz
  x,y,z
_cell_length_a	17.077404
_cell_length_b	15.297327
_cell_length_c	17.077396
_cell_angle_alpha	99.647268
_cell_angle_beta	89.980499
_cell_angle_gamma	99.707136
loop_
_atom_site_label
_atom_site_type_symbol
_atom_site_fract_x
_atom_site_fract_y
_atom_site_fract_z
Zn1	Zn	1.145953	-0.359161	-0.497895
Zn2	Zn	1.645953	0.140839	0.002105
Zn3	Zn	1.123133	-0.510035	-0.389335
Zn4	Zn	1.623133	-0.010035	0.110665
Zn5	Zn	1.014680	-0.359192	-0.366647
Zn6	Zn	1.514680	0.140808	0.133353
Zn7	Zn	0.991934	-0.509981	-0.520550
Zn8	Zn	1.491934	-0.009981	-0.020550
O9	O	1.068925	-0.434592	-0.443607
O10	O	1.568925	0.065408	0.056393
O11	O	1.252771	-0.379184	-0.483507
O12	O	1.752771	0.120816	0.016493
O13	O	1.108715	-0.490061	-0.276484
O14	O	1.608715	0.009939	0.223516
O15	O	1.051163	-0.232941	-0.365082
O16	O	1.551163	0.267059	0.134918
O17	O	1.236005	-0.490030	-0.403749
O18	O	1.736005	0.009970	0.096251
O19	O	1.147608	-0.232918	-0.461508
O20	O	1.647608	0.267082	0.038492
O21	O	1.029035	-0.379238	-0.259815
O22	O	1.529035	0.120762	0.240185
O23	O	0.901817	-0.379186	-0.387050
O24	O	1.401817	0.120814	0.112950
O25	O	1.012395	-0.489939	-0.627386
O26	O	1.512395	0.010061	-0.127386
O27	O	0.885105	-0.489970	-0.500121
O28	O	1.385105	0.010030	-0.000121
O29	O	1.125553	-0.379132	-0.610742
O30	O	1.625553	0.120868	-0.110742
O31	O	1.086659	-0.636275	-0.425717
O32	O	1.586659	-0.136275	0.074283
O33	O	0.990268	-0.636236	-0.522120
O34	O	1.490268	-0.136236	-0.022120
C35	C	0.864979	-0.434576	-0.443583
C36	C	1.364979	0.065424	0.056417
C37	C	0.777727	-0.434591	-0.443594
C38	C	1.277727	0.065409	0.056406
C39	C	0.728043	-0.492363	-0.502403
C40	C	1.228043	0.007637	-0.002403
C41	C	0.646062	-0.492365	-0.502416
C42	C	1.146062	0.007635	-0.002416
C43	C	0.613767	-0.434599	-0.443616
C44	C	1.113767	0.065401	0.056384
C45	C	0.663458	-0.376820	-0.384804
C46	C	1.163458	0.123180	0.115196
C47	C	0.745438	-0.376814	-0.384795
C48	C	1.245438	0.123186	0.115205
C49	C	0.492585	-0.376838	-0.384825
C50	C	0.992585	0.123162	0.115175
C51	C	0.410599	-0.376844	-0.384833
C52	C	0.910599	0.123156	0.115167
C53	C	0.393210	-0.492389	-0.502446
C54	C	0.893210	0.007611	-0.002446
C55	C	0.475189	-0.492383	-0.502438
C56	C	0.975189	0.007617	-0.002438
C57	C	0.524875	-0.434605	-0.443624
C58	C	1.024875	0.065395	0.056376
C59	C	1.033541	-0.668990	-0.478856
C60	C	1.533541	-0.168990	0.021144
C61	C	1.018475	-0.769266	-0.493962
C62	C	1.518475	-0.269266	0.006038
C63	C	1.176925	-1.051885	-0.335910
C64	C	1.676925	-0.551885	0.164090
C65	C	1.191079	-0.957670	-0.321713
C66	C	1.691079	-0.457670	0.178287
C67	C	1.147930	-0.910565	-0.364774
C68	C	1.647930	-0.410565	0.135226
C69	C	1.090623	-0.957683	-0.422034
C70	C	1.590623	-0.457683	0.077966
C71	C	1.076462	-1.051907	-0.436228
C72	C	1.576462	-0.551907	0.063772
C73	C	1.047467	-0.910586	-0.465092
C74	C	1.547467	-0.410586	0.034908
C75	C	0.990160	-0.957705	-0.522352
C76	C	1.490160	-0.457705	-0.022352
C77	C	0.976003	-1.051919	-0.536544
C78	C	1.476003	-0.551919	-0.036544
C79	C	1.019152	-1.099025	-0.493483
C80	C	1.519152	-0.599025	0.006517
C81	C	1.061628	-0.816363	-0.450898
C82	C	1.561628	-0.316363	0.049102
C83	C	0.961165	-0.816384	-0.551217
C84	C	1.461165	-0.316384	-0.051217
C85	C	0.947010	-0.910599	-0.565413
C86	C	1.447010	-0.410599	-0.065413
C87	C	1.273666	-0.434609	-0.443632
C88	C	1.773666	0.065391	0.056368
C89	C	1.360915	-0.434617	-0.443642
C90	C	1.860915	0.065383	0.056358
C91	C	1.068982	-0.434526	-0.648341
C92	C	1.568982	0.065474	-0.148341
C93	C	1.069007	-0.434498	-0.735587
C94	C	1.569007	0.065502	-0.235587
C95	C	1.104468	-0.199279	-0.408237
C96	C	1.604468	0.300721	0.091763
C97	C	1.119615	-0.099003	-0.393165
C98	C	1.619615	0.400997	0.106835
C99	C	1.127930	-0.376795	-0.767910
C100	C	1.627930	0.123205	-0.267910
C101	C	1.127944	-0.376765	-0.849886
C102	C	1.627944	0.123235	-0.349886
C103	C	1.069037	-0.434443	-0.899538
C104	C	1.569037	0.065557	-0.399538
C105	C	1.010108	-0.492147	-0.867209
C106	C	1.510108	0.007853	-0.367209
C107	C	1.010091	-0.492172	-0.785234
C108	C	1.510091	0.007828	-0.285234
C109	C	1.010148	-0.492093	-1.038071
C110	C	1.510148	0.007907	-0.538071
C111	C	1.010165	-0.492070	-1.120052
C112	C	1.510165	0.007930	-0.620052
C113	C	1.128000	-0.376686	-1.102724
C114	C	1.628000	0.123314	-0.602724
C115	C	1.127984	-0.376711	-1.020748
C116	C	1.627984	0.123289	-0.520748
C117	C	1.069055	-0.434417	-0.988425
C118	C	1.569055	0.065583	-0.488425
C119	C	1.068922	-0.434593	-0.239659
C120	C	1.568922	0.065407	0.260341
C121	C	1.069088	-0.434368	-0.152376
C122	C	1.569088	0.065632	0.347624
H123	H	0.501481	-0.539426	-0.550314
H124	H	1.001481	-0.039426	-0.050314
Br125	Br	1.207978	-0.298374	-1.146590
Br126	Br	1.707978	0.201626	-0.646590
H127	H	1.237738	-0.919310	-0.275092
H128	H	1.737738	-0.419310	0.224908
Br129	Br	1.139398	-0.752428	-0.373190
Br130	Br	1.639398	-0.252428	0.126810
Br131	Br	0.325783	-0.570790	-0.582273
Br132	Br	0.825783	-0.070790	-0.082273
H133	H	0.754331	-0.539406	-0.550283
H134	H	1.254331	-0.039406	-0.050283
H135	H	0.962103	-0.539150	-0.758916
H136	H	1.462103	-0.039150	-0.258916
H137	H	1.212046	-1.090247	-0.300851
H138	H	1.712046	-0.590247	0.199149
H139	H	0.962196	-0.539034	-1.160477
H140	H	1.462196	-0.039034	-0.660477
H141	H	0.384309	-0.329795	-0.336961
H142	H	0.884309	0.170205	0.163039
Br143	Br	0.812869	-0.298401	-0.304983
Br144	Br	1.312869	0.201599	0.195017
Br145	Br	0.999593	-1.226892	-0.512396
Br146	Br	1.499593	-0.726892	-0.012396
H147	H	0.929330	-1.090280	-0.583160
H148	H	1.429330	-0.590280	-0.083160
H149	H	0.605612	-0.539410	-0.550304
H150	H	1.105612	-0.039410	-0.050304
H151	H	0.533038	-0.329781	-0.336939
H152	H	1.033038	0.170219	0.163061
Br153	Br	0.869240	-0.974555	-0.643123
Br154	Br	1.369240	-0.474555	-0.143123
H155	H	0.926027	-0.778032	-0.586279
H156	H	1.426027	-0.278032	-0.086279
H157	H	1.159457	-0.833851	-0.353211
H158	H	1.659457	-0.333851	0.146789
H159	H	0.637157	-0.329781	-0.336930
H160	H	1.137157	0.170219	0.163070
Br161	Br	1.207885	-0.298521	-0.700534
Br162	Br	1.707885	0.201479	-0.200534
Br163	Br	1.207935	-0.298442	-0.953365
Br164	Br	1.707935	0.201558	-0.453365
Br165	Br	0.930170	-0.570406	-0.994204
Br166	Br	1.430170	-0.070406	-0.494204
Br167	Br	1.207945	-0.298494	-0.893757
Br168	Br	1.707945	0.201506	-0.393757
Br169	Br	0.930157	-0.570420	-0.934591
Br170	Br	1.430157	-0.070420	-0.434591
