data_functionalizedCrystal
_audit_creation_method	'MofGen! by Chris Wilmer'
_symmetry_space_group_name_H-M	'P1'
_symmetry_Int_Tables_number	1
_symmetry_cell_setting	triclinic
loop_
_symmetry_equiv_pos_as_xyz
  x,y,z
_cell_length_a	19.805407
_cell_length_b	29.839131
_cell_length_c	19.805399
_cell_angle_alpha	89.970435
_cell_angle_beta	89.982197
_cell_angle_gamma	90.038737
loop_
_atom_site_label
_atom_site_type_symbol
_atom_site_fract_x
_atom_site_fract_y
_atom_site_fract_z
Zn1	Zn	1.034665	-0.178896	-0.382678
Zn2	Zn	1.034550	-0.254024	-0.269486
Zn3	Zn	0.921480	-0.178905	-0.269506
Zn4	Zn	0.921414	-0.253996	-0.382636
O5	O	0.978027	-0.216455	-0.326077
O6	O	1.129366	-0.188870	-0.367672
O7	O	1.019531	-0.244074	-0.174772
O8	O	0.936570	-0.116036	-0.284545
O9	O	1.129282	-0.244065	-0.284510
O10	O	1.019726	-0.116030	-0.367692
O11	O	0.936458	-0.188885	-0.174787
O12	O	0.826754	-0.188858	-0.284504
O13	O	0.936457	-0.244019	-0.477359
O14	O	0.826706	-0.244027	-0.367620
O15	O	1.019662	-0.188843	-0.477389
O16	O	1.019467	-0.316887	-0.284470
O17	O	0.936346	-0.316867	-0.367601
C18	C	0.802171	-0.216441	-0.326060
C19	C	0.726939	-0.216446	-0.326069
C20	C	0.691640	-0.187756	-0.369438
C21	C	0.620951	-0.187758	-0.369440
C22	C	0.585564	-0.216453	-0.326078
C23	C	0.620868	-0.245144	-0.282705
C24	C	0.691555	-0.245139	-0.282699
C25	C	0.335795	-0.245164	-0.282725
C26	C	0.265103	-0.245168	-0.282736
C27	C	0.265191	-0.187784	-0.369466
C28	C	0.335878	-0.187779	-0.369461
C29	C	0.371176	-0.216468	-0.326086
C30	C	0.447825	-0.216464	-0.326083
C31	C	0.508916	-0.216459	-0.326084
C32	C	0.977905	-0.333178	-0.326043
C33	C	0.977915	-0.383112	-0.326052
C34	C	1.021387	-0.692753	-0.282854
C35	C	1.021470	-0.880426	-0.282880
O36	O	1.058335	-0.904689	-0.246126
N37	N	0.978167	-0.903897	-0.326128
C38	C	0.934844	-0.880447	-0.369375
O39	O	0.898019	-0.904716	-0.406166
C40	C	0.934764	-0.692775	-0.369352
C41	C	0.978065	-0.669306	-0.326096
C42	C	1.064685	-0.669285	-0.239602
C43	C	1.064661	-0.622369	-0.239594
C44	C	1.021339	-0.598922	-0.282836
C45	C	0.978041	-0.622391	-0.326088
C46	C	0.891444	-0.669325	-0.412602
C47	C	0.891429	-0.622404	-0.412594
C48	C	0.934730	-0.598936	-0.369338
C49	C	0.934695	-0.552028	-0.369322
N50	N	0.977998	-0.528558	-0.326074
C51	C	1.021320	-0.552005	-0.282831
C52	C	0.934888	-0.978977	-0.369384
C53	C	0.934906	-1.025895	-0.369389
C54	C	1.021534	-1.025872	-0.282894
C55	C	1.021512	-0.978953	-0.282886
C56	C	0.978191	-0.955507	-0.326136
C57	C	1.021266	-0.453479	-0.282816
C58	C	1.021236	-0.406559	-0.282809
C59	C	0.934611	-0.406587	-0.369306
C60	C	0.934638	-0.453502	-0.369310
C61	C	0.977971	-0.476947	-0.326063
O62	O	0.897855	-0.527736	-0.406062
O63	O	1.058150	-0.527727	-0.246057
C64	C	1.021411	-0.739669	-0.282862
C65	C	0.978113	-0.763137	-0.326114
C66	C	0.934791	-0.739690	-0.369357
C67	C	0.978132	-0.810055	-0.326119
C68	C	1.021454	-0.833502	-0.282876
C69	C	1.064757	-0.810031	-0.239628
C70	C	1.064733	-0.763116	-0.239620
C71	C	0.891488	-0.763161	-0.412604
C72	C	0.891515	-0.810076	-0.412609
C73	C	0.934837	-0.833523	-0.369366
C74	C	1.154570	-0.216470	-0.326094
C75	C	1.229802	-0.216476	-0.326101
C76	C	0.978065	-0.216427	-0.502620
C77	C	0.978081	-0.216415	-0.577852
C78	C	0.978168	-0.099277	-0.326125
C79	C	0.978228	-0.049342	-0.326146
C80	C	1.021407	-0.187683	-0.613213
C81	C	1.021414	-0.187670	-0.683901
C82	C	0.978098	-0.216391	-0.719227
C83	C	0.934767	-0.245124	-0.683861
C84	C	0.934757	-0.245134	-0.613174
C85	C	0.934806	-0.245082	-0.968934
C86	C	0.934820	-0.245070	-1.039627
C87	C	1.021462	-0.187618	-1.039662
C88	C	1.021452	-0.187628	-0.968975
C89	C	0.978119	-0.216359	-0.933615
C90	C	0.978112	-0.216372	-0.856966
C91	C	0.978109	-0.216381	-0.795874
C92	C	0.978028	-0.216451	-0.150221
C93	C	0.978143	-0.216336	-0.074989
H94	H	0.592050	-0.268506	-0.247395
O95	O	0.849367	-0.740338	-0.454516
C96	C	0.805648	-0.713255	-0.415934
H97	H	0.829550	-0.706228	-0.364663
H98	H	0.755506	-0.731377	-0.408449
C99	C	0.763979	-0.677314	-0.516130
C100	C	0.793339	-0.668680	-0.453160
H101	H	0.756383	-0.649819	-0.539094
H102	H	0.793432	-0.695562	-0.542124
H103	H	0.722197	-0.692417	-0.509883
H104	H	0.835123	-0.653582	-0.459408
H105	H	0.763892	-0.650429	-0.427168
O106	O	1.063413	-0.159718	-0.578932
C107	C	1.048686	-0.114940	-0.596238
H108	H	0.994618	-0.112667	-0.615659
H109	H	1.084992	-0.103195	-0.637282
C110	C	1.122997	-0.087758	-0.509607
C111	C	1.056588	-0.084965	-0.533456
H112	H	1.127874	-0.069267	-0.470882
H113	H	1.132922	-0.117926	-0.497949
H114	H	1.153245	-0.077971	-0.543817
H115	H	1.026343	-0.094757	-0.499250
H116	H	1.046659	-0.054798	-0.545107
O117	O	0.892769	-0.273067	-0.578743
C118	C	0.931269	-0.302098	-0.537861
H119	H	0.982581	-0.286258	-0.527293
H120	H	0.938668	-0.335388	-0.565087
C121	C	0.830992	-0.329691	-0.483681
C122	C	0.894013	-0.310234	-0.470697
H123	H	0.808010	-0.334712	-0.442252
H124	H	0.805054	-0.310134	-0.511226
H125	H	0.837167	-0.357431	-0.506371
H126	H	0.887837	-0.282492	-0.448015
H127	H	0.919949	-0.329787	-0.443147
O128	O	1.063528	-0.159822	-0.718330
C129	C	1.107228	-0.185393	-0.759211
H130	H	1.083320	-0.219437	-0.769778
H131	H	1.157383	-0.190335	-0.731983
C132	C	1.148871	-0.118851	-0.813391
C133	C	1.119504	-0.160663	-0.826375
H134	H	1.156447	-0.103596	-0.854820
H135	H	1.119432	-0.101623	-0.785848
H136	H	1.190664	-0.122975	-0.790700
H137	H	1.077709	-0.156539	-0.849058
H138	H	1.148937	-0.177891	-0.853924
H139	H	1.099922	-0.603264	-0.204373
H140	H	0.899381	-0.472611	-0.404535
H141	H	1.056727	-0.164242	-0.940216
H142	H	0.720447	-0.164391	-0.404750
O143	O	1.063610	-0.956108	-0.240965
C144	C	1.107309	-0.928937	-0.279535
H145	H	1.083406	-0.921899	-0.330806
H146	H	1.157468	-0.946988	-0.287020
C147	C	1.148934	-0.893023	-0.179323
C148	C	1.119573	-0.884376	-0.242293
H149	H	1.156503	-0.865537	-0.156351
H150	H	1.119496	-0.911330	-0.153338
H151	H	1.190730	-0.908067	-0.185570
H152	H	1.077775	-0.869338	-0.236046
H153	H	1.149006	-0.866065	-0.268277
H154	H	0.592213	-0.164397	-0.404756
O155	O	1.063488	-0.159718	-1.074117
C156	C	1.054221	-0.165871	-1.144082
H157	H	1.001970	-0.180578	-1.153723
H158	H	1.094342	-0.189795	-1.164140
C159	C	1.124662	-0.102347	-1.168549
C160	C	1.060483	-0.120406	-1.180390
H161	H	1.128527	-0.074302	-1.190946
H162	H	1.130907	-0.098202	-1.121412
H163	H	1.158089	-0.122288	-1.185264
H164	H	1.027058	-0.100468	-1.163667
H165	H	1.054232	-0.124546	-1.227525
O166	O	0.892786	-0.273071	-0.718205
C167	C	0.931291	-0.302078	-0.759099
H168	H	0.984592	-0.304861	-0.737804
H169	H	0.933648	-0.288180	-0.812678
C170	C	0.832699	-0.345358	-0.786315
C171	C	0.898164	-0.348780	-0.760156
H172	H	0.812264	-0.374166	-0.786971
H173	H	0.806757	-0.325815	-0.758767
H174	H	0.834673	-0.333775	-0.830962
H175	H	0.896189	-0.360358	-0.715508
H176	H	0.924105	-0.368326	-0.787698
O177	O	0.892673	-0.272984	-1.073839
C178	C	0.854434	-0.298352	-1.027472
H179	H	0.852104	-0.279959	-0.977091
H180	H	0.879172	-0.332477	-1.019943
C181	C	0.785257	-0.327402	-1.116931
C182	C	0.782390	-0.304810	-1.055053
H183	H	0.740817	-0.331388	-1.133944
H184	H	0.811020	-0.310313	-1.148170
H185	H	0.805875	-0.355837	-1.110648
H186	H	0.761780	-0.276374	-1.061338
H187	H	0.756621	-0.321895	-1.023816
H188	H	0.364687	-0.164414	-0.404774
H189	H	0.856248	-0.829180	-0.447832
H190	H	0.899531	-0.268483	-0.940153
H191	H	0.236442	-0.164422	-0.404782
O192	O	1.063269	-0.383812	-0.240696
C193	C	1.048512	-0.395309	-0.173225
H194	H	1.022508	-0.429391	-0.171807
H195	H	1.013716	-0.368935	-0.150388
C196	C	1.146461	-0.355593	-0.134028
C197	C	1.114528	-0.397455	-0.132286
H198	H	1.187182	-0.356915	-0.108774
H199	H	1.156403	-0.347845	-0.179484
H200	H	1.117458	-0.333619	-0.114999
H201	H	1.143528	-0.419427	-0.151323
H202	H	1.104593	-0.405206	-0.086832
O203	O	0.370045	-0.273099	-0.240667
C204	C	0.352723	-0.317887	-0.255328
H205	H	0.333318	-0.320203	-0.309398
H206	H	0.311662	-0.329599	-0.219016
C207	C	0.439318	-0.345017	-0.180945
C208	C	0.415489	-0.347862	-0.247357
H209	H	0.478033	-0.363508	-0.176025
H210	H	0.450986	-0.314842	-0.171065
H211	H	0.405094	-0.354776	-0.150692
H212	H	0.449709	-0.338097	-0.277607
H213	H	0.403828	-0.378036	-0.257241
O214	O	1.063268	-0.476302	-0.240781
C215	C	1.024782	-0.503481	-0.197019
H216	H	0.973475	-0.510536	-0.220838
H217	H	1.017372	-0.485427	-0.146847
C218	C	1.125077	-0.539361	-0.155560
C219	C	1.062062	-0.548030	-0.184818
H220	H	1.148073	-0.566840	-0.148030
H221	H	1.151006	-0.521049	-0.185041
H222	H	1.118892	-0.524316	-0.113753
H223	H	1.068247	-0.563070	-0.226627
H224	H	1.036134	-0.566345	-0.155344
O225	O	1.106883	-0.691993	-0.197625
C226	C	1.174315	-0.680464	-0.212510
H227	H	1.175651	-0.646396	-0.238552
H228	H	1.197122	-0.706844	-0.247317
C229	C	1.213723	-0.720100	-0.114586
C230	C	1.215364	-0.678255	-0.146566
H231	H	1.239045	-0.718739	-0.073910
H232	H	1.168293	-0.727869	-0.104559
H233	H	1.232728	-0.742079	-0.143598
H234	H	1.196352	-0.656278	-0.117557
H235	H	1.260792	-0.670482	-0.156587
O236	O	0.892817	-1.048620	-0.411466
C237	C	0.854568	-1.017858	-0.449617
H238	H	0.882280	-0.984396	-0.451977
H239	H	0.803176	-1.012910	-0.424784
C240	C	0.810741	-1.077241	-0.518753
C241	C	0.844780	-1.036143	-0.521655
H242	H	0.804700	-1.088520	-0.563188
H243	H	0.836508	-1.097966	-0.493048
H244	H	0.767917	-1.073111	-0.498056
H245	H	0.887606	-1.040274	-0.542344
H246	H	0.819020	-1.015419	-0.547365
H247	H	0.236292	-0.268536	-0.247422
O248	O	0.892766	-0.956155	-0.411301
C249	C	0.849048	-0.929068	-0.372723
H250	H	0.872950	-0.922039	-0.321453
H251	H	0.798905	-0.947188	-0.365236
C252	C	0.807384	-0.893130	-0.472924
C253	C	0.836744	-0.884494	-0.409955
H254	H	0.799792	-0.865636	-0.495891
H255	H	0.836836	-0.911380	-0.498915
H256	H	0.765601	-0.908231	-0.466676
H257	H	0.878530	-0.869398	-0.416204
H258	H	0.807299	-0.866240	-0.383965
H259	H	0.720295	-0.268501	-0.247384
H260	H	1.056809	-1.044970	-0.247684
O261	O	0.849479	-0.692163	-0.454661
C262	C	0.888005	-0.719247	-0.498430
H263	H	0.939310	-0.726261	-0.474598
H264	H	0.895418	-0.701132	-0.548585
C265	C	0.787757	-0.755214	-0.539953
C266	C	0.850769	-0.763831	-0.510679
H267	H	0.764788	-0.782715	-0.547512
H268	H	0.761801	-0.736966	-0.510467
H269	H	0.793943	-0.740117	-0.581746
H270	H	0.844582	-0.778922	-0.468884
H271	H	0.876724	-0.782083	-0.540158
O272	O	0.849442	-0.599608	-0.454679
C273	C	0.887939	-0.572417	-0.498413
H274	H	0.941253	-0.586518	-0.502641
H275	H	0.890263	-0.536865	-0.477483
C276	C	0.789352	-0.554371	-0.563555
C277	C	0.854832	-0.571692	-0.568752
H278	H	0.768930	-0.553922	-0.606943
H279	H	0.763415	-0.572689	-0.534089
H280	H	0.791298	-0.524746	-0.546110
H281	H	0.852885	-0.601318	-0.586189
H282	H	0.880768	-0.553379	-0.598223
O283	O	1.106943	-0.832757	-0.197656
C284	C	1.174384	-0.821245	-0.212531
H285	H	1.175745	-0.787168	-0.238545
H286	H	1.197171	-0.847620	-0.247359
C287	C	1.213761	-0.860931	-0.114639
C288	C	1.215434	-0.819074	-0.146585
H289	H	1.239084	-0.859593	-0.073962
H290	H	1.168325	-0.868688	-0.104619
H291	H	1.232749	-0.882905	-0.143670
H292	H	1.196438	-0.797102	-0.117558
H293	H	1.260868	-0.811313	-0.156599
H294	H	0.899337	-0.387489	-0.404511
H295	H	1.099993	-0.744011	-0.204397
