data_functionalizedCrystal
_audit_creation_method	'MofGen! by Chris Wilmer'
_symmetry_space_group_name_H-M	'P1'
_symmetry_Int_Tables_number	1
_symmetry_cell_setting	triclinic
loop_
_symmetry_equiv_pos_as_xyz
  x,y,z
_cell_length_a	15.021413
_cell_length_b	16.109301
_cell_length_c	16.109301
_cell_angle_alpha	83.461481
_cell_angle_beta	90.002593
_cell_angle_gamma	89.995406
loop_
_atom_site_label
_atom_site_type_symbol
_atom_site_fract_x
_atom_site_fract_y
_atom_site_fract_z
O1	O	0.073979	-1.103137	-0.106856
O2	O	0.073993	-0.861075	-0.120155
O3	O	0.073976	-0.988755	0.007525
O4	O	0.073995	-0.975456	-0.234537
O5	O	-0.074088	-0.988735	0.007507
O6	O	-0.074071	-0.861054	-0.120174
O7	O	-0.074086	-1.103116	-0.106874
Zn8	Zn	-0.097587	-0.982082	-0.113527
Zn9	Zn	0.097494	-0.982109	-0.113503
O10	O	-0.074069	-0.975436	-0.234555
C11	C	-0.000037	-0.830090	-0.119626
C12	C	-0.000032	-0.737794	-0.118011
C13	C	-0.000056	-0.988206	0.038491
C14	C	-0.000057	-0.986591	0.130786
N15	N	-0.230724	-0.982070	-0.113543
C16	C	-0.470400	-0.923021	-0.172554
C17	C	-0.529737	-0.998143	-0.188671
C18	C	-0.412331	-0.982091	-0.113522
C19	C	-0.529735	-0.906990	-0.097424
C20	C	-0.587755	-0.982105	-0.113504
C21	C	-0.470362	-1.057251	-0.129676
C22	C	-0.470355	-0.966048	-0.038396
C23	C	-0.529666	-1.041224	-0.054481
C24	C	-0.311274	-0.982082	-0.113535
C25	C	-0.688811	-0.982123	-0.113491
N26	N	0.230632	-0.982128	-0.113480
C27	C	-0.000053	-1.134101	-0.107404
C28	C	-0.000053	-1.226397	-0.109019
C29	C	-0.000037	-0.515522	-0.190018
C30	C	-0.000043	-0.428801	-0.188494
C31	C	-0.000051	-0.448676	-0.037006
C32	C	-0.000051	-0.535394	-0.038530
C33	C	-0.000040	-0.568815	-0.115039
C34	C	-0.000045	-0.395376	-0.111990
C35	C	-0.000051	-0.301350	-0.110337
C36	C	-0.000035	-0.662847	-0.116693
C37	C	-0.000034	-0.975984	-0.265521
C38	C	-0.000027	-0.977600	-0.357816
C39	C	-0.000048	-1.058599	0.353059
C40	C	-0.000040	-1.057075	0.439779
C41	C	-0.000035	-0.905586	0.419905
C42	C	-0.000036	-0.907111	0.333186
C43	C	-0.000047	-0.983620	0.299766
C44	C	-0.000038	-0.980571	0.473205
C45	C	-0.000030	-0.978918	0.567231
C46	C	-0.000053	-0.985273	0.205734
H47	H	-0.444378	-0.873118	-0.222517
F48	F	-0.000058	-1.140026	0.317493
H49	H	-0.000027	-0.843295	0.447127
F50	F	-0.563470	-1.106594	0.010784
H51	H	-0.000039	-1.118130	0.483168
F52	F	-0.436233	-0.948266	0.044608
F53	F	-0.563826	-0.823969	-0.079636
F54	F	-0.000060	-0.592117	0.041277
H55	H	-0.000032	-0.846050	0.289792
H56	H	-0.000034	-0.542730	-0.252317
H57	H	-0.555820	-1.011725	-0.252195
F58	F	-0.000059	-0.413100	0.044416
H59	H	-0.444392	-1.120782	-0.143359
F60	F	-0.000041	-0.372086	-0.268298
