data_functionalizedCrystal
_audit_creation_method	'MofGen! by Chris Wilmer'
_symmetry_space_group_name_H-M	'P1'
_symmetry_Int_Tables_number	1
_symmetry_cell_setting	triclinic
loop_
_symmetry_equiv_pos_as_xyz
  x,y,z
_cell_length_a	10.540514
_cell_length_b	22.610064
_cell_length_c	10.540539
_cell_angle_alpha	89.993336
_cell_angle_beta	95.479674
_cell_angle_gamma	89.991153
loop_
_atom_site_label
_atom_site_type_symbol
_atom_site_fract_x
_atom_site_fract_y
_atom_site_fract_z
O1	O	1.685915	-0.049189	-0.178730
O2	O	2.185915	0.450811	0.321270
O3	O	1.316498	-0.049188	-0.195619
O4	O	1.816498	0.450812	0.304381
O5	O	1.509634	-0.049188	-0.002467
O6	O	2.009634	0.450812	0.497533
O7	O	1.492778	-0.049189	-0.371882
O8	O	1.992778	0.450811	0.128118
O9	O	1.509600	0.049181	-0.002497
O10	O	2.009600	0.549181	0.497503
O11	O	1.316463	0.049181	-0.195649
O12	O	1.816463	0.549181	0.304351
O13	O	1.685880	0.049180	-0.178759
O14	O	2.185880	0.549180	0.321241
Zn15	Zn	1.501166	0.064799	-0.187209
Zn16	Zn	2.001166	0.564799	0.312791
Zn17	Zn	1.501212	-0.064807	-0.187170
Zn18	Zn	2.001212	0.435193	0.312830
O19	O	1.492744	0.049180	-0.371911
O20	O	1.992744	0.549180	0.128089
C21	C	1.269177	-0.000004	-0.194374
C22	C	1.769177	0.499996	0.305626
C23	C	1.128227	-0.000003	-0.190605
C24	C	1.628227	0.499997	0.309395
N25	N	1.501145	0.153251	-0.187235
N26	N	2.001145	0.653251	0.312765
C27	C	1.057522	-0.000005	-0.328745
C28	C	1.557522	0.499995	0.171255
C29	C	0.910908	-0.000231	-0.324871
C30	C	1.410908	0.499769	0.175129
C31	C	0.935909	-0.056071	-0.115461
C32	C	1.435909	0.443929	0.384539
C33	C	1.082449	-0.056115	-0.120315
C34	C	1.582449	0.443885	0.379685
C35	C	1.082812	0.055753	-0.118304
C36	C	1.582812	0.555753	0.381696
C37	C	0.935833	0.056487	-0.116972
C38	C	1.435833	0.556487	0.383028
C39	C	1.586735	0.561893	-0.101665
C40	C	2.086735	1.061893	0.398335
C41	C	1.586741	0.623813	-0.101657
C42	C	2.086741	1.123813	0.398343
O43	O	1.659460	0.655832	-0.028916
O44	O	2.159460	1.155832	0.471084
N45	N	1.501209	0.654788	-0.187155
N46	N	2.001209	1.154788	0.312845
C47	C	1.415655	0.623841	-0.272657
C48	C	1.915655	1.123841	0.227343
O49	O	1.342903	0.655874	-0.345378
O50	O	1.842903	1.155874	0.154622
C51	C	1.415644	0.561922	-0.272658
C52	C	1.915644	1.061922	0.227342
C53	C	1.501191	0.530950	-0.187164
C54	C	2.001191	1.030950	0.312836
C55	C	1.672274	0.530920	-0.016177
C56	C	2.172274	1.030920	0.483823
C57	C	1.672269	0.469005	-0.016187
C58	C	2.172269	0.969005	0.483813
C59	C	1.586725	0.438062	-0.101685
C60	C	2.086725	0.938062	0.398315
C61	C	1.501186	0.469034	-0.187174
C62	C	2.001186	0.969034	0.312826
C63	C	1.330086	0.530976	-0.358154
C64	C	1.830086	1.030976	0.141846
C65	C	1.330081	0.469053	-0.358147
C66	C	1.830081	0.969053	0.141853
C67	C	1.415628	0.438080	-0.272652
C68	C	1.915628	0.938080	0.227348
C69	C	1.415637	0.376175	-0.272683
C70	C	1.915637	0.876175	0.227317
N71	N	1.501170	0.345200	-0.187185
N72	N	2.001170	0.845200	0.312815
C73	C	1.586714	0.376143	-0.101686
C74	C	2.086714	0.876143	0.398314
C75	C	1.415684	0.753875	-0.272647
C76	C	1.915684	1.253875	0.227353
C77	C	1.415701	0.815792	-0.272653
C78	C	1.915701	1.315792	0.227347
C79	C	1.586785	0.815760	-0.101651
C80	C	2.086785	1.315760	0.398349
C81	C	1.586774	0.753841	-0.101652
C82	C	2.086774	1.253841	0.398348
C83	C	1.501217	0.722899	-0.187149
C84	C	2.001217	1.222899	0.312851
C85	C	1.586698	0.246115	-0.101715
C86	C	2.086698	0.746115	0.398285
C87	C	1.586688	0.184194	-0.101736
C88	C	2.086688	0.684194	0.398264
C89	C	1.415600	0.184232	-0.272733
C90	C	1.915600	0.684232	0.227267
C91	C	1.415613	0.246148	-0.272717
C92	C	1.915613	0.746148	0.227283
C93	C	1.501166	0.277088	-0.187197
C94	C	2.001166	0.777088	0.312803
O95	O	1.342952	0.344117	-0.345383
O96	O	1.842952	0.844117	0.154617
O97	O	1.659443	0.344102	-0.028966
O98	O	2.159443	0.844102	0.471034
C99	C	1.733201	-0.000006	-0.180004
C100	C	2.233201	0.499994	0.319996
C101	C	1.874151	-0.000010	-0.183774
C102	C	2.374151	0.499990	0.316226
C103	C	1.508353	-0.000004	0.044821
C104	C	2.008353	0.499996	0.544821
C105	C	1.504571	-0.000008	0.185769
C106	C	2.004571	0.499992	0.685769
N107	N	1.501241	0.846741	-0.187149
N108	N	2.001241	1.346741	0.312851
C109	C	1.494025	-0.000005	-0.419199
C110	C	1.994025	0.499995	0.080801
C111	C	1.497807	-0.000006	-0.560147
C112	C	1.997807	0.499994	-0.060147
C113	C	1.359652	-0.000228	0.369182
C114	C	1.859652	0.499772	0.869182
C115	C	1.363486	-0.000007	0.222564
C116	C	1.863486	0.499993	0.722564
C117	C	1.572448	0.056166	0.247415
C118	C	2.072448	0.556166	0.747415
C119	C	1.567633	0.056213	0.393959
C120	C	2.067633	0.556213	0.893959
C121	C	1.570541	-0.055651	0.394512
C122	C	2.070541	0.444349	0.894512
C123	C	1.571841	-0.056394	0.247530
C124	C	2.071841	0.443606	0.747530
H125	H	0.868230	0.039946	-0.378600
H126	H	1.368230	0.539946	0.121400
F127	F	1.144598	0.056468	0.014869
F128	F	1.644598	0.556468	0.514869
H129	H	0.911647	0.060039	-0.014127
H130	H	1.411647	0.560039	0.485873
F131	F	1.507435	-0.110718	0.193541
F132	F	2.007435	0.389282	0.693541
F133	F	1.123957	0.111312	-0.178424
F134	F	1.623957	0.611312	0.321576
F135	F	1.095433	0.052330	-0.402286
F136	F	1.595433	0.552330	0.097714
H137	H	0.869191	-0.040655	-0.378346
H138	H	1.369191	0.459345	0.121654
H139	H	1.669098	0.058762	0.441936
H140	H	2.169098	0.558762	0.941936
F141	F	1.097044	-0.052476	-0.400906
F142	F	1.597044	0.447524	0.099094
F143	F	1.677745	0.151234	-0.010740
F144	F	2.177745	0.651234	0.489260
H145	H	1.656433	0.728627	-0.032034
H146	H	2.156433	1.228627	0.467966
H147	H	1.110688	-0.098182	-0.170183
H148	H	1.610688	0.401818	0.329817
F149	F	1.145201	-0.059239	0.012316
F150	F	1.645201	0.440761	0.512316
H151	H	1.525268	0.097969	0.204799
H152	H	2.025268	0.597969	0.704799
H153	H	1.741925	0.443790	0.053434
H154	H	2.241925	0.943790	0.553434
F155	F	1.293145	0.052713	0.167958
F156	F	1.793145	0.552713	0.667958
F157	F	1.324667	0.848749	-0.363664
F158	F	1.824667	1.348749	0.136336
F159	F	1.286894	0.051986	0.409071
F160	F	1.786894	0.551986	0.909071
H161	H	0.913595	-0.057997	-0.011829
H162	H	1.413595	0.442003	0.488171
H163	H	0.893317	-0.097951	-0.162263
H164	H	1.393317	0.402049	0.337737
H165	H	1.656438	0.840965	-0.032031
H166	H	2.156438	1.340965	0.467969
H167	H	0.894823	0.097962	-0.166895
H168	H	1.394823	0.597962	0.333105
H169	H	1.656361	0.271300	-0.032075
H170	H	2.156361	0.771300	0.467925
F171	F	1.324577	0.279110	-0.363725
F172	F	1.824577	0.779110	0.136275
H173	H	1.741934	0.556109	0.053453
H174	H	2.241934	1.056109	0.553453
H175	H	1.346017	0.728685	-0.342280
H176	H	1.846017	1.228685	0.157720
H177	H	1.260425	0.556185	-0.427771
H178	H	1.760425	1.056185	0.072229
H179	H	1.260406	0.443863	-0.427768
H180	H	1.760406	0.943863	0.072232
F181	F	1.707872	0.058898	0.218211
F182	F	2.207872	0.558898	0.718211
F183	F	1.324564	0.151291	-0.363726
F184	F	1.824564	0.651291	0.136274
F185	F	1.293675	-0.052639	0.166885
F186	F	1.793675	0.447361	0.666885
H187	H	1.303934	-0.040511	0.397789
H188	H	1.803934	0.459489	0.897789
H189	H	1.517439	0.098204	0.422142
H190	H	2.017439	0.598204	0.922142
F191	F	1.510868	-0.111301	0.435751
F192	F	2.010868	0.388699	0.935751
F193	F	1.706289	-0.060831	0.215879
F194	F	2.206289	0.439169	0.715879
H195	H	1.672446	-0.056029	0.441747
H196	H	2.172446	0.443971	0.941747
