data_functionalizedCrystal
_audit_creation_method	'MofGen! by Chris Wilmer'
_symmetry_space_group_name_H-M	'P1'
_symmetry_Int_Tables_number	1
_symmetry_cell_setting	triclinic
loop_
_symmetry_equiv_pos_as_xyz
  x,y,z
_cell_length_a	11.792254
_cell_length_b	19.288874
_cell_length_c	17.766277
_cell_angle_alpha	89.993108
_cell_angle_beta	90.010550
_cell_angle_gamma	96.330589
loop_
_atom_site_label
_atom_site_type_symbol
_atom_site_fract_x
_atom_site_fract_y
_atom_site_fract_z
O1	O	-1.505469	0.095242	-0.062616
O2	O	-1.174982	0.105044	-0.062613
O3	O	-1.349769	-0.000932	-0.062609
O4	O	-1.330681	0.201219	-0.062621
O5	O	-1.349738	-0.000938	0.062580
O6	O	-1.174951	0.105039	0.062575
O7	O	-1.505438	0.095237	0.062572
Cu8	Cu	-1.340192	0.100137	0.074004
Cu9	Cu	-1.340228	0.100144	-0.074046
O10	O	-1.330651	0.201213	0.062568
C11	C	-1.132685	0.104424	-0.000019
C12	C	-1.006700	0.102576	-0.000017
C13	C	-0.904386	0.101074	-0.000019
C14	C	-0.776028	0.099197	-0.000017
C15	C	-1.349138	-0.026815	-0.000015
C16	C	-1.347288	-0.103928	-0.000015
C17	C	-1.333995	-0.659577	0.068207
C18	C	-1.335720	-0.587119	0.068211
C19	C	-1.336604	-0.550880	-0.000028
C20	C	-1.335734	-0.587102	-0.068277
C21	C	-1.333998	-0.659557	-0.068279
C22	C	-1.405841	-0.441151	-0.052308
C23	C	-1.407584	-0.368697	-0.052303
C24	C	-1.341955	-0.327403	-0.000025
C25	C	-1.274597	-0.358572	0.052261
C26	C	-1.272861	-0.431027	0.052259
C27	C	-1.338487	-0.472314	-0.000034
C28	C	-1.344688	-0.212622	0.068224
C29	C	-1.346406	-0.140163	0.068225
C30	C	-1.346432	-0.140148	-0.068265
C31	C	-1.344702	-0.212605	-0.068264
C32	C	-1.343836	-0.248838	-0.000018
C33	C	-0.547735	0.095857	-0.000021
C34	C	-0.673720	0.097705	-0.000016
C35	C	-1.331282	0.227096	-0.000028
C36	C	-1.333131	0.304210	-0.000033
N37	N	-1.340175	0.100132	0.178135
N38	N	-1.340254	0.100143	-0.178176
C39	C	-1.417595	0.053229	0.217524
C40	C	-1.417602	0.053226	0.296325
C41	C	-1.340198	0.100138	0.335735
C42	C	-1.262763	0.147044	0.296337
C43	C	-1.262751	0.147042	0.217537
C44	C	-1.325008	0.163339	0.460570
C45	C	-1.325028	0.163342	0.539369
C46	C	-1.340229	0.100146	0.578782
C47	C	-1.355434	0.036944	0.539386
C48	C	-1.355422	0.036941	0.460586
C49	C	-1.340202	0.100146	0.421181
C50	C	-1.417661	0.053236	0.703616
C51	C	-1.417660	0.053232	0.782420
C52	C	-1.262826	0.147056	0.782430
C53	C	-1.262822	0.147054	0.703628
C54	C	-1.340246	0.100145	0.664226
H55	H	-1.336402	-0.557626	0.123782
H56	H	-1.333287	-0.689073	0.123779
O57	O	-1.207324	-0.461190	0.103070
C58	C	-1.075643	-0.443513	0.206806
C59	C	-1.149796	-0.409263	0.149296
H60	H	-1.029130	-0.401548	0.244205
H61	H	-1.010619	-0.472514	0.175772
H62	H	-1.132355	-0.481847	0.243052
H63	H	-1.093175	-0.370899	0.113034
H64	H	-1.214827	-0.380306	0.180377
O65	O	-1.187418	0.192545	0.334584
C66	C	-0.989878	0.232447	0.358694
C67	C	-1.075089	0.180871	0.315348
H68	H	-0.899042	0.223037	0.343147
H69	H	-1.003089	0.224394	0.421791
H70	H	-1.004431	0.288136	0.343197
H71	H	-1.060588	0.125162	0.330783
H72	H	-1.061857	0.188985	0.252262
H73	H	-1.199705	0.185236	0.185466
H74	H	-1.343972	-0.242124	0.123794
H75	H	-1.336451	-0.557591	-0.123838
O76	O	-1.492745	0.007589	0.665345
C77	C	-1.559949	-0.112888	0.641193
C78	C	-1.474837	-0.061284	0.684582
H79	H	-1.545516	-0.168583	0.656743
H80	H	-1.546615	-0.104861	0.578104
H81	H	-1.650792	-0.103416	0.656651
H82	H	-1.383960	-0.070725	0.669188
H83	H	-1.488271	-0.069324	0.747661
O84	O	-1.187478	0.192558	0.820668
C85	C	-0.989938	0.232467	0.844770
C86	C	-1.075150	0.180887	0.801427
H87	H	-0.899102	0.223059	0.829217
H88	H	-1.003141	0.224413	0.907866
H89	H	-1.004497	0.288154	0.829272
H90	H	-1.060642	0.125180	0.816861
H91	H	-1.061926	0.189002	0.738341
O92	O	-1.187736	0.192720	0.665397
C93	C	-1.120570	0.313219	0.641318
C94	C	-1.205693	0.261578	0.684646
H95	H	-1.135043	0.368901	0.656876
H96	H	-1.133853	0.305222	0.578219
H97	H	-1.029731	0.303756	0.656822
H98	H	-1.296566	0.271010	0.669205
H99	H	-1.192311	0.269587	0.747734
O100	O	-1.492863	0.007758	0.334678
C101	C	-1.647995	-0.006371	0.423580
C102	C	-1.562808	0.045198	0.380213
H103	H	-1.704583	0.023880	0.460393
H104	H	-1.599251	-0.041265	0.460541
H105	H	-1.703271	-0.039911	0.381864
H106	H	-1.507510	0.078784	0.421874
H107	H	-1.611622	0.080045	0.343241
H108	H	-1.347106	-0.110678	0.123796
H109	H	-1.221159	-0.324952	0.094833
O110	O	-1.310407	0.224689	0.422201
C111	C	-1.390040	0.300272	0.333234
C112	C	-1.406710	0.230770	0.376626
H113	H	-1.467898	0.305218	0.296388
H114	H	-1.310772	0.301648	0.296304
H115	H	-1.379135	0.345433	0.374934
H116	H	-1.417665	0.185570	0.334980
H117	H	-1.485957	0.229455	0.413568
H118	H	-1.459279	-0.474767	-0.094887
O119	O	-1.347060	-0.104884	-0.134521
C120	C	-1.250504	-0.015671	-0.213742
C121	C	-1.249724	-0.055534	-0.138661
H122	H	-1.171805	0.024227	-0.217120
H123	H	-1.330637	0.012276	-0.217240
H124	H	-1.249614	-0.054047	-0.262478
H125	H	-1.250573	-0.017205	-0.089882
H126	H	-1.169598	-0.083492	-0.135228
H127	H	-1.333293	-0.689042	-0.123850
H128	H	-1.367799	-0.014520	0.428513
O129	O	-1.492679	0.007470	0.179398
C130	C	-1.559641	-0.113124	0.155706
C131	C	-1.474532	-0.061317	0.198844
H132	H	-1.545015	-0.168748	0.171424
H133	H	-1.546498	-0.105271	0.092578
H134	H	-1.650483	-0.103698	0.171221
H135	H	-1.383656	-0.070711	0.183392
H136	H	-1.487775	-0.069181	0.261961
H137	H	-1.480701	0.015034	0.814491
O138	O	-1.343940	-0.247686	-0.134620
C139	C	-1.344104	-0.240019	-0.269997
C140	C	-1.344995	-0.200207	-0.194900
H141	H	-1.344932	-0.201648	-0.318752
H142	H	-1.422724	-0.279974	-0.273458
H143	H	-1.263906	-0.267911	-0.273372
H144	H	-1.425140	-0.172274	-0.191474
H145	H	-1.266321	-0.160292	-0.191471
O146	O	-1.472877	-0.338447	-0.103192
C147	C	-1.511800	-0.319225	-0.234250
C148	C	-1.437754	-0.353503	-0.176696
H149	H	-1.483446	-0.331398	-0.293691
H150	H	-1.501766	-0.260338	-0.225336
H151	H	-1.605071	-0.340606	-0.226326
H152	H	-1.344455	-0.332178	-0.184586
H153	H	-1.447885	-0.412388	-0.185626
O154	O	-1.370072	-0.024500	0.577573
C155	C	-1.298807	-0.134748	0.601737
C156	C	-1.282097	-0.065201	0.558430
H157	H	-1.227679	-0.167668	0.586288
H158	H	-1.384820	-0.164158	0.586212
H159	H	-1.296257	-0.123882	0.664822
H160	H	-1.284592	-0.076005	0.495335
H161	H	-1.196097	-0.035812	0.574018
H162	H	-1.312654	0.214805	0.571438
