data_functionalizedCrystal
_audit_creation_method	'MofGen! by Chris Wilmer'
_symmetry_space_group_name_H-M	'P1'
_symmetry_Int_Tables_number	1
_symmetry_cell_setting	triclinic
loop_
_symmetry_equiv_pos_as_xyz
  x,y,z
_cell_length_a	15.995350
_cell_length_b	14.044220
_cell_length_c	13.101039
_cell_angle_alpha	93.659868
_cell_angle_beta	93.364563
_cell_angle_gamma	91.659374
loop_
_atom_site_label
_atom_site_type_symbol
_atom_site_fract_x
_atom_site_fract_y
_atom_site_fract_z
O1	O	0.197637	-1.262914	-0.085096
O2	O	0.697637	-0.762914	0.414904
O3	O	0.190352	-0.986946	-0.085122
O4	O	0.690352	-0.486946	0.414878
O5	O	0.072670	-1.132474	-0.085107
O6	O	0.572670	-0.632474	0.414893
O7	O	0.315319	-1.117386	-0.085111
O8	O	0.815319	-0.617386	0.414889
O9	O	0.081129	-1.122032	0.085321
O10	O	0.581129	-0.622032	0.585321
O11	O	0.198810	-0.976505	0.085307
O12	O	0.698810	-0.476505	0.585307
O13	O	0.206096	-1.252472	0.085333
O14	O	0.706096	-0.752472	0.585333
Zn15	Zn	0.203796	-1.112831	0.112379
Zn16	Zn	0.703796	-0.612831	0.612379
Zn17	Zn	0.192651	-1.126588	-0.112168
Zn18	Zn	0.692651	-0.626588	0.387832
O19	O	0.323777	-1.106945	0.085318
O20	O	0.823777	-0.606945	0.585318
C21	C	0.191392	-0.946411	0.000089
C22	C	0.691392	-0.446411	0.500089
C23	C	0.181881	-0.841186	0.000079
C24	C	0.681881	-0.341186	0.500079
C25	C	0.045658	-1.126629	0.000105
C26	C	0.545658	-0.626629	0.500105
C27	C	-0.047432	-1.124760	0.000099
C28	C	0.452568	-0.624760	0.500099
N29	N	0.211402	-1.103449	0.265626
N30	N	0.711402	-0.603449	0.765626
C31	C	-0.385681	-1.118044	0.000102
C32	C	0.114319	-0.618044	0.500102
C33	C	-0.346007	-1.014425	-0.000290
C34	C	0.153993	-0.514425	0.499710
C35	C	-0.249158	-1.016272	0.000094
C36	C	0.250842	-0.516272	0.500094
C37	C	-0.217872	-1.121375	0.000100
C38	C	0.282128	-0.621375	0.500100
C39	C	-0.250301	-1.166533	0.097426
C40	C	0.249699	-0.666533	0.597426
C41	C	-0.347127	-1.163924	0.097507
C42	C	0.152873	-0.663924	0.597507
C43	C	-0.356944	-1.177939	-0.096302
C44	C	0.143056	-0.677939	0.403698
C45	C	-0.260065	-1.177993	-0.097588
C46	C	0.239935	-0.677993	0.402412
C47	C	-0.123033	-1.123263	0.000102
C48	C	0.376967	-0.623263	0.500102
C49	C	-0.480519	-1.116159	0.000106
C50	C	0.019481	-0.616159	0.500106
C51	C	0.350789	-1.112789	0.000103
C52	C	0.850789	-0.612789	0.500103
C53	C	0.443879	-1.114659	0.000103
C54	C	0.943879	-0.614659	0.500103
C55	C	0.205055	-1.293008	0.000120
C56	C	0.705055	-0.793008	0.500120
C57	C	0.214566	-1.398233	0.000123
C58	C	0.714566	-0.898233	0.500123
C59	C	0.164494	-0.648524	0.000099
C60	C	0.664494	-0.148524	0.500099
C61	C	0.231950	-0.590890	0.000102
C62	C	0.731950	-0.090890	0.500102
C63	C	0.222275	-0.483686	0.000114
C64	C	0.722275	0.016314	0.500114
C65	C	0.174167	-0.755738	0.000088
C66	C	0.674167	-0.255738	0.500088
N67	N	0.185039	-1.135977	-0.265416
N68	N	0.685039	-0.635977	0.234584
C69	C	0.221758	-1.090685	0.474668
C70	C	0.721758	-0.590685	0.974668
C71	C	0.174686	-1.148739	0.525549
C72	C	0.674686	-0.648739	1.025549
C73	C	0.180448	-1.141636	0.641867
C74	C	0.680448	-0.641636	1.141867
C75	C	0.215997	-1.097786	0.358340
C76	C	0.715997	-0.597786	0.858340
H77	H	-0.227200	-0.980363	-0.069674
H78	H	0.272800	-0.480363	0.430326
H79	H	0.130059	-1.203775	0.481753
H80	H	0.630059	-0.703775	0.981753
H81	H	0.266383	-1.035653	0.518459
H82	H	0.766383	-0.535653	1.018459
H83	H	0.099482	-0.617354	0.000106
H84	H	0.599482	-0.117354	0.500106
C85	C	-0.436854	-1.025850	-0.153406
C86	C	0.063146	-0.525850	0.346594
C87	C	-0.379884	-0.964262	-0.094501
C88	C	0.120116	-0.464262	0.405499
H89	H	-0.457775	-0.994876	-0.211565
H90	H	0.042225	-0.494876	0.288435
H91	H	-0.409416	-1.081980	-0.175286
H92	H	0.090584	-0.581980	0.324714
H93	H	-0.482014	-1.042449	-0.113318
H94	H	0.017986	-0.542449	0.386682
H95	H	-0.334720	-0.947669	-0.134588
H96	H	0.165280	-0.447669	0.365412
H97	H	-0.407322	-0.908115	-0.072622
H98	H	0.092678	-0.408115	0.427378
H99	H	-0.365237	-0.968933	0.069108
H100	H	0.134763	-0.468933	0.569108
H101	H	-0.364602	-1.122190	0.170256
H102	H	0.135398	-0.622190	0.670256
C103	C	-0.275283	-0.917926	0.150838
C104	C	0.224717	-0.417926	0.650838
C105	C	-0.210931	-0.955899	0.094439
C106	C	0.289069	-0.455899	0.594439
H107	H	-0.251681	-0.880661	0.209090
H108	H	0.248319	-0.380661	0.709090
H109	H	-0.308504	-0.878889	0.109157
H110	H	0.191496	-0.378889	0.609157
H111	H	-0.309299	-0.968479	0.172530
H112	H	0.190701	-0.468479	0.672530
H113	H	-0.176919	-0.905346	0.072740
H114	H	0.323081	-0.405346	0.572740
H115	H	-0.177696	-0.994938	0.136127
H116	H	0.322304	-0.494938	0.636127
H117	H	-0.220977	-1.126590	0.169849
H118	H	0.279023	-0.626590	0.669849
C119	C	-0.144884	-1.282990	-0.111500
C120	C	0.355116	-0.782990	0.388500
C121	C	-0.231970	-1.281941	-0.105499
C122	C	0.268030	-0.781941	0.394501
H123	H	-0.127534	-1.347163	-0.116366
H124	H	0.372466	-0.847163	0.383634
H125	H	-0.129590	-1.252040	-0.170359
H126	H	0.370410	-0.752040	0.329641
H127	H	-0.118469	-1.250489	-0.051836
H128	H	0.381531	-0.750489	0.448164
H129	H	-0.258386	-1.314436	-0.165167
H130	H	0.241614	-0.814436	0.334833
H131	H	-0.247273	-1.312904	-0.046634
H132	H	0.252727	-0.812904	0.453366
C133	C	-0.269724	-1.184520	-0.281502
C134	C	0.230276	-0.684520	0.218498
C135	C	-0.231796	-1.133572	-0.194794
C136	C	0.268204	-0.633572	0.305206
H137	H	-0.252269	-1.157091	-0.341510
H138	H	0.247731	-0.657091	0.158490
H139	H	-0.253730	-1.249150	-0.282107
H140	H	0.246270	-0.749150	0.217893
H141	H	-0.328898	-1.181856	-0.279700
H142	H	0.171102	-0.681856	0.220300
H143	H	-0.172621	-1.136242	-0.196592
H144	H	0.327379	-0.636242	0.303408
H145	H	-0.247785	-1.068926	-0.194189
H146	H	0.252215	-0.568926	0.305811
H147	H	-0.373472	-1.239746	0.101927
H148	H	0.126528	-0.739746	0.601927
H149	H	-0.230228	-1.243527	0.101050
H150	H	0.269772	-0.743527	0.601050
H151	H	-0.383030	-1.254394	-0.096952
H152	H	0.116970	-0.754394	0.403048
C153	C	0.312442	-0.732564	0.000033
C154	C	0.812442	-0.232564	0.500033
C155	C	0.319721	-0.632965	0.000060
C156	C	0.819721	-0.132965	0.500060
H157	H	0.366626	-0.758541	-0.000009
H158	H	0.866626	-0.258541	0.499991
H159	H	0.285861	-0.749727	0.059472
H160	H	0.785861	-0.249727	0.559472
H161	H	0.279914	-0.756970	-0.059393
H162	H	0.779914	-0.256970	0.440607
H163	H	0.352244	-0.608558	0.059490
H164	H	0.852244	-0.108558	0.559490
H165	H	0.346314	-0.615793	-0.059385
H166	H	0.846314	-0.115793	0.440615
H167	H	-0.383676	-1.148573	-0.170069
H168	H	0.116324	-0.648573	0.329931
