data_functionalizedCrystal
_audit_creation_method	'MofGen! by Chris Wilmer'
_symmetry_space_group_name_H-M	'P1'
_symmetry_Int_Tables_number	1
_symmetry_cell_setting	triclinic
loop_
_symmetry_equiv_pos_as_xyz
  x,y,z
_cell_length_a	18.050591
_cell_length_b	18.050589
_cell_length_c	13.032268
_cell_angle_alpha	82.850583
_cell_angle_beta	82.842055
_cell_angle_gamma	90.024669
loop_
_atom_site_label
_atom_site_type_symbol
_atom_site_fract_x
_atom_site_fract_y
_atom_site_fract_z
Zn1	Zn	1.081955	-0.349040	0.591013
Zn2	Zn	1.331955	-0.099040	0.841013
Zn3	Zn	1.581955	0.150960	1.091013
Zn4	Zn	1.831955	0.400960	1.341013
Zn5	Zn	1.097635	-0.457476	0.416282
Zn6	Zn	1.347635	-0.207476	0.666282
Zn7	Zn	1.597635	0.042524	0.916282
Zn8	Zn	1.847635	0.292524	1.166282
Zn9	Zn	0.973544	-0.333296	0.416274
Zn10	Zn	1.223544	-0.083296	0.666274
Zn11	Zn	1.473544	0.166704	0.916274
Zn12	Zn	1.723544	0.416704	1.166274
Zn13	Zn	0.957728	-0.473179	0.590953
Zn14	Zn	1.207728	-0.223179	0.840953
Zn15	Zn	1.457728	0.026821	1.090953
Zn16	Zn	1.707728	0.276821	1.340953
O17	O	1.027716	-0.403248	0.503631
O18	O	1.277716	-0.153248	0.753631
O19	O	1.527716	0.096752	1.003631
O20	O	1.777716	0.346752	1.253631
O21	O	1.187957	-0.363441	0.567863
O22	O	1.437957	-0.113441	0.817863
O23	O	1.687957	0.136559	1.067863
O24	O	1.937957	0.386559	1.317863
O25	O	1.094355	-0.427843	0.270052
O26	O	1.344355	-0.177843	0.520052
O27	O	1.594355	0.072157	0.770052
O28	O	1.844355	0.322157	1.020052
O29	O	0.987982	-0.231462	0.439475
O30	O	1.237982	0.018538	0.689475
O31	O	1.487982	0.268538	0.939475
O32	O	1.737982	0.518538	1.189475
O33	O	1.199477	-0.443109	0.439489
O34	O	1.449477	-0.193109	0.689489
O35	O	1.699477	0.056891	0.939489
O36	O	1.949477	0.306891	1.189489
O37	O	1.067632	-0.243029	0.567855
O38	O	1.317632	0.006971	0.817855
O39	O	1.567632	0.256971	1.067855
O40	O	1.817632	0.506971	1.317855
O41	O	1.003186	-0.336608	0.270046
O42	O	1.253186	-0.086608	0.520046
O43	O	1.503186	0.163392	0.770046
O44	O	1.753186	0.413392	1.020046
O45	O	0.867524	-0.351835	0.439417
O46	O	1.117524	-0.101835	0.689417
O47	O	1.367524	0.148165	0.939417
O48	O	1.617524	0.398165	1.189417
O49	O	0.961026	-0.469873	0.737191
O50	O	1.211026	-0.219873	0.987191
O51	O	1.461026	0.030127	1.237191
O52	O	1.711026	0.280127	1.487191
O53	O	0.855904	-0.454607	0.567753
O54	O	1.105904	-0.204607	0.817753
O55	O	1.355904	0.045393	1.067753
O56	O	1.605904	0.295393	1.317753
O57	O	1.052295	-0.378668	0.737234
O58	O	1.302295	-0.128668	0.987234
O59	O	1.552295	0.121332	1.237234
O60	O	1.802295	0.371332	1.487234
O61	O	1.079019	-0.563482	0.439431
O62	O	1.329019	-0.313482	0.689431
O63	O	1.579019	-0.063482	0.939431
O64	O	1.829019	0.186518	1.189431
O65	O	0.976230	-0.575019	0.567761
O66	O	1.226230	-0.325019	0.817761
O67	O	1.476230	-0.075019	1.067761
O68	O	1.726230	0.174981	1.317761
C69	C	0.834768	-0.403217	0.503578
C70	C	1.084768	-0.153217	0.753578
C71	C	1.334768	0.096783	1.003578
C72	C	1.584768	0.346783	1.253578
C73	C	0.752222	-0.403224	0.503581
C74	C	1.002222	-0.153224	0.753581
C75	C	1.252222	0.096776	1.003581
C76	C	1.502222	0.346776	1.253581
C77	C	1.027628	-0.596198	0.503613
C78	C	1.277628	-0.346198	0.753613
C79	C	1.527628	-0.096198	1.003613
C80	C	1.777628	0.153802	1.253613
C81	C	1.027655	-0.678747	0.503641
C82	C	1.277655	-0.428747	0.753641
C83	C	1.527655	-0.178747	1.003641
C84	C	1.777655	0.071253	1.253641
C85	C	0.509679	-0.347300	0.433957
C86	C	0.759679	-0.097300	0.683957
C87	C	1.009679	0.152700	0.933957
C88	C	1.259679	0.402700	1.183957
C89	C	0.550505	-0.337813	0.529321
C90	C	0.800505	-0.087813	0.779321
C91	C	1.050505	0.162187	1.029321
C92	C	1.300505	0.412187	1.279321
C93	C	0.455094	-0.403269	0.503666
C94	C	0.705094	-0.153269	0.753666
C95	C	0.955094	0.096731	1.003666
C96	C	1.205094	0.346731	1.253666
C97	C	0.561353	-0.412699	0.408266
C98	C	0.811353	-0.162699	0.658266
C99	C	1.061353	0.087301	0.908266
C100	C	1.311353	0.337301	1.158266
C101	C	0.601083	-0.403245	0.503619
C102	C	0.851083	-0.153245	0.753619
C103	C	1.101083	0.096755	1.003619
C104	C	1.351083	0.346755	1.253619
C105	C	0.494828	-0.393752	0.599081
C106	C	0.744828	-0.143752	0.849081
C107	C	0.994828	0.106248	1.099081
C108	C	1.244828	0.356248	1.349081
C109	C	0.505678	-0.468664	0.477962
C110	C	0.755678	-0.218664	0.727962
C111	C	1.005678	0.031336	0.977962
C112	C	1.255678	0.281336	1.227962
C113	C	0.546475	-0.459209	0.573392
C114	C	0.796475	-0.209209	0.823392
C115	C	1.046475	0.040791	1.073392
C116	C	1.296475	0.290791	1.323392
C117	C	0.370994	-0.403282	0.503692
C118	C	0.620994	-0.153282	0.753692
C119	C	0.870994	0.096718	1.003692
C120	C	1.120994	0.346718	1.253692
C121	C	0.685181	-0.403234	0.503604
C122	C	0.935181	-0.153234	0.753604
C123	C	1.185181	0.096766	1.003604
C124	C	1.435181	0.346766	1.253604
C125	C	0.971809	-0.884496	0.573402
C126	C	1.221809	-0.634496	0.823402
C127	C	1.471809	-0.384496	1.073402
C128	C	1.721809	-0.134496	1.323402
C129	C	0.962317	-0.925335	0.478047
C130	C	1.212317	-0.675335	0.728047
C131	C	1.462317	-0.425335	0.978047
C132	C	1.712317	-0.175335	1.228047
C133	C	1.027726	-0.829878	0.503655
C134	C	1.277726	-0.579878	0.753655
C135	C	1.527726	-0.329878	1.003655
C136	C	1.777726	-0.079878	1.253655
C137	C	1.037254	-0.936122	0.599021
C138	C	1.287254	-0.686122	0.849021
C139	C	1.537254	-0.436122	1.099021
C140	C	1.787254	-0.186122	1.349021
C141	C	1.027794	-0.975865	0.503676
C142	C	1.277794	-0.725865	0.753676
C143	C	1.527794	-0.475865	1.003676
C144	C	1.777794	-0.225865	1.253676
C145	C	1.018203	-0.869626	0.408248
C146	C	1.268203	-0.619626	0.658248
C147	C	1.518203	-0.369626	0.908248
C148	C	1.768203	-0.119626	1.158248
C149	C	1.093166	-0.880414	0.529287
C150	C	1.343166	-0.630414	0.779287
C151	C	1.593166	-0.380414	1.029287
C152	C	1.843166	-0.130414	1.279287
C153	C	1.083706	-0.921225	0.433866
C154	C	1.333706	-0.671225	0.683866
C155	C	1.583706	-0.421225	0.933866
C156	C	1.833706	-0.171225	1.183866
C157	C	1.027686	-0.745779	0.503643
C158	C	1.277686	-0.495779	0.753643
C159	C	1.527686	-0.245779	1.003643
C160	C	1.777686	0.004221	1.253643
C161	C	1.027835	-1.059962	0.503676
C162	C	1.277835	-0.809962	0.753676
C163	C	1.527835	-0.559962	1.003676
C164	C	1.777835	-0.309962	1.253676
C165	C	1.221416	-0.403279	0.503684
C166	C	1.471416	-0.153279	0.753684
C167	C	1.721416	0.096721	1.003684
C168	C	1.971416	0.346721	1.253684
C169	C	1.303960	-0.403293	0.503706
C170	C	1.553960	-0.153293	0.753706
C171	C	1.803960	0.096707	1.003706
C172	C	2.053960	0.346707	1.253706
C173	C	1.003147	-0.427778	0.776188
C174	C	1.253147	-0.177778	1.026188
C175	C	1.503147	0.072222	1.276188
C176	C	1.753147	0.322222	1.526188
C177	C	0.992678	-0.438231	0.892336
C178	C	1.242678	-0.188231	1.142336
C179	C	1.492678	0.061769	1.392336
C180	C	1.742678	0.311769	1.642336
C181	C	1.027822	-0.209546	0.503671
C182	C	1.277822	0.040454	0.753671
C183	C	1.527822	0.290454	1.003671
C184	C	1.777822	0.540454	1.253671
C185	C	1.027868	-0.127002	0.503688
C186	C	1.277868	0.122998	0.753688
C187	C	1.527868	0.372998	1.003688
C188	C	1.777868	0.622998	1.253688
C189	C	1.052231	-0.378759	0.232134
C190	C	1.302231	-0.128759	0.482134
C191	C	1.552231	0.121241	0.732134
C192	C	1.802231	0.371241	0.982134
C193	C	1.062845	-0.368097	0.115986
C194	C	1.312845	-0.118097	0.365986
C195	C	1.562845	0.131903	0.615986
C196	C	1.812845	0.381903	0.865986
C197	C	1.033168	-0.397765	0.944140
C198	C	1.283168	-0.147765	1.194140
C199	C	1.533168	0.102235	1.444140
C200	C	1.783168	0.352235	1.694140
C201	C	1.022348	-0.408568	1.064185
C202	C	1.272348	-0.158568	1.314185
C203	C	1.522348	0.091432	1.564185
C204	C	1.772348	0.341432	1.814185
H205	H	0.493311	-0.299954	0.375098
H206	H	0.743311	-0.049954	0.625098
H207	H	0.993311	0.200046	0.875098
H208	H	1.243311	0.450046	1.125098
H209	H	0.907007	-0.945160	0.456386
H210	H	1.157007	-0.695160	0.706386
H211	H	1.407007	-0.445160	0.956386
H212	H	1.657007	-0.195160	1.206386
H213	H	1.105520	-0.325447	1.071470
H214	H	1.355520	-0.075447	1.321470
H215	H	1.605520	0.174553	1.571470
H216	H	1.855520	0.424553	1.821470
H217	H	0.570255	-0.282500	0.551061
H218	H	0.820255	-0.032500	0.801061
H219	H	1.070255	0.217500	1.051061
H220	H	1.320255	0.467500	1.301061
F221	F	0.457123	-0.383227	0.704540
F222	F	0.707123	-0.133227	0.954540
F223	F	0.957123	0.116773	1.204540
F224	F	1.207123	0.366773	1.454540
F225	F	1.145561	-0.942389	0.356697
F226	F	1.395561	-0.692389	0.606697
F227	F	1.645561	-0.442389	0.856697
F228	F	1.895561	-0.192389	1.106697
F229	F	0.966560	-0.464306	1.122368
F230	F	1.216560	-0.214306	1.372368
F231	F	1.466560	0.035694	1.622368
F232	F	1.716560	0.285694	1.872368
H233	H	0.562695	-0.506536	0.632391
H234	H	0.812695	-0.256536	0.882391
H235	H	1.062695	-0.006536	1.132391
H236	H	1.312695	0.243464	1.382391
F237	F	1.088935	-0.342013	0.885953
F238	F	1.338935	-0.092013	1.135953
F239	F	1.588935	0.157987	1.385953
F240	F	1.838935	0.407987	1.635953
H241	H	0.590293	-0.420686	0.327607
H242	H	0.840293	-0.170686	0.577607
H243	H	1.090293	0.079314	0.827607
H244	H	1.340293	0.329314	1.077607
F245	F	0.936892	-0.493965	0.950523
F246	F	1.186892	-0.243965	1.200523
F247	F	1.436892	0.006035	1.450523
F248	F	1.686892	0.256035	1.700523
H249	H	0.485900	-0.523957	0.456206
H250	H	0.735900	-0.273957	0.706206
H251	H	0.985900	-0.023957	0.956206
H252	H	1.235900	0.226043	1.206206
F253	F	0.909932	-0.863135	0.650390
F254	F	1.159932	-0.613135	0.900390
F255	F	1.409932	-0.363135	1.150390
F256	F	1.659932	-0.113135	1.400390
F257	F	1.007622	-0.831937	0.302813
F258	F	1.257622	-0.581937	0.552813
F259	F	1.507622	-0.331937	0.802813
F260	F	1.757622	-0.081937	1.052813
H261	H	1.148459	-0.860595	0.550993
H262	H	1.398459	-0.610595	0.800993
H263	H	1.648459	-0.360595	1.050993
H264	H	1.898459	-0.110595	1.300993
H265	H	1.045287	-0.965046	0.679663
H266	H	1.295287	-0.715046	0.929663
H267	H	1.545287	-0.465046	1.179663
H268	H	1.795287	-0.215046	1.429663
