data_functionalizedCrystal
_audit_creation_method	'MofGen! by Chris Wilmer'
_symmetry_space_group_name_H-M	'P1'
_symmetry_Int_Tables_number	1
_symmetry_cell_setting	triclinic
loop_
_symmetry_equiv_pos_as_xyz
  x,y,z
_cell_length_a	11.792241
_cell_length_b	11.792241
_cell_length_c	10.268362
_cell_angle_alpha	89.994090
_cell_angle_beta	89.996518
_cell_angle_gamma	95.806584
loop_
_atom_site_label
_atom_site_type_symbol
_atom_site_fract_x
_atom_site_fract_y
_atom_site_fract_z
O1	O	1.506902	-0.155570	0.108174
O2	O	1.176561	-0.171603	0.108205
O3	O	1.349748	0.001584	0.108180
O4	O	1.333715	-0.328757	0.108199
O5	O	1.349746	0.001594	-0.108421
O6	O	1.176559	-0.171593	-0.108396
O7	O	1.506900	-0.155560	-0.108426
Cu8	Cu	1.341729	-0.163576	-0.128188
Cu9	Cu	1.341732	-0.163588	0.127967
O10	O	1.333713	-0.328747	-0.108401
C11	C	1.134269	-0.170591	-0.000092
C12	C	1.008255	-0.167576	-0.000080
C13	C	1.348740	0.043880	-0.000120
C14	C	1.345726	0.169894	-0.000119
N15	N	1.341734	-0.163588	0.308133
C16	C	0.777543	-0.162034	-0.000118
C17	C	0.905928	-0.165113	-0.000097
C18	C	1.549192	-0.156572	-0.000127
C19	C	1.675206	-0.159587	-0.000130
C20	C	1.334721	-0.371043	-0.000099
C21	C	1.337736	-0.497057	-0.000092
C22	C	1.340183	0.400606	-0.000096
C23	C	1.343262	0.272221	-0.000108
N24	N	1.341736	-0.163566	-0.308354
C25	C	1.341731	-0.163581	0.573803
C26	C	1.341730	-0.163588	0.425965
