data_functionalizedCrystal
_audit_creation_method	'MofGen! by Chris Wilmer'
_symmetry_space_group_name_H-M	'P1'
_symmetry_Int_Tables_number	1
_symmetry_cell_setting	triclinic
loop_
_symmetry_equiv_pos_as_xyz
  x,y,z
_cell_length_a	17.699083
_cell_length_b	7.681481
_cell_length_c	17.699083
_cell_angle_alpha	95.731310
_cell_angle_beta	83.283015
_cell_angle_gamma	84.282230
loop_
_atom_site_label
_atom_site_type_symbol
_atom_site_fract_x
_atom_site_fract_y
_atom_site_fract_z
O1	O	0.996918	0.146188	0.102878
O2	O	0.776537	0.146246	0.115334
O3	O	0.892955	0.146200	-0.001084
O4	O	0.880500	0.146234	0.219296
O5	O	0.907284	-0.146663	-0.015446
O6	O	0.790866	-0.146617	0.100972
O7	O	1.011247	-0.146675	0.088517
Zn8	Zn	0.903332	-0.193144	0.092464
Zn9	Zn	0.884452	0.192716	0.111386
O10	O	0.894830	-0.146629	0.204934
C11	C	0.755504	-0.000178	0.107707
C12	C	0.671485	-0.000156	0.106369
N13	N	0.916222	-0.456484	0.079550
C14	C	0.622864	-0.000146	0.174703
C15	C	0.543921	-0.000169	0.173440
C16	C	0.513602	-0.000190	0.103842
C17	C	0.562229	-0.000205	0.035503
C18	C	0.641171	-0.000195	0.036767
C19	C	0.243869	-0.000249	0.030406
C20	C	0.164921	-0.000255	0.029148
C21	C	0.146619	-0.000224	0.167079
C22	C	0.225560	-0.000214	0.168342
C23	C	0.274182	-0.000238	0.100003
C24	C	0.359780	-0.000217	0.101374
C25	C	0.428004	-0.000199	0.102472
C26	C	1.032280	-0.000247	0.096144
C27	C	1.116298	-0.000257	0.097482
C28	C	0.899673	-0.000232	-0.036462
C29	C	0.898334	-0.000232	-0.120480
N30	N	0.871568	0.456055	0.124294
C31	C	0.966669	-0.000253	-0.169102
C32	C	0.965406	-0.000237	-0.248045
C33	C	0.895808	-0.000213	-0.278364
C34	C	0.827468	-0.000187	-0.229736
C35	C	0.828731	-0.000190	-0.150794
C36	C	0.822372	-0.000171	-0.548098
C37	C	0.821114	-0.000173	-0.627046
C38	C	0.959046	-0.000218	-0.645348
C39	C	0.960310	-0.000221	-0.566407
C40	C	0.891970	-0.000186	-0.517785
C41	C	0.893340	-0.000200	-0.432186
C42	C	0.894438	-0.000212	-0.363962
C43	C	0.888111	-0.000193	0.240312
C44	C	0.889449	-0.000181	0.324331
H45	H	0.647543	-0.000128	0.231378
C46	C	1.043227	-0.000279	-0.135757
H47	H	1.083742	-0.000272	-0.176023
H48	H	1.051586	-0.102407	-0.110354
H49	H	1.041589	0.101862	-0.100332
C50	C	1.040571	-0.000241	-0.301528
H51	H	1.029852	-0.000208	-0.352884
H52	H	1.074116	-0.102374	-0.297369
H53	H	1.064111	0.101895	-0.287332
C54	C	0.528883	-0.000226	-0.041055
H55	H	0.569150	-0.000245	-0.081572
H56	H	0.493466	0.101899	-0.039407
H57	H	0.503473	-0.102370	-0.049423
C58	C	0.753564	-0.000172	-0.097310
H59	H	0.711933	-0.000173	-0.126673
H60	H	0.746194	0.101956	-0.061123
H61	H	0.756187	-0.102313	-0.071147
C62	C	0.297344	-0.000251	-0.044761
H63	H	0.348703	-0.000258	-0.034047
H64	H	0.283161	0.101873	-0.068294
H65	H	0.293170	-0.102395	-0.078314
C66	C	1.036866	-0.000240	-0.533059
H67	H	1.077383	-0.000232	-0.573322
H68	H	1.045225	-0.102365	-0.507653
H69	H	1.035224	0.101904	-0.497634
C70	C	0.131571	-0.000294	-0.047414
H71	H	0.171835	-0.000326	-0.087935
H72	H	0.096153	0.101828	-0.045770
H73	H	0.106161	-0.102440	-0.055773
C74	C	0.809988	-0.442344	0.185990
H75	H	0.811386	-0.319385	0.184578
H76	H	0.819648	-0.472465	0.235009
H77	H	0.760935	-0.472476	0.176437
H78	H	1.014692	-0.000237	-0.684946
H79	H	0.961813	-0.531708	0.033882
H80	H	0.504336	-0.000159	0.229084
H81	H	0.764437	-0.000157	-0.651729
C82	C	0.747203	-0.000164	-0.494626
H83	H	0.705576	-0.000173	-0.523993
H84	H	0.739824	0.101960	-0.458436
H85	H	0.749829	-0.102309	-0.468465
C86	C	0.750913	-0.000166	-0.263086
H87	H	0.759947	-0.000186	-0.317065
H88	H	0.717783	0.101967	-0.241378
H89	H	0.727783	-0.102301	-0.251397
H90	H	0.107022	-0.000213	0.222724
C91	C	0.694657	-0.000204	-0.038398
H92	H	0.746015	-0.000213	-0.027680
H93	H	0.680480	0.101913	-0.061938
H94	H	0.690484	-0.102355	-0.071947
H95	H	0.250242	-0.000189	0.225016
