data_functionalizedCrystal
_audit_creation_method	'MofGen! by Chris Wilmer'
_symmetry_space_group_name_H-M	'P1'
_symmetry_Int_Tables_number	1
_symmetry_cell_setting	triclinic
loop_
_symmetry_equiv_pos_as_xyz
  x,y,z
_cell_length_a	13.897449
_cell_length_b	16.625545
_cell_length_c	16.625539
_cell_angle_alpha	90.026370
_cell_angle_beta	90.021254
_cell_angle_gamma	90.023964
loop_
_atom_site_label
_atom_site_type_symbol
_atom_site_fract_x
_atom_site_fract_y
_atom_site_fract_z
Zn1	Zn	-1.474614	0.321017	-0.456000
Zn2	Zn	-1.474504	0.455855	-0.321167
Zn3	Zn	-1.313317	0.321040	-0.321171
Zn4	Zn	-1.313267	0.455811	-0.455947
O5	O	-1.393926	0.388431	-0.388571
O6	O	-1.609581	0.338912	-0.438135
O7	O	-1.453097	0.438000	-0.208335
O8	O	-1.334780	0.208205	-0.339080
O9	O	-1.609500	0.437977	-0.339074
O10	O	-1.453285	0.208187	-0.438138
O11	O	-1.334673	0.338952	-0.208338
O12	O	-1.178329	0.338909	-0.339028
O13	O	-1.334696	0.437901	-0.568787
O14	O	-1.178292	0.437924	-0.438048
O15	O	-1.453237	0.338869	-0.568826
O16	O	-1.453049	0.568682	-0.339023
O17	O	-1.334589	0.568649	-0.438045
C18	C	-1.143311	0.388415	-0.388534
C19	C	-1.036097	0.388428	-0.388536
C20	C	-1.393827	0.597922	-0.388546
C21	C	-1.393874	0.687543	-0.388561
C22	C	-0.949028	0.388429	-0.388546
C23	C	-0.839795	0.388433	-0.388567
C24	C	-0.645519	0.388444	-0.388600
C25	C	-0.752732	0.388441	-0.388587
C26	C	-1.394031	1.015718	-0.388658
C27	C	-1.393984	0.924410	-0.388633
C28	C	-1.393952	0.851633	-0.388609
C29	C	-1.393906	0.760319	-0.388585
C30	C	-1.393973	0.388377	-0.598880
C31	C	-1.393993	0.388355	-0.688502
C32	C	-1.394042	1.178122	-0.388624
C33	C	-1.394071	1.088501	-0.388671
C34	C	-1.394009	0.388337	-0.761284
C35	C	-1.394031	0.388307	-0.852593
C36	C	-1.394054	0.388279	-0.925369
C37	C	-1.394078	0.388249	-1.016683
C38	C	-1.393934	0.388426	-0.179081
C39	C	-1.394101	0.388221	-0.089460
