data_functionalizedCrystal
_audit_creation_method	'MofGen! by Chris Wilmer'
_symmetry_space_group_name_H-M	'P1'
_symmetry_Int_Tables_number	1
_symmetry_cell_setting	triclinic
loop_
_symmetry_equiv_pos_as_xyz
  x,y,z
_cell_length_a	10.654551
_cell_length_b	10.654538
_cell_length_c	9.130313
_cell_angle_alpha	90.003149
_cell_angle_beta	89.997355
_cell_angle_gamma	95.517272
loop_
_atom_site_label
_atom_site_type_symbol
_atom_site_fract_x
_atom_site_fract_y
_atom_site_fract_z
O1	O	0.176330	-1.667843	-0.121872
O2	O	0.193152	-1.302363	-0.121856
O3	O	0.002002	-1.493506	-0.121865
O4	O	0.367481	-1.476701	-0.121863
O5	O	0.001991	-1.493503	0.121734
O6	O	0.193142	-1.302361	0.121743
O7	O	0.176320	-1.667841	0.121727
Cu8	Cu	0.184730	-1.485100	0.143977
Cu9	Cu	0.184742	-1.485104	-0.144106
O10	O	0.367470	-1.476698	0.121736
C11	C	0.191915	-1.255564	-0.000055
C12	C	0.188229	-1.116120	-0.000049
C13	C	-0.044801	-1.492270	-0.000069
C14	C	-0.184244	-1.488578	-0.000079
C15	C	0.186490	-1.050626	-0.132839
C16	C	0.183017	-0.919605	-0.132847
C17	C	0.183016	-0.919583	0.132738
C18	C	0.186498	-1.050601	0.132744
C19	C	0.188221	-1.116145	-0.265632
C20	C	0.186480	-1.050652	-0.398433
C21	C	0.183007	-0.919630	-0.398441
C22	C	0.181274	-0.854103	-0.265648
C23	C	-0.249751	-1.486847	-0.132862
C24	C	-0.380771	-1.483367	-0.132855
C25	C	-0.380768	-1.483353	0.132730
C26	C	-0.249749	-1.486825	0.132722
C27	C	-0.184247	-1.488600	-0.265662
C28	C	-0.249753	-1.486871	-0.398456
C29	C	-0.380774	-1.483390	-0.398449
C30	C	-0.446287	-1.481640	-0.265648
C31	C	0.414273	-1.477934	-0.000063
C32	C	0.553716	-1.481626	-0.000063
C33	C	0.177565	-0.714639	-0.000070
C34	C	0.181273	-0.854081	-0.000063
N35	N	0.184741	-1.485106	-0.346729
C36	C	0.100266	-1.569904	-0.423385
C37	C	0.100259	-1.569907	-0.576722
C38	C	0.269205	-1.400306	-0.576733
C39	C	0.269217	-1.400309	-0.423399
C40	C	0.015790	-1.654701	-0.346715
C41	C	-0.068692	-1.739504	-0.423371
C42	C	-0.068700	-1.739508	-0.576708
C43	C	0.015775	-1.654709	-0.653389
N44	N	0.184721	-1.485107	0.346600
H45	H	0.191046	-1.222829	-0.265641
H46	H	0.187903	-1.104011	-0.506548
H47	H	0.181603	-0.866307	-0.506574
H48	H	0.181603	-0.866220	0.240852
C49	C	0.177456	-0.709974	-0.265664
N50	N	0.174572	-0.601419	-0.265679
H51	H	0.187921	-1.103926	0.240874
H52	H	-0.077564	-1.491437	-0.265682
C53	C	-0.161606	-1.832780	-0.339020
N54	N	-0.231592	-1.903037	-0.275488
H55	H	0.338006	-1.331261	-0.360985
C56	C	-0.452839	-1.481435	0.278800
N57	N	-0.507123	-1.479995	0.388823
C58	C	-0.177686	-1.488796	-0.544528
N59	N	-0.123407	-1.490249	-0.654553
H60	H	-0.434104	-1.481969	-0.506576
C61	C	-0.590414	-1.477811	-0.265649
N62	N	-0.698970	-1.474936	-0.265651
C63	C	0.015782	-1.654695	-0.178042
N64	N	0.015772	-1.654685	-0.050997
C65	C	-0.161628	-1.832794	-0.661026
N66	N	-0.231631	-1.903055	-0.724531
H67	H	-0.196409	-1.488207	0.240845
H68	H	0.015770	-1.654727	-0.778246
C69	C	0.362111	-1.307025	-0.661088
N70	N	0.432086	-1.236759	-0.724624
