data_functionalizedCrystal
_audit_creation_method	'MofGen! by Chris Wilmer'
_symmetry_space_group_name_H-M	'P1'
_symmetry_Int_Tables_number	1
_symmetry_cell_setting	triclinic
loop_
_symmetry_equiv_pos_as_xyz
  x,y,z
_cell_length_a	18.215407
_cell_length_b	17.637651
_cell_length_c	18.215399
_cell_angle_alpha	78.756317
_cell_angle_beta	89.982187
_cell_angle_gamma	101.213746
loop_
_atom_site_label
_atom_site_type_symbol
_atom_site_fract_x
_atom_site_fract_y
_atom_site_fract_z
Zn1	Zn	1.065860	-0.314879	-0.356752
Zn2	Zn	1.040906	-0.447096	-0.208776
Zn3	Zn	0.942791	-0.314892	-0.233702
Zn4	Zn	0.917907	-0.447038	-0.331816
O5	O	0.991866	-0.380976	-0.282761
O6	O	1.165531	-0.332437	-0.337127
O7	O	1.027861	-0.429588	-0.109093
O8	O	0.979973	-0.204253	-0.270892
O9	O	1.147197	-0.429576	-0.228410
O10	O	1.070392	-0.204244	-0.361297
O11	O	0.955776	-0.332458	-0.127405
O12	O	0.836509	-0.332402	-0.246712
O13	O	0.937563	-0.429478	-0.438114
O14	O	0.818227	-0.429490	-0.318797
O15	O	1.046264	-0.332381	-0.456434
O16	O	1.003733	-0.557725	-0.204230
O17	O	0.913366	-0.557683	-0.294627
C18	C	0.800666	-0.380942	-0.282754
C19	C	0.718867	-0.380946	-0.282764
C20	C	0.463326	-0.330494	-0.339427
C21	C	0.540187	-0.330481	-0.339427
C22	C	0.521143	-0.431485	-0.226107
C23	C	0.444282	-0.431501	-0.226110
C24	C	0.415377	-0.381001	-0.282770
C25	C	0.569098	-0.380972	-0.282767
C26	C	0.652434	-0.380958	-0.282767
C27	C	0.332035	-0.381015	-0.282772
C28	C	0.953161	-0.586391	-0.244034
C29	C	0.936670	-0.674268	-0.227491
C30	C	1.117623	-0.962968	-0.408669
C31	C	1.102104	-1.045542	-0.393112
C32	C	1.008014	-1.045658	-0.298882
C33	C	1.023527	-0.963083	-0.314429
C34	C	1.078332	-0.921744	-0.369324
C35	C	0.984236	-0.921859	-0.275084
C36	C	0.999746	-0.839290	-0.290633
C37	C	1.054547	-0.797946	-0.345527
C38	C	1.093842	-0.839175	-0.384873
C39	C	0.929428	-0.963199	-0.220194
C40	C	0.890137	-0.921975	-0.180849
C41	C	0.905651	-0.839405	-0.196393
C42	C	0.960451	-0.798061	-0.251287
C43	C	0.866356	-0.798176	-0.157047
C44	C	0.881866	-0.715607	-0.172596
C45	C	0.975961	-0.715492	-0.266836
C46	C	1.183812	-0.381012	-0.282770
C47	C	1.265608	-0.381027	-0.282773
C48	C	0.991921	-0.380922	-0.474725
C49	C	0.991945	-0.380899	-0.556528
C50	C	1.030742	-0.174760	-0.321656
C51	C	1.047309	-0.086882	-0.338231
C52	C	1.048571	-0.330293	-0.754272
C53	C	1.048584	-0.330270	-0.831135
C54	C	0.935393	-0.431382	-0.812045
C55	C	0.935378	-0.431400	-0.735185
C56	C	0.991971	-0.380857	-0.706299
C57	C	0.991999	-0.380816	-0.860023
C58	C	0.992013	-0.380791	-0.943362
C59	C	0.991956	-0.380880	-0.622956
C60	C	0.991864	-0.380974	-0.091556
C61	C	0.992025	-0.380774	-0.009795
H62	H	0.405239	-0.472635	-0.179972
O63	O	0.435126	-0.281471	-0.394395
C64	C	0.357002	-0.292327	-0.382262
H65	H	0.341623	-0.318144	-0.320562
H66	H	0.327275	-0.334494	-0.417903
C67	C	0.351486	-0.180640	-0.479990
C68	C	0.332597	-0.212343	-0.404208
H69	H	0.336431	-0.131303	-0.493531
H70	H	0.404119	-0.173327	-0.488167
H71	H	0.326712	-0.215786	-0.509682
H72	H	0.357379	-0.177201	-0.374518
H73	H	0.279968	-0.219648	-0.396027
H74	H	1.094673	-0.289095	-0.870191
O75	O	0.549300	-0.480571	-0.171162
C76	C	0.584142	-0.531693	-0.203345
H77	H	0.600911	-0.503880	-0.264400
H78	H	0.543499	-0.590302	-0.200297
C79	C	0.633857	-0.580096	-0.085152
C80	C	0.654459	-0.545932	-0.160139
H81	H	0.677230	-0.588883	-0.058499
H82	H	0.610381	-0.545657	-0.063469
H83	H	0.599987	-0.628933	-0.082622
H84	H	0.688321	-0.497093	-0.162668
H85	H	0.677942	-0.580364	-0.181822
O86	O	0.880357	-0.480597	-0.688678
C87	C	0.830403	-0.525195	-0.730654
H88	H	0.860038	-0.527927	-0.784932
H89	H	0.779971	-0.496233	-0.744283
C90	C	0.767534	-0.605989	-0.618114
C91	C	0.803934	-0.609350	-0.684775
H92	H	0.751203	-0.657899	-0.589813
H93	H	0.801186	-0.575941	-0.589833
H94	H	0.725511	-0.581851	-0.629481
H95	H	0.845961	-0.633479	-0.673408
H96	H	0.770288	-0.639405	-0.713053
H97	H	0.579224	-0.289353	-0.385564
H98	H	1.020595	-0.681832	-0.311532
O99	O	1.170860	-0.922926	-0.462043
C100	C	1.202232	-0.977015	-0.493425
H101	H	1.161034	-1.035893	-0.484856
H102	H	1.256498	-0.985772	-0.464880
C103	C	1.269449	-0.872418	-0.588363
C104	C	1.218845	-0.944731	-0.577845
H105	H	1.279700	-0.852504	-0.640436
H106	H	1.248315	-0.835977	-0.567219
H107	H	1.314665	-0.879726	-0.564570
H108	H	1.173628	-0.937421	-0.601629
H109	H	1.239972	-0.981171	-0.598995
H110	H	1.138475	-0.805516	-0.429569
H111	H	0.849870	-0.682042	-0.140558
H112	H	1.094651	-0.289136	-0.730757
H113	H	1.067175	-0.730713	-0.358186
O114	O	1.140157	-1.085630	-0.431403
C115	C	1.089246	-1.133399	-0.469881
H116	H	1.035954	-1.108540	-0.479052
H117	H	1.074961	-1.195990	-0.435333
C118	C	1.190372	-1.165145	-0.534930
C119	C	1.124920	-1.134608	-0.546200
H120	H	1.212378	-1.165895	-0.582006
H121	H	1.224672	-1.132965	-0.509005
H122	H	1.178459	-1.217301	-0.506138
H123	H	1.136836	-1.082450	-0.574984
H124	H	1.090623	-1.166780	-0.572132
H125	H	0.963390	-1.079328	-0.254189
H126	H	0.889319	-0.472534	-0.835573
O127	O	0.914349	-1.043406	-0.205224
C128	C	0.890216	-1.070955	-0.270549
H129	H	0.911720	-1.023341	-0.321915
H130	H	0.826393	-1.085628	-0.269295
C131	C	0.894609	-1.204026	-0.211122
C132	C	0.921026	-1.145547	-0.274212
H133	H	0.913610	-1.250040	-0.213381
H134	H	0.910865	-1.185467	-0.167111
H135	H	0.841424	-1.216244	-0.210085
H136	H	0.974209	-1.133323	-0.275243
H137	H	0.904779	-1.164106	-0.318224
H138	H	0.845513	-0.955645	-0.136155
O139	O	0.813066	-0.838424	-0.103814
C140	C	0.756527	-0.886166	-0.136685
H141	H	0.780137	-0.898481	-0.190162
H142	H	0.707959	-0.854370	-0.150707
C143	C	0.699486	-0.949510	-0.015731
C144	C	0.728485	-0.964641	-0.081409
H145	H	0.682185	-0.997916	0.018366
H146	H	0.737575	-0.917344	0.006415
H147	H	0.659016	-0.923011	-0.027426
H148	H	0.768960	-0.991130	-0.069714
H149	H	0.690402	-0.996814	-0.103552
