data_functionalizedCrystal
_audit_creation_method	'MofGen! by Chris Wilmer'
_symmetry_space_group_name_H-M	'P1'
_symmetry_Int_Tables_number	1
_symmetry_cell_setting	triclinic
loop_
_symmetry_equiv_pos_as_xyz
  x,y,z
_cell_length_a	12.759395
_cell_length_b	21.295417
_cell_length_c	12.759387
_cell_angle_alpha	89.961464
_cell_angle_beta	89.979491
_cell_angle_gamma	90.032044
loop_
_atom_site_label
_atom_site_type_symbol
_atom_site_fract_x
_atom_site_fract_y
_atom_site_fract_z
Zn1	Zn	1.606153	-0.250550	-0.593949
Zn2	Zn	1.605995	-0.355833	-0.418245
Zn3	Zn	1.430451	-0.250585	-0.418285
Zn4	Zn	1.430395	-0.355788	-0.593884
O5	O	1.518249	-0.303189	-0.506091
O6	O	1.753153	-0.264521	-0.570651
O7	O	1.582667	-0.341905	-0.271229
O8	O	1.453848	-0.162491	-0.441631
O9	O	1.753037	-0.341871	-0.441563
O10	O	1.582936	-0.162465	-0.570690
O11	O	1.453695	-0.264579	-0.271259
O12	O	1.283423	-0.264536	-0.441569
O13	O	1.453753	-0.341795	-0.740914
O14	O	1.283382	-0.341828	-0.570581
O15	O	1.582881	-0.264477	-0.740961
O16	O	1.582612	-0.443917	-0.441501
O17	O	1.453600	-0.443884	-0.570542
C18	C	1.245281	-0.303181	-0.506073
C19	C	1.128505	-0.303193	-0.506090
C20	C	1.128500	-0.383808	-0.640213
C21	C	1.073637	-0.424121	-0.707277
C22	C	0.963916	-0.424129	-0.707290
C23	C	0.909055	-0.383818	-0.640233
C24	C	0.963918	-0.343506	-0.573169
C25	C	1.073642	-0.343504	-0.573161
C26	C	0.963922	-0.262888	-0.439053
C27	C	1.073644	-0.262883	-0.439034
C28	C	0.909061	-0.222578	-0.371997
C29	C	0.963924	-0.182267	-0.304926
C30	C	1.073652	-0.182262	-0.304915
C31	C	1.128507	-0.222570	-0.371969
C32	C	1.518111	-0.466741	-0.506033
C33	C	1.518148	-0.536709	-0.506043
C34	C	1.585385	-0.569572	-0.438920
C35	C	1.585434	-0.635314	-0.438944
C36	C	1.518228	-0.668191	-0.506079
C37	C	1.450987	-0.635320	-0.573215
C38	C	1.450947	-0.569579	-0.573197
N39	N	1.426321	-0.771458	-0.514083
N40	N	1.426362	-0.833909	-0.514094
C41	C	1.518346	-0.866266	-0.506139
N42	N	1.610289	-0.833812	-0.498153
N43	N	1.610247	-0.771355	-0.498137
C44	C	1.518264	-0.739477	-0.506107
C45	C	1.585641	-0.970414	-0.439039
C46	C	1.585692	-1.036158	-0.439070
C47	C	1.451236	-1.036163	-0.573336
C48	C	1.451194	-0.970421	-0.573310
C49	C	1.518395	-0.937550	-0.506156
C50	C	1.792282	-0.303197	-0.506110
C51	C	1.909059	-0.303201	-0.506118
C52	C	1.518328	-0.303127	-0.780125
C53	C	1.518362	-0.303101	-0.896901
C54	C	1.518416	-0.138999	-0.506172
C55	C	1.518487	-0.069031	-0.506207
C56	C	1.652833	-0.222595	-0.896970
C57	C	1.720083	-0.182333	-0.951865
C58	C	1.720108	-0.182310	-1.061587
C59	C	1.652874	-0.222552	-1.116416
C60	C	1.585624	-0.262815	-1.061521
C61	C	1.585608	-0.262835	-0.951797
C62	C	1.451150	-0.343316	-1.061452
C63	C	1.451128	-0.343344	-0.951730
C64	C	1.383916	-0.383559	-1.116281
C65	C	1.316670	-0.423825	-1.061386
C66	C	1.316648	-0.423847	-0.951657
C67	C	1.383878	-0.383606	-0.896835
C68	C	1.518230	-0.303205	-0.233123
C69	C	1.518400	-0.303054	-0.116347
H70	H	1.217848	-0.222571	-0.371964
C71	C	1.391436	-0.869647	-0.632896
C72	C	1.377278	-0.934293	-0.647087
H73	H	1.345806	-0.847345	-0.678453
H74	H	1.376088	-0.858921	-0.562298
H75	H	1.462016	-0.858833	-0.648333
H76	H	1.306699	-0.945107	-0.631643
H77	H	1.392619	-0.945023	-0.717702
C78	C	1.062614	-0.503810	-0.839856
C79	C	1.133941	-0.468428	-0.780987
H80	H	1.099842	-0.531158	-0.885367
H81	H	1.019782	-0.527855	-0.794007
H82	H	1.019855	-0.476408	-0.880132
H83	H	1.176695	-0.495829	-0.740704
H84	H	1.176790	-0.444380	-0.826841
H85	H	1.640107	-0.542810	-0.384242
C86	C	1.183740	-0.503403	-1.050303
C87	C	1.242770	-0.468055	-1.121652
H88	H	1.138114	-0.530706	-1.087514
H89	H	1.229480	-0.527496	-1.007510
H90	H	1.143579	-0.475978	-1.007508
H91	H	1.282938	-0.495480	-1.164442
H92	H	1.197025	-0.443960	-1.164464
H93	H	1.396194	-0.542822	-0.627858
C94	C	0.751937	-0.162729	-0.398996
C95	C	0.788453	-0.222587	-0.372012
H96	H	0.677479	-0.162738	-0.399009
H97	H	0.776754	-0.132957	-0.349460
H98	H	0.776803	-0.151902	-0.466830
H99	H	0.763594	-0.233412	-0.304175
H100	H	0.763626	-0.252368	-0.421550
C101	C	1.718312	-0.628712	-0.306203
C102	C	1.659338	-0.671447	-0.365150
H103	H	1.763930	-0.651020	-0.260641
H104	H	1.758470	-0.603030	-0.351999
H105	H	1.672529	-0.603113	-0.265977
H106	H	1.705121	-0.697044	-0.405381
H107	H	1.619178	-0.697141	-0.319347
H108	H	1.640364	-0.943650	-0.384361
C109	C	1.273067	-0.655629	-0.624247
C110	C	1.377111	-0.671454	-0.647014
H111	H	1.227463	-0.677934	-0.669818
H112	H	1.257739	-0.666450	-0.553656
H113	H	1.263436	-0.611771	-0.633846
H114	H	1.386744	-0.715312	-0.637408
H115	H	1.392445	-0.660638	-0.717622
C116	C	1.600534	-1.110231	-0.297888
C117	C	1.659662	-1.072320	-0.365388
H118	H	1.646220	-1.132569	-0.252436
H119	H	1.554823	-1.084656	-0.257556
H120	H	1.560474	-1.139188	-0.337897
H121	H	1.699718	-1.043359	-0.325379
H122	H	1.705393	-1.097897	-0.405723
H123	H	1.118315	-0.149430	-0.250310
H124	H	1.396520	-1.062931	-0.628003
H125	H	1.383871	-0.383622	-0.807494
H126	H	1.217841	-0.383811	-0.640201
C127	C	0.840574	-0.432981	-0.848590
C128	C	0.903601	-0.468437	-0.781009
H129	H	0.803343	-0.460336	-0.894104
H130	H	0.792210	-0.408982	-0.808650
H131	H	0.883429	-0.405587	-0.888861
H132	H	0.860744	-0.495828	-0.740732
H133	H	0.951970	-0.492447	-0.820952
H134	H	0.819713	-0.383822	-0.640259
C135	C	1.726024	-0.178801	-0.739830
C136	C	1.652812	-0.222622	-0.776362
H137	H	1.726005	-0.178816	-0.665372
H138	H	1.793802	-0.189692	-0.764657
H139	H	1.707902	-0.138174	-0.764675
H140	H	1.670938	-0.263251	-0.751524
H141	H	1.585019	-0.211735	-0.751525
H142	H	1.774821	-0.149567	-0.907212
H143	H	0.919247	-0.149447	-0.250339
H144	H	1.774863	-0.149521	-1.106283
H145	H	1.383938	-0.383535	-1.205622
H146	H	1.652892	-0.222525	-1.205757
H147	H	1.261873	-0.456627	-0.906968
