data_functionalizedCrystal
_audit_creation_method	'MofGen! by Chris Wilmer'
_symmetry_space_group_name_H-M	'P1'
_symmetry_Int_Tables_number	1
_symmetry_cell_setting	triclinic
loop_
_symmetry_equiv_pos_as_xyz
  x,y,z
_cell_length_a	16.625548
_cell_length_b	16.625545
_cell_length_c	12.759393
_cell_angle_alpha	90.033904
_cell_angle_beta	90.021668
_cell_angle_gamma	90.026626
loop_
_atom_site_label
_atom_site_type_symbol
_atom_site_fract_x
_atom_site_fract_y
_atom_site_fract_z
Zn1	Zn	1.232672	-0.320931	0.594053
Zn2	Zn	1.232565	-0.455788	0.418366
Zn3	Zn	1.097831	-0.320975	0.418383
Zn4	Zn	1.097797	-0.455728	0.593998
O5	O	1.165216	-0.388356	0.506200
O6	O	1.345490	-0.338827	0.570764
O7	O	1.214662	-0.437948	0.271347
O8	O	1.115777	-0.208137	0.441716
O9	O	1.345412	-0.437905	0.441688
O10	O	1.214844	-0.208105	0.570780
O11	O	1.115674	-0.338902	0.271359
O12	O	0.984994	-0.338844	0.441662
O13	O	1.115719	-0.437803	0.741026
O14	O	0.984969	-0.437846	0.570686
O15	O	1.214811	-0.338769	0.741067
O16	O	1.214629	-0.568612	0.441634
O17	O	1.115615	-0.568568	0.570670
C18	C	0.955725	-0.388344	0.506171
C19	C	0.866104	-0.388359	0.506183
C20	C	0.537929	-0.388364	0.506228
C21	C	0.629237	-0.388360	0.506212
C22	C	0.702014	-0.388362	0.506205
C23	C	0.793328	-0.388357	0.506190
C24	C	1.165129	-0.597846	0.506167
C25	C	1.165165	-0.687468	0.506188
C26	C	1.165196	-0.760250	0.506209
C27	C	1.165243	-0.851558	0.506232
C28	C	1.165285	-0.924335	0.506245
C29	C	1.165331	-1.015649	0.506267
C30	C	1.375525	-0.388368	0.506230
C31	C	1.465146	-0.388373	0.506243
C32	C	1.165273	-0.388274	0.780233
C33	C	1.165297	-0.388240	0.897010
C34	C	1.165326	-0.178047	0.506256
C35	C	1.165373	-0.088425	0.506280
C36	C	1.165206	-0.388378	0.233233
C37	C	1.165339	-0.388186	0.116456
C38	C	1.216901	-0.336667	0.951895
C39	C	1.216920	-0.336638	1.061619
C40	C	1.113729	-0.439760	1.061564
C41	C	1.113706	-0.439785	0.951842
C42	C	1.268492	-0.285122	0.897064
C43	C	1.320101	-0.233546	0.951949
C44	C	1.320120	-0.233517	1.061673
C45	C	1.268530	-0.285064	1.116512
H46	H	1.268484	-0.285142	0.807721
Br47	Br	1.043720	-0.509714	1.135988
H48	H	1.362099	-0.191574	0.907291
Br49	Br	1.043667	-0.509774	0.877348
H50	H	1.362137	-0.191516	1.106357
Br51	Br	1.268544	-0.285009	1.265425
