data_functionalizedCrystal
_audit_creation_method	'MofGen! by Chris Wilmer'
_symmetry_space_group_name_H-M	'P1'
_symmetry_Int_Tables_number	1
_symmetry_cell_setting	triclinic
loop_
_symmetry_equiv_pos_as_xyz
  x,y,z
_cell_length_a	10.685980
_cell_length_b	21.295417
_cell_length_c	10.685986
_cell_angle_alpha	85.582048
_cell_angle_beta	90.307287
_cell_angle_gamma	94.396638
loop_
_atom_site_label
_atom_site_type_symbol
_atom_site_fract_x
_atom_site_fract_y
_atom_site_fract_z
Zn1	Zn	1.863549	-0.146533	-0.856505
Zn2	Zn	1.879436	-0.259244	-0.646694
Zn3	Zn	1.669817	-0.162621	-0.630642
Zn4	Zn	1.653685	-0.260412	-0.840309
O5	O	1.766622	-0.207202	-0.743538
O6	O	2.041212	-0.154263	-0.842169
O7	O	1.865029	-0.252671	-0.469012
O8	O	1.695619	-0.072391	-0.660664
O9	O	2.052884	-0.237072	-0.688022
O10	O	1.837953	-0.060572	-0.826604
O11	O	1.711023	-0.181682	-0.457219
O12	O	1.492122	-0.182814	-0.644959
O13	O	1.668124	-0.239061	-1.018010
O14	O	1.480269	-0.254661	-0.799000
O15	O	1.822310	-0.155395	-1.029909
O16	O	1.849386	-0.347495	-0.672317
O17	O	1.683528	-0.348352	-0.814565
C18	C	1.440676	-0.220610	-0.718481
C19	C	1.301233	-0.226360	-0.707791
C20	C	1.766463	-0.370763	-0.743455
C21	C	1.766506	-0.440729	-0.743471
C22	C	1.852933	-0.473122	-0.669490
C23	C	1.852990	-0.538862	-0.669523
C24	C	1.766598	-0.572206	-0.743522
C25	C	1.680164	-0.539805	-0.817518
C26	C	1.680118	-0.474066	-0.817492
N27	N	1.656121	-0.679652	-0.744649
N28	N	1.656168	-0.742101	-0.744666
C29	C	1.766733	-0.770273	-0.743604
N30	N	1.877252	-0.733637	-0.742501
N31	N	1.877204	-0.671183	-0.742478
C32	C	1.766639	-0.643489	-0.743558
C33	C	1.853229	-0.873948	-0.669655
C34	C	1.853287	-0.939687	-0.669697
C35	C	1.680450	-0.940630	-0.817684
C36	C	1.680402	-0.874891	-0.817650
C37	C	1.766791	-0.841554	-0.743629
C38	C	2.093840	-0.193743	-0.768693
C39	C	2.233281	-0.188007	-0.779413
C40	C	1.741645	-0.195564	-1.070751
C41	C	1.731002	-0.190604	-1.210191
C42	C	1.766814	-0.043000	-0.743650
C43	C	1.766895	0.026973	-0.743698
C44	C	1.791573	-0.218747	-0.417602
C45	C	1.802459	-0.223520	-0.278183
H46	H	1.281783	-0.150768	-0.848906
H47	H	1.610020	-0.848515	-0.877886
H48	H	1.871783	-0.255489	-1.229719
H49	H	1.609737	-0.447691	-0.877738
H50	H	1.252725	-0.263598	-0.638285
H51	H	1.923279	-0.445981	-0.609221
Cl52	Cl	1.623977	-0.141234	-1.285016
H53	H	1.609825	-0.566958	-0.877770
Cl54	Cl	1.961648	-0.579593	-0.576509
H55	H	1.923575	-0.846803	-0.609387
Cl56	Cl	1.571849	-0.982542	-0.910722
H57	H	1.923674	-0.966060	-0.609456
