data_functionalizedCrystal
_audit_creation_method	'MofGen! by Chris Wilmer'
_symmetry_space_group_name_H-M	'P1'
_symmetry_Int_Tables_number	1
_symmetry_cell_setting	triclinic
loop_
_symmetry_equiv_pos_as_xyz
  x,y,z
_cell_length_a	17.019282
_cell_length_b	11.792241
_cell_length_c	16.098538
_cell_angle_alpha	92.741434
_cell_angle_beta	88.859428
_cell_angle_gamma	96.209721
loop_
_atom_site_label
_atom_site_type_symbol
_atom_site_fract_x
_atom_site_fract_y
_atom_site_fract_z
O1	O	1.047002	-0.144945	-0.005859
O2	O	0.818247	-0.162197	0.010554
O3	O	0.938176	0.011629	0.001943
O4	O	0.927074	-0.318771	0.002751
O5	O	0.931170	0.001514	-0.136067
O6	O	0.811242	-0.172311	-0.127456
O7	O	1.039996	-0.155059	-0.143869
Zn8	Zn	0.924506	-0.165291	-0.157575
Zn9	Zn	0.933737	-0.151965	0.024259
O10	O	0.920068	-0.328885	-0.135258
C11	C	0.785459	-0.166403	-0.056350
C12	C	0.698197	-0.163854	-0.050089
C13	C	0.653387	-0.168167	-0.122378
C14	C	0.571396	-0.165754	-0.116498
C15	C	0.534217	-0.159036	-0.038327
C16	C	0.579033	-0.154719	0.033968
C17	C	0.661023	-0.157124	0.028087
C18	C	0.286853	-0.151490	-0.016806
C19	C	0.204857	-0.149089	-0.010930
C20	C	0.197226	-0.160121	-0.161396
C21	C	0.279217	-0.162533	-0.167271
C22	C	0.324027	-0.158210	-0.094976
C23	C	0.450409	-0.156572	-0.032314
C24	C	0.407833	-0.160665	-0.100989
C25	C	0.933975	0.048859	-0.067011
C26	C	0.931888	0.174861	-0.066861
C27	C	1.072785	-0.150853	-0.076964
C28	C	1.160047	-0.153402	-0.083219
C29	C	0.924268	-0.366115	-0.066302
C30	C	0.926356	-0.492117	-0.066447
N31	N	0.918213	-0.174385	-0.281672
C32	C	0.928050	0.405554	-0.066572
C33	C	0.930183	0.277180	-0.066732
C34	C	0.969134	-0.100633	-0.328913
C35	C	0.964738	-0.107005	-0.415786
C36	C	0.909425	-0.187136	-0.455417
C37	C	0.858498	-0.260891	-0.408170
C38	C	0.862891	-0.254513	-0.321298
C39	C	0.893503	-0.210239	-0.717524
C40	C	0.889116	-0.216615	-0.804403
C41	C	0.995355	-0.062726	-0.812013
C42	C	0.999746	-0.056359	-0.725140
C43	C	0.948816	-0.130111	-0.677899
C44	C	0.904933	-0.193654	-0.544216
C45	C	0.953306	-0.123586	-0.589102
N46	N	0.940037	-0.142862	0.148356
H47	H	0.548756	-0.149241	0.097617
H48	H	0.844071	-0.281872	-0.836665
O49	O	1.053200	0.021974	-0.686721
C50	C	1.013049	0.095816	-0.633710
H51	H	0.952564	0.051440	-0.616138
H52	H	1.005271	0.176894	-0.667088
C53	C	1.135688	0.181406	-0.576032
C54	C	1.061402	0.126898	-0.554445
H55	H	1.165516	0.200584	-0.527139
H56	H	1.162740	0.131660	-0.611748
H57	H	1.129197	0.248964	-0.603848
H58	H	1.067895	0.059335	-0.526639
H59	H	1.034353	0.176633	-0.518722
O60	O	1.006918	-0.045658	-0.550525
C61	C	0.967045	0.028251	-0.497290
H62	H	0.906404	-0.015757	-0.479879
H63	H	0.959633	0.109674	-0.530396
C64	C	1.089899	0.112494	-0.439322
C65	C	1.015421	0.058439	-0.417932
H66	H	1.119740	0.131121	-0.390372
H67	H	1.116763	0.062704	-0.475190
H68	H	1.083711	0.180340	-0.466912
H69	H	1.021609	-0.009412	-0.390353
H70	H	0.988559	0.108219	-0.382058
H71	H	0.852035	-0.270293	-0.679068
H72	H	0.859897	-0.258900	-0.576490
H73	H	0.160733	-0.163639	-0.220255
H74	H	0.534917	-0.169247	-0.175364
H75	H	0.174588	-0.143621	0.052730
H76	H	0.813457	-0.326132	-0.440442
H77	H	1.014179	-0.035386	-0.296652
O78	O	0.689379	-0.174643	-0.198381
C79	C	0.632240	-0.177958	-0.260923
H80	H	0.578017	-0.138730	-0.234897
H81	H	0.614484	-0.270364	-0.282865
C82	C	0.733654	-0.157920	-0.366724
C83	C	0.667059	-0.109731	-0.334760
H84	H	0.755133	-0.115840	-0.412272
H85	H	0.772150	-0.155691	-0.324589
H86	H	0.718848	-0.234924	-0.385002
H87	H	0.681868	-0.032734	-0.316473
H88	H	0.628567	-0.111946	-0.376894
O89	O	0.315210	-0.169010	-0.243273
C90	C	0.258074	-0.172331	-0.305818
H91	H	0.203852	-0.133096	-0.279799
H92	H	0.240316	-0.264740	-0.327753
C93	C	0.359493	-0.152316	-0.411616
C94	C	0.292898	-0.104119	-0.379660
H95	H	0.380974	-0.110245	-0.457167
H96	H	0.397987	-0.150083	-0.369479
H97	H	0.344685	-0.229322	-0.429888
H98	H	0.307709	-0.027119	-0.361379
H99	H	0.254408	-0.106337	-0.421796
O100	O	0.330252	-0.147335	0.053502
C101	C	0.279854	-0.140863	0.123755
H102	H	0.217189	-0.176672	0.106113
H103	H	0.280163	-0.047942	0.146940
C104	C	0.385998	-0.166959	0.214676
C105	C	0.309034	-0.210950	0.193010
H106	H	0.403999	-0.210188	0.257398
H107	H	0.419953	-0.171315	0.167346
H108	H	0.386246	-0.089527	0.233992
H109	H	0.308788	-0.288377	0.173685
H110	H	0.275079	-0.206609	0.240339
H111	H	1.006202	-0.046949	-0.454250
O112	O	1.044897	0.008977	-0.857779
C113	C	1.094641	0.081094	-0.804169
H114	H	1.098863	0.039097	-0.742319
H115	H	1.069223	0.166192	-0.793084
C116	C	1.172427	0.153231	-0.920100
C117	C	1.177617	0.101645	-0.844136
H118	H	1.223609	0.165913	-0.944754
H119	H	1.138912	0.104648	-0.956218
H120	H	1.151242	0.224140	-0.910851
H121	H	1.198793	0.030732	-0.853387
H122	H	1.211138	0.150217	-0.808020
H123	H	0.438109	-0.166130	-0.164636
O124	O	0.704431	-0.152984	0.098392
C125	C	0.654039	-0.146514	0.168650
H126	H	0.591371	-0.182313	0.151011
H127	H	0.654356	-0.053595	0.191842
C128	C	0.760186	-0.172638	0.259559
C129	C	0.683218	-0.216616	0.237896
H130	H	0.778187	-0.215875	0.302275
H131	H	0.794138	-0.176993	0.212226
H132	H	0.760441	-0.095206	0.278880
H133	H	0.682967	-0.294041	0.218566
H134	H	0.649267	-0.212276	0.285228
O135	O	0.813392	-0.326278	-0.275531
C136	C	0.763616	-0.398354	-0.329136
H137	H	0.792714	-0.404327	-0.393365
H138	H	0.704609	-0.361921	-0.334194
C139	C	0.713908	-0.510897	-0.215205
C140	C	0.749650	-0.518241	-0.294091
H141	H	0.705289	-0.584848	-0.193587
H142	H	0.747441	-0.462336	-0.179089
H143	H	0.664739	-0.480532	-0.219431
H144	H	0.798822	-0.548592	-0.289862
H145	H	0.716125	-0.566810	-0.330205
H146	H	0.420129	-0.151102	0.031333
