data_functionalizedCrystal
_audit_creation_method	'MofGen! by Chris Wilmer'
_symmetry_space_group_name_H-M	'P1'
_symmetry_Int_Tables_number	1
_symmetry_cell_setting	triclinic
loop_
_symmetry_equiv_pos_as_xyz
  x,y,z
_cell_length_a	10.489741
_cell_length_b	11.295483
_cell_length_c	10.489741
_cell_angle_alpha	94.137284
_cell_angle_beta	84.539174
_cell_angle_gamma	85.855438
loop_
_atom_site_label
_atom_site_type_symbol
_atom_site_fract_x
_atom_site_fract_y
_atom_site_fract_z
O1	O	1.702561	-0.098950	0.171463
O2	O	1.331366	-0.098969	0.188354
O3	O	1.525409	-0.098952	-0.005689
O4	O	1.508518	-0.098967	0.365506
O5	O	1.508366	0.099097	0.011328
O6	O	1.314323	0.099081	0.205371
O7	O	1.685517	0.099099	0.188480
Cu8	Cu	1.498364	0.117173	0.198479
Cu9	Cu	1.518520	-0.117043	0.178355
O10	O	1.491474	0.099082	0.382522
C11	C	1.275313	0.000054	0.195586
C12	C	1.133684	0.000047	0.191769
C13	C	1.515612	0.000072	-0.044712
C14	C	1.511795	0.000070	-0.186342
N15	N	1.484197	0.281908	0.212633
C16	C	1.065543	0.000063	0.068305
C17	C	0.981819	-0.097586	0.118239
C18	C	0.965050	0.097675	0.135045
C19	C	1.051833	-0.097682	0.241746
C20	C	1.035066	0.097666	0.258543
C21	C	0.951372	-0.000006	0.308564
C22	C	1.741571	0.000074	0.181247
C23	C	1.883200	0.000073	0.185064
N24	N	1.532697	-0.281778	0.164191
C25	C	1.634680	0.531211	0.062234
C26	C	1.623983	0.655874	0.072939
C27	C	1.452100	0.655899	0.244741
C28	C	1.462797	0.531236	0.234036
C29	C	1.554091	0.468897	0.142781
C30	C	1.564794	0.344231	0.132083
C31	C	1.392905	0.344259	0.303877
C32	C	1.382208	0.468922	0.314582
C33	C	1.388331	0.000055	-0.254483
C34	C	1.438251	0.097706	-0.338215
C35	C	1.455084	-0.097555	-0.354967
C36	C	1.561759	0.097802	-0.268202
C37	C	1.578582	-0.097547	-0.284951
C38	C	1.628589	0.000128	-0.368654
C39	C	1.501272	0.000056	0.421546
C40	C	1.505090	0.000050	0.563175
H41	H	0.957909	-0.180138	0.058905
C42	C	1.066953	0.207885	0.337393
C43	C	1.023133	0.309862	0.281082
C44	C	1.052504	0.411426	0.353662
H45	H	1.026234	0.208753	0.422343
H46	H	1.157333	0.206746	0.339855
H47	H	0.932770	0.311000	0.278634
H48	H	1.063845	0.309033	0.196139
H49	H	1.142885	0.410287	0.356124
H50	H	1.011784	0.412282	0.438609
H51	H	1.022788	0.480628	0.315459
H52	H	1.307875	0.519693	0.388877
H53	H	1.115243	-0.000055	-0.033201
H54	H	1.089773	-0.180330	0.286845
H55	H	1.606841	0.180451	-0.230268
H56	H	1.327288	0.293509	0.369467
C57	C	0.885552	-0.000322	0.444035
C58	C	0.929851	-0.102748	0.499264
C59	C	0.869233	-0.103093	0.624048
H60	H	0.904643	0.068304	0.494274
H61	H	0.795282	0.000276	0.440973
H62	H	1.020100	-0.103335	0.502333
H63	H	0.910760	-0.171390	0.449061
H64	H	0.778963	-0.102495	0.620986
H65	H	0.888328	-0.034463	0.674276
H66	H	0.899272	-0.172593	0.661532
C67	C	1.657858	-0.207479	-0.252942
C68	C	1.762341	-0.172599	-0.189653
C69	C	1.835397	-0.273846	-0.160157
H70	H	1.606028	-0.252731	-0.198835
H71	H	1.688391	-0.254560	-0.329984
H72	H	1.731808	-0.125538	-0.112622
H73	H	1.814202	-0.127361	-0.243737
H74	H	1.865930	-0.320927	-0.237199
H75	H	1.783556	-0.319091	-0.106054
H76	H	1.906303	-0.250195	-0.117223
C77	C	1.395087	-0.207679	-0.405938
C78	C	1.484148	-0.275225	-0.495281
C79	C	1.428909	-0.376664	-0.542268
H80	H	1.371277	-0.254097	-0.336819
H81	H	1.321017	-0.184248	-0.446352
H82	H	1.558195	-0.298658	-0.454867
H83	H	1.507965	-0.228842	-0.564422
H84	H	1.354839	-0.353232	-0.582682
H85	H	1.405101	-0.423072	-0.473141
H86	H	1.489324	-0.422500	-0.602900
H87	H	0.926968	0.180230	0.089876
H88	H	1.639133	0.293476	0.057782
H89	H	1.709024	0.480453	-0.012061
H90	H	1.286811	0.000148	-0.204824
H91	H	1.689605	0.706607	0.007349
H92	H	1.377761	0.706672	0.319030
H93	H	1.378906	0.180258	-0.362134
H94	H	1.730188	0.000187	-0.418073
