data_functionalizedCrystal
_audit_creation_method	'MofGen! by Chris Wilmer'
_symmetry_space_group_name_H-M	'P1'
_symmetry_Int_Tables_number	1
_symmetry_cell_setting	triclinic
loop_
_symmetry_equiv_pos_as_xyz
  x,y,z
_cell_length_a	19.188930
_cell_length_b	19.188905
_cell_length_c	9.616153
_cell_angle_alpha	89.986020
_cell_angle_beta	89.992615
_cell_angle_gamma	83.139668
loop_
_atom_site_label
_atom_site_type_symbol
_atom_site_fract_x
_atom_site_fract_y
_atom_site_fract_z
O1	O	0.087082	0.926159	-0.115890
O2	O	0.587082	1.426159	0.384110
O3	O	0.098834	0.722845	-0.115845
O4	O	0.598834	1.222845	0.384155
O5	O	-0.008698	0.830369	-0.115842
O6	O	0.491302	1.330369	0.384158
O7	O	0.194614	0.818635	-0.115893
O8	O	0.694614	1.318635	0.384107
O9	O	-0.008696	0.830354	0.115450
O10	O	0.491304	1.330354	0.615450
O11	O	0.098836	0.722830	0.115447
O12	O	0.598836	1.222830	0.615447
O13	O	0.087084	0.926144	0.115401
O14	O	0.587084	1.426144	0.615401
Zn15	Zn	0.092961	0.824485	0.152146
Zn16	Zn	0.592961	1.324485	0.652146
Zn17	Zn	0.092957	0.824504	-0.152590
Zn18	Zn	0.592957	1.324504	0.347410
O19	O	0.194616	0.818620	0.115398
O20	O	0.694616	1.318620	0.615398
C21	C	0.098458	0.696826	-0.000193
C22	C	0.598458	1.196826	0.499807
C23	C	0.097324	0.619321	-0.000174
C24	C	0.597324	1.119321	0.499826
C25	C	0.096778	0.582937	-0.126255
C26	C	0.596778	1.082937	0.373745
C27	C	0.095705	0.510113	-0.126272
C28	C	0.595705	1.010113	0.373728
C29	C	0.095164	0.473678	-0.000201
C30	C	0.595164	0.973678	0.499799
C31	C	0.095714	0.510070	0.125896
C32	C	0.595714	1.010070	0.625896
C33	C	0.096794	0.582892	0.125909
C34	C	0.596794	1.082892	0.625909
N35	N	0.053736	0.364652	0.093631
N36	N	0.553736	0.864652	0.593631
N37	N	0.052709	0.295475	0.093610
N38	N	0.552709	0.795475	0.593610
C39	C	0.091911	0.254272	-0.000234
C40	C	0.591911	0.754272	0.499766
N41	N	0.132171	0.284860	-0.094077
N42	N	0.632171	0.784860	0.405923
N43	N	0.133196	0.354043	-0.094060
N44	N	0.633196	0.854043	0.405940
C45	C	0.093993	0.394716	-0.000202
C46	C	0.593993	0.894716	0.499798
C47	C	0.090203	0.138924	-0.126342
C48	C	0.590203	0.638924	0.373658
C49	C	0.089134	0.066098	-0.126353
C50	C	0.589134	0.566098	0.373647
C51	C	0.089136	0.066058	0.125818
C52	C	0.589136	0.566058	0.625818
C53	C	0.090212	0.138881	0.125826
C54	C	0.590212	0.638881	0.625826
C55	C	0.090742	0.175310	-0.000258
C56	C	0.590742	0.675310	0.499742
C57	C	-0.034708	0.829982	-0.000192
C58	C	0.465292	1.329982	0.499808
C59	C	-0.112213	0.828841	-0.000180
C60	C	0.387787	1.328841	0.499820
C61	C	-0.157142	0.891933	-0.000187
C62	C	0.342858	1.391933	0.499813
C63	C	-0.229966	0.890861	-0.000209
C64	C	0.270034	1.390861	0.499791
C65	C	-0.257857	0.826694	-0.000196
C66	C	0.242143	1.326694	0.499804
C67	C	-0.212917	0.763594	-0.000196
C68	C	0.287083	1.263594	0.499804
C69	C	-0.140095	0.764668	-0.000188
C70	C	0.359905	1.264668	0.499812
N71	N	-0.365856	0.777641	0.078528
N72	N	0.134144	1.277641	0.578528
N73	N	-0.435035	0.776626	0.078523
N74	N	0.064965	1.276626	0.578523
C75	C	-0.477265	0.823456	-0.000223
C76	C	0.022735	1.323456	0.499777
N77	N	-0.447705	0.871350	-0.078947
N78	N	0.052295	1.371350	0.421053
N79	N	-0.378520	0.872368	-0.078937
N80	N	0.121480	1.372368	0.421063
C81	C	-0.336819	0.825523	-0.000206
C82	C	0.163181	1.325523	0.499794
C83	C	-0.601159	0.885390	-0.000257
C84	C	-0.101159	1.385390	0.499743
C85	C	-0.673984	0.884315	-0.000287
C86	C	-0.173984	1.384315	0.499713
C87	C	-0.656933	0.757047	-0.000260
C88	C	-0.156933	1.257047	0.499740
C89	C	-0.584110	0.758123	-0.000244
C90	C	-0.084110	1.258123	0.499756
C91	C	-0.556228	0.822296	-0.000235
C92	C	-0.056228	1.322296	0.499765
C93	C	0.220626	0.819007	-0.000255
C94	C	0.720626	1.319007	0.499745
C95	C	0.298131	0.820148	-0.000276
C96	C	0.798131	1.320148	0.499724
C97	C	0.087460	0.952163	-0.000254
C98	C	0.587460	1.452163	0.499746
C99	C	0.088594	1.029668	-0.000281
C100	C	0.588594	1.529668	0.499719
N101	N	0.092962	0.824477	0.360121
N102	N	0.592962	1.324477	0.860121
N103	N	0.092950	0.824518	-0.360565
N104	N	0.592950	1.324518	0.139435
C105	C	0.150296	0.766787	0.580489
C106	C	0.650296	1.266787	1.080489
C107	C	0.150507	0.766910	0.419322
C108	C	0.650507	1.266910	0.919322
C109	C	0.108646	0.897282	0.418549
C110	C	0.608646	1.397282	0.918549
C111	C	0.109051	0.896967	0.579767
C112	C	0.609051	1.396967	1.079767
C113	C	0.019750	0.810090	0.580055
C114	C	0.519750	1.310090	1.080055
C115	C	0.020246	0.808408	0.418829
C116	C	0.520246	1.308408	0.918829
H117	H	0.090642	0.168585	-0.229007
H118	H	0.590642	0.668585	0.270993
H119	H	-0.679641	0.704801	-0.000256
H120	H	-0.179641	1.204801	0.499744
H121	H	0.204316	0.775849	0.620971
H122	H	0.704316	1.275849	1.120971
H123	H	-0.710565	0.935694	-0.000301
H124	H	-0.210565	1.435694	0.499699
H125	H	0.141196	0.712785	0.379822
H126	H	0.641196	1.212785	0.879822
H127	H	0.088694	0.036475	-0.229028
H128	H	0.588694	0.536475	0.270972
H129	H	-0.547527	0.706747	-0.000230
H130	H	-0.047527	1.206747	0.499770
C131	C	0.137939	0.693437	0.632953
C132	C	0.637939	1.193437	1.132953
H133	H	0.097698	0.697360	0.691284
H134	H	0.597698	1.197360	1.191284
H135	H	0.130734	0.664197	0.555853
H136	H	0.630734	1.164197	1.055853
H137	H	0.177760	0.673504	0.684125
H138	H	0.677760	1.173504	1.184125
C139	C	0.088544	0.025991	0.264497
C140	C	0.588544	0.525991	0.764497
H141	H	0.089026	0.058092	0.339591
H142	H	0.589026	0.558092	0.839591
H143	H	0.047418	0.003035	0.269749
H144	H	0.547418	0.503035	0.769749
H145	H	0.128836	-0.007872	0.269720
H146	H	0.628836	0.492128	0.769720
H147	H	0.090651	0.168505	0.228495
H148	H	0.590651	0.668505	0.728495
H149	H	0.095262	0.480484	-0.228945
H150	H	0.595262	0.980484	0.271055
C151	C	0.097383	0.622917	0.264604
C152	C	0.597383	1.122917	0.764604
H153	H	0.096902	0.590791	0.339688
H154	H	0.596902	1.090791	0.839688
H155	H	0.138506	0.645873	0.269847
H156	H	0.638506	1.145873	0.769847
H157	H	0.057088	0.656775	0.269850
H158	H	0.557088	1.156775	0.769850
H159	H	-0.022923	0.852192	0.618173
H160	H	0.477077	1.352192	1.118173
C161	C	-0.126475	0.962520	-0.000202
C162	C	0.373525	1.462520	0.499798
H163	H	-0.163668	0.999942	-0.000224
H164	H	0.336332	1.499942	0.499776
H165	H	-0.098425	0.965583	0.080451
H166	H	0.401575	1.465583	0.580451
H167	H	-0.098419	0.965587	-0.080872
H168	H	0.401581	1.465587	0.419128
C169	C	0.179934	0.914918	0.363977
C170	C	0.679934	1.414918	0.863977
H171	H	0.200229	0.878011	0.305603
H172	H	0.700229	1.378011	0.805603
H173	H	0.173222	0.957430	0.312439
H174	H	0.673222	1.457430	0.812439
H175	H	0.210337	0.920178	0.440234
H176	H	0.710337	1.420178	0.940234
C177	C	0.223895	0.779323	0.367171
C178	C	0.723895	1.279323	0.867171
H179	H	0.253694	0.784317	0.444516
H180	H	0.753694	1.284317	0.944516
H181	H	0.242986	0.740487	0.312350
H182	H	0.742986	1.240487	0.812350
H183	H	0.220282	0.820837	0.312488
H184	H	0.720282	1.320837	0.812488
H185	H	-0.266555	0.942239	-0.000221
H186	H	0.233445	1.442239	0.499779
H187	H	-0.024409	0.847738	0.378537
H188	H	0.475591	1.347738	0.878537
H189	H	-0.235631	0.711349	-0.000188
H190	H	0.264369	1.211349	0.499812
H191	H	0.068918	0.941255	0.618755
H192	H	0.568918	1.441255	1.118755
H193	H	0.095275	0.480400	0.228543
H194	H	0.595275	0.980400	0.728543
H195	H	-0.103513	0.713289	-0.000182
H196	H	0.396487	1.213289	0.499818
H197	H	-0.578456	0.937644	-0.000256
H198	H	-0.078456	1.437644	0.499744
C199	C	0.097371	0.623004	-0.264941
C200	C	0.597371	1.123004	0.235059
H201	H	0.096898	0.590900	-0.340033
H202	H	0.596898	1.090900	0.159967
H203	H	0.057088	0.656871	-0.270172
H204	H	0.557088	1.156871	0.229828
H205	H	0.138506	0.645952	-0.270186
H206	H	0.638506	1.145952	0.229814
C207	C	0.181160	0.914179	0.630529
C208	C	0.681160	1.414179	1.130529
H209	H	0.209933	0.921294	0.552623
H210	H	0.709933	1.421294	1.052623
H211	H	0.175147	0.955583	0.685511
H212	H	0.675147	1.455583	1.185511
H213	H	0.202896	0.876265	0.684751
H214	H	0.702896	1.376265	1.184751
C215	C	-0.000688	0.739934	0.635049
C216	C	0.499312	1.239934	1.135049
H217	H	0.035236	0.718785	0.694744
H218	H	0.535236	1.218785	1.194744
H219	H	-0.043508	0.748225	0.685269
H220	H	0.456492	1.248225	1.185269
H221	H	-0.006382	0.709502	0.559051
H222	H	0.493618	1.209502	1.059051
H223	H	0.067981	0.941254	0.380197
H224	H	0.567981	1.441254	0.880197
H225	H	0.008338	0.754853	0.380645
H226	H	0.508338	1.254853	0.880645
