data_functionalizedCrystal
_audit_creation_method	'MofGen! by Chris Wilmer'
_symmetry_space_group_name_H-M	'P1'
_symmetry_Int_Tables_number	1
_symmetry_cell_setting	triclinic
loop_
_symmetry_equiv_pos_as_xyz
  x,y,z
_cell_length_a	16.956993
_cell_length_b	10.654550
_cell_length_c	9.730223
_cell_angle_alpha	90.003749
_cell_angle_beta	89.996377
_cell_angle_gamma	99.730198
loop_
_atom_site_label
_atom_site_type_symbol
_atom_site_fract_x
_atom_site_fract_y
_atom_site_fract_z
O1	O	-0.111930	1.654680	0.114410
O2	O	-0.122594	1.287948	0.114389
O3	O	-0.001305	1.493344	0.114384
O4	O	-0.233219	1.449283	0.114415
O5	O	-0.001308	1.493342	-0.114196
O6	O	-0.122597	1.287945	-0.114191
O7	O	-0.111933	1.654677	-0.114170
Zn8	Zn	-0.117266	1.471311	-0.150473
Zn9	Zn	-0.117262	1.471314	0.150691
O10	O	-0.233222	1.449281	-0.114165
C11	C	0.028389	1.495599	0.000092
C12	C	0.116872	1.502306	0.000088
C13	C	-0.121813	1.241241	0.000096
C14	C	-0.119470	1.102073	0.000087
C15	C	0.615895	1.552482	0.000046
C16	C	0.532755	1.546170	0.000046
C17	C	0.482322	1.427691	0.000050
C18	C	0.515032	1.315517	0.000041
C19	C	0.598171	1.321830	0.000031
C20	C	0.232722	1.396445	0.000069
C21	C	0.149578	1.390140	0.000083
C22	C	0.167306	1.620794	0.000086
C23	C	0.250445	1.627096	0.000084
C24	C	0.283149	1.514922	0.000068
N25	N	0.397339	1.421237	0.000054
N26	N	0.368131	1.521378	0.000054
C27	C	-0.190883	1.014194	0.000117
C28	C	-0.188677	0.883433	0.000140
C29	C	-0.043639	0.928442	0.000110
C30	C	-0.045846	1.059200	0.000077
C31	C	-0.274620	0.988208	0.000140
C32	C	-0.272414	0.857446	0.000163
C33	C	0.737084	1.447025	0.000104
C34	C	0.648601	1.440316	0.000041
C35	C	-0.112714	1.701384	0.000126
C36	C	-0.115057	1.840552	0.000144
N37	N	-0.117268	1.471318	-0.356009
C38	C	-0.063579	1.562287	-0.427937
C39	C	-0.063570	1.562285	-0.571820
C40	C	-0.170944	1.380339	-0.571834
C41	C	-0.170949	1.380337	-0.427954
C42	C	-0.001590	1.667336	-0.427931
C43	C	-0.001580	1.667333	-0.571814
N44	N	-0.117253	1.471318	0.356228
H45	H	0.656953	1.648960	0.000054
F46	F	0.034713	0.882802	0.000098
F47	F	-0.019421	1.791383	-0.622852
H48	H	-0.214649	1.306264	-0.630427
H49	H	0.056305	1.643623	-0.616439
H50	H	0.259339	1.305105	0.000072
H51	H	0.059664	1.653092	-0.388886
F52	F	-0.313649	0.798048	0.125210
F53	F	-0.026968	1.783529	-0.369583
F54	F	0.304115	1.753198	0.000076
F55	F	0.132494	1.740169	0.000099
F56	F	0.497951	1.665553	0.000078
H57	H	-0.301281	1.020731	0.098831
F58	F	0.095904	1.264033	0.000083
H59	H	-0.307370	1.013689	-0.095521
H60	H	0.473963	1.219049	0.000036
H61	H	0.624798	1.230492	0.000016
H62	H	-0.297721	0.808800	-0.098517
F63	F	0.030162	1.152724	0.000018
F64	F	-0.228081	1.283503	-0.351403
