data_functionalizedCrystal
_audit_creation_method	'MofGen! by Chris Wilmer'
_symmetry_space_group_name_H-M	'P1'
_symmetry_Int_Tables_number	1
_symmetry_cell_setting	triclinic
loop_
_symmetry_equiv_pos_as_xyz
  x,y,z
_cell_length_a	6.817900
_cell_length_b	11.168129
_cell_length_c	14.858572
_cell_angle_alpha	93.498200
_cell_angle_beta	104.524003
_cell_angle_gamma	108.508637
loop_
_atom_site_label
_atom_site_type_symbol
_atom_site_fract_x
_atom_site_fract_y
_atom_site_fract_z
V1	V	-4.064039	-0.175499	-0.289968
O2	O	-4.024496	0.007616	-0.284440
O3	O	-4.040640	-0.347199	-0.287993
O4	O	-4.020336	-0.173159	-0.416430
O5	O	-4.044941	-0.167630	-0.155114
V6	V	-4.543819	-0.153554	-0.273838
O7	O	-4.333508	-0.223638	-0.325352
O8	O	-4.724546	-0.105416	-0.238454
O9	O	-4.344011	0.018146	-0.275813
O10	O	-4.700758	-0.336669	-0.279366
O11	O	-4.680314	-0.161424	-0.408692
O12	O	-4.364315	-0.155895	-0.147376
C13	C	-3.891571	-0.389045	-0.283421
C14	C	-3.953757	-0.529414	-0.282649
C15	C	-3.937465	-0.574637	-0.201368
C16	C	-4.001737	-0.719716	-0.200568
C17	C	-3.865670	-0.167037	-0.447253
C18	C	-3.911387	-0.166259	-0.550636
C19	C	-4.078712	-0.163417	-0.929204
C20	C	-4.032149	-0.164208	-0.823875
C21	C	-3.995051	-0.164839	-0.739924
C22	C	-3.948484	-0.165628	-0.634588
C23	C	-4.156423	0.059985	-0.280383
C24	C	-4.073475	0.200353	-0.281161
C25	C	-4.182324	-0.162021	-0.116548
C26	C	-4.115845	-0.162792	-0.013164
H27	H	-3.875945	-0.505949	-0.132373
Br28	Br	-4.056335	-0.643889	-0.397654
H29	H	-4.087313	-0.760699	-0.350753
Br30	Br	-3.978633	-0.784636	-0.084574
