data_functionalizedCrystal
_audit_creation_method	'MofGen! by Chris Wilmer'
_symmetry_space_group_name_H-M	'P1'
_symmetry_Int_Tables_number	1
_symmetry_cell_setting	triclinic
loop_
_symmetry_equiv_pos_as_xyz
  x,y,z
_cell_length_a	17.077404
_cell_length_b	29.839131
_cell_length_c	17.077396
_cell_angle_alpha	89.968087
_cell_angle_beta	89.981638
_cell_angle_gamma	90.039390
loop_
_atom_site_label
_atom_site_type_symbol
_atom_site_fract_x
_atom_site_fract_y
_atom_site_fract_z
Zn1	Zn	1.199953	-0.178878	-0.443800
Zn2	Zn	1.533287	0.154456	-0.110467
Zn3	Zn	1.866620	0.487789	0.222867
Zn4	Zn	1.199818	-0.254008	-0.312526
Zn5	Zn	1.533151	0.079325	0.020807
Zn6	Zn	1.866485	0.412658	0.354140
Zn7	Zn	1.068685	-0.178890	-0.312551
Zn8	Zn	1.402019	0.154443	0.020783
Zn9	Zn	1.735352	0.487776	0.354116
Zn10	Zn	1.068611	-0.253979	-0.443752
Zn11	Zn	1.401944	0.079355	-0.110419
Zn12	Zn	1.735277	0.412688	0.222914
O13	O	1.134267	-0.216439	-0.378157
O14	O	1.467600	0.116895	-0.044824
O15	O	1.800934	0.450228	0.288509
O16	O	1.309782	-0.188851	-0.426396
O17	O	1.643116	0.144482	-0.093063
O18	O	1.976449	0.477816	0.240271
O19	O	1.182398	-0.244062	-0.202682
O20	O	1.515731	0.089272	0.130651
O21	O	1.849064	0.422605	0.463984
O22	O	1.086186	-0.116022	-0.329991
O23	O	1.419519	0.217312	0.003342
O24	O	1.752853	0.550645	0.336675
O25	O	1.309683	-0.244049	-0.329950
O26	O	1.643016	0.089284	0.003384
O27	O	1.976350	0.422618	0.336717
O28	O	1.182628	-0.116012	-0.426420
O29	O	1.515962	0.217321	-0.093086
O30	O	1.849295	0.550654	0.240247
O31	O	1.086055	-0.188873	-0.202700
O32	O	1.419388	0.144461	0.130633
O33	O	1.752722	0.477794	0.463966
O34	O	0.958829	-0.188844	-0.329945
O35	O	1.292162	0.144489	0.003388
O36	O	1.625495	0.477823	0.336722
O37	O	1.086059	-0.243999	-0.553606
O38	O	1.419393	0.089335	-0.220272
O39	O	1.752726	0.422668	0.113061
O40	O	0.958774	-0.244011	-0.426338
O41	O	1.292107	0.089322	-0.093005
O42	O	1.625440	0.422656	0.240328
O43	O	1.182556	-0.188822	-0.553641
O44	O	1.515889	0.144511	-0.220307
O45	O	1.849223	0.477844	0.113026
O46	O	1.182325	-0.316872	-0.329903
O47	O	1.515659	0.016462	0.003430
O48	O	1.848992	0.349795	0.336763
O49	O	1.085928	-0.316850	-0.426315
O50	O	1.419261	0.016484	-0.092981
O51	O	1.752595	0.349817	0.240352
C52	C	0.930319	-0.216426	-0.378140
C53	C	1.263652	0.116907	-0.044806
C54	C	1.596986	0.450241	0.288527
C55	C	0.843069	-0.216431	-0.378151
C56	C	1.176403	0.116902	-0.044817
C57	C	1.509736	0.450235	0.288516
C58	C	0.802132	-0.187741	-0.428447
C59	C	1.135465	0.145592	-0.095114
C60	C	1.468798	0.478926	0.238220
C61	C	0.720151	-0.187744	-0.428451
C62	C	1.053485	0.145590	-0.095117
C63	C	1.386818	0.478923	0.238216
C64	C	0.679110	-0.216440	-0.378161
C65	C	1.012443	0.116894	-0.044828
C66	C	1.345777	0.450227	0.288505
C67	C	0.720053	-0.245132	-0.327860
C68	C	1.053387	0.088202	0.005474
C69	C	1.386720	0.421535	0.338807
C70	C	0.802032	-0.245126	-0.327853
C71	C	1.135366	0.088207	0.005481
C72	C	1.468699	0.421540	0.338814
C73	C	0.549183	-0.245142	-0.327879
C74	C	0.882517	0.088191	0.005454
C75	C	1.215850	0.421525	0.338788
C76	C	0.467199	-0.245148	-0.327887
C77	C	0.800532	0.088185	0.005446
C78	C	1.133865	0.421519	0.338780
C79	C	0.467302	-0.187759	-0.428477
C80	C	0.800636	0.145574	-0.095144
C81	C	1.133969	0.478907	0.238189
C82	C	0.549281	-0.187754	-0.428470
C83	C	0.882614	0.145579	-0.095137
C84	C	1.215948	0.478913	0.238196
C85	C	0.590219	-0.216447	-0.378169
C86	C	0.923552	0.116887	-0.044836
C87	C	1.256886	0.450220	0.288497
C88	C	1.134125	-0.333161	-0.378118
C89	C	1.467459	0.000172	-0.044785
C90	C	1.800792	0.333505	0.288548
C91	C	1.134136	-0.383096	-0.378128
C92	C	1.467470	-0.049762	-0.044795
C93	C	1.800803	0.283571	0.288539
C94	C	1.184552	-0.692738	-0.328029
C95	C	1.517886	-0.359405	0.005304
C96	C	1.851219	-0.026071	0.338637
C97	C	1.184649	-0.880411	-0.328060
C98	C	1.517983	-0.547078	0.005274
C99	C	1.851316	-0.213744	0.338607
O100	O	1.227402	-0.904675	-0.285434
O101	O	1.560736	-0.571341	0.047899
O102	O	1.894069	-0.238008	0.381233
N103	N	1.134430	-0.903881	-0.378217
N104	N	1.467763	-0.570547	-0.044883
N105	N	1.801096	-0.237214	0.288450
C106	C	1.084186	-0.880430	-0.428373
C107	C	1.417519	-0.547096	-0.095040
C108	C	1.750853	-0.213763	0.238294
O109	O	1.041479	-0.904699	-0.471041
O110	O	1.374812	-0.571365	-0.137707
O111	O	1.708146	-0.238032	0.195626
C112	C	1.084094	-0.692757	-0.428346
C113	C	1.417427	-0.359424	-0.095012
C114	C	1.750760	-0.026091	0.238321
C115	C	1.134311	-0.669290	-0.378180
C116	C	1.467644	-0.335957	-0.044847
C117	C	1.800978	-0.002623	0.288487
C118	C	1.234766	-0.669270	-0.277868
C119	C	1.568099	-0.335937	0.055465
C120	C	1.901433	-0.002604	0.388798
C121	C	1.234738	-0.622355	-0.277858
C122	C	1.568072	-0.289022	0.055475
C123	C	1.901405	0.044312	0.388808
C124	C	1.184497	-0.598907	-0.328009
C125	C	1.517830	-0.265574	0.005324
C126	C	1.851164	0.067760	0.338658
C127	C	1.134283	-0.622375	-0.378170
C128	C	1.467616	-0.289041	-0.044837
C129	C	1.800950	0.044292	0.288497
C130	C	1.033855	-0.669307	-0.478506
C131	C	1.367188	-0.335974	-0.145172
C132	C	1.700521	-0.002640	0.188161
C133	C	1.033837	-0.622386	-0.478496
C134	C	1.367171	-0.289053	-0.145162
C135	C	1.700504	0.044281	0.188171
C136	C	1.084054	-0.598919	-0.428330
C137	C	1.417388	-0.265585	-0.094997
C138	C	1.750721	0.067748	0.238337
C139	C	1.084014	-0.552011	-0.428311
C140	C	1.417347	-0.218678	-0.094977
C141	C	1.750681	0.114655	0.238356
N142	N	1.134233	-0.528541	-0.378154
N143	N	1.467567	-0.195208	-0.044821
N144	N	1.800900	0.138125	0.288513
C145	C	1.184475	-0.551989	-0.328003
C146	C	1.517808	-0.218656	0.005330
C147	C	1.851142	0.114678	0.338664
C148	C	1.084237	-0.978960	-0.428382
C149	C	1.417570	-0.645627	-0.095049
C150	C	1.750904	-0.312294	0.238284
C151	C	1.084259	-1.025878	-0.428388
C152	C	1.417592	-0.692545	-0.095055
C153	C	1.750926	-0.359211	0.238278
C154	C	1.184723	-1.025856	-0.328076
C155	C	1.518057	-0.692523	0.005257
C156	C	1.851390	-0.359189	0.338591
C157	C	1.184697	-0.978937	-0.328067
C158	C	1.518030	-0.645604	0.005267
C159	C	1.851364	-0.312271	0.338600
C160	C	1.134456	-0.955490	-0.378226
C161	C	1.467790	-0.622157	-0.044892
C162	C	1.801123	-0.288824	0.288441
C163	C	1.184412	-0.453463	-0.327985
C164	C	1.517746	-0.120130	0.005348
C165	C	1.851079	0.213203	0.338682
C166	C	1.184378	-0.406544	-0.327977
C167	C	1.517711	-0.073210	0.005356
C168	C	1.851045	0.260123	0.338689
C169	C	1.083917	-0.406570	-0.428292
C170	C	1.417250	-0.073236	-0.094959
C171	C	1.750583	0.260097	0.238375
C172	C	1.083948	-0.453485	-0.428297
C173	C	1.417281	-0.120152	-0.094964
C174	C	1.750615	0.213181	0.238369
C175	C	1.134202	-0.476931	-0.378141
C176	C	1.467535	-0.143598	-0.044808
C177	C	1.800869	0.189736	0.288525
O178	O	1.041289	-0.527719	-0.470920
O179	O	1.374623	-0.194385	-0.137587
O180	O	1.707956	0.138948	0.195746
O181	O	1.227188	-0.527712	-0.285354
O182	O	1.560521	-0.194379	0.047979
O183	O	1.893854	0.138955	0.381313
C184	C	1.184580	-0.739653	-0.328039
C185	C	1.517913	-0.406320	0.005294
C186	C	1.851247	-0.072987	0.338627
C187	C	1.134366	-0.763121	-0.378200
C188	C	1.467700	-0.429788	-0.044867
C189	C	1.801033	-0.096454	0.288466
C190	C	1.084125	-0.739673	-0.428351
C191	C	1.417458	-0.406340	-0.095018
C192	C	1.750792	-0.073006	0.238315
C193	C	1.134388	-0.810039	-0.378206
C194	C	1.467722	-0.476705	-0.044873
C195	C	1.801055	-0.143372	0.288460
C196	C	1.184630	-0.833487	-0.328056
C197	C	1.517963	-0.500153	0.005278
C198	C	1.851296	-0.166820	0.338611
C199	C	1.234849	-0.810017	-0.277899
C200	C	1.568183	-0.476683	0.055435
C201	C	1.901516	-0.143350	0.388768
C202	C	1.234822	-0.763101	-0.277889
C203	C	1.568155	-0.429768	0.055445
C204	C	1.901488	-0.096435	0.388778
C205	C	1.033905	-0.763143	-0.478508
C206	C	1.367239	-0.429810	-0.145175
C207	C	1.700572	-0.096476	0.188159
C208	C	1.033937	-0.810058	-0.478513
C209	C	1.367270	-0.476725	-0.145180
C210	C	1.700603	-0.143392	0.188153
C211	C	1.084178	-0.833506	-0.428363
C212	C	1.417511	-0.500173	-0.095029
C213	C	1.750845	-0.166840	0.238304
C214	C	1.339011	-0.216452	-0.378175
C215	C	1.672344	0.116881	-0.044842
C216	C	2.005678	0.450215	0.288491
C217	C	1.426261	-0.216458	-0.378183
C218	C	1.759594	0.116876	-0.044850
C219	C	2.092928	0.450209	0.288483
C220	C	1.134314	-0.216406	-0.582902
C221	C	1.467648	0.116928	-0.249568
C222	C	1.800981	0.450261	0.083765
C223	C	1.134335	-0.216392	-0.670152
C224	C	1.467668	0.116942	-0.336818
C225	C	1.801001	0.450275	-0.003485
C226	C	1.134431	-0.099260	-0.378214
C227	C	1.467764	0.234073	-0.044880
C228	C	1.801097	0.567406	0.288453
C229	C	1.134500	-0.049326	-0.378238
C230	C	1.467834	0.284007	-0.044904
C231	C	1.801167	0.617341	0.288429
C232	C	1.184582	-0.187659	-0.711161
C233	C	1.517916	0.145674	-0.377828
C234	C	1.851249	0.479008	-0.044495
C235	C	1.184592	-0.187644	-0.793142
C236	C	1.517925	0.145689	-0.459808
C237	C	1.851259	0.479023	-0.126475
C238	C	1.134357	-0.216364	-0.834111
C239	C	1.467690	0.116969	-0.500778
C240	C	1.801024	0.450302	-0.167444
C241	C	1.084104	-0.245098	-0.793096
C242	C	1.417437	0.088235	-0.459762
C243	C	1.750770	0.421568	-0.126429
C244	C	1.084091	-0.245111	-0.711117
C245	C	1.417424	0.088223	-0.377783
C246	C	1.750758	0.421556	-0.044450
C247	C	1.084135	-0.245071	-0.963966
C248	C	1.417469	0.088262	-0.630632
C249	C	1.750802	0.421595	-0.297299
C250	C	1.084149	-0.245060	-1.045950
C251	C	1.417482	0.088274	-0.712617
C252	C	1.750816	0.421607	-0.379284
C253	C	1.184636	-0.187605	-1.045991
C254	C	1.517970	0.145729	-0.712658
C255	C	1.851303	0.479062	-0.379324
C256	C	1.184624	-0.187617	-0.964012
C257	C	1.517957	0.145716	-0.630679
C258	C	1.851290	0.479050	-0.297345
C259	C	1.134371	-0.216352	-0.923002
C260	C	1.467704	0.116982	-0.589669
C261	C	1.801038	0.450315	-0.256335
C262	C	1.134265	-0.216439	-0.174209
C263	C	1.467598	0.116894	0.159124
C264	C	1.800931	0.450227	0.492457
C265	C	1.134397	-0.216327	-0.086960
C266	C	1.467730	0.117006	0.246373
C267	C	1.801063	0.450340	0.579707
H268	H	0.433967	-0.164396	-0.469433
H269	H	0.767300	0.168937	-0.136099
H270	H	1.100633	0.502271	0.197234
Br271	Br	1.016093	-1.057721	-0.496461
Br272	Br	1.349426	-0.724388	-0.163128
Br273	Br	1.682759	-0.391054	0.170205
H274	H	1.275713	-0.743997	-0.237039
H275	H	1.609047	-0.410664	0.096294
H276	H	1.942380	-0.077331	0.429627
Br277	Br	1.015738	-0.374739	-0.496354
Br278	Br	1.349071	-0.041405	-0.163020
Br279	Br	1.682405	0.291928	0.170313
H280	H	0.433785	-0.268515	-0.286938
H281	H	0.767118	0.064818	0.046396
H282	H	1.100452	0.398151	0.379729
Br283	Br	0.965653	-0.590568	-0.546576
Br284	Br	1.298986	-0.257234	-0.213242
Br285	Br	1.632320	0.076099	0.120091
Br286	Br	1.015932	-0.284067	-0.908310
Br287	Br	1.349265	0.049266	-0.574977
Br288	Br	1.682599	0.382599	-0.241643
H289	H	0.582512	-0.268505	-0.286917
H290	H	0.915846	0.064828	0.046417
H291	H	1.249179	0.398161	0.379750
Br292	Br	1.015890	-0.284104	-0.655459
Br293	Br	1.349223	0.049229	-0.322126
Br294	Br	1.682557	0.382563	0.011207
H295	H	0.835542	-0.164374	-0.469401
H296	H	1.168875	0.168959	-0.136067
H297	H	1.502208	0.502292	0.197266
H298	H	1.043323	-0.959873	-0.469229
H299	H	1.376657	-0.626539	-0.135896
H300	H	1.709990	-0.293206	0.197438
Br301	Br	0.664355	-0.284073	-0.259602
Br302	Br	0.997689	0.049260	0.073731
Br303	Br	1.331022	0.382593	0.407064
H304	H	1.275756	-0.829116	-0.237062
H305	H	1.609089	-0.495783	0.096271
H306	H	1.942422	-0.162449	0.429605
Br307	Br	0.857592	-0.284064	-0.259589
Br308	Br	1.190925	0.049269	0.073744
Br309	Br	1.524258	0.382602	0.407077
H310	H	1.225552	-0.164207	-1.079385
H311	H	1.558886	0.169126	-0.746052
H312	H	1.892219	0.502460	-0.412718
H313	H	1.043199	-0.268481	-0.826459
H314	H	1.376532	0.064852	-0.493126
H315	H	1.709865	0.398185	-0.159793
H316	H	1.225336	-0.472547	-0.287145
H317	H	1.558669	-0.139214	0.046188
H318	H	1.892002	0.194119	0.379522
Br319	Br	0.664596	-0.148805	-0.496714
Br320	Br	0.997929	0.184528	-0.163380
Br321	Br	1.331262	0.517862	0.169953
Br322	Br	0.965776	-0.841901	-0.546600
Br323	Br	1.299109	-0.508568	-0.213267
Br324	Br	1.632442	-0.175235	0.120067
H325	H	0.582695	-0.164390	-0.469425
H326	H	0.916028	0.168944	-0.136091
H327	H	1.249361	0.502277	0.197242
Br328	Br	1.015965	-0.284033	-1.101552
Br329	Br	1.349298	0.049300	-0.768219
Br330	Br	1.682631	0.382633	-0.434885
H331	H	0.992994	-0.744055	-0.519348
H332	H	1.326327	-0.410722	-0.186015
H333	H	1.659660	-0.077389	0.147319
Br334	Br	1.252533	-0.374698	-0.259889
Br335	Br	1.585866	-0.041364	0.073444
Br336	Br	1.919199	0.291969	0.406778
H337	H	0.992958	-0.688406	-0.519352
H338	H	1.326292	-0.355073	-0.186019
H339	H	1.659625	-0.021740	0.147315
H340	H	1.225588	-0.959833	-0.287218
H341	H	1.558922	-0.626500	0.046115
H342	H	1.892255	-0.293166	0.379449
Br343	Br	1.302905	-0.590513	-0.209784
Br344	Br	1.636239	-0.257180	0.123549
Br345	Br	1.969572	0.076153	0.456883
H346	H	1.275683	-0.688357	-0.237029
H347	H	1.609016	-0.355023	0.096304
H348	H	1.942350	-0.021690	0.429637
Br349	Br	1.252905	-1.057687	-0.260012
Br350	Br	1.586239	-0.724354	0.073322
Br351	Br	1.919572	-0.391020	0.406655
H352	H	1.043059	-0.472594	-0.469149
H353	H	1.376393	-0.139260	-0.135815
H354	H	1.709726	0.194073	0.197518
H355	H	1.225511	-0.164248	-0.826528
H356	H	1.558844	0.169085	-0.493195
H357	H	1.892177	0.502419	-0.159862
Br358	Br	1.252768	-0.148682	-0.655568
Br359	Br	1.586102	0.184651	-0.322235
Br360	Br	1.919435	0.517984	0.011099
H361	H	1.225534	-0.164233	-0.930657
H362	H	1.558867	0.169101	-0.597323
H363	H	1.892200	0.502434	-0.263990
