data_functionalizedCrystal
_audit_creation_method	'MofGen! by Chris Wilmer'
_symmetry_space_group_name_H-M	'P1'
_symmetry_Int_Tables_number	1
_symmetry_cell_setting	triclinic
loop_
_symmetry_equiv_pos_as_xyz
  x,y,z
_cell_length_a	12.645331
_cell_length_b	12.594516
_cell_length_c	12.645323
_cell_angle_alpha	89.976054
_cell_angle_beta	89.977178
_cell_angle_gamma	90.016267
loop_
_atom_site_label
_atom_site_type_symbol
_atom_site_fract_x
_atom_site_fract_y
_atom_site_fract_z
Zn1	Zn	1.620743	-0.423728	-0.599457
Zn2	Zn	1.620630	-0.601731	-0.422200
Zn3	Zn	1.443458	-0.423767	-0.422201
Zn4	Zn	1.443445	-0.601665	-0.599415
O5	O	1.532069	-0.512723	-0.510818
O6	O	1.769076	-0.447351	-0.575961
O7	O	1.597086	-0.578168	-0.273853
O8	O	1.467028	-0.274816	-0.445733
O9	O	1.768992	-0.578129	-0.445731
O10	O	1.597279	-0.274787	-0.575962
O11	O	1.466918	-0.447419	-0.273854
O12	O	1.295109	-0.447355	-0.445692
O13	O	1.467006	-0.578017	-0.747768
O14	O	1.295099	-0.578056	-0.575890
O15	O	1.597266	-0.447287	-0.747799
O16	O	1.597073	-0.750668	-0.445690
O17	O	1.466896	-0.750620	-0.575889
C18	C	1.256639	-0.512703	-0.510787
C19	C	1.138809	-0.512721	-0.510799
C20	C	1.093898	-0.430369	-0.429025
C21	C	0.971338	-0.430065	-0.429305
C22	C	0.970979	-0.482808	-0.622706
C23	C	1.093577	-0.482193	-0.622195
C24	C	1.093597	-0.625231	-0.481722
C25	C	0.970990	-0.624643	-0.479296
C26	C	1.532000	-0.789264	-0.510808
C27	C	1.532067	-0.907569	-0.510839
C28	C	1.461256	-0.976835	-0.581605
C29	C	1.435425	-1.047696	-0.484872
C30	C	1.557995	-1.047506	-0.607588
C31	C	1.506184	-0.976873	-0.414055
C32	C	1.628799	-0.976676	-0.536837
C33	C	1.603004	-1.047506	-0.440037
C34	C	1.808574	-0.512743	-0.510851
C35	C	1.926404	-0.512752	-0.510864
C36	C	1.532147	-0.512640	-0.787324
C37	C	1.532180	-0.512605	-0.905154
C38	C	1.532168	-0.235102	-0.510852
C39	C	1.532210	-0.116796	-0.510866
C40	C	1.449981	-0.594460	-1.072699
C41	C	1.450196	-0.594865	-0.950139
C42	C	1.643881	-0.543046	-0.949675
C43	C	1.643430	-0.543559	-1.072273
C44	C	1.503736	-0.399853	-1.072350
C45	C	1.501244	-0.400528	-0.949743
C46	C	1.532052	-0.512728	-0.235389
C47	C	1.532224	-0.512463	-0.117559
H48	H	0.941881	-0.540965	-0.685327
O49	O	1.381803	-0.935719	-0.660761
H50	H	1.382978	-0.847597	-0.660577
H51	H	1.419042	-0.377572	-0.920644
O52	O	1.676429	-0.650943	-0.909030
H53	H	1.688958	-0.705430	-0.976850
H54	H	1.366905	-0.575594	-1.102172
H55	H	1.468604	-0.677421	-1.103519
H56	H	1.367366	-0.575817	-0.920036
H57	H	1.579868	-1.078533	-0.689397
O58	O	1.675401	-0.652605	-1.110176
H59	H	1.748048	-0.646209	-1.159060
H60	H	1.122193	-0.399965	-0.646774
H61	H	1.563638	-0.338762	-1.101363
H62	H	1.706786	-0.486429	-1.101951
O63	O	1.474970	-0.705475	-0.911295
H64	H	1.486878	-0.758877	-0.980077
O65	O	1.574795	-0.315317	-0.909199
H66	H	1.634822	-0.351682	-0.856404
O67	O	1.397711	-0.363098	-1.113257
H68	H	1.364136	-0.424691	-1.166276
H69	H	1.353687	-1.078915	-0.462905
O70	O	0.931396	-0.454793	-0.319474
H71	H	0.999647	-0.467074	-0.265679
O72	O	1.737168	-0.935558	-0.565870
H73	H	1.758500	-0.963882	-0.646199
O74	O	1.682413	-1.088357	-0.360702
H75	H	1.641280	-1.138049	-0.300965
O76	O	1.727235	-0.466455	-0.911065
H77	H	1.707227	-0.384974	-0.937875
H78	H	1.124722	-0.347473	-0.448081
O79	O	1.132881	-0.454786	-0.318821
H80	H	1.184688	-0.525874	-0.321149
O81	O	1.132954	-0.558212	-0.705697
H82	H	1.064427	-0.595245	-0.746270
O83	O	0.930358	-0.375090	-0.655848
H84	H	0.842669	-0.376897	-0.659265
H85	H	0.942026	-0.346704	-0.448615
O86	O	1.477085	-0.935963	-0.305654
H87	H	1.404348	-0.886991	-0.311363
O88	O	1.134466	-0.661465	-0.375489
H89	H	1.109840	-0.603930	-0.313750
H90	H	0.940394	-0.689256	-0.534481
O91	O	0.932395	-0.654578	-0.370269
H92	H	0.881663	-0.590045	-0.338688
H93	H	1.122639	-0.686581	-0.541283
