data_functionalizedCrystal
_audit_creation_method	'MofGen! by Chris Wilmer'
_symmetry_space_group_name_H-M	'P1'
_symmetry_Int_Tables_number	1
_symmetry_cell_setting	triclinic
loop_
_symmetry_equiv_pos_as_xyz
  x,y,z
_cell_length_a	14.044220
_cell_length_b	14.044220
_cell_length_c	13.101039
_cell_angle_alpha	93.669626
_cell_angle_beta	86.340132
_cell_angle_gamma	93.188878
loop_
_atom_site_label
_atom_site_type_symbol
_atom_site_fract_x
_atom_site_fract_y
_atom_site_fract_z
O1	O	1.281968	0.225349	-0.085100
O2	O	1.615301	0.558682	0.248233
O3	O	1.948635	0.892015	0.581567
O4	O	1.005298	0.217042	-0.085126
O5	O	1.338631	0.550375	0.248207
O6	O	1.671965	0.883708	0.581541
O7	O	1.139480	0.082860	-0.085109
O8	O	1.472813	0.416193	0.248224
O9	O	1.806147	0.749526	0.581558
O10	O	1.147786	0.359531	-0.085117
O11	O	1.481119	0.692864	0.248216
O12	O	1.814453	1.026197	0.581549
O13	O	1.129854	0.092504	0.085320
O14	O	1.463187	0.425838	0.418653
O15	O	1.796521	0.759171	0.751986
O16	O	0.995672	0.226686	0.085302
O17	O	1.329005	0.560020	0.418636
O18	O	1.662339	0.893353	0.751969
O19	O	1.272342	0.234994	0.085329
O20	O	1.605675	0.568327	0.418662
O21	O	1.939009	0.901660	0.751995
Zn22	Zn	1.132479	0.232371	0.112375
Zn23	Zn	1.465812	0.565705	0.445708
Zn24	Zn	1.799145	0.899038	0.779041
Zn25	Zn	1.145161	0.219664	-0.112172
Zn26	Zn	1.478495	0.552997	0.221161
Zn27	Zn	1.811828	0.886331	0.554494
O28	O	1.138160	0.369176	0.085311
O29	O	1.471493	0.702509	0.418645
O30	O	1.804827	1.035842	0.751978
C31	C	0.964863	0.218228	0.000085
C32	C	1.298197	0.551562	0.333418
C33	C	1.631530	0.884895	0.666751
C34	C	0.858721	0.207383	0.000075
C35	C	1.192055	0.540716	0.333408
C36	C	1.525388	0.874050	0.666741
C37	C	1.146609	0.399975	0.000096
C38	C	1.479942	0.733308	0.333429
C39	C	1.813275	1.066642	0.666763
C40	C	1.157454	0.506117	0.000093
C41	C	1.490787	0.839451	0.333427
C42	C	1.824120	1.172784	0.666760
C43	C	1.131031	0.052060	0.000104
C44	C	1.464365	0.385394	0.333437
C45	C	1.797698	0.718727	0.666771
C46	C	1.120187	-0.054083	0.000100
C47	C	1.453520	0.279251	0.333433
C48	C	1.786854	0.612584	0.666767
C49	C	0.664382	0.187558	0.000096
C50	C	0.997716	0.520891	0.333429
C51	C	1.331049	0.854225	0.666762
C52	C	0.613252	0.264472	0.000098
C53	C	0.946586	0.597806	0.333431
C54	C	1.279919	0.931139	0.666764
C55	C	0.505115	0.253442	0.000109
C56	C	0.838449	0.586775	0.333443
C57	C	1.171782	0.920108	0.666776
C58	C	0.772529	0.198587	0.000084
C59	C	1.105862	0.531921	0.333417
C60	C	1.439196	0.865254	0.666751
C61	C	1.312777	0.233807	0.000115
C62	C	1.646110	0.567140	0.333449
C63	C	1.979443	0.900474	0.666782
C64	C	1.418919	0.244652	0.000119
C65	C	1.752253	0.577985	0.333452
C66	C	2.085586	0.911318	0.666785
N67	N	1.123830	0.241044	0.265622
N68	N	1.457163	0.574377	0.598955
N69	N	1.790497	0.907710	0.932289
C70	C	1.177279	0.700456	0.000100
C71	C	1.510613	1.033789	0.333433
C72	C	1.843946	1.367122	0.666767
C73	C	1.100365	0.751585	0.000094
C74	C	1.433699	1.084918	0.333427
C75	C	1.767032	1.418252	0.666760
C76	C	1.111397	0.859721	0.000097
C77	C	1.444730	1.193055	0.333430
C78	C	1.778063	1.526388	0.666764
C79	C	1.166249	0.592309	0.000096
C80	C	1.499583	0.925643	0.333430
C81	C	1.832916	1.258976	0.666763
N82	N	1.153817	0.210984	-0.265420
N83	N	1.487150	0.544318	0.067914
N84	N	1.820483	0.877651	0.401247
C85	C	1.112064	0.252852	0.474663
C86	C	1.445397	0.586185	0.807997
C87	C	1.778731	0.919518	1.141330
C88	C	1.165580	0.199179	0.525546
C89	C	1.498913	0.532513	0.858879
C90	C	1.832247	0.865846	1.192212
C91	C	1.159033	0.205749	0.641863
C92	C	1.492367	0.539083	0.975197
C93	C	1.825700	0.872416	1.308530
C94	C	1.118610	0.246283	0.358335
C95	C	1.451943	0.579616	0.691668
C96	C	1.785276	0.912949	1.025002
H97	H	0.650692	0.338606	0.000091
H98	H	0.984025	0.671939	0.333424
H99	H	1.317359	1.005272	0.666757
N100	N	1.232790	0.131786	0.467535
N101	N	1.566123	0.465119	0.800869
N102	N	1.899456	0.798453	1.134202
H103	H	1.300466	0.149475	0.486143
H104	H	1.633800	0.482808	0.819476
H105	H	1.967133	0.816142	1.152809
H106	H	1.214849	0.064169	0.486160
H107	H	1.548182	0.397502	0.819493
H108	H	1.881516	0.730835	1.152827
H109	H	0.626945	0.113431	0.000104
H110	H	0.960278	0.446764	0.333437
H111	H	1.293612	0.780098	0.666770
H112	H	1.026232	0.714145	0.000087
H113	H	1.359566	1.047479	0.333421
H114	H	1.692899	1.380812	0.666754
H115	H	1.061335	0.303734	0.518454
H116	H	1.394668	0.637067	0.851787
H117	H	1.728002	0.970400	1.185120
N118	N	1.275472	0.750039	0.000129
N119	N	1.608805	1.083372	0.333463
N120	N	1.942139	1.416706	0.666796
H121	H	1.269531	0.821380	0.000138
H122	H	1.602864	1.154713	0.333472
H123	H	1.936198	1.488046	0.666805
H124	H	1.307698	0.734475	0.063321
H125	H	1.641031	1.067808	0.396655
H126	H	1.974365	1.401142	0.729988
