data_functionalizedCrystal
_audit_creation_method	'MofGen! by Chris Wilmer'
_symmetry_space_group_name_H-M	'P1'
_symmetry_Int_Tables_number	1
_symmetry_cell_setting	triclinic
loop_
_symmetry_equiv_pos_as_xyz
  x,y,z
_cell_length_a	15.944551
_cell_length_b	8.559649
_cell_length_c	7.681481
_cell_angle_alpha	94.913240
_cell_angle_beta	95.743508
_cell_angle_gamma	103.361299
loop_
_atom_site_label
_atom_site_type_symbol
_atom_site_fract_x
_atom_site_fract_y
_atom_site_fract_z
O1	O	-0.019570	-2.105021	0.146399
O2	O	0.023810	-1.639821	0.146411
O3	O	-0.120976	-1.885126	0.146389
O4	O	0.125215	-1.859716	0.146421
O5	O	-0.138833	-1.915319	-0.146471
O6	O	0.005953	-1.670014	-0.146450
O7	O	-0.037427	-2.135214	-0.146461
Zn8	Zn	-0.018572	-1.907408	-0.192953
Zn9	Zn	0.004955	-1.867627	0.192903
O10	O	0.107359	-1.889909	-0.146439
C11	C	-0.161130	-1.899168	-0.000042
C12	C	-0.254172	-1.896006	-0.000042
C13	C	0.018169	-1.595387	-0.000018
C14	C	0.027954	-1.418008	-0.000014
C15	C	-0.031786	-2.179647	-0.000028
C16	C	-0.041570	-2.357025	-0.000021
C17	C	-0.458726	-1.736394	-0.000014
C18	C	-0.533331	-1.825398	-0.144414
C19	C	-0.424528	-1.890284	-0.000029
C20	C	-0.515712	-1.795667	0.144323
C21	C	-0.589082	-1.884744	-0.000008
C22	C	-0.497915	-1.979342	-0.144548
C23	C	-0.480280	-1.949576	0.144319
C24	C	-0.554877	-2.038696	-0.000116
C25	C	-0.329732	-1.893471	-0.000042
C26	C	-0.683878	-1.881571	-0.000007
C27	C	0.147513	-1.875866	-0.000005
C28	C	0.240556	-1.879027	0.000008
N29	N	-0.034630	-1.934569	-0.456290
N30	N	0.021005	-1.840479	0.456240
H31	H	-0.417184	-1.608675	-0.000155
H32	H	-0.091415	-2.030633	-0.531504
C33	C	-0.564885	-1.754475	-0.309325
C34	C	-0.501759	-1.698147	-0.443229
C35	C	-0.533306	-1.627210	-0.608132
C36	C	-0.627979	-1.612601	-0.639130
C37	C	-0.691111	-1.668930	-0.505222
C38	C	-0.659564	-1.739867	-0.340320
H39	H	-0.431671	-1.708959	-0.420286
H40	H	-0.486571	-1.585511	-0.707259
H41	H	-0.651333	-1.560089	-0.761200
H42	H	-0.761199	-1.658117	-0.528165
H43	H	-0.706299	-1.781566	-0.241192
C44	C	-0.486654	-2.084216	-0.309658
C45	C	-0.395943	-2.106520	-0.340219
C46	C	-0.384679	-2.211384	-0.505329
C47	C	-0.464127	-2.293945	-0.639879
C48	C	-0.554845	-2.271643	-0.609322
C49	C	-0.566108	-2.166779	-0.444212
H50	H	-0.337125	-2.045401	-0.240614
H51	H	-0.317524	-2.227893	-0.527949
H52	H	-0.455789	-2.371572	-0.762104
H53	H	-0.613662	-2.332762	-0.708928
H54	H	-0.633264	-2.150270	-0.421593
C55	C	0.097720	-1.710713	-0.442173
C56	C	0.110160	-1.690324	-0.239406
C57	C	0.186876	-1.560556	-0.137806
C58	C	0.251153	-1.451177	-0.238974
C59	C	0.238715	-1.471563	-0.441753
C60	C	0.161999	-1.601331	-0.543353
H61	H	0.062576	-1.771296	-0.164505
H62	H	0.196083	-1.545466	0.012305
H63	H	0.307943	-1.355115	-0.163764
H64	H	0.286299	-1.390591	-0.516654
H65	H	0.152792	-1.616421	-0.693464
H66	H	-0.596291	-2.166550	-0.000200
H67	H	-0.456903	-2.002022	0.266401
H68	H	-0.524143	-1.717971	0.266411
C69	C	-0.132101	-1.469805	-0.000036
C70	C	-0.169002	-1.605326	-0.152118
C71	C	-0.259534	-1.718118	-0.152133
C72	C	-0.313164	-1.695389	-0.000066
C73	C	-0.276263	-1.559862	0.152027
C74	C	-0.185731	-1.447070	0.152042
H75	H	-0.129302	-1.622157	-0.264697
H76	H	-0.286850	-1.818444	-0.264723
H77	H	-0.380181	-1.778884	-0.000077
H78	H	-0.315963	-1.543031	0.264606
H79	H	-0.158415	-1.346744	0.264633
H80	H	0.094969	-1.334507	0.000004
