data_functionalizedCrystal
_audit_creation_method	'MofGen! by Chris Wilmer'
_symmetry_space_group_name_H-M	'P1'
_symmetry_Int_Tables_number	1
_symmetry_cell_setting	triclinic
loop_
_symmetry_equiv_pos_as_xyz
  x,y,z
_cell_length_a	17.699083
_cell_length_b	22.610064
_cell_length_c	17.699092
_cell_angle_alpha	89.994252
_cell_angle_beta	83.284691
_cell_angle_gamma	90.002185
loop_
_atom_site_label
_atom_site_type_symbol
_atom_site_fract_x
_atom_site_fract_y
_atom_site_fract_z
O1	O	1.004084	0.049099	0.095701
O2	O	1.337417	0.382433	0.429034
O3	O	1.670751	0.715766	0.762367
O4	O	0.783706	0.049119	0.108153
O5	O	1.117039	0.382452	0.441486
O6	O	1.450373	0.715785	0.774820
O7	O	0.900118	0.049107	-0.008262
O8	O	1.233451	0.382440	0.325071
O9	O	1.566785	0.715774	0.658405
O10	O	0.887672	0.049111	0.212116
O11	O	1.221005	0.382444	0.545449
O12	O	1.554339	0.715778	0.878782
O13	O	0.900097	-0.049262	-0.008245
O14	O	1.233431	0.284071	0.325088
O15	O	1.566764	0.617405	0.658422
O16	O	0.783685	-0.049251	0.108170
O17	O	1.117019	0.284083	0.441503
O18	O	1.450352	0.617416	0.774837
O19	O	1.004063	-0.049270	0.095718
O20	O	1.337397	0.284064	0.429051
O21	O	1.670730	0.617397	0.762384
Zn22	Zn	0.893871	-0.064878	0.101946
Zn23	Zn	1.227204	0.268455	0.435280
Zn24	Zn	1.560538	0.601788	0.768613
Zn25	Zn	0.893898	0.064727	0.101924
Zn26	Zn	1.227231	0.398061	0.435257
Zn27	Zn	1.560565	0.731394	0.768591
O28	O	0.887651	-0.049258	0.212133
O29	O	1.220985	0.284075	0.545466
O30	O	1.554318	0.617408	0.878799
C31	C	0.755499	-0.000064	0.107715
C32	C	1.088832	0.333270	0.441049
C33	C	1.422165	0.666603	0.774382
C34	C	0.671480	-0.000056	0.106377
C35	C	1.004814	0.333277	0.439710
C36	C	1.338147	0.666610	0.773043
C37	C	0.622862	-0.000055	0.174710
C38	C	0.956195	0.333278	0.508043
C39	C	1.289528	0.666611	0.841376
C40	C	0.543918	-0.000063	0.173448
C41	C	0.877251	0.333270	0.506781
C42	C	1.210585	0.666604	0.840114
C43	C	0.513595	-0.000067	0.103851
C44	C	0.846929	0.333266	0.437185
C45	C	1.180262	0.666599	0.770518
C46	C	0.562220	-0.000070	0.035513
C47	C	0.895554	0.333263	0.368846
C48	C	1.228887	0.666597	0.702180
C49	C	0.641162	-0.000067	0.036776
C50	C	0.974496	0.333267	0.370109
C51	C	1.307829	0.666600	0.703443
C52	C	0.243857	-0.000085	0.030418
C53	C	0.577191	0.333248	0.363751
C54	C	0.910524	0.666582	0.697084
C55	C	0.164909	-0.000087	0.029160
C56	C	0.498243	0.333247	0.362493
C57	C	0.831576	0.666580	0.695827
C58	C	0.146613	-0.000081	0.167089
C59	C	0.479946	0.333252	0.500423
C60	C	0.813280	0.666586	0.833756
C61	C	0.225555	-0.000078	0.168352
C62	C	0.558888	0.333256	0.501686
C63	C	0.892222	0.666589	0.835019
C64	C	0.274173	-0.000084	0.100014
C65	C	0.607506	0.333250	0.433348
C66	C	0.940840	0.666583	0.766681
C67	C	0.359772	-0.000076	0.101384
C68	C	0.693106	0.333257	0.434717
C69	C	1.026439	0.666590	0.768051
C70	C	0.427998	-0.000070	0.102481
C71	C	0.761331	0.333263	0.435814
C72	C	1.094664	0.666596	0.769148
N73	N	0.893858	-0.153331	0.101961
N74	N	1.227191	0.180002	0.435295
N75	N	1.560525	0.513336	0.768628
C76	C	0.945448	-0.561977	0.050383
C77	C	1.278781	-0.228644	0.383717
C78	C	1.612114	0.104689	0.717050
C79	C	0.945452	-0.623897	0.050378
C80	C	1.278785	-0.290564	0.383711
C81	C	1.612118	0.042769	0.717045
O82	O	0.989283	-0.655920	0.006536
O83	O	1.322616	-0.322587	0.339869
O84	O	1.655949	0.010746	0.673203
N85	N	0.893898	-0.654868	0.101908
N86	N	1.227231	-0.321535	0.435242
N87	N	1.560564	0.011799	0.768575
C88	C	0.842331	-0.623916	0.153443
C89	C	1.175665	-0.290582	0.486776
C90	C	1.508998	0.042751	0.820109
O91	O	0.798480	-0.655944	0.197272
O92	O	1.131814	-0.322611	0.530606
O93	O	1.465147	0.010722	0.863939
C94	C	0.842324	-0.561997	0.153444
C95	C	1.175658	-0.228664	0.486777
C96	C	1.508991	0.104670	0.820110
C97	C	0.893887	-0.531029	0.101915
C98	C	1.227220	-0.197696	0.435248
C99	C	1.560553	0.135637	0.768582
C100	C	0.997005	-0.531010	-0.001142
C101	C	1.330339	-0.197676	0.332192
C102	C	1.663672	0.135657	0.665525
C103	C	0.997002	-0.469094	-0.001135
C104	C	1.330336	-0.135761	0.332198
C105	C	1.663669	0.197573	0.665532
C106	C	0.945441	-0.438146	0.050397
C107	C	1.278775	-0.104813	0.383730
C108	C	1.612108	0.228521	0.717063
C109	C	0.893884	-0.469114	0.101922
C110	C	1.227217	-0.135780	0.435255
C111	C	1.560550	0.197553	0.768588
C112	C	0.790755	-0.531046	0.204974
C113	C	1.124088	-0.197712	0.538307
C114	C	1.457422	0.135621	0.871640
C115	C	0.790752	-0.469123	0.204970
C116	C	1.124085	-0.135789	0.538304
C117	C	1.457419	0.197544	0.871637
C118	C	0.842315	-0.438155	0.153442
C119	C	1.175648	-0.104822	0.486775
C120	C	1.508981	0.228512	0.820108
C121	C	0.842320	-0.376250	0.153460
C122	C	1.175653	-0.042917	0.486793
C123	C	1.508986	0.290417	0.820127
N124	N	0.893874	-0.345279	0.101930
N125	N	1.227207	-0.011946	0.435263
N126	N	1.560540	0.321387	0.768596
C127	C	0.945435	-0.376227	0.050398
C128	C	1.278768	-0.042894	0.383731
C129	C	1.612101	0.290439	0.717065
C130	C	0.842349	-0.753949	0.153435
C131	C	1.175682	-0.420616	0.486768
C132	C	1.509015	-0.087283	0.820102
C133	C	0.842359	-0.815867	0.153438
C134	C	1.175692	-0.482534	0.486771
C135	C	1.509025	-0.149200	0.820105
C136	C	0.945478	-0.815844	0.050372
C137	C	1.278812	-0.482511	0.383706
C138	C	1.612145	-0.149178	0.717039
C139	C	0.945471	-0.753925	0.050373
C140	C	1.278805	-0.420592	0.383707
C141	C	1.612138	-0.087259	0.717040
C142	C	0.893903	-0.722979	0.101905
C143	C	1.227236	-0.389645	0.435238
C144	C	1.560569	-0.056312	0.768571
C145	C	0.945425	-0.246200	0.050416
C146	C	1.278758	0.087133	0.383750
C147	C	1.612091	0.420467	0.717083
C148	C	0.945419	-0.184279	0.050430
C149	C	1.278752	0.149054	0.383763
C150	C	1.612086	0.482388	0.717096
C151	C	0.842297	-0.184307	0.153492
C152	C	1.175630	0.149026	0.486826
C153	C	1.508964	0.482360	0.820159
C154	C	0.842305	-0.246223	0.153482
C155	C	1.175638	0.087111	0.486815
C156	C	1.508972	0.420444	0.820149
C157	C	0.893872	-0.277168	0.101938
C158	C	1.227205	0.056166	0.435271
C159	C	1.560538	0.389499	0.768604
O160	O	0.798509	-0.344188	0.197278
O161	O	1.131842	-0.010854	0.530611
O162	O	1.465176	0.322479	0.863944
O163	O	0.989271	-0.344191	0.006569
O164	O	1.322605	-0.010858	0.339902
O165	O	1.655938	0.322476	0.673236
C166	C	1.032271	-0.000086	0.096155
C167	C	1.365604	0.333247	0.429489
C168	C	1.698937	0.666580	0.762822
C169	C	1.116289	-0.000090	0.097494
C170	C	1.449622	0.333244	0.430827
C171	C	1.782955	0.666577	0.764161
N172	N	0.893917	0.153180	0.101903
N173	N	1.227250	0.486513	0.435237
N174	N	1.560584	0.819846	0.768570
C175	C	0.899661	-0.000077	-0.036450
C176	C	1.232994	0.333257	0.296883
C177	C	1.566327	0.666590	0.630216
C178	C	0.898319	-0.000074	-0.120468
C179	C	1.231653	0.333260	0.212865
C180	C	1.564986	0.666593	0.546199
C181	C	0.897702	0.053548	-0.159945
C182	C	1.231036	0.386881	0.173389
C183	C	1.564369	0.720215	0.506722
C184	C	0.896437	0.053549	-0.238888
C185	C	1.229771	0.386882	0.094446
C186	C	1.563104	0.720216	0.427779
C187	C	0.895795	-0.000073	-0.278353
C188	C	1.229128	0.333261	0.054980
C189	C	1.562462	0.666594	0.388313
C190	C	0.896410	-0.053699	-0.238871
C191	C	1.229743	0.279635	0.094463
C192	C	1.563077	0.612968	0.427796
C193	C	0.897669	-0.053699	-0.159929
C194	C	1.231003	0.279635	0.173405
C195	C	1.564336	0.612968	0.506738
C196	C	0.891330	-0.053699	-0.557236
C197	C	1.224663	0.279634	-0.223903
C198	C	1.557996	0.612968	0.109431
C199	C	0.890072	-0.053695	-0.636184
C200	C	1.223406	0.279639	-0.302851
C201	C	1.556739	0.612972	0.030483
C202	C	0.890098	0.053549	-0.636195
C203	C	1.223431	0.386882	-0.302862
C204	C	1.556764	0.720215	0.030472
C205	C	0.891357	0.053548	-0.557253
C206	C	1.224690	0.386882	-0.223919
C207	C	1.558024	0.720215	0.109414
C208	C	0.891968	-0.000077	-0.517777
C209	C	1.225301	0.333256	-0.184443
C210	C	1.558634	0.666590	0.148890
C211	C	0.893338	-0.000077	-0.432178
C212	C	1.226671	0.333256	-0.098844
C213	C	1.560005	0.666589	0.234489
C214	C	0.894430	-0.000073	-0.363952
C215	C	1.227764	0.333260	-0.030618
C216	C	1.561097	0.666594	0.302715
C217	C	0.888109	-0.000073	0.240321
C218	C	1.221442	0.333260	0.573654
C219	C	1.554775	0.666593	0.906988
C220	C	0.889450	-0.000072	0.324339
C221	C	1.222783	0.333261	0.657672
C222	C	1.556116	0.666594	0.991005
H223	H	0.140224	-0.000091	-0.027517
H224	H	0.473557	0.333242	0.305816
H225	H	0.806891	0.666576	0.639150
C226	C	0.895700	-0.112683	-0.282277
C227	C	1.229033	0.220651	0.051057
C228	C	1.562367	0.553984	0.384390
H229	H	0.896240	-0.144618	-0.247456
H230	H	1.229574	0.188715	0.085877
H231	H	1.562907	0.522049	0.419210
H232	H	0.939327	-0.114918	-0.318924
H233	H	1.272660	0.218415	0.014409
H234	H	1.605993	0.551748	0.347742
H235	H	0.851083	-0.114906	-0.307218
H236	H	1.184417	0.218428	0.026116
H237	H	1.517750	0.551761	0.359449
H238	H	0.537525	-0.000082	-0.021154
H239	H	0.870859	0.333251	0.312180
H240	H	1.204192	0.666584	0.645513
H241	H	0.800357	-0.728755	0.195404
H242	H	1.133691	-0.395422	0.528737
H243	H	1.467024	-0.062089	0.862071
H244	H	0.283433	-0.000090	-0.025227
H245	H	0.616767	0.333243	0.308106
H246	H	0.950100	0.666577	0.641439
C247	C	0.895762	0.112531	-0.282313
C248	C	1.229095	0.445865	0.051020
C249	C	1.562429	0.779198	0.384354
H250	H	0.894911	0.104854	-0.334979
H251	H	1.228245	0.438187	-0.001646
H252	H	1.561578	0.771520	0.331688
H253	H	0.940094	0.134558	-0.275232
H254	H	1.273427	0.467891	0.058101
H255	H	1.606761	0.801225	0.391434
H256	H	0.851851	0.134568	-0.263524
H257	H	1.185184	0.467902	0.069810
H258	H	1.518517	0.801235	0.403143
C259	C	0.898348	-0.112681	-0.116501
C260	C	1.231681	0.220652	0.216833
C261	C	1.565015	0.553986	0.550166
H262	H	0.899182	-0.105002	-0.063833
H263	H	1.232515	0.228331	0.269501
H264	H	1.565849	0.561665	0.602834
H265	H	0.942254	-0.134721	-0.135284
H266	H	1.275587	0.198613	0.198049
H267	H	1.608921	0.531946	0.531382
H268	H	0.854010	-0.134706	-0.123584
H269	H	1.187344	0.198627	0.209750
H270	H	1.520677	0.531961	0.543083
H271	H	0.647544	-0.000051	0.231383
H272	H	0.980877	0.333282	0.564716
H273	H	1.314210	0.666615	0.898050
H274	H	0.680748	-0.000067	-0.018868
H275	H	1.014081	0.333266	0.314465
H276	H	1.347414	0.666599	0.647799
H277	H	0.748756	-0.443929	0.246932
H278	H	1.082090	-0.110595	0.580266
H279	H	1.415423	0.222738	0.913599
H280	H	0.891884	0.097213	-0.525124
H281	H	1.225217	0.430546	-0.191791
H282	H	1.558550	0.763879	0.141542
C283	C	1.002148	-0.150215	-0.006243
C284	C	1.335481	0.183118	0.327090
C285	C	1.668815	0.516452	0.660424
H286	H	0.994773	-0.108905	0.001146
H287	H	1.328106	0.224428	0.334479
H288	H	1.661440	0.557761	0.667812
H289	H	0.994036	-0.160353	-0.056752
H290	H	1.327369	0.172981	0.276582
H291	H	1.660702	0.506314	0.609915
H292	H	1.052640	-0.160368	0.001930
H293	H	1.385974	0.172966	0.335263
H294	H	1.719307	0.506299	0.668597
C295	C	0.490440	-0.000060	0.248614
C296	C	0.823774	0.333273	0.581947
C297	C	1.157107	0.666607	0.915281
H298	H	0.519806	-0.000049	0.290243
H299	H	0.853139	0.333284	0.623577
H300	H	1.186473	0.666617	0.956910
H301	H	0.459266	-0.034365	0.250999
H302	H	0.792599	0.298968	0.584332
H303	H	1.125932	0.632301	0.917665
H304	H	0.459265	0.034246	0.250980
H305	H	0.792598	0.367579	0.584313
H306	H	1.125931	0.700913	0.917646
H307	H	0.800325	-0.271437	0.195449
H308	H	1.133659	0.061896	0.528782
H309	H	1.466992	0.395230	0.862115
C310	C	0.734033	-0.565099	0.261651
C311	C	1.067366	-0.231766	0.594984
C312	C	1.400699	0.101567	0.928317
H313	H	0.741414	-0.606410	0.254281
H314	H	1.074748	-0.273077	0.587614
H315	H	1.408081	0.060256	0.920947
H316	H	0.683542	-0.554949	0.253487
H317	H	1.016875	-0.221615	0.586820
H318	H	1.350208	0.111718	0.920153
H319	H	0.742157	-0.554954	0.312158
H320	H	1.075490	-0.221620	0.645491
H321	H	1.408824	0.111713	0.978824
C322	C	0.889357	-0.112681	-0.679594
C323	C	1.222690	0.220652	-0.346260
C324	C	1.556023	0.553986	-0.012927
H325	H	0.889892	-0.144619	-0.644776
H326	H	1.223226	0.188714	-0.311443
H327	H	1.556559	0.522048	0.021890
H328	H	0.932983	-0.114918	-0.716241
H329	H	1.266316	0.218415	-0.382908
H330	H	1.599650	0.551749	-0.049575
H331	H	0.844740	-0.114898	-0.704535
H332	H	1.178073	0.218435	-0.371202
H333	H	1.511406	0.551768	-0.037868
H334	H	0.250239	-0.000071	0.225025
H335	H	0.583572	0.333262	0.558358
H336	H	0.916906	0.666595	0.891691
C337	C	1.002149	-0.280231	-0.006278
C338	C	1.335483	0.053102	0.327055
C339	C	1.668816	0.386436	0.660389
H340	H	1.032855	-0.252912	-0.036955
H341	H	1.366188	0.080421	0.296378
H342	H	1.699522	0.413754	0.629712
H343	H	0.974992	-0.304384	-0.037758
H344	H	1.308326	0.028949	0.295575
H345	H	1.641659	0.362283	0.628908
H346	H	1.033610	-0.304385	0.020911
H347	H	1.366943	0.028949	0.354244
H348	H	1.700276	0.362282	0.687577
C349	C	1.053713	-0.435037	-0.057826
C350	C	1.387046	-0.101704	0.275508
C351	C	1.720379	0.231629	0.608841
H352	H	1.084411	-0.462344	-0.088518
H353	H	1.417744	-0.129011	0.244815
H354	H	1.751078	0.204322	0.578148
H355	H	1.085171	-0.410881	-0.030648
H356	H	1.418504	-0.077547	0.302685
H357	H	1.751837	0.255786	0.636019
H358	H	1.026538	-0.410886	-0.089302
H359	H	1.359871	-0.077552	0.244032
H360	H	1.693205	0.255781	0.577365
H361	H	0.107018	-0.000079	0.222733
H362	H	0.440352	0.333254	0.556067
H363	H	0.773685	0.666587	0.889400
C364	C	0.892015	-0.112684	-0.513824
C365	C	1.225348	0.220649	-0.180490
C366	C	1.558681	0.553982	0.152843
H367	H	0.891462	-0.144618	-0.548638
H368	H	1.224795	0.188716	-0.215304
H369	H	1.558129	0.522049	0.118029
H370	H	0.848388	-0.114916	-0.477174
H371	H	1.181722	0.218417	-0.143841
H372	H	1.515055	0.551751	0.189492
H373	H	0.936632	-0.114915	-0.488884
H374	H	1.269965	0.218418	-0.155550
H375	H	1.603298	0.551751	0.177783
H376	H	1.038992	-0.556202	-0.043108
H377	H	1.372326	-0.222869	0.290225
H378	H	1.705659	0.110465	0.623558
H379	H	0.987457	-0.728715	0.008414
H380	H	1.320791	-0.395382	0.341747
H381	H	1.654124	-0.062049	0.675081
H382	H	0.987461	-0.841053	0.008411
H383	H	1.320794	-0.507720	0.341745
H384	H	1.654128	-0.174387	0.675078
C385	C	0.785641	-0.849925	0.210120
C386	C	1.118974	-0.516591	0.543453
C387	C	1.452307	-0.183258	0.876787
H388	H	0.754931	-0.822620	0.240804
H389	H	1.088264	-0.489286	0.574137
H390	H	1.421597	-0.155953	0.907470
H391	H	0.812799	-0.874085	0.241595
H392	H	1.146132	-0.540751	0.574928
H393	H	1.479465	-0.207418	0.908262
H394	H	0.754184	-0.874073	0.182923
H395	H	1.087518	-0.540740	0.516256
H396	H	1.420851	-0.207407	0.849590
C397	C	0.785583	-0.150259	0.210174
C398	C	1.118916	0.183074	0.543507
C399	C	1.452249	0.516408	0.876840
H400	H	0.754876	-0.177567	0.240867
H401	H	1.088210	0.155766	0.574201
H402	H	1.421543	0.489100	0.907534
H403	H	0.754133	-0.126103	0.182982
H404	H	1.087466	0.207230	0.516316
H405	H	1.420800	0.540564	0.849649
H406	H	0.812752	-0.126107	0.241650
H407	H	1.146085	0.207227	0.574983
H408	H	1.479418	0.540560	0.908317
H409	H	0.898230	0.097213	-0.127818
H410	H	1.231563	0.430546	0.205515
H411	H	1.564896	0.763880	0.538848
H412	H	0.889596	0.097213	-0.668346
H413	H	1.222930	0.430547	-0.335012
H414	H	1.556263	0.763880	-0.001679
