data_functionalizedCrystal
_audit_creation_method	'MofGen! by Chris Wilmer'
_symmetry_space_group_name_H-M	'P1'
_symmetry_Int_Tables_number	1
_symmetry_cell_setting	triclinic
loop_
_symmetry_equiv_pos_as_xyz
  x,y,z
_cell_length_a	25.639242
_cell_length_b	12.759400
_cell_length_c	12.759393
_cell_angle_alpha	90.031564
_cell_angle_beta	89.969545
_cell_angle_gamma	89.989788
loop_
_atom_site_label
_atom_site_type_symbol
_atom_site_fract_x
_atom_site_fract_y
_atom_site_fract_z
Zn1	Zn	0.799355	0.418330	-0.594317
Zn2	Zn	0.799303	0.594048	-0.418637
Zn3	Zn	0.711919	0.418370	-0.418619
Zn4	Zn	0.711913	0.593953	-0.594241
O5	O	0.755622	0.506175	-0.506453
O6	O	0.872513	0.441662	-0.571051
O7	O	0.787691	0.570801	-0.271613
O8	O	0.723542	0.271344	-0.441950
O9	O	0.872475	0.570762	-0.441980
O10	O	0.787781	0.271314	-0.571034
O11	O	0.723491	0.441731	-0.271600
O12	O	0.638753	0.441639	-0.441877
O13	O	0.723532	0.570600	-0.741273
O14	O	0.638749	0.570639	-0.570906
O15	O	0.787775	0.441570	-0.741328
O16	O	0.787686	0.741057	-0.441907
O17	O	0.723481	0.740987	-0.570923
C18	C	0.755591	0.779143	-0.506432
C19	C	0.755626	0.895919	-0.506457
C20	C	0.619780	0.506134	-0.506382
C21	C	0.561666	0.506142	-0.506377
C22	C	0.755659	0.506069	-0.780487
C23	C	0.755675	0.506024	-0.897264
C24	C	0.201309	0.573458	-0.573575
C25	C	0.146705	0.573464	-0.573592
O26	O	0.118474	0.630648	-0.630666
N27	N	0.119383	0.506204	-0.506522
C28	C	0.146669	0.438926	-0.439439
O29	O	0.118415	0.381716	-0.382393
C30	C	0.201272	0.438915	-0.439428
C31	C	0.228591	0.506187	-0.506495
C32	C	0.228629	0.640724	-0.640637
C33	C	0.283229	0.640718	-0.640619
C34	C	0.310511	0.573447	-0.573539
C35	C	0.283191	0.506182	-0.506477
C36	C	0.228556	0.371632	-0.372351
C37	C	0.283163	0.371626	-0.372347
C38	C	0.310482	0.438898	-0.439414
C39	C	0.365074	0.438905	-0.439378
N40	N	0.392395	0.506165	-0.506448
C41	C	0.365114	0.573436	-0.573528
C42	C	0.031998	0.438953	-0.439467
C43	C	-0.022604	0.438968	-0.439472
C44	C	-0.022564	0.573506	-0.573626
C45	C	0.032039	0.573495	-0.573616
C46	C	0.059320	0.506213	-0.506537
C47	C	0.479779	0.573421	-0.573484
C48	C	0.534384	0.573413	-0.573457
C49	C	0.534339	0.438872	-0.439307
C50	C	0.479739	0.438883	-0.439330
C51	C	0.452460	0.506161	-0.506427
O52	O	0.393339	0.381748	-0.382336
O53	O	0.393374	0.630627	-0.630574
C54	C	0.891995	0.506218	-0.506526
C55	C	0.950109	0.506236	-0.506556
C56	C	0.755668	0.232142	-0.506498
C57	C	0.755687	0.115365	-0.506518
C58	C	0.789094	0.950783	-0.439353
C59	C	0.789126	1.060507	-0.439385
C60	C	0.722217	1.060494	-0.573629
C61	C	0.722188	0.950772	-0.573602
C62	C	0.822532	0.895930	-0.372209
C63	C	0.856003	0.950794	-0.305098
C64	C	0.856035	1.060518	-0.305130
C65	C	0.822596	1.115378	-0.372274
C66	C	0.789131	0.438832	-0.952156
C67	C	0.789143	0.438794	-1.061880
C68	C	0.722242	0.573150	-1.061810
C69	C	0.722227	0.573182	-0.952088
C70	C	0.822578	0.371675	-0.897332
C71	C	0.856037	0.304478	-0.952225
C72	C	0.856050	0.304440	-1.061949
C73	C	0.822603	0.371599	-1.116780
C74	C	0.755616	0.506205	-0.233486
C75	C	0.755702	0.505954	-0.116710
H76	H	0.556625	0.628198	-0.628071
F77	F	0.891625	0.232993	-0.893868
H78	H	0.694936	0.906102	-0.628245
H79	H	0.695011	0.627827	-1.106462
H80	H	0.305372	0.316830	-0.317729
H81	H	0.883292	1.105185	-0.250493
H82	H	0.883231	0.906121	-0.250438
H83	H	0.206422	0.695504	-0.695267
F84	F	-0.051609	0.645094	-0.645028
F85	F	0.822611	0.371542	-1.233560
F86	F	0.822463	1.232157	-0.371965
H87	H	0.054206	0.384165	-0.384836
F88	F	0.312297	0.712315	-0.712005
F89	F	0.450754	0.645026	-0.644897
F90	F	0.061109	0.645093	-0.644998
F91	F	0.686631	1.118884	-0.645081
H92	H	0.883290	0.249717	-1.106639
H93	H	-0.044843	0.384199	-0.384849
F94	F	0.199493	0.300025	-0.300974
F95	F	0.686619	0.644694	-0.893664
F96	F	0.450663	0.367301	-0.367935
H97	H	0.556562	0.384105	-0.384689
H98	H	0.822508	0.806587	-0.372172
F99	F	0.822569	0.371713	-0.780555
