data_functionalizedCrystal
_audit_creation_method	'MofGen! by Chris Wilmer'
_symmetry_space_group_name_H-M	'P1'
_symmetry_Int_Tables_number	1
_symmetry_cell_setting	triclinic
loop_
_symmetry_equiv_pos_as_xyz
  x,y,z
_cell_length_a	19.188930
_cell_length_b	19.188905
_cell_length_c	9.730223
_cell_angle_alpha	89.989905
_cell_angle_beta	89.992125
_cell_angle_gamma	83.139668
loop_
_atom_site_label
_atom_site_type_symbol
_atom_site_fract_x
_atom_site_fract_y
_atom_site_fract_z
O1	O	0.087083	0.926155	-0.114532
O2	O	0.098835	0.722841	-0.114487
O3	O	-0.008697	0.830365	-0.114484
O4	O	0.194615	0.818631	-0.114535
O5	O	-0.008697	0.830358	0.114096
O6	O	0.098835	0.722834	0.114093
O7	O	0.087083	0.926148	0.114048
Zn8	Zn	0.092959	0.824490	0.150363
Zn9	Zn	0.092959	0.824499	-0.150801
O10	O	0.194615	0.818624	0.114045
C11	C	0.098458	0.696826	-0.000191
C12	C	0.097324	0.619321	-0.000172
C13	C	0.096779	0.582933	-0.124775
C14	C	0.095706	0.510109	-0.124792
C15	C	0.095164	0.473678	-0.000199
C16	C	0.095713	0.510075	0.124420
C17	C	0.096793	0.582896	0.124433
N18	N	0.053735	0.364655	0.092534
N19	N	0.052708	0.295478	0.092513
C20	C	0.091911	0.254272	-0.000231
N21	N	0.132172	0.284856	-0.092974
N22	N	0.133196	0.354040	-0.092957
C23	C	0.093993	0.394716	-0.000199
C24	C	0.090204	0.138920	-0.124861
C25	C	0.089135	0.066094	-0.124872
C26	C	0.089135	0.066062	0.124343
C27	C	0.090210	0.138885	0.124351
C28	C	0.090742	0.175310	-0.000255
C29	C	-0.034708	0.829982	-0.000190
C30	C	-0.112213	0.828841	-0.000178
C31	C	-0.157142	0.891933	-0.000185
C32	C	-0.229966	0.890861	-0.000207
C33	C	-0.257857	0.826694	-0.000194
C34	C	-0.212917	0.763594	-0.000194
C35	C	-0.140095	0.764668	-0.000186
N36	N	-0.365857	0.777644	0.077607
N37	N	-0.435036	0.776628	0.077603
C38	C	-0.477265	0.823456	-0.000221
N39	N	-0.447704	0.871348	-0.078022
N40	N	-0.378519	0.872365	-0.078011
C41	C	-0.336819	0.825523	-0.000203
C42	C	-0.601159	0.885390	-0.000254
C43	C	-0.673984	0.884315	-0.000284
C44	C	-0.656933	0.757047	-0.000257
C45	C	-0.584110	0.758123	-0.000241
C46	C	-0.556228	0.822296	-0.000232
C47	C	0.220626	0.819007	-0.000252
C48	C	0.298131	0.820148	-0.000273
C49	C	0.087460	0.952163	-0.000251
C50	C	0.088594	1.029668	-0.000278
N51	N	0.092959	0.824489	0.355899
N52	N	0.092953	0.824505	-0.356338
C53	C	0.045355	0.872122	0.571711
C54	C	0.045359	0.872116	0.427828
C55	C	0.140562	0.776871	0.427861
C56	C	0.140561	0.776881	0.571741
C57	C	-0.002253	0.919746	0.643632
C58	C	-0.049855	0.967366	0.571679
C59	C	-0.049851	0.967360	0.427797
C60	C	-0.002244	0.919734	0.355866
H61	H	0.090649	0.168513	0.225816
H62	H	-0.266555	0.942239	-0.000218
H63	H	-0.578456	0.937644	-0.000253
F64	F	-0.536291	0.690971	-0.000227
F65	F	-0.686612	0.688755	-0.000250
F66	F	-0.002263	0.919754	0.796764
H67	H	0.090644	0.168577	-0.226322
H68	H	-0.134445	0.944187	-0.000183
H69	H	-0.235631	0.711349	-0.000186
F70	F	0.095126	0.471374	-0.257416
F71	F	-0.002237	0.919737	0.202731
F72	F	-0.721802	0.951470	-0.000301
F73	F	-0.100514	1.018055	0.648234
F74	F	0.191223	0.726203	0.648319
F75	F	0.095139	0.471301	0.257020
F76	F	0.191224	0.726186	0.351304
H77	H	0.097237	0.612523	0.225903
F78	F	0.088561	0.027366	-0.257499
H79	H	-0.088606	1.006138	0.369215
H80	H	0.097212	0.612585	-0.226239
H81	H	0.088697	0.036400	0.225789
H82	H	-0.103513	0.713289	-0.000179
