data_functionalizedCrystal
_audit_creation_method	'MofGen! by Chris Wilmer'
_symmetry_space_group_name_H-M	'P1'
_symmetry_Int_Tables_number	1
_symmetry_cell_setting	triclinic
loop_
_symmetry_equiv_pos_as_xyz
  x,y,z
_cell_length_a	10.489746
_cell_length_b	19.188930
_cell_length_c	9.565339
_cell_angle_alpha	90.004884
_cell_angle_beta	90.000667
_cell_angle_gamma	83.843041
loop_
_atom_site_label
_atom_site_type_symbol
_atom_site_fract_x
_atom_site_fract_y
_atom_site_fract_z
O1	O	1.691846	0.098515	0.116184
O2	O	1.320445	0.107757	0.116209
O3	O	1.516863	0.001552	0.116168
O4	O	1.495428	0.204720	0.116224
O5	O	1.516848	0.001559	-0.116352
O6	O	1.320429	0.107763	-0.116311
O7	O	1.691831	0.098521	-0.116336
Zn8	Zn	1.506127	0.103143	-0.153241
Zn9	Zn	1.506148	0.103135	0.153114
O10	O	1.495412	0.204726	-0.116296
C11	C	1.272921	0.107061	-0.000048
C12	C	1.131339	0.104971	-0.000040
C13	C	1.516161	-0.024460	-0.000096
C14	C	1.514078	-0.101979	-0.000108
C15	C	0.980020	0.036158	-0.000079
C16	C	1.056636	0.070565	-0.114710
C17	C	1.056607	0.070574	0.114537
C18	C	0.955689	0.135687	-0.114801
C19	C	0.955654	0.135687	0.114549
C20	C	1.032221	0.170142	-0.000111
C21	C	1.629330	-0.146129	-0.000122
C22	C	1.627372	-0.218966	-0.000100
C23	C	1.510156	-0.247649	-0.000091
C24	C	1.394889	-0.203489	-0.000068
C25	C	1.396850	-0.130654	-0.000077
N26	N	1.420553	-0.356253	-0.079216
N27	N	1.418698	-0.425444	-0.079211
C28	C	1.504240	-0.467098	-0.000062
N29	N	1.591728	-0.436948	0.079064
N30	N	1.593586	-0.367750	0.079052
C31	C	1.508016	-0.326626	-0.000081
C32	C	1.617378	-0.590227	-0.000050
C33	C	1.615415	-0.663065	-0.000019
C34	C	1.382928	-0.647586	-0.000002
C35	C	1.384894	-0.574750	-0.000019
C36	C	1.502122	-0.546075	-0.000050
C37	C	1.739354	0.099217	-0.000076
C38	C	1.880937	0.101307	-0.000075
C39	C	1.496114	0.230738	-0.000029
C40	C	1.498198	0.308257	-0.000008
N41	N	1.506123	0.103149	-0.362321
C42	C	1.415259	0.152249	-0.453505
C43	C	1.530439	0.166377	-0.546687
C44	C	1.390992	0.089026	-0.546694
C45	C	1.621362	0.117309	-0.453451
C46	C	1.481838	0.039931	-0.453450
C47	C	1.597103	0.054032	-0.546590
N48	N	1.506163	0.103124	0.362193
H49	H	0.956566	-0.020492	-0.000210
O50	O	1.555192	0.230090	-0.595634
C51	C	1.695881	0.294575	-0.732158
C52	C	1.668032	0.222379	-0.676793
H53	H	1.787097	0.288364	-0.797811
H54	H	1.708972	0.331029	-0.640361
H55	H	1.612123	0.317777	-0.799373
H56	H	1.751751	0.199115	-0.609600
H57	H	1.654890	0.185974	-0.768655
H58	H	0.911788	0.163174	-0.211826
O59	O	1.274714	0.074866	-0.595385
C60	C	1.047519	0.110679	-0.603370
C61	C	1.179120	0.126782	-0.548116
H62	H	0.970200	0.152652	-0.565199
H63	H	1.025953	0.057220	-0.563375
H64	H	1.048997	0.110267	-0.722540
H65	H	1.177740	0.127232	-0.428951
H66	H	1.200635	0.180230	-0.588218
H67	H	1.100671	0.043057	0.211451
H68	H	1.100721	0.043065	-0.211641
H69	H	1.338487	0.193809	-0.412634
H70	H	1.055429	0.226834	-0.000158
O71	O	1.457419	-0.023872	-0.404705
C72	C	1.524313	-0.147954	-0.398698
C73	C	1.552120	-0.075745	-0.454029
H74	H	1.600876	-0.189911	-0.438530
H75	H	1.426090	-0.159966	-0.436975
H76	H	1.525430	-0.147433	-0.279528
H77	H	1.551071	-0.076213	-0.573197
H78	H	1.650324	-0.063762	-0.415645
H79	H	1.718763	0.129307	-0.412666
H80	H	0.911546	0.163163	0.211483
H81	H	1.724786	-0.122787	-0.000142
O82	O	1.739450	-0.261764	-0.000180
C83	C	1.970248	-0.269436	-0.000140
C84	C	1.843418	-0.220890	-0.000081
H85	H	2.054339	-0.236409	-0.000030
H86	H	1.975211	-0.303914	-0.097471
H87	H	1.975083	-0.303932	0.097148
H88	H	1.838498	-0.186350	-0.097303
H89	H	1.838508	-0.186460	0.097314
H90	H	1.299450	-0.226847	-0.000058
O91	O	1.688787	0.004491	-0.595290
C92	C	1.791180	-0.051489	-0.797652
C93	C	1.687280	0.004626	-0.742686
H94	H	1.790015	-0.051388	-0.916827
H95	H	1.771301	-0.105252	-0.757750
H96	H	1.889215	-0.039336	-0.759055
H97	H	1.589203	-0.007461	-0.781261
H98	H	1.707270	0.058373	-0.782576
H99	H	1.291043	-0.538801	-0.000015
H100	H	1.302994	-0.094706	-0.000066
H101	H	1.712832	-0.566879	-0.000069
H102	H	1.709271	-0.699012	-0.000023
O103	O	1.269175	-0.675555	-0.000048
C104	C	1.163117	-0.780902	0.000079
C105	C	1.292036	-0.749316	0.000088
H106	H	1.181556	-0.840542	0.000219
H107	H	1.106150	-0.762825	-0.097248
H108	H	1.106196	-0.762714	0.097370
H109	H	1.349061	-0.767490	-0.097138
H110	H	1.348906	-0.767390	0.097480
