data_functionalizedCrystal
_audit_creation_method	'MofGen! by Chris Wilmer'
_symmetry_space_group_name_H-M	'P1'
_symmetry_Int_Tables_number	1
_symmetry_cell_setting	triclinic
loop_
_symmetry_equiv_pos_as_xyz
  x,y,z
_cell_length_a	12.759401
_cell_length_b	13.032721
_cell_length_c	13.032268
_cell_angle_alpha	76.710373
_cell_angle_beta	97.163105
_cell_angle_gamma	82.796595
loop_
_atom_site_label
_atom_site_type_symbol
_atom_site_fract_x
_atom_site_fract_y
_atom_site_fract_z
Zn1	Zn	-1.458892	-0.499110	0.654206
Zn2	Zn	-0.958892	0.000890	1.154206
Zn3	Zn	-1.458777	-0.654195	0.499153
Zn4	Zn	-0.958777	-0.154195	0.999153
Zn5	Zn	-1.308758	-0.476602	0.476625
Zn6	Zn	-0.808758	0.023398	0.976625
Zn7	Zn	-1.257619	-0.676664	0.676695
Zn8	Zn	-0.757619	-0.176664	1.176695
O9	O	-1.371011	-0.576643	0.576670
O10	O	-0.871011	-0.076643	1.076670
O11	O	-1.605893	-0.519699	0.633654
O12	O	-1.105893	-0.019699	1.133654
O13	O	-1.460230	-0.611813	0.347545
O14	O	-0.960230	-0.111813	0.847545
O15	O	-1.350123	-0.330958	0.481341
O16	O	-0.850123	0.169042	0.981341
O17	O	-1.605809	-0.633638	0.519738
O18	O	-1.105809	-0.133638	1.019738
O19	O	-1.460426	-0.347494	0.611809
O20	O	-0.960426	0.152506	1.111809
O21	O	-1.350012	-0.481337	0.330993
O22	O	-0.850012	0.018663	0.830993
O23	O	-1.154957	-0.503125	0.503148
O24	O	-0.654957	-0.003125	1.003148
O25	O	-1.262964	-0.671935	0.822331
O26	O	-0.762964	-0.171935	1.322331
O27	O	-1.117386	-0.650110	0.650139
O28	O	-0.617386	-0.150110	1.150139
O29	O	-1.410839	-0.541487	0.805809
O30	O	-0.910839	-0.041487	1.305809
O31	O	-1.410643	-0.805805	0.541545
O32	O	-0.910643	-0.305805	1.041545
O33	O	-1.262853	-0.822314	0.671984
O34	O	-0.762853	-0.322314	1.171984
C35	C	-1.098051	-0.576614	0.576640
C36	C	-0.598051	-0.076614	1.076640
C37	C	-0.981271	-0.576631	0.576656
C38	C	-0.481271	-0.076631	1.076656
C39	C	-1.331212	-0.852601	0.611672
C40	C	-0.831212	-0.352601	1.111672
C41	C	-1.314276	-0.970661	0.626682
C42	C	-0.814276	-0.470661	1.126682
C43	C	-0.926398	-0.635837	0.517231
C44	C	-0.426398	-0.135837	1.017231
C45	C	-0.816669	-0.635855	0.517249
C46	C	-0.316669	-0.135855	1.017249
C47	C	-0.816697	-0.517451	0.636117
C48	C	-0.316697	-0.017451	1.136117
C49	C	-0.926422	-0.517440	0.636105
C50	C	-0.426422	-0.017440	1.136105
C51	C	-0.981246	-0.695027	0.457782
C52	C	-0.481246	-0.195027	0.957782
C53	C	-0.926374	-0.754238	0.398352
C54	C	-0.426374	-0.254238	0.898352
C55	C	-0.816645	-0.754255	0.398370
C56	C	-0.316645	-0.254255	0.898370
C57	C	-0.761789	-0.695063	0.457818
C58	C	-0.261789	-0.195063	0.957818
C59	C	-0.645038	-0.576666	0.576693
C60	C	-0.145038	-0.076666	1.076693
C61	C	-0.761817	-0.576659	0.576686
C62	C	-0.261817	-0.076659	1.076686
C63	C	-1.379899	-1.015100	0.568884
C64	C	-0.879899	-0.515100	1.068884
C65	C	-1.362397	-1.137121	0.584396
C66	C	-0.862397	-0.637121	1.084396
C67	C	-1.331210	-0.611728	0.853683
C68	C	-0.831210	-0.111728	1.353683
C69	C	-1.314249	-0.626679	0.971730
C70	C	-0.814249	-0.126679	1.471730
C71	C	-1.410992	-0.299611	0.541553
C72	C	-0.910992	0.200389	1.041553
C73	C	-1.428029	-0.181556	0.526589
C74	C	-0.928029	0.318444	1.026589
C75	C	-1.410729	-0.541618	0.300724
C76	C	-0.910729	-0.041618	0.800724
C77	C	-1.427937	-0.526367	0.182640
C78	C	-0.927937	-0.026367	0.682640
C79	C	-1.379852	-0.568802	1.016183
C80	C	-0.879852	-0.068802	1.516183
C81	C	-1.362324	-0.584253	1.138190
C82	C	-0.862324	-0.084253	1.638190
H83	H	-1.070594	-0.695017	0.457759
H84	H	-0.570594	-0.195017	0.957759
H85	H	-0.672439	-0.695090	0.457835
H86	H	-0.172439	-0.195090	0.957835
H87	H	-1.293171	-0.645240	1.190453
H88	H	-0.793171	-0.145240	1.690453
H89	H	-1.293257	-1.189409	0.645371
H90	H	-0.793257	-0.689409	1.145371
O91	O	-1.471493	-0.945853	0.488125
O92	O	-0.971493	-0.445853	0.988125
H93	H	-1.548286	-0.969330	0.509103
H94	H	-1.048286	-0.469330	1.009103
O95	O	-0.757456	-0.818119	0.334280
O96	O	-0.257456	-0.318119	0.834280
H97	H	-0.722062	-0.763666	0.274301
H98	H	-0.222062	-0.263666	0.774301
O99	O	-1.222651	-0.707465	1.040948
O100	O	-0.722651	-0.207465	1.540948
H101	H	-1.254660	-0.767870	1.098334
H102	H	-0.754660	-0.267870	1.598334
O103	O	-1.519625	-1.112312	0.445825
O104	O	-1.019625	-0.612312	0.945825
H105	H	-1.518999	-1.027337	0.446309
H106	H	-1.018999	-0.527337	0.946309
O107	O	-1.222680	-1.039910	0.707436
O108	O	-0.722680	-0.539910	1.207436
H109	H	-1.223299	-1.124882	0.706938
H110	H	-0.723299	-0.624882	1.206938
O111	O	-1.519535	-0.445575	1.113420
O112	O	-1.019535	0.054425	1.613420
H113	H	-1.564920	-0.405527	1.164544
H114	H	-1.064920	0.094473	1.664544
O115	O	-0.757537	-0.453594	0.700213
O116	O	-0.257537	0.046406	1.200213
H117	H	-0.692929	-0.508049	0.760208
H118	H	-0.192929	-0.008049	1.260208
O119	O	-0.985530	-0.818077	0.334232
O120	O	-0.485530	-0.318077	0.834232
H121	H	-1.071052	-0.808110	0.344192
H122	H	-0.571052	-0.308110	0.844192
O123	O	-0.985621	-0.453575	0.700187
O124	O	-0.485621	0.046425	1.200187
H125	H	-0.929053	-0.412403	0.741513
H126	H	-0.429053	0.087597	1.241513
O127	O	-1.471451	-0.488016	0.946966
O128	O	-0.971451	0.011984	1.446966
H129	H	-1.470851	-0.488566	0.862000
H130	H	-0.970851	0.011434	1.362000
