data_functionalizedCrystal
_audit_creation_method	'MofGen! by Chris Wilmer'
_symmetry_space_group_name_H-M	'P1'
_symmetry_Int_Tables_number	1
_symmetry_cell_setting	triclinic
loop_
_symmetry_equiv_pos_as_xyz
  x,y,z
_cell_length_a	16.625548
_cell_length_b	13.897448
_cell_length_c	16.625539
_cell_angle_alpha	90.025684
_cell_angle_beta	89.982945
_cell_angle_gamma	89.981240
loop_
_atom_site_label
_atom_site_type_symbol
_atom_site_fract_x
_atom_site_fract_y
_atom_site_fract_z
Zn1	Zn	1.232679	0.384003	-0.455914
Zn2	Zn	1.732679	0.884003	0.044086
Zn3	Zn	1.232602	0.545311	-0.321083
Zn4	Zn	1.732602	1.045311	0.178917
Zn5	Zn	1.097849	0.384035	-0.321094
Zn6	Zn	1.597849	0.884035	0.178906
Zn7	Zn	1.097823	0.545261	-0.455872
Zn8	Zn	1.597823	1.045261	0.044128
O9	O	1.165238	0.464653	-0.388491
O10	O	1.665238	0.964653	0.111509
O11	O	1.345501	0.405409	-0.438040
O12	O	1.845501	0.905409	0.061960
O13	O	1.214706	0.523952	-0.208252
O14	O	1.714706	1.023952	0.291748
O15	O	1.115778	0.249049	-0.339000
O16	O	1.615778	0.749049	0.161000
O17	O	1.345445	0.523921	-0.338981
O18	O	1.845445	1.023921	0.161019
O19	O	1.214837	0.249026	-0.438052
O20	O	1.714837	0.749026	0.061948
O21	O	1.115703	0.405463	-0.208260
O22	O	1.615703	0.905463	0.291740
O23	O	0.985013	0.405414	-0.338960
O24	O	1.485013	0.905414	0.161040
O25	O	1.115733	0.523836	-0.568710
O26	O	1.615733	1.023836	-0.068710
O27	O	0.984994	0.523866	-0.437981
O28	O	1.484994	1.023866	0.062019
O29	O	1.214811	0.405360	-0.568741
O30	O	1.714811	0.905360	-0.068741
O31	O	1.214680	0.680286	-0.338941
O32	O	1.714680	1.180286	0.161059
O33	O	1.115658	0.680249	-0.437970
O34	O	1.615658	1.180249	0.062030
C35	C	0.955747	0.464639	-0.388468
C36	C	1.455747	0.964639	0.111532
C37	C	0.866126	0.464656	-0.388478
C38	C	1.366126	0.964656	0.111522
C39	C	1.165179	0.715267	-0.388467
C40	C	1.665179	1.215267	0.111533
C41	C	1.165228	0.822481	-0.388484
C42	C	1.665228	1.322481	0.111516
C43	C	1.165278	0.464589	-0.598800
C44	C	1.665278	0.964589	-0.098800
C45	C	1.165295	0.464562	-0.688421
C46	C	1.665295	0.964562	-0.188421
C47	C	0.537951	0.464663	-0.388512
C48	C	1.037951	0.964663	0.111488
C49	C	0.629259	0.464658	-0.388500
C50	C	1.129259	0.964658	0.111500
C51	C	0.702036	0.464660	-0.388494
C52	C	1.202036	0.964660	0.111506
C53	C	0.793350	0.464654	-0.388483
C54	C	1.293350	0.964654	0.111517
C55	C	1.375547	0.464667	-0.388514
C56	C	1.875547	0.964667	0.111486
C57	C	1.465168	0.464673	-0.388524
C58	C	1.965168	0.964673	0.111476
C59	C	1.165319	0.213060	-0.388532
C60	C	1.665319	0.713060	0.111468
C61	C	1.165354	0.105846	-0.388549
C62	C	1.665354	0.605846	0.111451
C63	C	1.165313	1.018776	-0.388535
C64	C	1.665313	1.518776	0.111465
C65	C	1.165263	0.909544	-0.388509
C66	C	1.665263	1.409544	0.111491
C67	C	1.165308	0.464541	-0.761203
C68	C	1.665308	0.964541	-0.261203
C69	C	1.165327	0.464505	-0.852512
C70	C	1.665327	0.964505	-0.352512
C71	C	1.165346	0.464471	-0.925288
C72	C	1.665346	0.964471	-0.425288
C73	C	1.165366	0.464436	-1.016603
C74	C	1.665366	0.964436	-0.516603
C75	C	1.165245	0.464647	-0.179000
C76	C	1.665245	0.964647	0.321000
C77	C	1.165385	0.464402	-0.089379
C78	C	1.665385	0.964402	0.410621
