data_functionalizedCrystal
_audit_creation_method	'MofGen! by Chris Wilmer'
_symmetry_space_group_name_H-M	'P1'
_symmetry_Int_Tables_number	1
_symmetry_cell_setting	triclinic
loop_
_symmetry_equiv_pos_as_xyz
  x,y,z
_cell_length_a	19.288864
_cell_length_b	14.750779
_cell_length_c	19.288865
_cell_angle_alpha	102.602845
_cell_angle_beta	83.136245
_cell_angle_gamma	77.416117
loop_
_atom_site_label
_atom_site_type_symbol
_atom_site_fract_x
_atom_site_fract_y
_atom_site_fract_z
O1	O	0.906164	0.080142	0.101825
O2	O	1.406164	0.580142	0.601825
O3	O	0.703915	0.080078	0.113501
O4	O	1.203915	0.580078	0.613501
O5	O	0.810887	0.080092	0.006529
O6	O	1.310887	0.580092	0.506529
O7	O	0.799192	0.080127	0.208796
O8	O	1.299192	0.580127	0.708796
O9	O	0.841126	-0.079554	-0.023707
O10	O	1.341126	0.420446	0.476293
O11	O	0.734155	-0.079569	0.083265
O12	O	1.234155	0.420431	0.583265
O13	O	0.936403	-0.079504	0.071588
O14	O	1.436403	0.420496	0.571588
Zn15	Zn	0.840080	-0.104884	0.072626
Zn16	Zn	1.340080	0.395116	0.572626
Zn17	Zn	0.800238	0.105457	0.112464
Zn18	Zn	1.300238	0.605457	0.612464
O19	O	0.829431	-0.079519	0.178560
O20	O	1.329431	0.420481	0.678560
C21	C	0.693160	0.000246	0.098005
C22	C	1.193160	0.500246	0.598005
C23	C	0.616061	0.000221	0.096871
C24	C	1.116061	0.500221	0.596871
N25	N	0.867276	-0.248436	0.045437
N26	N	1.367276	0.251564	0.545437
C27	C	0.571360	0.000246	0.159644
C28	C	1.071360	0.500246	0.659644
C29	C	0.498911	0.000257	0.158586
C30	C	0.998911	0.500257	0.658586
C31	C	0.471163	0.000261	0.094754
C32	C	0.971163	0.500261	0.594754
C33	C	0.515875	0.000230	0.031972
C34	C	1.015875	0.500230	0.531972
C35	C	0.588324	0.000210	0.033031
C36	C	1.088324	0.500210	0.533031
C37	C	0.352302	0.056216	0.055173
C38	C	0.852302	0.556216	0.555173
C39	C	0.279853	0.056242	0.054118
C40	C	0.779853	0.556242	0.554118
C41	C	0.247706	0.000318	0.091485
C42	C	0.747706	0.500318	0.591485
C43	C	0.288014	-0.055619	0.129922
C44	C	0.788014	0.444381	0.629922
C45	C	0.360464	-0.055639	0.130981
C46	C	0.860464	0.444361	0.630981
C47	C	0.392605	0.000282	0.093599
C48	C	0.892605	0.500282	0.593599
C49	C	0.124447	0.000354	0.153114
C50	C	0.624447	0.500354	0.653114
C51	C	0.051998	0.000359	0.152052
C52	C	0.551998	0.500359	0.652052
C53	C	0.068962	0.000341	0.025438
C54	C	0.568962	0.500341	0.525438
C55	C	0.141411	0.000327	0.026501
C56	C	0.641411	0.500327	0.526501
C57	C	0.169148	0.000338	0.090342
C58	C	0.669148	0.500338	0.590342
C59	C	0.697092	-0.600278	0.215550
C60	C	1.197092	-0.100278	0.715550
C61	C	0.716155	-0.700774	0.196502
C62	C	1.216155	-0.200774	0.696502
C63	C	0.810898	-0.700723	0.101814
C64	C	1.310898	-0.200723	0.601814
C65	C	0.791841	-0.600225	0.120851
C66	C	1.291841	-0.100225	0.620851
C67	C	0.734938	-0.550010	0.177720
C68	C	1.234938	-0.050010	0.677720
C69	C	0.829687	-0.549957	0.083021
C70	C	1.329687	-0.049957	0.583021
C71	C	0.810634	-0.449468	0.102059
C72	C	1.310634	0.050532	0.602059
C73	C	0.753735	-0.399246	0.158928
C74	C	1.253735	0.100754	0.658928
C75	C	0.715885	-0.449520	0.196758
C76	C	1.215885	0.050480	0.696758
C77	C	0.886593	-0.600174	0.026155
C78	C	1.386593	-0.100174	0.526155
C79	C	0.924438	-0.549907	-0.011675
C80	C	1.424438	-0.049907	0.488325
C81	C	0.905382	-0.449415	0.007360
C82	C	1.405382	0.050585	0.507360
C83	C	0.848483	-0.399193	0.064229
C84	C	1.348483	0.100807	0.564229
C85	C	0.943232	-0.399140	-0.030470
C86	C	1.443232	0.100860	0.469530
C87	C	0.924179	-0.298651	-0.011432
C88	C	1.424179	0.201349	0.488568
C89	C	0.829430	-0.298703	0.083267
C90	C	1.329430	0.201297	0.583267
C91	C	0.947158	0.000329	0.087084
C92	C	1.447158	0.500329	0.587084
C93	C	1.024255	0.000361	0.088219
C94	C	1.524255	0.500361	0.588219
C95	C	0.825631	0.000266	-0.034466
C96	C	1.325631	0.500266	0.465534
C97	C	0.824504	0.000258	-0.111571
C98	C	1.324504	0.500258	0.388429
N99	N	0.773047	0.249009	0.139647
N100	N	1.273047	0.749009	0.639647
C101	C	0.887269	0.000273	-0.156265
C102	C	1.387269	0.500273	0.343735
C103	C	0.886205	0.000288	-0.228709
C104	C	1.386205	0.500288	0.271291
C105	C	0.822377	0.000268	-0.256460
C106	C	1.322377	0.500268	0.243540
C107	C	0.759603	0.000258	-0.211756
C108	C	1.259603	0.500258	0.288244
C109	C	0.760666	0.000253	-0.139311
C110	C	1.260666	0.500253	0.360689
C111	C	0.782793	-0.055668	-0.375342
C112	C	1.282793	0.444332	0.124658
C113	C	0.781733	-0.055669	-0.447786
C114	C	1.281733	0.444331	0.052214
C115	C	0.819093	0.000289	-0.479902
C116	C	1.319093	0.500289	0.020098
C117	C	0.857528	0.056234	-0.439568
C118	C	1.357528	0.556234	0.060432
C119	C	0.858591	0.056229	-0.367123
C120	C	1.358591	0.556229	0.132877
C121	C	0.821217	0.000274	-0.335013
C122	C	1.321217	0.500274	0.164987
C123	C	0.880709	0.000321	-0.603148
C124	C	1.380709	0.500321	-0.103148
C125	C	0.879642	0.000342	-0.675592
C126	C	1.379642	0.500342	-0.175592
C127	C	0.753039	0.000303	-0.658639
C128	C	1.253039	0.500303	-0.158639
C129	C	0.754107	0.000292	-0.586195
C130	C	1.254107	0.500292	-0.086195
C131	C	0.817944	0.000296	-0.558455
C132	C	1.317944	0.500296	-0.058455
C133	C	0.814687	0.000309	0.219556
C134	C	1.314687	0.500309	0.719556
C135	C	0.815813	0.000324	0.296662
C136	C	1.315813	0.500324	0.796662
H137	H	0.593938	0.000257	0.211629
H138	H	1.093938	0.500257	0.711629
H139	H	0.147035	0.000349	0.205094
H140	H	0.647035	0.500349	0.705094
H141	H	0.887950	0.101801	-0.465714
H142	H	1.387950	0.601801	0.034286
Cl143	Cl	0.757886	-0.235572	0.154755
Cl144	Cl	1.257886	0.264428	0.654755
Cl145	Cl	0.411135	-0.125960	0.179295
Cl146	Cl	0.911135	0.374040	0.679295
H147	H	0.954998	-0.257722	-0.042237
H148	H	1.454998	0.242278	0.457763
H149	H	0.902105	-0.681999	0.010659
H150	H	1.402105	-0.181999	0.510659
H151	H	0.177807	0.000311	-0.024615
H152	H	0.677807	0.500311	0.475385
Cl153	Cl	-0.004198	0.000386	0.230973
Cl154	Cl	0.495802	0.500386	0.730973
H155	H	0.685332	-0.741697	0.227314
H156	H	1.185332	-0.241697	0.727314
H157	H	0.709554	0.000240	-0.102921
H158	H	1.209554	0.500240	0.397079
Cl159	Cl	0.229184	0.126571	0.005806
Cl160	Cl	0.729184	0.626571	0.505806
H161	H	0.932689	0.000329	-0.580560
H162	H	1.432689	0.500329	-0.080560
Cl163	Cl	0.995973	-0.613041	-0.083164
Cl164	Cl	1.495973	-0.113041	0.416836
Cl165	Cl	0.480993	0.000229	-0.048274
Cl166	Cl	0.980993	0.500229	0.451726
Cl167	Cl	0.672796	0.000284	-0.693518
Cl168	Cl	1.172796	0.500284	-0.193518
Cl169	Cl	0.965116	0.000308	-0.284905
Cl170	Cl	1.465116	0.500308	0.215095
H171	H	0.624720	0.000189	-0.018088
H172	H	1.124720	0.500189	0.481912
Cl173	Cl	0.735823	-0.126025	-0.334977
Cl174	Cl	1.235823	0.373975	0.165023
Cl175	Cl	0.729785	-0.272914	0.182865
Cl176	Cl	1.229785	0.227086	0.682865
Cl177	Cl	0.644341	-0.386389	0.268246
Cl178	Cl	1.144341	0.113611	0.768246
H179	H	0.989567	-0.440039	-0.076769
H180	H	1.489567	0.059961	0.423231
H181	H	0.462509	0.000275	0.209704
H182	H	0.962509	0.500275	0.709704
H183	H	0.378468	0.101761	0.024743
H184	H	0.878468	0.601761	0.524743
Cl185	Cl	0.882432	-0.763858	0.030324
Cl186	Cl	1.382432	-0.263858	0.530324
Cl187	Cl	0.733420	-0.126004	-0.498485
Cl188	Cl	1.233420	0.373996	0.001515
H189	H	0.046359	0.000404	-0.026523
H190	H	0.546359	0.500404	0.473477
Cl191	Cl	0.247611	-0.125927	0.176903
Cl192	Cl	0.747611	0.374073	0.676903
H193	H	0.650752	-0.559391	0.261854
H194	H	1.150752	-0.059391	0.761854
Cl195	Cl	0.967517	0.000306	-0.121390
Cl196	Cl	1.467517	0.500306	0.378610
H197	H	0.707633	0.000244	-0.234355
H198	H	1.207633	0.500244	0.265645
H199	H	0.889884	0.101784	-0.334286
H200	H	1.389884	0.601784	0.165714
Cl201	Cl	0.675198	0.000268	-0.530006
Cl202	Cl	1.175198	0.500268	-0.030006
H203	H	0.930754	0.000360	-0.711980
H204	H	1.430754	0.500360	-0.211980
