data_functionalizedCrystal
_audit_creation_method	'MofGen! by Chris Wilmer'
_symmetry_space_group_name_H-M	'P1'
_symmetry_Int_Tables_number	1
_symmetry_cell_setting	triclinic
loop_
_symmetry_equiv_pos_as_xyz
  x,y,z
_cell_length_a	18.215407
_cell_length_b	12.759400
_cell_length_c	12.759393
_cell_angle_alpha	89.968436
_cell_angle_beta	90.021831
_cell_angle_gamma	89.984868
loop_
_atom_site_label
_atom_site_type_symbol
_atom_site_fract_x
_atom_site_fract_y
_atom_site_fract_z
Zn1	Zn	1.125139	0.418192	0.594075
Zn2	Zn	1.458472	0.751525	0.927408
Zn3	Zn	1.791805	1.084858	1.260741
Zn4	Zn	1.125065	0.593911	0.418395
Zn5	Zn	1.458398	0.927244	0.751728
Zn6	Zn	1.791731	1.260577	1.085062
Zn7	Zn	1.002067	0.418248	0.418404
Zn8	Zn	1.335400	0.751581	0.751737
Zn9	Zn	1.668734	1.084914	1.085071
Zn10	Zn	1.002059	0.593831	0.594026
Zn11	Zn	1.335392	0.927164	0.927360
Zn12	Zn	1.668726	1.260497	1.260693
O13	O	1.063582	0.506045	0.506225
O14	O	1.396916	0.839378	0.839558
O15	O	1.730249	1.172712	1.172892
O16	O	1.228113	0.441511	0.570787
O17	O	1.561446	0.774845	0.904120
O18	O	1.894780	1.108178	1.237454
O19	O	1.108721	0.570665	0.271375
O20	O	1.442054	0.903999	0.604708
O21	O	1.775388	1.237332	0.938042
O22	O	1.018427	0.271219	0.441731
O23	O	1.351760	0.604552	0.775065
O24	O	1.685094	0.937886	1.108398
O25	O	1.228059	0.570611	0.441716
O26	O	1.561392	0.903945	0.775049
O27	O	1.894725	1.237278	1.108383
O28	O	1.108847	0.271178	0.570796
O29	O	1.442181	0.604511	0.904129
O30	O	1.775514	0.937845	1.237463
O31	O	1.018355	0.441607	0.271382
O32	O	1.351689	0.774940	0.604715
O33	O	1.685022	1.108273	0.938048
O34	O	0.899082	0.441529	0.441684
O35	O	1.232415	0.774862	0.775017
O36	O	1.565748	1.108196	1.108351
O37	O	1.018413	0.570475	0.741054
O38	O	1.351747	0.903808	1.074387
O39	O	1.685080	1.237142	1.407720
O40	O	0.899076	0.570529	0.570713
O41	O	1.232409	0.903862	0.904046
O42	O	1.565742	1.237196	1.237380
O43	O	1.108840	0.441434	0.741090
O44	O	1.442173	0.774767	1.074423
O45	O	1.775506	1.108100	1.407756
O46	O	1.108713	0.740921	0.441669
O47	O	1.442047	1.074254	0.775002
O48	O	1.775380	1.407588	1.108335
O49	O	1.018342	0.740862	0.570704
O50	O	1.351675	1.074196	0.904038
O51	O	1.685008	1.407529	1.237371
C52	C	1.063539	0.779013	0.506203
C53	C	1.396872	1.112346	0.839536
C54	C	1.730205	1.445679	1.172870
C55	C	1.063587	0.895789	0.506229
C56	C	1.396921	1.229122	0.839562
C57	C	1.730254	1.562456	1.172896
C58	C	0.872376	0.506027	0.506195
C59	C	1.205709	0.839361	0.839528
C60	C	1.539043	1.172694	1.172862
C61	C	0.790577	0.506045	0.506207
C62	C	1.123910	0.839378	0.839540
C63	C	1.457244	1.172711	1.172874
C64	C	1.063634	0.505939	0.780258
C65	C	1.396967	0.839272	1.113592
C66	C	1.730301	1.172606	1.446925
C67	C	1.063656	0.505894	0.897035
C68	C	1.396989	0.839227	1.230369
C69	C	1.730322	1.172561	1.563702
C70	C	0.602399	0.573321	0.573308
C71	C	0.935733	0.906654	0.906641
C72	C	1.269066	1.239987	1.239975
C73	C	0.525541	0.573324	0.573321
C74	C	0.858874	0.906657	0.906654
C75	C	1.192207	1.239991	1.239988
C76	C	0.525517	0.438789	0.439165
C77	C	0.858850	0.772122	0.772498
C78	C	1.192184	1.105455	1.105832
C79	C	0.602375	0.438781	0.439158
C80	C	0.935708	0.772114	0.772491
C81	C	1.269041	1.105447	1.105825
C82	C	0.640814	0.506053	0.506228
C83	C	0.974147	0.839386	0.839561
C84	C	1.307480	1.172719	1.172895
C85	C	0.487098	0.506064	0.506248
C86	C	0.820431	0.839397	0.839581
C87	C	1.153764	1.172731	1.172915
C88	C	0.403764	0.506067	0.506262
C89	C	0.737097	0.839400	0.839595
C90	C	1.070431	1.172734	1.172928
C91	C	0.724153	0.506049	0.506216
C92	C	1.057486	0.839382	0.839549
C93	C	1.390819	1.172715	1.172883
C94	C	1.255535	0.506064	0.506256
C95	C	1.588869	0.839397	0.839589
C96	C	1.922202	1.172731	1.172923
C97	C	1.337334	0.506072	0.506269
C98	C	1.670667	0.839405	0.839602
C99	C	2.004001	1.172739	1.172936
C100	C	1.063646	0.232012	0.506270
C101	C	1.396980	0.565345	0.839603
C102	C	1.730313	0.898678	1.172937
C103	C	1.063673	0.115235	0.506289
C104	C	1.397007	0.448568	0.839623
C105	C	1.730340	0.781902	1.172956
C106	C	1.110696	0.950647	0.439114
C107	C	1.444029	1.283980	0.772448
C108	C	1.777363	1.617314	1.105781
C109	C	1.110741	1.060371	0.439147
C110	C	1.444075	1.393704	0.772480
C111	C	1.777408	1.727038	1.105813
C112	C	1.016563	1.060370	0.573411
C113	C	1.349896	1.393703	0.906744
C114	C	1.683229	1.727036	1.240078
C115	C	1.016522	0.950648	0.573383
C116	C	1.349855	1.283981	0.906717
C117	C	1.683188	1.617314	1.240050
C118	C	1.165067	0.950648	0.361595
C119	C	1.498401	1.283982	0.694928
C120	C	1.831734	1.617315	1.028261
C121	C	1.165112	1.060372	0.361627
C122	C	1.498446	1.393706	0.694960
C123	C	1.831779	1.727039	1.028294
C124	C	1.063573	0.506075	0.233258
C125	C	1.396907	0.839408	0.566591
C126	C	1.730240	1.172742	0.899924
C127	C	1.063694	0.505824	0.116482
C128	C	1.397027	0.839157	0.449815
C129	C	1.730361	1.172491	0.783148
C130	C	1.110747	0.438696	0.951918
C131	C	1.444080	0.772029	1.285251
C132	C	1.777414	1.105363	1.618584
C133	C	1.110765	0.438658	1.061642
C134	C	1.444098	0.771991	1.394975
C135	C	1.777431	1.105325	1.728308
C136	C	1.016597	0.573025	1.061591
C137	C	1.349931	0.906359	1.394925
C138	C	1.683264	1.239692	1.728258
C139	C	1.016577	0.573057	0.951869
C140	C	1.349910	0.906390	1.285203
C141	C	1.683243	1.239724	1.618536
C142	C	1.165116	0.361123	0.951947
C143	C	1.498450	0.694456	1.285281
C144	C	1.831783	1.027790	1.618614
C145	C	1.165134	0.361085	1.061672
C146	C	1.498467	0.694418	1.395005
C147	C	1.831800	1.027752	1.728338
H148	H	0.633694	0.628095	0.627923
H149	H	0.967028	0.961429	0.961257
H150	H	1.300361	1.294762	1.294590
F151	F	1.235864	0.399243	0.907460
F152	F	1.569197	0.732576	1.240794
F153	F	1.902530	1.065910	1.574127
F154	F	1.138388	0.906272	0.260531
F155	F	1.471721	1.239605	0.593864
F156	F	1.805055	1.572938	0.927197
F157	F	1.235883	1.104746	0.399829
F158	F	1.569217	1.438079	0.733163
F159	F	1.902550	1.771412	1.066496
H160	H	0.494267	0.628099	0.627946
H161	H	0.827601	0.961432	0.961279
H162	H	1.160934	1.294765	1.294612
F163	F	0.643260	0.367176	0.367764
F164	F	0.976594	0.700509	0.701097
F165	F	1.309927	1.033842	1.034431
H166	H	0.978244	1.105049	0.628087
H167	H	1.311577	1.438382	0.961420
H168	H	1.644911	1.771716	1.294753
H169	H	0.494211	0.384020	0.384558
H170	H	0.827544	0.717353	0.717891
H171	H	1.160877	1.050686	1.051224
H172	H	0.978169	0.905984	0.628042
H173	H	1.311502	1.239317	0.961376
H174	H	1.644835	1.572650	1.294709
F175	F	1.239541	0.911616	0.390162
F176	F	1.572874	1.244949	0.723495
F177	F	1.906207	1.578283	1.056829
F178	F	1.145185	0.254777	0.913047
F179	F	1.478519	0.588110	1.246381
F180	F	1.811852	0.921444	1.579714
F181	F	1.145212	1.099410	0.255258
F182	F	1.478545	1.432743	0.588591
F183	F	1.811879	1.766077	0.921924
F184	F	1.239634	0.389556	1.100605
F185	F	1.572967	0.722890	1.433939
F186	F	1.906301	1.056223	1.767272
F187	F	0.966446	0.644564	0.893463
F188	F	1.299779	0.977897	1.226796
F189	F	1.633112	1.311230	1.560130
H190	H	0.978266	0.627705	1.106251
H191	H	1.311599	0.961038	1.439584
H192	H	1.644932	1.294371	1.772917
H193	H	1.144740	0.283776	1.095718
H194	H	1.478074	0.617110	1.429051
H195	H	1.811407	0.950443	1.762384
