data_functionalizedCrystal
_audit_creation_method	'MofGen! by Chris Wilmer'
_symmetry_space_group_name_H-M	'P1'
_symmetry_Int_Tables_number	1
_symmetry_cell_setting	triclinic
loop_
_symmetry_equiv_pos_as_xyz
  x,y,z
_cell_length_a	21.395362
_cell_length_b	19.077068
_cell_length_c	21.395355
_cell_angle_alpha	87.720949
_cell_angle_beta	90.043940
_cell_angle_gamma	92.343691
loop_
_atom_site_label
_atom_site_type_symbol
_atom_site_fract_x
_atom_site_fract_y
_atom_site_fract_z
Zn1	Zn	0.947861	-0.279990	0.364586
Zn2	Zn	0.943561	-0.397672	0.264012
Zn3	Zn	0.843074	-0.280023	0.259789
Zn4	Zn	0.838842	-0.397686	0.368717
O5	O	0.893334	-0.338843	0.314276
O6	O	1.034969	-0.295581	0.351283
O7	O	0.930203	-0.382073	0.175774
O8	O	0.860546	-0.181525	0.270194
O9	O	1.031810	-0.382041	0.277392
O10	O	0.937532	-0.181501	0.347188
O11	O	0.856376	-0.295637	0.172671
O12	O	0.754834	-0.295651	0.274200
O13	O	0.853331	-0.382066	0.455847
O14	O	0.751725	-0.382098	0.354229
O15	O	0.933427	-0.295595	0.452812
O16	O	0.926098	-0.496167	0.281398
O17	O	0.849162	-0.496177	0.358324
C18	C	0.730545	-0.338880	0.314205
C19	C	0.660903	-0.338913	0.314190
C20	C	0.626585	-0.383985	0.355803
C21	C	0.561150	-0.383968	0.355830
C22	C	0.530036	-0.338886	0.314233
C23	C	0.564362	-0.293804	0.272617
C24	C	0.629796	-0.293818	0.272595
C25	C	0.426513	-0.333216	0.257626
C26	C	0.361081	-0.333207	0.257647
C27	C	0.328216	-0.338840	0.314301
C28	C	0.360792	-0.344496	0.370937
C29	C	0.426226	-0.344510	0.370915
C30	C	0.459084	-0.338866	0.314253
C31	C	0.222946	-0.383896	0.355947
C32	C	0.157511	-0.383874	0.355976
C33	C	0.160724	-0.293714	0.272756
C34	C	0.226158	-0.293732	0.272734
C35	C	0.257266	-0.338827	0.314328
C36	C	0.886721	-0.521710	0.320781
C37	C	0.883949	-0.599942	0.323585
C38	C	0.922735	-0.636666	0.284884
C39	C	0.920132	-0.710173	0.287525
C40	C	0.878739	-0.746954	0.328864
C41	C	0.839952	-0.710224	0.367570
C42	C	0.842559	-0.636719	0.364931
C43	C	0.866647	-0.966795	0.341049
C44	C	0.864041	-1.040305	0.343683
C45	C	0.944222	-1.040249	0.263639
C46	C	0.946823	-0.966742	0.261002
C47	C	0.908038	-0.930019	0.299709
N48	N	0.876076	-0.822090	0.331564
N49	N	0.910705	-0.854884	0.297013
C50	C	1.056759	-0.338806	0.314348
C51	C	1.126401	-0.338790	0.314379
C52	C	0.893387	-0.338828	0.477699
C53	C	0.893409	-0.338822	0.547340
C54	C	0.899990	-0.155261	0.307759
C55	C	0.902827	-0.077030	0.304982
C56	C	0.893320	-0.338806	0.151487
C57	C	0.893426	-0.338614	0.081839
C58	C	0.935113	-0.293795	0.578474
C59	C	0.935114	-0.293765	0.643908
C60	C	0.893416	-0.338774	0.678207
C61	C	0.851704	-0.383805	0.647065
C62	C	0.851700	-0.383829	0.581632
C63	C	0.886177	-0.402150	0.784134
C64	C	0.886184	-0.402127	0.849566
C65	C	0.893422	-0.338700	0.880025
C66	C	0.900666	-0.275294	0.845043
C67	C	0.900663	-0.275318	0.779610
C68	C	0.893414	-0.338753	0.749158
C69	C	0.935129	-0.293636	0.982110
C70	C	0.935125	-0.293605	1.047545
C71	C	0.851718	-0.383651	1.050701
C72	C	0.851719	-0.383676	0.985267
C73	C	0.893428	-0.338670	0.950975
H74	H	0.135391	-0.257003	0.238890
O75	O	0.263169	-0.245124	0.227837
H76	H	0.294318	-0.209358	0.254644
H77	H	0.956438	-0.606724	0.251219
H78	H	0.810976	-0.606818	0.396447
O79	O	0.806742	-0.432239	0.951673
H80	H	0.776010	-0.400740	0.920720
O81	O	0.819399	-1.079981	0.388277
H82	H	0.792872	-1.042097	0.414755
O83	O	0.961960	-0.749786	0.245780
H84	H	0.991174	-0.711860	0.216585
O85	O	0.325361	-0.350560	0.432052
H86	H	0.293794	-0.398226	0.432703
O87	O	0.980105	-0.245089	0.945116
H88	H	1.009098	-0.213763	0.977761
O89	O	0.980095	-0.245252	0.541486
H90	H	1.009092	-0.213933	0.574133
O91	O	0.325946	-0.327103	0.196566
H92	H	0.359790	-0.323173	0.157167
O93	O	0.530797	-0.245188	0.227750
H94	H	0.545376	-0.189966	0.236608
O95	O	0.256506	-0.432521	0.400815
H96	H	0.221647	-0.463852	0.429765
H97	H	0.880115	-0.453787	0.759340
H98	H	0.533203	-0.420671	0.389719
O99	O	0.120487	-0.432583	0.400781
H100	H	0.153113	-0.463979	0.429665
H101	H	0.975799	-1.070157	0.232127
H102	H	0.980528	-0.936796	0.227340
H103	H	0.453266	-0.328626	0.211488
H104	H	0.835065	-0.936900	0.372565
O105	O	0.795298	-0.749890	0.412152
H106	H	0.799993	-0.807173	0.407478
H107	H	0.657737	-0.257112	0.238708
H108	H	0.969073	-0.257094	0.669262
H109	H	0.906559	-0.223690	0.751130
H110	H	0.906561	-0.223645	0.869841
O111	O	0.980109	-0.245038	1.081131
H112	H	1.009113	-0.213754	1.046290
O113	O	0.806741	-0.432199	1.087684
H114	H	0.813751	-0.424621	1.138416
O115	O	0.878365	-0.470510	0.887296
H116	H	0.873316	-0.514618	0.855125
O117	O	0.806726	-0.432351	0.684053
H118	H	0.813738	-0.424774	0.734784
O119	O	0.806705	-0.432380	0.548045
H120	H	0.777704	-0.463670	0.582885
H121	H	0.452747	-0.349113	0.417029
O122	O	0.660138	-0.432611	0.400672
H123	H	0.625277	-0.463945	0.429618
