data_functionalizedCrystal
_audit_creation_method	'MofGen! by Chris Wilmer'
_symmetry_space_group_name_H-M	'P1'
_symmetry_Int_Tables_number	1
_symmetry_cell_setting	triclinic
loop_
_symmetry_equiv_pos_as_xyz
  x,y,z
_cell_length_a	19.188905
_cell_length_b	23.532407
_cell_length_c	18.266242
_cell_angle_alpha	89.988983
_cell_angle_beta	89.983837
_cell_angle_gamma	82.991616
loop_
_atom_site_label
_atom_site_type_symbol
_atom_site_fract_x
_atom_site_fract_y
_atom_site_fract_z
O1	O	0.925934	0.071034	-0.061009
O2	O	0.722589	0.080620	-0.060985
O3	O	0.830393	-0.007092	-0.060984
O4	O	0.818130	0.158746	-0.061010
O5	O	0.830375	-0.007096	0.060778
O6	O	0.722571	0.080616	0.060777
O7	O	0.925916	0.071030	0.060753
Zn8	Zn	0.824240	0.075822	0.080097
Zn9	Zn	0.824264	0.075828	-0.080329
O10	O	0.818112	0.158742	0.060752
C11	C	0.696570	0.080310	-0.000101
C12	C	0.619067	0.079385	-0.000091
C13	C	0.582687	0.078944	-0.066465
C14	C	0.509866	0.078068	-0.066474
C15	C	0.473430	0.077623	-0.000105
C16	C	0.509819	0.078068	0.066278
C17	C	0.582638	0.078949	0.066285
N18	N	0.364511	0.043829	0.049292
N19	N	0.295336	0.042991	0.049281
C20	C	0.254032	0.074970	-0.000122
N21	N	0.284517	0.107812	-0.049525
N22	N	0.353698	0.108648	-0.049516
C23	C	0.394471	0.076668	-0.000105
C24	C	0.138691	0.073580	-0.066511
C25	C	0.065868	0.072709	-0.066517
C26	C	0.065824	0.072703	0.066237
C27	C	0.138644	0.073580	0.066241
C28	C	0.175074	0.074016	-0.000135
C29	C	0.830072	-0.028311	-0.000101
C30	C	0.829133	-0.091530	-0.000096
C31	C	0.887040	-0.490514	-0.000143
C32	C	0.886168	-0.549916	-0.000148
O33	O	0.939848	-0.586551	-0.000181
N34	N	0.822078	-0.572674	-0.000140
C35	C	0.758857	-0.536026	-0.000134
O36	O	0.704264	-0.560837	-0.000128
C37	C	0.759730	-0.476625	-0.000134
C38	C	0.823824	-0.453871	-0.000134
C39	C	0.951129	-0.467759	-0.000144
C40	C	0.952000	-0.408362	-0.000137
C41	C	0.888784	-0.371718	-0.000129
C42	C	0.824696	-0.394473	-0.000127
C43	C	0.696509	-0.439978	-0.000133
C44	C	0.697388	-0.380574	-0.000133
C45	C	0.761482	-0.357820	-0.000134
C46	C	0.762351	-0.298432	-0.000112
N47	N	0.826440	-0.275674	-0.000120
C48	C	0.889657	-0.312317	-0.000129
C49	C	0.757029	-0.660772	-0.000136
C50	C	0.756155	-0.720172	-0.000131
C51	C	0.883466	-0.734058	-0.000146
C52	C	0.884339	-0.674657	-0.000146
C53	C	0.821118	-0.638014	-0.000144
C54	C	0.891483	-0.187577	-0.000114
C55	C	0.892350	-0.128173	-0.000104
C56	C	0.765039	-0.114292	-0.000092
C57	C	0.764172	-0.173691	-0.000098
C58	C	0.827400	-0.210332	-0.000111
O59	O	0.708699	-0.261762	-0.000082
O60	O	0.944241	-0.287498	-0.000144
C61	C	0.951935	0.071340	-0.000133
C62	C	1.029437	0.072265	-0.000147
C63	C	0.818433	0.179961	-0.000132
C64	C	0.819372	0.243180	-0.000143
N65	N	0.824229	0.075818	0.189584
N66	N	0.824281	0.075828	-0.189816
C67	C	0.871980	0.036998	0.227893
C68	C	0.871985	0.036995	0.304538
C69	C	0.824245	0.075822	0.342871
C70	C	0.776485	0.114645	0.304553
C71	C	0.776477	0.114643	0.227909
N72	N	0.815008	0.126238	0.463197
N73	N	0.815020	0.126238	0.536005
C74	C	0.824264	0.075830	0.573794
N75	N	0.833511	0.025420	0.536024
N76	N	0.833503	0.025421	0.463209
C77	C	0.824248	0.075829	0.425978
C78	C	0.872023	0.037004	0.695210
C79	C	0.872022	0.037001	0.771856
C80	C	0.776526	0.114656	0.771869
C81	C	0.776523	0.114654	0.695224
C82	C	0.824275	0.075829	0.656899
H83	H	0.480239	0.077709	-0.120526
H84	H	0.480148	0.077708	0.120316
F85	F	0.922842	-0.004319	0.654421
F86	F	0.725652	0.155962	0.187136
H87	H	0.944544	-0.109650	-0.000103
H88	H	1.004192	-0.389841	-0.000141
H89	H	0.612258	0.079310	0.120337
H90	H	0.737642	0.146268	0.664031
F91	F	0.177464	0.074048	-0.137153
F92	F	0.922844	-0.004322	0.812629
F93	F	0.950747	-0.773067	-0.000159
F94	F	0.621454	0.079409	-0.137109
H95	H	0.703964	-0.738692	-0.000117
F96	F	0.689736	-0.621778	-0.000126
F97	F	0.177365	0.074048	0.136887
F98	F	0.725713	0.155975	0.812662
H99	H	0.036248	0.072352	-0.120569
H100	H	0.910861	0.005383	0.196691
F101	F	0.027050	0.072234	0.136873
F102	F	0.958778	-0.226566	-0.000128
F103	F	0.952555	-0.650446	-0.000147
F104	F	1.018418	-0.506750	-0.000153
H105	H	0.644318	-0.458493	-0.000137
F106	F	0.630097	-0.341579	-0.000132
F107	F	0.695957	-0.197908	-0.000084
H108	H	0.910871	0.005382	0.335735
F109	F	0.697763	-0.075283	-0.000083
F110	F	0.725674	0.155966	0.345350
