data_functionalizedCrystal
_audit_creation_method	'MofGen! by Chris Wilmer'
_symmetry_space_group_name_H-M	'P1'
_symmetry_Int_Tables_number	1
_symmetry_cell_setting	triclinic
loop_
_symmetry_equiv_pos_as_xyz
  x,y,z
_cell_length_a	10.654545
_cell_length_b	10.654549
_cell_length_c	9.130313
_cell_angle_alpha	89.996463
_cell_angle_beta	89.996934
_cell_angle_gamma	84.483928
loop_
_atom_site_label
_atom_site_type_symbol
_atom_site_fract_x
_atom_site_fract_y
_atom_site_fract_z
O1	O	1.667843	0.176372	-0.121781
O2	O	2.167843	0.676372	0.378219
O3	O	1.302363	0.193184	-0.121787
O4	O	1.802363	0.693184	0.378213
O5	O	1.493506	0.002038	-0.121778
O6	O	1.993506	0.502038	0.378222
O7	O	1.476700	0.367517	-0.121791
O8	O	1.976700	0.867517	0.378209
O9	O	1.493493	0.002033	0.121821
O10	O	1.993493	0.502033	0.621821
O11	O	1.302350	0.193178	0.121812
O12	O	1.802350	0.693178	0.621812
O13	O	1.667829	0.176366	0.121817
O14	O	2.167829	0.676366	0.621817
Cu15	Cu	1.485089	0.184772	0.144057
Cu16	Cu	1.985089	0.684772	0.644057
Cu17	Cu	1.485104	0.184778	-0.144027
Cu18	Cu	1.985104	0.684778	0.355973
O19	O	1.476686	0.367512	0.121808
O20	O	1.976686	0.867512	0.621808
C21	C	1.255559	0.191948	0.000011
C22	C	1.755559	0.691948	0.500011
C23	C	1.116115	0.188258	0.000009
C24	C	1.616115	0.688258	0.500009
C25	C	1.492266	-0.044762	0.000020
C26	C	1.992266	0.455238	0.500020
C27	C	1.488574	-0.184206	0.000015
C28	C	1.988574	0.315794	0.500015
C29	C	1.050603	0.186518	0.132796
C30	C	1.550603	0.686518	0.632796
C31	C	0.919584	0.183030	0.132796
C32	C	1.419584	0.683030	0.632796
C33	C	0.919599	0.183028	-0.132789
C34	C	1.419599	0.683028	0.367211
C35	C	1.050617	0.186507	-0.132787
C36	C	1.550617	0.686507	0.367213
C37	C	1.714634	0.177602	0.000016
C38	C	2.214634	0.677602	0.500016
C39	C	1.854078	0.181292	0.000008
C40	C	2.354078	0.681292	0.500008
C41	C	1.597638	-0.394722	0.000007
C42	C	2.097638	0.105278	0.500007
C43	C	1.601116	-0.263702	0.000018
C44	C	2.101116	0.236298	0.500018
C45	C	1.372546	-0.235736	0.000015
C46	C	1.872546	0.264264	0.500015
C47	C	1.369069	-0.366754	0.000014
C48	C	1.869069	0.133246	0.500014
C49	C	1.477927	0.414312	0.000007
C50	C	1.977927	0.914312	0.500007
C51	C	1.481619	0.553756	0.000002
C52	C	1.981619	1.053756	0.500002
N53	N	1.485087	0.184766	0.346680
N54	N	1.985087	0.684766	0.846680
N55	N	1.485116	0.184774	-0.346649
N56	N	1.985116	0.684774	0.153351
C57	C	1.569754	0.100163	0.423336
C58	C	2.069754	0.600163	0.923336
C59	C	1.569766	0.100163	0.576672
C60	C	2.069766	0.600163	1.076672
C61	C	1.400440	0.269381	0.576684
C62	C	1.900440	0.769381	1.076684
C63	C	1.400423	0.269374	0.423350
C64	C	1.900423	0.769374	0.923350
H65	H	1.103928	0.187944	0.240928
H66	H	1.603928	0.687944	0.740928
H67	H	1.280913	-0.171000	0.000021
H68	H	1.780913	0.329000	0.500021
Br69	Br	1.750382	-0.502598	-0.000006
Br70	Br	2.250382	-0.002598	0.499994
H71	H	1.274587	-0.408703	0.000017
H72	H	1.774587	0.091297	0.500017
Br73	Br	1.758577	-0.193783	0.000024
Br74	Br	2.258577	0.306217	0.500024
H75	H	0.866250	0.181614	0.240924
H76	H	1.366250	0.681614	0.740924
H77	H	0.866254	0.181604	-0.240907
H78	H	1.366254	0.681604	0.259093
Br79	Br	1.285500	0.384190	0.319305
Br80	Br	1.785500	0.884190	0.819305
H81	H	1.638690	0.031269	0.360914
H82	H	2.138690	0.531269	0.860914
Br83	Br	1.285545	0.384204	0.680741
Br84	Br	1.785545	0.884204	1.180741
H85	H	1.638708	0.031270	0.639081
H86	H	2.138708	0.531270	1.139081
H87	H	1.103959	0.187920	-0.240925
H88	H	1.603959	0.687920	0.259075
