data_functionalizedCrystal
_audit_creation_method	'MofGen! by Chris Wilmer'
_symmetry_space_group_name_H-M	'P1'
_symmetry_Int_Tables_number	1
_symmetry_cell_setting	triclinic
loop_
_symmetry_equiv_pos_as_xyz
  x,y,z
_cell_length_a	12.759401
_cell_length_b	21.295417
_cell_length_c	12.759393
_cell_angle_alpha	90.037048
_cell_angle_beta	90.020938
_cell_angle_gamma	90.031227
loop_
_atom_site_label
_atom_site_type_symbol
_atom_site_fract_x
_atom_site_fract_y
_atom_site_fract_z
Zn1	Zn	1.606157	-0.250553	0.593972
Zn2	Zn	1.606002	-0.355835	0.418272
Zn3	Zn	1.430456	-0.250587	0.418307
Zn4	Zn	1.430401	-0.355791	0.593909
O5	O	1.518254	-0.303192	0.506115
O6	O	1.753157	-0.264523	0.570677
O7	O	1.582673	-0.341906	0.271256
O8	O	1.453850	-0.162493	0.441651
O9	O	1.753043	-0.341874	0.441591
O10	O	1.582937	-0.162468	0.570711
O11	O	1.453700	-0.264581	0.271282
O12	O	1.283427	-0.264538	0.441590
O13	O	1.453758	-0.341799	0.740939
O14	O	1.283388	-0.341831	0.570604
O15	O	1.582885	-0.264481	0.740985
O16	O	1.582621	-0.443919	0.441530
O17	O	1.453608	-0.443886	0.570570
C18	C	1.245287	-0.303184	0.506095
C19	C	1.128510	-0.303196	0.506111
C20	C	1.073655	-0.343504	0.573182
C21	C	0.963931	-0.343506	0.573203
C22	C	0.963927	-0.262891	0.439071
C23	C	1.073649	-0.262886	0.439057
C24	C	1.518120	-0.466743	0.506062
C25	C	1.518159	-0.536711	0.506075
C26	C	1.585336	-0.569508	0.573324
C27	C	1.585373	-0.635250	0.573350
C28	C	1.518244	-0.668194	0.506108
C29	C	1.451054	-0.635389	0.438853
C30	C	1.451011	-0.569648	0.438837
N31	N	1.510303	-0.771462	0.414161
N32	N	1.510350	-0.833913	0.414180
C33	C	1.518367	-0.866268	0.506155
N34	N	1.526356	-0.833813	0.598113
N35	N	1.526315	-0.771356	0.598093
C36	C	1.518282	-0.739479	0.506119
C37	C	1.585588	-0.970351	0.573439
C38	C	1.585617	-1.036094	0.573466
C39	C	1.451304	-1.036232	0.438960
C40	C	1.451269	-0.970489	0.438942
C41	C	1.518416	-0.937553	0.506180
C42	C	1.792287	-0.303200	0.506137
C43	C	1.909064	-0.303203	0.506146
C44	C	1.518333	-0.303131	0.780149
C45	C	1.518366	-0.303105	0.896926
C46	C	1.518417	-0.139001	0.506192
C47	C	1.518486	-0.069033	0.506224
C48	C	1.518236	-0.303206	0.233148
C49	C	1.518406	-0.303055	0.116372
C50	C	1.585607	-0.262839	0.951813
C51	C	1.585625	-0.262812	1.061537
C52	C	1.451157	-0.343322	1.061477
C53	C	1.451135	-0.343346	0.951754
H54	H	0.919273	-0.376328	0.627821
H55	H	1.396423	-0.376086	1.106132
O56	O	1.650793	-0.223630	1.114899
C57	C	1.665039	-0.138631	1.238853
C58	C	1.591117	-0.182961	1.178472
H59	H	1.616822	-0.105749	1.290283
H60	H	1.713061	-0.109830	1.180858
H61	H	1.719977	-0.167533	1.290177
H62	H	1.536116	-0.154109	1.127147
H63	H	1.543169	-0.211764	1.236523
O64	O	1.650688	-0.667183	0.638536
C65	C	1.792625	-0.741286	0.652806
C66	C	1.718706	-0.705179	0.578865
H67	H	1.847651	-0.772005	0.604591
H68	H	1.744446	-0.772108	0.707695
H69	H	1.840552	-0.706435	0.700879
H70	H	1.670763	-0.739985	0.530723
H71	H	1.766946	-0.674348	0.524045
O72	O	1.126780	-0.223709	0.373798
C73	C	1.115206	-0.143723	0.240804
C74	C	1.054905	-0.188068	0.314629
H75	H	1.057122	-0.114886	0.192962
H76	H	1.166498	-0.172552	0.185704
H77	H	1.166653	-0.110869	0.289155
H78	H	1.003402	-0.220931	0.266362
H79	H	1.003679	-0.159200	0.369732
H80	H	1.396372	-0.376135	0.907064
O81	O	1.385722	-0.537884	0.373404
C82	C	1.252459	-0.544957	0.240046
C83	C	1.326360	-0.581010	0.314079
H84	H	1.204430	-0.579809	0.192078
H85	H	1.300654	-0.514198	0.185074
H86	H	1.197528	-0.514167	0.288243
H87	H	1.381306	-0.611834	0.265967
H88	H	1.278100	-0.611730	0.369055
H89	H	1.640260	-0.943533	0.628191
H90	H	1.640348	-0.230071	0.907175
H91	H	0.919245	-0.230073	0.384477
H92	H	1.396639	-1.063054	0.384216
O93	O	1.650928	-1.068026	0.638650
C94	C	1.792851	-1.142140	0.652911
C95	C	1.718936	-1.106026	0.578975
H96	H	1.847868	-1.172862	0.604693
H97	H	1.744666	-1.172959	0.707801
H98	H	1.840786	-1.107293	0.700985
H99	H	1.670984	-1.140828	0.530833
H100	H	1.767180	-1.075197	0.524155
H101	H	1.118320	-0.376325	0.627785
O102	O	1.650590	-0.537612	0.638740
C103	C	1.783868	-0.544416	0.772095
C104	C	1.710005	-0.580618	0.698084
H105	H	1.831940	-0.579172	0.820078
H106	H	1.735640	-0.513656	0.827055
H107	H	1.838761	-0.513613	0.723881
H108	H	1.655097	-0.611456	0.746214
H109	H	1.758298	-0.611339	0.643121
H110	H	1.396395	-0.662216	0.384106
H111	H	1.396571	-0.943785	0.384176
