data_functionalizedCrystal
_audit_creation_method	'MofGen! by Chris Wilmer'
_symmetry_space_group_name_H-M	'P1'
_symmetry_Int_Tables_number	1
_symmetry_cell_setting	triclinic
loop_
_symmetry_equiv_pos_as_xyz
  x,y,z
_cell_length_a	10.654550
_cell_length_b	11.026607
_cell_length_c	9.730223
_cell_angle_alpha	89.997552
_cell_angle_beta	89.999957
_cell_angle_gamma	96.535474
loop_
_atom_site_label
_atom_site_type_symbol
_atom_site_fract_x
_atom_site_fract_y
_atom_site_fract_z
O1	O	1.704907	0.170767	-0.114181
O2	O	1.342961	0.187037	-0.114206
O3	O	1.493936	0.001997	-0.114190
O4	O	1.553932	0.355808	-0.114196
O5	O	1.493923	0.001991	0.114390
O6	O	1.342947	0.187032	0.114374
O7	O	1.704894	0.170762	0.114399
Zn8	Zn	1.523918	0.178896	0.150679
Zn9	Zn	1.523936	0.178903	-0.150485
O10	O	1.553918	0.355803	0.114384
C11	C	1.295897	0.185840	0.000081
C12	C	1.155678	0.182266	0.000072
C13	C	1.099841	0.291214	0.000074
C14	C	0.968090	0.287849	0.000098
C15	C	0.948022	0.066576	0.000112
C16	C	1.079771	0.069943	0.000098
C17	C	1.482861	-0.043310	0.000097
C18	C	1.449867	-0.178302	0.000090
C19	C	1.540970	-0.251341	0.000094
C20	C	1.506871	-0.390862	0.000087
C21	C	1.751958	0.171959	0.000109
C22	C	1.892177	0.175533	0.000110
C23	C	1.564993	0.401109	0.000093
C24	C	1.597988	0.536101	0.000091
N25	N	1.523915	0.178891	0.356215
N26	N	1.523947	0.178899	-0.356022
C27	C	1.590804	0.096990	0.428148
C28	C	1.590817	0.096990	0.572031
C29	C	1.457050	0.260803	0.572036
C30	C	1.457031	0.260796	0.428155
H31	H	1.125232	-0.018782	0.000100
H32	H	1.161641	0.382675	0.000063
H33	H	0.922635	0.376566	0.000102
H34	H	1.644212	-0.210580	0.000110
H35	H	1.403623	-0.431617	0.000071
C36	C	1.384595	0.349923	0.350121
C37	C	1.432027	0.469588	0.385070
C38	C	1.365341	0.551716	0.313200
H39	H	1.297616	0.336128	0.373656
H40	H	1.394184	0.338268	0.254115
H41	H	1.422427	0.481238	0.481055
H42	H	1.518997	0.483421	0.361532
H43	H	1.374930	0.540061	0.217193
H44	H	1.278366	0.537910	0.336740
H45	H	1.397522	0.632917	0.336893
H46	H	0.886203	-0.024873	0.000141
H47	H	1.346625	-0.219062	0.000074
C48	C	1.735587	-0.409338	0.000169
C49	C	1.742058	-0.281802	0.000206
C50	C	1.868789	-0.231499	0.000294
H51	H	1.776428	-0.435490	-0.079517
H52	H	1.776320	-0.435564	0.079915
H53	H	1.701342	-0.255587	-0.079532
H54	H	1.701243	-0.255616	0.079886
H55	H	1.909522	-0.257725	0.080040
H56	H	1.909620	-0.257659	-0.079394
H57	H	1.873197	-0.144961	0.000332
C58	C	1.663433	0.007922	0.350288
C59	C	1.721984	-0.063825	0.444087
C60	C	1.788885	-0.145903	0.372418
H61	H	1.725780	0.051984	0.294141
H62	H	1.606737	-0.043167	0.294204
H63	H	1.778675	-0.012743	0.500148
H64	H	1.659666	-0.107913	0.500237
H65	H	1.732189	-0.196992	0.316334
H66	H	1.851225	-0.101832	0.316274
H67	H	1.828610	-0.194601	0.436050
H68	H	1.645282	0.030298	0.630594
H69	H	1.402596	0.327491	0.630624
