data_functionalizedCrystal
_audit_creation_method	'MofGen! by Chris Wilmer'
_symmetry_space_group_name_H-M	'P1'
_symmetry_Int_Tables_number	1
_symmetry_cell_setting	triclinic
loop_
_symmetry_equiv_pos_as_xyz
  x,y,z
_cell_length_a	13.033615
_cell_length_b	13.033293
_cell_length_c	17.077396
_cell_angle_alpha	97.208897
_cell_angle_beta	82.799596
_cell_angle_gamma	76.684996
loop_
_atom_site_label
_atom_site_type_symbol
_atom_site_fract_x
_atom_site_fract_y
_atom_site_fract_z
Zn1	Zn	0.216819	1.570258	0.573233
Zn2	Zn	0.394458	1.547622	0.422871
Zn3	Zn	0.239392	1.392629	0.422855
Zn4	Zn	0.416919	1.370088	0.534988
O5	O	0.316897	1.470149	0.488487
O6	O	0.221537	1.715893	0.569300
O7	O	0.373934	1.527022	0.313014
O8	O	0.087759	1.435098	0.458801
O9	O	0.352047	1.699262	0.458830
O10	O	0.071176	1.565602	0.569284
O11	O	0.260008	1.413149	0.313002
O12	O	0.281788	1.241002	0.421717
O13	O	0.390329	1.396681	0.649917
O14	O	0.412217	1.224441	0.504101
O15	O	0.243317	1.543745	0.678015
O16	O	0.546075	1.505165	0.421746
O17	O	0.562578	1.374732	0.504117
C18	C	0.351890	1.194181	0.458758
C19	C	0.366886	1.076118	0.446055
C20	C	0.039850	1.505389	0.518307
C21	C	-0.078211	1.520407	0.531014
C22	C	0.309097	1.031697	0.495113
C23	C	0.324595	0.909672	0.481986
C24	C	-0.122641	1.462531	0.482015
C25	C	-0.244663	1.478051	0.495147
C26	C	0.592863	1.435075	0.458803
C27	C	0.710910	1.420168	0.446141
C28	C	0.316811	1.470224	0.693247
C29	C	0.316774	1.470255	0.780503
C30	C	0.281768	1.747195	0.518333
C31	C	0.266799	1.865255	0.531051
C32	C	0.316899	1.470146	0.284539
C33	C	0.316610	1.470358	0.197337
C34	C	0.240218	1.546835	0.836126
C35	C	0.240182	1.546852	0.918112
C36	C	0.316705	1.470294	0.944473
C37	C	0.393265	1.393706	0.888843
C38	C	0.393296	1.393685	0.806859
C39	C	0.393195	1.393757	1.059724
C40	C	0.393166	1.393779	1.141714
C41	C	0.240081	1.546924	1.170977
C42	C	0.240112	1.546903	1.088993
C43	C	0.316673	1.470316	1.033369
H44	H	0.248146	1.084005	0.546830
O45	O	-0.060135	1.389644	0.420459
C46	C	0.083382	1.230365	0.381053
C47	C	0.012689	1.312850	0.450840
H48	H	0.142262	1.168244	0.405591
H49	H	0.129230	1.272492	0.339708
H50	H	0.030927	1.189255	0.346191
H51	H	0.065065	1.353986	0.485763
H52	H	-0.033167	1.270665	0.492128
H53	H	0.455476	1.331436	1.163174
H54	H	0.177907	1.609180	0.814670
H55	H	0.455626	1.331317	0.761570
O56	O	0.194147	0.927519	0.592849
C57	C	0.138536	0.968306	0.735617
C58	C	0.220872	0.897704	0.665707
H59	H	0.160126	0.944242	0.794540
H60	H	0.055598	0.957407	0.728889
H61	H	0.138971	1.055601	0.735174
H62	H	0.220533	0.810384	0.666108
H63	H	0.303772	0.908695	0.672461
O64	O	0.439586	1.013565	0.384413
C65	C	0.521242	0.834922	0.315078
C66	C	0.438887	0.905631	0.384931
H67	H	0.520689	0.747646	0.315464
H68	H	0.604201	0.845715	0.321862
H69	H	0.499750	0.859075	0.256155
H70	H	0.460279	0.881523	0.443886
H71	H	0.355951	0.894830	0.378077
H72	H	0.385544	0.857368	0.430262
O73	O	-0.307201	1.550863	0.556738
C74	C	-0.485831	1.632636	0.626030
C75	C	-0.415135	1.550161	0.556239
H76	H	-0.573107	1.632080	0.625659
H77	H	-0.475023	1.715566	0.619157
H78	H	-0.461682	1.611264	0.684982
H79	H	-0.439239	1.571434	0.497254
H80	H	-0.425951	1.467254	0.563182
H81	H	0.455525	1.331378	1.014436
H82	H	-0.236795	1.359118	0.394469
O83	O	-0.140753	1.593214	0.592601
C84	C	-0.319382	1.674987	0.661893
C85	C	-0.248686	1.592513	0.592102
H86	H	-0.406658	1.674432	0.661522
H87	H	-0.308574	1.757918	0.655020
H88	H	-0.295233	1.653615	0.720845
H89	H	-0.272790	1.613785	0.533117
H90	H	-0.259502	1.509605	0.599045
O91	O	0.165773	1.621349	0.972037
C92	C	0.013906	1.773214	0.992410
C93	C	0.098132	1.688919	0.931254
H94	H	-0.040817	1.827852	0.959461
H95	H	0.055559	1.822633	1.031522
H96	H	-0.035424	1.731506	1.031530
H97	H	0.147489	1.730540	0.892081
H98	H	0.056414	1.639505	0.892199
O99	O	0.165743	1.621205	1.225113
C100	C	0.097861	1.689130	1.364385
C101	C	0.182090	1.604938	1.303159
H102	H	0.111063	1.676021	1.427498
H103	H	0.014567	1.681361	1.355525
H104	H	0.105642	1.772396	1.355450
H105	H	0.174408	1.521635	1.312057
H106	H	0.265351	1.612801	1.312035
H107	H	0.177805	1.609249	1.067534
H108	H	0.455568	1.331368	0.910312
