data_functionalizedCrystal
_audit_creation_method	'MofGen! by Chris Wilmer'
_symmetry_space_group_name_H-M	'P1'
_symmetry_Int_Tables_number	1
_symmetry_cell_setting	triclinic
loop_
_symmetry_equiv_pos_as_xyz
  x,y,z
_cell_length_a	23.532407
_cell_length_b	19.288864
_cell_length_c	18.366186
_cell_angle_alpha	90.022894
_cell_angle_beta	89.989089
_cell_angle_gamma	97.007539
loop_
_atom_site_label
_atom_site_type_symbol
_atom_site_fract_x
_atom_site_fract_y
_atom_site_fract_z
O1	O	0.071045	-0.921134	-0.060790
O2	O	0.080629	-0.718843	-0.060742
O3	O	-0.007082	-0.826089	-0.060754
O4	O	0.158756	-0.813889	-0.060778
O5	O	-0.007086	-0.826071	0.060345
O6	O	0.080625	-0.718825	0.060358
O7	O	0.071041	-0.921116	0.060309
Zn8	Zn	0.075832	-0.819968	0.079560
Zn9	Zn	0.075838	-0.819991	-0.079993
O10	O	0.158752	-0.813870	0.060321
C11	C	0.080319	-0.692959	-0.000186
C12	C	0.079393	-0.615858	-0.000166
C13	C	-0.028301	-0.825769	-0.000203
C14	C	-0.091520	-0.824835	-0.000197
C15	C	0.071351	-0.947000	-0.000249
C16	C	0.072277	-1.024101	-0.000273
C17	C	-0.490503	-0.882442	-0.000251
C18	C	-0.549905	-0.881574	-0.000256
O19	O	-0.586539	-0.934976	-0.000296
N20	N	-0.572664	-0.817817	-0.000240
C21	C	-0.536017	-0.754923	-0.000226
O22	O	-0.560829	-0.700613	-0.000214
C23	C	-0.476616	-0.755792	-0.000226
C24	C	-0.453861	-0.819553	-0.000235
C25	C	-0.467748	-0.946198	-0.000260
C26	C	-0.408350	-0.947065	-0.000253
C27	C	-0.371707	-0.884177	-0.000237
C28	C	-0.394463	-0.820420	-0.000228
C29	C	-0.439970	-0.692899	-0.000217
C30	C	-0.380565	-0.693773	-0.000218
C31	C	-0.357810	-0.757534	-0.000226
C32	C	-0.298422	-0.758399	-0.000205
N33	N	-0.275664	-0.822156	-0.000221
C34	C	-0.312307	-0.885045	-0.000237
C35	C	-0.660763	-0.753104	-0.000228
C36	C	-0.720163	-0.752235	-0.000223
C37	C	-0.734047	-0.878886	-0.000254
C38	C	-0.674647	-0.879755	-0.000254
C39	C	-0.638005	-0.816861	-0.000244
C40	C	-0.187566	-0.886862	-0.000222
C41	C	-0.128162	-0.887724	-0.000213
C42	C	-0.114283	-0.761073	-0.000185
C43	C	-0.173681	-0.760211	-0.000191
C44	C	-0.210322	-0.823111	-0.000212
O45	O	-0.261754	-0.705025	-0.000168
O46	O	-0.287486	-0.939346	-0.000259
C47	C	0.179971	-0.814190	-0.000232
C48	C	0.243190	-0.815124	-0.000242
N49	N	0.075828	-0.819956	0.188452
C50	C	0.130858	-0.571003	-0.000185
C51	C	0.129988	-0.498559	-0.000193
C52	C	0.077651	-0.470973	-0.000197
C53	C	0.026179	-0.515838	-0.000174
C54	C	0.027050	-0.588280	-0.000159
C55	C	0.036509	-0.362844	-0.042642
C56	C	0.035640	-0.290402	-0.042662
C57	C	0.074961	-0.247535	-0.000240
C58	C	0.115162	-0.277118	0.042191
C59	C	0.116033	-0.349561	0.042206
C60	C	0.076700	-0.392422	-0.000213
C61	C	0.125487	-0.124127	-0.000267
C62	C	0.124615	-0.051682	-0.000270
C63	C	0.020805	-0.068962	-0.000258
C64	C	0.021678	-0.141406	-0.000248
C65	C	0.074021	-0.168984	-0.000255
N66	N	0.075837	-0.820008	-0.188884
C67	C	0.037009	-0.867460	0.226546
C68	C	0.037006	-0.867464	0.302774
C69	C	0.075833	-0.819972	0.340904
C70	C	0.114655	-0.772459	0.302800
C71	C	0.114653	-0.772452	0.226574
C72	C	0.127724	-0.810514	0.461659
C73	C	0.127727	-0.810526	0.537884
C74	C	0.075840	-0.819991	0.576012
C75	C	0.023947	-0.829459	0.537906
C76	C	0.023945	-0.829451	0.461679
C77	C	0.075839	-0.819975	0.423559
C78	C	0.037014	-0.867502	0.696762
C79	C	0.037011	-0.867502	0.772991
C80	C	0.114665	-0.772500	0.773015
C81	C	0.114663	-0.772497	0.696788
C82	C	0.075839	-0.820002	0.658665
H83	H	-0.109639	-0.939648	-0.000218
H84	H	0.146276	-0.733828	0.804060
H85	H	0.146267	-0.733789	0.333850
H86	H	-0.192209	-0.708291	-0.000164
O87	O	-0.030073	-0.042258	-0.000358
C88	C	-0.119048	-0.034863	-0.063111
C89	C	-0.061453	-0.065168	-0.063083
H90	H	-0.144430	-0.053362	-0.113826
H91	H	-0.144512	-0.053361	-0.012459
H92	H	-0.110818	0.024618	-0.063087
H93	H	-0.069630	-0.124650	-0.063133
H94	H	-0.036007	-0.046616	-0.113730
O95	O	-0.024697	-0.489126	-0.000277
C96	C	-0.113671	-0.481731	-0.063032
C97	C	-0.056078	-0.512040	-0.063001
H98	H	-0.139053	-0.500232	-0.113747
H99	H	-0.139136	-0.500223	-0.012380
H100	H	-0.105439	-0.422249	-0.063014
H101	H	-0.064257	-0.571521	-0.063045
H102	H	-0.030631	-0.493493	-0.113649
O103	O	0.174663	-0.008206	-0.000319
C104	C	0.277719	0.001285	-0.000298
C105	C	0.221082	-0.048031	-0.000260
H106	H	0.315263	-0.030894	-0.000234
H107	H	0.279945	0.035595	-0.050995
H108	H	0.279876	0.035673	0.050365
H109	H	0.218887	-0.082463	-0.050888
H110	H	0.218880	-0.082293	0.050471
H111	H	-0.763893	-0.930094	-0.000269
H112	H	0.146265	-0.733768	0.195556
H113	H	0.004488	-0.397741	-0.077191
O114	O	-0.078707	-0.699966	-0.000045
C115	C	-0.048684	-0.591948	0.062676
C116	C	-0.088997	-0.661133	0.062626
H117	H	-0.056997	-0.560526	0.113333
H118	H	-0.002309	-0.603484	0.062721
H119	H	-0.056927	-0.560594	0.011975
H120	H	-0.080805	-0.692522	0.113318
H121	H	-0.135358	-0.649548	0.062543
H122	H	0.005397	-0.906183	0.804008
O123	O	-0.000783	-0.913580	0.339713
C124	C	-0.099894	-0.954944	0.363095
C125	C	-0.057161	-0.902693	0.321205
H126	H	-0.145485	-0.946150	0.348158
H127	H	-0.092636	-1.010538	0.348068
H128	H	-0.093190	-0.946793	0.424120
H129	H	-0.063839	-0.910780	0.260171
H130	H	-0.064429	-0.847118	0.336293
H131	H	0.173479	-0.593452	-0.000193
H132	H	-0.020230	-0.177928	-0.000236
O133	O	-0.625228	-0.691960	-0.000304
C134	C	-0.595162	-0.583999	-0.063032
C135	C	-0.635441	-0.653210	-0.063026
H136	H	-0.603396	-0.552657	-0.113745
H137	H	-0.603435	-0.552550	-0.012378
H138	H	-0.548800	-0.595578	-0.062998
H139	H	-0.681818	-0.641694	-0.063085
H140	H	-0.627118	-0.684639	-0.113676
H141	H	0.002909	-0.266322	-0.077215
O142	O	0.176315	-0.150957	-0.000391
C143	C	0.237534	-0.222791	-0.063091
C144	C	0.179959	-0.192442	-0.063052
H145	H	0.240494	-0.256350	-0.113739
H146	H	0.274194	-0.178314	-0.063144
H147	H	0.240521	-0.256219	-0.012381
H148	H	0.176915	-0.159022	-0.113753
H149	H	0.143326	-0.236952	-0.062961
O150	O	-0.026451	-0.838530	0.574961
C151	C	-0.088041	-0.790035	0.661087
C152	C	-0.030955	-0.779661	0.619154
H153	H	-0.091696	-0.742454	0.696839
H154	H	-0.125147	-0.796759	0.620786
H155	H	-0.089524	-0.838604	0.696718
H156	H	-0.029416	-0.731090	0.583522
H157	H	0.006125	-0.772978	0.659494
H158	H	0.005399	-0.906182	0.665721
O159	O	-0.223072	-0.948026	-0.000208
C160	C	-0.230559	-1.073736	-0.000272
C161	C	-0.190284	-1.004522	-0.000278
H162	H	-0.204066	-1.119431	-0.000344
H163	H	-0.258715	-1.076540	0.050417
H164	H	-0.258719	-1.076474	-0.050943
H165	H	-0.162088	-1.001737	0.050359
H166	H	-0.162167	-1.001747	-0.051000
O167	O	0.178183	-0.801292	0.574783
C168	C	0.281118	-0.782545	0.566715
C169	C	0.224017	-0.792979	0.524838
H170	H	0.318190	-0.775836	0.526353
H171	H	0.282645	-0.733986	0.602410
H172	H	0.284790	-0.830143	0.602393
H173	H	0.220308	-0.745420	0.489121
H174	H	0.222515	-0.841565	0.489189
H175	H	-0.014860	-0.624802	-0.000144
O176	O	-0.026511	-0.838619	0.424776
C177	C	-0.129445	-0.857431	0.432832
C178	C	-0.072346	-0.847044	0.474716
H179	H	-0.166518	-0.864260	0.473190
H180	H	-0.133180	-0.809822	0.397193
H181	H	-0.130905	-0.905955	0.397098
H182	H	-0.070847	-0.798546	0.510490
H183	H	-0.068634	-0.894690	0.510309
H184	H	0.005394	-0.906139	0.195509
O185	O	-0.386345	-1.009065	-0.000300
C186	C	-0.406408	-1.134592	-0.000291
C187	C	-0.431399	-1.064423	-0.000253
H188	H	-0.442822	-1.179367	-0.000238
H189	H	-0.378960	-1.138224	-0.050983
H190	H	-0.378935	-1.138127	0.050377
H191	H	-0.458898	-1.060841	-0.050886
H192	H	-0.458815	-1.060821	0.050473
H193	H	-0.738684	-0.700314	-0.000203
O194	O	-0.462035	-0.630941	-0.000343
C195	C	-0.468276	-0.522423	-0.063053
C196	C	-0.443263	-0.592577	-0.063007
H197	H	-0.453099	-0.491379	-0.113703
H198	H	-0.517029	-0.532547	-0.063105
H199	H	-0.453186	-0.491385	-0.012346
H200	H	-0.458310	-0.623651	-0.113705
H201	H	-0.394513	-0.582403	-0.062917
H202	H	0.169979	-0.802794	0.430621
O203	O	0.152433	-0.726331	0.659891
C204	C	0.229431	-0.632077	0.667962
C205	C	0.186697	-0.684338	0.709837
H206	H	0.257137	-0.598103	0.708326
H207	H	0.257858	-0.661827	0.632271
H208	H	0.204903	-0.597579	0.632280
H209	H	0.211179	-0.718850	0.745559
H210	H	0.158270	-0.654545	0.745483
O211	O	-0.344948	-0.632695	-0.000335
C212	C	-0.269790	-0.560198	-0.063031
C213	C	-0.310101	-0.629385	-0.063000
H214	H	-0.241598	-0.557506	-0.113682
H215	H	-0.296233	-0.514455	-0.063072
H216	H	-0.241669	-0.557435	-0.012325
H217	H	-0.338231	-0.632216	-0.113697
H218	H	-0.283624	-0.675095	-0.062921
O219	O	0.153418	-0.235585	0.083422
C220	C	0.232360	-0.230063	0.167623
C221	C	0.189077	-0.277181	0.120954
H222	H	0.261194	-0.263675	0.197991
H223	H	0.259590	-0.191583	0.130937
H224	H	0.208306	-0.200044	0.208531
H225	H	0.213085	-0.307245	0.080040
H226	H	0.161848	-0.315617	0.157685
O227	O	0.180036	-0.455075	-0.000250
C228	C	0.283092	-0.445575	-0.000240
C229	C	0.226456	-0.494896	-0.000189
H230	H	0.320638	-0.477751	-0.000175
H231	H	0.285312	-0.411273	-0.050942
H232	H	0.285250	-0.411181	0.050418
H233	H	0.224260	-0.529335	-0.050812
H234	H	0.224260	-0.529151	0.050547
H235	H	-0.656124	-0.931675	-0.000261
O236	O	-0.503360	-1.007276	-0.000403
C237	C	-0.578491	-1.079814	-0.063127
C238	C	-0.538189	-1.010620	-0.063071
H239	H	-0.606669	-1.082534	-0.113781
H240	H	-0.552040	-1.125551	-0.063182
H241	H	-0.606627	-1.082562	-0.012423
H242	H	-0.510045	-1.007804	-0.113766
H243	H	-0.564674	-0.964916	-0.062978
O244	O	0.154999	-0.378386	0.083473
C245	C	0.170411	-0.457688	0.180833
C246	C	0.126224	-0.425109	0.134135
H247	H	0.147163	-0.495458	0.221815
H248	H	0.198411	-0.487082	0.144172
H249	H	0.198377	-0.414596	0.211117
H250	H	0.098219	-0.468157	0.103845
H251	H	0.098264	-0.395697	0.170834
