data_functionalizedCrystal
_audit_creation_method	'MofGen! by Chris Wilmer'
_symmetry_space_group_name_H-M	'P1'
_symmetry_Int_Tables_number	1
_symmetry_cell_setting	triclinic
loop_
_symmetry_equiv_pos_as_xyz
  x,y,z
_cell_length_a	27.732048
_cell_length_b	11.792241
_cell_length_c	10.268362
_cell_angle_alpha	90.005428
_cell_angle_beta	89.999089
_cell_angle_gamma	83.418035
loop_
_atom_site_label
_atom_site_type_symbol
_atom_site_fract_x
_atom_site_fract_y
_atom_site_fract_z
O1	O	-0.641711	-0.135041	-0.108133
O2	O	-0.501036	-0.155574	-0.108173
O3	O	-0.574787	0.019972	-0.108143
O4	O	-0.567960	-0.310587	-0.108163
O5	O	-0.574781	0.019979	0.108458
O6	O	-0.501030	-0.155567	0.108428
O7	O	-0.641704	-0.135034	0.108467
Cu8	Cu	-0.571366	-0.145300	0.128225
Cu9	Cu	-0.571374	-0.145308	-0.127930
O10	O	-0.567953	-0.310580	0.108438
C11	C	-0.483024	-0.155140	0.000123
C12	C	-0.429361	-0.153842	0.000108
C13	C	-0.574355	0.062253	0.000157
C14	C	-0.573071	0.188226	0.000155
C15	C	-0.659717	-0.135469	0.000169
C16	C	-0.713379	-0.136766	0.000175
C17	C	-0.091101	-0.249407	0.000158
C18	C	0.110587	-0.244592	0.000170
O19	O	0.141335	-0.331980	0.000221
N20	N	0.130315	-0.140500	0.000174
C21	C	0.099617	-0.037605	0.000184
O22	O	0.121024	0.051042	0.000201
C23	C	-0.102070	-0.042422	0.000181
C24	C	-0.121794	-0.146520	0.000164
C25	C	-0.110826	-0.353497	0.000143
C26	C	-0.161245	-0.354700	0.000133
C27	C	-0.191939	-0.251813	0.000138
C28	C	-0.172213	-0.147723	0.000154
C29	C	-0.132766	0.060472	0.000200
C30	C	-0.183191	0.059259	0.000203
C31	C	-0.202915	-0.044840	0.000186
C32	C	-0.253326	-0.046038	0.000150
N33	N	-0.273054	-0.150130	0.000146
C34	C	-0.242360	-0.253017	0.000140
C35	C	0.205506	-0.035084	0.000183
C36	C	0.255927	-0.033879	0.000181
C37	C	0.266894	-0.240866	0.000170
C38	C	0.216471	-0.242070	0.000162
C39	C	0.185778	-0.139175	0.000179
C40	C	-0.348244	-0.255535	0.000118
C41	C	-0.398668	-0.256729	0.000102
C42	C	-0.409630	-0.049742	0.000120
C43	C	-0.359210	-0.048548	0.000129
C44	C	-0.328518	-0.151454	0.000132
O45	O	-0.284103	0.041303	0.000113
O46	O	-0.263777	-0.341651	0.000152
C47	C	-0.040682	-0.248205	0.000169
C48	C	-0.020957	-0.144115	0.000184
C49	C	-0.051650	-0.041227	0.000190
C50	C	0.029465	-0.142910	0.000183
C51	C	0.060159	-0.245797	0.000177
C52	C	0.040431	-0.349889	0.000173
C53	C	-0.009988	-0.351092	0.000163
C54	C	-0.031923	0.062864	0.000194
C55	C	0.018497	0.064058	0.000203
C56	C	0.049191	-0.038829	0.000197
C57	C	-0.568385	-0.352861	0.000135
C58	C	-0.569669	-0.478834	0.000128
N59	N	-0.571365	-0.145293	0.308391
C60	C	-0.570711	0.418862	0.000133
C61	C	-0.572023	0.290519	0.000145
N62	N	-0.571380	-0.145306	-0.308096
C63	C	-0.571372	-0.145306	0.574062
C64	C	-0.571366	-0.145302	0.426224
H65	H	-0.414724	-0.341502	0.000087
H66	H	-0.323260	-0.339331	0.000124
H67	H	-0.056909	0.146649	0.000202
H68	H	-0.177300	-0.439467	0.000118
H69	H	0.034551	0.148834	0.000206
C70	C	-0.060310	-0.472552	-0.111219
C71	C	-0.031661	-0.465526	0.000137
H72	H	-0.073684	-0.543207	-0.111239
H73	H	-0.085811	-0.411471	-0.111203
H74	H	-0.040862	-0.467761	-0.186738
H75	H	-0.051111	-0.470308	0.075656
H76	H	-0.006157	-0.526624	0.000133
C77	C	0.232387	-0.446541	0.000152
C78	C	0.194792	-0.356497	0.000158
H79	H	0.219004	-0.517186	0.000160
H80	H	0.251822	-0.441765	-0.075380
H81	H	0.251826	-0.441749	0.075688
H82	H	0.175355	-0.361284	-0.075382
H83	H	0.175349	-0.361275	0.075698
H84	H	-0.085840	-0.437285	0.000143
C85	C	-0.082436	0.181912	0.111573
C86	C	-0.111091	0.174898	0.000224
H87	H	-0.069053	0.252556	0.111581
H88	H	-0.101880	0.177135	0.187088
H89	H	-0.056937	0.120810	0.111550
H90	H	-0.136592	0.235996	0.000252
H91	H	-0.091646	0.179687	-0.075311
H92	H	0.291893	-0.324641	0.000166
C93	C	0.240010	0.170594	0.000201
C94	C	0.277605	0.080549	0.000188
H95	H	0.253393	0.241238	0.000219
H96	H	0.220575	0.165814	-0.075329
H97	H	0.220571	0.165804	0.075738
H98	H	0.297042	0.085333	-0.075354
H99	H	0.297048	0.085330	0.075726
H100	H	-0.208179	0.143050	0.000217
H101	H	0.180519	0.048710	0.000196
C102	C	-0.375117	0.155929	0.000130
C103	C	-0.337526	0.065877	0.000134
H104	H	-0.361732	0.226569	0.000148
H105	H	-0.394549	0.151150	-0.075406
H106	H	-0.394560	0.151147	0.075661
H107	H	-0.318085	0.070653	-0.075402
H108	H	-0.318086	0.070658	0.075678
C109	C	0.122596	-0.439930	0.000186
C110	C	0.074176	-0.462985	0.000172
H111	H	0.143430	-0.509747	0.000198
H112	H	0.128603	-0.397221	-0.075341
H113	H	0.128595	-0.397199	0.075726
H114	H	0.068177	-0.505709	-0.075374
H115	H	0.068167	-0.505712	0.075707
H116	H	-0.434629	0.034026	0.000120
