data_functionalizedCrystal
_audit_creation_method	'MofGen! by Chris Wilmer'
_symmetry_space_group_name_H-M	'P1'
_symmetry_Int_Tables_number	1
_symmetry_cell_setting	triclinic
loop_
_symmetry_equiv_pos_as_xyz
  x,y,z
_cell_length_a	14.853566
_cell_length_b	23.532407
_cell_length_c	13.330367
_cell_angle_alpha	89.990692
_cell_angle_beta	89.995295
_cell_angle_gamma	83.241546
loop_
_atom_site_label
_atom_site_type_symbol
_atom_site_fract_x
_atom_site_fract_y
_atom_site_fract_z
O1	O	1.195556	0.074349	-0.083368
O2	O	0.933000	0.083207	-0.083386
O3	O	1.072195	-0.004119	-0.083358
O4	O	1.056361	0.161675	-0.083396
O5	O	1.072175	-0.004121	0.083489
O6	O	0.932980	0.083205	0.083461
O7	O	1.195536	0.074347	0.083479
Cu8	Cu	1.064256	0.078776	0.098705
Cu9	Cu	1.064280	0.078778	-0.098611
O10	O	1.056341	0.161673	0.083451
C11	C	0.899405	0.082805	0.000036
C12	C	0.799335	0.081603	0.000030
C13	C	0.376216	0.076518	-0.090900
C14	C	0.376216	0.076516	0.091003
C15	C	0.470238	0.077646	0.091000
C16	C	0.517253	0.078212	0.000045
C17	C	0.470247	0.077649	-0.090906
C18	C	0.517250	0.078214	0.181950
C19	C	0.611277	0.079344	0.181950
C20	C	0.658295	0.079906	0.090994
C21	C	0.611283	0.079343	0.000039
C22	C	0.658298	0.079909	-0.090915
C23	C	0.611289	0.079342	-0.181871
C24	C	0.517264	0.078211	-0.181862
C25	C	0.752320	0.081036	0.090985
C26	C	0.752328	0.081040	-0.090921
C27	C	1.071782	-0.025338	0.000068
C28	C	1.070570	-0.088560	0.000076
C29	C	1.145339	-0.487337	0.000026
C30	C	1.144213	-0.546742	0.000018
O31	O	1.213524	-0.583184	-0.000014
N32	N	1.061461	-0.569729	0.000013
C33	C	0.979830	-0.533308	0.000006
O34	O	0.909340	-0.558315	0.000000
C35	C	0.980957	-0.473904	0.000006
C36	C	1.063714	-0.450920	0.000022
C37	C	1.228089	-0.464353	0.000040
C38	C	1.229215	-0.404952	0.000049
C39	C	1.147591	-0.368535	0.000045
C40	C	1.064840	-0.391519	0.000031
C41	C	0.899327	-0.437483	-0.000008
C42	C	0.900462	-0.378076	-0.000008
C43	C	0.983219	-0.355092	0.000007
C44	C	0.984341	-0.295701	0.000036
N45	N	1.067093	-0.272714	0.000041
C46	C	1.148718	-0.309131	0.000046
C47	C	0.977469	-0.658060	0.000003
C48	C	0.976341	-0.717463	0.000010
C49	C	1.140724	-0.730894	0.000020
C50	C	1.141851	-0.671490	0.000021
C51	C	1.060221	-0.635073	0.000008
C52	C	1.151076	-0.184384	0.000067
C53	C	1.152194	-0.124977	0.000080
C54	C	0.987812	-0.111552	0.000065
C55	C	0.986693	-0.170953	0.000056
C56	C	1.068332	-0.207369	0.000054
O57	O	0.915066	-0.259224	0.000065
O58	O	1.219196	-0.284115	0.000038
C59	C	1.229131	0.074750	0.000056
C60	C	1.329201	0.075952	0.000055
C61	C	1.056754	0.182892	0.000023
C62	C	1.057966	0.246115	0.000009
N63	N	1.064246	0.078774	0.237486
N64	N	1.064297	0.078776	-0.237393
C65	C	1.002642	0.117431	0.710097
C66	C	1.125943	0.040121	0.710090
C67	C	1.125932	0.040119	0.605071
C68	C	1.064277	0.078775	0.552561
C69	C	1.002631	0.117432	0.605069
C70	C	1.187583	0.001467	0.552555
C71	C	1.187576	0.001464	0.447531
C72	C	1.125915	0.040117	0.395018
C73	C	1.064266	0.078775	0.447533
C74	C	1.002611	0.117431	0.395022
C75	C	0.940957	0.156087	0.447535
C76	C	0.940971	0.156085	0.552557
C77	C	1.125902	0.040119	0.289997
C78	C	1.002601	0.117431	0.289994
H79	H	0.790602	0.081499	-0.164989
N80	N	1.250558	-0.038023	0.606176
N81	N	1.305596	-0.072534	0.559282
H82	H	1.350074	-0.100427	0.597154
H83	H	0.952390	0.148907	0.247247
N84	N	0.328217	0.075944	-0.183814
N85	N	0.370209	0.076451	-0.265013
H86	H	0.336310	0.076046	-0.330636
N87	N	0.659303	0.079926	-0.274786
N88	N	0.640132	0.119910	-0.335697
H89	H	0.674044	0.120324	-0.401317
H90	H	1.237776	-0.030012	0.404781
H91	H	1.209239	-0.652781	0.000032
N92	N	1.188871	0.000618	0.236397
N93	N	1.244696	0.018710	0.177772
H94	H	1.289171	-0.009200	0.139937
H95	H	0.890760	0.187563	0.404769
H96	H	0.833987	-0.348428	-0.000020
H97	H	0.337930	0.076059	0.165055
H98	H	0.478981	0.077749	-0.255913
N99	N	0.469213	0.077637	0.274842
N100	N	0.385264	0.076622	0.274830
H101	H	0.351333	0.076212	0.340439
H102	H	0.649545	0.079805	0.256012
N103	N	0.800320	0.081634	0.183890
N104	N	0.758329	0.081142	0.265092
H105	H	0.792227	0.081569	0.330713
H106	H	0.890775	0.187558	0.595319
N107	N	0.939655	0.156907	0.763732
N108	N	0.883864	0.138768	0.822344
H109	H	0.839377	0.166647	0.860226
N110	N	1.236741	-0.101510	0.000104
N111	N	1.309612	-0.134036	0.000107
H112	H	1.369322	-0.117465	0.000124
H113	H	0.910992	-0.628413	0.000001
N114	N	1.234475	-0.221567	0.000061
N115	N	1.308348	-0.201028	0.000074
H116	H	1.367249	-0.227288	0.000076
H117	H	0.831938	-0.456186	-0.000026
N118	N	1.313758	-0.381489	0.000061
N119	N	1.386624	-0.414020	0.000061
H120	H	1.446338	-0.397453	0.000065
H121	H	1.176145	0.008652	0.752847
H122	H	1.294562	-0.493998	0.000040
H123	H	1.207187	-0.760555	0.000020
H124	H	0.908952	-0.736171	0.000015
H125	H	0.919305	-0.189667	0.000072
H126	H	0.921355	-0.081891	0.000065
