data_functionalizedCrystal
_audit_creation_method	'MofGen! by Chris Wilmer'
_symmetry_space_group_name_H-M	'P1'
_symmetry_Int_Tables_number	1
_symmetry_cell_setting	triclinic
loop_
_symmetry_equiv_pos_as_xyz
  x,y,z
_cell_length_a	12.759401
_cell_length_b	12.759400
_cell_length_c	12.759401
_cell_angle_alpha	90.008263
_cell_angle_beta	90.001415
_cell_angle_gamma	90.013087
loop_
_atom_site_label
_atom_site_type_symbol
_atom_site_fract_x
_atom_site_fract_y
_atom_site_fract_z
Zn1	Zn	1.606080	-0.418437	0.594014
Zn2	Zn	1.606034	-0.594087	0.418338
Zn3	Zn	1.430437	-0.418423	0.418351
Zn4	Zn	1.430375	-0.594074	0.593977
O5	O	1.518232	-0.506255	0.506170
O6	O	1.753095	-0.441748	0.570721
O7	O	1.582748	-0.570785	0.271319
O8	O	1.453782	-0.271404	0.441675
O9	O	1.753061	-0.570798	0.441652
O10	O	1.582826	-0.271414	0.570734
O11	O	1.453737	-0.441725	0.271329
O12	O	1.283408	-0.441712	0.441638
O13	O	1.453676	-0.570775	0.741003
O14	O	1.283363	-0.570762	0.570669
O15	O	1.582766	-0.441735	0.741030
O16	O	1.582688	-0.741107	0.441616
O17	O	1.453632	-0.741097	0.570657
C18	C	1.245264	-0.506235	0.506152
C19	C	1.128488	-0.506251	0.506169
C20	C	0.963894	-0.438986	0.439113
C21	C	1.073618	-0.438966	0.439101
C22	C	1.073628	-0.573553	0.573260
C23	C	0.963906	-0.573567	0.573277
C24	C	0.963889	-0.361287	0.361655
C25	C	1.073613	-0.361267	0.361642
C26	C	1.518177	-0.779222	0.506154
C27	C	1.518249	-0.895999	0.506182
C28	C	1.585409	-0.950787	0.573438
C29	C	1.585458	-1.060511	0.573463
C30	C	1.451184	-1.060650	0.438968
C31	C	1.451131	-0.950928	0.438948
C32	C	1.662934	-0.950707	0.651085
C33	C	1.662983	-1.060431	0.651110
C34	C	1.792265	-0.506276	0.506189
C35	C	1.909042	-0.506286	0.506198
C36	C	1.518219	-0.506255	0.780203
C37	C	1.518214	-0.506255	0.896980
C38	C	1.518316	-0.232222	0.506210
C39	C	1.518351	-0.115445	0.506227
C40	C	1.451015	-0.573456	1.061554
C41	C	1.451007	-0.573444	0.951830
C42	C	1.585427	-0.439067	0.951860
C43	C	1.585429	-0.439075	1.061582
C44	C	1.373412	-0.651041	1.061536
C45	C	1.373403	-0.651028	0.951812
C46	C	1.518232	-0.506278	1.233203
C47	C	1.518225	-0.506276	1.116426
H48	H	0.919250	-0.628360	0.627912
O49	O	1.411988	-0.753424	1.106610
H50	H	1.349425	-0.788888	1.155557
H51	H	1.103376	-0.382933	0.280231
H52	H	1.107655	-0.284009	0.390914
H53	H	1.396538	-1.105386	0.384230
H54	H	1.395228	-0.732383	0.922015
H55	H	1.296111	-0.621880	0.917789
H56	H	1.292049	-0.629246	1.091317
H57	H	1.118312	-0.628330	0.627875
H58	H	0.934125	-0.279953	0.383585
O59	O	1.765320	-0.905547	0.612560
H60	H	1.830012	-0.932375	0.664150
O61	O	1.657911	-0.366597	0.892699
H62	H	1.704643	-0.319879	0.949292
O63	O	1.378699	-0.891830	0.366406
H64	H	1.332050	-0.948462	0.319650
O65	O	1.657907	-0.366608	1.120773
H66	H	1.740362	-0.384627	1.099720
H67	H	1.641061	-0.920921	0.732431
O68	O	0.918770	-0.399728	0.259215
H69	H	0.983584	-0.420093	0.204889
O70	O	1.624323	-1.105509	0.753475
H71	H	1.553950	-1.154503	0.738765
H72	H	1.744387	-1.090160	0.629397
