data_functionalizedCrystal
_audit_creation_method	'MofGen! by Chris Wilmer'
_symmetry_space_group_name_H-M	'P1'
_symmetry_Int_Tables_number	1
_symmetry_cell_setting	triclinic
loop_
_symmetry_equiv_pos_as_xyz
  x,y,z
_cell_length_a	16.793024
_cell_length_b	16.793047
_cell_length_c	33.586455
_cell_angle_alpha	113.253857
_cell_angle_beta	66.219990
_cell_angle_gamma	112.758327
loop_
_atom_site_label
_atom_site_type_symbol
_atom_site_fract_x
_atom_site_fract_y
_atom_site_fract_z
O1	O	0.005016	-0.570216	-0.583573
O2	O	-0.034529	-0.474528	-0.453458
O3	O	0.114723	-0.474535	-0.528082
O4	O	-0.144235	-0.570209	-0.508949
O5	O	0.108729	-0.346329	-0.530229
O6	O	-0.040523	-0.346322	-0.455605
O7	O	-0.000977	-0.442010	-0.585721
Cu8	Cu	-0.021297	-0.382459	-0.520859
Cu9	Cu	-0.014209	-0.534079	-0.518320
O10	O	-0.150229	-0.442003	-0.511097
C11	C	0.005100	-0.790970	-0.238461
C12	C	0.009223	-0.693065	-0.217557
C13	C	0.003804	-0.645758	-0.241627
C14	C	-0.075059	-0.538459	-0.266316
C15	C	0.049838	-0.422849	-0.250165
C16	C	-0.040584	-0.395375	-0.435637
C17	C	-0.044693	-0.353446	-0.386631
C18	C	-0.039275	-0.401741	-0.363054
C19	C	-0.040566	-0.125547	-0.300731
C20	C	-0.044689	-0.223451	-0.321635
C21	C	-0.039266	-0.270752	-0.297563
C22	C	0.039597	-0.378051	-0.272874
C23	C	-0.085304	-0.493667	-0.289026
C24	C	0.005118	-0.521142	-0.103554
C25	C	0.009231	-0.563064	-0.152559
C26	C	0.003809	-0.514775	-0.176138
C27	C	0.010758	-0.652581	-0.172822
C28	C	0.001010	-0.556371	-0.220792
C29	C	-0.008251	-0.506059	-0.245823
C30	C	-0.046224	-0.263935	-0.366370
C31	C	-0.036476	-0.360146	-0.318399
C32	C	-0.027211	-0.410451	-0.293367
C33	C	0.815184	-0.521162	-0.508596
C34	C	0.717729	-0.563083	-0.506815
C35	C	0.669923	-0.514793	-0.509201
C36	C	0.564072	-0.463272	-0.548285
C37	C	0.445555	-0.498966	-0.486078
C38	C	0.415541	-0.125553	-0.528781
C39	C	0.375032	-0.223457	-0.531493
C40	C	0.423813	-0.270761	-0.529101
C41	C	0.149318	-0.395376	-0.530584
C42	C	0.246774	-0.353455	-0.532364
C43	C	0.294574	-0.401748	-0.529976
C44	C	0.400424	-0.453269	-0.490892
C45	C	0.518948	-0.417572	-0.553101
C46	C	0.548961	-0.790984	-0.510398
C47	C	0.589464	-0.693083	-0.507684
C48	C	0.540690	-0.645776	-0.510078
C49	C	0.678399	-0.652598	-0.506649
C50	C	0.581167	-0.556389	-0.510877
C51	C	0.530434	-0.506073	-0.515170
C52	C	0.286104	-0.263940	-0.532530
C53	C	0.383336	-0.360149	-0.528302
C54	C	0.434062	-0.410467	-0.524008
C55	C	-0.040530	-0.395407	-0.935652
C56	C	-0.044651	-0.353482	-0.886645
C57	C	-0.039242	-0.401770	-0.863061
C58	C	0.039602	-0.453292	-0.810474
C59	C	-0.085288	-0.417587	-0.750981
C60	C	0.005063	-0.791004	-0.738448
C61	C	0.009186	-0.693099	-0.717543
C62	C	0.003779	-0.645796	-0.741620
C63	C	0.005077	-0.521171	-0.603544
C64	C	0.009198	-0.563096	-0.652550
C65	C	0.003786	-0.514804	-0.676131
C66	C	-0.075058	-0.463283	-0.728717
C67	C	0.049835	-0.498991	-0.788214
C68	C	-0.040516	-0.125574	-0.800747
C69	C	-0.044642	-0.223476	-0.821649
C70	C	-0.039232	-0.270782	-0.797575
C71	C	-0.046172	-0.263965	-0.866386
C72	C	-0.036447	-0.360171	-0.818406
C73	C	-0.027197	-0.410486	-0.793373
C74	C	0.010719	-0.652613	-0.672809
C75	C	0.000994	-0.556406	-0.720789
C76	C	-0.008259	-0.506089	-0.745819
O77	O	-0.000965	0.173549	-0.277957
O78	O	-0.040516	-0.085616	-0.325254
O79	O	0.108737	0.059592	-0.327284
O80	O	-0.150219	0.028341	-0.275927
O81	O	0.114753	0.055151	-0.263265
O82	O	-0.034500	-0.090057	-0.261234
O83	O	0.005051	0.169108	-0.213937
Cu84	Cu	-0.014175	0.039120	-0.231740
Cu85	Cu	-0.021290	0.044372	-0.307451
O86	O	-0.144202	0.023900	-0.211907
O87	O	-0.034458	-0.474571	0.046517
O88	O	0.005076	-0.570190	-0.083599
O89	O	-0.144170	-0.570237	-0.008972
O90	O	0.114787	-0.474523	-0.028110
O91	O	-0.150200	-0.442024	-0.011093
O92	O	-0.000954	-0.441976	-0.085720
O93	O	-0.040488	-0.346357	0.044396
Cu94	Cu	-0.021272	-0.382460	-0.020856
Cu95	Cu	-0.014141	-0.534087	-0.018347
O96	O	0.108757	-0.346309	-0.030231
C97	C	-0.850734	0.086244	-0.289716
C98	C	-0.753280	0.087165	-0.312001
C99	C	-0.705462	0.081107	-0.288506
C100	C	-0.599592	0.000085	-0.264184
C101	C	-0.481080	0.121287	-0.283645
C102	C	-0.450996	0.035117	-0.097351
C103	C	-0.410501	0.028587	-0.146852
C104	C	-0.459292	0.034683	-0.169840
C105	C	-0.184802	0.024283	-0.235878
C106	C	-0.282257	0.023363	-0.213592
C107	C	-0.330068	0.029423	-0.237088
C108	C	-0.435938	0.110445	-0.261411
C109	C	-0.554456	-0.010759	-0.241948
C110	C	-0.584541	0.075410	-0.428242
C111	C	-0.625029	0.081943	-0.378743
C112	C	-0.576244	0.075844	-0.355753
C113	C	-0.713963	0.086424	-0.357292
C114	C	-0.616708	0.075351	-0.310510
C115	C	-0.565963	0.065400	-0.286043
C116	C	-0.321573	0.024104	-0.168302
C117	C	-0.418828	0.035176	-0.215083
C118	C	-0.469568	0.045131	-0.239552
O119	O	0.585213	0.169090	-0.504004
O120	O	0.494056	-0.090076	-0.525516
O121	O	0.488081	0.055124	-0.449918
O122	O	0.591189	0.023889	-0.579602
O123	O	0.359978	0.059584	-0.452885
O124	O	0.365953	-0.085616	-0.528483
O125	O	0.457110	0.173550	-0.506971
Cu126	Cu	0.399835	0.044374	-0.517998
Cu127	Cu	0.551332	0.039099	-0.514489
O128	O	0.463086	0.028349	-0.582569
C129	C	0.815354	-0.521094	-0.008709
C130	C	0.717898	-0.563028	-0.006927
C131	C	0.670072	-0.514739	-0.009298
C132	C	0.564182	-0.463204	-0.048354
C133	C	0.445681	-0.498945	0.013847
C134	C	0.415547	-0.125494	-0.028771
C135	C	0.375059	-0.223405	-0.031498
C136	C	0.423859	-0.270708	-0.029121
C137	C	0.149365	-0.395355	-0.030599
C138	C	0.246820	-0.353421	-0.032381
C139	C	0.294640	-0.401713	-0.030008
C140	C	0.400530	-0.453248	0.009048
C141	C	0.519038	-0.417504	-0.053155
C142	C	0.549171	-0.790955	-0.010537
C143	C	0.589653	-0.693047	-0.007809
C144	C	0.540859	-0.645741	-0.010187
C145	C	0.678588	-0.652551	-0.006775
C146	C	0.581317	-0.556344	-0.010973
C147	C	0.530562	-0.506029	-0.015250
C148	C	0.286131	-0.263897	-0.032533
C149	C	0.383402	-0.360104	-0.028335
C150	C	0.434150	-0.410423	-0.024057
O151	O	-0.620614	0.089309	0.052274
O152	O	-0.529507	0.043784	-0.078544
O153	O	-0.523494	0.194833	-0.006033
O154	O	-0.626628	-0.061740	-0.020236
O155	O	-0.395386	0.185419	-0.005549
O156	O	-0.401400	0.034370	-0.078059
O157	O	-0.492507	0.079895	0.052758
Cu158	Cu	-0.435256	0.056273	-0.012607
Cu159	Cu	-0.586758	0.067406	-0.013179
O160	O	-0.498521	-0.071154	-0.019752
C161	C	-0.437537	0.048335	0.402491
C162	C	-0.397043	0.041789	0.352989
C163	C	-0.445822	0.047883	0.329994
C164	C	-0.496646	0.126653	0.277022
C165	C	-0.465894	-0.000633	0.218811
C166	C	-0.837226	0.099430	0.210091
C167	C	-0.739773	0.100339	0.187806
C168	C	-0.691967	0.094287	0.211308
C169	C	-0.571027	0.088563	0.071568
C170	C	-0.611521	0.095108	0.121070
C171	C	-0.562739	0.089011	0.144061
C172	C	-0.511915	0.010241	0.197033
C173	C	-0.542670	0.137531	0.255247
C174	C	-0.171338	0.037467	0.263967
C175	C	-0.268788	0.036555	0.286249
C176	C	-0.316597	0.042611	0.262750
C177	C	-0.308112	0.037305	0.331542
C178	C	-0.405351	0.048369	0.284750
C179	C	-0.456092	0.058317	0.260279
C180	C	-0.700452	0.099593	0.142516
C181	C	-0.603213	0.088528	0.189308
C182	C	-0.552469	0.078578	0.213776
O183	O	-0.040608	-1.085661	-0.825229
O184	O	-0.001018	-0.826491	-0.777938
O185	O	-0.150287	-0.971682	-0.775894
O186	O	0.108661	-0.940470	-0.827272
O187	O	-0.144253	-0.976123	-0.711878
O188	O	0.005016	-0.830932	-0.713922
O189	O	-0.034575	-1.090102	-0.761213
Cu190	Cu	-0.014228	-0.960923	-0.731722
Cu191	Cu	-0.021364	-0.955670	-0.807428
O192	O	0.114695	-0.944911	-0.763256
C193	C	-0.114910	-0.196886	-0.221632
C194	C	-0.036365	-0.225064	-0.248236
H195	H	-0.113123	-0.168686	-0.191179
H196	H	-0.118569	-0.155324	-0.233064
H197	H	-0.166305	-0.247543	-0.222605
H198	H	0.015031	-0.174406	-0.247266
H199	H	-0.032697	-0.266629	-0.236801
H200	H	0.107243	-0.392097	-0.234140
H201	H	-0.489994	0.175891	0.311254
H202	H	0.718963	-0.692464	-0.005731
C203	C	0.307428	-0.356909	0.064621
C204	C	0.306005	-0.447318	0.041825
H205	H	0.249068	-0.353252	0.084856
H206	H	0.349990	-0.330907	0.081268
H207	H	0.324178	-0.325257	0.043200
H208	H	0.289262	-0.478968	0.063247
H209	H	0.263430	-0.473331	0.025177
H210	H	-0.037089	-0.236932	-0.761035
C211	C	0.440790	-0.766117	-0.550211
C212	C	0.442643	-0.691456	-0.511830
H213	H	0.380258	-0.794319	-0.551289
H214	H	0.476637	-0.746996	-0.576720
H215	H	0.464205	-0.807679	-0.548648
H216	H	0.419234	-0.649891	-0.513394
H217	H	0.406782	-0.710576	-0.485314
C218	C	-0.114892	-0.551581	-0.898973
C219	C	-0.036349	-0.500505	-0.885944
H220	H	-0.113103	-0.612534	-0.913102
H221	H	-0.166284	-0.548248	-0.872954
H222	H	-0.118545	-0.528605	-0.919705
H223	H	-0.032699	-0.523477	-0.865209
H224	H	0.015057	-0.503843	-0.911967
H225	H	-0.740818	0.102779	0.123104
C226	C	-0.559111	0.117749	-0.108333
C227	C	-0.557320	0.040903	-0.145671
H228	H	-0.619625	0.121606	-0.093416
H229	H	-0.535722	0.113984	-0.087865
H230	H	-0.523212	0.169776	-0.118398
H231	H	-0.593214	-0.011124	-0.135606
H232	H	-0.580721	0.044661	-0.166143
H233	H	0.001639	-0.441666	-0.659178
H234	H	-0.490116	0.084434	0.126151
H235	H	0.634089	-0.467700	-0.572564
H236	H	0.718758	-0.692512	-0.505593
H237	H	-0.449229	0.177371	-0.300885
C238	C	0.523759	-0.150386	0.011020
C239	C	0.521907	-0.225026	-0.027371
H240	H	0.584290	-0.122192	0.012101
H241	H	0.500343	-0.108818	0.009471
H242	H	0.487909	-0.169533	0.037526
H243	H	0.557752	-0.205878	-0.053877
H244	H	0.545335	-0.266602	-0.025825
H245	H	-0.123559	-0.467696	-0.693740
H246	H	0.088099	-0.448874	-0.845454
C247	C	-0.813045	0.020300	0.264771
C248	C	-0.736400	0.093928	0.261279
H249	H	-0.840472	0.020076	0.295620
H250	H	-0.854815	0.024797	0.253860
H251	H	-0.795824	-0.033908	0.247206
H252	H	-0.753622	0.148136	0.278841
H253	H	-0.694622	0.089438	0.272196
H254	H	0.088092	-0.309407	-0.275738
H255	H	-0.503619	0.071273	-0.373665
H256	H	-0.574318	0.196197	0.271049
H257	H	0.107227	-0.532615	-0.804368
H258	H	0.550886	-0.383867	-0.081621
H259	H	-0.037138	-0.474881	-0.380005
H260	H	0.001632	-0.679646	-0.778160
H261	H	0.702991	-0.441593	-0.009870
H262	H	-0.048864	-0.224020	-0.386283
H263	H	-0.142686	-0.383972	-0.734830
H264	H	0.413839	-0.532573	0.042316
C265	C	-0.261092	0.096852	-0.105072
C266	C	-0.267062	0.019804	-0.142105
H267	H	-0.227442	0.094194	-0.088899
H268	H	-0.231669	0.148867	-0.115628
H269	H	-0.320117	0.099738	-0.085571
H270	H	-0.208036	0.016921	-0.161608
H271	H	-0.296482	-0.032226	-0.131549
C272	C	0.079482	-0.364958	-0.140246
C273	C	0.000926	-0.416037	-0.153262
H274	H	0.077706	-0.304000	-0.126127
H275	H	0.083146	-0.387914	-0.119513
H276	H	0.130870	-0.368309	-0.166273
H277	H	-0.050462	-0.412691	-0.127234
H278	H	-0.002747	-0.393074	-0.173996
C279	C	0.417882	-0.780427	-0.010719
C280	C	0.442813	-0.691437	-0.011938
H281	H	0.357351	-0.808635	-0.011797
H282	H	0.456976	-0.812250	-0.036040
H283	H	0.422399	-0.780744	0.016513
H284	H	0.438303	-0.691120	-0.039172
H285	H	0.403708	-0.659606	0.013385
H286	H	0.261721	-0.474856	-0.029430
C287	C	-0.061805	-0.709209	-0.107733
C288	C	0.014312	-0.706460	-0.145933
H289	H	-0.059613	-0.742477	-0.091136
H290	H	-0.062460	-0.649632	-0.089043
H291	H	-0.114963	-0.737397	-0.117116
H292	H	0.067470	-0.678266	-0.136551
H293	H	0.014976	-0.766047	-0.164627
C294	C	0.320967	-0.608153	-0.452621
C295	C	0.402555	-0.544351	-0.447642
H296	H	0.294426	-0.636176	-0.428894
H297	H	0.280935	-0.579183	-0.451287
H298	H	0.332213	-0.652379	-0.481058
H299	H	0.391308	-0.500121	-0.419206
H300	H	0.442596	-0.573322	-0.448972
H301	H	0.634201	-0.467612	-0.072637
H302	H	0.001650	-0.679613	-0.278166
C303	C	0.739717	-0.364988	-0.470363
C304	C	0.714358	-0.416052	-0.509980
H305	H	0.767148	-0.304028	-0.470841
H306	H	0.687718	-0.368341	-0.444693
H307	H	0.781496	-0.387956	-0.468691
H308	H	0.672573	-0.393088	-0.511650
H309	H	0.766365	-0.412693	-0.535657
H310	H	0.245737	-0.223998	-0.033572
H311	H	-0.518563	-0.039000	0.162804
C312	C	-0.204328	-0.654728	-0.284889
C313	C	-0.140528	-0.631126	-0.262436
H314	H	-0.244742	-0.711938	-0.282496
H315	H	-0.237273	-0.610925	-0.271435
H316	H	-0.174233	-0.657341	-0.315967
H317	H	-0.170622	-0.628506	-0.231358
H318	H	-0.107579	-0.674940	-0.275889
C319	C	-0.440829	-0.130835	0.155958
C320	C	-0.423170	-0.079829	0.197486
H321	H	-0.414446	-0.179722	0.142793
H322	H	-0.504289	-0.153393	0.160805
H323	H	-0.415712	-0.093979	0.136110
H324	H	-0.448292	-0.116683	0.217335
H325	H	-0.359696	-0.057271	0.192640
H326	H	-0.283673	0.042875	0.225734
H327	H	-0.738384	0.080845	-0.251490
H328	H	-0.267732	0.034117	0.350946
C329	C	0.647075	-0.387328	-0.616802
C330	C	0.561964	-0.372164	-0.591529
H331	H	0.673630	-0.359290	-0.640524
H332	H	0.684706	-0.362740	-0.597603
H333	H	0.640604	-0.450241	-0.629425
H334	H	0.568435	-0.309251	-0.578904
H335	H	0.524325	-0.396748	-0.610732
H336	H	-0.048809	-0.224052	-0.886301
H337	H	0.013347	-0.692513	-0.652885
C338	C	-0.726740	-0.038600	-0.290574
C339	C	-0.694118	-0.062900	-0.265886
H340	H	-0.785095	-0.077489	-0.291625
H341	H	-0.730396	0.021773	-0.276289
H342	H	-0.686859	-0.043620	-0.320555
H343	H	-0.733996	-0.057874	-0.235903
H344	H	-0.690468	-0.123288	-0.280170
C345	C	-0.159424	-0.476813	-0.332060
C346	C	-0.162789	-0.535179	-0.310666
H347	H	-0.207257	-0.502444	-0.345422
H348	H	-0.165595	-0.420726	-0.310335
H349	H	-0.103142	-0.467699	-0.354938
H350	H	-0.219069	-0.544287	-0.287786
H351	H	-0.156626	-0.591282	-0.332394
H352	H	-0.365918	0.157102	-0.260160
C353	C	0.173487	-0.505362	-0.491324
C354	C	0.250126	-0.500478	-0.529180
H355	H	0.146047	-0.566315	-0.490835
H356	H	0.190713	-0.470693	-0.464460
H357	H	0.131718	-0.482402	-0.493011
H358	H	0.291898	-0.523432	-0.527491
H359	H	0.232901	-0.535159	-0.556051
C360	C	0.307342	-0.356896	-0.435338
C361	C	0.305902	-0.447312	-0.458121
H362	H	0.248983	-0.353222	-0.415107
H363	H	0.349900	-0.330890	-0.418689
H364	H	0.324105	-0.325259	-0.456768
H365	H	0.289145	-0.478948	-0.436691
H366	H	0.263330	-0.473329	-0.474771
C367	C	0.523720	-0.150434	-0.488967
C368	C	0.521860	-0.225091	-0.527350
H369	H	0.584251	-0.122246	-0.487885
H370	H	0.500319	-0.108866	-0.490527
H371	H	0.487860	-0.169562	-0.462456
H372	H	0.557715	-0.205962	-0.553861
H373	H	0.545274	-0.266665	-0.525793
C374	C	0.155163	-0.207327	-0.495863
C375	C	0.231595	-0.210067	-0.533943
H376	H	0.121513	-0.174065	-0.496733
H377	H	0.118585	-0.266906	-0.495933
H378	H	0.173558	-0.179137	-0.469098
H379	H	0.213199	-0.238263	-0.560707
H380	H	0.268179	-0.150477	-0.533877
C381	C	-0.578382	0.059560	0.323997
C382	C	-0.543864	0.054056	0.354169
H383	H	-0.638911	0.063363	0.338922
H384	H	-0.542535	0.111605	0.313948
H385	H	-0.577125	0.007436	0.298661
H386	H	-0.545115	0.106184	0.379503
H387	H	-0.579721	0.002006	0.364224
H388	H	-0.297145	0.029698	-0.274103
C389	C	-0.725182	0.167546	-0.398947
C390	C	-0.768474	0.090746	-0.383482
H391	H	-0.758834	0.170215	-0.415116
H392	H	-0.721229	0.219735	-0.373783
H393	H	-0.666125	0.164763	-0.418437
H394	H	-0.827529	0.093533	-0.363989
H395	H	-0.772437	0.038544	-0.408649
H396	H	-0.586315	-0.066836	-0.224702
