data_functionalizedCrystal
_audit_creation_method	'MofGen! by Chris Wilmer'
_symmetry_space_group_name_H-M	'P1'
_symmetry_Int_Tables_number	1
_symmetry_cell_setting	triclinic
loop_
_symmetry_equiv_pos_as_xyz
  x,y,z
_cell_length_a	16.109301
_cell_length_b	17.038272
_cell_length_c	15.186229
_cell_angle_alpha	89.995962
_cell_angle_beta	89.999362
_cell_angle_gamma	87.286518
loop_
_atom_site_label
_atom_site_type_symbol
_atom_site_fract_x
_atom_site_fract_y
_atom_site_fract_z
O1	O	1.110268	0.100495	-0.073174
O2	O	1.610268	0.600495	0.426826
O3	O	0.869094	0.113001	-0.073188
O4	O	1.369094	0.613001	0.426812
O5	O	0.988247	-0.007067	-0.073174
O6	O	1.488247	0.492933	0.426826
O7	O	0.991114	0.220563	-0.073187
O8	O	1.491114	0.720563	0.426813
O9	O	0.988239	-0.007069	0.073284
O10	O	1.488239	0.492931	0.573284
O11	O	0.869085	0.113000	0.073270
O12	O	1.369085	0.613000	0.573270
O13	O	1.110259	0.100493	0.073284
O14	O	1.610259	0.600493	0.573284
Zn15	Zn	0.989671	0.106746	0.096530
Zn16	Zn	1.489671	0.606746	0.596530
Zn17	Zn	0.989682	0.106748	-0.096434
Zn18	Zn	1.489682	0.606748	0.403566
O19	O	0.991105	0.220562	0.073270
O20	O	1.491105	0.720562	0.573270
C21	C	0.838079	0.112494	0.000039
C22	C	1.338079	0.612494	0.500039
C23	C	0.745676	0.110975	0.000034
C24	C	1.245676	0.610975	0.500034
C25	C	0.528212	0.178690	0.000040
C26	C	1.028212	0.678690	0.500040
C27	C	0.441390	0.177257	0.000046
C28	C	0.941390	0.677257	0.500046
C29	C	0.451147	0.034799	0.000051
C30	C	0.951147	0.534799	0.500051
C31	C	0.537968	0.036233	0.000051
C32	C	1.037968	0.536233	0.500051
C33	C	0.576498	0.108181	0.000042
C34	C	1.076498	0.608181	0.500042
C35	C	0.402855	0.105314	0.000047
C36	C	0.902855	0.605314	0.500047
C37	C	0.308719	0.103759	0.000053
C38	C	0.808719	0.603759	0.500053
C39	C	0.670640	0.109736	0.000037
C40	C	1.170640	0.609736	0.500037
C41	C	0.985636	-0.036196	0.000055
C42	C	1.485636	0.463804	0.500055
C43	C	0.977857	-0.122989	0.000054
C44	C	1.477857	0.377011	0.500054
C45	C	1.049277	-0.173104	0.000059
C46	C	1.549277	0.326896	0.500059
C47	C	1.041963	-0.254654	0.000050
C48	C	1.541963	0.245346	0.500050
C49	C	0.963228	-0.286089	0.000043
C50	C	1.463228	0.213911	0.500043
C51	C	0.891802	-0.235967	0.000035
C52	C	1.391802	0.264033	0.500035
C53	C	0.899116	-0.154418	0.000038
C54	C	1.399116	0.345582	0.500038
C55	C	0.937385	-0.531846	0.000029
C56	C	1.437385	-0.031846	0.500029
C57	C	0.930076	-0.613402	0.000029
C58	C	1.430076	-0.113402	0.500029
C59	C	1.080238	-0.632083	0.000043
C60	C	1.580238	-0.132083	0.500043
C61	C	1.087546	-0.550532	0.000051
C62	C	1.587546	-0.050532	0.500051
C63	C	1.016120	-0.500418	0.000038
C64	C	1.516120	-0.000418	0.500038
C65	C	0.955749	-0.369446	0.000037
C66	C	1.455749	0.130554	0.500037
C67	C	1.023599	-0.417062	0.000038
C68	C	1.523599	0.082938	0.500038
C69	C	1.141274	0.101001	0.000055
C70	C	1.641274	0.601001	0.500055
C71	C	1.233677	0.102519	0.000054
C72	C	1.733677	0.602519	0.500054
C73	C	0.993717	0.249691	0.000039
C74	C	1.493717	0.749691	0.500039
C75	C	1.001496	0.336484	0.000034
C76	C	1.501496	0.836484	0.500034
N77	N	0.989669	0.106744	0.228223
N78	N	1.489669	0.606744	0.728223
N79	N	0.989690	0.106744	-0.228126
N80	N	1.489690	0.606744	0.271874
C81	C	1.042451	0.053596	0.453952
C82	C	1.542451	0.553596	0.953952
C83	C	1.042453	0.053594	0.546141
C84	C	1.542453	0.553594	1.046141
C85	C	0.936902	0.159895	0.546138
C86	C	1.436902	0.659895	1.046138
C87	C	0.936896	0.159893	0.453950
C88	C	1.436896	0.659893	0.953950
C89	C	0.989675	0.106744	0.407859
C90	C	1.489675	0.606744	0.907859
C91	C	0.989684	0.106745	0.592237
C92	C	1.489684	0.606745	1.092237
C93	C	0.989686	0.106743	0.692193
C94	C	1.489686	0.606743	1.192193
C95	C	0.989672	0.106744	0.307897
C96	C	1.489672	0.606744	0.807897
H97	H	1.113392	-0.147517	0.000071
H98	H	1.613392	0.352483	0.500071
C99	C	0.641264	-0.044803	0.075343
C100	C	1.141264	0.455197	0.575343
C101	C	0.591050	-0.041276	0.000052
C102	C	1.091050	0.458724	0.500052
H103	H	0.674030	-0.092655	0.075346
H104	H	1.174030	0.407345	0.575346
H105	H	0.676631	-0.001755	0.075336
H106	H	1.176631	0.498245	0.575336
H107	H	0.607180	-0.042406	0.126408
H108	H	1.107180	0.457594	0.626408
H109	H	0.625134	-0.043668	-0.051014
H110	H	1.125134	0.456332	0.448986
H111	H	0.555679	-0.084337	0.000051
H112	H	1.055679	0.415663	0.500051
C113	C	0.926374	0.266291	0.350259
C114	C	1.426374	0.766291	0.850259
C115	C	0.878884	0.218320	0.403277
C116	C	1.378884	0.718320	0.903277
H117	H	0.890558	0.302355	0.318973
H118	H	1.390558	0.802355	0.818973
H119	H	0.962962	0.294424	0.386217
H120	H	1.462962	0.794424	0.886217
H121	H	0.957797	0.234625	0.309620
H122	H	1.457797	0.734625	0.809620
H123	H	0.847465	0.249985	0.443921
H124	H	1.347465	0.749985	0.943921
H125	H	0.842281	0.190185	0.367316
H126	H	1.342281	0.690185	0.867316
H127	H	1.100122	-0.295455	0.000056
H128	H	1.600122	0.204545	0.500056
H129	H	1.085425	0.010318	0.416427
H130	H	1.585425	0.510318	0.916427
C131	C	0.620195	0.262940	0.075320
C132	C	1.120195	0.762940	0.575320
C133	C	0.570569	0.257771	0.000036
C134	C	1.070569	0.757771	0.500036
H135	H	0.646346	0.311761	0.075314
H136	H	1.146346	0.811761	0.575314
H137	H	0.586528	0.259422	0.126384
H138	H	1.086528	0.759422	0.626384
H139	H	0.661376	0.221149	0.075311
H140	H	1.161376	0.721149	0.575311
H141	H	0.529384	0.299560	0.000049
H142	H	1.029384	0.799560	0.500049
H143	H	0.604239	0.261297	-0.051042
H144	H	1.104239	0.761297	0.448958
C145	C	0.834753	-0.694282	-0.075267
C146	C	1.334753	-0.194282	0.424733
C147	C	0.843526	-0.647961	0.000017
C148	C	1.343526	-0.147961	0.500017
H149	H	0.781326	-0.715623	-0.075268
H150	H	1.281326	-0.215623	0.424732
H151	H	0.840724	-0.662855	-0.126331
H152	H	1.340724	-0.162855	0.373669
H153	H	0.876253	-0.735793	-0.075250
H154	H	1.376253	-0.235793	0.424750
H155	H	0.802029	-0.606447	-0.000003
H156	H	1.302029	-0.106447	0.499997
H157	H	0.837546	-0.679391	0.051095
H158	H	1.337546	-0.179391	0.551095
H159	H	0.402079	0.234672	0.000047
H160	H	0.902079	0.734672	0.500047
H161	H	1.151661	-0.524945	0.000057
H162	H	1.651661	-0.024945	0.500057
H163	H	1.138389	-0.672894	0.000051
H164	H	1.638389	-0.172894	0.500051
C165	C	0.432738	-0.087060	-0.075236
C166	C	0.932738	0.412940	0.424764
C167	C	0.408793	-0.044283	0.000050
C168	C	0.908793	0.455717	0.500050
H169	H	0.406595	-0.135885	-0.075234
H170	H	0.906595	0.364115	0.424766
H171	H	0.416504	-0.058026	-0.126299
H172	H	0.916504	0.441974	0.373701
H173	H	0.491357	-0.096291	-0.075223
H174	H	0.991357	0.403709	0.424777
H175	H	0.350174	-0.035047	0.000034
H176	H	0.850174	0.464953	0.500034
H177	H	0.425022	-0.073324	0.051127
H178	H	0.925022	0.426676	0.551127
H179	H	0.827693	-0.261567	0.000023
H180	H	1.327693	0.238433	0.500023
H181	H	0.840958	-0.113615	0.000033
H182	H	1.340958	0.386385	0.500033
H183	H	0.879224	-0.491053	0.000019
H184	H	1.379224	0.008947	0.500019
C185	C	1.118936	-0.336182	-0.075237
C186	C	1.618936	0.163818	0.424763
C187	C	1.110143	-0.382509	0.000048
C188	C	1.610143	0.117491	0.500048
H189	H	1.172363	-0.314842	-0.075224
H190	H	1.672363	0.185158	0.424776
H191	H	1.112978	-0.367606	-0.126301
H192	H	1.612978	0.132394	0.373699
H193	H	1.077436	-0.294672	-0.075234
H194	H	1.577436	0.205328	0.424766
H195	H	1.151639	-0.424023	0.000041
H196	H	1.651639	0.075977	0.500041
H197	H	1.116109	-0.351083	0.051125
H198	H	1.616109	0.148917	0.551125
C199	C	0.860424	-0.450320	-0.075251
C200	C	1.360424	0.049680	0.424749
C201	C	0.869205	-0.404006	0.000037
C202	C	1.369205	0.095994	0.500037
H203	H	0.806998	-0.471662	-0.075247
H204	H	1.306998	0.028338	0.424753
H205	H	0.866388	-0.418888	-0.126313
H206	H	1.366388	0.081112	0.373687
H207	H	0.901925	-0.491830	-0.075244
H208	H	1.401925	0.008170	0.424756
H209	H	0.827708	-0.362492	0.000027
H210	H	1.327708	0.137508	0.500027
H211	H	0.863233	-0.435440	0.051112
H212	H	1.363233	0.064560	0.551112
C213	C	1.146792	-0.051472	0.536878
C214	C	1.646792	0.448528	1.036878
C215	C	1.100470	-0.004825	0.596806
C216	C	1.600470	0.495175	1.096806
H217	H	1.182612	-0.087535	0.568158
H218	H	1.682612	0.412465	1.068158
H219	H	1.110196	-0.079605	0.500929
H220	H	1.610196	0.420395	1.000929
H221	H	1.178992	-0.018908	0.500915
H222	H	1.678992	0.481092	1.000915
H223	H	1.068264	-0.037389	0.632765
H224	H	1.568264	0.462611	1.132765
H225	H	1.137070	0.023310	0.632771
H226	H	1.637070	0.523310	1.132771
C227	C	0.890052	0.207106	0.687455
C228	C	1.390052	0.707106	1.187455
C229	C	0.878899	0.218322	0.596804
C230	C	1.378899	0.718322	1.096804
H231	H	0.854246	0.243183	0.718731
H232	H	1.354246	0.743183	1.218731
H233	H	0.877330	0.154931	0.702568
H234	H	1.377330	0.654931	1.202568
H235	H	0.946143	0.215612	0.702546
H236	H	1.446143	0.715612	1.202546
H237	H	0.822809	0.209811	0.581713
H238	H	1.322809	0.709811	1.081713
H239	H	0.891615	0.270509	0.581686
H240	H	1.391615	0.770509	1.081686
