data_functionalizedCrystal
_audit_creation_method	'MofGen! by Chris Wilmer'
_symmetry_space_group_name_H-M	'P1'
_symmetry_Int_Tables_number	1
_symmetry_cell_setting	triclinic
loop_
_symmetry_equiv_pos_as_xyz
  x,y,z
_cell_length_a	14.044220
_cell_length_b	11.026607
_cell_length_c	9.482900
_cell_angle_alpha	101.363848
_cell_angle_beta	100.188801
_cell_angle_gamma	79.112553
loop_
_atom_site_label
_atom_site_type_symbol
_atom_site_fract_x
_atom_site_fract_y
_atom_site_fract_z
O1	O	0.392560	-1.671574	-0.120918
O2	O	0.346512	-1.313283	-0.120917
O3	O	0.230635	-1.487049	-0.120903
O4	O	0.508437	-1.497809	-0.120932
O5	O	0.254293	-1.451766	0.120886
O6	O	0.370170	-1.278001	0.120872
O7	O	0.416218	-1.636292	0.120871
Cu8	Cu	0.395354	-1.453925	0.142949
Cu9	Cu	0.367376	-1.495650	-0.142995
O10	O	0.532095	-1.462526	0.120857
C11	C	0.349846	-1.249512	-0.000022
C12	C	0.324521	-1.112056	-0.000022
C13	C	0.206346	-1.464699	-0.000008
C14	C	0.098724	-1.450655	-0.000006
N15	N	0.415033	-1.424586	0.344067
C16	C	-0.098320	-1.424983	-0.000027
C17	C	-0.138958	-1.524588	-0.000032
C18	C	-0.248600	-1.510304	-0.000043
C19	C	0.011332	-1.439266	-0.000015
C20	C	0.556383	-1.484876	-0.000041
C21	C	0.664004	-1.498922	-0.000053
C22	C	0.412884	-1.700064	-0.000027
C23	C	0.438207	-1.837521	-0.000037
C24	C	0.394445	-1.045821	-0.000030
C25	C	0.368273	-0.903753	-0.000029
N26	N	0.347690	-1.524998	-0.344113
C27	C	0.373174	-1.486988	0.416271
C28	C	0.389556	-1.462587	0.583687
H29	H	-0.145870	-1.328988	-0.000030
O30	O	-0.082302	-1.639185	-0.000270
C31	C	-0.114487	-1.722078	-0.125470
H32	H	-0.155424	-1.666109	-0.213011
H33	H	-0.048543	-1.787293	-0.167482
H34	H	-0.165519	-1.779861	-0.097157
O35	O	0.446658	-1.377205	0.657943
C36	C	0.390604	-1.282359	0.745982
H37	H	0.325536	-1.319876	0.768628
H38	H	0.438044	-1.251773	0.853080
H39	H	0.362905	-1.198735	0.687433
O40	O	0.488925	-1.103838	-0.000097
C41	C	0.494026	-1.232765	-0.000053
H42	H	0.419312	-1.261443	-0.045825
H43	H	0.550752	-1.288862	-0.070249
H44	H	0.516140	-1.252245	0.115948
H45	H	0.517453	-0.885983	-0.000036
H46	H	0.289024	-0.855294	-0.000058
H47	H	0.462995	-1.353092	0.406191
H48	H	0.299716	-1.596487	0.593768
O49	O	0.229975	-1.054226	-0.000272
C50	C	0.198926	-0.998063	-0.125477
H51	H	0.246007	-1.046882	-0.213006
H52	H	0.118936	-1.007213	-0.167505
H53	H	0.206727	-0.894683	-0.097164
H54	H	0.325203	-1.558472	0.354149
