data_functionalizedCrystal
_audit_creation_method	'MofGen! by Chris Wilmer'
_symmetry_space_group_name_H-M	'P1'
_symmetry_Int_Tables_number	1
_symmetry_cell_setting	triclinic
loop_
_symmetry_equiv_pos_as_xyz
  x,y,z
_cell_length_a	17.019284
_cell_length_b	17.699083
_cell_length_c	16.176319
_cell_angle_alpha	89.998611
_cell_angle_beta	86.124207
_cell_angle_gamma	96.663576
loop_
_atom_site_label
_atom_site_type_symbol
_atom_site_fract_x
_atom_site_fract_y
_atom_site_fract_z
O1	O	-0.099757	1.004143	-0.061524
O2	O	0.400243	1.504143	0.438476
O3	O	-0.112735	0.783773	-0.060626
O4	O	0.387265	1.283773	0.439374
O5	O	0.008598	0.900110	-0.069251
O6	O	0.508598	1.400110	0.430749
O7	O	-0.221090	0.887805	-0.052900
O8	O	0.278910	1.387805	0.447100
O9	O	0.008606	0.900094	0.068242
O10	O	0.508606	1.400094	0.568242
O11	O	-0.112727	0.783757	0.076866
O12	O	0.387273	1.283757	0.576866
O13	O	-0.099749	1.004127	0.075969
O14	O	0.400251	1.504127	0.575969
Cu15	Cu	-0.106237	0.893940	0.088972
Cu16	Cu	0.393763	1.393940	0.588972
Cu17	Cu	-0.106247	0.893959	-0.073629
Cu18	Cu	0.393753	1.393959	0.426371
O19	O	-0.221082	0.887789	0.084593
O20	O	0.278918	1.387789	0.584593
C21	C	-0.112266	0.755567	0.008083
C22	C	0.387734	1.255567	0.508083
C23	C	-0.110871	0.671548	0.007974
C24	C	0.389129	1.171548	0.507974
C25	C	-0.182091	0.622973	0.013044
C26	C	0.317909	1.122973	0.513044
C27	C	-0.180776	0.544029	0.012961
C28	C	0.319224	1.044029	0.512961
C29	C	-0.108239	0.513662	0.007802
C30	C	0.391761	1.013662	0.507802
C31	C	-0.037013	0.562243	0.002734
C32	C	0.462987	1.062243	0.502734
C33	C	-0.038330	0.641186	0.002823
C34	C	0.461670	1.141186	0.502823
C35	C	-0.031703	0.243877	0.002376
C36	C	0.468297	0.743877	0.502376
C37	C	-0.030392	0.164928	0.002285
C38	C	0.469608	0.664928	0.502285
C39	C	-0.174149	0.146720	0.012514
C40	C	0.325851	0.646720	0.512514
C41	C	-0.175465	0.225662	0.012603
C42	C	0.324535	0.725662	0.512603
C43	C	-0.104240	0.274237	0.007540
C44	C	0.395760	0.774237	0.507540
C45	C	-0.105667	0.359837	0.007631
C46	C	0.394333	0.859837	0.507631
C47	C	-0.106811	0.428063	0.007704
C48	C	0.393189	0.928063	0.507704
C49	C	-0.250474	0.888262	0.017939
C50	C	0.249526	1.388262	0.517939
C51	C	-0.338042	0.889657	0.024173
C52	C	0.161958	1.389657	0.524173
C53	C	-0.379183	0.890321	-0.047846
C54	C	0.120817	1.390321	0.452154
C55	C	-0.461460	0.891641	-0.041988
C56	C	0.038540	1.391641	0.458012
C57	C	-0.502596	0.892291	0.035889
C58	C	-0.002596	1.392291	0.535889
C59	C	-0.461450	0.891629	0.107914
C60	C	0.038550	1.391629	0.607914
C61	C	-0.379173	0.890314	0.102055
C62	C	0.120827	1.390314	0.602055
C63	C	-0.751019	0.896266	0.057328
C64	C	-0.251019	1.396266	0.557328
C65	C	-0.833301	0.897578	0.063181
C66	C	-0.333301	1.397578	0.563181
C67	C	-0.833306	0.897592	-0.086722
C68	C	-0.333306	1.397592	0.413278
C69	C	-0.751028	0.896272	-0.092573
C70	C	-0.251028	1.396272	0.407427
C71	C	-0.709888	0.895614	-0.020549
C72	C	-0.209888	1.395614	0.479451
C73	C	-0.586698	0.893638	0.041879
C74	C	-0.086698	1.393638	0.541879
C75	C	-0.625788	0.894273	-0.026539
C76	C	-0.125788	1.394273	0.473461
C77	C	0.037990	0.899637	-0.002598
C78	C	0.537990	1.399637	0.497402
C79	C	0.125558	0.898243	-0.008838
C80	C	0.625558	1.398243	0.491162
C81	C	-0.100218	1.032332	0.007257
C82	C	0.399782	1.532332	0.507257
C83	C	-0.101613	1.116351	0.007361
C84	C	0.398387	1.616351	0.507361
N85	N	-0.106231	0.893932	0.203336
N86	N	0.393769	1.393932	0.703336
N87	N	-0.106247	0.893973	-0.187995
N88	N	0.393753	1.393973	0.312005
C89	C	-0.052526	0.945462	0.242783
C90	C	0.447474	1.445462	0.742783
C91	C	-0.052525	0.945466	0.329330
C92	C	0.447475	1.445466	0.829330
C93	C	-0.106233	0.893943	0.376429
C94	C	0.393767	1.393943	0.876429
C95	C	-0.159940	0.842408	0.336976
C96	C	0.340060	1.342408	0.836976
C97	C	-0.159937	0.842401	0.250431
C98	C	0.340063	1.342401	0.750431
C99	C	-0.159955	0.842434	0.686006
C100	C	0.340045	1.342434	1.186006
C101	C	-0.159956	0.842446	0.772557
C102	C	0.340044	1.342446	1.272557
C103	C	-0.052543	0.945499	0.764905
C104	C	0.447457	1.445499	1.264905
C105	C	-0.052540	0.945492	0.678360
C106	C	0.447460	1.445492	1.178360
C107	C	-0.106244	0.893954	0.638914
C108	C	0.393756	1.393954	1.138914
C109	C	-0.106243	0.893950	0.545070
C110	C	0.393757	1.393950	1.045070
C111	C	-0.106238	0.893951	0.470272
C112	C	0.393762	1.393951	0.970272
H113	H	0.019665	0.680736	-0.001306
H114	H	0.519665	1.180736	0.498694
Cl115	Cl	-0.227452	0.777615	0.200841
Cl116	Cl	0.272548	1.277615	0.700841
Cl117	Cl	0.054176	0.524067	-0.003747
Cl118	Cl	0.554176	1.024067	0.496253
H119	H	0.026293	0.283417	-0.001746
H120	H	0.526293	0.783417	0.498254
H121	H	-0.494949	0.892163	0.171323
H122	H	0.005051	1.392163	0.671323
H123	H	-0.345677	0.889773	0.160701
H124	H	0.154323	1.389773	0.660701
Cl125	Cl	-0.638419	0.894452	0.139779
Cl126	Cl	-0.138419	1.394452	0.639779
Cl127	Cl	-0.885027	0.898436	-0.177260
Cl128	Cl	-0.385027	1.398436	0.322740
H129	H	-0.238770	0.504481	0.017089
H130	H	0.261230	1.004481	0.517089
Cl131	Cl	-0.227470	0.777648	0.636423
Cl132	Cl	0.272530	1.277648	1.136423
Cl133	Cl	-0.574072	0.893461	-0.124439
Cl134	Cl	-0.074072	1.393461	0.375561
H135	H	-0.008794	0.987421	0.204441
H136	H	0.491206	1.487421	0.704441
Cl137	Cl	-0.227457	0.777631	0.396184
Cl138	Cl	0.272543	1.277631	0.896184
Cl139	Cl	-0.885013	0.898407	0.161092
Cl140	Cl	-0.385013	1.398407	0.661092
H141	H	-0.345696	0.889785	-0.111262
H142	H	0.154304	1.389785	0.388738
H143	H	-0.008808	0.987449	0.640014
H144	H	0.491192	1.487449	1.140014
Cl145	Cl	-0.263691	0.085649	0.018884
Cl146	Cl	0.236309	0.585649	0.518884
Cl147	Cl	0.014991	1.010247	0.378922
Cl148	Cl	0.514991	1.510247	0.878922
Cl149	Cl	0.014975	1.010288	0.814498
Cl150	Cl	0.514975	1.510288	1.314498
Cl151	Cl	-0.227479	0.777668	0.831767
Cl152	Cl	0.272521	1.277668	1.331767
Cl153	Cl	-0.699320	0.895457	-0.190481
Cl154	Cl	-0.199320	1.395457	0.309519
Cl155	Cl	0.060804	0.126754	-0.004201
Cl156	Cl	0.560804	0.626754	0.495799
Cl157	Cl	-0.513176	0.892479	-0.132531
Cl158	Cl	-0.013176	1.392479	0.367469
H159	H	-0.241159	0.647691	0.017244
H160	H	0.258841	1.147691	0.517244
H161	H	-0.717532	0.895730	0.115975
H162	H	-0.217532	1.395730	0.615975
Cl163	Cl	-0.266657	0.263834	0.019085
Cl164	Cl	0.233343	0.763834	0.519085
