data_functionalizedCrystal
_audit_creation_method	'MofGen! by Chris Wilmer'
_symmetry_space_group_name_H-M	'P1'
_symmetry_Int_Tables_number	1
_symmetry_cell_setting	triclinic
loop_
_symmetry_equiv_pos_as_xyz
  x,y,z
_cell_length_a	27.731994
_cell_length_b	19.188930
_cell_length_c	18.266242
_cell_angle_alpha	89.990385
_cell_angle_beta	89.999533
_cell_angle_gamma	97.117342
loop_
_atom_site_label
_atom_site_type_symbol
_atom_site_fract_x
_atom_site_fract_y
_atom_site_fract_z
O1	O	0.641199	-0.082897	0.060785
O2	O	1.141199	0.417103	0.560785
O3	O	0.500440	-0.095569	0.060810
O4	O	1.000440	0.404431	0.560810
O5	O	0.574881	0.012450	0.060782
O6	O	1.074881	0.512450	0.560782
O7	O	0.566757	-0.190916	0.060812
O8	O	1.066757	0.309084	0.560812
O9	O	0.574873	0.012452	-0.060980
O10	O	1.074873	0.512452	0.439020
O11	O	0.500432	-0.095566	-0.060952
O12	O	1.000432	0.404434	0.439048
O13	O	0.641191	-0.082895	-0.060977
O14	O	1.141191	0.417105	0.439023
Zn15	Zn	0.570810	-0.089230	-0.080297
Zn16	Zn	1.070810	0.410770	0.419703
Zn17	Zn	0.570821	-0.089233	0.080130
Zn18	Zn	1.070821	0.410767	0.580130
O19	O	0.566749	-0.190913	-0.060950
O20	O	1.066749	0.309087	0.439050
C21	C	0.482428	-0.095308	-0.000068
C22	C	0.982428	0.404692	0.499932
C23	C	0.428769	-0.094524	-0.000059
C24	C	0.928769	0.405476	0.499941
C25	C	0.096031	-0.089589	-0.066460
C26	C	0.596031	0.410411	0.433540
C27	C	-0.105636	-0.086611	-0.066469
C28	C	0.394364	0.413389	0.433531
O29	O	-0.131714	-0.086195	-0.122916
O30	O	0.368286	0.413805	0.377084
N31	N	-0.130848	-0.086243	-0.000097
N32	N	0.369152	0.413757	0.499903
C33	C	-0.105639	-0.086614	0.066283
C34	C	0.394361	0.413386	0.566283
O35	O	-0.131709	-0.086225	0.122736
O36	O	0.368291	0.413775	0.622736
C37	C	0.096028	-0.089587	0.066291
C38	C	0.596028	0.410413	0.566291
C39	C	0.121236	-0.089963	-0.000086
C40	C	0.621236	0.410037	0.499914
C41	C	0.121240	-0.089964	-0.132831
C42	C	0.621240	0.410036	0.367169
C43	C	0.171653	-0.090712	-0.132829
C44	C	0.671653	0.409288	0.367171
C45	C	0.196858	-0.091086	-0.066454
C46	C	0.696858	0.408914	0.433546
C47	C	0.171650	-0.090711	-0.000083
C48	C	0.671650	0.409289	0.499917
C49	C	0.121236	-0.089953	0.132669
C50	C	0.621236	0.410047	0.632669
C51	C	0.171656	-0.090695	0.132665
C52	C	0.671656	0.409305	0.632665
C53	C	0.196865	-0.091070	0.066289
C54	C	0.696865	0.408930	0.566289
C55	C	0.247268	-0.091833	0.066294
C56	C	0.747268	0.408167	0.566294
N57	N	0.272480	-0.092201	-0.000079
N58	N	0.772480	0.407799	0.499921
C59	C	0.247275	-0.091828	-0.066453
C60	C	0.747275	0.408172	0.433547
C61	C	-0.211517	-0.085055	0.066274
C62	C	0.288483	0.414945	0.566274
C63	C	-0.261933	-0.084313	0.066272
C64	C	0.238067	0.415687	0.566272
C65	C	-0.261927	-0.084309	-0.066480
C66	C	0.238073	0.415691	0.433520
C67	C	-0.211510	-0.085056	-0.066477
C68	C	0.288490	0.414944	0.433523
C69	C	-0.186305	-0.085423	-0.000099
C70	C	0.313695	0.414577	0.499901
C71	C	0.353147	-0.093400	-0.066442
C72	C	0.853147	0.406600	0.433558
C73	C	0.403564	-0.094151	-0.066433
C74	C	0.903564	0.405849	0.433567
C75	C	0.403554	-0.094151	0.066319
C76	C	0.903554	0.405849	0.566319
C77	C	0.353140	-0.093404	0.066310
C78	C	0.853140	0.406596	0.566310
C79	C	0.327938	-0.093026	-0.000076
C80	C	0.827938	0.406974	0.499924
O81	O	0.273378	-0.092241	0.122711
O82	O	0.773378	0.407759	0.622711
O83	O	0.273356	-0.092201	-0.122898
O84	O	0.773356	0.407799	0.377102
C85	C	0.045618	-0.088841	-0.066463
C86	C	0.545618	0.411159	0.433537
C87	C	0.020409	-0.088466	-0.000092
C88	C	0.520409	0.411534	0.499908
C89	C	0.045614	-0.088840	0.066282
C90	C	0.545614	0.411160	0.566282
C91	C	-0.030007	-0.087724	-0.000094
C92	C	0.469993	0.412276	0.499906
C93	C	-0.055212	-0.087351	-0.066468
C94	C	0.444788	0.412649	0.433532
C95	C	-0.030001	-0.087719	-0.132840
C96	C	0.469999	0.412281	0.367160
C97	C	0.020413	-0.088467	-0.132837
C98	C	0.520413	0.411533	0.367163
C99	C	0.020403	-0.088471	0.132655
C100	C	0.520403	0.411529	0.632655
C101	C	-0.030011	-0.087724	0.132646
C102	C	0.469989	0.412276	0.632646
C103	C	-0.055216	-0.087350	0.066272
C104	C	0.444784	0.412650	0.566272
C105	C	0.574614	0.038460	-0.000101
C106	C	1.074614	0.538460	0.499899
C107	C	0.573825	0.115959	-0.000107
C108	C	1.073825	0.615959	0.499893
C109	C	0.659203	-0.083156	-0.000098
C110	C	1.159203	0.416844	0.499902
C111	C	0.712862	-0.083939	-0.000102
C112	C	1.212862	0.416061	0.499898
C113	C	0.567016	-0.216924	-0.000065
C114	C	1.067016	0.283076	0.499935
C115	C	0.567806	-0.294423	-0.000054
C116	C	1.067806	0.205577	0.499946
N117	N	0.570806	-0.089228	-0.189784
N118	N	1.070806	0.410772	0.310216
C119	C	0.617504	0.161174	-0.000118
C120	C	1.117504	0.661174	0.499882
C121	C	0.616762	0.233993	-0.000106
C122	C	1.116762	0.733993	0.499894
C123	C	0.572338	0.261594	-0.000098
C124	C	1.072338	0.761594	0.499902
C125	C	0.528653	0.216369	-0.000082
C126	C	1.028653	0.716369	0.499918
C127	C	0.529396	0.143552	-0.000087
C128	C	1.029396	0.643552	0.499913
N129	N	0.538378	0.369373	-0.041530
N130	N	1.038378	0.869373	0.458470
N131	N	0.537675	0.438547	-0.041527
N132	N	1.037675	0.938547	0.458473
C133	C	0.570096	0.480987	-0.000083
C134	C	1.070096	0.980987	0.499917
N135	N	0.603254	0.451642	0.041350
N136	N	1.103254	0.951642	0.541350
N137	N	0.603959	0.382462	0.041344
N138	N	1.103959	0.882462	0.541344
C139	C	0.571527	0.340551	-0.000092
C140	C	1.071527	0.840551	0.499908
C141	C	0.612974	0.605161	-0.000080
C142	C	1.112974	1.105161	0.499920
C143	C	0.612231	0.677981	-0.000064
C144	C	1.112231	1.177981	0.499936
C145	C	0.524120	0.660356	-0.000047
C146	C	1.024120	1.160356	0.499953
C147	C	0.524865	0.587537	-0.000056
C148	C	1.024865	1.087537	0.499944
C149	C	0.569294	0.559945	-0.000076
C150	C	1.069294	1.059945	0.499924
C151	C	0.603791	-0.041413	-0.772073
C152	C	1.103791	0.458587	-0.272073
C153	C	0.603792	-0.041415	-0.695429
C154	C	1.103792	0.458585	-0.195429
C155	C	0.570821	-0.089227	-0.657096
C156	C	1.070821	0.410773	-0.157096
C157	C	0.537855	-0.137054	-0.695416
C158	C	1.037855	0.362946	-0.195416
C159	C	0.537859	-0.137055	-0.772059
C160	C	1.037859	0.362945	-0.272059
N161	N	0.528027	-0.098560	-0.536761
N162	N	1.028027	0.401440	-0.036761
N163	N	0.528025	-0.098554	-0.463953
N164	N	1.028025	0.401446	0.036047
C165	C	0.570809	-0.089226	-0.426174
C166	C	1.070809	0.410774	0.073826
N167	N	0.613597	-0.079890	-0.463953
N168	N	1.113597	0.420110	0.036047
N169	N	0.613598	-0.079892	-0.536768
N170	N	1.113598	0.420108	-0.036768
C171	C	0.570814	-0.089231	-0.573990
C172	C	1.070814	0.410769	-0.073990
C173	C	0.603776	-0.041407	-0.304757
C174	C	1.103776	0.458593	0.195243
C175	C	0.603777	-0.041414	-0.228111
C176	C	1.103777	0.458586	0.271889
C177	C	0.537836	-0.137050	-0.228099
C178	C	1.037836	0.362950	0.271901
C179	C	0.537839	-0.137046	-0.304744
C180	C	1.037839	0.362954	0.195256
C181	C	0.570808	-0.089222	-0.343068
C182	C	1.070808	0.410778	0.156932
N183	N	0.570828	-0.089231	0.189617
N184	N	1.070828	0.410769	0.689617
H185	H	-0.050532	-0.087424	0.186702
H186	H	0.449468	0.412576	0.686702
H187	H	0.649151	0.582695	-0.000093
H188	H	1.149151	1.082695	0.499907
C189	C	0.660281	0.727723	-0.000077
C190	C	1.160281	1.227723	0.499923
C191	C	0.671896	0.780191	0.063153
C192	C	1.171896	1.280191	0.563153
C193	C	0.719946	0.829934	0.063139
C194	C	1.219946	1.329934	0.563139
C195	C	0.756383	0.827210	-0.000105
C196	C	1.256383	1.327210	0.499895
C197	C	0.744770	0.774739	-0.063339
C198	C	1.244770	1.274739	0.436661
C199	C	0.696719	0.724996	-0.063325
C200	C	1.196719	1.224996	0.436675
H201	H	0.644922	0.782210	0.109974
H202	H	1.144922	1.282210	0.609974
H203	H	0.728543	0.868776	0.109949
H204	H	1.228543	1.368776	0.609949
H205	H	0.791953	0.864033	-0.000115
H206	H	1.291953	1.364033	0.499885
H207	H	0.771743	0.772720	-0.110160
H208	H	1.271743	1.272720	0.389840
H209	H	0.688122	0.686154	-0.110136
H210	H	1.188122	1.186154	0.389864
C211	C	-0.183782	-0.085465	-0.139491
C212	C	0.316218	0.414535	0.360509
C213	C	-0.196336	-0.146014	-0.194238
C214	C	0.303664	0.353986	0.305762
C215	C	-0.168611	-0.146422	-0.267255
C216	C	0.331389	0.353578	0.232745
C217	C	-0.128331	-0.086281	-0.285526
C218	C	0.371669	0.413719	0.214474
C219	C	-0.115775	-0.025726	-0.230777
C220	C	0.384225	0.474274	0.269223
C221	C	-0.143501	-0.025318	-0.157760
C222	C	0.356499	0.474682	0.342240
H223	H	-0.226155	-0.190539	-0.180715
H224	H	0.273845	0.309461	0.319285
H225	H	-0.177906	-0.191249	-0.307784
H226	H	0.322094	0.308751	0.192216
H227	H	-0.107807	-0.086583	-0.339577
H228	H	0.392193	0.413417	0.160423
H229	H	-0.085956	0.018798	-0.244301
H230	H	0.414044	0.518798	0.255699
H231	H	-0.134206	0.019508	-0.117232
H232	H	0.365794	0.519508	0.382768
C233	C	-0.289657	-0.083892	-0.139494
C234	C	0.210343	0.416108	0.360506
C235	C	-0.329941	-0.144027	-0.157744
C236	C	0.170059	0.355973	0.342256
C237	C	-0.357673	-0.143605	-0.230753
C238	C	0.142327	0.356395	0.269247
C239	C	-0.345121	-0.083047	-0.285513
C240	C	0.154879	0.416953	0.214487
C241	C	-0.304835	-0.022907	-0.267265
C242	C	0.195165	0.477093	0.232735
C243	C	-0.277103	-0.023330	-0.194255
C244	C	0.222897	0.476670	0.305745
H245	H	-0.339235	-0.188860	-0.117206
H246	H	0.160765	0.311140	0.382794
H247	H	-0.387495	-0.188124	-0.244262
H248	H	0.112505	0.311876	0.255738
H249	H	-0.365650	-0.082734	-0.339559
H250	H	0.134350	0.417266	0.160441
H251	H	-0.295542	0.021926	-0.307802
H252	H	0.204458	0.521926	0.192198
H253	H	-0.247281	0.021190	-0.180746
H254	H	0.252719	0.521190	0.319254
H255	H	0.487949	0.682827	-0.000036
H256	H	0.987949	1.182827	0.499964
H257	H	0.510992	-0.175982	-0.196890
H258	H	1.010992	0.324018	0.303110
H259	H	0.489296	0.550722	-0.000051
H260	H	0.989296	1.050722	0.499949
C261	C	0.199373	-0.091093	-0.205852
C262	C	0.699373	0.408907	0.294148
C263	C	0.186818	-0.151620	-0.260625
C264	C	0.686818	0.348380	0.239375
C265	C	0.214532	-0.151986	-0.333656
C266	C	0.714532	0.348014	0.166344
C267	C	0.254802	-0.091826	-0.351912
C268	C	0.754802	0.408174	0.148088
C269	C	0.267359	-0.031295	-0.297137
C270	C	0.767359	0.468705	0.202863
C271	C	0.239645	-0.030929	-0.224107
C272	C	0.739645	0.469071	0.275893
H273	H	0.157007	-0.196158	-0.247112
H274	H	0.657007	0.303842	0.252888
H275	H	0.205236	-0.196796	-0.374204
H276	H	0.705236	0.303204	0.125796
H277	H	0.275317	-0.092098	-0.405974
H278	H	0.775317	0.407902	0.094026
H279	H	0.297170	0.013243	-0.310650
H280	H	0.797170	0.513243	0.189350
H281	H	0.248941	0.013881	-0.183558
H282	H	0.748941	0.513881	0.316442
H283	H	0.492482	0.238846	-0.000074
H284	H	0.992482	0.738846	0.499926
H285	H	0.630622	-0.002477	-0.196918
H286	H	1.130622	0.497523	0.303082
C287	C	0.431284	-0.094560	0.139329
C288	C	0.931284	0.405440	0.639329
C289	C	0.418734	-0.155105	0.194104
C290	C	0.918734	0.344895	0.694104
C291	C	0.446466	-0.155507	0.267116
C292	C	0.946466	0.344493	0.767116
C293	C	0.486747	-0.095364	0.285352
C294	C	0.986747	0.404636	0.785352
C295	C	0.499298	-0.034814	0.230576
C296	C	0.999298	0.465186	0.730576
C297	C	0.471567	-0.034412	0.157564
C298	C	0.971567	0.465588	0.657564
H299	H	0.388914	-0.199631	0.180606
H300	H	0.888914	0.300369	0.680606
H301	H	0.437174	-0.200331	0.307665
H302	H	0.937174	0.299669	0.807665
H303	H	0.507275	-0.095662	0.339400
H304	H	1.007275	0.404338	0.839400
H305	H	0.529119	0.009711	0.244074
H306	H	1.029119	0.509711	0.744074
H307	H	0.480859	0.010411	0.117015
H308	H	0.980859	0.510411	0.617015
H309	H	0.424086	-0.094459	-0.120487
H310	H	0.924086	0.405541	0.379513
C311	C	0.093520	-0.089556	-0.205852
C312	C	0.593520	0.410444	0.294148
C313	C	0.094843	-0.150313	-0.260592
C314	C	0.594843	0.349687	0.239408
C315	C	0.067127	-0.149911	-0.333618
C316	C	0.567127	0.350089	0.166382
C317	C	0.038090	-0.088752	-0.351903
C318	C	0.538090	0.411248	0.148097
C319	C	0.036766	-0.027990	-0.297161
C320	C	0.536766	0.472010	0.202839
C321	C	0.064481	-0.028392	-0.224136
C322	C	0.564481	0.471608	0.275864
H323	H	0.116339	-0.195591	-0.247057
H324	H	0.616339	0.304409	0.252943
H325	H	0.068107	-0.194892	-0.374141
H326	H	0.568107	0.305108	0.125859
H327	H	0.017573	-0.088454	-0.405961
H328	H	0.517573	0.411546	0.094039
H329	H	0.015270	0.017288	-0.310696
H330	H	0.515270	0.517288	0.189304
H331	H	0.063501	0.016589	-0.183612
H332	H	0.563501	0.516589	0.316388
H333	H	0.630638	-0.002473	-0.803275
H334	H	1.130638	0.497527	-0.303275
C335	C	0.640052	0.011192	-0.653277
C336	C	1.140052	0.511192	-0.153277
C337	C	0.676315	0.063795	-0.695434
C338	C	1.176315	0.563795	-0.195434
C339	C	0.712574	0.116403	-0.653287
C340	C	1.212574	0.616403	-0.153287
C341	C	0.712570	0.116407	-0.568982
C342	C	1.212570	0.616407	-0.068982
C343	C	0.676305	0.063802	-0.526820
C344	C	1.176305	0.563802	-0.026820
C345	C	0.640046	0.011194	-0.568968
C346	C	1.140046	0.511194	-0.068968
H347	H	0.676320	0.063794	-0.757846
H348	H	1.176320	0.563794	-0.257846
H349	H	0.739420	0.155344	-0.684498
H350	H	1.239420	0.655344	-0.184498
H351	H	0.739411	0.155350	-0.537782
H352	H	1.239411	0.655350	-0.037782
H353	H	0.676300	0.063803	-0.464408
H354	H	1.176300	0.563803	0.035592
H355	H	0.613200	-0.027747	-0.537756
H356	H	1.113200	0.472253	-0.037756
C357	C	0.501586	-0.189648	-0.653255
C358	C	1.001586	0.310352	-0.153255
C359	C	0.501577	-0.189646	-0.568950
C360	C	1.001577	0.310354	-0.068950
C361	C	0.465308	-0.242245	-0.526790
C362	C	0.965308	0.257755	-0.026790
C363	C	0.429047	-0.294845	-0.568935
C364	C	0.929047	0.205155	-0.068935
C365	C	0.429054	-0.294849	-0.653245
C366	C	0.929054	0.205151	-0.153245
C367	C	0.465323	-0.242250	-0.695405
C368	C	0.965323	0.257750	-0.195405
H369	H	0.528421	-0.150706	-0.537747
H370	H	1.028421	0.349294	-0.037747
H371	H	0.465303	-0.242242	-0.464379
H372	H	0.965303	0.257758	0.035621
H373	H	0.402198	-0.333782	-0.537726
H374	H	0.902198	0.166218	-0.037726
H375	H	0.402210	-0.333789	-0.684447
H376	H	0.902210	0.166211	-0.184447
H377	H	0.465328	-0.242253	-0.757816
H378	H	0.965328	0.257747	-0.257816
H379	H	0.511016	-0.175995	-0.803252
H380	H	1.011016	0.324005	-0.303252
C381	C	0.501574	-0.189640	-0.346892
C382	C	1.001574	0.310360	0.153108
C383	C	0.446534	-0.189033	-0.336362
C384	C	0.946534	0.310967	0.163638
C385	C	0.410268	-0.241630	-0.378510
C386	C	0.910268	0.258370	0.121490
C387	C	0.429043	-0.294836	-0.431188
C388	C	0.929043	0.205164	0.068812
C389	C	0.484087	-0.295445	-0.441721
C390	C	0.984087	0.204555	0.058279
C391	C	0.520352	-0.242848	-0.399572
C392	C	1.020352	0.257152	0.100428
H393	H	0.432633	-0.149645	-0.297364
H394	H	0.932633	0.350355	0.202636
H395	H	0.369521	-0.241179	-0.370713
H396	H	0.869521	0.258821	0.129287
H397	H	0.402198	-0.333772	-0.462389
H398	H	0.902198	0.166228	0.037611
H399	H	0.497988	-0.334833	-0.480718
H400	H	0.997988	0.165167	0.019282
H401	H	0.561099	-0.243299	-0.407369
H402	H	1.061099	0.256701	0.092631
H403	H	0.332632	-0.093098	-0.120499
H404	H	0.832632	0.406902	0.379501
H405	H	0.100720	-0.089647	0.186720
H406	H	0.600720	0.410353	0.686720
C407	C	0.048122	-0.088886	0.205673
C408	C	0.548122	0.411114	0.705673
C409	C	0.046805	-0.028137	0.260426
C410	C	0.546805	0.471863	0.760426
C411	C	0.074520	-0.028557	0.333450
C412	C	0.574520	0.471443	0.833450
C413	C	0.103552	-0.089726	0.351722
C414	C	0.603552	0.410274	0.851722
C415	C	0.104871	-0.150479	0.296968
C416	C	0.604871	0.349521	0.796968
C417	C	0.077155	-0.150059	0.223944
C418	C	0.577155	0.349941	0.723944
H419	H	0.025312	0.017147	0.246901
H420	H	0.525312	0.517147	0.746901
H421	H	0.073544	0.016417	0.373982
H422	H	0.573544	0.516417	0.873982
H423	H	0.124069	-0.090037	0.405779
H424	H	0.624069	0.409963	0.905779
H425	H	0.126363	-0.195764	0.310493
H426	H	0.626363	0.304236	0.810493
H427	H	0.078131	-0.195033	0.183411
H428	H	0.578131	0.304967	0.683411
H429	H	0.653681	0.138714	-0.000132
H430	H	1.153681	0.638714	0.499868
C431	C	0.199381	-0.091103	0.205685
C432	C	0.699381	0.408897	0.705685
C433	C	0.198068	-0.030348	0.260431
C434	C	0.698068	0.469652	0.760431
C435	C	0.225792	-0.030758	0.333449
C436	C	0.725792	0.469242	0.833449
C437	C	0.254828	-0.091922	0.351721
C438	C	0.754828	0.408078	0.851721
C439	C	0.256142	-0.152682	0.296973
C440	C	0.756142	0.347318	0.796973
C441	C	0.228418	-0.152272	0.223955
C442	C	0.728418	0.347728	0.723955
H443	H	0.176573	0.014934	0.246907
H444	H	0.676573	0.514934	0.746907
H445	H	0.224819	0.014221	0.373977
H446	H	0.724819	0.514221	0.873977
H447	H	0.275351	-0.092226	0.405773
H448	H	0.775351	0.407774	0.905773
H449	H	0.277637	-0.197963	0.310497
H450	H	0.777637	0.302037	0.810497
H451	H	0.229391	-0.197250	0.183427
H452	H	0.729391	0.302750	0.683427
H453	H	-0.282455	-0.084018	0.120323
H454	H	0.217545	0.415982	0.620323
H455	H	-0.191000	-0.085354	0.120330
H456	H	0.309000	0.414646	0.620330
H457	H	0.332613	-0.093109	0.120360
H458	H	0.832613	0.406891	0.620360
C459	C	0.664812	0.283741	-0.000126
C460	C	1.164812	0.783741	0.499874
C461	C	0.713681	0.253391	-0.000150
C462	C	1.213681	0.753391	0.499850
C463	C	0.761731	0.303137	-0.000173
C464	C	1.261731	0.803137	0.499827
C465	C	0.760912	0.383233	-0.000172
C466	C	1.260912	0.883233	0.499828
C467	C	0.712042	0.413587	-0.000148
C468	C	1.212042	0.913587	0.499852
C469	C	0.663992	0.363841	-0.000125
C470	C	1.163992	0.863841	0.499875
H471	H	0.714289	0.194096	-0.000151
H472	H	1.214289	0.694096	0.499849
H473	H	0.797908	0.280666	-0.000190
H474	H	1.297908	0.780666	0.499810
H475	H	0.796481	0.420057	-0.000188
H476	H	1.296481	0.920057	0.499812
H477	H	0.711434	0.472882	-0.000147
H478	H	1.211434	0.972882	0.499853
H479	H	0.627815	0.386312	-0.000108
H480	H	1.127815	0.886312	0.499892
H481	H	0.040933	-0.088773	-0.186888
H482	H	0.540933	0.411227	0.313112
H483	H	-0.050532	-0.087419	-0.186884
H484	H	0.449468	0.412581	0.313116
H485	H	0.493825	0.106737	-0.000078
H486	H	0.993825	0.606737	0.499922
H487	H	0.630623	-0.002467	-0.335962
H488	H	1.130623	0.497533	0.164038
