data_functionalizedCrystal
_audit_creation_method	'MofGen! by Chris Wilmer'
_symmetry_space_group_name_H-M	'P1'
_symmetry_Int_Tables_number	1
_symmetry_cell_setting	triclinic
loop_
_symmetry_equiv_pos_as_xyz
  x,y,z
_cell_length_a	12.645330
_cell_length_b	19.805407
_cell_length_c	19.805399
_cell_angle_alpha	89.978936
_cell_angle_beta	90.021721
_cell_angle_gamma	89.983323
loop_
_atom_site_label
_atom_site_type_symbol
_atom_site_fract_x
_atom_site_fract_y
_atom_site_fract_z
Zn1	Zn	-0.422093	-1.034777	0.382774
Zn2	Zn	0.077907	-0.534777	0.882774
Zn3	Zn	-0.599371	-1.034709	0.269597
Zn4	Zn	-0.099371	-0.534709	0.769597
Zn5	Zn	-0.422119	-0.921591	0.269596
Zn6	Zn	0.077881	-0.421591	0.769596
Zn7	Zn	-0.599311	-0.921572	0.382741
Zn8	Zn	-0.099311	-0.421572	0.882741
O9	O	-0.510723	-0.978162	0.326177
O10	O	-0.010723	-0.478162	0.826177
O11	O	-0.445623	-1.129484	0.367775
O12	O	0.054377	-0.629484	0.867775
O13	O	-0.575894	-1.019683	0.174881
O14	O	-0.075894	-0.519683	0.674881
O15	O	-0.273768	-0.936642	0.284622
O16	O	0.226232	-0.436642	0.784622
O17	O	-0.575868	-1.129434	0.284625
O18	O	-0.075868	-0.629434	0.784625
O19	O	-0.273749	-1.019799	0.367774
O20	O	0.226251	-0.519799	0.867774
O21	O	-0.445667	-0.936576	0.174879
O22	O	0.054333	-0.436576	0.674879
O23	O	-0.445610	-0.826872	0.284590
O24	O	0.054390	-0.326872	0.784590
O25	O	-0.575767	-0.936609	0.477462
O26	O	-0.075767	-0.436609	0.977462
O27	O	-0.575792	-0.826858	0.367718
O28	O	-0.075792	-0.326858	0.867718
O29	O	-0.445565	-1.019780	0.477486
O30	O	0.054435	-0.519780	0.977486
O31	O	-0.747710	-1.019664	0.284593
O32	O	-0.247710	-0.519664	0.784593
O33	O	-0.747666	-0.936543	0.367719
O34	O	-0.247666	-0.436543	0.867719
C35	C	-0.510698	-0.802306	0.326151
C36	C	-0.010698	-0.302306	0.826151
C37	C	-0.510713	-0.727074	0.326155
C38	C	-0.010713	-0.227074	0.826155
C39	C	-0.578600	-0.691740	0.369369
C40	C	-0.078600	-0.191740	0.869369
C41	C	-0.578600	-0.621052	0.369377
C42	C	-0.078600	-0.121052	0.869377
C43	C	-0.510717	-0.585699	0.326167
C44	C	-0.010717	-0.085699	0.826167
C45	C	-0.442823	-0.621037	0.282952
C46	C	0.057177	-0.121037	0.782952
C47	C	-0.442818	-0.691725	0.282948
C48	C	0.057182	-0.191725	0.782948
C49	C	-0.442838	-0.335964	0.282966
C50	C	0.057162	0.164036	0.782966
C51	C	-0.442850	-0.265272	0.282972
C52	C	0.057150	0.234728	0.782972
C53	C	-0.578620	-0.265292	0.369395
C54	C	-0.078620	0.234708	0.869395
C55	C	-0.578616	-0.335979	0.369392
C56	C	-0.078616	0.164021	0.869392
C57	C	-0.510717	-0.371311	0.326179
C58	C	-0.010717	0.128689	0.826179
C59	C	-0.510717	-0.447960	0.326172
C60	C	-0.010717	0.052040	0.826172
C61	C	-0.510722	-0.509051	0.326170
C62	C	-0.010722	-0.009051	0.826170
C63	C	-0.786153	-0.978113	0.326168
C64	C	-0.286153	-0.478113	0.826168
C65	C	-0.903983	-0.978154	0.326186
C66	C	-0.403983	-0.478154	0.826186
C67	C	-1.071564	-0.926078	0.378642
C68	C	-0.571564	-0.426078	0.878642
C69	C	-0.949004	-0.925811	0.378474
C70	C	-0.449004	-0.425811	0.878474
C71	C	-0.948571	-0.958847	0.254853
C72	C	-0.448571	-0.458847	0.754853
C73	C	-1.071169	-0.958530	0.255172
C74	C	-0.571169	-0.458530	0.755172
C75	C	-1.071076	-1.049854	0.344485
C76	C	-0.571076	-0.549854	0.844485
C77	C	-0.948469	-1.049415	0.346044
C78	C	-0.448469	-0.549415	0.846044
C79	C	-0.234218	-0.978230	0.326201
C80	C	0.265782	-0.478230	0.826201
C81	C	-0.116388	-0.978259	0.326212
C82	C	0.383612	-0.478259	0.826212
C83	C	-0.510657	-0.978200	0.502720
C84	C	-0.010657	-0.478200	1.002720
C85	C	-0.510628	-0.978216	0.577952
C86	C	-0.010628	-0.478216	1.077952
C87	C	-0.510742	-0.154705	0.326198
C88	C	-0.010742	0.345295	0.826198
C89	C	-0.510733	-0.229937	0.326190
C90	C	-0.010733	0.270063	0.826190
C91	C	-0.510713	-0.978163	0.150321
C92	C	-0.010713	-0.478163	0.650321
C93	C	-0.510443	-0.978278	0.075090
C94	C	-0.010443	-0.478278	0.575090
C95	C	-0.442829	-1.021524	0.613310
C96	C	0.057171	-0.521524	1.113310
C97	C	-0.442798	-1.021531	0.683998
C98	C	0.057202	-0.521531	1.183998
C99	C	-0.510573	-0.978233	0.719328
C100	C	-0.010573	-0.478233	1.219328
C101	C	-0.578375	-0.934920	0.683965
C102	C	-0.078375	-0.434920	1.183965
C103	C	-0.578400	-0.934910	0.613278
C104	C	-0.078400	-0.434910	1.113278
C105	C	-0.578276	-0.934958	0.969038
C106	C	-0.078276	-0.434958	1.469038
C107	C	-0.578249	-0.934973	1.039730
C108	C	-0.078249	-0.434973	1.539730
C109	C	-0.442674	-1.021579	1.039759
C110	C	0.057326	-0.521579	1.539759
C111	C	-0.442699	-1.021570	0.969072
C112	C	0.057301	-0.521570	1.469072
C113	C	-0.510497	-0.978255	0.933715
C114	C	-0.010497	-0.478255	1.433715
C115	C	-0.510528	-0.978247	0.857067
C116	C	-0.010528	-0.478247	1.357067
C117	C	-0.510548	-0.978244	0.795975
C118	C	-0.010548	-0.478244	1.295975
H119	H	-0.633902	-0.236515	0.404584
H120	H	-0.133902	0.263485	0.904584
H121	H	-0.633598	-0.899638	0.584490
H122	H	-0.133598	-0.399638	1.084490
H123	H	-1.100824	-0.994887	0.214775
H124	H	-0.600824	-0.494887	0.714775
C125	C	-0.368172	-0.374821	0.235423
C126	C	0.131828	0.125179	0.735423
H127	H	-0.327759	-0.343640	0.209683
H128	H	0.172241	0.156360	0.709683
H129	H	-0.322026	-0.402418	0.261354
H130	H	0.177974	0.097582	0.761354
H131	H	-0.408677	-0.402373	0.205886
H132	H	0.091323	0.097627	0.705886
H133	H	-0.387591	-1.056799	0.712784
H134	H	0.112409	-0.556799	1.212784
C135	C	-0.653283	-0.374864	0.416924
C136	C	-0.153283	0.125136	0.916924
H137	H	-0.693708	-0.343696	0.442667
H138	H	-0.193708	0.156304	0.942667
H139	H	-0.699418	-0.402423	0.390984
H140	H	-0.199418	0.097577	0.890984
H141	H	-0.612777	-0.402455	0.446459
H142	H	-0.112777	0.097545	0.946459
H143	H	-1.100062	-1.088731	0.306297
H144	H	-0.600062	-0.588731	0.806297
C145	C	-0.909178	-1.008555	0.200632
C146	C	-0.409178	-0.508555	0.700632
H147	H	-0.937077	-0.995950	0.157901
H148	H	-0.437077	-0.495950	0.657901
H149	H	-0.834124	-1.007475	0.198946
H150	H	-0.334124	-0.507475	0.698946
H151	H	-0.932049	-1.052909	0.211594
H152	H	-0.432049	-0.552909	0.711594
C153	C	-0.368157	-0.582151	0.235420
C154	C	0.131843	-0.082151	0.735420
H155	H	-0.377889	-0.534991	0.241605
H156	H	0.122111	-0.034991	0.741605
H157	H	-0.296947	-0.593748	0.245398
H158	H	0.203053	-0.093748	0.745398
H159	H	-0.383587	-0.593716	0.189924
H160	H	0.116413	-0.093716	0.689924
C161	C	-0.368148	-1.069195	0.930210
C162	C	0.131852	-0.569195	1.430210
H163	H	-0.377879	-1.062990	0.883047
H164	H	0.122121	-0.562990	1.383047
H165	H	-0.296915	-1.059308	0.941799
H166	H	0.203085	-0.559308	1.441799
H167	H	-0.383670	-1.114673	0.941802
H168	H	0.116330	-0.614673	1.441802
H169	H	-0.387565	-0.236489	0.247786
H170	H	0.112435	0.263511	0.747786
H171	H	-0.387642	-1.056785	0.584550
H172	H	0.112358	-0.556785	1.084550
C173	C	-0.907234	-0.888879	0.233566
C174	C	-0.407234	-0.388879	0.733566
H175	H	-0.862816	-0.871339	0.268049
H176	H	-0.362816	-0.371339	0.768049
H177	H	-0.868104	-0.892921	0.192834
H178	H	-0.368104	-0.392921	0.692834
H179	H	-0.965290	-0.859204	0.226698
H180	H	-0.465290	-0.359204	0.726698
C181	C	-0.368090	-1.069221	1.078653
C182	C	0.131910	-0.569221	1.578653
H183	H	-0.377770	-1.063024	1.125812
H184	H	0.122230	-0.563024	1.625812
H185	H	-0.383619	-1.114692	1.067077
H186	H	0.116381	-0.614692	1.567077
H187	H	-0.296861	-1.059330	1.067071
H188	H	0.203139	-0.559330	1.567071
C189	C	-0.652797	-0.887338	1.078592
C190	C	-0.152797	-0.387338	1.578592
H191	H	-0.693171	-0.861534	1.047411
H192	H	-0.193171	-0.361534	1.547411
H193	H	-0.698984	-0.913219	1.106168
H194	H	-0.198984	-0.413219	1.606168
H195	H	-0.612216	-0.857863	1.106164
H196	H	-0.112216	-0.357863	1.606164
C197	C	-1.112740	-1.073647	0.413560
C198	C	-0.612740	-0.573647	0.913560
H199	H	-1.158164	-1.040134	0.431904
H200	H	-0.658164	-0.540134	0.931904
H201	H	-1.150868	-1.114601	0.408084
H202	H	-0.650868	-0.614601	0.908084
H203	H	-1.054887	-1.080867	0.443316
H204	H	-0.554887	-0.580867	0.943316
C205	C	-0.652829	-0.887300	0.930155
C206	C	-0.152829	-0.387300	1.430155
H207	H	-0.693187	-0.861516	0.961322
H208	H	-0.193187	-0.361516	1.461322
H209	H	-0.612259	-0.857819	0.902587
H210	H	-0.112259	-0.357819	1.402587
H211	H	-0.699048	-0.913162	0.902572
H212	H	-0.199048	-0.413162	1.402572
C213	C	-0.368141	-0.730592	0.235414
C214	C	0.131859	-0.230592	0.735414
H215	H	-0.327718	-0.699414	0.209677
H216	H	0.172282	-0.199414	0.709677
H217	H	-0.322005	-0.758184	0.261357
H218	H	0.177995	-0.258184	0.761357
H219	H	-0.408632	-0.758149	0.205874
H220	H	0.091368	-0.258149	0.705874
C221	C	-0.652927	-0.887294	0.722825
C222	C	-0.152927	-0.387294	1.222825
H223	H	-0.643211	-0.893507	0.769988
H224	H	-0.143211	-0.393507	1.269988
H225	H	-0.637412	-0.841818	0.711234
H226	H	-0.137412	-0.341818	1.211234
H227	H	-0.724163	-0.897186	0.711234
H228	H	-0.224163	-0.397186	1.211234
H229	H	-0.633882	-0.592286	0.404565
H230	H	-0.133882	-0.092286	0.904565
C231	C	-1.111432	-0.942179	0.450316
C232	C	-0.611432	-0.442179	0.950316
H233	H	-1.155763	-0.980873	0.448911
H234	H	-0.655763	-0.480873	0.948911
H235	H	-1.052812	-0.950787	0.479069
H236	H	-0.552812	-0.450787	0.979069
H237	H	-1.150381	-0.904791	0.467178
H238	H	-0.650381	-0.404791	0.967178
H239	H	-0.633882	-0.720520	0.404553
H240	H	-0.133882	-0.220520	0.904553
H241	H	-0.918855	-0.937890	0.431366
H242	H	-0.418855	-0.437890	0.931366
C243	C	-1.113301	-0.854822	0.362506
C244	C	-0.613301	-0.354822	0.862506
H245	H	-1.085847	-0.823607	0.394424
H246	H	-0.585847	-0.323607	0.894424
H247	H	-1.091473	-0.842126	0.318405
H248	H	-0.591473	-0.342126	0.818405
H249	H	-1.188345	-0.854771	0.364747
H250	H	-0.688345	-0.354771	0.864747
C251	C	-0.909499	-0.854113	0.362110
C252	C	-0.409499	-0.354113	0.862110
H253	H	-0.968379	-0.825036	0.355534
H254	H	-0.468379	-0.325036	0.855534
H255	H	-0.867776	-0.837847	0.398528
H256	H	-0.367776	-0.337847	0.898528
H257	H	-0.867984	-0.855220	0.322158
H258	H	-0.367984	-0.355220	0.822158
C259	C	-1.109931	-0.887828	0.234268
C260	C	-0.609931	-0.387828	0.734268
H261	H	-1.050751	-0.859570	0.225665
H262	H	-0.550751	-0.359570	0.725665
H263	H	-1.151803	-0.891298	0.194590
H264	H	-0.651803	-0.391298	0.694590
H265	H	-1.151137	-0.868991	0.269665
H266	H	-0.651137	-0.368991	0.769665
C267	C	-0.909084	-1.069093	0.416957
C268	C	-0.409084	-0.569093	0.916957
H269	H	-0.865705	-1.034033	0.434393
H270	H	-0.365705	-0.534033	0.934393
H271	H	-0.967965	-1.075704	0.445985
H272	H	-0.467965	-0.575704	0.945985
H273	H	-0.869257	-1.109679	0.414237
H274	H	-0.369257	-0.609679	0.914237
H275	H	-0.917817	-1.090340	0.310638
H276	H	-0.417817	-0.590340	0.810638
