data_functionalizedCrystal
_audit_creation_method	'MofGen! by Chris Wilmer'
_symmetry_space_group_name_H-M	'P1'
_symmetry_Int_Tables_number	1
_symmetry_cell_setting	triclinic
loop_
_symmetry_equiv_pos_as_xyz
  x,y,z
_cell_length_a	13.897449
_cell_length_b	16.120444
_cell_length_c	16.120256
_cell_angle_alpha	84.383140
_cell_angle_beta	87.123251
_cell_angle_gamma	92.927498
loop_
_atom_site_label
_atom_site_type_symbol
_atom_site_fract_x
_atom_site_fract_y
_atom_site_fract_z
Zn1	Zn	1.424974	-0.356749	0.489495
Zn2	Zn	1.424850	-0.489435	0.356806
Zn3	Zn	1.272283	-0.349682	0.349736
Zn4	Zn	1.255009	-0.496482	0.496526
O5	O	1.344279	-0.423087	0.423141
O6	O	1.559938	-0.374358	0.471910
O7	O	1.411789	-0.464990	0.238906
O8	O	1.299819	-0.233653	0.362374
O9	O	1.559846	-0.471842	0.374424
O10	O	1.412000	-0.238845	0.465054
O11	O	1.299699	-0.362314	0.233712
O12	O	1.135012	-0.369147	0.369192
O13	O	1.270378	-0.483853	0.612555
O14	O	1.122321	-0.477001	0.477037
O15	O	1.395250	-0.381191	0.607390
O16	O	1.395039	-0.607336	0.381241
O17	O	1.270258	-0.612514	0.483893
C18	C	1.093667	-0.423073	0.423111
C19	C	0.986452	-0.423088	0.423119
C20	C	0.899381	-0.423091	0.423133
C21	C	0.790147	-0.423098	0.423159
C22	C	1.330786	-0.640254	0.434115
C23	C	1.325099	-0.733160	0.438838
C24	C	1.374001	-0.942068	0.398820
C25	C	1.314735	-0.903255	0.447470
C26	C	1.320504	-0.808605	0.442666
C27	C	1.368234	-1.036726	0.403623
C28	C	1.595869	-0.423102	0.423171
C29	C	1.703082	-0.423108	0.423184
C30	C	1.330901	-0.434097	0.641148
C31	C	1.325200	-0.438788	0.734049
C32	C	1.357851	-0.205073	0.412141
C33	C	1.363634	-0.112169	0.407454
C34	C	1.357664	-0.412060	0.205979
C35	C	1.363566	-0.407133	0.113066
C36	C	1.374008	-0.398599	0.942976
C37	C	1.314762	-0.447319	0.904134
C38	C	1.320572	-0.442571	0.809490
C39	C	1.368199	-0.403346	1.037628
H40	H	1.259664	-0.941111	0.492729
H41	H	1.429068	-0.904216	0.353563
H42	H	1.259672	-0.492591	0.941960
Br43	Br	1.465801	-0.323126	0.879932
