data_functionalizedCrystal
_audit_creation_method	'MofGen! by Chris Wilmer'
_symmetry_space_group_name_H-M	'P1'
_symmetry_Int_Tables_number	1
_symmetry_cell_setting	triclinic
loop_
_symmetry_equiv_pos_as_xyz
  x,y,z
_cell_length_a	10.654550
_cell_length_b	10.540539
_cell_length_c	9.130313
_cell_angle_alpha	90.000859
_cell_angle_beta	89.996220
_cell_angle_gamma	84.505197
loop_
_atom_site_label
_atom_site_type_symbol
_atom_site_fract_x
_atom_site_fract_y
_atom_site_fract_z
O1	O	1.667897	0.178295	-0.121912
O2	O	1.302424	0.195282	-0.121888
O3	O	1.493499	0.002079	-0.121899
O4	O	1.476823	0.371498	-0.121902
O5	O	1.493496	0.002084	0.121700
O6	O	1.302422	0.195287	0.121711
O7	O	1.667894	0.178300	0.121686
Cu8	Cu	1.485158	0.186794	0.143941
Cu9	Cu	1.485161	0.186788	-0.144143
O10	O	1.476820	0.371503	0.121697
C11	C	1.255625	0.194038	-0.000086
C12	C	1.116180	0.190306	-0.000077
C13	C	1.036734	0.304061	-0.000099
C14	C	0.905712	0.300547	-0.000124
C15	C	0.933595	0.069513	-0.000111
C16	C	1.064614	0.073028	-0.000075
C17	C	1.020636	0.437446	-0.000113
C18	C	0.889614	0.433932	-0.000138
C19	C	1.492247	-0.045221	-0.000102
C20	C	1.488505	-0.186168	-0.000110
C21	C	1.345134	-0.369543	-0.000647
C22	C	1.348927	-0.222926	-0.000099
C23	C	1.555675	-0.247846	0.138993
C24	C	1.550912	-0.394389	0.139110
C25	C	1.553753	-0.394914	-0.137907
C26	C	1.555039	-0.247933	-0.139747
C27	C	1.714694	0.179545	-0.000119
C28	C	1.854139	0.183276	-0.000138
C29	C	1.478072	0.418803	-0.000103
C30	C	1.481813	0.559750	-0.000105
N31	N	1.485165	0.186798	0.346564
N32	N	1.485163	0.186774	-0.346765
C33	C	1.569795	0.101277	0.423211
C34	C	1.569791	0.101262	0.576548
C35	C	1.400525	0.272300	0.576577
C36	C	1.400523	0.272308	0.423243
C37	C	1.667523	0.002533	0.423195
C38	C	1.667520	0.002518	0.576532
H39	H	1.056307	0.479916	-0.105285
H40	H	1.656802	-0.223748	-0.148154
O41	O	0.835329	0.482116	0.125383
C42	C	0.867556	0.576085	0.361370
C43	C	0.929195	0.521585	0.219281
H44	H	0.943422	0.607985	0.437337
H45	H	0.797104	0.661090	0.334053
H46	H	0.816506	0.499433	0.417951
H47	H	0.980313	0.598144	0.162630
H48	H	0.999579	0.436551	0.246692
O49	O	1.055832	0.499508	0.121554
C50	C	1.178952	0.487350	0.343357
C51	C	1.139219	0.416931	0.205618
H52	H	1.246356	0.420609	0.411377
H53	H	1.228015	0.574251	0.309472
H54	H	1.091815	0.519306	0.411247
H55	H	1.226290	0.384890	0.137667
H56	H	1.090110	0.330089	0.239604
O57	O	1.631151	-0.107598	0.633031
C58	C	1.562649	-0.314433	0.582124
C59	C	1.603821	-0.189801	0.517942
H60	H	1.540516	-0.380917	0.489107
H61	H	1.641935	-0.362555	0.652320
H62	H	1.474921	-0.292047	0.652479
H63	H	1.691521	-0.212077	0.447522
H64	H	1.524461	-0.141714	0.447830
H65	H	0.891593	-0.025971	-0.000133
H66	H	1.501268	-0.422569	0.243099
H67	H	1.296074	-0.180306	-0.099813
O68	O	1.285272	-0.173211	0.119021
C69	C	1.087083	-0.146184	0.247778
C70	C	1.159025	-0.202574	0.112812
H71	H	0.984993	-0.169880	0.242787
H72	H	1.133351	-0.188526	0.351657
H73	H	1.089633	-0.038309	0.248757
H74	H	1.156499	-0.310447	0.111691
H75	H	1.112734	-0.160134	0.008995
O76	O	1.500006	-0.197234	0.262604
C77	C	1.389413	-0.237248	0.485598
C78	C	1.452452	-0.294733	0.345691
H79	H	1.350925	-0.316045	0.552797
H80	H	1.461788	-0.189832	0.553239
H81	H	1.308772	-0.163278	0.454274
H82	H	1.533084	-0.368752	0.376883
H83	H	1.379999	-0.342068	0.278086
H84	H	0.847900	0.484188	-0.102092
H85	H	1.289998	-0.398125	-0.100399
O86	O	1.318137	0.355234	0.651002
C87	C	1.100426	0.427600	0.697870
C88	C	1.193592	0.333584	0.613523
H89	H	0.999713	0.410148	0.667576
H90	H	1.114851	0.412901	0.820646
H91	H	1.117756	0.529427	0.667755
H92	H	1.176319	0.231721	0.643515
H93	H	1.179146	0.348395	0.490768
O94	O	1.500043	-0.432696	-0.263727
C95	C	1.528394	-0.554303	-0.486755
C96	C	1.589385	-0.511636	-0.344316
H97	H	1.600606	-0.618112	-0.551966
H98	H	1.444516	-0.609396	-0.458951
H99	H	1.494920	-0.466898	-0.554851
H100	H	1.622935	-0.598970	-0.276153
H101	H	1.673207	-0.456499	-0.372224
H102	H	1.505891	-0.207059	-0.242651
O103	O	1.776416	0.039384	0.366679
C104	C	1.980967	0.108806	0.417556
C105	C	1.857725	0.067062	0.481756
H106	H	2.046728	0.131222	0.510563
H107	H	2.028631	0.028712	0.347321
H108	H	1.958735	0.197484	0.347235
H109	H	1.879848	-0.021587	0.552142
H110	H	1.810096	0.147232	0.551907
O111	O	1.782706	0.028240	0.626263
C112	C	1.965973	-0.045208	0.768374
C113	C	1.835567	-0.074513	0.712122
H114	H	2.008739	-0.128254	0.837828
H115	H	2.030412	-0.030754	0.671325
H116	H	1.955267	0.045136	0.837699
H117	H	1.846153	-0.164868	0.642822
H118	H	1.771176	-0.088887	0.809236
H119	H	1.290221	-0.399728	0.098554
H120	H	1.651295	-0.442394	0.145414
H121	H	1.129295	-0.019602	-0.000036
H122	H	1.658178	-0.225529	0.144158
H123	H	1.654570	-0.442177	-0.138850
H124	H	1.331600	0.341934	0.360838
H125	H	1.646046	-0.095040	0.381578
