data_functionalizedCrystal
_audit_creation_method	'MofGen! by Chris Wilmer'
_symmetry_space_group_name_H-M	'P1'
_symmetry_Int_Tables_number	1
_symmetry_cell_setting	triclinic
loop_
_symmetry_equiv_pos_as_xyz
  x,y,z
_cell_length_a	12.784890
_cell_length_b	22.010155
_cell_length_c	12.811434
_cell_angle_alpha	84.570604
_cell_angle_beta	78.599450
_cell_angle_gamma	90.014590
loop_
_atom_site_label
_atom_site_type_symbol
_atom_site_fract_x
_atom_site_fract_y
_atom_site_fract_z
O1	O	1.410365	0.050145	0.006560
O2	O	1.101106	0.047673	0.051494
O3	O	1.263522	0.057366	-0.124476
O4	O	1.247949	0.040452	0.182529
O5	O	1.263473	-0.043685	-0.124471
O6	O	1.101057	-0.053377	0.051498
O7	O	1.410316	-0.050906	0.006564
Cu8	Cu	1.255682	-0.061368	0.029031
Cu9	Cu	1.255740	0.058136	0.029026
O10	O	1.247900	-0.060598	0.182533
C11	C	1.061495	-0.003012	0.054418
C12	C	0.943539	-0.003490	0.063114
N13	N	1.255649	-0.145421	0.029033
C14	C	0.765040	-0.009493	0.172093
C15	C	0.875869	-0.009043	0.163929
C16	C	0.900372	0.001616	-0.029545
C17	C	0.789543	0.001167	-0.021382
C18	C	0.721880	-0.004389	0.079440
C19	C	0.611049	-0.004843	0.087603
C20	C	0.635554	0.005820	-0.105871
C21	C	0.746383	0.006270	-0.114034
C22	C	1.320457	-0.568384	0.086804
C23	C	1.320470	-0.631991	0.086800
O24	O	1.375534	-0.667589	0.135915
N25	N	1.255761	-0.660627	0.029012
C26	C	1.191043	-0.625651	-0.028784
O27	O	1.136005	-0.655848	-0.077939
C28	C	1.191037	-0.562044	-0.028786
C29	C	1.255742	-0.533413	0.029014
C30	C	1.385158	-0.539752	0.144599
C31	C	1.385144	-0.476149	0.144604
C32	C	1.320429	-0.441178	0.086814
C33	C	1.255728	-0.469810	0.029019
C34	C	1.126325	-0.527069	-0.086588
C35	C	1.126326	-0.463458	-0.086586
C36	C	1.191031	-0.434827	-0.028785
C37	C	1.190998	-0.371236	-0.028765
N38	N	1.255707	-0.342600	0.029023
C39	C	1.320423	-0.377571	0.086812
C40	C	1.191062	-0.759229	-0.028778
C41	C	1.191062	-0.822835	-0.028770
C42	C	1.320490	-0.829171	0.086813
C43	C	1.320484	-0.765564	0.086811
C44	C	1.255771	-0.730593	0.029010
C45	C	1.320387	-0.244000	0.086820
C46	C	1.320364	-0.180392	0.086823
C47	C	1.190940	-0.174061	-0.028764
C48	C	1.190958	-0.237664	-0.028764
C49	C	1.255691	-0.272633	0.029031
O50	O	1.135965	-0.335598	-0.077859
O51	O	1.375462	-0.347365	0.135947
C52	C	1.449927	-0.000219	0.003639
C53	C	1.567883	0.000263	-0.005056
C54	C	1.262627	0.008992	-0.163498
C55	C	1.260020	0.015402	-0.279778
N56	N	1.255781	0.142189	0.029015
C57	C	1.256368	0.079510	-0.443669
C58	C	1.258821	0.073494	-0.334415
C59	C	1.258769	-0.036677	-0.334402
C60	C	1.256315	-0.030661	-0.443656
C61	C	1.255114	0.027435	-0.498286
C62	C	1.252653	0.033450	-0.607540
C63	C	1.252608	-0.076720	-0.607527
C64	C	1.255061	-0.082737	-0.498273
C65	C	1.248795	-0.012223	0.221556
C66	C	1.251401	-0.018629	0.337835
H67	H	0.709948	-0.014024	0.254186
N68	N	0.538066	-0.010852	0.196340
H69	H	0.582230	-0.014020	0.253795
H70	H	0.491552	0.026184	0.203958
H71	H	1.251667	0.080755	-0.652016
H72	H	1.073637	-0.550369	-0.133657
H73	H	1.255374	0.126814	-0.488146
H74	H	1.251579	-0.119124	-0.652005
H75	H	1.259844	0.115900	-0.289951
N76	N	0.819368	0.012254	-0.222771
H77	H	0.775206	0.015417	-0.280227
H78	H	0.865903	0.050134	-0.230380
N79	N	1.454946	-0.445272	0.206932
H80	H	1.495944	-0.477085	0.243530
H81	H	1.506682	-0.416096	0.156468
H82	H	1.437862	-0.568219	0.191658
N83	N	0.589006	0.011321	-0.205812
H84	H	0.508529	0.010191	-0.185345
H85	H	0.613741	0.051187	-0.249486
N86	N	0.973359	0.007608	-0.138281
H87	H	0.959445	0.047320	-0.179152
H88	H	1.050086	0.007093	-0.129296
H89	H	1.138359	-0.846141	-0.075824
H90	H	1.259759	-0.083976	-0.289907
H91	H	1.373054	-0.157084	0.133896
H92	H	1.256044	-0.130036	-0.453779
H93	H	0.911004	-0.013200	0.239376
H94	H	1.373099	-0.272464	0.133880
N95	N	1.390275	-0.734685	0.149149
H96	H	1.431267	-0.766497	0.185757
H97	H	1.442016	-0.705509	0.098692
H98	H	1.138355	-0.730760	-0.075841
H99	H	1.073628	-0.434988	-0.133656
H100	H	1.373183	-0.857656	0.133870
H101	H	1.138257	-0.260978	-0.075815
N102	N	1.121153	-0.136336	-0.091103
H103	H	1.130976	-0.091698	-0.082333
H104	H	1.141834	-0.143144	-0.169313
