data_functionalizedCrystal
_audit_creation_method	'MofGen! by Chris Wilmer'
_symmetry_space_group_name_H-M	'P1'
_symmetry_Int_Tables_number	1
_symmetry_cell_setting	triclinic
loop_
_symmetry_equiv_pos_as_xyz
  x,y,z
_cell_length_a	19.077105
_cell_length_b	19.077068
_cell_length_c	19.076919
_cell_angle_alpha	94.470751
_cell_angle_beta	90.076224
_cell_angle_gamma	90.115316
loop_
_atom_site_label
_atom_site_type_symbol
_atom_site_fract_x
_atom_site_fract_y
_atom_site_fract_z
Zn1	Zn	1.044048	-0.340450	-0.453500
Zn2	Zn	1.043962	-0.453600	-0.340340
Zn3	Zn	0.931660	-0.331023	-0.330931
Zn4	Zn	0.921801	-0.453176	-0.453077
O5	O	0.985368	-0.394562	-0.394462
O6	O	1.142196	-0.359583	-0.442604
O7	O	1.033154	-0.433572	-0.240616
O8	O	0.950731	-0.233799	-0.343429
O9	O	1.142133	-0.442714	-0.359466
O10	O	1.033302	-0.240725	-0.433479
O11	O	0.950647	-0.343516	-0.233703
O12	O	0.832193	-0.343104	-0.343019
O13	O	0.933928	-0.441990	-0.551609
O14	O	0.824949	-0.432849	-0.432759
O15	O	1.023742	-0.359171	-0.551919
O16	O	1.023594	-0.552019	-0.359056
O17	O	0.933844	-0.551707	-0.441883
C18	C	0.803119	-0.386908	-0.386822
C19	C	0.725151	-0.383651	-0.383571
C20	C	0.977658	-0.577398	-0.401461
C21	C	0.974423	-0.655619	-0.404482
C22	C	0.684769	-0.428912	-0.428699
C23	C	0.611510	-0.425842	-0.425647
C24	C	0.578634	-0.377515	-0.377464
C25	C	0.619022	-0.332250	-0.332335
C26	C	0.692280	-0.335317	-0.335390
C27	C	0.359940	-0.363323	-0.363326
C28	C	0.286677	-0.360262	-0.360273
C29	C	0.279170	-0.453853	-0.453586
C30	C	0.352429	-0.456918	-0.456635
C31	C	0.392810	-0.411651	-0.411508
N32	N	0.503752	-0.374378	-0.374342
N33	N	0.467691	-0.414785	-0.414634
C34	C	1.019665	-0.692509	-0.362816
C35	C	1.016626	-0.766007	-0.365661
C36	C	0.968342	-0.802612	-0.410169
C37	C	0.923098	-0.765717	-0.451839
C38	C	0.926141	-0.692221	-0.448997
C39	C	0.954231	-1.022406	-0.423292
C40	C	0.951190	-1.095907	-0.426130
C41	C	1.044720	-1.096192	-0.339952
C42	C	1.047755	-1.022695	-0.337111
C43	C	1.002514	-0.985806	-0.378784
N44	N	0.965233	-0.877738	-0.413077
N45	N	1.005627	-0.910681	-0.375880
C46	C	1.168328	-0.402247	-0.402132
C47	C	1.246295	-0.405522	-0.405400
C48	C	0.977745	-0.401585	-0.578012
C49	C	0.974497	-0.404578	-0.656230
C50	C	0.993126	-0.211015	-0.387451
C51	C	0.996432	-0.132798	-0.384464
C52	C	1.019730	-0.362866	-0.693140
C53	C	1.016669	-0.365675	-0.766634
C54	C	0.968378	-0.410200	-0.803216
C55	C	0.923140	-0.451913	-0.766301
C56	C	0.926198	-0.449100	-0.692809
C57	C	0.954216	-0.423233	-1.022998
C58	C	0.951163	-0.426044	-1.096496
C59	C	1.044691	-0.339805	-1.096823
C60	C	1.047748	-0.337000	-1.023329
C61	C	1.002507	-0.378710	-0.986421
N62	N	0.965250	-0.413073	-0.878339
N63	N	1.005632	-0.375832	-0.911299
C64	C	0.993003	-0.387518	-0.211626
C65	C	0.996396	-0.384333	-0.133406
H66	H	0.711530	-0.468267	-0.467932
H67	H	0.883787	-0.795527	-0.488082
H68	H	0.889357	-0.483058	-0.662757
O69	O	0.882123	-0.656490	-0.489497
C70	C	0.838866	-0.704558	-0.529405
H71	H	0.835482	-0.755758	-0.502502
H72	H	0.861974	-0.715456	-0.584244
C73	C	0.769128	-0.610299	-0.568304
C74	C	0.764966	-0.673181	-0.535258
H75	H	0.723544	-0.590943	-0.571918
H76	H	0.798272	-0.577914	-0.541420
H77	H	0.788388	-0.619389	-0.614000
H78	H	0.745715	-0.664089	-0.489560
H79	H	0.735817	-0.705564	-0.562135
H80	H	1.059056	-0.326612	-0.663360
H81	H	0.592249	-0.292898	-0.293106
O82	O	0.240048	-0.497886	-0.497458
C83	C	0.284774	-0.541181	-0.540656
H84	H	0.338083	-0.544662	-0.514093
H85	H	0.291443	-0.517859	-0.593481
C86	C	0.187136	-0.611003	-0.584990
C87	C	0.252609	-0.615283	-0.552363
H88	H	0.167295	-0.656712	-0.592215
H89	H	0.157002	-0.581833	-0.555889
H90	H	0.192703	-0.591565	-0.629008
H91	H	0.247041	-0.634712	-0.508343
H92	H	0.282741	-0.644458	-0.581457
H93	H	0.883818	-0.488163	-0.796093
O94	O	1.094549	-0.293678	-0.987725
C95	C	1.058278	-0.244913	-0.941833
H96	H	1.004542	-0.267101	-0.929527
H97	H	1.051567	-0.193541	-0.967865
C98	C	1.166312	-0.203818	-0.888275
C99	C	1.100314	-0.231072	-0.873156
H100	H	1.192243	-0.195276	-0.845913
H101	H	1.190749	-0.236669	-0.919195
H102	H	1.160710	-0.161010	-0.909970
H103	H	1.105917	-0.273882	-0.851470
H104	H	1.075879	-0.198227	-0.842231
H105	H	1.053504	-0.331711	-0.796682
H106	H	1.053467	-0.796040	-0.331732
H107	H	0.917392	-0.992377	-0.457223
O108	O	0.572387	-0.469888	-0.469506
C109	C	0.617113	-0.513194	-0.512693
H110	H	0.670425	-0.516659	-0.486135
H111	H	0.623773	-0.489893	-0.565530
C112	C	0.519477	-0.583041	-0.556990
C113	C	0.584955	-0.587301	-0.524367
H114	H	0.499640	-0.628753	-0.564194
H115	H	0.489344	-0.553863	-0.527896
H116	H	0.525036	-0.563620	-0.601017
H117	H	0.579394	-0.606713	-0.480338
H118	H	0.615086	-0.616484	-0.553454
O119	O	0.254853	-0.313249	-0.313446
C120	C	0.306202	-0.273964	-0.274259
H121	H	0.357333	-0.274857	-0.305173
H122	H	0.315124	-0.297926	-0.222077
C123	C	0.218374	-0.196377	-0.222214
C124	C	0.281172	-0.197469	-0.260186
H125	H	0.202934	-0.149192	-0.213530
H126	H	0.183778	-0.222846	-0.248613
H127	H	0.225817	-0.216349	-0.178734
H128	H	0.273726	-0.177505	-0.303669
H129	H	0.315766	-0.170995	-0.233794
H130	H	1.081523	-0.305846	-1.126882
O131	O	0.399193	-0.319288	-0.319588
C132	C	0.441834	-0.277219	-0.359756
H133	H	0.417645	-0.274154	-0.414104
H134	H	0.496339	-0.301396	-0.365295
C135	C	0.477169	-0.206513	-0.255987
C136	C	0.447457	-0.202743	-0.322736
H137	H	0.480641	-0.160573	-0.233150
H138	H	0.448444	-0.234857	-0.228924
H139	H	0.522587	-0.226663	-0.260612
H140	H	0.402037	-0.182601	-0.318109
H141	H	0.476175	-0.174393	-0.349797
O142	O	0.731405	-0.291325	-0.291478
C143	C	0.686681	-0.248002	-0.248304
H144	H	0.633348	-0.274541	-0.244747
H145	H	0.680073	-0.195259	-0.271790
C146	C	0.784303	-0.203484	-0.178592
C147	C	0.718800	-0.236081	-0.174218
H148	H	0.804116	-0.196127	-0.132893
H149	H	0.814435	-0.232669	-0.207680
H150	H	0.778787	-0.159534	-0.198166
H151	H	0.724317	-0.280033	-0.154653
H152	H	0.688669	-0.206903	-0.145125
O153	O	1.066630	-0.657064	-0.319563
C154	C	1.105898	-0.705388	-0.283386
H155	H	1.104938	-0.758967	-0.314340
H156	H	1.082147	-0.710130	-0.229149
C157	C	1.183348	-0.613586	-0.237301
C158	C	1.182175	-0.679391	-0.275323
H159	H	1.230399	-0.597550	-0.232324
H160	H	1.156892	-0.581029	-0.261672
H161	H	1.163553	-0.617547	-0.192108
H162	H	1.201962	-0.675428	-0.320518
H163	H	1.208637	-0.711948	-0.250959
H164	H	1.087072	-0.992892	-0.300869
H165	H	0.911879	-1.125710	-0.462386
H166	H	0.911836	-0.462303	-1.126280
H167	H	0.917388	-0.457207	-0.992957
H168	H	1.081554	-1.126235	-0.306026
H169	H	0.379191	-0.496273	-0.495869
