data_functionalizedCrystal
_audit_creation_method	'MofGen! by Chris Wilmer'
_symmetry_space_group_name_H-M	'P1'
_symmetry_Int_Tables_number	1
_symmetry_cell_setting	triclinic
loop_
_symmetry_equiv_pos_as_xyz
  x,y,z
_cell_length_a	19.121102
_cell_length_b	29.839131
_cell_length_c	19.120904
_cell_angle_alpha	92.401768
_cell_angle_beta	90.088173
_cell_angle_gamma	87.589066
loop_
_atom_site_label
_atom_site_type_symbol
_atom_site_fract_x
_atom_site_fract_y
_atom_site_fract_z
Zn1	Zn	1.054788	-0.219753	-0.441992
Zn2	Zn	1.554788	0.280247	0.058008
Zn3	Zn	1.059688	-0.291815	-0.324733
Zn4	Zn	1.559688	0.208185	0.175267
Zn5	Zn	0.942558	-0.213364	-0.319778
Zn6	Zn	1.442558	0.286636	0.180222
Zn7	Zn	0.937500	-0.291513	-0.436935
Zn8	Zn	1.437500	0.208487	0.063065
O9	O	0.998633	-0.254111	-0.380859
O10	O	1.498633	0.245889	0.119141
O11	O	1.153542	-0.232113	-0.430627
O12	O	1.653542	0.267887	0.069373
O13	O	1.048319	-0.278861	-0.225971
O14	O	1.548319	0.221139	0.274029
O15	O	0.957512	-0.151347	-0.336033
O16	O	1.457512	0.348653	0.163967
O17	O	1.157143	-0.285057	-0.344477
O18	O	1.657143	0.214943	0.155523
O19	O	1.039966	-0.156042	-0.425823
O20	O	1.539966	0.343958	0.074177
O21	O	0.962264	-0.221223	-0.222331
O22	O	1.462264	0.278777	0.277669
O23	O	0.843783	-0.220930	-0.331129
O24	O	1.343783	0.279070	0.168871
O25	O	0.948890	-0.284542	-0.535710
O26	O	1.448890	0.215458	-0.035710
O27	O	0.840066	-0.278346	-0.417204
O28	O	1.340066	0.221654	0.082796
O29	O	1.035061	-0.231820	-0.539425
O30	O	1.535061	0.268180	-0.039425
O31	O	1.043414	-0.354639	-0.339574
O32	O	1.543414	0.145361	0.160426
O33	O	0.953642	-0.354418	-0.422008
O34	O	1.453642	0.145582	0.077992
C35	C	0.816487	-0.248912	-0.373081
C36	C	1.316487	0.251088	0.126919
C37	C	0.738563	-0.246699	-0.369769
C38	C	1.238563	0.253301	0.130231
C39	C	0.700041	-0.275595	-0.412958
C40	C	1.200041	0.224405	0.087042
C41	C	0.626823	-0.273509	-0.409850
C42	C	1.126823	0.226491	0.090150
C43	C	0.592129	-0.242531	-0.363550
C44	C	1.092129	0.257469	0.136450
C45	C	0.630656	-0.213632	-0.320360
C46	C	1.130656	0.286368	0.179640
C47	C	0.703873	-0.215715	-0.323471
C48	C	1.203873	0.284285	0.176529
C49	C	0.371158	-0.234741	-0.351919
C50	C	0.871158	0.265259	0.148081
C51	C	0.297937	-0.232660	-0.348809
C52	C	0.797937	0.267340	0.151191
C53	C	0.294108	-0.292537	-0.438300
C54	C	0.794108	0.207463	0.061700
C55	C	0.367326	-0.294620	-0.441405
C56	C	0.867326	0.205380	0.058595
C57	C	0.405847	-0.265720	-0.398218
C58	C	0.905847	0.234280	0.101782
C59	C	0.517289	-0.240399	-0.360370
C60	C	1.017289	0.259601	0.139630
C61	C	0.480686	-0.267849	-0.401401
C62	C	0.980686	0.232151	0.098599
C63	C	0.998529	-0.370829	-0.380796
C64	C	1.498529	0.129171	0.119204
C65	C	0.998548	-0.420764	-0.380795
C66	C	1.498548	0.079236	0.119205
C67	C	1.041555	-0.732823	-0.427677
C68	C	1.541555	-0.232823	0.072323
C69	C	1.041629	-0.920499	-0.427722
C70	C	1.541629	-0.420499	0.072278
O71	O	1.078093	-0.946813	-0.467534
O72	O	1.578093	-0.446813	0.032466
N73	N	0.998749	-0.941559	-0.380942
N74	N	1.498749	-0.441559	0.119058
C75	C	0.955844	-0.915697	-0.334151
C76	C	1.455844	-0.415697	0.165849
O77	O	0.919368	-0.937916	-0.294368
O78	O	1.419368	-0.437916	0.205632
C79	C	0.955767	-0.728021	-0.334110
C80	C	1.455767	-0.228021	0.165890
C81	C	0.998655	-0.706964	-0.380888
C82	C	1.498655	-0.206964	0.119112
C83	C	1.084439	-0.711765	-0.474451
C84	C	1.584439	-0.211765	0.025549
C85	C	1.084423	-0.664849	-0.474437
C86	C	1.584423	-0.164849	0.025563
C87	C	1.041523	-0.638990	-0.427648
C88	C	1.541523	-0.138990	0.072352
C89	C	0.998639	-0.660048	-0.380873
C90	C	1.498639	-0.160048	0.119127
C91	C	0.912858	-0.702160	-0.287322
C92	C	1.412858	-0.202160	0.212678
C93	C	0.912841	-0.655238	-0.287317
C94	C	1.412841	-0.155238	0.212683
C95	C	0.955730	-0.634181	-0.334095
C96	C	1.455730	-0.134181	0.165905
C97	C	0.955722	-0.587273	-0.334070
C98	C	1.455722	-0.087273	0.165930
N99	N	0.998602	-0.566213	-0.380849
N100	N	1.498602	-0.066213	0.119151
C101	C	1.041502	-0.592071	-0.427639
C102	C	1.541502	-0.092071	0.072361
C103	C	0.955889	-1.014229	-0.334175
C104	C	1.455889	-0.514229	0.165825
C105	C	0.955909	-1.061148	-0.334185
C106	C	1.455909	-0.561148	0.165815
C107	C	1.041693	-1.065947	-0.427757
C108	C	1.541693	-0.565947	0.072243
C109	C	1.041676	-1.019027	-0.427743
C110	C	1.541676	-0.519027	0.072257
C111	C	0.998769	-0.993169	-0.380955
C112	C	1.498769	-0.493169	0.119045
C113	C	1.041466	-0.493544	-0.427604
C114	C	1.541466	0.006456	0.072396
C115	C	1.041448	-0.446623	-0.427584
C116	C	1.541448	0.053377	0.072416
C117	C	0.955661	-0.441828	-0.334015
C118	C	1.455661	0.058172	0.165985
C119	C	0.955681	-0.488745	-0.334032
C120	C	1.455681	0.011255	0.165968
C121	C	0.998586	-0.514601	-0.380833
C122	C	1.498586	-0.014601	0.119167
O123	O	0.919272	-0.560931	-0.294284
O124	O	1.419272	-0.060931	0.205716
O125	O	1.077961	-0.569844	-0.467426
O126	O	1.577961	-0.069844	0.032574
C127	C	1.041571	-0.779739	-0.427691
C128	C	1.541571	-0.279739	0.072309
C129	C	0.998687	-0.800796	-0.380916
C130	C	1.498687	-0.300796	0.119084
C131	C	0.955787	-0.774938	-0.334127
C132	C	1.455787	-0.274938	0.165873
C133	C	0.998707	-0.847715	-0.380926
C134	C	1.498707	-0.347715	0.119074
C135	C	1.041608	-0.873574	-0.427715
C136	C	1.541608	-0.373574	0.072285
C137	C	1.084488	-0.852514	-0.474495
C138	C	1.584488	-0.352514	0.025505
C139	C	1.084471	-0.805598	-0.474480
C140	C	1.584471	-0.305598	0.025520
C141	C	0.912907	-0.795997	-0.287348
C142	C	1.412907	-0.295997	0.212652
C143	C	0.912927	-0.842914	-0.287365
C144	C	1.412927	-0.342914	0.212635
C145	C	0.955827	-0.868773	-0.334154
C146	C	1.455827	-0.368773	0.165846
C147	C	1.181491	-0.259331	-0.388669
C148	C	1.681491	0.240669	0.111331
C149	C	1.259414	-0.261556	-0.391997
C150	C	1.759414	0.238444	0.108003
C151	C	0.990865	-0.258860	-0.563716
C152	C	1.490865	0.241140	-0.063716
C153	C	0.987554	-0.260884	-0.641639
C154	C	1.487554	0.239116	-0.141639
C155	C	0.998757	-0.136939	-0.380940
C156	C	1.498757	0.363061	0.119060
C157	C	0.998809	-0.087006	-0.380974
C158	C	1.498809	0.412994	0.119026
C159	C	1.030861	-0.234386	-0.680183
C160	C	1.530861	0.265614	-0.180183
C161	C	1.027742	-0.236286	-0.753399
C162	C	1.527742	0.263714	-0.253399
C163	C	0.981319	-0.264685	-0.788070
C164	C	1.481319	0.235315	-0.288070
C165	C	0.938007	-0.291184	-0.749521
C166	C	1.438007	0.208816	-0.249521
C167	C	0.941123	-0.289282	-0.676306
C168	C	1.441123	0.210718	-0.176306
C169	C	0.969663	-0.271800	-1.009035
C170	C	1.469663	0.228200	-0.509035
C171	C	0.966552	-0.273701	-1.082256
C172	C	1.466552	0.226299	-0.582256
C173	C	1.056286	-0.218802	-1.086128
C174	C	1.556286	0.281198	-0.586128
C175	C	1.059401	-0.216904	-1.012912
C176	C	1.559401	0.283096	-0.512912
C177	C	1.016086	-0.243401	-0.974369
C178	C	1.516086	0.256599	-0.474369
C179	C	0.978131	-0.266629	-0.862909
C180	C	1.478131	0.233371	-0.362909
C181	C	1.019271	-0.241455	-0.899532
C182	C	1.519271	0.258545	-0.399532
C183	C	1.006412	-0.249350	-0.198716
C184	C	1.506412	0.250650	0.301284
C185	C	1.009859	-0.247203	-0.120799
C186	C	1.509859	0.252797	0.379201
H187	H	0.402514	-0.211211	-0.316747
H188	H	0.902514	0.288789	0.183253
H189	H	1.057066	-0.218330	-0.871299
H190	H	1.557066	0.281670	-0.371299
C191	C	0.251729	-0.324322	-0.485809
C192	C	0.751729	0.175678	0.014191
N193	N	0.219809	-0.348262	-0.521596
N194	N	0.719809	0.151738	-0.021596
H195	H	1.063009	-0.214710	-0.784778
H196	H	1.563009	0.285290	-0.284778
C197	C	1.088632	-0.423463	-0.479044
C198	C	1.588632	0.076537	0.020956
N199	N	1.124170	-0.406021	-0.517802
N200	N	1.624170	0.093979	-0.017802
C201	C	0.738197	-0.309674	-0.463892
C202	C	1.238197	0.190326	0.036108
N203	N	0.766934	-0.335343	-0.502259
N204	N	1.266934	0.164657	-0.002259
H205	H	0.920948	-0.993178	-0.296073
H206	H	1.420948	-0.493178	0.203927
H207	H	0.269691	-0.207429	-0.311110
H208	H	0.769691	0.292571	0.188890
C209	C	0.865672	-0.725312	-0.235866
C210	C	1.365672	-0.225312	0.264134
N211	N	0.830126	-0.742749	-0.197109
N212	N	1.330126	-0.242749	0.302891
C213	C	1.103920	-0.189652	-1.128531
C214	C	1.603920	0.310348	-0.628531
N215	N	1.139796	-0.167692	-1.160468
N216	N	1.639796	0.332308	-0.660468
H217	H	0.940337	-0.289754	-0.891147
H218	H	1.440337	0.210246	-0.391147
C219	C	0.865743	-0.866071	-0.235902
C220	C	1.365743	-0.366071	0.264098
N221	N	0.830200	-0.883512	-0.197146
N222	N	1.330200	-0.383512	0.302854
C223	C	0.746247	-0.183929	-0.275959
C224	C	1.246247	0.316071	0.224041
N225	N	0.778163	-0.159986	-0.240172
N226	N	1.278163	0.340014	0.259828
H227	H	0.595461	-0.297039	-0.445018
H228	H	1.095461	0.202961	0.054982
C229	C	0.405484	-0.328701	-0.492336
C230	C	0.905484	0.171299	0.007664
N231	N	0.434225	-0.354373	-0.530694
N232	N	0.934225	0.145627	-0.030694
H233	H	0.905851	-0.310854	-0.644924
H234	H	1.405851	0.189146	-0.144924
C235	C	0.592490	-0.179554	-0.269430
C236	C	1.092490	0.320446	0.230570
N237	N	0.563745	-0.153886	-0.231068
N238	N	1.063745	0.346114	0.268932
C239	C	0.518852	-0.301926	-0.452328
C240	C	1.018852	0.198074	0.047672
N241	N	0.547605	-0.327595	-0.490683
N242	N	1.047605	0.172405	0.009317
C243	C	0.479118	-0.206325	-0.309439
C244	C	0.979118	0.293675	0.190561
N245	N	0.450365	-0.180659	-0.271078
N246	N	0.950365	0.319341	0.228922
H247	H	0.928746	-0.296828	-1.110483
H248	H	1.428746	0.203172	-0.610483
H249	H	1.097205	-0.193780	-0.984688
H250	H	1.597205	0.306220	-0.484688
H251	H	0.934404	-0.293382	-0.977663
H252	H	1.434404	0.206618	-0.477663
H253	H	1.076625	-1.087009	-0.465853
H254	H	1.576625	-0.587009	0.034147
C255	C	1.131653	-0.782441	-0.525939
C256	C	1.631653	-0.282441	-0.025939
N257	N	1.167193	-0.765003	-0.564701
N258	N	1.667193	-0.265003	-0.064701
C259	C	1.131677	-0.880968	-0.525964
C260	C	1.631677	-0.380968	-0.025964
N261	N	1.167215	-0.902401	-0.564731
N262	N	1.667215	-0.402401	-0.064731
C263	C	1.088668	-0.521980	-0.479083
C264	C	1.588668	-0.021980	0.020917
N265	N	1.124224	-0.543397	-0.517853
N266	N	1.624224	-0.043397	-0.017853
C267	C	0.886935	-0.322419	-0.787662
C268	C	1.386935	0.177581	-0.287662
N269	N	0.848465	-0.345946	-0.816389
N270	N	1.348465	0.154054	-0.316389
C271	C	1.131606	-0.641692	-0.525895
C272	C	1.631606	-0.141692	-0.025895
N273	N	1.167148	-0.624254	-0.564655
N274	N	1.667148	-0.124254	-0.064655
H275	H	1.119373	-0.732815	-0.512557
H276	H	1.619373	-0.232815	-0.012557
H277	H	0.920764	-0.505890	-0.295937
H278	H	1.420764	-0.005890	0.204063
H279	H	1.076599	-1.001886	-0.465834
H280	H	1.576599	-0.501886	0.034166
H281	H	0.920993	-1.078288	-0.296086
H282	H	1.420993	-0.578288	0.203914
C283	C	0.865639	-0.626797	-0.235844
C284	C	1.365639	-0.126797	0.264156
N285	N	0.830089	-0.605376	-0.197073
N286	N	1.330089	-0.105376	0.302927
H287	H	0.920734	-0.420766	-0.295917
H288	H	1.420734	0.079234	0.204083
H289	H	0.877971	-0.774947	-0.249247
H290	H	1.377971	-0.274947	0.250753
C291	C	1.081930	-0.203144	-0.642051
C292	C	1.581930	0.296856	-0.142051
N293	N	1.120394	-0.179609	-0.613332
N294	N	1.620394	0.320391	-0.113332
