data_functionalizedCrystal
_audit_creation_method	'MofGen! by Chris Wilmer'
_symmetry_space_group_name_H-M	'P1'
_symmetry_Int_Tables_number	1
_symmetry_cell_setting	triclinic
loop_
_symmetry_equiv_pos_as_xyz
  x,y,z
_cell_length_a	13.330367
_cell_length_b	16.109301
_cell_length_c	16.109301
_cell_angle_alpha	96.538519
_cell_angle_beta	90.006067
_cell_angle_gamma	89.995166
loop_
_atom_site_label
_atom_site_type_symbol
_atom_site_fract_x
_atom_site_fract_y
_atom_site_fract_z
O1	O	0.083363	-1.103136	0.106867
O2	O	0.583363	-0.603136	0.606867
O3	O	0.083380	-0.861074	0.120166
O4	O	0.583380	-0.361074	0.620166
O5	O	0.083361	-0.988754	-0.007515
O6	O	0.583361	-0.488754	0.492485
O7	O	0.083382	-0.975455	0.234547
O8	O	0.583382	-0.475455	0.734547
O9	O	-0.083486	-0.988736	-0.007518
O10	O	0.416514	-0.488736	0.492482
O11	O	-0.083468	-0.861055	0.120163
O12	O	0.416532	-0.361055	0.620163
O13	O	-0.083484	-1.103117	0.106864
O14	O	0.416516	-0.603117	0.606864
Cu15	Cu	-0.098710	-0.982084	0.113513
Cu16	Cu	0.401290	-0.482084	0.613513
Cu17	Cu	0.098606	-0.982106	0.113516
Cu18	Cu	0.598606	-0.482106	0.613516
O19	O	-0.083465	-0.975436	0.234544
O20	O	0.416535	-0.475436	0.734544
C21	C	-0.000042	-0.830090	0.119626
C22	C	0.499958	-0.330090	0.619626
C23	C	-0.000036	-0.737794	0.118011
C24	C	0.499964	-0.237794	0.618011
N25	N	-0.237492	-0.982075	0.113510
N26	N	0.262508	-0.482075	0.613510
C27	C	-0.000063	-0.988206	-0.038491
C28	C	0.499937	-0.488206	0.461509
C29	C	-0.000065	-0.986591	-0.130786
C30	C	0.499935	-0.486591	0.369214
C31	C	-0.710106	-0.925567	0.170031
C32	C	-0.210106	-0.425567	0.670031
C33	C	-0.710091	-1.038668	0.056995
C34	C	-0.210091	-0.538668	0.556995
C35	C	-0.605073	-1.038659	0.056993
C36	C	-0.105073	-0.538659	0.556993
C37	C	-0.552566	-0.982103	0.113511
C38	C	-0.052566	-0.482103	0.613511
C39	C	-0.605078	-0.925557	0.170032
C40	C	-0.105078	-0.425557	0.670032
C41	C	-0.552553	-1.095209	0.000478
C42	C	-0.052553	-0.595209	0.500478
C43	C	-0.447528	-1.095203	0.000474
C44	C	0.052472	-0.595203	0.500474
C45	C	-0.395020	-1.038643	0.056989
C46	C	0.104980	-0.538643	0.556989
C47	C	-0.447538	-0.982094	0.113512
C48	C	0.052462	-0.482094	0.613512
C49	C	-0.395032	-0.925539	0.170030
C50	C	0.104968	-0.425539	0.670030
C51	C	-0.447548	-0.868985	0.226550
C52	C	0.052452	-0.368985	0.726550
C53	C	-0.552570	-0.868997	0.226547
C54	C	-0.052570	-0.368997	0.726547
C55	C	-0.289998	-1.038630	0.056992
C56	C	0.210002	-0.538630	0.556992
C57	C	-0.290004	-0.925529	0.170031
C58	C	0.209996	-0.425529	0.670031
N59	N	0.237387	-0.982122	0.113513
N60	N	0.737387	-0.482122	0.613513
C61	C	-0.000060	-1.134101	0.107404
C62	C	0.499940	-0.634101	0.607404
C63	C	-0.000059	-1.226397	0.109019
C64	C	0.499941	-0.726397	0.609019
C65	C	-0.000041	-0.515522	0.190018
C66	C	0.499959	-0.015522	0.690018
C67	C	-0.000048	-0.428801	0.188494
C68	C	0.499952	0.071199	0.688494
C69	C	-0.000057	-0.448676	0.037006
C70	C	0.499943	0.051324	0.537006
C71	C	-0.000058	-0.535394	0.038530
C72	C	0.499942	-0.035394	0.538530
C73	C	-0.000045	-0.568815	0.115039
C74	C	0.499955	-0.068815	0.615039
C75	C	-0.000051	-0.395376	0.111990
C76	C	0.499949	0.104624	0.611990
C77	C	-0.000058	-0.301350	0.110337
C78	C	0.499942	0.198650	0.610337
C79	C	-0.000039	-0.662847	0.116693
C80	C	0.499961	-0.162847	0.616693
C81	C	-0.000054	-1.058599	-0.353059
C82	C	0.499946	-0.558599	0.146941
C83	C	-0.000045	-1.057075	-0.439779
C84	C	0.499955	-0.557075	0.060221
C85	C	-0.000039	-0.905586	-0.419905
C86	C	0.499961	-0.405586	0.080095
C87	C	-0.000040	-0.907111	-0.333186
C88	C	0.499960	-0.407111	0.166814
C89	C	-0.000052	-0.983620	-0.299766
C90	C	0.499948	-0.483620	0.200234
C91	C	-0.000043	-0.980571	-0.473205
C92	C	0.499957	-0.480571	0.026795
C93	C	-0.000034	-0.978918	-0.567231
C94	C	0.499966	-0.478918	-0.067231
C95	C	-0.000060	-0.985273	-0.205734
C96	C	0.499940	-0.485273	0.294266
C97	C	-0.000039	-0.975984	0.265521
C98	C	0.499961	-0.475984	0.765521
C99	C	-0.000031	-0.977600	0.357816
C100	C	0.499969	-0.477600	0.857816
H101	H	-0.247259	-0.879472	0.216053
H102	H	0.252741	-0.379472	0.716053
H103	H	-0.000038	-0.542730	0.252317
H104	H	0.499962	-0.042730	0.752317
F105	F	-0.765996	-0.865378	0.230178
F106	F	-0.265996	-0.365378	0.730178
H107	H	-0.000047	-0.385413	0.249550
H108	H	0.499953	0.114587	0.749550
H109	H	-0.000036	-0.846050	-0.289792
H110	H	0.499964	-0.346050	0.210208
F111	F	-0.000066	-1.140026	-0.317493
F112	F	0.499934	-0.640026	0.182507
H113	H	-0.000063	-0.578788	-0.022530
H114	H	0.499937	-0.078788	0.477470
F115	F	-0.391643	-1.155389	-0.059679
F116	F	0.108357	-0.655389	0.440321
H117	H	-0.000044	-1.118130	-0.483168
H118	H	0.499956	-0.618130	0.016832
H119	H	-0.595307	-1.141259	-0.045534
H120	H	-0.095307	-0.641259	0.454466
H121	H	-0.000074	-0.421454	-0.025285
H122	H	0.499926	0.078546	0.474715
F123	F	-0.000025	-0.824164	-0.455481
F124	F	0.499975	-0.324164	0.044519
H125	H	-0.752845	-1.084718	0.010983
H126	H	-0.252845	-0.584718	0.510983
H127	H	-0.595335	-0.822954	0.272564
H128	H	-0.095335	-0.322954	0.772564
H129	H	-0.404785	-0.822941	0.272571
H130	H	0.095215	-0.322941	0.772571
H131	H	-0.247244	-1.084679	0.010978
H132	H	0.252756	-0.584679	0.510978
