data_functionalizedCrystal
_audit_creation_method	'MofGen! by Chris Wilmer'
_symmetry_space_group_name_H-M	'P1'
_symmetry_Int_Tables_number	1
_symmetry_cell_setting	triclinic
loop_
_symmetry_equiv_pos_as_xyz
  x,y,z
_cell_length_a	25.639239
_cell_length_b	13.897449
_cell_length_c	13.897441
_cell_angle_alpha	89.979267
_cell_angle_beta	90.034305
_cell_angle_gamma	89.960034
loop_
_atom_site_label
_atom_site_type_symbol
_atom_site_fract_x
_atom_site_fract_y
_atom_site_fract_z
Zn1	Zn	-0.208116	-1.474562	0.545356
Zn2	Zn	-0.295559	-1.474397	0.384047
Zn3	Zn	-0.208141	-1.313251	0.384075
Zn4	Zn	-0.295524	-1.313174	0.545300
O5	O	-0.251835	-1.393846	0.464695
O6	O	-0.219720	-1.609522	0.523970
O7	O	-0.283987	-1.452984	0.249069
O8	O	-0.134973	-1.334751	0.405504
O9	O	-0.283963	-1.609400	0.405457
O10	O	-0.134954	-1.453265	0.523997
O11	O	-0.219762	-1.334591	0.249089
O12	O	-0.219729	-1.178259	0.405449
O13	O	-0.283905	-1.334619	0.680289
O14	O	-0.283929	-1.178202	0.523901
O15	O	-0.219686	-1.453190	0.680331
O16	O	-0.368719	-1.452909	0.405403
O17	O	-0.368694	-1.334459	0.523874
C18	C	-0.387678	-1.393684	0.464650
C19	C	-0.445792	-1.393702	0.464664
C20	C	-0.251828	-1.143232	0.464673
C21	C	-0.251838	-1.036018	0.464686
C22	C	-0.251789	-1.393914	0.716288
C23	C	-0.251769	-1.393943	0.823502
C24	C	-0.806155	-1.455684	0.403111
C25	C	-0.860760	-1.455721	0.403124
O26	O	-0.888997	-1.508251	0.350742
N27	N	-0.888074	-1.394015	0.464758
C28	C	-0.860782	-1.332275	0.526391
O29	O	-0.889029	-1.279794	0.578817
C30	C	-0.806178	-1.332243	0.526382
C31	C	-0.778867	-1.393946	0.464737
C32	C	-0.778844	-1.517382	0.341472
C33	C	-0.724243	-1.517343	0.341458
C34	C	-0.696954	-1.455606	0.403084
C35	C	-0.724266	-1.393907	0.464723
C36	C	-0.778887	-1.270509	0.588018
C37	C	-0.724280	-1.270483	0.588004
C38	C	-0.696968	-1.332186	0.526359
C39	C	-0.642377	-1.332131	0.526334
N40	N	-0.615062	-1.393837	0.464700
C41	C	-0.642351	-1.455574	0.403075
C42	C	-0.975452	-1.332348	0.526405
C43	C	-1.030055	-1.332374	0.526410
C44	C	-1.030029	-1.455821	0.403145
C45	C	-0.975426	-1.455790	0.403136
C46	C	-0.948138	-1.394054	0.464771
C47	C	-0.527686	-1.455487	0.403050
C48	C	-0.473081	-1.455440	0.403038
C49	C	-0.473111	-1.331997	0.526307
C50	C	-0.527712	-1.332040	0.526315
C51	C	-0.554998	-1.393793	0.464683
O52	O	-0.614105	-1.279630	0.578693
O53	O	-0.614097	-1.508056	0.350666
C54	C	-0.115462	-1.394035	0.464760
C55	C	-0.057348	-1.394116	0.464788
C56	C	-0.251843	-1.645439	0.464717
C57	C	-0.251846	-1.752653	0.464727
C58	C	-0.251840	-0.839722	0.464711
C59	C	-0.251837	-0.948955	0.464695
C60	C	-0.251843	-1.393833	0.214080
C61	C	-0.251716	-1.393991	0.106867
C62	C	-0.251734	-1.393970	1.019797
C63	C	-0.251755	-1.393952	0.910564
H64	H	-0.549896	-1.505774	0.352865
H65	H	-0.702009	-1.567590	0.291265
H66	H	-0.450884	-1.281728	0.576479
H67	H	-0.801056	-1.567662	0.291289
H68	H	-0.953192	-1.506034	0.352940
O69	O	-1.056547	-1.515966	0.343458
C70	C	-1.118098	-1.646304	0.330749
C71	C	-1.088100	-1.578231	0.398426
H72	H	-1.143623	-1.696649	0.375163
H73	H	-1.089203	-1.690474	0.286752
H74	H	-1.143703	-1.602129	0.280216
H75	H	-1.062494	-1.622331	0.449018
H76	H	-1.117022	-1.534059	0.442356
O77	O	-1.056663	-1.272461	0.586196
C78	C	-1.140787	-1.217842	0.640908
C79	C	-1.110721	-1.285721	0.573127
H80	H	-1.184498	-1.228553	0.630380
H81	H	-1.130140	-1.140044	0.623895
H82	H	-1.129975	-1.234724	0.718686
H83	H	-1.121517	-1.268926	0.495327
H84	H	-1.121370	-1.363499	0.590223
H85	H	-0.953237	-1.282067	0.576593
O86	O	-0.805465	-1.210710	0.647957
C87	C	-0.867028	-1.197718	0.778259
C88	C	-0.836973	-1.265549	0.710414
H89	H	-0.892501	-1.242028	0.828786
H90	H	-0.892675	-1.147321	0.734008
H91	H	-0.838124	-1.153581	0.822255
H92	H	-0.865839	-1.309748	0.666403
H93	H	-0.811318	-1.315882	0.754720
O94	O	-0.697829	-1.210559	0.648013
C95	C	-0.681064	-1.163692	0.812054
C96	C	-0.711060	-1.231597	0.744205
H97	H	-0.691742	-1.180690	0.889840
H98	H	-0.691862	-1.085912	0.795134
H99	H	-0.637349	-1.174245	0.801411
H100	H	-0.754782	-1.221129	0.754810
H101	H	-0.700219	-1.309352	0.761142
O102	O	-0.446631	-1.515474	0.343124
C103	C	-0.452379	-1.637877	0.220822
C104	C	-0.482394	-1.569957	0.288637
H105	H	-0.481280	-1.681930	0.176737
H106	H	-0.426782	-1.688339	0.265098
H107	H	-0.426847	-1.593588	0.170377
H108	H	-0.507955	-1.614169	0.339095
H109	H	-0.507958	-1.519493	0.244301
O110	O	-0.554165	-1.272069	0.586283
C111	C	-0.548420	-1.149592	0.708512
C112	C	-0.518403	-1.217465	0.640652
H113	H	-0.519520	-1.105412	0.752472
H114	H	-0.573919	-1.193828	0.759062
H115	H	-0.574050	-1.099238	0.664180
H116	H	-0.492745	-1.267832	0.684906
H117	H	-0.492937	-1.173169	0.590099
