data_functionalizedCrystal
_audit_creation_method	'MofGen! by Chris Wilmer'
_symmetry_space_group_name_H-M	'P1'
_symmetry_Int_Tables_number	1
_symmetry_cell_setting	triclinic
loop_
_symmetry_equiv_pos_as_xyz
  x,y,z
_cell_length_a	16.974800
_cell_length_b	9.730223
_cell_length_c	16.992695
_cell_angle_alpha	90.000351
_cell_angle_beta	87.021674
_cell_angle_gamma	86.346000
loop_
_atom_site_label
_atom_site_type_symbol
_atom_site_fract_x
_atom_site_fract_y
_atom_site_fract_z
O1	O	1.055459	-0.003147	0.099873
O2	O	0.826057	0.022381	0.112613
O3	O	0.939839	0.009708	-0.007899
O4	O	0.941678	0.009526	0.220385
O5	O	0.939831	-0.218871	-0.007892
O6	O	0.826050	-0.206198	0.112619
O7	O	1.055452	-0.231726	0.099880
Zn8	Zn	0.940750	-0.255254	0.106251
Zn9	Zn	0.940760	0.045909	0.106242
O10	O	0.941671	-0.219054	0.220391
C11	C	0.796565	-0.088627	0.112133
C12	C	0.708696	-0.078849	0.110686
N13	N	0.940749	-0.460790	0.106256
C14	C	0.667416	-0.198857	0.110007
C15	C	0.584855	-0.189674	0.108634
C16	C	0.543576	-0.060481	0.107945
C17	C	0.584862	0.059536	0.108622
C18	C	0.667421	0.050351	0.109989
C19	C	0.296659	-0.019651	0.103851
C20	C	0.214093	-0.010476	0.102486
C21	C	0.214093	-0.259686	0.102497
C22	C	0.296654	-0.268860	0.103869
C23	C	0.337933	-0.148843	0.104541
N24	N	0.459185	-0.051091	0.106545
N25	N	0.422322	-0.158234	0.105936
C26	C	0.991704	-0.538395	0.153779
C27	C	0.991715	-0.682279	0.153765
C28	C	0.889809	-0.670940	0.058702
C29	C	0.889802	-0.527059	0.058713
C30	C	1.042651	-0.472126	0.201323
C31	C	1.093610	-0.549731	0.248850
C32	C	1.093621	-0.693615	0.248835
C33	C	1.042673	-0.759894	0.201293
C34	C	1.084945	-0.120715	0.100360
C35	C	1.172813	-0.130484	0.101807
C36	C	0.937469	-0.104318	-0.037105
C37	C	0.930409	-0.103532	-0.124141
N38	N	0.940766	0.251445	0.106230
C39	C	0.998525	-0.111113	-0.174459
C40	C	0.991887	-0.110361	-0.256238
C41	C	0.917133	-0.102038	-0.287698
C42	C	0.849012	-0.094452	-0.237374
C43	C	0.855651	-0.095194	-0.155597
C44	C	0.889618	-0.098957	-0.531265
C45	C	0.882984	-0.098220	-0.613049
C46	C	1.025860	-0.114127	-0.631906
C47	C	1.032492	-0.114876	-0.550126
C48	C	0.964371	-0.107283	-0.499810
N49	N	0.910346	-0.101274	-0.371289
N50	N	0.971159	-0.108038	-0.416220
C51	C	0.944040	-0.105024	0.249598
C52	C	0.951100	-0.105801	0.336634
H53	H	0.551249	-0.287398	0.108069
H54	H	0.822108	-0.091464	-0.638660
H55	H	0.848328	-0.724916	0.019996
H56	H	0.834149	-0.092775	-0.490306
O57	O	1.042609	-0.316934	0.201440
H58	H	1.102273	-0.285514	0.182113
H59	H	0.788146	-0.087666	-0.262996
H60	H	1.135094	-0.495758	0.287553
H61	H	0.800184	-0.089020	-0.114628
H62	H	1.093365	-0.121654	-0.524518
H63	H	0.701031	0.148075	0.110543
H64	H	1.042693	-0.877056	0.201277
O65	O	0.834840	-0.443340	0.007463
H66	H	0.799405	-0.513590	-0.025589
H67	H	1.135119	-0.756799	0.287529
O68	O	0.169571	0.128879	0.101737
H69	H	0.128289	0.139445	0.154533
O70	O	1.099328	-0.122316	-0.686177
H71	H	1.134865	-0.033113	-0.674999
H72	H	0.701020	-0.304060	0.110574
H73	H	0.330258	-0.374062	0.104426
H74	H	1.059398	-0.117899	-0.148851
O75	O	1.065358	-0.118561	-0.310505
H76	H	1.100901	-0.029367	-0.299323
O77	O	0.169546	-0.389125	0.102170
H78	H	0.105192	-0.361039	0.101245
O79	O	0.341177	0.109788	0.104584
H80	H	0.298599	0.201163	0.103885
H81	H	0.551246	0.164727	0.108055
