data_functionalizedCrystal
_audit_creation_method	'MofGen! by Chris Wilmer'
_symmetry_space_group_name_H-M	'P1'
_symmetry_Int_Tables_number	1
_symmetry_cell_setting	triclinic
loop_
_symmetry_equiv_pos_as_xyz
  x,y,z
_cell_length_a	16.959455
_cell_length_b	18.101397
_cell_length_c	16.959455
_cell_angle_alpha	90.017750
_cell_angle_beta	90.005975
_cell_angle_gamma	90.019893
loop_
_atom_site_label
_atom_site_type_symbol
_atom_site_fract_x
_atom_site_fract_y
_atom_site_fract_z
Zn1	Zn	1.208314	-0.294943	0.446898
Zn2	Zn	1.708314	0.205057	0.946898
Zn3	Zn	1.208255	-0.418761	0.314712
Zn4	Zn	1.708255	0.081239	0.814712
Zn5	Zn	1.076162	-0.294937	0.314735
Zn6	Zn	1.576162	0.205063	0.814735
Zn7	Zn	1.076106	-0.418746	0.446849
Zn8	Zn	1.576106	0.081254	0.946849
O9	O	1.142209	-0.356847	0.380798
O10	O	1.642209	0.143153	0.880798
O11	O	1.318917	-0.311376	0.429374
O12	O	1.818917	0.188624	0.929374
O13	O	1.190732	-0.402340	0.204104
O14	O	1.690732	0.097660	0.704104
O15	O	1.093740	-0.191305	0.332296
O16	O	1.593740	0.308695	0.832296
O17	O	1.318874	-0.402345	0.332257
O18	O	1.818874	0.097655	0.832257
O19	O	1.190831	-0.191309	0.429396
O20	O	1.690831	0.308691	0.929396
O21	O	1.093684	-0.311366	0.204121
O22	O	1.593684	0.188634	0.704121
O23	O	0.965544	-0.311351	0.332249
O24	O	1.465544	0.188649	0.832249
O25	O	1.093644	-0.402319	0.557467
O26	O	1.593644	0.097681	1.057467
O27	O	0.965502	-0.402313	0.429313
O28	O	1.465502	0.097687	0.929313
O29	O	1.190777	-0.311361	0.557502
O30	O	1.690777	0.188639	1.057502
O31	O	1.190677	-0.522392	0.332210
O32	O	1.690677	-0.022392	0.832210
O33	O	1.093588	-0.522381	0.429291
O34	O	1.593588	-0.022381	0.929291
C35	C	0.936843	-0.356830	0.380779
C36	C	1.436843	0.143170	0.880779
C37	C	0.848986	-0.356841	0.380789
C38	C	1.348986	0.143159	0.880789
C39	C	0.807688	-0.404137	0.330153
C40	C	1.307688	0.095863	0.830153
C41	C	0.807731	-0.309551	0.431432
C42	C	1.307731	0.190449	0.931432
C43	C	0.725185	-0.309557	0.431441
C44	C	1.225185	0.190443	0.931441
C45	C	0.683887	-0.356853	0.380805
C46	C	1.183887	0.143147	0.880805
C47	C	0.725135	-0.404143	0.330160
C48	C	1.225135	0.095857	0.830160
C49	C	0.683931	-0.262263	0.482080
C50	C	1.183931	0.237737	0.982080
C51	C	0.601380	-0.262266	0.482091
C52	C	1.101380	0.237734	0.982091
C53	C	0.560081	-0.309566	0.431458
C54	C	1.060081	0.190434	0.931458
C55	C	0.601333	-0.356859	0.380811
C56	C	1.101333	0.143141	0.880811
C57	C	0.560035	-0.404155	0.330175
C58	C	1.060035	0.095845	0.830175
C59	C	0.601287	-0.451451	0.279532
C60	C	1.101287	0.048549	0.779532
C61	C	0.683835	-0.451443	0.279527
C62	C	1.183835	0.048557	0.779527
C63	C	0.477532	-0.309575	0.431463
C64	C	0.977532	0.190425	0.931463
C65	C	0.477482	-0.404160	0.330181
C66	C	0.977482	0.095840	0.830181
C67	C	1.142142	-0.549257	0.380760
C68	C	1.642142	-0.049257	0.880760
C69	C	1.142185	-0.631571	0.380770
C70	C	1.642185	-0.131571	0.880770
C71	C	1.142286	-0.930662	0.380842
C72	C	1.642286	-0.430662	0.880842
C73	C	1.203202	-0.899313	0.319598
C74	C	1.703202	-0.399313	0.819598
C75	C	1.203413	-0.813695	0.319757
C76	C	1.703413	-0.313695	0.819757
C77	C	1.142236	-0.782280	0.380806
C78	C	1.642236	-0.282280	0.880806
C79	C	1.164798	-0.813305	0.464122
C80	C	1.664798	-0.313305	0.964122
C81	C	1.165270	-0.898949	0.463789
C82	C	1.665270	-0.398949	0.963789
C83	C	1.058645	-0.899166	0.359491
C84	C	1.558645	-0.399166	0.859491
C85	C	1.059058	-0.813516	0.357632
C86	C	1.559058	-0.313516	0.857632
C87	C	1.142206	-0.698420	0.380790
C88	C	1.642206	-0.198420	0.880790
C89	C	1.142317	-1.014522	0.380863
C90	C	1.642317	-0.514522	0.880863
C91	C	1.348377	-0.356863	0.380818
C92	C	1.848377	0.143137	0.880818
C93	C	1.436234	-0.356870	0.380827
C94	C	1.936234	0.143130	0.880827
C95	C	1.142211	-0.356839	0.586967
C96	C	1.642211	0.143161	1.086967
C97	C	1.142211	-0.356836	0.674823
C98	C	1.642211	0.143164	1.174823
C99	C	1.142299	-0.163685	0.380854
C100	C	1.642299	0.336315	0.880854
C101	C	1.142337	-0.081371	0.380878
C102	C	1.642337	0.418629	0.880878
C103	C	1.091679	-0.309489	1.046314
C104	C	1.591679	0.190511	1.546314
C105	C	1.192736	-0.404221	1.046284
C106	C	1.692736	0.095779	1.546284
C107	C	1.192738	-0.404216	0.963738
C108	C	1.692738	0.095784	1.463738
C109	C	1.142210	-0.356849	0.922476
C110	C	1.642210	0.143151	1.422476
C111	C	1.091678	-0.309485	0.963760
C112	C	1.591678	0.190515	1.463760
C113	C	1.243263	-0.451584	0.922448
C114	C	1.743263	0.048416	1.422448
C115	C	1.243267	-0.451582	0.839897
C116	C	1.743267	0.048418	1.339897
C117	C	1.192742	-0.404210	0.798633
C118	C	1.692742	0.095790	1.298633
C119	C	1.142209	-0.356844	0.839923
C120	C	1.642209	0.143156	1.339923
C121	C	1.091680	-0.309477	0.798661
C122	C	1.591680	0.190523	1.298661
C123	C	1.041151	-0.262106	0.839949
C124	C	1.541151	0.237894	1.339949
C125	C	1.041153	-0.262113	0.922497
C126	C	1.541153	0.237887	1.422497
C127	C	1.192740	-0.404204	0.716085
C128	C	1.692740	0.095796	1.216085
C129	C	1.091680	-0.309472	0.716107
C130	C	1.591680	0.190528	1.216107
C131	C	1.142203	-0.356867	1.175432
C132	C	1.642203	0.143133	1.675432
C133	C	1.142208	-0.356857	1.087576
C134	C	1.642208	0.143143	1.587576
H135	H	0.717429	-0.489948	0.238294
H136	H	1.217429	0.010052	0.738294
H137	H	0.567800	-0.223755	0.523329
H138	H	1.067800	0.276245	1.023329
H139	H	1.038115	-0.920814	0.299791
H140	H	1.538115	-0.420814	0.799791
H141	H	0.443863	-0.442678	0.288950
H142	H	0.943863	0.057322	0.788950
C143	C	0.555857	-0.503474	0.223833
C144	C	1.055857	-0.003474	0.723833
H145	H	0.592243	-0.531639	0.193667
H146	H	1.092243	-0.031639	0.693667
H147	H	0.523645	-0.535779	0.254012
H148	H	1.023645	-0.035779	0.754012
H149	H	0.523662	-0.475092	0.189445
H150	H	1.023662	0.024908	0.689445
H151	H	1.284411	-0.490155	0.806287
H152	H	1.784411	0.009845	1.306287
H153	H	0.841361	-0.271042	0.472654
H154	H	1.341361	0.228958	0.972654
C155	C	0.853059	-0.456157	0.274447
C156	C	1.353059	0.043843	0.774447
H157	H	0.908138	-0.449380	0.281690
H158	H	1.408138	0.050620	0.781690
H159	H	0.839515	-0.505932	0.285921
H160	H	1.339515	-0.005932	0.785921
H161	H	0.839524	-0.445241	0.221358
H162	H	1.339524	0.054759	0.721358
H163	H	0.717562	-0.223754	0.523302
H164	H	1.217562	0.276246	1.023302
H165	H	0.443949	-0.271061	0.472691
H166	H	0.943949	0.228939	0.972691
H167	H	1.233868	-0.442791	1.079884
H168	H	1.733868	0.057209	1.579884
C169	C	1.298839	-0.503684	0.967835
C170	C	1.798839	-0.003684	1.467835
H171	H	1.291608	-0.496895	1.022911
H172	H	1.791608	0.003105	1.522911
H173	H	1.287248	-0.553441	0.954291
H174	H	1.787248	-0.053441	1.454291
H175	H	1.351955	-0.492847	0.954315
H176	H	1.851955	0.007153	1.454315
H177	H	1.189259	-0.919943	0.257635
H178	H	1.689259	-0.419943	0.757635
H179	H	1.000013	-0.223548	0.956121
H180	H	1.500013	0.276452	1.456121
C181	C	1.286445	-0.928317	0.338452
C182	C	1.786445	-0.428317	0.838452
H183	H	1.322884	-0.909117	0.301169
H184	H	1.822884	-0.409117	0.801169
H185	H	1.301241	-0.912991	0.389946
H186	H	1.801241	-0.412991	0.889946
H187	H	1.286564	-0.980743	0.335858
H188	H	1.786564	-0.480743	0.835858
H189	H	1.225251	-0.791802	0.482514
H190	H	1.725251	-0.291802	0.982514
C191	C	0.985573	-0.210005	0.794555
C192	C	1.485573	0.289995	1.294555
H193	H	0.992815	-0.216789	0.739480
H194	H	1.492815	0.283211	1.239480
H195	H	0.932458	-0.220834	0.808074
H196	H	1.432458	0.279166	1.308074
H197	H	0.997172	-0.160244	0.808097
H198	H	1.497172	0.339756	1.308097
C199	C	1.287108	-0.785942	0.338845
C200	C	1.787108	-0.285942	0.838845
H201	H	1.321110	-0.827011	0.346541
H202	H	1.821110	-0.327011	0.846541
H203	H	1.306075	-0.756809	0.296299
H204	H	1.806075	-0.256809	0.796299
H205	H	1.285775	-0.756892	0.385488
H206	H	1.785775	-0.256892	0.885488
C207	C	1.248311	-0.456307	0.670672
C208	C	1.748311	0.043693	1.170672
H209	H	1.278404	-0.484517	0.707069
H210	H	1.778404	0.015483	1.207069
H211	H	1.218056	-0.488565	0.638453
H212	H	1.718056	0.011435	1.138453
H213	H	1.282772	-0.427978	0.638486
H214	H	1.782772	0.072022	1.138486
H215	H	1.189299	-0.792720	0.257979
H216	H	1.689299	-0.292720	0.757979
H217	H	1.122844	-0.919686	0.510993
H218	H	1.622844	-0.419686	1.010993
C219	C	1.247860	-0.925872	0.488210
C220	C	1.747860	-0.425872	0.988210
H221	H	1.248875	-0.978347	0.488224
H222	H	1.748875	-0.478347	0.988224
H223	H	1.285864	-0.907735	0.451905
H224	H	1.785864	-0.407735	0.951905
H225	H	1.259788	-0.908150	0.539577
H226	H	1.759788	-0.408150	1.039577
C227	C	1.106701	-0.785812	0.527429
C228	C	1.606701	-0.285812	1.027429
H229	H	1.068078	-0.755091	0.503554
H230	H	1.568078	-0.255091	1.003554
H231	H	1.081603	-0.826937	0.551526
H232	H	1.581603	-0.326937	1.051526
H233	H	1.134582	-0.758429	0.566259
H234	H	1.634582	-0.258429	1.066259
H235	H	1.050536	-0.270896	0.682518
H236	H	1.550536	0.229104	1.182518
C237	C	1.036067	-0.786127	0.274806
C238	C	1.536067	-0.286127	0.774806
H239	H	1.076980	-0.755778	0.254430
H240	H	1.576980	-0.255778	0.754430
H241	H	1.028403	-0.827309	0.240927
H242	H	1.528403	-0.327309	0.740927
H243	H	0.988636	-0.758378	0.277970
H244	H	1.488636	-0.258378	0.777970
H245	H	1.013258	-0.919441	0.404098
H246	H	1.513258	-0.419441	0.904098
C247	C	0.994445	-0.784640	0.413476
C248	C	1.494445	-0.284640	0.913476
H249	H	1.017454	-0.753019	0.451831
H250	H	1.517454	-0.253019	0.951831
H251	H	0.956315	-0.757933	0.383983
H252	H	1.456315	-0.257933	0.883983
H253	H	0.969714	-0.825159	0.439085
H254	H	1.469714	-0.325159	0.939085
C255	C	1.036098	-0.257389	1.091725
C256	C	1.536098	0.242611	1.591725
H257	H	1.043329	-0.264175	1.146798
H258	H	1.543329	0.235825	1.646798
H259	H	1.047686	-0.207631	1.078214
H260	H	1.547686	0.292369	1.578214
H261	H	0.982982	-0.268229	1.078187
H262	H	1.482982	0.231771	1.578187
