data_functionalizedCrystal
_audit_creation_method	'MofGen! by Chris Wilmer'
_symmetry_space_group_name_H-M	'P1'
_symmetry_Int_Tables_number	1
_symmetry_cell_setting	triclinic
loop_
_symmetry_equiv_pos_as_xyz
  x,y,z
_cell_length_a	11.792241
_cell_length_b	17.699083
_cell_length_c	16.176319
_cell_angle_alpha	89.999950
_cell_angle_beta	90.001550
_cell_angle_gamma	96.261785
loop_
_atom_site_label
_atom_site_type_symbol
_atom_site_fract_x
_atom_site_fract_y
_atom_site_fract_z
O1	O	-0.143522	1.004843	0.068622
O2	O	-0.162195	0.784564	0.068647
O3	O	0.012376	0.900049	0.068639
O4	O	-0.318093	0.889358	0.068630
O5	O	0.012377	0.900035	-0.068854
O6	O	-0.162194	0.784550	-0.068846
O7	O	-0.143521	1.004829	-0.068872
Cu8	Cu	-0.152858	0.894688	-0.081413
Cu9	Cu	-0.152858	0.894704	0.081189
O10	O	-0.318092	0.889344	-0.068863
C11	C	-0.161525	0.756356	-0.000096
C12	C	-0.159518	0.672328	-0.000085
C13	C	-0.261988	0.624253	-0.000088
C14	C	-0.260095	0.545299	-0.000099
C15	C	-0.155731	0.514422	-0.000101
C16	C	-0.053254	0.562503	-0.000100
C17	C	-0.055148	0.641455	-0.000096
C18	C	-0.045613	0.244099	-0.000121
C19	C	-0.043727	0.165141	-0.000123
C20	C	-0.250560	0.147944	-0.000124
C21	C	-0.252454	0.226896	-0.000119
C22	C	-0.149977	0.274970	-0.000123
C23	C	-0.152031	0.360580	-0.000113
C24	C	-0.153676	0.428814	-0.000105
C25	C	-0.360375	0.890022	-0.000118
C26	C	-0.486365	0.892032	-0.000122
C27	C	-0.717033	0.895729	-0.000101
C28	C	-0.588672	0.893675	-0.000112
C29	C	0.054660	0.899370	-0.000105
C30	C	0.180649	0.897360	-0.000095
C31	C	-0.144190	1.033036	-0.000127
C32	C	-0.146198	1.117065	-0.000132
N33	N	-0.152857	0.894682	-0.195778
C34	C	-0.221609	0.940864	-0.239046
C35	C	-0.221605	0.940872	-0.325593
C36	C	-0.152853	0.894694	-0.368871
C37	C	-0.084093	0.848511	-0.325596
C38	C	-0.084092	0.848507	-0.239051
C39	C	-0.084094	0.848525	-0.674625
C40	C	-0.084103	0.848530	-0.761176
C41	C	-0.221607	0.940889	-0.761167
C42	C	-0.221606	0.940886	-0.674622
C43	C	-0.152842	0.894706	-0.631355
C44	C	-0.152846	0.894699	-0.537511
C45	C	-0.152855	0.894697	-0.462713
N46	N	-0.152850	0.894716	0.195554
H47	H	-0.334002	0.108792	-0.000125
H48	H	-0.028113	0.810925	-0.796410
H49	H	-0.346973	0.649386	-0.000086
H50	H	-0.028107	0.810902	-0.203823
C51	C	0.130101	0.283054	0.070566
C52	C	0.067030	0.296934	-0.000116
H53	H	0.199643	0.315677	0.070570
H54	H	0.146152	0.231619	0.070559
H55	H	0.087288	0.292465	0.118506
H56	H	0.109840	0.287517	-0.048057
H57	H	0.050982	0.348381	-0.000117
C58	C	0.068872	0.483697	0.070580
C59	C	0.061467	0.528566	-0.000100
H60	H	0.139701	0.462751	0.070583
H61	H	0.008123	0.443768	0.070572
H62	H	0.063833	0.514147	0.118522
H63	H	0.066498	0.498114	-0.048042
H64	H	0.122232	0.568500	-0.000099
H65	H	0.028294	0.680598	-0.000093
H66	H	-0.028108	0.810916	-0.360840
H67	H	-0.277602	0.978462	-0.203816
H68	H	-0.277588	0.978479	-0.360819
C69	C	0.051013	0.051748	-0.000124
C70	C	0.070997	0.131199	-0.000128
H71	H	0.121836	0.030795	-0.000120
H72	H	0.008832	0.035282	-0.048066
H73	H	0.008832	0.035286	0.047828
H74	H	0.113171	0.147662	-0.048083
H75	H	0.113196	0.147672	0.047820
C76	C	-0.357518	1.032190	-0.683308
C77	C	-0.297176	0.991649	-0.627052
H78	H	-0.404163	1.063534	-0.653940
H79	H	-0.404094	0.997553	-0.717062
H80	H	-0.305215	1.062988	-0.717065
H81	H	-0.349479	0.960846	-0.593299
H82	H	-0.250596	1.026290	-0.593284
H83	H	-0.277596	0.978493	-0.796405
C84	C	0.051813	0.757223	-0.683339
C85	C	-0.008521	0.797757	-0.627073
H86	H	0.098463	0.725876	-0.653978
H87	H	0.098383	0.791864	-0.717091
H88	H	-0.000496	0.726429	-0.717098
H89	H	0.043787	0.828556	-0.593318
H90	H	-0.055095	0.763111	-0.593307
C91	C	-0.464735	0.536230	-0.000087
C92	C	-0.372733	0.492455	-0.000098
H93	H	-0.534275	0.503605	-0.000083
H94	H	-0.461176	0.567384	-0.048028
H95	H	-0.461158	0.567380	0.047866
H96	H	-0.376306	0.461309	-0.048055
H97	H	-0.376295	0.461288	0.047847
H98	H	-0.337438	0.252031	-0.000114
