data_functionalizedCrystal
_audit_creation_method	'MofGen! by Chris Wilmer'
_symmetry_space_group_name_H-M	'P1'
_symmetry_Int_Tables_number	1
_symmetry_cell_setting	triclinic
loop_
_symmetry_equiv_pos_as_xyz
  x,y,z
_cell_length_a	12.759395
_cell_length_b	18.050589
_cell_length_c	12.759387
_cell_angle_alpha	90.029987
_cell_angle_beta	90.020509
_cell_angle_gamma	90.029758
loop_
_atom_site_label
_atom_site_type_symbol
_atom_site_fract_x
_atom_site_fract_y
_atom_site_fract_z
Zn1	Zn	1.606170	-0.295590	0.594011
Zn2	Zn	2.106170	0.204410	1.094011
Zn3	Zn	1.606019	-0.419799	0.418334
Zn4	Zn	2.106019	0.080201	0.918334
Zn5	Zn	1.430468	-0.295630	0.418348
Zn6	Zn	1.930468	0.204370	0.918348
Zn7	Zn	1.430419	-0.419746	0.593973
Zn8	Zn	1.930419	0.080254	1.093973
O9	O	1.518269	-0.357691	0.506166
O10	O	2.018269	0.142309	1.006166
O11	O	1.753171	-0.312072	0.570717
O12	O	2.253171	0.187928	1.070717
O13	O	1.582689	-0.403367	0.271315
O14	O	2.082689	0.096633	0.771315
O15	O	1.453859	-0.191700	0.441672
O16	O	1.953859	0.308300	0.941672
O17	O	1.753060	-0.403327	0.441648
O18	O	2.253060	0.096673	0.941648
O19	O	1.582946	-0.191671	0.570731
O20	O	2.082946	0.308329	1.070731
O21	O	1.453713	-0.312141	0.271325
O22	O	1.953713	0.187859	0.771325
O23	O	1.283441	-0.312089	0.441635
O24	O	1.783441	0.187911	0.941635
O25	O	1.453775	-0.403237	0.740999
O26	O	1.953775	0.096763	1.240999
O27	O	1.283405	-0.403277	0.570666
O28	O	1.783405	0.096723	1.070666
O29	O	1.582899	-0.312020	0.741027
O30	O	2.082899	0.187980	1.241027
O31	O	1.582642	-0.523716	0.441611
O32	O	2.082642	-0.023716	0.941611
O33	O	1.453629	-0.523677	0.570652
O34	O	1.953629	-0.023677	1.070652
C35	C	1.245302	-0.357682	0.506148
C36	C	1.745302	0.142318	1.006148
C37	C	1.128525	-0.357696	0.506166
C38	C	1.628525	0.142304	1.006166
C39	C	1.518142	-0.550643	0.506149
C40	C	2.018142	-0.050643	1.006149
C41	C	1.518184	-0.633189	0.506177
C42	C	2.018184	-0.133189	1.006177
C43	C	1.128526	-0.452803	0.640308
C44	C	1.628526	0.047197	1.140308
C45	C	1.073666	-0.500362	0.707383
C46	C	1.573666	-0.000362	1.207383
C47	C	0.963944	-0.500371	0.707395
C48	C	1.463944	-0.000371	1.207395
C49	C	0.909080	-0.452814	0.640329
C50	C	1.409080	0.047186	1.140329
C51	C	0.963940	-0.405255	0.573255
C52	C	1.463940	0.094745	1.073255
C53	C	1.073665	-0.405253	0.573247
C54	C	1.573665	0.094747	1.073247
C55	C	0.963939	-0.310146	0.439119
C56	C	1.463939	0.189854	0.939119
C57	C	1.073661	-0.310139	0.439099
C58	C	1.573661	0.189861	0.939099
C59	C	0.909076	-0.262589	0.372052
C60	C	1.409076	0.237411	0.872052
C61	C	0.963936	-0.215032	0.304971
C62	C	1.463936	0.284968	0.804971
C63	C	1.073664	-0.215026	0.304960
C64	C	1.573664	0.284974	0.804960
C65	C	1.128521	-0.262580	0.372025
C66	C	1.628521	0.237420	0.872025
C67	C	1.448096	-0.832646	0.576325
C68	C	1.948096	-0.332646	1.076325
C69	C	1.422480	-0.882094	0.480456
C70	C	1.922480	-0.382094	0.980456
C71	C	1.518287	-0.784319	0.506190
C72	C	2.018287	-0.284319	1.006190
C73	C	1.543955	-0.881953	0.602070
C74	C	2.043955	-0.381953	1.102070
C75	C	1.518385	-0.930304	0.506212
C76	C	2.018385	-0.430304	1.006212
C77	C	1.492621	-0.832681	0.410271
C78	C	1.992621	-0.332681	0.910271
C79	C	1.614141	-0.832535	0.531950
C80	C	2.114141	-0.332535	1.031950
C81	C	1.588561	-0.881961	0.436015
C82	C	2.088561	-0.381961	0.936015
C83	C	1.518228	-0.700221	0.506179
C84	C	2.018228	-0.200221	1.006179
C85	C	1.518444	-1.014401	0.506212
C86	C	2.018444	-0.514401	1.006212
C87	C	1.792302	-0.357701	0.506185
C88	C	2.292302	0.142299	1.006185
C89	C	1.909079	-0.357705	0.506193
C90	C	2.409079	0.142295	1.006193
C91	C	1.518348	-0.357618	0.780200
C92	C	2.018348	0.142382	1.280200
C93	C	1.518382	-0.357587	0.896977
C94	C	2.018382	0.142413	1.396977
C95	C	1.518425	-0.163986	0.506207
C96	C	2.018425	0.336014	1.006207
C97	C	1.518492	-0.081440	0.506224
C98	C	2.018492	0.418560	1.006224
C99	C	1.518251	-0.357710	0.233199
C100	C	2.018251	0.142290	0.733199
C101	C	1.518420	-0.357532	0.116423
C102	C	2.018420	0.142468	0.616423
C103	C	1.652848	-0.262609	0.897026
C104	C	2.152848	0.237391	1.397026
C105	C	1.720095	-0.215109	0.951911
C106	C	2.220095	0.284891	1.451911
C107	C	1.720121	-0.215082	1.061633
C108	C	2.220121	0.284918	1.561633
C109	C	1.652889	-0.262559	1.116472
C110	C	2.152889	0.237441	1.616472
C111	C	1.585642	-0.310059	1.061586
C112	C	2.085642	0.189941	1.561586
C113	C	1.585626	-0.310082	0.951862
C114	C	2.085626	0.189918	1.451862
C115	C	1.451173	-0.405032	1.061538
C116	C	1.951173	0.094968	1.561538
C117	C	1.451151	-0.405064	0.951816
C118	C	1.951151	0.094936	1.451816
C119	C	1.383942	-0.452509	1.116376
C120	C	1.883942	0.047491	1.616376
C121	C	1.316698	-0.500013	1.061491
C122	C	1.816698	-0.000013	1.561491
C123	C	1.316676	-0.500039	0.951763
C124	C	1.816676	-0.000039	1.451763
C125	C	1.383904	-0.452564	0.896931
C126	C	1.883904	0.047436	1.396931
H127	H	1.217867	-0.452806	0.640297
H128	H	1.717867	0.047194	1.140297
H129	H	1.261904	-0.538712	0.907082
H130	H	1.761904	-0.038712	1.407082
F131	F	1.383891	-0.452591	0.780155
F132	F	1.883891	0.047409	1.280155
F133	F	0.792300	-0.262595	0.372074
F134	F	1.292300	0.237405	0.872074
F135	F	1.666204	-0.910086	0.358418
F136	F	2.166204	-0.410086	0.858418
H137	H	1.383963	-0.452480	1.205718
H138	H	1.883963	0.047520	1.705718
F139	F	1.720009	-0.804061	0.560461
F140	F	2.220009	-0.304061	1.060461
H141	H	1.341466	-0.903879	0.458688
H142	H	1.841466	-0.403879	0.958688
H143	H	1.261958	-0.538661	1.106150
H144	H	1.761958	-0.038661	1.606150
H145	H	1.118348	-0.539081	0.761988
H146	H	1.618348	-0.039081	1.261988
H147	H	0.919257	-0.176312	0.250376
H148	H	1.419257	0.323688	0.750376
H149	H	0.819739	-0.452819	0.640355
H150	H	1.319739	0.047181	1.140355
H151	H	0.919277	-0.539094	0.762019
H152	H	1.419277	-0.039094	1.262019
F153	F	1.245297	-0.262580	0.372014
F154	F	1.745297	0.237420	0.872014
F155	F	1.370400	-0.804340	0.653739
F156	F	1.870400	-0.304340	1.153739
F157	F	1.132042	-0.164402	0.233574
F158	F	1.632042	0.335598	0.733574
H159	H	1.470856	-0.811126	0.329173
H160	H	1.970856	-0.311126	0.829173
F161	F	1.652839	-0.262643	0.780250
F162	F	2.152839	0.237357	1.280250
H163	H	1.565626	-0.903596	0.683146
H164	H	2.065626	-0.403596	1.183146
F165	F	1.791624	-0.164570	0.893541
F166	F	2.291624	0.335430	1.393541
F167	F	1.791678	-0.164518	1.120047
F168	F	2.291678	0.335482	1.620047
F169	F	1.652911	-0.262521	1.233247
F170	F	2.152911	0.237479	1.733247
