data_functionalizedCrystal
_audit_creation_method	'MofGen! by Chris Wilmer'
_symmetry_space_group_name_H-M	'P1'
_symmetry_Int_Tables_number	1
_symmetry_cell_setting	triclinic
loop_
_symmetry_equiv_pos_as_xyz
  x,y,z
_cell_length_a	14.908571
_cell_length_b	13.897448
_cell_length_c	14.908308
_cell_angle_alpha	93.267188
_cell_angle_beta	90.175053
_cell_angle_gamma	86.713891
loop_
_atom_site_label
_atom_site_type_symbol
_atom_site_fract_x
_atom_site_fract_y
_atom_site_fract_z
Zn1	Zn	1.345318	-0.503381	-0.587582
Zn2	Zn	1.353905	-0.655952	-0.437223
Zn3	Zn	1.203632	-0.484854	-0.428580
Zn4	Zn	1.194933	-0.654806	-0.578874
O5	O	1.274447	-0.574748	-0.508065
O6	O	1.472283	-0.531853	-0.574898
O7	O	1.341206	-0.625981	-0.310251
O8	O	1.222474	-0.352335	-0.449699
O9	O	1.478592	-0.643947	-0.464429
O10	O	1.326570	-0.365946	-0.566518
O11	O	1.230801	-0.500276	-0.303902
O12	O	1.076652	-0.499165	-0.441256
O13	O	1.207647	-0.641993	-0.705854
O14	O	1.070260	-0.624028	-0.551676
O15	O	1.318134	-0.530742	-0.712252
O16	O	1.332770	-0.790777	-0.455986
O17	O	1.215974	-0.789935	-0.560056
C18	C	1.040831	-0.559463	-0.494584
C19	C	0.940888	-0.552948	-0.488838
C20	C	0.746485	-0.670908	-0.592867
C21	C	0.652579	-0.664790	-0.587471
C22	C	0.659168	-0.534590	-0.472656
C23	C	0.753074	-0.540708	-0.478051
C24	C	0.796729	-0.608870	-0.538158
C25	C	0.890637	-0.614992	-0.543549
C26	C	0.897224	-0.484788	-0.428738
C27	C	0.803318	-0.478670	-0.423343
C28	C	1.274383	-0.825357	-0.508035
C29	C	1.274436	-0.932575	-0.508057
C30	C	1.274527	-1.128880	-0.508119
C31	C	1.274474	-1.019642	-0.508087
C32	C	1.508975	-0.590094	-0.521599
C33	C	1.608918	-0.596634	-0.527367
C34	C	1.260963	-0.588307	-0.742590
C35	C	1.255216	-0.594084	-0.842531
C36	C	1.274535	-0.323164	-0.508116
C37	C	1.274572	-0.215954	-0.508138
C38	C	1.359466	-0.489073	-1.036993
C39	C	1.354070	-0.494498	-1.130897
C40	C	1.239023	-0.610355	-1.124242
C41	C	1.244420	-0.604930	-1.030339
C42	C	1.304644	-0.544287	-0.986718
C43	C	1.310044	-0.538868	-0.892813
C44	C	1.194994	-0.654719	-0.886160
C45	C	1.189597	-0.660144	-0.980064
C46	C	1.287931	-0.561177	-0.274455
C47	C	1.293851	-0.555139	-0.174525
H48	H	0.926180	-0.670495	-0.592489
O49	O	1.375002	-0.473466	-0.845766
H50	H	1.369555	-0.478975	-0.772022
O51	O	1.174056	-0.675742	-1.171296
H52	H	1.179514	-0.670231	-1.245038
O53	O	1.135823	-0.714233	-0.831927
H54	H	1.093033	-0.757300	-0.878039
H55	H	0.938142	-0.434274	-0.384188
O56	O	1.413189	-0.434928	-1.185119
H57	H	1.399311	-0.448875	-1.257745
O58	O	0.598430	-0.731787	-0.646435
H59	H	0.612410	-0.720679	-0.718081
O60	O	1.424424	-0.423680	-0.989933
H61	H	1.407993	-0.348007	-1.007070
O62	O	0.793581	-0.744421	-0.657690
H63	H	0.742865	-0.786531	-0.694830
O64	O	0.612079	-0.461106	-0.407800
H65	H	0.538340	-0.467292	-0.413229
O66	O	0.756224	-0.405156	-0.358519
H67	H	0.806941	-0.363041	-0.321386
H68	H	1.140563	-0.709515	-1.015593
