data_functionalizedCrystal
_audit_creation_method	'MofGen! by Chris Wilmer'
_symmetry_space_group_name_H-M	'P1'
_symmetry_Int_Tables_number	1
_symmetry_cell_setting	triclinic
loop_
_symmetry_equiv_pos_as_xyz
  x,y,z
_cell_length_a	17.038272
_cell_length_b	11.792241
_cell_length_c	10.868271
_cell_angle_alpha	90.005281
_cell_angle_beta	89.998595
_cell_angle_gamma	87.652486
loop_
_atom_site_label
_atom_site_type_symbol
_atom_site_fract_x
_atom_site_fract_y
_atom_site_fract_z
O1	O	-1.038456	-0.246565	-0.102169
O2	O	-0.705123	0.086768	0.231164
O3	O	-0.371790	0.420102	0.564497
O4	O	-0.810808	-0.242650	-0.102206
O5	O	-0.477475	0.090684	0.231128
O6	O	-0.144142	0.424017	0.564461
O7	O	-0.930157	-0.079921	-0.102178
O8	O	-0.596823	0.253412	0.231155
O9	O	-0.263490	0.586746	0.564489
O10	O	-0.919108	-0.409294	-0.102197
O11	O	-0.585775	-0.075960	0.231136
O12	O	-0.252441	0.257373	0.564470
O13	O	-0.930147	-0.079913	0.102467
O14	O	-0.596813	0.253420	0.435800
O15	O	-0.263480	0.586753	0.769133
O16	O	-0.810798	-0.242642	0.102439
O17	O	-0.477465	0.090691	0.435772
O18	O	-0.144132	0.424025	0.769106
O19	O	-1.038446	-0.246557	0.102475
O20	O	-0.705113	0.086776	0.435809
O21	O	-0.371780	0.420109	0.769142
Zn22	Zn	-0.924621	-0.244598	0.134949
Zn23	Zn	-0.591287	0.088735	0.468282
Zn24	Zn	-0.257954	0.422068	0.801616
Zn25	Zn	-0.924634	-0.244609	-0.134679
Zn26	Zn	-0.591300	0.088725	0.198654
Zn27	Zn	-0.257967	0.422058	0.531987
O28	O	-0.919098	-0.409286	0.102448
O29	O	-0.585765	-0.075953	0.435781
O30	O	-0.252431	0.257381	0.769114
C31	C	-0.781659	-0.239085	0.000112
C32	C	-0.448326	0.094248	0.333446
C33	C	-0.114993	0.427582	0.666779
C34	C	-0.694819	-0.228461	0.000099
C35	C	-0.361486	0.104872	0.333432
C36	C	-0.028153	0.438206	0.666765
C37	C	-0.929458	-0.037565	0.000144
C38	C	-0.596124	0.295768	0.333477
C39	C	-0.262791	0.629101	0.666811
C40	C	-0.927380	0.088630	0.000142
C41	C	-0.594047	0.421964	0.333476
C42	C	-0.260714	0.755297	0.666809
C43	C	-1.067595	-0.250122	0.000155
C44	C	-0.734262	0.083211	0.333488
C45	C	-0.400929	0.416545	0.666821
C46	C	-1.154435	-0.260746	0.000160
C47	C	-0.821102	0.072587	0.333494
C48	C	-0.487768	0.405921	0.666827
C49	C	-0.645136	-0.326001	0.000094
C50	C	-0.311803	0.007332	0.333427
C51	C	0.021530	0.340666	0.666761
C52	C	-0.563542	-0.316012	0.000112
C53	C	-0.230208	0.017321	0.333445
C54	C	0.103125	0.350655	0.666778
C55	C	-0.531632	-0.208482	0.000125
C56	C	-0.198298	0.124851	0.333458
C57	C	0.135035	0.458185	0.666792
C58	C	-0.581321	-0.110935	0.000133
C59	C	-0.247988	0.222398	0.333467
C60	C	0.085346	0.555732	0.666800
C61	C	-0.662914	-0.120925	0.000125
C62	C	-0.329581	0.212408	0.333458
C63	C	0.003752	0.545742	0.666791
C64	C	-0.285718	-0.173189	0.000160
C65	C	0.047616	0.160144	0.333493
C66	C	0.380949	0.493478	0.666827
C67	C	-0.204118	-0.163206	0.000165
C68	C	0.129215	0.170127	0.333498
C69	C	0.462548	0.503461	0.666832
C70	C	-0.186344	-0.368284	0.000145
C71	C	0.146989	-0.034951	0.333479
C72	C	0.480322	0.298383	0.666812
C73	C	-0.267940	-0.378265	0.000129
C74	C	0.065393	-0.044931	0.333463
C75	C	0.398727	0.288402	0.666796
C76	C	-0.317622	-0.280718	0.000144
C77	C	0.015711	0.052616	0.333477
C78	C	0.349045	0.385949	0.666811
C79	C	-0.448229	-0.198269	0.000139
C80	C	-0.114896	0.135064	0.333472
C81	C	0.218438	0.468398	0.666806
C82	C	-0.401023	-0.290932	0.000139
C83	C	-0.067690	0.042402	0.333472
C84	C	0.265643	0.375735	0.666806
C85	C	-0.919797	-0.451642	0.000123
C86	C	-0.586464	-0.118308	0.333456
C87	C	-0.253130	0.215025	0.666790
C88	C	-0.921874	-0.577837	0.000117
C89	C	-0.588541	-0.244504	0.333450
C90	C	-0.255208	0.088829	0.666783
N91	N	-0.924618	-0.244591	0.318963
N92	N	-0.591284	0.088742	0.652296
N93	N	-0.257951	0.422075	0.985630
C94	C	-0.923561	0.319677	0.000121
C95	C	-0.590227	0.653011	0.333454
C96	C	-0.256894	0.986344	0.666788
C97	C	-0.925683	0.191106	0.000133
C98	C	-0.592350	0.524440	0.333466
C99	C	-0.259016	0.857773	0.666799
N100	N	-0.924643	-0.244607	-0.318693
N101	N	-0.591310	0.088726	0.014640
N102	N	-0.257976	0.422059	0.347973
C103	C	-0.924630	-0.244606	0.569969
C104	C	-0.591296	0.088728	0.903302
C105	C	-0.257963	0.422061	1.236636
C106	C	-0.924620	-0.244601	0.430292
C107	C	-0.591287	0.088732	0.763625
C108	C	-0.257954	0.422066	1.096958
H109	H	-0.671111	-0.413563	0.000082
H110	H	-0.337777	-0.080230	0.333415
H111	H	-0.004444	0.253103	0.666749
H112	H	-0.293914	-0.465827	0.000104
H113	H	0.039419	-0.132493	0.333437
H114	H	0.372752	0.200840	0.666771
H115	H	-0.703366	-0.041497	0.000128
H116	H	-0.370033	0.291836	0.333461
H117	H	-0.036699	0.625169	0.666794
H118	H	-0.523092	-0.395440	0.000106
H119	H	-0.189759	-0.062106	0.333440
H120	H	0.143574	0.271227	0.666773
Br121	Br	-0.118915	-0.500662	0.000127
Br122	Br	0.214418	-0.167329	0.333460
Br123	Br	0.547751	0.166005	0.666793
Br124	Br	-0.160813	-0.017263	0.000209
Br125	Br	0.172521	0.316070	0.333543
Br126	Br	0.505854	0.649404	0.666876
Br127	Br	-0.353134	-0.040802	0.000183
Br128	Br	-0.019800	0.292531	0.333516
Br129	Br	0.313533	0.625865	0.666850
H130	H	-0.555334	-0.023382	0.000162
H131	H	-0.222000	0.309952	0.333495
H132	H	0.111333	0.643285	0.666828
H133	H	-0.427008	-0.378482	0.000135
H134	H	-0.093675	-0.045149	0.333468
H135	H	0.239659	0.288185	0.666801
H136	H	-0.422239	-0.110718	0.000185
H137	H	-0.088905	0.222616	0.333518
H138	H	0.244428	0.555949	0.666851
