data_functionalizedCrystal
_audit_creation_method	'MofGen! by Chris Wilmer'
_symmetry_space_group_name_H-M	'P1'
_symmetry_Int_Tables_number	1
_symmetry_cell_setting	triclinic
loop_
_symmetry_equiv_pos_as_xyz
  x,y,z
_cell_length_a	10.654545
_cell_length_b	14.853567
_cell_length_c	9.130313
_cell_angle_alpha	89.999276
_cell_angle_beta	89.996934
_cell_angle_gamma	84.059005
loop_
_atom_site_label
_atom_site_type_symbol
_atom_site_fract_x
_atom_site_fract_y
_atom_site_fract_z
O1	O	1.666527	0.126607	-0.121771
O2	O	1.300923	0.138675	-0.121776
O3	O	1.493491	0.001463	-0.121778
O4	O	1.473959	0.263818	-0.121769
O5	O	1.493478	0.001459	0.121821
O6	O	1.300910	0.138671	0.121823
O7	O	1.666514	0.126603	0.121828
Cu8	Cu	1.483711	0.132636	0.144068
Cu9	Cu	1.483726	0.132641	-0.144016
O10	O	1.473946	0.263814	0.121830
C11	C	1.254127	0.137788	0.000023
C12	C	1.114711	0.135139	0.000020
C13	C	1.049213	0.133890	0.132807
C14	C	0.918219	0.131387	0.132807
C15	C	0.918234	0.131385	-0.132778
C16	C	1.049226	0.133882	-0.132777
C17	C	1.492599	-0.032132	0.000017
C18	C	1.489947	-0.132230	0.000004
C19	C	1.364347	-0.545435	0.000031
C20	C	1.593123	-0.565494	0.000034
C21	C	1.595616	-0.471447	0.000025
C22	C	1.482473	-0.414389	0.000021
C23	C	1.366837	-0.451379	0.000027
C24	C	1.711250	-0.434450	0.000035
C25	C	1.713749	-0.340397	0.000028
C26	C	1.600605	-0.283338	0.000014
C27	C	1.484964	-0.320333	0.000017
C28	C	1.371821	-0.263276	0.000014
C29	C	1.256179	-0.300269	0.000007
C30	C	1.253693	-0.394320	0.000013
C31	C	1.603090	-0.189288	0.000008
C32	C	1.374311	-0.169220	0.000010
C33	C	1.713310	0.127490	0.000026
C34	C	1.852726	0.130138	0.000019
C35	C	1.474838	0.297410	0.000031
C36	C	1.477490	0.397508	0.000034
N37	N	1.483709	0.132633	0.346690
N38	N	1.483738	0.132638	-0.346639
C39	C	1.569007	0.071901	0.423341
C40	C	1.569019	0.071901	0.576678
C41	C	1.398431	0.193372	0.576700
C42	C	1.398414	0.193367	0.423365
H43	H	1.102527	0.134914	0.240938
N44	N	1.838474	-0.300508	0.000031
H45	H	1.888051	-0.321267	-0.090270
H46	H	1.822788	-0.232277	0.000079
N47	N	1.715142	-0.627037	0.000055
H48	H	1.719210	-0.666511	-0.090241
H49	H	1.788708	-0.589273	0.000108
H50	H	1.102557	0.134897	-0.240914
H51	H	0.864896	0.130370	0.240935
H52	H	1.282175	-0.122769	0.000000
H53	H	1.638474	0.022447	0.639083
H54	H	1.638457	0.022446	0.360916
H55	H	1.328988	0.242822	0.639144
N56	N	1.134149	-0.238725	0.000040
H57	H	1.153282	-0.173533	0.000054
H58	H	1.083751	-0.250769	-0.090260
H59	H	1.270194	-0.575559	0.000019
N60	N	0.847604	0.130028	-0.276003
H61	H	0.754681	0.128258	-0.255858
H62	H	0.860415	0.186252	-0.333995
N63	N	1.128975	-0.434218	0.000011
H64	H	1.144568	-0.502456	0.000023
H65	H	1.079457	-0.413395	0.090316
N66	N	1.833266	-0.495996	0.000057
H67	H	1.837337	-0.535465	-0.090245
H68	H	1.906836	-0.458236	0.000124
H69	H	1.697244	-0.159172	0.000023
H70	H	1.328948	0.242822	0.360952
