data_functionalizedCrystal
_audit_creation_method	'MofGen! by Chris Wilmer'
_symmetry_space_group_name_H-M	'P1'
_symmetry_Int_Tables_number	1
_symmetry_cell_setting	triclinic
loop_
_symmetry_equiv_pos_as_xyz
  x,y,z
_cell_length_a	10.723024
_cell_length_b	10.723024
_cell_length_c	15.186229
_cell_angle_alpha	89.997422
_cell_angle_beta	89.996943
_cell_angle_gamma	84.467869
loop_
_atom_site_label
_atom_site_type_symbol
_atom_site_fract_x
_atom_site_fract_y
_atom_site_fract_z
O1	O	1.657187	0.175026	-0.073220
O2	O	1.294034	0.191779	-0.073223
O3	O	1.483987	0.001826	-0.073219
O4	O	1.467234	0.364978	-0.073225
O5	O	1.483974	0.001823	0.073239
O6	O	1.294021	0.191776	0.073234
O7	O	1.657174	0.175023	0.073237
Zn8	Zn	1.475596	0.183399	0.096489
Zn9	Zn	1.475612	0.183403	-0.096475
O10	O	1.467221	0.364976	0.073232
C11	C	1.247528	0.190558	0.000005
C12	C	1.108974	0.186911	0.000004
C13	C	0.917217	0.073603	0.000004
C14	C	1.060420	0.077371	0.000006
C15	C	1.482762	-0.044675	0.000009
C16	C	1.479114	-0.183229	0.000006
C17	C	1.585401	-0.258212	0.000006
C18	C	1.581634	-0.401415	0.000002
C19	C	1.703680	0.176243	0.000007
C20	C	1.842234	0.179891	0.000002
C21	C	1.468447	0.411477	0.000003
C22	C	1.472094	0.550031	-0.000000
N23	N	1.475593	0.183396	0.228181
N24	N	1.475625	0.183396	-0.228168
C25	C	1.559733	0.099313	0.453906
C26	C	1.559737	0.099311	0.546096
C27	C	1.391475	0.267482	0.546101
C28	C	1.391466	0.267478	0.453913
C29	C	1.475602	0.183395	0.407818
C30	C	1.475615	0.183397	0.592196
C31	C	1.475619	0.183394	0.692152
C32	C	1.475598	0.183396	0.307855
H33	H	1.124853	-0.013619	0.000002
H34	H	1.381099	-0.385544	0.000006
C35	C	1.652271	0.006815	0.403201
C36	C	1.748122	0.056436	0.339815
C37	C	1.840659	-0.036069	0.289114
C38	C	1.837346	-0.178194	0.301798
C39	C	1.741491	-0.227821	0.365187
C40	C	1.648954	-0.135317	0.415889
H41	H	1.750578	0.161652	0.330423
H42	H	1.911617	0.000670	0.242189
H43	H	1.905847	-0.246671	0.264266
H44	H	1.739035	-0.333037	0.374579
H45	H	1.577996	-0.172056	0.462813
H46	H	1.672624	-0.465848	0.000006
C47	C	1.352407	-0.239713	0.000003
C48	C	1.259174	-0.210456	-0.076048
C49	C	1.132463	-0.266936	-0.076051
C50	C	1.098984	-0.352673	-0.000002
C51	C	1.192218	-0.381935	0.076055
C52	C	1.318930	-0.325455	0.076058
H53	H	1.283956	-0.146984	-0.132350
H54	H	1.063445	-0.245274	-0.132354
H55	H	1.005185	-0.394483	-0.000004
H56	H	1.167437	-0.445406	0.132356
H57	H	1.387948	-0.347117	0.132361
H58	H	1.628243	0.030842	0.583619
C59	C	1.298938	0.359981	0.596806
C60	C	1.299010	0.360065	0.698209
C61	C	1.206473	0.452569	0.748910
C62	C	1.113863	0.544990	0.698209
C63	C	1.113788	0.544909	0.596800
C64	C	1.206325	0.452404	0.546099
H65	H	1.367568	0.291647	0.735746
H66	H	1.206529	0.452629	0.823980
H67	H	1.045362	0.613467	0.735741
H68	H	1.045230	0.613327	0.559263
H69	H	1.206269	0.452345	0.471029
H70	H	0.875395	-0.020182	0.000019
C71	C	1.021948	0.309847	0.000001
C72	C	0.928608	0.338610	-0.076051
C73	C	0.841571	0.461546	-0.076054
C74	C	0.847874	0.555719	-0.000005
C75	C	0.941218	0.526959	0.076053
C76	C	1.028255	0.404023	0.076056
H77	H	0.923938	0.268895	-0.132353
H78	H	0.772471	0.482836	-0.132358
H79	H	0.783444	0.646724	-0.000007
H80	H	0.945888	0.596673	0.132355
H81	H	1.097354	0.382733	0.132360
H82	H	0.884056	0.273677	0.000006
H83	H	1.679187	-0.216390	0.000012
H84	H	1.322951	0.335948	0.416385
