data_functionalizedCrystal
_audit_creation_method	'MofGen! by Chris Wilmer'
_symmetry_space_group_name_H-M	'P1'
_symmetry_Int_Tables_number	1
_symmetry_cell_setting	triclinic
loop_
_symmetry_equiv_pos_as_xyz
  x,y,z
_cell_length_a	21.295418
_cell_length_b	16.120484
_cell_length_c	16.120297
_cell_angle_alpha	84.385569
_cell_angle_beta	92.858291
_cell_angle_gamma	87.057675
loop_
_atom_site_label
_atom_site_type_symbol
_atom_site_fract_x
_atom_site_fract_y
_atom_site_fract_z
Zn1	Zn	0.929946	0.356428	-0.489852
Zn2	Zn	1.429946	0.856428	0.010148
Zn3	Zn	0.929866	0.489118	-0.357163
Zn4	Zn	1.429866	0.989118	0.142837
Zn5	Zn	0.830299	0.349398	-0.350056
Zn6	Zn	1.330299	0.849398	0.149944
Zn7	Zn	0.819029	0.496197	-0.496838
Zn8	Zn	1.319029	0.996197	0.003162
O9	O	0.877285	0.422785	-0.423477
O10	O	1.377285	0.922785	0.076523
O11	O	1.018023	0.374009	-0.472302
O12	O	1.518023	0.874009	0.027698
O13	O	0.921342	0.464679	-0.239260
O14	O	1.421342	0.964679	0.260740
O15	O	0.848268	0.233364	-0.362702
O16	O	1.348268	0.733364	0.137298
O17	O	1.017965	0.471496	-0.374815
O18	O	1.517965	0.971496	0.125185
O19	O	0.921478	0.238529	-0.465410
O20	O	1.421478	0.738529	0.034590
O21	O	0.848191	0.362028	-0.234039
O22	O	1.348191	0.862028	0.265961
O23	O	0.740716	0.368892	-0.369476
O24	O	1.240716	0.868892	0.130524
O25	O	0.829059	0.483561	-0.612871
O26	O	1.329059	0.983561	-0.112871
O27	O	0.732436	0.476745	-0.477316
O28	O	1.232436	0.976745	0.022684
O29	O	0.910549	0.380873	-0.607739
O30	O	1.410549	0.880873	-0.107739
O31	O	0.910414	0.607024	-0.381589
O32	O	1.410414	1.107024	0.118411
O33	O	0.828982	0.612225	-0.484207
O34	O	1.328982	1.112225	0.015793
C35	C	0.713736	0.422824	-0.423383
C36	C	1.213736	0.922824	0.076617
C37	C	0.643767	0.422862	-0.423364
C38	C	1.143767	0.922862	0.076636
C39	C	0.868482	0.639953	-0.434445
C40	C	1.368482	1.139953	0.065555
C41	C	0.864773	0.732860	-0.439166
C42	C	1.364773	1.232860	0.060834
C43	C	0.868555	0.433791	-0.641479
C44	C	1.368555	0.933791	-0.141479
C45	C	0.864835	0.438481	-0.734379
C46	C	1.364835	0.938481	-0.234379
C47	C	0.606605	0.479088	-0.479440
C48	C	1.106605	0.979088	0.020560
C49	C	0.540862	0.479069	-0.479476
C50	C	1.040862	0.979069	0.020524
C51	C	0.512283	0.422833	-0.423422
C52	C	1.012283	0.922833	0.076578
C53	C	0.549453	0.366597	-0.367342
C54	C	1.049453	0.866597	0.132658
C55	C	0.615195	0.366612	-0.367313
C56	C	1.115195	0.866612	0.132687
N57	N	0.412215	0.412594	-0.349988
N58	N	0.912215	0.912594	0.150012
N59	N	0.349763	0.412585	-0.350018
N60	N	0.849763	0.912585	0.149982
C61	C	0.314207	0.422784	-0.423508
C62	C	0.814207	0.922784	0.076492
N63	N	0.343462	0.433009	-0.496969
N64	N	0.843462	0.933009	0.003031
N65	N	0.405920	0.433022	-0.496938
N66	N	0.905920	0.933022	0.003062
C67	C	0.440998	0.422810	-0.423448
C68	C	0.940998	0.922810	0.076552
C69	C	0.205759	0.478992	-0.479628
C70	C	0.705759	0.978992	0.020372
C71	C	0.140015	0.478968	-0.479666
C72	C	0.640015	0.978968	0.020334
C73	C	0.148607	0.366500	-0.367524
C74	C	0.648607	0.866500	0.132476
C75	C	0.214350	0.366520	-0.367494
C76	C	0.714350	0.866520	0.132506
C77	C	0.242922	0.422771	-0.423545
C78	C	0.742922	0.922771	0.076455
C79	C	1.041473	0.422747	-0.423572
C80	C	1.541473	0.922747	0.076428
C81	C	1.111440	0.422730	-0.423612
C82	C	1.611440	0.922730	0.076388
C83	C	0.886139	0.204770	-0.412484
C84	C	1.386139	0.704770	0.087516
C85	C	0.889912	0.111865	-0.407800
C86	C	1.389912	0.611865	0.092200
C87	C	0.858003	0.902963	-0.447801
C88	C	1.358003	1.402963	0.052199
C89	C	0.896679	0.941768	-0.399167
C90	C	1.396679	1.441768	0.100833
C91	C	0.892912	1.036419	-0.403972
C92	C	1.392912	1.536419	0.096028
C93	C	0.861769	0.808303	-0.442997
C94	C	1.361769	1.308303	0.057003
C95	C	0.858021	0.447025	-0.904466
C96	C	1.358021	0.947025	-0.404466
C97	C	0.896684	0.398295	-0.943327
C98	C	1.396684	0.898295	-0.443327
C99	C	0.892892	0.403049	-1.037970
C100	C	1.392892	0.903049	-0.537970
C101	C	0.861811	0.442272	-0.809815
C102	C	1.361811	0.942272	-0.309815
C103	C	0.886020	0.411762	-0.206320
C104	C	1.386020	0.911762	0.293680
C105	C	0.889871	0.406837	-0.113409
C106	C	1.389871	0.906837	0.386591
H107	H	0.510599	0.524854	-0.525143
H108	H	1.010599	1.024854	-0.025143
N109	N	0.810393	0.953102	-0.507726
N110	N	1.310393	1.453102	-0.007726
H111	H	0.832984	0.991228	-0.548302
H112	H	1.332984	1.491228	-0.048302
H113	H	0.781206	0.987613	-0.475447
H114	H	1.281206	1.487613	0.024553
N115	N	0.944287	0.891624	-0.339232
N116	N	1.444287	1.391624	0.160768
H117	H	0.940263	0.830136	-0.344250
H118	H	1.440263	1.330136	0.155750
H119	H	0.936318	0.903860	-0.280284
H120	H	1.436318	1.403860	0.219716
H121	H	0.822076	0.492312	-0.942272
H122	H	1.322076	0.992312	-0.442272
H123	H	0.629864	0.524890	-0.525082
H124	H	1.129864	1.024890	-0.025082
N125	N	0.117786	0.305847	-0.307067
N126	N	0.617786	0.805847	0.192933
H127	H	0.131056	0.315723	-0.247974
H128	H	0.631056	0.815723	0.252026
H129	H	0.131163	0.246835	-0.317197
H130	H	0.631163	0.746835	0.182803
H131	H	0.526180	0.320808	-0.321704
H132	H	1.026180	0.820808	0.178296
H133	H	0.229023	0.524791	-0.525273
H134	H	0.729023	1.024791	-0.025273
N135	N	0.655281	0.305960	-0.306834
N136	N	1.155281	0.805960	0.193166
H137	H	0.627204	0.270326	-0.271332
H138	H	1.127204	0.770326	0.228668
H139	H	0.682698	0.337970	-0.269799
H140	H	1.182698	0.837970	0.230201
N141	N	0.099930	0.539617	-0.540148
N142	N	0.599930	1.039617	-0.040148
H143	H	0.128008	0.575254	-0.575645
H144	H	0.628008	1.075254	-0.075645
H145	H	0.072419	0.576510	-0.508016
H146	H	0.572419	1.076510	-0.008016
H147	H	0.932631	0.353004	-0.905519
H148	H	1.432631	0.853004	-0.405519
N149	N	0.254437	0.305872	-0.307017
N150	N	0.754437	0.805872	0.192983
H151	H	0.226358	0.270240	-0.271513
H152	H	0.726358	0.770240	0.228487
H153	H	0.281856	0.337878	-0.269982
H154	H	0.781856	0.837878	0.230018
