data_functionalizedCrystal
_audit_creation_method	'MofGen! by Chris Wilmer'
_symmetry_space_group_name_H-M	'P1'
_symmetry_Int_Tables_number	1
_symmetry_cell_setting	triclinic
loop_
_symmetry_equiv_pos_as_xyz
  x,y,z
_cell_length_a	12.759400
_cell_length_b	12.759401
_cell_length_c	11.169409
_cell_angle_alpha	89.979208
_cell_angle_beta	89.966264
_cell_angle_gamma	90.013728
loop_
_atom_site_label
_atom_site_type_symbol
_atom_site_fract_x
_atom_site_fract_y
_atom_site_fract_z
Zn1	Zn	-0.418209	1.606279	-0.678538
Zn2	Zn	-0.593934	1.606166	-0.477850
Zn3	Zn	-0.418267	1.430574	-0.477871
Zn4	Zn	-0.593843	1.430569	-0.678494
O5	O	-0.506063	1.518397	-0.578188
O6	O	-0.441533	1.753285	-0.651925
O7	O	-0.570694	1.582828	-0.309903
O8	O	-0.271238	1.453930	-0.504518
O9	O	-0.570637	1.753202	-0.504481
O10	O	-0.271195	1.583020	-0.651947
O11	O	-0.441632	1.453821	-0.309919
O12	O	-0.441544	1.283552	-0.504475
O13	O	-0.570482	1.453923	-0.846449
O14	O	-0.570539	1.283549	-0.651871
O15	O	-0.441444	1.583016	-0.846482
O16	O	-0.740943	1.582824	-0.504438
O17	O	-0.740876	1.453814	-0.651850
C18	C	-0.506039	1.245430	-0.578172
C19	C	-0.506053	1.128653	-0.578193
C20	C	-0.438955	1.073827	-0.655086
C21	C	-0.438975	0.964103	-0.655094
C22	C	-0.573201	0.964040	-0.501311
C23	C	-0.573174	1.073762	-0.501298
C24	C	-0.371834	1.128717	-0.731981
C25	C	-0.304732	1.073891	-0.808881
C26	C	-0.304752	0.964167	-0.808889
C27	C	-0.371874	0.909269	-0.731996
C28	C	-0.779031	1.518335	-0.578163
C29	C	-0.895807	1.518404	-0.578193
C30	C	-0.950669	1.585654	-0.501520
C31	C	-1.060393	1.585719	-0.501557
C32	C	-1.060384	1.451274	-0.654943
C33	C	-0.950662	1.451215	-0.654911
C34	C	-0.895815	1.652843	-0.424802
C35	C	-0.950677	1.720098	-0.348122
C36	C	-1.060401	1.720162	-0.348159
C37	C	-1.115263	1.652972	-0.424876
C38	C	-0.232030	1.518488	-0.578240
C39	C	-0.115253	1.518527	-0.578261
C40	C	-0.505947	1.518481	-0.891231
C41	C	-0.505897	1.518517	-1.024631
C42	C	-0.506089	1.792430	-0.578206
C43	C	-0.506100	1.909207	-0.578213
C44	C	-0.506103	1.518373	-0.266363
C45	C	-0.505857	1.518541	-0.132964
H46	H	-0.371810	1.218060	-0.731983
H47	H	-0.905993	1.396455	-0.717346
H48	H	-0.627812	1.118403	-0.438685
F49	F	-1.118786	1.791748	-0.266561
H50	H	-0.250076	1.118596	-0.871477
H51	H	-0.250106	0.919531	-0.871496
H52	H	-1.204607	1.653038	-0.424909
H53	H	-0.627851	0.919334	-0.438711
F54	F	-1.118775	1.379769	-0.736582
H55	H	-0.806472	1.652795	-0.424759
H56	H	-0.906002	1.774808	-0.285668
H57	H	-0.371863	0.819924	-0.731983
