data_functionalizedCrystal
_audit_creation_method	'MofGen! by Chris Wilmer'
_symmetry_space_group_name_H-M	'P1'
_symmetry_Int_Tables_number	1
_symmetry_cell_setting	triclinic
loop_
_symmetry_equiv_pos_as_xyz
  x,y,z
_cell_length_a	17.077404
_cell_length_b	21.295416
_cell_length_c	17.077396
_cell_angle_alpha	89.969282
_cell_angle_beta	90.019501
_cell_angle_gamma	89.969444
loop_
_atom_site_label
_atom_site_type_symbol
_atom_site_fract_x
_atom_site_fract_y
_atom_site_fract_z
Zn1	Zn	1.200014	0.250605	0.443831
Zn2	Zn	1.199904	0.355878	0.312559
Zn3	Zn	1.068746	0.250628	0.312578
Zn4	Zn	1.068697	0.355841	0.443783
O5	O	1.134340	0.303238	0.378188
O6	O	1.309846	0.264577	0.426429
O7	O	1.182480	0.341942	0.202715
O8	O	1.086225	0.162535	0.330017
O9	O	1.309766	0.341920	0.329985
O10	O	1.182668	0.162519	0.426448
O11	O	1.086119	0.264614	0.202729
O12	O	0.958892	0.264578	0.329971
O13	O	1.086142	0.341857	0.553636
O14	O	0.958856	0.341878	0.426366
O15	O	1.182620	0.264540	0.553671
O16	O	1.182433	0.443963	0.329939
O17	O	1.086035	0.443935	0.426348
C18	C	0.930392	0.303227	0.378166
C19	C	0.843142	0.303237	0.378175
C20	C	0.802154	0.343548	0.428288
C21	C	0.720174	0.343549	0.428301
C22	C	0.679183	0.303242	0.378196
C23	C	0.720177	0.262927	0.328081
C24	C	0.802156	0.262923	0.328073
C25	C	0.549307	0.262940	0.328100
C26	C	0.467323	0.262944	0.328107
C27	C	0.467325	0.343566	0.428328
C28	C	0.549304	0.343562	0.428319
C29	C	0.590292	0.303247	0.378203
C30	C	1.134238	0.466790	0.378153
C31	C	1.134266	0.536758	0.378165
C32	C	1.184505	0.569618	0.328017
C33	C	1.184542	0.635360	0.328039
C34	C	1.134326	0.668240	0.378199
C35	C	1.084084	0.635372	0.428356
C36	C	1.084054	0.569631	0.428339
N37	N	1.065658	0.771506	0.384181
N38	N	1.065688	0.833958	0.384193
C39	C	1.134415	0.866315	0.378254
N40	N	1.203111	0.833862	0.372288
N41	N	1.203079	0.771405	0.372273
C42	C	1.134353	0.739526	0.378223
C43	C	1.184698	0.970461	0.328128
C44	C	1.184736	1.036204	0.328154
C45	C	1.084271	1.036215	0.428467
C46	C	1.084240	0.970473	0.428445
C47	C	1.134452	0.937599	0.378271
C48	C	1.339084	0.303250	0.378210
C49	C	1.426334	0.303255	0.378219
C50	C	1.134388	0.303192	0.582932
C51	C	1.134408	0.303172	0.670182
C52	C	1.134465	1.139048	0.378253
C53	C	1.134521	1.069080	0.378316
C54	C	1.134338	0.303239	0.174240
C55	C	1.134470	0.303081	0.086991
C56	C	1.184646	0.262910	0.711192
C57	C	1.184655	0.262889	0.793172
C58	C	1.134430	0.303134	0.834142
C59	C	1.084187	0.343397	0.793126
C60	C	1.084174	0.343415	0.711147
C61	C	1.084218	0.343360	0.963996
C62	C	1.084232	0.343343	1.045981
C63	C	1.184700	0.262834	1.046021
C64	C	1.184687	0.262851	0.964042
C65	C	1.134444	0.303116	0.923033
H66	H	0.835523	0.376372	0.469086
N67	N	1.032911	0.384426	1.087849
N68	N	0.982935	0.362236	1.133592
H69	H	0.946687	0.391245	1.163169
H70	H	1.043388	1.062985	0.469312
N71	N	1.235981	0.936874	0.276877
N72	N	1.230822	0.944261	0.204441
H73	H	1.267040	0.920541	0.168245
H74	H	1.225455	0.662120	0.287203
H75	H	1.043293	0.376138	0.930609
N76	N	0.425457	0.384734	0.479533
N77	N	0.434647	0.380634	0.551975
H78	H	0.405073	0.409710	0.588136
H79	H	0.835528	0.230095	0.287271
H80	H	0.686805	0.376375	0.469107
N81	N	0.591174	0.384745	0.479486
N82	N	0.581982	0.442826	0.474144
H83	H	0.611553	0.471913	0.510282
N84	N	1.032721	0.536061	0.479552
N85	N	0.982698	0.499432	0.451876
H86	H	0.946442	0.475721	0.488045
H87	H	1.043327	0.943716	0.469276
H88	H	1.043257	0.376194	0.677758
H89	H	1.043199	0.662147	0.469198
H90	H	1.225652	1.062958	0.287320
H91	H	0.433950	0.230115	0.287317
N92	N	0.591165	0.221748	0.276913
N93	N	0.554559	0.185761	0.232182
H94	H	0.584121	0.156670	0.196030
N95	N	1.032878	0.384509	0.834965
N96	N	1.038025	0.442598	0.825789
H97	H	1.001784	0.471634	0.855333
H98	H	0.686796	0.230106	0.287289
H99	H	1.225393	0.542854	0.287165
H100	H	1.225548	0.230140	0.677840
H101	H	1.225589	0.230084	0.930687
N102	N	1.235977	0.221758	0.835050
N103	N	1.280821	0.185832	0.798461
H104	H	1.317071	0.156782	0.828036
H105	H	1.225608	0.230048	1.079415
