data_functionalizedCrystal
_audit_creation_method	'MofGen! by Chris Wilmer'
_symmetry_space_group_name_H-M	'P1'
_symmetry_Int_Tables_number	1
_symmetry_cell_setting	triclinic
loop_
_symmetry_equiv_pos_as_xyz
  x,y,z
_cell_length_a	14.519731
_cell_length_b	14.472310
_cell_length_c	14.519709
_cell_angle_alpha	90.002001
_cell_angle_beta	96.315501
_cell_angle_gamma	89.985857
loop_
_atom_site_label
_atom_site_type_symbol
_atom_site_fract_x
_atom_site_fract_y
_atom_site_fract_z
O1	O	-1.223868	0.076867	0.120978
O2	O	-0.723868	0.576867	0.620978
O3	O	-0.955393	0.076864	0.135195
O4	O	-0.455393	0.576864	0.635195
O5	O	-1.096749	0.076857	-0.006151
O6	O	-0.596749	0.576857	0.493849
O7	O	-1.082512	0.076873	0.262324
O8	O	-0.582512	0.576873	0.762324
O9	O	-1.096712	-0.076825	-0.006143
O10	O	-0.596712	0.423175	0.493857
O11	O	-0.955357	-0.076818	0.135203
O12	O	-0.455357	0.423182	0.635203
O13	O	-1.223831	-0.076815	0.120987
O14	O	-0.723831	0.423185	0.620987
Cu15	Cu	-1.089591	-0.090849	0.128095
Cu16	Cu	-0.589591	0.409151	0.628095
Cu17	Cu	-1.089634	0.090898	0.128086
Cu18	Cu	-0.589634	0.590898	0.628086
O19	O	-1.082476	-0.076809	0.262333
O20	O	-0.582476	0.423191	0.762333
C21	C	-0.921016	0.000022	0.134532
C22	C	-0.421016	0.500022	0.634532
C23	C	-0.818635	0.000021	0.132536
C24	C	-0.318635	0.500021	0.632536
C25	C	-0.735491	0.000023	0.130915
C26	C	-0.235491	0.500023	0.630915
C27	C	-0.631182	0.000021	0.128888
C28	C	-0.131182	0.500021	0.628888
C29	C	-0.548043	0.000020	0.127280
C30	C	-0.048043	0.500020	0.627280
C31	C	-0.443728	0.000020	0.125253
C32	C	0.056272	0.500020	0.625253
N33	N	-1.089567	-0.218680	0.128102
N34	N	-0.589567	0.281320	0.628102
C35	C	-1.089632	-0.592771	0.128082
C36	C	-0.589632	-0.092771	0.628082
C37	C	-1.013742	-0.553602	0.203459
C38	C	-0.513742	-0.053602	0.703459
C39	C	-1.013917	-0.446514	0.203735
C40	C	-0.513917	0.053486	0.703735
C41	C	-1.089599	-0.407180	0.128092
C42	C	-0.589599	0.092820	0.628092
C43	C	-1.185859	-0.446015	0.149275
C44	C	-0.685859	0.053985	0.649275
C45	C	-1.185433	-0.553136	0.149811
C46	C	-0.685433	-0.053136	0.649811
C47	C	-1.070122	-0.553307	0.031300
C48	C	-0.570122	-0.053307	0.531300
C49	C	-1.067916	-0.446180	0.031941
C50	C	-0.567916	0.053820	0.531941
C51	C	-1.089586	-0.302292	0.128095
C52	C	-0.589586	0.197708	0.628095
C53	C	-1.089652	-0.697659	0.128080
C54	C	-0.589652	-0.197659	0.628080
C55	C	-0.258209	0.000024	0.121649
C56	C	0.241791	0.500024	0.621649
C57	C	-0.360589	0.000018	0.123645
C58	C	0.139411	0.500018	0.623645
C59	C	-1.096067	0.000016	-0.040507
C60	C	-0.596067	0.500016	0.459493
C61	C	-1.094079	0.000015	-0.142889
C62	C	-0.594079	0.500015	0.357111
N63	N	-1.089665	0.218728	0.128072
N64	N	-0.589665	0.718728	0.628072
C65	C	-1.086759	0.000039	-0.517785
C66	C	-0.586759	0.500039	-0.017785
C67	C	-1.088792	0.000032	-0.413477
C68	C	-0.588792	0.500032	0.086523
C69	C	-1.090419	0.000026	-0.330340
C70	C	-0.590419	0.500026	0.169660
C71	C	-1.092452	0.000021	-0.226025
C72	C	-0.592452	0.500021	0.273975
C73	C	-1.083157	0.000035	0.296688
C74	C	-0.583157	0.500035	0.796688
C75	C	-1.085146	0.000041	0.399070
C76	C	-0.585146	0.500041	0.899070
H77	H	-0.941964	-0.579392	0.191019
H78	H	-0.441964	-0.079392	0.691019
H79	H	-0.997106	-0.420799	0.015869
H80	H	-0.497106	0.079201	0.515869
H81	H	-1.203434	-0.419173	0.219059
H82	H	-0.703434	0.080827	0.719059
H83	H	-1.026046	-0.580507	0.274872
H84	H	-0.526046	-0.080507	0.774872
C85	C	-1.040752	-0.487649	0.358739
C86	C	-0.540752	0.012351	0.858739
C87	C	-1.030770	-0.411893	0.300681
C88	C	-0.530770	0.088107	0.800681
H89	H	-1.051165	-0.466274	0.418589
H90	H	-0.551165	0.033726	0.918589
H91	H	-0.985946	-0.523969	0.363247
H92	H	-0.485946	-0.023969	0.863247
H93	H	-1.091925	-0.524072	0.333760
H94	H	-0.591925	-0.024072	0.833760
H95	H	-0.979591	-0.375473	0.325656
H96	H	-0.479591	0.124527	0.825656
H97	H	-1.085582	-0.375558	0.296175
H98	H	-0.585582	0.124442	0.796175
C99	C	-1.222733	-0.510559	0.301174
C100	C	-0.722733	-0.010559	0.801174
C101	C	-1.208600	-0.586854	0.245103
C102	C	-0.708600	-0.086854	0.745103
H103	H	-1.237028	-0.531374	0.360006
H104	H	-0.737028	-0.031374	0.860006
H105	H	-1.272668	-0.474541	0.272706
H106	H	-0.772668	0.025459	0.772706
H107	H	-1.168079	-0.474029	0.308848
H108	H	-0.668079	0.025971	0.808848
H109	H	-1.263256	-0.623380	0.237424
H110	H	-0.763256	-0.123380	0.737424
H111	H	-1.158660	-0.622887	0.273578
H112	H	-0.658660	-0.122887	0.773578
H113	H	-1.243688	-0.420534	0.095842
H114	H	-0.743688	0.079466	0.595842
C115	C	-0.917287	-0.314310	0.186959
C116	C	-0.417287	0.185690	0.686959
C117	C	-0.917319	-0.411063	0.186719
C118	C	-0.417319	0.088937	0.686719
H119	H	-0.857646	-0.292430	0.176464
H120	H	-0.357646	0.207570	0.676464
H121	H	-0.932189	-0.292576	0.245243
H122	H	-0.432189	0.207424	0.745243
H123	H	-0.961998	-0.292310	0.139319
H124	H	-0.461998	0.207690	0.639319
H125	H	-0.872613	-0.433064	0.234363
H126	H	-0.372613	0.066936	0.734363
H127	H	-0.902406	-0.432806	0.128427
H128	H	-0.402406	0.067194	0.628427
C129	C	-1.311180	-0.512579	0.035517
C130	C	-0.811180	-0.012579	0.535517
C131	C	-1.263956	-0.588120	0.078518
C132	C	-0.763956	-0.088120	0.578518
H133	H	-1.359656	-0.534175	-0.008492
H134	H	-0.859656	-0.034175	0.491508
H135	H	-1.269303	-0.476235	0.005000
H136	H	-0.769303	0.023765	0.505000
H137	H	-1.336620	-0.476104	0.080883
H138	H	-0.836620	0.023896	0.580883
H139	H	-1.238509	-0.624591	0.033153
H140	H	-0.738509	-0.124591	0.533153
H141	H	-1.305840	-0.624479	0.109036
H142	H	-0.805840	-0.124479	0.609036
C143	C	-0.936550	-0.648277	0.073614
C144	C	-0.436550	-0.148277	0.573614
C145	C	-0.977389	-0.589810	0.003874
C146	C	-0.477389	-0.089810	0.503874
H147	H	-0.879295	-0.670806	0.056691
H148	H	-0.379295	-0.170806	0.556691
H149	H	-0.976772	-0.698766	0.081330
H150	H	-0.476772	-0.198766	0.581330
H151	H	-0.925872	-0.614901	0.130115
H152	H	-0.425872	-0.114901	0.630115
H153	H	-0.988073	-0.623187	-0.052626
H154	H	-0.488073	-0.123187	0.447374
H155	H	-0.937157	-0.539313	-0.003853
H156	H	-0.437157	-0.039313	0.496147
H157	H	-1.119589	-0.419408	-0.026792
H158	H	-0.619589	0.080592	0.473208
C159	C	-1.191472	-0.511555	-0.087262
C160	C	-0.691472	-0.011555	0.412738
C161	C	-1.144823	-0.587503	-0.044432
C162	C	-0.644823	-0.087503	0.455568
H163	H	-1.237593	-0.532672	-0.134006
H164	H	-0.737593	-0.032672	0.365994
H165	H	-1.148573	-0.473420	-0.114410
H166	H	-0.648573	0.026580	0.385590
H167	H	-1.219900	-0.477073	-0.042416
H168	H	-0.719900	0.022927	0.457584
H169	H	-1.116389	-0.621981	-0.089276
H170	H	-0.616389	-0.121981	0.410724
H171	H	-1.187729	-0.625654	-0.017284
H172	H	-0.687729	-0.125654	0.482716
