data_functionalizedCrystal
_audit_creation_method	'MofGen! by Chris Wilmer'
_symmetry_space_group_name_H-M	'P1'
_symmetry_Int_Tables_number	1
_symmetry_cell_setting	triclinic
loop_
_symmetry_equiv_pos_as_xyz
  x,y,z
_cell_length_a	12.811457
_cell_length_b	14.044190
_cell_length_c	11.892095
_cell_angle_alpha	94.240074
_cell_angle_beta	91.498327
_cell_angle_gamma	88.597539
loop_
_atom_site_label
_atom_site_type_symbol
_atom_site_fract_x
_atom_site_fract_y
_atom_site_fract_z
O1	O	1.401373	0.130896	0.049646
O2	O	1.099119	0.142797	0.018657
O3	O	1.245704	-0.001185	0.033708
O4	O	1.254788	0.274878	0.034595
O5	O	1.233480	0.010802	0.220460
O6	O	1.086895	0.154783	0.205409
O7	O	1.389149	0.142883	0.236399
Zn8	Zn	1.236081	0.150736	0.250555
Zn9	Zn	1.252187	0.134943	0.004501
O10	O	1.242564	0.286864	0.221347
C11	C	1.054092	0.147756	0.108043
C12	C	0.938134	0.144663	0.096155
C13	C	0.706909	0.151902	0.277437
C14	C	0.597956	0.148996	0.266273
C15	C	0.611274	0.135938	0.062664
C16	C	0.720227	0.138844	0.073828
C17	C	0.768040	0.146828	0.181218
C18	C	0.876995	0.149740	0.192381
C19	C	0.890311	0.136676	-0.011226
C20	C	0.781358	0.133770	-0.022390
C21	C	1.235619	-0.030548	0.126680
C22	C	1.223768	-0.135898	0.125475
C23	C	1.286151	-0.385529	0.131827
C24	C	1.202122	-0.328786	0.123219
C25	C	1.214169	-0.221453	0.124475
C26	C	1.274106	-0.492872	0.130571
C27	C	1.434177	0.137924	0.147010
C28	C	1.550135	0.141016	0.158890
C29	C	1.252649	0.316227	0.128373
C30	C	1.264501	0.421577	0.129570
N31	N	1.225098	0.161513	0.418481
N32	N	1.263178	0.124159	-0.163425
C33	C	1.339604	0.049111	0.666886
C34	C	1.331934	0.056651	0.784441
C35	C	1.202085	0.184129	0.771146
C36	C	1.209754	0.176588	0.653592
C37	C	1.278517	0.109078	0.601466
C38	C	1.286191	0.101543	0.483910
C39	C	1.156337	0.229016	0.470617
C40	C	1.148667	0.236556	0.588171
H41	H	0.742413	0.127265	-0.109824
N42	N	1.100530	-0.368975	0.112792
N43	N	1.090759	-0.457374	0.111776
H44	H	1.019012	-0.485762	0.104416
H45	H	1.106599	0.277848	0.417338
H46	H	1.367131	-0.353501	0.140141
H47	H	0.940095	0.132550	-0.089575
N48	N	0.535528	0.154174	0.364569
N49	N	0.578237	0.161297	0.460441
H50	H	0.534147	0.164952	0.529868
H51	H	1.146092	0.239088	0.813601
H52	H	1.395601	-0.005853	0.624446
N53	N	0.755748	0.160047	0.387130
N54	N	0.818454	0.096390	0.416445
H55	H	0.852942	0.102143	0.493920
N56	N	1.356370	0.032528	0.430674
N57	N	1.410858	-0.021048	0.489099
H58	H	1.460397	-0.069815	0.451502
H59	H	0.915922	0.156247	0.279823
N60	N	0.562407	0.127770	-0.047014
N61	N	0.465128	0.125168	-0.056960
H62	H	0.430614	0.119399	-0.134422
H63	H	1.381676	0.007818	0.837703
N64	N	1.078431	0.305502	0.641438
N65	N	1.071587	0.312224	0.746397
H66	H	1.021982	0.360919	0.784017
