data_functionalizedCrystal
_audit_creation_method	'MofGen! by Chris Wilmer'
_symmetry_space_group_name_H-M	'P1'
_symmetry_Int_Tables_number	1
_symmetry_cell_setting	triclinic
loop_
_symmetry_equiv_pos_as_xyz
  x,y,z
_cell_length_a	16.625546
_cell_length_b	16.959455
_cell_length_c	16.959447
_cell_angle_alpha	89.976354
_cell_angle_beta	90.032216
_cell_angle_gamma	89.982540
loop_
_atom_site_label
_atom_site_type_symbol
_atom_site_fract_x
_atom_site_fract_y
_atom_site_fract_z
Zn1	Zn	-0.321093	-1.208371	0.447095
Zn2	Zn	0.178907	-0.708371	0.947095
Zn3	Zn	-0.455941	-1.208288	0.314912
Zn4	Zn	0.044059	-0.708288	0.814912
Zn5	Zn	-0.321114	-1.076199	0.314911
Zn6	Zn	0.178886	-0.576199	0.814911
Zn7	Zn	-0.455876	-1.076158	0.447029
Zn8	Zn	0.044124	-0.576158	0.947029
O9	O	-0.388506	-1.142254	0.380987
O10	O	0.111494	-0.642254	0.880987
O11	O	-0.339000	-1.318971	0.429589
O12	O	0.161000	-0.818971	0.929589
O13	O	-0.438091	-1.190748	0.204301
O14	O	0.061909	-0.690748	0.704301
O15	O	-0.208279	-1.093784	0.332472
O16	O	0.291721	-0.593784	0.832472
O17	O	-0.438071	-1.318910	0.332474
O18	O	0.061929	-0.818910	0.832474
O19	O	-0.208264	-1.190890	0.429588
O20	O	0.291736	-0.690890	0.929588
O21	O	-0.339035	-1.093703	0.204300
O22	O	0.160965	-0.593703	0.704300
O23	O	-0.338972	-0.965583	0.332409
O24	O	0.161028	-0.465583	0.832409
O25	O	-0.437961	-1.093714	0.557649
O26	O	0.062039	-0.593714	1.057649
O27	O	-0.437981	-0.965553	0.429475
O28	O	0.062019	-0.465553	0.929475
O29	O	-0.338937	-1.190850	0.557697
O30	O	0.161063	-0.690850	1.057697
O31	O	-0.568765	-1.190709	0.332410
O32	O	-0.068765	-0.690709	0.832410
O33	O	-0.568717	-1.093634	0.429476
O34	O	-0.068717	-0.593634	0.929476
C35	C	-0.388472	-0.936888	0.380935
C36	C	0.111528	-0.436888	0.880935
C37	C	-0.388477	-0.849031	0.380932
C38	C	0.111523	-0.349031	0.880932
C39	C	-0.440018	-0.477513	0.330356
C40	C	0.059982	0.022487	0.830356
C41	C	-0.337013	-0.477598	0.431638
C42	C	0.162987	0.022402	0.931638
C43	C	-0.337003	-0.560144	0.431624
C44	C	0.162997	-0.060144	0.931624
C45	C	-0.388502	-0.601378	0.380975
C46	C	0.111498	-0.101378	0.880975
C47	C	-0.440011	-0.560067	0.330341
C48	C	0.059989	-0.060067	0.830341
C49	C	-0.285501	-0.601461	0.482262
C50	C	0.214499	-0.101461	0.982262
C51	C	-0.285489	-0.684012	0.482250
C52	C	0.214511	-0.184012	0.982250
C53	C	-0.336984	-0.725248	0.431597
C54	C	0.163016	-0.225248	0.931597
C55	C	-0.388495	-0.683932	0.380961
C56	C	0.111505	-0.183932	0.880961
C57	C	-0.439993	-0.725166	0.330312
C58	C	0.060007	-0.225166	0.830312
C59	C	-0.491500	-0.683851	0.279671
C60	C	0.008500	-0.183851	0.779671
C61	C	-0.491506	-0.601302	0.279688
C62	C	0.008494	-0.101302	0.779688
C63	C	-0.336979	-0.807797	0.431580
C64	C	0.163021	-0.307797	0.931580
C65	C	-0.439986	-0.807720	0.330298
C66	C	0.060014	-0.307720	0.830298
C67	C	-0.597997	-1.142179	0.380954
C68	C	-0.097997	-0.642179	0.880954
C69	C	-0.687618	-1.142219	0.380966
C70	C	-0.187618	-0.642219	0.880966
C71	C	-1.015794	-1.142357	0.381048
C72	C	-0.515794	-0.642357	0.881048
C73	C	-0.924485	-1.142316	0.381027
C74	C	-0.424485	-0.642316	0.881027
C75	C	-0.851709	-1.142288	0.381007
C76	C	-0.351709	-0.642288	0.881007
C77	C	-0.760394	-1.142248	0.380987
C78	C	-0.260394	-0.642248	0.880987
C79	C	-0.178197	-1.142351	0.381037
C80	C	0.321803	-0.642351	0.881037
C81	C	-0.088576	-1.142392	0.381059
C82	C	0.411424	-0.642392	0.881059
C83	C	-0.388439	-1.142287	0.587155
C84	C	0.111561	-0.642287	1.087155
C85	C	-0.388411	-1.142301	0.675012
C86	C	0.111589	-0.642301	1.175012
C87	C	-0.388531	-0.348422	0.381025
C88	C	0.111469	0.151578	0.881025
C89	C	-0.388519	-0.436279	0.381004
C90	C	0.111481	0.063721	0.881004
C91	C	-0.388514	-1.142267	0.175620
C92	C	0.111486	-0.642267	0.675620
C93	C	-0.388316	-1.142406	0.087764
C94	C	0.111684	-0.642406	0.587764
C95	C	-0.439883	-1.091821	1.046465
C96	C	0.060117	-0.591821	1.546465
C97	C	-0.336769	-1.192970	1.046510
C98	C	0.163231	-0.692970	1.546510
C99	C	-0.336786	-1.192949	0.963964
C100	C	0.163214	-0.692949	1.463964
C101	C	-0.388353	-1.142364	0.922665
C102	C	0.111647	-0.642364	1.422665
C103	C	-0.439903	-1.091800	0.963911
C104	C	0.060097	-0.591800	1.463911
C105	C	-0.285242	-1.243517	0.922712
C106	C	0.214758	-0.743517	1.422712
C107	C	-0.285258	-1.243499	0.840161
C108	C	0.214742	-0.743499	1.340161
C109	C	-0.336822	-1.192909	0.798860
C110	C	0.163178	-0.692909	1.298860
C111	C	-0.388373	-1.142343	0.840111
C112	C	0.111627	-0.642343	1.340111
C113	C	-0.439941	-1.091758	0.798812
C114	C	0.060059	-0.591758	1.298812
C115	C	-0.491489	-1.041187	0.840062
C116	C	0.008511	-0.541187	1.340062
C117	C	-0.491467	-1.041211	0.922610
C118	C	0.008533	-0.541211	1.422610
C119	C	-0.336843	-1.192886	0.716311
C120	C	0.163157	-0.692886	1.216311
C121	C	-0.439961	-1.091737	0.716258
C122	C	0.060039	-0.591737	1.216258
H123	H	-0.243579	-0.567882	0.523502
H124	H	0.256421	-0.067882	1.023502
O125	O	-0.235127	-1.292725	0.962706
O126	O	0.264873	-0.792725	1.462706
C127	C	-0.189621	-1.337341	0.908600
C128	C	0.310379	-0.837341	1.408600
H129	H	-0.222662	-1.340054	0.849746
H130	H	0.277338	-0.840054	1.349746
H131	H	-0.181024	-1.399626	0.932470
H132	H	0.318976	-0.899626	1.432470
H133	H	-0.128381	-1.308422	0.899832
H134	H	0.371619	-0.808422	1.399832
H135	H	-0.294876	-1.234062	0.682729
H136	H	0.205124	-0.734062	1.182729
H137	H	-0.481947	-1.050537	0.682638
H138	H	0.018053	-0.550537	1.182638
H139	H	-0.481920	-0.841287	0.289050
H140	H	0.018080	-0.341287	0.789050
O141	O	-0.287104	-0.437458	0.480874
O142	O	0.212896	0.062542	0.980874
C143	C	-0.333082	-0.389746	0.531868
C144	C	0.166918	0.110254	1.031868
H145	H	-0.394154	-0.377355	0.503886
H146	H	0.105846	0.122645	1.003886
H147	H	-0.300262	-0.331707	0.542526
H148	H	0.199738	0.168293	1.042526
H149	H	-0.342007	-0.421592	0.590424
H150	H	0.157993	0.078408	1.090424
O151	O	-0.235128	-1.292498	0.800015
O152	O	0.264872	-0.792498	1.300015
C153	C	-0.183040	-1.247491	0.752305
C154	C	0.316960	-0.747491	1.252305
H155	H	-0.211485	-1.187581	0.739913
H156	H	0.288515	-0.687581	1.239913
H157	H	-0.172228	-1.279673	0.694267
H158	H	0.327772	-0.779673	1.194267
H159	H	-0.123290	-1.238826	0.784154
H160	H	0.376710	-0.738826	1.284154
O161	O	-0.541568	-0.561292	0.230432
O162	O	-0.041568	-0.061292	0.730432
C163	C	-0.587037	-0.615384	0.185738
C164	C	-0.087037	-0.115384	0.685738
H165	H	-0.554001	-0.674232	0.183039
H166	H	-0.054001	-0.174232	0.683039
H167	H	-0.595569	-0.591488	0.123453
H168	H	-0.095569	-0.091488	0.623453
H169	H	-0.648307	-0.624172	0.214579
H170	H	-0.148307	-0.124172	0.714579
O171	O	-0.490136	-0.437349	0.281279
O172	O	0.009864	0.062651	0.781279
C173	C	-0.542261	-0.389596	0.326193
C174	C	-0.042261	0.110404	0.826193
H175	H	-0.547318	-0.414504	0.388436
H176	H	-0.047318	0.085496	0.888436
H177	H	-0.604276	-0.388630	0.297496
H178	H	-0.104276	0.111370	0.797496
H179	H	-0.517339	-0.327041	0.328967
H180	H	-0.017339	0.172959	0.828967
O181	O	-0.541621	-0.992165	0.799848
O182	O	-0.041621	-0.492165	1.299848
C183	C	-0.593727	-1.037144	0.752111
C184	C	-0.093727	-0.537144	1.252111
H185	H	-0.565300	-1.097058	0.739780
H186	H	-0.065300	-0.597058	1.239780
H187	H	-0.604537	-1.004943	0.694045
H188	H	-0.104537	-0.504943	1.194045
H189	H	-0.653476	-1.045803	0.783905
H190	H	-0.153476	-0.545803	1.283905
H191	H	-0.533438	-1.000041	0.956203
H192	H	-0.033438	-0.500041	1.456203
H193	H	-0.533435	-0.717435	0.238437
H194	H	-0.033435	-0.217435	0.738437
O195	O	-0.235492	-0.724054	0.531545
O196	O	0.264508	-0.224054	1.031545
C197	C	-0.253225	-0.703944	0.610300
C198	C	0.246775	-0.203944	1.110300
H199	H	-0.284234	-0.644005	0.611898
H200	H	0.215766	-0.144005	1.111898
H201	H	-0.195076	-0.701149	0.645843
H202	H	0.304924	-0.201149	1.145843
H203	H	-0.294703	-0.750415	0.636843
H204	H	0.205297	-0.250415	1.136843
O205	O	-0.286995	-0.847845	0.480878
O206	O	0.213005	-0.347845	0.980878
C207	C	-0.304740	-0.827733	0.559630
C208	C	0.195260	-0.327733	1.059630
H209	H	-0.335743	-0.767791	0.561223
H210	H	0.164257	-0.267791	1.061223
H211	H	-0.246598	-0.824944	0.595183
H212	H	0.253402	-0.324944	1.095183
H213	H	-0.346228	-0.874200	0.586165
H214	H	0.153772	-0.374200	1.086165
H215	H	-0.481850	-1.050645	1.080054
H216	H	0.018150	-0.550645	1.580054
H217	H	-0.294789	-1.234158	1.080141
H218	H	0.205211	-0.734158	1.580141
