data_functionalizedCrystal
_audit_creation_method	'MofGen! by Chris Wilmer'
_symmetry_space_group_name_H-M	'P1'
_symmetry_Int_Tables_number	1
_symmetry_cell_setting	triclinic
loop_
_symmetry_equiv_pos_as_xyz
  x,y,z
_cell_length_a	6.817900
_cell_length_b	16.886426
_cell_length_c	14.125469
_cell_angle_alpha	82.416003
_cell_angle_beta	100.398878
_cell_angle_gamma	83.786827
loop_
_atom_site_label
_atom_site_type_symbol
_atom_site_fract_x
_atom_site_fract_y
_atom_site_fract_z
V1	V	-3.931388	0.248313	-0.135116
O2	O	-3.936719	0.243903	0.004430
O3	O	-3.868167	0.246310	-0.265929
O4	O	-3.848413	0.356749	-0.133943
O5	O	-3.956610	0.132698	-0.128469
V6	V	-4.421416	0.234521	-0.118318
O7	O	-4.178376	0.278565	-0.171964
O8	O	-4.624626	0.204269	-0.081469
O9	O	-4.261431	0.236524	0.012495
O10	O	-4.533482	0.238931	-0.257864
O11	O	-4.513592	0.350136	-0.124965
O12	O	-4.281185	0.126085	-0.119491
C13	C	-3.710681	0.242314	-0.297790
C14	C	-3.740046	0.241399	-0.404736
C15	C	-3.793875	0.239735	-0.600548
C16	C	-3.978296	0.243101	-0.652898
C17	C	-4.008248	0.242176	-0.761854
C18	C	-3.763914	0.240661	-0.491582
C19	C	-4.107459	0.099640	-0.124010
C20	C	-4.073353	0.010994	-0.124098
C21	C	-3.882876	-0.026606	-0.128981
C22	C	-3.850847	-0.109898	-0.129075
C23	C	-4.009303	-0.155587	-0.124292
C24	C	-4.199794	-0.117982	-0.119406
C25	C	-4.231817	-0.034693	-0.119306
C26	C	-3.921341	-0.407270	-0.124347
C27	C	-3.889304	-0.490565	-0.124451
C28	C	-3.540358	-0.482475	-0.134118
C29	C	-3.572400	-0.399183	-0.134023
C30	C	-3.762885	-0.361586	-0.129131
C31	C	-3.976570	-0.240724	-0.124391
C32	C	-3.795611	-0.276452	-0.129026
C33	C	-3.685482	0.383190	-0.129427
C34	C	-3.698827	0.471835	-0.129334
C35	C	-4.082259	0.240518	0.044351
C36	C	-4.032130	0.241438	0.151296
H37	H	-4.113687	0.246677	-0.615886
H38	H	-3.658494	0.236158	-0.637558
H39	H	-3.443366	-0.361988	-0.137921
F40	F	-3.714223	0.022014	-0.134078
F41	F	-4.057965	-0.539190	-0.119360
F42	F	-3.648124	-0.149909	-0.134285
H43	H	-3.385269	-0.513096	-0.138098
F44	F	-4.124082	-0.367264	-0.119169
H45	H	-4.328805	-0.155190	-0.115505
H46	H	-4.386922	-0.004080	-0.115332
F47	F	-3.626977	-0.227825	-0.134112
H48	H	-4.105579	-0.277934	-0.120495
