data_functionalizedCrystal
_audit_creation_method	'MofGen! by Chris Wilmer'
_symmetry_space_group_name_H-M	'P1'
_symmetry_Int_Tables_number	1
_symmetry_cell_setting	triclinic
loop_
_symmetry_equiv_pos_as_xyz
  x,y,z
_cell_length_a	12.759401
_cell_length_b	12.759399
_cell_length_c	19.076919
_cell_angle_alpha	87.725577
_cell_angle_beta	87.717292
_cell_angle_gamma	90.016641
loop_
_atom_site_label
_atom_site_type_symbol
_atom_site_fract_x
_atom_site_fract_y
_atom_site_fract_z
Zn1	Zn	1.582342	-0.442111	0.397932
Zn2	Zn	1.589307	-0.610747	0.280243
Zn3	Zn	1.413715	-0.435088	0.280254
Zn4	Zn	1.406633	-0.617752	0.397902
O5	O	1.497999	-0.526425	0.339083
O6	O	1.730286	-0.464489	0.382328
O7	O	1.571892	-0.581575	0.181755
O8	O	1.436133	-0.289000	0.295881
O9	O	1.735403	-0.588385	0.295862
O10	O	1.560022	-0.294160	0.382338
O11	O	1.442886	-0.452519	0.181763
O12	O	1.265755	-0.459311	0.295852
O13	O	1.424063	-0.600324	0.496395
O14	O	1.260552	-0.593513	0.382288
O15	O	1.553155	-0.471281	0.496417
O16	O	1.565026	-0.758696	0.295834
O17	O	1.430816	-0.763843	0.382278
C18	C	1.225033	-0.526411	0.339069
C19	C	1.108255	-0.526431	0.339079
C20	C	1.050716	-0.596408	0.384016
C21	C	0.940991	-0.596413	0.384030
C22	C	0.946355	-0.456461	0.294165
C23	C	1.056078	-0.456452	0.294155
C24	C	0.786107	-0.639103	0.467003
C25	C	0.728564	-0.709096	0.511934
C26	C	0.763519	-0.812270	0.522616
C27	C	0.856015	-0.845471	0.488359
C28	C	0.913553	-0.775483	0.443424
C29	C	0.878599	-0.672295	0.432754
C30	C	1.210964	-0.413772	0.211180
C31	C	1.268503	-0.343789	0.166241
C32	C	1.233551	-0.240613	0.155551
C33	C	1.141052	-0.207415	0.189796
C34	C	1.083512	-0.277399	0.234735
C35	C	1.118472	-0.380574	0.245426
C36	C	1.497936	-0.799391	0.339067
C37	C	1.498003	-0.916169	0.339083
C38	C	1.567960	-0.968319	0.294123
C39	C	1.568026	-1.078044	0.294147
C40	C	1.428170	-1.083460	0.384093
C41	C	1.428110	-0.973736	0.384072
C42	C	1.693540	-1.226413	0.269101
C43	C	1.763488	-1.278567	0.224130
C44	C	1.783779	-1.238895	0.155458
C45	C	1.734107	-1.147071	0.131744
C46	C	1.664152	-1.094923	0.176711
C47	C	1.643880	-1.134593	0.245393
C48	C	1.302594	-0.825365	0.409111
C49	C	1.232633	-0.773215	0.454075
C50	C	1.212331	-0.812885	0.522748
C51	C	1.261985	-0.904712	0.546459
C52	C	1.331946	-0.956862	0.501495
C53	C	1.352249	-0.917185	0.432823
C54	C	1.772031	-0.526439	0.339097
C55	C	1.888808	-0.526445	0.339103
C56	C	1.487042	-0.537367	0.522657
C57	C	1.482373	-0.542030	0.600886
C58	C	1.498090	-0.252393	0.339114
C59	C	1.498129	-0.135617	0.339128
C60	C	1.508974	-0.515449	0.156222
C61	C	1.513846	-0.510490	0.077994
C62	C	1.547388	-0.477039	0.637650
C63	C	1.542988	-0.481416	0.711155
C64	C	1.473578	-0.550791	0.747893
C65	C	1.408556	-0.615786	0.711123
C66	C	1.412951	-0.611402	0.637621
C67	C	1.453220	-0.571101	0.967721
C68	C	1.448832	-0.575481	1.041229
C69	C	1.583263	-0.441110	1.041255
C70	C	1.587656	-0.436737	0.967751
C71	C	1.522631	-0.501727	0.930988
N72	N	1.469081	-0.555270	0.823026
N73	N	1.527123	-0.497243	0.855856
H74	H	1.093196	-0.653388	0.420598
O75	O	1.184444	-0.683926	0.431150
C76	C	1.156739	-0.499509	0.447329
C77	C	1.211349	-0.600557	0.473373
H78	H	1.178489	-0.432073	0.481445
H79	H	1.068107	-0.511475	0.450705
H80	H	1.183253	-0.480158	0.390514
H81	H	1.184921	-0.619964	0.530194
H82	H	1.299972	-0.588538	0.469945
O83	O	1.106952	-0.107252	0.179342
C84	C	0.968085	0.005201	0.139217
C85	C	1.006584	-0.108283	0.151010
H86	H	0.886924	0.004405	0.116323
H87	H	1.025029	0.049551	0.101185
H88	H	0.963778	0.045665	0.191467
H89	H	1.010886	-0.148837	0.098795
H90	H	0.949627	-0.152555	0.189073
H91	H	1.359999	-0.664315	0.607688
O92	O	1.003391	-0.807884	0.410218
C93	C	1.123680	-0.950560	0.391522
C94	C	1.021934	-0.913993	0.429185
H95	H	1.138693	-1.036359	0.406831
H96	H	1.192240	-0.900674	0.407503
H97	H	1.115390	-0.941731	0.332301
H98	H	1.030121	-0.922822	0.488413
H99	H	0.953413	-0.963883	0.413146
O100	O	1.380310	-1.045953	0.524599
C101	C	1.495029	-1.125092	0.608876
C102	C	1.440335	-1.024123	0.582777
H103	H	1.543554	-1.107482	0.655926
H104	H	1.548587	-1.155553	0.564980
H105	H	1.433366	-1.187015	0.625072
H106	H	1.501924	-0.962128	0.566588
H107	H	1.386756	-0.993750	0.626691
O108	O	0.889840	-0.945723	0.498834
C109	C	0.857646	-1.113999	0.557580
C110	C	0.819228	-1.000486	0.545790
H111	H	0.800563	-1.158314	0.595532
H112	H	0.938746	-1.113317	0.580571
H113	H	0.862038	-1.154423	0.505315
H114	H	0.814771	-0.959995	0.598026
H115	H	0.738154	-1.001242	0.522765
H116	H	1.245455	-0.937012	0.602379
O117	O	1.614670	-0.409587	0.601890
C118	C	1.633801	-0.262744	0.518962
C119	C	1.557493	-0.339087	0.559400
H120	H	1.587602	-0.205712	0.484610
H121	H	1.690769	-0.308862	0.484500
H122	H	1.679530	-0.217094	0.557882
H123	H	1.511692	-0.384757	0.520530
H124	H	1.500593	-0.292910	0.593872
H125	H	0.716660	-0.869259	0.559200
O126	O	1.144251	-0.762218	0.566343
C127	C	0.967537	-0.700586	0.586530
C128	C	1.044521	-0.757953	0.537080
H129	H	0.886884	-0.697139	0.562898
H130	H	0.997087	-0.617502	0.593648
H131	H	0.961639	-0.744719	0.639687
H132	H	1.050454	-0.713907	0.483896
H133	H	1.014940	-0.841041	0.530021
O134	O	1.358262	-0.376021	0.132848
C135	C	1.449670	-0.401561	0.021875
C136	C	1.347955	-0.365064	0.059610
H137	H	1.441379	-0.392694	-0.037344
H138	H	1.464816	-0.487344	0.037163
H139	H	1.518153	-0.351591	0.037879
H140	H	1.279409	-0.414958	0.043625
H141	H	1.332900	-0.279265	0.044320
O142	O	1.341278	-0.683289	0.746841
C143	C	1.322129	-0.830042	0.829841
C144	C	1.398438	-0.753675	0.789424
H145	H	1.368311	-0.886954	0.864289
H146	H	1.276430	-0.875819	0.790968
H147	H	1.265136	-0.783831	0.864223
H148	H	1.455495	-0.799805	0.755040
H149	H	1.444061	-0.707898	0.828334
H150	H	1.623712	-1.020160	0.157404
H151	H	1.008199	-0.250358	0.262624
H152	H	0.653254	-0.682054	0.539826
H153	H	1.595932	-0.428496	0.741085
O154	O	1.322143	-0.786892	0.342365
C155	C	1.250193	-0.739626	0.230602
C156	C	1.227919	-0.783230	0.306166
H157	H	1.174025	-0.736631	0.201317
H158	H	1.308675	-0.792672	0.202492
H159	H	1.284369	-0.657216	0.232072
H160	H	1.193705	-0.865628	0.304760
H161	H	1.169477	-0.730111	0.334245
H162	H	1.644180	-0.380247	0.937844
H163	H	1.636201	-0.388197	1.071196
H164	H	0.903858	-0.399487	0.257588
H165	H	0.757644	-0.555088	0.458317
O166	O	1.381308	-0.642901	1.076810
C167	C	1.248476	-0.775758	1.069032
C168	C	1.324871	-0.699439	1.028650
H169	H	1.202841	-0.821506	1.030112
H170	H	1.191437	-0.729619	1.103429
H171	H	1.294654	-0.832706	1.103458
H172	H	1.278779	-0.642475	0.994186
H173	H	1.381909	-0.745647	0.994297
O174	O	1.289308	-0.172643	0.111805
C175	C	1.289361	-0.060259	0.007263
C176	C	1.226112	-0.137237	0.056733
H177	H	1.238287	-0.031594	-0.037266
H178	H	1.361456	-0.101670	-0.015442
H179	H	1.315151	0.009539	0.037908
H180	H	1.200249	-0.207052	0.026137
H181	H	1.154068	-0.095747	0.079440
H182	H	1.750626	-1.114783	0.075822
H183	H	1.239437	-0.497784	0.219887
H184	H	1.624873	-0.921450	0.257492
O185	O	1.851790	-1.289658	0.111874
C186	C	1.968243	-1.436683	0.098023
C187	C	1.891260	-1.379283	0.147455
H188	H	2.000159	-1.509168	0.126766
H189	H	2.035922	-1.382014	0.080739
H190	H	1.925577	-1.461397	0.049945
H191	H	1.933833	-1.354564	0.195566
H192	H	1.823585	-1.433988	0.164683
H193	H	1.400287	-0.624036	0.937798
H194	H	1.677035	-1.258716	0.325021
O195	O	1.360416	-1.139501	0.427822
C196	C	1.340564	-1.268952	0.522885
C197	C	1.417414	-1.205574	0.473396
H198	H	1.386616	-1.322370	0.559754
H199	H	1.287640	-1.318533	0.490586
H200	H	1.290532	-1.212807	0.554984
H201	H	1.467515	-1.261642	0.441286
H202	H	1.470266	-1.155980	0.505735
H203	H	1.803930	-1.353330	0.243445
