data_functionalizedCrystal
_audit_creation_method	'MofGen! by Chris Wilmer'
_symmetry_space_group_name_H-M	'P1'
_symmetry_Int_Tables_number	1
_symmetry_cell_setting	triclinic
loop_
_symmetry_equiv_pos_as_xyz
  x,y,z
_cell_length_a	18.050590
_cell_length_b	25.639242
_cell_length_c	18.050583
_cell_angle_alpha	90.028422
_cell_angle_beta	89.966777
_cell_angle_gamma	89.986422
loop_
_atom_site_label
_atom_site_type_symbol
_atom_site_fract_x
_atom_site_fract_y
_atom_site_fract_z
Zn1	Zn	-0.295733	-0.799323	-0.420110
Zn2	Zn	-0.419937	-0.799270	-0.295919
Zn3	Zn	-0.295755	-0.711892	-0.295912
Zn4	Zn	-0.419875	-0.711875	-0.420045
O5	O	-0.357825	-0.755590	-0.357997
O6	O	-0.312226	-0.872481	-0.403666
O7	O	-0.403500	-0.787664	-0.191993
O8	O	-0.191827	-0.723519	-0.312412
O9	O	-0.403478	-0.872442	-0.312423
O10	O	-0.191811	-0.787755	-0.403660
O11	O	-0.312264	-0.723468	-0.191989
O12	O	-0.312203	-0.638725	-0.312349
O13	O	-0.403371	-0.723491	-0.523979
O14	O	-0.403393	-0.638712	-0.403549
O15	O	-0.312165	-0.787738	-0.524026
O16	O	-0.523854	-0.787648	-0.312360
O17	O	-0.523807	-0.723439	-0.403555
C18	C	-0.357794	-0.619748	-0.357942
C19	C	-0.357799	-0.561634	-0.357936
C20	C	-0.405380	-0.201273	-0.405420
C21	C	-0.405384	-0.146669	-0.405430
O22	O	-0.445807	-0.118434	-0.445770
N23	N	-0.357837	-0.119351	-0.358023
C24	C	-0.310279	-0.146641	-0.310608
O25	O	-0.269836	-0.118391	-0.270286
C26	C	-0.310272	-0.201244	-0.310603
C27	C	-0.357826	-0.228559	-0.358007
C28	C	-0.452931	-0.228588	-0.452821
C29	C	-0.452927	-0.283188	-0.452810
C30	C	-0.405374	-0.310474	-0.405398
C31	C	-0.357823	-0.283159	-0.357996
C32	C	-0.262710	-0.228533	-0.263192
C33	C	-0.262706	-0.283140	-0.263191
C34	C	-0.310261	-0.310454	-0.310596
C35	C	-0.310267	-0.365046	-0.310573
N36	N	-0.357813	-0.392363	-0.357980
C37	C	-0.405367	-0.365077	-0.405392
C38	C	-0.310296	-0.031970	-0.310624
C39	C	-0.310306	0.022632	-0.310625
C40	C	-0.405411	0.022601	-0.405448
C41	C	-0.405404	-0.032003	-0.405443
C42	C	-0.357843	-0.059288	-0.358031
C43	C	-0.405357	-0.479742	-0.405365
C44	C	-0.405352	-0.534348	-0.405348
C45	C	-0.310245	-0.534311	-0.310528
C46	C	-0.310253	-0.479711	-0.310543
C47	C	-0.357811	-0.452428	-0.357967
O48	O	-0.269863	-0.393315	-0.270256
O49	O	-0.445795	-0.393334	-0.445714
C50	C	-0.550777	-0.755550	-0.357967
C51	C	-0.633323	-0.755581	-0.357979
C52	C	-0.832771	-0.790570	-0.308457
C53	C	-0.882100	-0.803340	-0.376240
C54	C	-0.784453	-0.755610	-0.358009
C55	C	-0.882206	-0.742893	-0.290256
C56	C	-0.930438	-0.755640	-0.358032
C57	C	-0.832694	-0.768405	-0.425828
C58	C	-0.832796	-0.707936	-0.339798
C59	C	-0.882102	-0.720688	-0.407628
C60	C	-0.700355	-0.755595	-0.357995
C61	C	-1.014535	-0.755656	-0.358053
C62	C	-0.164119	-0.755645	-0.358043
C63	C	-0.081573	-0.755668	-0.358062
C64	C	-0.357758	-0.755619	-0.551702
C65	C	-0.357730	-0.755631	-0.634248
C66	C	-0.357853	0.108037	-0.358044
C67	C	-0.357857	0.049923	-0.358041
C68	C	-0.308082	-0.790601	-0.883100
C69	C	-0.375847	-0.803367	-0.833688
C70	C	-0.357683	-0.755664	-0.931369
C71	C	-0.289945	-0.742906	-0.833699
C72	C	-0.357703	-0.755649	-0.785384
C73	C	-0.425483	-0.768455	-0.883044
C74	C	-0.339536	-0.707972	-0.883059
C75	C	-0.407348	-0.720720	-0.833670
C76	C	-0.357671	-0.755674	-1.015467
C77	C	-0.357723	-0.755639	-0.701287
C78	C	-0.357837	-0.755592	-0.165045
C79	C	-0.357656	-0.755681	-0.082499
H80	H	-0.444082	-0.457535	-0.443985
C81	C	-0.803499	-0.830518	-0.251905
C82	C	-0.824153	-0.825286	-0.169449
C83	C	-0.794879	-0.865235	-0.112902
C84	C	-0.744950	-0.910417	-0.138810
C85	C	-0.724293	-0.915651	-0.221270
C86	C	-0.753567	-0.875702	-0.277817
H87	H	-0.861116	-0.791838	-0.150266
H88	H	-0.810171	-0.861360	-0.051859
H89	H	-0.723279	-0.939989	-0.096951
H90	H	-0.687330	-0.949099	-0.240453
H91	H	-0.738275	-0.879577	-0.338860
C92	C	-0.911367	-0.857821	-0.397069
C93	C	-0.960104	-0.864830	-0.466353
C94	C	-0.989368	-0.919311	-0.487177
C95	C	-0.969896	-0.966784	-0.438716
C96	C	-0.921157	-0.959776	-0.369428
C97	C	-0.891892	-0.905295	-0.348604
H98	H	-0.974521	-0.829687	-0.502231
H99	H	-1.025449	-0.924499	-0.538469
H100	H	-0.991559	-1.007114	-0.454131
H101	H	-0.906740	-0.994919	-0.333550
H102	H	-0.855812	-0.900107	-0.297312
C103	C	-0.396600	-0.857842	-0.804381
C104	C	-0.465873	-0.864847	-0.755560
C105	C	-0.486620	-0.919322	-0.726255
C106	C	-0.438094	-0.966793	-0.745771
C107	C	-0.368817	-0.959789	-0.794595
C108	C	-0.348070	-0.905314	-0.823900
H109	H	-0.501799	-0.829705	-0.741110
H110	H	-0.537904	-0.924507	-0.690112
H111	H	-0.453452	-1.007119	-0.724078
H112	H	-0.332891	-0.994931	-0.809045
H113	H	-0.296786	-0.900130	-0.860043
H114	H	-0.223971	-0.305352	-0.224587
C115	C	-0.257929	-0.564329	-0.258383
C116	C	-0.263869	-0.556793	-0.173945
C117	C	-0.211544	-0.586812	-0.121805
C118	C	-0.153278	-0.624366	-0.154104
C119	C	-0.147336	-0.631904	-0.238546
C120	C	-0.199661	-0.601886	-0.290686
H121	H	-0.307002	-0.528991	-0.150032
H122	H	-0.215943	-0.581231	-0.059295
H123	H	-0.114544	-0.646588	-0.115507
H124	H	-0.104203	-0.659706	-0.262459
H125	H	-0.195262	-0.607466	-0.353196
H126	H	-0.811121	-0.667617	-0.324361
C127	C	-0.457663	-0.564394	-0.457498
C128	C	-0.425553	-0.601963	-0.515855
C129	C	-0.477862	-0.632007	-0.568003
C130	C	-0.562280	-0.624481	-0.561796
C131	C	-0.594394	-0.586910	-0.503437
C132	C	-0.542086	-0.556867	-0.451288
H133	H	-0.363058	-0.607535	-0.520452
H134	H	-0.454088	-0.659819	-0.611205
H135	H	-0.601002	-0.646721	-0.600399
H136	H	-0.656890	-0.581338	-0.498839
H137	H	-0.565860	-0.529054	-0.408087
H138	H	-0.266180	-0.820175	-0.904803
H139	H	-0.449351	-0.691169	-0.812104
H140	H	-0.903626	-0.691137	-0.449591
C141	C	-0.803446	-0.783020	-0.503269
C142	C	-0.719418	-0.785727	-0.517558
C143	C	-0.690169	-0.800344	-0.594997
C144	C	-0.744948	-0.812254	-0.658146
C145	C	-0.828981	-0.809547	-0.643859
C146	C	-0.858231	-0.794931	-0.566420
H147	H	-0.678863	-0.776911	-0.470810
H148	H	-0.627961	-0.802348	-0.605573
H149	H	-0.723296	-0.823074	-0.715471
H150	H	-0.869537	-0.818364	-0.690607
H151	H	-0.920438	-0.792927	-0.555844
C152	C	-0.318758	-0.653511	-0.912388
C153	C	-0.301113	-0.609122	-0.857678
C154	C	-0.280324	-0.554661	-0.887009
C155	C	-0.277180	-0.544590	-0.971049
C156	C	-0.294824	-0.588981	-1.025763
C157	C	-0.315613	-0.643442	-0.996433
H158	H	-0.303441	-0.616576	-0.795462
H159	H	-0.267262	-0.521800	-0.846505
H160	H	-0.261790	-0.504275	-0.992761
H161	H	-0.292497	-0.581527	-1.087979
H162	H	-0.328675	-0.676302	-1.036937
C163	C	-0.502905	-0.783092	-0.912197
C164	C	-0.517193	-0.785827	-0.996208
C165	C	-0.594612	-0.800465	-1.025362
C166	C	-0.657744	-0.812368	-0.970505
C167	C	-0.643458	-0.809633	-0.886489
C168	C	-0.566039	-0.794995	-0.857335
H169	H	-0.470457	-0.777015	-1.036821
H170	H	-0.605187	-0.802489	-1.087557
H171	H	-0.715054	-0.823204	-0.992087
H172	H	-0.690194	-0.818445	-0.845877
H173	H	-0.555464	-0.792971	-0.795141
C174	C	-0.257943	-0.449665	-0.258394
C175	C	-0.290040	-0.412094	-0.200033
C176	C	-0.237721	-0.382055	-0.147889
C177	C	-0.153304	-0.389588	-0.154106
C178	C	-0.121203	-0.427161	-0.212469
C179	C	-0.173522	-0.457200	-0.264613
H180	H	-0.352534	-0.406516	-0.195429
H181	H	-0.261485	-0.354241	-0.104685
H182	H	-0.114575	-0.367352	-0.115506
H183	H	-0.058709	-0.432739	-0.217073
H184	H	-0.149758	-0.485014	-0.307817
C185	C	-0.911583	-0.728339	-0.212840
C186	C	-0.856909	-0.716903	-0.149424
C187	C	-0.886283	-0.702353	-0.072008
C188	C	-0.970331	-0.699240	-0.058006
C189	C	-1.025011	-0.710676	-0.121424
C190	C	-0.995637	-0.725226	-0.198841
H191	H	-0.794686	-0.719207	-0.159787
H192	H	-0.845805	-0.693887	-0.025062
H193	H	-0.992075	-0.688470	-0.000698
H194	H	-1.087233	-0.708372	-0.111061
H195	H	-1.036115	-0.733692	-0.245786
C196	C	-0.212550	-0.728335	-0.804410
C197	C	-0.145161	-0.762533	-0.823937
C198	C	-0.067765	-0.747968	-0.794647
C199	C	-0.057758	-0.699205	-0.745831
C200	C	-0.125149	-0.665004	-0.726301
C201	C	-0.202545	-0.679569	-0.755591
H202	H	-0.152567	-0.798633	-0.860076
H203	H	-0.017878	-0.773287	-0.809105
H204	H	-0.000465	-0.688424	-0.724149
H205	H	-0.117743	-0.628904	-0.690162
H206	H	-0.252432	-0.654251	-0.741133
H207	H	-0.491655	-0.206377	-0.491434
C208	C	-0.505234	-0.313228	-0.504964
C209	C	-0.563508	-0.350744	-0.472688
C210	C	-0.615816	-0.380779	-0.524847
C211	C	-0.609850	-0.373298	-0.609283
C212	C	-0.551574	-0.335781	-0.641563
C213	C	-0.499266	-0.305746	-0.589404
H214	H	-0.567926	-0.356283	-0.410180
H215	H	-0.658956	-0.408552	-0.500951
H216	H	-0.648572	-0.395532	-0.647894
H217	H	-0.547156	-0.330241	-0.704071
H218	H	-0.456126	-0.277973	-0.613300
C219	C	-0.457710	-0.062047	-0.457593
C220	C	-0.542128	-0.054525	-0.451383
C221	C	-0.594435	-0.084565	-0.503537
C222	C	-0.562323	-0.122128	-0.561901
C223	C	-0.477900	-0.129651	-0.568113
C224	C	-0.425593	-0.099611	-0.515959
H225	H	-0.565903	-0.026717	-0.408176
H226	H	-0.656931	-0.078995	-0.498937
H227	H	-0.601044	-0.144365	-0.600508
H228	H	-0.454125	-0.157459	-0.611320
H229	H	-0.363098	-0.105180	-0.520558
H230	H	-0.444129	0.044827	-0.444056
H231	H	-0.271590	0.044867	-0.272016
H232	H	-0.271567	-0.054182	-0.272011
H233	H	-0.223987	-0.206302	-0.224588
