data_functionalizedCrystal
_audit_creation_method	'MofGen! by Chris Wilmer'
_symmetry_space_group_name_H-M	'P1'
_symmetry_Int_Tables_number	1
_symmetry_cell_setting	triclinic
loop_
_symmetry_equiv_pos_as_xyz
  x,y,z
_cell_length_a	10.685980
_cell_length_b	10.685194
_cell_length_c	17.077396
_cell_angle_alpha	85.601377
_cell_angle_beta	85.608474
_cell_angle_gamma	98.380820
loop_
_atom_site_label
_atom_site_type_symbol
_atom_site_fract_x
_atom_site_fract_y
_atom_site_fract_z
Zn1	Zn	1.901895	-0.356654	-0.517653
Zn2	Zn	2.401895	0.143346	-0.017653
Zn3	Zn	1.885537	-0.568957	-0.375483
Zn4	Zn	2.385537	-0.068957	0.124517
Zn5	Zn	1.689635	-0.372966	-0.375488
Zn6	Zn	2.189635	0.127034	0.124512
Zn7	Zn	1.673368	-0.585137	-0.495804
Zn8	Zn	2.173368	-0.085137	0.004196
O9	O	1.787609	-0.470928	-0.441107
O10	O	2.287609	0.029072	0.058893
O11	O	2.077350	-0.371218	-0.507936
O12	O	2.577350	0.128782	-0.007936
O13	O	1.859512	-0.543014	-0.265632
O14	O	2.359512	-0.043014	0.234368
O15	O	1.731446	-0.193158	-0.403493
O16	O	2.231446	0.306842	0.096507
O17	O	2.065332	-0.527196	-0.403484
O18	O	2.565332	-0.027196	0.096516
O19	O	1.887392	-0.181173	-0.507941
O20	O	2.387392	0.318827	-0.007941
O21	O	1.715584	-0.399020	-0.265636
O22	O	2.215584	0.100980	0.234364
O23	O	1.509852	-0.414709	-0.382306
O24	O	2.009852	0.085291	0.117694
O25	O	1.703721	-0.554773	-0.608554
O26	O	2.203721	-0.054773	-0.108554
O27	O	1.497901	-0.570590	-0.470702
O28	O	1.997901	-0.070590	0.029298
O29	O	1.871619	-0.386907	-0.624606
O30	O	2.371619	0.113093	-0.124606
O31	O	1.843738	-0.748747	-0.382297
O32	O	2.343738	-0.248747	0.117703
O33	O	1.687859	-0.760635	-0.470697
O34	O	2.187859	-0.260635	0.029303
C35	C	1.457820	-0.496177	-0.424134
C36	C	1.957820	0.003823	0.075866
C37	C	1.316733	-0.507009	-0.416890
C38	C	1.816733	-0.007009	0.083110
C39	C	1.762292	-0.800750	-0.424144
C40	C	2.262292	-0.300750	0.075856
C41	C	1.751578	-0.941840	-0.416920
C42	C	2.251578	-0.441840	0.083080
C43	C	2.118685	-0.445582	-0.458147
C44	C	2.618685	0.054418	0.041853
C45	C	2.259770	-0.434782	-0.465408
C46	C	2.759770	0.065218	0.034592
C47	C	1.787680	-0.470825	-0.645860
C48	C	2.287680	0.029175	-0.145860
C49	C	1.787710	-0.470781	-0.733113
C50	C	2.287710	0.029219	-0.233113
C51	C	1.813058	-0.139817	-0.458155
C52	C	2.313058	0.360183	0.041845
C53	C	1.823904	0.001283	-0.465420
C54	C	2.323904	0.501283	0.034580
C55	C	1.712793	-0.395792	-0.774106
C56	C	2.212793	0.104208	-0.274106
C57	C	1.712815	-0.395762	-0.856089
C58	C	2.212815	0.104238	-0.356089
C59	C	1.787764	-0.470714	-0.897078
C60	C	2.287764	0.029286	-0.397078
C61	C	1.862685	-0.545712	-0.856079
C62	C	2.362685	-0.045712	-0.356079
C63	C	1.862654	-0.545749	-0.774097
C64	C	2.362654	-0.045749	-0.274097
C65	C	1.862746	-0.545629	-1.026956
C66	C	2.362746	-0.045629	-0.526956
C67	C	1.862778	-0.545591	-1.108944
C68	C	2.362778	-0.045591	-0.608944
C69	C	1.712907	-0.395642	-1.108949
C70	C	2.212907	0.104358	-0.608949
C71	C	1.712876	-0.395678	-1.026966
C72	C	2.212876	0.104322	-0.526966
C73	C	1.787799	-0.470674	-0.985973
C74	C	2.287799	0.029326	-0.485973
C75	C	1.787618	-0.470934	-0.237159
C76	C	2.287618	0.029066	0.262841
C77	C	1.787861	-0.470602	-0.149937
C78	C	2.287861	0.029398	0.350063
H79	H	1.318937	-0.364651	-0.512489
H80	H	1.818937	0.135349	-0.012489
O81	O	1.658695	-1.020315	-0.354584
O82	O	2.158695	-0.520315	0.145416
H83	H	1.589545	-1.085692	-0.383295
H84	H	2.089545	-0.585692	0.116705
H85	H	1.651805	-0.334703	-0.889462
H86	H	2.151805	0.165297	-0.389462
H87	H	1.257559	-0.577136	-0.369802
H88	H	1.757559	-0.077136	0.130198
H89	H	1.894023	-0.939475	-0.512473
H90	H	2.394023	-0.439475	-0.012473
O91	O	1.943568	-0.626505	-0.982743
O92	O	2.443568	-0.126505	-0.482743
H93	H	1.914163	-0.727798	-0.992229
H94	H	2.414163	-0.227798	-0.492229
O95	O	1.631961	-0.314944	-0.729898
O96	O	2.131961	0.185056	-0.229898
H97	H	1.579863	-0.262802	-0.772179
H98	H	2.079863	0.237198	-0.272179
O99	O	1.632051	-0.314820	-0.982762
O100	O	2.132051	0.185180	-0.482762
H101	H	1.563094	-0.376589	-0.939154
H102	H	2.063094	0.123411	-0.439154
O103	O	1.632086	-0.314757	-1.153155
O104	O	2.132086	0.185243	-0.653155
H105	H	1.644682	-0.327333	-1.217047
H106	H	2.144682	0.172667	-0.717047
H107	H	1.923808	-0.606624	-1.142315
H108	H	2.423808	-0.106624	-0.642315
H109	H	1.923702	-0.606747	-0.889458
H110	H	2.423702	-0.106747	-0.389458
H111	H	1.923670	-0.606802	-0.740722
H112	H	2.423670	-0.106802	-0.240722
