data_functionalizedCrystal
_audit_creation_method	'MofGen! by Chris Wilmer'
_symmetry_space_group_name_H-M	'P1'
_symmetry_Int_Tables_number	1
_symmetry_cell_setting	triclinic
loop_
_symmetry_equiv_pos_as_xyz
  x,y,z
_cell_length_a	9.065218
_cell_length_b	9.798715
_cell_length_c	10.723024
_cell_angle_alpha	90.001978
_cell_angle_beta	84.741877
_cell_angle_gamma	90.003772
loop_
_atom_site_label
_atom_site_type_symbol
_atom_site_fract_x
_atom_site_fract_y
_atom_site_fract_z
O1	O	1.959361	0.113491	0.182983
O2	O	1.529991	0.113492	0.197992
O3	O	1.754580	0.113486	0.008952
O4	O	1.734772	0.113497	0.372024
O5	O	1.754563	-0.113496	0.008951
O6	O	1.529974	-0.113490	0.197992
O7	O	1.959344	-0.113491	0.182983
Zn8	Zn	1.744657	-0.149529	0.190487
Zn9	Zn	1.744679	0.149530	0.190488
O10	O	1.734755	-0.113486	0.372023
C11	C	1.475004	0.000001	0.196550
C12	C	1.311186	0.000002	0.192237
N13	N	1.744652	-0.353629	0.190486
C14	C	1.838951	-0.421408	0.110762
C15	C	1.838975	-0.578571	0.110757
C16	C	2.014331	0.000002	0.184425
C17	C	2.178150	0.000011	0.188738
C18	C	1.753130	-0.000003	-0.037554
C19	C	1.748817	0.000002	-0.176126
N20	N	1.744695	0.353630	0.190479
C21	C	1.874486	0.000003	-0.250598
C22	C	1.870031	0.000008	-0.393819
C23	C	1.736205	0.000007	0.418529
C24	C	1.740518	0.000011	0.557101
H25	H	1.919662	-0.363088	0.042504
H26	H	1.977613	0.000003	-0.457815
O27	O	1.648290	-0.423346	0.271742
C28	C	1.556421	-0.505990	0.203991
H29	H	1.613919	-0.527245	0.106897
H30	H	1.533888	-0.606531	0.255753
H31	H	1.447170	-0.451024	0.194537
O32	O	1.616432	-0.000175	-0.226397
C33	C	1.535696	-0.117749	-0.186575
H34	H	1.576666	-0.156949	-0.095786
H35	H	1.412999	-0.091308	-0.170033
H36	H	1.552134	-0.200061	-0.261704
H37	H	1.985373	-0.000006	-0.208325
O38	O	1.935496	-0.648033	0.029446
C39	C	2.081893	-0.613163	0.051047
H40	H	2.083992	-0.573795	0.150911
H41	H	2.155686	-0.707180	0.037467
H42	H	2.124381	-0.530320	-0.017767
O43	O	1.648576	-0.576704	0.271971
C44	C	1.728717	-0.494064	0.349639
H45	H	1.843554	-0.472776	0.301019
H46	H	1.667471	-0.393538	0.368715
H47	H	1.739929	-0.549048	0.441987
H48	H	1.632930	0.000001	-0.378911
