data_functionalizedCrystal
_audit_creation_method	'MofGen! by Chris Wilmer'
_symmetry_space_group_name_H-M	'P1'
_symmetry_Int_Tables_number	1
_symmetry_cell_setting	triclinic
loop_
_symmetry_equiv_pos_as_xyz
  x,y,z
_cell_length_a	19.288864
_cell_length_b	23.532407
_cell_length_c	22.610064
_cell_angle_alpha	90.009150
_cell_angle_beta	90.029123
_cell_angle_gamma	82.992461
loop_
_atom_site_label
_atom_site_type_symbol
_atom_site_fract_x
_atom_site_fract_y
_atom_site_fract_z
O1	O	0.921140	0.071043	0.049380
O2	O	1.421140	0.571043	0.549380
O3	O	0.718850	0.080627	0.049341
O4	O	1.218850	0.580627	0.549341
O5	O	0.826095	-0.007084	0.049351
O6	O	1.326095	0.492916	0.549351
O7	O	0.813895	0.158754	0.049370
O8	O	1.313895	0.658754	0.549370
O9	O	0.826064	-0.007084	-0.049019
O10	O	1.326064	0.492916	0.450981
O11	O	0.718819	0.080627	-0.049029
O12	O	1.218819	0.580627	0.450971
O13	O	0.921109	0.071043	-0.048989
O14	O	1.421109	0.571043	0.451011
Zn15	Zn	0.819959	0.075835	-0.064627
Zn16	Zn	1.319959	0.575835	0.435373
Zn17	Zn	0.820000	0.075835	0.064979
Zn18	Zn	1.320000	0.575835	0.564979
O19	O	0.813864	0.158754	-0.048999
O20	O	1.313864	0.658754	0.451001
C21	C	0.692959	0.080319	0.000151
C22	C	1.192959	0.580319	0.500151
C23	C	0.615858	0.079393	0.000135
C24	C	1.115858	0.579393	0.500135
C25	C	0.825769	-0.028301	0.000165
C26	C	1.325769	0.471699	0.500165
C27	C	0.824835	-0.091520	0.000160
C28	C	1.324835	0.408480	0.500160
C29	C	0.571003	0.130858	0.000150
C30	C	1.071003	0.630858	0.500150
C31	C	0.498559	0.129988	0.000157
C32	C	0.998559	0.629988	0.500157
C33	C	0.470973	0.077651	0.000160
C34	C	0.970973	0.577651	0.500160
C35	C	0.515838	0.026179	0.000141
C36	C	1.015838	0.526179	0.500141
C37	C	0.588280	0.027050	0.000129
C38	C	1.088280	0.527050	0.500129
C39	C	0.362849	0.036508	0.034638
C40	C	0.862849	0.536508	0.534638
C41	C	0.290407	0.035639	0.034654
C42	C	0.790407	0.535639	0.534654
C43	C	0.247535	0.074961	0.000195
C44	C	0.747535	0.574961	0.500195
C45	C	0.277113	0.115163	-0.034272
C46	C	0.777113	0.615163	0.465728
C47	C	0.349556	0.116034	-0.034284
C48	C	0.849556	0.616034	0.465716
C49	C	0.392422	0.076700	0.000173
C50	C	0.892422	0.576700	0.500173
C51	C	0.124127	0.125487	0.000217
C52	C	0.624127	0.625487	0.500217
C53	C	0.051682	0.124615	0.000220
C54	C	0.551682	0.624615	0.500220
C55	C	0.068962	0.020805	0.000210
C56	C	0.568962	0.520805	0.500210
C57	C	0.141406	0.021678	0.000201
C58	C	0.641406	0.521678	0.500201
C59	C	0.168984	0.074021	0.000207
C60	C	0.668984	0.574021	0.500207
C61	C	0.882442	-0.490503	0.000204
C62	C	1.382442	0.009497	0.500204
C63	C	0.881574	-0.549905	0.000208
C64	C	1.381574	-0.049905	0.500208
O65	O	0.934976	-0.586539	0.000240
O66	O	1.434976	-0.086539	0.500240
N67	N	0.817817	-0.572664	0.000195
N68	N	1.317817	-0.072664	0.500195
C69	C	0.754923	-0.536017	0.000184
C70	C	1.254923	-0.036017	0.500184
O71	O	0.700613	-0.560829	0.000174
O72	O	1.200613	-0.060829	0.500174
C73	C	0.755792	-0.476616	0.000184
C74	C	1.255792	0.023384	0.500184
C75	C	0.819553	-0.453861	0.000190
C76	C	1.319553	0.046139	0.500190
C77	C	0.946198	-0.467748	0.000211
C78	C	1.446198	0.032252	0.500211
C79	C	0.947065	-0.408350	0.000206
C80	C	1.447065	0.091650	0.500206
C81	C	0.884177	-0.371707	0.000193
C82	C	1.384177	0.128293	0.500193
C83	C	0.820420	-0.394463	0.000185
C84	C	1.320420	0.105537	0.500185
C85	C	0.692899	-0.439970	0.000177
C86	C	1.192899	0.060030	0.500177
C87	C	0.693773	-0.380565	0.000177
C88	C	1.193773	0.119435	0.500177
C89	C	0.757534	-0.357810	0.000184
C90	C	1.257534	0.142190	0.500184
C91	C	0.758399	-0.298422	0.000167
C92	C	1.258399	0.201578	0.500167
N93	N	0.822156	-0.275664	0.000180
N94	N	1.322156	0.224336	0.500180
C95	C	0.885045	-0.312307	0.000193
C96	C	1.385045	0.187693	0.500193
C97	C	0.753104	-0.660763	0.000185
C98	C	1.253104	-0.160763	0.500185
C99	C	0.752235	-0.720163	0.000181
C100	C	1.252235	-0.220163	0.500181
C101	C	0.878886	-0.734047	0.000206
C102	C	1.378886	-0.234047	0.500206
C103	C	0.879755	-0.674647	0.000206
C104	C	1.379755	-0.174647	0.500206
C105	C	0.816861	-0.638005	0.000198
C106	C	1.316861	-0.138005	0.500198
C107	C	0.886862	-0.187566	0.000181
C108	C	1.386862	0.312434	0.500181
C109	C	0.887724	-0.128162	0.000173
C110	C	1.387724	0.371838	0.500173
C111	C	0.761073	-0.114283	0.000151
C112	C	1.261073	0.385717	0.500151
C113	C	0.760211	-0.173681	0.000155
C114	C	1.260211	0.326319	0.500155
C115	C	0.823111	-0.210322	0.000172
C116	C	1.323111	0.289678	0.500172
O117	O	0.705025	-0.261754	0.000137
O118	O	1.205025	0.238246	0.500137
O119	O	0.939346	-0.287486	0.000210
O120	O	1.439346	0.212514	0.500210
C121	C	0.947000	0.071351	0.000202
C122	C	1.447000	0.571351	0.500202
C123	C	1.024101	0.072277	0.000222
C124	C	1.524101	0.572277	0.500222
C125	C	0.814190	0.179971	0.000188
C126	C	1.314190	0.679971	0.500188
C127	C	0.815124	0.243190	0.000197
C128	C	1.315124	0.743190	0.500197
N129	N	0.819936	0.075835	-0.153080
N130	N	1.319936	0.575835	0.346920
C131	C	0.861888	0.110282	-0.561708
C132	C	1.361888	0.610282	-0.061708
C133	C	0.861896	0.110281	-0.623628
C134	C	1.361896	0.610281	-0.123628
O135	O	0.897537	0.139566	-0.655636
O136	O	1.397537	0.639566	-0.155636
N137	N	0.820014	0.075828	-0.654617
N138	N	1.320014	0.575828	-0.154617
C139	C	0.778125	0.041371	-0.623682
C140	C	1.278125	0.541371	-0.123682
O141	O	0.742501	0.012066	-0.655726
O142	O	1.242501	0.512066	-0.155726
C143	C	0.778120	0.041370	-0.561764
C144	C	1.278120	0.541370	-0.061764
C145	C	0.820000	0.075829	-0.530778
C146	C	1.320000	0.575829	-0.030778
C147	C	0.903765	0.144738	-0.530722
C148	C	1.403765	0.644738	-0.030722
C149	C	0.903755	0.144740	-0.468807
C150	C	1.403755	0.644740	0.031193
C151	C	0.861868	0.110286	-0.437877
C152	C	1.361868	0.610286	0.062123
C153	C	0.819990	0.075831	-0.468862
C154	C	1.319990	0.575831	0.031138
C155	C	0.736235	0.006909	-0.530830
C156	C	1.236235	0.506909	-0.030830
C157	C	0.736235	0.006911	-0.468907
C158	C	1.236235	0.506911	0.031093
C159	C	0.778115	0.041370	-0.437922
C160	C	1.278115	0.541370	0.062078
C161	C	0.778093	0.041379	-0.376017
C162	C	1.278093	0.541379	0.123983
N163	N	0.819976	0.075832	-0.345028
N164	N	1.319976	0.575832	0.154972
C165	C	0.861863	0.110285	-0.375958
C166	C	1.361863	0.610285	0.124042
C167	C	0.778138	0.041375	-0.753716
C168	C	1.278138	0.541375	-0.253716
C169	C	0.778138	0.041379	-0.815634
C170	C	1.278138	0.541379	-0.315634
C171	C	0.861911	0.110289	-0.815575
C172	C	1.361911	0.610289	-0.315575
C173	C	0.861907	0.110287	-0.753656
C174	C	1.361907	0.610287	-0.253656
C175	C	0.820021	0.075828	-0.722727
C176	C	1.320021	0.575828	-0.222727
C177	C	0.861839	0.110287	-0.245931
C178	C	1.361839	0.610287	0.254069
C179	C	0.861823	0.110288	-0.184010
C180	C	1.361823	0.610288	0.315990
C181	C	0.778053	0.041377	-0.184074
C182	C	1.278053	0.541377	0.315926
C183	C	0.778066	0.041378	-0.245989
C184	C	1.278066	0.541378	0.254011
C185	C	0.819964	0.075835	-0.276916
C186	C	1.319964	0.575835	0.223084
O187	O	0.742472	0.012107	-0.343970
O188	O	1.242472	0.512107	0.156030
O189	O	0.897488	0.139580	-0.343906
O190	O	1.397488	0.639580	0.156094
N191	N	0.820029	0.075831	0.153431
N192	N	1.320029	0.575831	0.653431
H193	H	0.593452	0.173479	0.000157
H194	H	1.093452	0.673479	0.500157
H195	H	0.266330	0.002906	0.062722
H196	H	0.766330	0.502906	0.562722
C197	C	0.449207	0.186600	0.000176
C198	C	0.949207	0.686600	0.500176
H199	H	0.402113	0.178583	0.000180
H200	H	0.902113	0.678583	0.500180
H201	H	0.457558	0.208067	0.034482
H202	H	0.957558	0.708067	0.534482
H203	H	0.457497	0.208071	-0.034130
H204	H	0.957497	0.708071	0.465870
C205	C	0.731990	0.003474	-0.150043
C206	C	1.231990	0.503474	0.349957
H207	H	0.737994	0.008406	-0.108729
H208	H	1.237994	0.508406	0.391271
H209	H	0.684391	0.014143	-0.160206
H210	H	1.184391	0.514143	0.339794
H211	H	0.745183	-0.035522	-0.160191
H212	H	1.245183	0.464478	0.339809
H213	H	0.373635	0.148766	-0.062350
H214	H	0.873635	0.648766	0.437650
C215	C	0.949891	-0.649621	0.000219
C216	C	1.449891	-0.149621	0.500219
H217	H	0.987217	-0.679957	0.000230
H218	H	1.487217	-0.179957	0.500230
H219	H	0.952856	-0.626741	-0.034082
H220	H	1.452856	-0.126741	0.465918
H221	H	0.952876	-0.626737	0.034529
H222	H	1.452876	-0.126737	0.534529
C223	C	0.002338	0.181228	0.000237
C224	C	0.502338	0.681228	0.500237
H225	H	-0.044757	0.173214	0.000237
H226	H	0.455243	0.673214	0.500237
H227	H	0.010687	0.202694	0.034543
H228	H	0.510687	0.702694	0.534543
H229	H	0.010633	0.202699	-0.034068
H230	H	0.510633	0.702699	0.465932
H231	H	0.640978	-0.458486	0.000175
H232	H	1.140978	0.041514	0.500175
H233	H	0.709871	-0.084438	0.000138
H234	H	1.209871	0.415562	0.500138
H235	H	0.242208	0.147183	-0.062332
H236	H	0.742208	0.647183	0.437668
C237	C	0.038630	-0.036767	0.000210
C238	C	0.538630	0.463233	0.500210
H239	H	0.075723	-0.067294	0.000197
H240	H	0.575723	0.432706	0.500197
H241	H	0.010755	-0.039267	0.034516
H242	H	0.510755	0.460733	0.534516
H243	H	0.010704	-0.039263	-0.034095
H244	H	0.510704	0.460737	0.465905
H245	H	0.642556	-0.350733	0.000171
H246	H	1.142556	0.149267	0.500171
C247	C	0.410000	-0.006746	0.072550
C248	C	0.910000	0.493254	0.572550
H249	H	0.382010	-0.030805	0.093087
H250	H	0.882010	0.469195	0.593087
H251	H	0.442071	-0.029404	0.047704
H252	H	0.942071	0.470596	0.547704
H253	H	0.435000	0.013292	0.100260
H254	H	0.935000	0.513292	0.600260
H255	H	0.708291	-0.192209	0.000133
H256	H	1.208291	0.307791	0.500133
H257	H	0.146582	0.168107	0.000213
H258	H	0.646582	0.668107	0.500213
C259	C	0.907898	0.148191	-0.149929
C260	C	1.407898	0.648191	0.350071
H261	H	0.932850	0.168704	-0.177221
H262	H	1.432850	0.668704	0.322779
H263	H	0.879254	0.174463	-0.125784
H264	H	1.379254	0.674463	0.374216
H265	H	0.940025	0.124782	-0.125763
H266	H	1.440025	0.624782	0.374237
C267	C	0.190749	-0.034934	0.000193
C268	C	0.690749	0.465066	0.500193
H269	H	0.163946	-0.066230	0.000201
H270	H	0.663946	0.433770	0.500201
H271	H	0.219341	-0.036754	-0.034114
H272	H	0.719341	0.463246	0.465886
H273	H	0.219393	-0.036750	0.034498
H274	H	0.719393	0.463250	0.534498
H275	H	0.998986	-0.389829	0.000214
H276	H	1.498986	0.110171	0.500214
H277	H	0.493372	-0.016435	0.000152
H278	H	0.993372	0.483565	0.500152
H279	H	0.624802	-0.014860	0.000117
H280	H	1.124802	0.485140	0.500117
H281	H	0.896009	0.138347	-0.728432
H282	H	1.396009	0.638347	-0.228432
H283	H	0.939648	-0.109639	0.000177
H284	H	1.439648	0.390361	0.500177
C285	C	0.683917	-0.620461	0.000165
C286	C	1.183917	-0.120461	0.500165
H287	H	0.645826	-0.642527	0.000152
H288	H	1.145826	-0.142527	0.500152
H289	H	0.681626	-0.596993	0.034466
H290	H	1.181626	-0.096993	0.534466
H291	H	0.681612	-0.597008	-0.034145
H292	H	1.181612	-0.097008	0.465855
C293	C	0.956050	-0.227863	0.000194
C294	C	1.456050	0.272137	0.500194
H295	H	0.994140	-0.205795	0.000193
H296	H	1.494140	0.294205	0.500193
H297	H	0.958365	-0.251319	0.034499
H298	H	1.458365	0.248681	0.534499
H299	H	0.958334	-0.251327	-0.034113
H300	H	1.458334	0.248673	0.465887
H301	H	0.997413	-0.497577	0.000224
H302	H	1.497413	0.002423	0.500224
C303	C	0.907920	0.148194	-0.279942
C304	C	1.407920	0.648194	0.220058
H305	H	0.932850	0.168717	-0.252613
H306	H	1.432850	0.668717	0.247387
H307	H	0.940056	0.124796	-0.304085
H308	H	1.440056	0.624796	0.195915
H309	H	0.879272	0.174467	-0.304104
H310	H	1.379272	0.674467	0.195896
H311	H	0.937861	0.172798	-0.443584
H312	H	1.437861	0.672798	0.056416
C313	C	0.948065	-0.774359	0.000225
C314	C	1.448065	-0.274359	0.500225
H315	H	0.986166	-0.752303	0.000227
H316	H	1.486166	-0.252303	0.500227
H317	H	0.950365	-0.797815	0.034530
H318	H	1.450365	-0.297815	0.534530
H319	H	0.950345	-0.797825	-0.034082
H320	H	1.450345	-0.297825	0.465918
C321	C	0.682098	-0.745187	0.000168
C322	C	1.182098	-0.245187	0.500168
H323	H	0.644772	-0.714851	0.000164
H324	H	1.144772	-0.214851	0.500164
H325	H	0.679110	-0.768078	-0.034133
H326	H	1.179110	-0.268078	0.465867
H327	H	0.679137	-0.768061	0.034479
H328	H	1.179137	-0.268061	0.534479
H329	H	0.937878	0.172794	-0.555899
H330	H	1.437878	0.672794	-0.055899
H331	H	0.896017	0.138343	-0.840769
H332	H	1.396017	0.638343	-0.340769
H333	H	0.744027	0.013326	-0.840857
H334	H	1.244027	0.513326	-0.340857
H335	H	0.744023	0.013316	-0.728537
H336	H	1.244023	0.513316	-0.228537
H337	H	0.702133	-0.021152	-0.556048
H338	H	1.202133	0.478848	-0.056048
H339	H	0.702126	-0.021151	-0.443728
H340	H	1.202126	0.478849	0.056272
H341	H	0.743955	0.013326	-0.271219
H342	H	1.243955	0.513326	0.228781
