data_functionalizedCrystal
_audit_creation_method	'MofGen! by Chris Wilmer'
_symmetry_space_group_name_H-M	'P1'
_symmetry_Int_Tables_number	1
_symmetry_cell_setting	triclinic
loop_
_symmetry_equiv_pos_as_xyz
  x,y,z
_cell_length_a	17.699077
_cell_length_b	10.489716
_cell_length_c	16.176319
_cell_angle_alpha	89.997268
_cell_angle_beta	89.993140
_cell_angle_gamma	83.904856
loop_
_atom_site_label
_atom_site_type_symbol
_atom_site_fract_x
_atom_site_fract_y
_atom_site_fract_z
O1	O	1.005128	0.161261	-0.068728
O2	O	0.784885	0.182255	-0.068731
O3	O	0.900028	-0.013935	-0.068733
O4	O	0.889986	0.357451	-0.068727
O5	O	0.900012	-0.013948	0.068760
O6	O	0.784869	0.182242	0.068762
O7	O	1.005112	0.161249	0.068765
Cu8	Cu	0.894989	0.171744	0.081318
Cu9	Cu	0.895008	0.171759	-0.081284
O10	O	0.889969	0.357439	0.068766
C11	C	0.756675	0.181497	0.000015
C12	C	0.672642	0.179245	0.000013
C13	C	0.633159	0.178176	0.074962
C14	C	0.554203	0.176039	0.074962
C15	C	0.514730	0.174980	0.000014
C16	C	0.554219	0.176044	-0.074940
C17	C	0.633175	0.178172	-0.074940
C18	C	0.235800	0.167461	-0.074942
C19	C	0.156839	0.165336	-0.074936
C20	C	0.156828	0.165328	0.074961
C21	C	0.235784	0.167456	0.074961
C22	C	0.275266	0.168513	0.000007
C23	C	0.360880	0.170828	0.000007
C24	C	0.429118	0.172674	0.000013
C25	C	0.899265	-0.061460	0.000011
C26	C	0.897008	-0.203049	0.000004
C27	C	0.967617	-0.302037	0.000012
C28	C	0.930313	-0.378697	-0.067777
C29	C	0.930281	-0.378673	0.067780
C30	C	0.859734	-0.277844	-0.067842
C31	C	0.859712	-0.277814	0.067777
C32	C	0.822357	-0.354424	-0.000030
C33	C	1.033322	0.162006	0.000017
C34	C	1.117355	0.164259	0.000013
C35	C	0.890732	0.404963	0.000020
C36	C	0.892989	0.546552	0.000022
N37	N	0.894981	0.171733	0.195683
N38	N	0.895022	0.171760	-0.195649
C39	C	0.945982	0.084896	0.238946
C40	C	0.945986	0.084894	0.325494
C41	C	0.894992	0.171738	0.368775
C42	C	0.843986	0.258579	0.325506
C43	C	0.843979	0.258573	0.238960
C44	C	0.844012	0.258603	0.674534
C45	C	0.844024	0.258605	0.761086
C46	C	0.946019	0.084924	0.761067
C47	C	0.946012	0.084918	0.674522
C48	C	0.895003	0.171755	0.631260
C49	C	0.894999	0.171754	0.537416
C50	C	0.895000	0.171746	0.462618
H51	H	0.267918	0.168325	0.135991
C52	C	0.970552	-0.438143	0.145206
H53	H	1.022120	-0.420600	0.145116
H54	H	0.968409	-0.528245	0.144924
H55	H	0.945979	-0.402248	0.193345
C56	C	0.819476	-0.218270	0.145201
H57	H	0.844645	-0.252968	0.193325
H58	H	0.768154	-0.237115	0.145689
H59	H	0.820824	-0.127984	0.144363
H60	H	0.802480	0.329311	0.639317
C61	C	0.676606	0.179356	-0.157383
H62	H	0.641789	0.178433	-0.202020
H63	H	0.712781	0.105837	-0.160501
H64	H	0.702031	0.254547	-0.160496
C65	C	0.113400	0.164152	0.157412
H66	H	0.148217	0.165103	0.202047
H67	H	0.087973	0.088971	0.160533
H68	H	0.077226	0.237682	0.160526
H69	H	1.029035	-0.278504	-0.000056
C70	C	0.739329	-0.385896	-0.000078
H71	H	0.714370	-0.351033	-0.048279
H72	H	0.714073	-0.349823	0.047620
H73	H	0.738323	-0.476263	0.000375
H74	H	0.802462	0.329284	0.360751
C75	C	1.002117	-0.010583	0.626912
H76	H	0.994817	0.001865	0.569172
H77	H	0.993458	-0.095701	0.641094
H78	H	1.052700	0.003194	0.641090
H79	H	0.960127	-0.422742	-0.125089
C80	C	0.819512	-0.218601	-0.145359
H81	H	0.821236	-0.128391	-0.144908
H82	H	0.768075	-0.236834	-0.145559
H83	H	0.844428	-0.254019	-0.193437
H84	H	0.802448	0.329284	0.203736
H85	H	0.522061	0.175148	0.135993
H86	H	0.987510	0.014183	0.203712
C87	C	0.113420	0.164165	-0.157383
H88	H	0.148243	0.165089	-0.202023
H89	H	0.077248	0.237688	-0.160499
H90	H	0.087993	0.088977	-0.160493
H91	H	0.267938	0.168318	-0.135974
H92	H	0.522075	0.175172	-0.135965
H93	H	0.987514	0.014184	0.360718
H94	H	0.802496	0.329325	0.796324
C95	C	0.676574	0.179319	0.157406
H96	H	0.641750	0.178357	0.202042
H97	H	0.702007	0.254491	0.160535
H98	H	0.712743	0.105780	0.160510
H99	H	0.987551	0.014213	0.796300
