data_functionalizedCrystal
_audit_creation_method	'MofGen! by Chris Wilmer'
_symmetry_space_group_name_H-M	'P1'
_symmetry_Int_Tables_number	1
_symmetry_cell_setting	triclinic
loop_
_symmetry_equiv_pos_as_xyz
  x,y,z
_cell_length_a	16.992694
_cell_length_b	10.540510
_cell_length_c	16.053802
_cell_angle_alpha	92.593693
_cell_angle_beta	87.249047
_cell_angle_gamma	87.590767
loop_
_atom_site_label
_atom_site_type_symbol
_atom_site_fract_x
_atom_site_fract_y
_atom_site_fract_z
O1	O	1.045156	0.264308	-0.069317
O2	O	0.816856	0.261351	-0.069342
O3	O	0.936227	0.078574	-0.069328
O4	O	0.925786	0.447085	-0.069330
O5	O	0.929656	0.088590	0.069530
O6	O	0.810285	0.271368	0.069517
O7	O	1.038586	0.274324	0.069541
Zn8	Zn	0.923392	0.274436	0.091576
Zn9	Zn	0.932049	0.261239	-0.091376
O10	O	0.919215	0.457102	0.069528
C11	C	0.784337	0.262558	0.000084
C12	C	0.697231	0.251217	0.000075
C13	C	0.647596	0.360638	0.000075
C14	C	0.565750	0.349976	0.000086
C15	C	0.533540	0.229891	0.000092
C16	C	0.583182	0.120462	0.000094
C17	C	0.665026	0.131126	0.000089
C18	C	0.289697	0.185693	0.000114
C19	C	0.207846	0.175037	0.000117
C20	C	0.190420	0.404552	0.000111
C21	C	0.272267	0.415205	0.000101
C22	C	0.321901	0.305776	0.000107
N23	N	0.449881	0.218989	0.000101
N24	N	0.405558	0.316680	0.000104
C25	C	0.932164	0.036211	0.000099
C26	C	0.929836	-0.104942	0.000094
C27	C	1.012747	-0.315178	0.000421
C28	C	1.015246	-0.168389	0.000104
C29	C	0.889866	-0.159214	-0.079204
C30	C	0.887991	-0.306143	-0.079267
C31	C	0.878740	-0.294715	0.078641
C32	C	0.882742	-0.147947	0.079685
C33	C	1.071105	0.273117	0.000114
C34	C	1.158211	0.284458	0.000118
C35	C	0.923278	0.499465	0.000099
C36	C	0.925606	0.640617	0.000099
N37	N	0.917490	0.283443	0.216435
N38	N	0.937958	0.252223	-0.216236
C39	C	0.968301	0.205702	0.260135
C40	C	0.964179	0.212015	0.347541
C41	C	0.909250	0.296076	0.391246
C42	C	0.858433	0.373820	0.347541
C43	C	0.862551	0.367499	0.260136
C44	C	0.891260	0.323647	0.652654
C45	C	0.887147	0.329964	0.740065
C46	C	0.992893	0.168157	0.740059
C47	C	0.997010	0.161850	0.652653
C48	C	0.946190	0.239589	0.608955
N49	N	0.905037	0.302533	0.480590
N50	N	0.950399	0.233124	0.519613
H51	H	0.705438	0.042024	0.000088
H52	H	0.181625	0.077245	0.000121
H53	H	0.150000	0.493642	0.000107
F54	F	1.026769	0.116238	0.213629
H55	H	0.813704	0.442259	0.383130
F56	F	1.018257	0.129273	0.394050
H57	H	0.911780	-0.112343	0.138349
H58	H	1.046765	-0.131977	0.056947
F59	F	1.052726	-0.360877	0.074753
F60	F	0.512928	0.466437	0.000083
F61	F	0.930716	-0.360911	-0.156733
H62	H	0.298486	0.512990	0.000086
H63	H	0.814589	-0.322392	0.079168
F64	F	0.342511	0.069228	0.000121
F65	F	0.548900	-0.007342	0.000105
H66	H	0.827129	-0.117495	-0.082160
F67	F	1.059489	-0.373618	-0.073481
F68	F	0.828680	0.419441	0.786574
H69	H	1.052348	-0.141105	-0.056831
H70	H	1.041738	0.093401	0.617070
H71	H	1.034267	0.104864	0.775646
H72	H	0.824280	-0.334941	-0.082866
H73	H	0.923022	-0.129979	-0.138211
F74	F	0.910264	-0.341541	0.157202
H75	H	0.849882	0.386948	0.617082
H76	H	0.821174	0.430802	0.224557
H77	H	0.673814	0.458424	0.000070
H78	H	0.820160	-0.103946	0.084467
