data_functionalizedCrystal
_audit_creation_method	'MofGen! by Chris Wilmer'
_symmetry_space_group_name_H-M	'P1'
_symmetry_Int_Tables_number	1
_symmetry_cell_setting	triclinic
loop_
_symmetry_equiv_pos_as_xyz
  x,y,z
_cell_length_a	15.944545
_cell_length_b	15.944493
_cell_length_c	8.140239
_cell_angle_alpha	90.002357
_cell_angle_beta	90.000062
_cell_angle_gamma	83.485608
loop_
_atom_site_label
_atom_site_type_symbol
_atom_site_fract_x
_atom_site_fract_y
_atom_site_fract_z
O1	O	1.114503	0.108309	-0.136485
O2	O	0.869950	0.121671	-0.136509
O3	O	0.998930	-0.007289	-0.136510
O4	O	0.985523	0.237268	-0.136484
O5	O	0.998923	-0.007290	0.136717
O6	O	0.869943	0.121669	0.136718
O7	O	1.114496	0.108307	0.136742
Zn8	Zn	0.992218	0.114988	0.180110
Zn9	Zn	0.992227	0.114990	-0.179878
O10	O	0.985516	0.237267	0.136743
C11	C	0.838652	0.121116	0.000101
C12	C	0.745406	0.119456	0.000091
C13	C	0.474791	0.034560	0.000099
C14	C	0.525361	0.075489	0.134822
C15	C	0.409764	0.113535	0.000118
C16	C	0.525348	0.075512	-0.134558
C17	C	0.574677	0.116440	0.000102
C18	C	0.459105	0.154443	0.134953
C19	C	0.459089	0.154454	-0.134549
C20	C	0.509626	0.195442	0.000208
C21	C	0.314762	0.111859	0.000129
C22	C	0.669676	0.118122	0.000103
C23	C	0.998378	-0.038584	0.000096
C24	C	0.996735	-0.131833	0.000075
C25	C	1.072656	-0.367594	0.000114
C26	C	1.031718	-0.418161	-0.134605
C27	C	0.993691	-0.302554	0.000095
C28	C	1.031693	-0.418138	0.134776
C29	C	0.990757	-0.467463	0.000121
C30	C	0.952775	-0.351892	-0.134735
C31	C	0.952761	-0.351866	0.134767
C32	C	0.911766	-0.402400	0.000016
C33	C	0.995384	-0.207554	0.000078
C34	C	0.989058	-0.562460	0.000126
C35	C	1.145793	0.108862	0.000128
C36	C	1.239039	0.110522	0.000127
C37	C	0.986067	0.268562	0.000133
C38	C	0.987710	0.361811	0.000143
N39	N	0.992218	0.114986	0.425793
N40	N	0.992234	0.114985	-0.425561
H41	H	0.430139	0.187779	-0.248444
H42	H	0.554276	0.042146	-0.248449
H43	H	1.140674	-0.351967	-0.000015
H44	H	0.919449	-0.323071	-0.248750
H45	H	1.065069	-0.447107	-0.248494
O46	O	0.420945	0.198574	0.286012
H47	H	0.351536	0.196964	0.284872
H48	H	0.843695	-0.417864	-0.000065
H49	H	0.459152	-0.033454	0.000223
O50	O	0.563698	0.031295	0.285661
H51	H	0.536129	0.063443	0.397389
H52	H	0.525104	0.263508	0.000294
O53	O	0.908624	-0.313489	0.285623
H54	H	0.941544	-0.340150	0.397296
O55	O	1.075871	-0.456453	0.285651
H56	H	1.142601	-0.442803	0.285361
