data_functionalizedCrystal
_audit_creation_method	'MofGen! by Chris Wilmer'
_symmetry_space_group_name_H-M	'P1'
_symmetry_Int_Tables_number	1
_symmetry_cell_setting	triclinic
loop_
_symmetry_equiv_pos_as_xyz
  x,y,z
_cell_length_a	11.792241
_cell_length_b	14.853567
_cell_length_c	10.268362
_cell_angle_alpha	89.998388
_cell_angle_beta	90.005428
_cell_angle_gamma	96.085827
loop_
_atom_site_label
_atom_site_type_symbol
_atom_site_fract_x
_atom_site_fract_y
_atom_site_fract_z
O1	O	0.148183	-1.196942	0.108211
O2	O	0.165835	-0.934551	0.108233
O3	O	-0.008201	-1.072114	0.108212
O4	O	0.322219	-1.059379	0.108232
O5	O	-0.008208	-1.072102	-0.108388
O6	O	0.165828	-0.934539	-0.108367
O7	O	0.148176	-1.196930	-0.108390
Cu8	Cu	0.157001	-1.065733	-0.128156
Cu9	Cu	0.157010	-1.065747	0.127999
O10	O	0.322212	-1.059367	-0.108369
C11	C	0.165032	-0.900953	-0.000064
C12	C	0.162635	-0.800860	-0.000056
C13	C	-0.050491	-1.071308	-0.000087
C14	C	-0.176489	-1.068913	-0.000086
N15	N	0.156994	-1.065730	-0.308322
C16	C	-0.407174	-1.064511	-0.000064
C17	C	-0.278804	-1.066957	-0.000076
C18	C	0.364501	-1.060173	-0.000066
C19	C	0.490500	-1.062567	-0.000059
C20	C	0.148979	-1.230527	-0.000089
C21	C	0.151376	-1.330621	-0.000089
C22	C	0.049122	-0.387884	-0.000092
C23	C	0.255880	-0.367408	-0.000078
C24	C	0.258134	-0.461451	-0.000074
C25	C	0.155880	-0.518715	-0.000077
C26	C	0.051372	-0.481936	-0.000083
C27	C	0.362640	-0.498237	-0.000054
C28	C	0.364898	-0.592285	-0.000048
C29	C	0.262642	-0.649550	-0.000060
C30	C	0.158131	-0.612766	-0.000068
C31	C	0.055877	-0.670030	-0.000071
C32	C	-0.048637	-0.633248	-0.000089
C33	C	-0.050883	-0.539201	-0.000095
C34	C	0.264889	-0.743596	-0.000053
C35	C	0.058127	-0.764081	-0.000063
C36	C	0.157007	-1.065743	-0.573992
C37	C	0.157003	-1.065733	-0.426154
N38	N	0.157007	-1.065758	0.308165
H39	H	-0.025142	-0.810700	-0.000070
H40	H	0.445889	-0.451606	-0.000038
H41	H	-0.131891	-0.679884	-0.000082
C42	C	-0.164426	-0.499386	0.000105
C43	C	-0.226252	-0.528459	0.111524
C44	C	-0.330856	-0.491805	0.111751
H45	H	-0.151278	-0.435177	0.000175
H46	H	-0.206604	-0.519027	-0.075390
H47	H	-0.184083	-0.508813	0.186999
H48	H	-0.239431	-0.592663	0.111478
H49	H	-0.373034	-0.511445	0.036256
H50	H	-0.317697	-0.427597	0.111818
H51	H	-0.372823	-0.511532	0.187341
H52	H	0.339131	-0.320779	-0.000065
C53	C	-0.064380	-0.348007	-0.000374
C54	C	-0.126193	-0.377052	-0.111826
C55	C	-0.230749	-0.340326	-0.112137
H56	H	-0.106620	-0.367601	0.075071
H57	H	-0.051131	-0.283791	-0.000451
H58	H	-0.139445	-0.441254	-0.111736
H59	H	-0.083987	-0.357460	-0.187289
H60	H	-0.217501	-0.276110	-0.112215
H61	H	-0.272979	-0.359922	-0.036687
H62	H	-0.272698	-0.360021	-0.187761
H63	H	0.449998	-0.622224	-0.000034
H64	H	0.349982	-0.773540	-0.000041
