data_functionalizedCrystal
_audit_creation_method	'MofGen! by Chris Wilmer'
_symmetry_space_group_name_H-M	'P1'
_symmetry_Int_Tables_number	1
_symmetry_cell_setting	triclinic
loop_
_symmetry_equiv_pos_as_xyz
  x,y,z
_cell_length_a	10.723024
_cell_length_b	15.995350
_cell_length_c	9.798715
_cell_angle_alpha	90.001165
_cell_angle_beta	90.003403
_cell_angle_gamma	83.980122
loop_
_atom_site_label
_atom_site_type_symbol
_atom_site_fract_x
_atom_site_fract_y
_atom_site_fract_z
O1	O	1.655689	0.117435	0.113475
O2	O	2.155689	0.617435	0.613475
O3	O	1.292393	0.128676	0.113479
O4	O	1.792393	0.628676	0.613479
O5	O	1.483972	0.001225	0.113475
O6	O	1.983972	0.501225	0.613475
O7	O	1.464110	0.244886	0.113478
O8	O	1.964110	0.744886	0.613478
O9	O	1.483958	0.001224	-0.113507
O10	O	1.983958	0.501224	0.386493
O11	O	1.292379	0.128675	-0.113503
O12	O	1.792379	0.628675	0.386497
O13	O	1.655675	0.117434	-0.113507
O14	O	2.155675	0.617434	0.386493
Zn15	Zn	1.474025	0.123054	-0.149544
Zn16	Zn	1.974025	0.623054	0.350456
Zn17	Zn	1.474043	0.123056	0.149515
Zn18	Zn	1.974043	0.623056	0.649515
O19	O	1.464096	0.244885	-0.113504
O20	O	1.964096	0.744885	0.386496
C21	C	1.245897	0.127857	-0.000012
C22	C	1.745897	0.627857	0.499988
C23	C	1.107374	0.125410	-0.000010
C24	C	1.607374	0.625410	0.499990
C25	C	0.916587	0.049385	-0.000008
C26	C	1.416587	0.549385	0.499992
C27	C	1.059758	0.051913	-0.000010
C28	C	1.559758	0.551913	0.499990
C29	C	1.483144	-0.029975	-0.000013
C30	C	1.983144	0.470025	0.499987
C31	C	1.480682	-0.122940	-0.000005
C32	C	1.980682	0.377060	0.499995
C33	C	1.471842	-0.460738	-0.000010
C34	C	1.971842	0.039262	0.499990
C35	C	1.335403	-0.414088	0.000501
C36	C	1.835403	0.085912	0.500501
C37	C	1.337865	-0.317383	-0.000011
C38	C	1.837865	0.182617	0.499989
C39	C	1.476227	-0.293152	-0.000007
C40	C	1.976227	0.206848	0.499993
C41	C	1.543515	-0.333844	-0.129623
C42	C	2.043515	0.166156	0.370377
C43	C	1.540088	-0.430499	-0.129732
C44	C	2.040088	0.069501	0.370268
C45	C	1.542922	-0.430840	0.128390
C46	C	2.042922	0.069160	0.628390
C47	C	1.542890	-0.333895	0.130103
C48	C	2.042890	0.166105	0.630103
C49	C	1.478712	-0.198441	-0.000010
C50	C	1.978712	0.301559	0.499990
C51	C	1.469360	-0.555450	-0.000016
C52	C	1.969360	-0.055450	0.499984
C53	C	1.702171	0.118252	-0.000014
C54	C	2.202171	0.618252	0.499986
C55	C	1.840694	0.120700	-0.000007
C56	C	2.340694	0.620700	0.499993
C57	C	1.464924	0.276085	-0.000013
C58	C	1.964924	0.776085	0.499987
C59	C	1.467386	0.369049	-0.000011
C60	C	1.967386	0.869049	0.499989
N61	N	1.474021	0.123053	-0.353643
N62	N	1.974021	0.623053	0.146357
C63	C	1.546167	0.171605	-0.421421
C64	C	2.046167	0.671605	0.078579
C65	C	1.546187	0.171604	-0.578584
C66	C	2.046187	0.671604	-0.078584
N67	N	1.474057	0.123050	0.353615
N68	N	1.974057	0.623050	0.853615
H69	H	0.881714	0.183627	-0.000014
H70	H	1.381714	0.683627	0.499986
H71	H	1.640259	-0.462172	-0.135610
H72	H	2.140259	0.037828	0.364390
Cl73	Cl	1.160433	-0.042351	-0.000002
Cl74	Cl	1.660433	0.457649	0.499998
H75	H	1.284971	-0.289265	0.092903
H76	H	1.784971	0.210735	0.592903
H77	H	1.412281	0.081485	-0.588107
H78	H	1.912281	0.581485	-0.088107
H79	H	1.284604	-0.289825	-0.093082
H80	H	1.784604	0.210175	0.406918
H81	H	1.607924	0.213168	-0.363097
H82	H	2.107924	0.713168	0.136903
H83	H	1.042170	0.186464	-0.000003
H84	H	1.542170	0.686464	0.499997
H85	H	1.280875	-0.432932	0.093451
H86	H	1.780875	0.067068	0.593451
H87	H	1.607946	0.213175	-0.636872
H88	H	2.107946	0.713175	-0.136872
H89	H	0.875567	-0.013542	-0.000029
H90	H	1.375567	0.486458	0.499971
Cl91	Cl	1.251338	-0.445179	-0.141784
Cl92	Cl	1.751338	0.054821	0.358216
Cl93	Cl	1.464307	-0.459194	-0.279321
Cl94	Cl	1.964307	0.040806	0.220679
Cl95	Cl	1.700457	-0.311135	-0.137069
Cl96	Cl	2.200457	0.188865	0.362931
H97	H	1.496768	-0.305731	-0.226082
H98	H	1.996768	0.194269	0.273918
H99	H	1.498320	-0.451636	0.226631
H100	H	1.998320	0.048364	0.726631
Cl101	Cl	1.467558	-0.291768	0.278169
Cl102	Cl	1.967558	0.208232	0.778169
H103	H	1.643790	-0.317953	0.137932
H104	H	2.143790	0.182047	0.637932
Cl105	Cl	1.698232	-0.478985	0.129744
Cl106	Cl	2.198232	0.021015	0.629744
H107	H	1.412273	0.081483	-0.411968
H108	H	1.912273	0.581483	0.088032
