data_functionalizedCrystal
_audit_creation_method	'MofGen! by Chris Wilmer'
_symmetry_space_group_name_H-M	'P1'
_symmetry_Int_Tables_number	1
_symmetry_cell_setting	triclinic
loop_
_symmetry_equiv_pos_as_xyz
  x,y,z
_cell_length_a	14.971491
_cell_length_b	8.140239
_cell_length_c	14.971496
_cell_angle_alpha	90.004058
_cell_angle_beta	83.617180
_cell_angle_gamma	90.003318
loop_
_atom_site_label
_atom_site_type_symbol
_atom_site_fract_x
_atom_site_fract_y
_atom_site_fract_z
O1	O	1.186942	0.136687	0.116582
O2	O	0.926543	0.136676	0.130536
O3	O	1.063717	0.136667	-0.006640
O4	O	1.049768	0.136696	0.253759
O5	O	1.063713	-0.136560	-0.006641
O6	O	0.926539	-0.136552	0.130535
O7	O	1.186938	-0.136540	0.116582
Zn8	Zn	1.056738	-0.179926	0.123558
Zn9	Zn	1.056743	0.180062	0.123560
O10	O	1.049763	-0.136531	0.253758
C11	C	0.893216	0.000060	0.129911
C12	C	0.793919	0.000055	0.128038
N13	N	1.056740	-0.425609	0.123557
C14	C	0.366216	0.149029	0.119959
C15	C	0.459516	0.149023	0.121716
C16	C	0.506160	0.000081	0.122599
C17	C	0.459499	-0.148865	0.121717
C18	C	0.366201	-0.148857	0.119954
C19	C	0.653961	-0.148870	0.125394
C20	C	0.747265	-0.148879	0.127159
C21	C	0.747276	0.149009	0.127156
C22	C	0.653978	0.149017	0.125393
C23	C	0.607324	0.000071	0.124512
C24	C	1.220265	0.000079	0.117207
C25	C	1.319562	0.000095	0.119079
C26	C	1.063090	0.000053	-0.039965
C27	C	1.061216	0.000052	-0.139262
N28	N	1.056748	0.425745	0.123554
C29	C	1.053150	0.149031	-0.566965
C30	C	1.054916	0.149024	-0.473666
C31	C	1.055790	0.000082	-0.427023
C32	C	1.054908	-0.148863	-0.473685
C33	C	1.053149	-0.148854	-0.566983
C34	C	1.058573	-0.148871	-0.279222
C35	C	1.060331	-0.148881	-0.185917
C36	C	1.060340	0.149007	-0.185904
C37	C	1.058581	0.149016	-0.279203
C38	C	1.057697	0.000070	-0.325858
C39	C	1.050391	0.000086	0.287083
C40	C	1.052265	0.000098	0.386380
H41	H	0.497499	0.270300	0.122426
O42	O	0.792672	0.293596	0.128128
C43	C	0.836578	0.302536	0.206562
H44	H	0.847204	0.173223	0.232631
H45	H	0.793590	0.376039	0.260088
C46	C	0.915203	0.546516	0.152703
C47	C	0.928261	0.387690	0.184717
H48	H	0.971756	0.599049	0.139230
H49	H	0.885620	0.540498	0.099862
H50	H	0.879376	0.607747	0.197313
H51	H	0.964077	0.326456	0.140103
H52	H	0.957852	0.393700	0.237550
O53	O	0.608527	-0.293452	0.124659
C54	C	0.544529	-0.302356	0.201058
H55	H	0.527210	-0.173032	0.226594
H56	H	0.573447	-0.375842	0.255943
C57	C	0.480223	-0.546350	0.144514
C58	C	0.458946	-0.387511	0.175872
H59	H	0.427433	-0.598884	0.128980
H60	H	0.523341	-0.540356	0.093044
H61	H	0.504323	-0.607568	0.190257
H62	H	0.434857	-0.326290	0.130126
H63	H	0.415821	-0.393497	0.227335
H64	H	1.061014	-0.270163	-0.147939
O65	O	1.052414	0.293620	-0.612376
C66	C	1.128811	0.302577	-0.676374
H67	H	1.154351	0.173268	-0.693721
H68	H	1.183694	0.376065	-0.647442
C69	C	1.072255	0.546585	-0.740626
C70	C	1.103619	0.387764	-0.761938
H71	H	1.056718	0.599139	-0.793404
H72	H	1.020786	0.540555	-0.697507
H73	H	1.117996	0.607804	-0.716514
H74	H	1.057874	0.326542	-0.786038
H75	H	1.155080	0.393786	-0.805062
O76	O	0.504921	-0.293442	0.122457
C77	C	0.568922	-0.302392	0.046062
H78	H	0.586255	-0.173082	0.020517
H79	H	0.539999	-0.375902	-0.008819
C80	C	0.633198	-0.546365	0.102630
C81	C	0.654494	-0.387543	0.071260
H82	H	0.685982	-0.598896	0.118171
H83	H	0.590078	-0.540340	0.154098
H84	H	0.609095	-0.607602	0.056890
H85	H	0.678586	-0.326303	0.117003
H86	H	0.697620	-0.393559	0.019800
H87	H	0.785239	-0.270160	0.127883
H88	H	0.616003	0.270299	0.124679
H89	H	0.328215	-0.270134	0.119247
O90	O	1.055729	0.293845	-0.428478
C91	C	1.054596	0.425305	-0.489655
H92	H	1.025044	0.381643	-0.552490
H93	H	1.126112	0.471108	-0.508881
C94	C	1.032969	0.619644	-0.368452
C95	C	0.996666	0.566019	-0.445625
H96	H	0.997239	0.706447	-0.341292
H97	H	1.033736	0.531078	-0.327235
H98	H	1.092565	0.657801	-0.384485
H99	H	0.937076	0.527845	-0.429589
H100	H	0.995887	0.654583	-0.486838
O101	O	1.060999	0.293636	-0.140507
C102	C	0.984554	0.302464	-0.076563
H103	H	0.959092	0.173108	-0.059211
H104	H	0.929646	0.375778	-0.105551
C105	C	1.040889	0.546689	-0.012305
C106	C	1.009621	0.387811	0.009012
H107	H	1.056349	0.599341	0.040481
H108	H	1.092390	0.540746	-0.055387
H109	H	0.995127	0.607763	-0.036463
H110	H	1.055386	0.326734	0.033159
H111	H	0.958128	0.393745	0.052101
H112	H	0.328245	0.270315	0.119246
H113	H	1.057864	0.270298	-0.317176
H114	H	1.057855	-0.270159	-0.317206
H115	H	1.055626	-0.270135	-0.435702
H116	H	1.052428	-0.270131	-0.604969
