data_functionalizedCrystal
_audit_creation_method	'MofGen! by Chris Wilmer'
_symmetry_space_group_name_H-M	'P1'
_symmetry_Int_Tables_number	1
_symmetry_cell_setting	triclinic
loop_
_symmetry_equiv_pos_as_xyz
  x,y,z
_cell_length_a	17.699083
_cell_length_b	14.519731
_cell_length_c	16.176319
_cell_angle_alpha	89.992219
_cell_angle_beta	89.998611
_cell_angle_gamma	83.485934
loop_
_atom_site_label
_atom_site_type_symbol
_atom_site_fract_x
_atom_site_fract_y
_atom_site_fract_z
O1	O	1.004420	0.116623	-0.068632
O2	O	1.504420	0.616623	0.431368
O3	O	0.784086	0.131796	-0.068660
O4	O	1.284086	0.631796	0.431340
O5	O	0.900086	-0.010052	-0.068638
O6	O	1.400086	0.489948	0.431362
O7	O	0.888420	0.258472	-0.068654
O8	O	1.388420	0.758472	0.431346
O9	O	0.900070	-0.010061	0.068855
O10	O	1.400070	0.489939	0.568855
O11	O	0.784070	0.131787	0.068833
O12	O	1.284070	0.631787	0.568833
O13	O	1.004404	0.116614	0.068861
O14	O	1.504404	0.616614	0.568861
Cu15	Cu	0.894235	0.124200	0.081401
Cu16	Cu	1.394235	0.624200	0.581401
Cu17	Cu	0.894254	0.124211	-0.081200
Cu18	Cu	1.394254	0.624211	0.418800
O19	O	0.888404	0.258463	0.068839
O20	O	1.388404	0.758463	0.568839
C21	C	0.755879	0.131248	0.000083
C22	C	1.255879	0.631248	0.500083
C23	C	0.671857	0.129617	0.000073
C24	C	1.171857	0.629617	0.500073
C25	C	0.623479	0.212879	0.000068
C26	C	1.123479	0.712879	0.500068
C27	C	0.544531	0.211341	0.000079
C28	C	1.044531	0.711341	0.500079
C29	C	0.513962	0.126540	0.000089
C30	C	1.013962	0.626540	0.500089
C31	C	0.562346	0.043272	0.000096
C32	C	1.062346	0.543272	0.500096
C33	C	0.641292	0.044811	0.000091
C34	C	1.141292	0.544811	0.500091
C35	C	0.243965	0.037063	0.000117
C36	C	0.743965	0.537063	0.500117
C37	C	0.165012	0.035531	0.000119
C38	C	0.665012	0.535531	0.500119
C39	C	0.147204	0.203594	0.000105
C40	C	0.647204	0.703594	0.500105
C41	C	0.226150	0.205133	0.000100
C42	C	0.726150	0.705133	0.500100
C43	C	0.274527	0.121865	0.000112
C44	C	0.774527	0.621865	0.500112
C45	C	0.360131	0.123533	0.000102
C46	C	0.860131	0.623533	0.500102
C47	C	0.428360	0.124870	0.000093
C48	C	0.928360	0.624870	0.500093
C49	C	0.899532	-0.044414	0.000109
C50	C	1.399532	0.455586	0.500109
C51	C	0.897894	-0.146787	0.000109
C52	C	1.397894	0.353213	0.500109
C53	C	0.896563	-0.229926	0.000107
C54	C	1.396563	0.270074	0.500107
C55	C	0.894899	-0.334227	0.000101
C56	C	1.394899	0.165773	0.500101
C57	C	0.893579	-0.417361	0.000095
C58	C	1.393579	0.082639	0.500095
C59	C	0.891916	-0.521669	0.000090
C60	C	1.391916	-0.021669	0.500090
C61	C	1.032611	0.117162	0.000116
C62	C	1.532611	0.617162	0.500116
C63	C	1.116633	0.118793	0.000121
C64	C	1.616633	0.618793	0.500121
C65	C	0.888958	0.292824	0.000090
C66	C	1.388958	0.792824	0.500090
C67	C	0.890596	0.395198	0.000085
C68	C	1.390596	0.895198	0.500085
N69	N	0.894228	0.124192	0.195767
N70	N	1.394228	0.624192	0.695767
N71	N	0.894268	0.124211	-0.195566
N72	N	1.394268	0.624211	0.304434
C73	C	0.945608	0.061407	0.239040
C74	C	1.445608	0.561407	0.739040
C75	C	0.945612	0.061406	0.325587
C76	C	1.445612	0.561406	0.825587
C77	C	0.894238	0.124195	0.368859
C78	C	1.394238	0.624195	0.868859
C79	C	0.842852	0.186983	0.325579
C80	C	1.342852	0.686983	0.825579
C81	C	0.842846	0.186979	0.239034
C82	C	1.342846	0.686979	0.739034
C83	C	0.842878	0.187000	0.674607
C84	C	1.342878	0.687000	1.174607
C85	C	0.842891	0.187001	0.761159
C86	C	1.342891	0.687001	1.261159
C87	C	0.945645	0.061427	0.761161
C88	C	1.445645	0.561427	1.261161
C89	C	0.945638	0.061423	0.674616
C90	C	1.445638	0.561423	1.174616
C91	C	0.894250	0.124207	0.631343
C92	C	1.394250	0.624207	1.131343
C93	C	0.894245	0.124207	0.537499
C94	C	1.394245	0.624207	1.037499
C95	C	0.894246	0.124201	0.462702
C96	C	1.394246	0.624201	0.962702
H97	H	0.648362	0.281934	0.000060
H98	H	1.148362	0.781934	0.500060
C99	C	1.002167	-0.007645	0.808769
C100	C	1.502167	0.492355	1.308769
N101	N	1.044739	-0.059669	0.844625
N102	N	1.544739	0.440331	1.344625
H103	H	0.987449	0.010281	0.360821
H104	H	1.487449	0.510281	0.860821
H105	H	0.801019	0.238104	0.360816
H106	H	1.301019	0.738104	0.860816
H107	H	0.801053	0.238133	0.796389
H108	H	1.301053	0.738133	1.296389
C109	C	0.694508	-0.046784	0.000094
C110	C	1.194508	0.453216	0.500094
N111	N	0.734589	-0.115777	0.000098
N112	N	1.234589	0.384223	0.500098
H113	H	0.987446	0.010281	0.203814
H114	H	1.487446	0.510281	0.703814
H115	H	0.801038	0.238123	0.639382
H116	H	1.301038	0.738123	1.139382
H117	H	0.801005	0.238103	0.203801
H118	H	1.301005	0.738103	0.703801
C119	C	0.259771	0.298420	0.000094
C120	C	0.759771	0.798420	0.500094
N121	N	0.285093	0.368686	0.000096
N122	N	0.785093	0.868686	0.500096
H123	H	0.107806	0.271394	0.000100
H124	H	0.607806	0.771394	0.500100
H125	H	0.987474	0.010298	0.639387
H126	H	1.487474	0.510298	1.139387
H127	H	0.505145	0.279141	0.000074
H128	H	1.005145	0.779141	0.500074
H129	H	0.140127	-0.033529	0.000129
H130	H	0.640127	0.466471	0.500129
H131	H	0.283344	-0.030739	0.000127
H132	H	0.783344	0.469261	0.500127
H133	H	0.537451	-0.025775	0.000116
H134	H	1.037451	0.474225	0.500116
