data_functionalizedCrystal
_audit_creation_method	'MofGen! by Chris Wilmer'
_symmetry_space_group_name_H-M	'P1'
_symmetry_Int_Tables_number	1
_symmetry_cell_setting	triclinic
loop_
_symmetry_equiv_pos_as_xyz
  x,y,z
_cell_length_a	11.026607
_cell_length_b	16.974800
_cell_length_c	15.455301
_cell_angle_alpha	90.649571
_cell_angle_beta	87.654993
_cell_angle_gamma	95.962169
loop_
_atom_site_label
_atom_site_type_symbol
_atom_site_fract_x
_atom_site_fract_y
_atom_site_fract_z
O1	O	0.154339	1.070985	0.003080
O2	O	0.654339	1.570985	0.503080
O3	O	0.175098	0.844414	-0.012832
O4	O	0.675098	1.344414	0.487168
O5	O	-0.011815	0.938921	-0.006192
O6	O	0.488185	1.438921	0.493808
O7	O	0.341252	0.976478	-0.003561
O8	O	0.841252	1.476478	0.496439
O9	O	-0.021254	0.931411	0.137543
O10	O	0.478746	1.431411	0.637543
O11	O	0.165659	0.836904	0.130903
O12	O	0.665659	1.336904	0.630903
O13	O	0.144900	1.063474	0.146815
O14	O	0.644900	1.563474	0.646815
Cu15	Cu	0.154418	0.949503	0.151983
Cu16	Cu	0.654418	1.449503	0.651983
Cu17	Cu	0.165581	0.958385	-0.018000
Cu18	Cu	0.665581	1.458385	0.482000
O19	O	0.331813	0.968967	0.140175
O20	O	0.831813	1.468967	0.640175
C21	C	0.169767	0.811202	0.056967
C22	C	0.669767	1.311202	0.556967
C23	C	0.167932	0.723428	0.050802
C24	C	0.667932	1.223428	0.550802
C25	C	0.161922	0.678102	0.126258
C26	C	0.661922	1.178102	0.626258
C27	C	0.160178	0.595628	0.120468
C28	C	0.660178	1.095628	0.620468
C29	C	0.164454	0.558482	0.039222
C30	C	0.664454	1.058482	0.539222
C31	C	0.170461	0.603814	-0.036240
C32	C	0.670461	1.103814	0.463760
C33	C	0.172196	0.686286	-0.030449
C34	C	0.672196	1.186286	0.469551
C35	C	0.159809	0.312265	0.013502
C36	C	0.659809	0.812265	0.513502
C37	C	0.158077	0.229787	0.007717
C38	C	0.658077	0.729787	0.507717
C39	C	0.147792	0.221606	0.164426
C40	C	0.647792	0.721606	0.664426
C41	C	0.149534	0.304081	0.170209
C42	C	0.649534	0.804081	0.670209
C43	C	0.155535	0.349405	0.094748
C44	C	0.655535	0.849405	0.594748
N45	N	0.162675	0.474180	0.033302
N46	N	0.662675	0.974180	0.533302
N47	N	0.157305	0.433705	0.100669
N48	N	0.657305	0.933705	0.600669
C49	C	-0.061701	0.928238	0.065188
C50	C	0.438299	1.428238	0.565188
C51	C	-0.196284	0.907584	0.063734
C52	C	0.303716	1.407584	0.563734
C53	C	-0.270452	0.964613	0.067738
C54	C	0.229548	1.464613	0.567738
C55	C	-0.409550	0.943268	0.066236
C56	C	0.090450	1.443268	0.566236
C57	C	0.381700	0.979651	0.068793
C58	C	0.881700	1.479651	0.568793
C59	C	0.516282	1.000305	0.070241
C60	C	1.016282	1.500305	0.570241
C61	C	0.150231	1.096686	0.077014
C62	C	0.650231	1.596686	0.577014
C63	C	0.152066	1.184461	0.083173
C64	C	0.652066	1.684461	0.583173
N65	N	0.146565	0.943261	0.271541
N66	N	0.646565	1.443261	0.771541
N67	N	0.173423	0.964632	-0.137558
N68	N	0.673423	1.464632	0.362442
C69	C	0.216871	0.999109	0.320852
C70	C	0.716871	1.499109	0.820852
C71	C	0.210925	0.994398	0.411330
C72	C	0.710925	1.494398	0.911330
C73	C	0.134679	0.933836	0.452494
C74	C	0.634679	1.433836	0.952494
C75	C	0.064365	0.877986	0.403176
C76	C	0.564365	1.377986	0.903176
C77	C	0.070305	0.882700	0.312700
C78	C	0.570305	1.382700	0.812700
C79	C	0.109050	0.913497	0.722649
C80	C	0.609050	1.413497	1.222649
C81	C	0.103117	0.908784	0.813131
C82	C	0.603117	1.408784	1.313131
C83	C	0.249676	1.025198	0.821278
C84	C	0.749676	1.525198	1.321278
C85	C	0.255616	1.029905	0.730800
C86	C	0.755616	1.529905	1.230800
C87	C	0.185297	0.974057	0.681491
C88	C	0.685297	1.474057	1.181491
N89	N	0.128602	0.929017	0.544976
N90	N	0.628602	1.429017	1.044976
N91	N	0.191368	0.978879	0.589010
N92	N	0.691368	1.478879	1.089010
H93	H	0.146047	0.334319	0.236369
H94	H	0.646047	0.834319	0.736369
H95	H	-0.444241	1.064939	0.074715
H96	H	0.055759	1.564939	0.574715
H97	H	0.164691	0.349158	-0.047945
H98	H	0.664691	0.849158	0.452055
H99	H	-0.235763	0.842958	0.059190
H100	H	0.264237	1.342958	0.559190
H101	H	0.306925	1.070667	0.861436
H102	H	0.806925	1.570667	1.361436
Br103	Br	-0.039119	0.795795	0.459041
Br104	Br	0.460881	1.295795	0.959041
H105	H	0.278967	1.048421	0.287343
H106	H	0.778967	1.548421	0.787343
Br107	Br	0.180343	0.747801	-0.132858
Br108	Br	0.680343	1.247801	0.367142
Br109	Br	0.139645	0.160091	0.266832
Br110	Br	0.639645	0.660091	0.766832
Br111	Br	0.163889	0.179375	-0.102554
Br112	Br	0.663889	0.679375	0.397446
Br113	Br	-0.475332	0.835544	0.058658
Br114	Br	0.024668	1.335544	0.558658
Br115	Br	0.152041	0.534117	0.222878
Br116	Br	0.652041	1.034117	0.722878
Br117	Br	0.306345	1.070195	0.478250
Br118	Br	0.806345	1.570195	0.978250
H119	H	0.041029	0.859463	0.846643
H120	H	0.541029	1.359463	1.346643
Br121	Br	0.176211	0.553400	-0.146505
Br122	Br	0.676211	1.053400	0.353495
Br123	Br	0.156131	0.728507	0.236527
Br124	Br	0.656131	1.228507	0.736527
H125	H	0.051790	0.868021	0.682511
H126	H	0.551790	1.368021	1.182511
H127	H	-0.230973	1.029239	0.072282
H128	H	0.269027	1.529239	0.572282
Br129	Br	0.359158	1.112068	0.674939
Br130	Br	0.859158	1.612068	1.174939
Br131	Br	-0.025131	0.806913	0.245777
Br132	Br	0.474869	1.306913	0.745777
