data_functionalizedCrystal
_audit_creation_method	'MofGen! by Chris Wilmer'
_symmetry_space_group_name_H-M	'P1'
_symmetry_Int_Tables_number	1
_symmetry_cell_setting	triclinic
loop_
_symmetry_equiv_pos_as_xyz
  x,y,z
_cell_length_a	15.538191
_cell_length_b	10.654545
_cell_length_c	14.750135
_cell_angle_alpha	77.228542
_cell_angle_beta	97.575628
_cell_angle_gamma	65.877586
loop_
_atom_site_label
_atom_site_type_symbol
_atom_site_fract_x
_atom_site_fract_y
_atom_site_fract_z
O1	O	0.111687	1.642650	-0.079814
O2	O	0.124259	1.271294	-0.079817
O3	O	-0.018686	1.529262	-0.079819
O4	O	0.254632	1.384683	-0.079811
O5	O	0.021738	1.456302	0.079847
O6	O	0.164683	1.198335	0.079850
O7	O	0.152111	1.569690	0.079853
Zn8	Zn	0.164815	1.372428	0.105202
Zn9	Zn	0.111555	1.468556	-0.105166
O10	O	0.295056	1.311723	0.079855
C11	C	0.143548	1.188448	0.000016
C12	C	0.140789	1.050295	0.000014
C13	C	0.161525	0.945627	0.087049
C14	C	0.158917	0.815827	0.087049
C15	C	0.114838	0.895375	-0.087028
C16	C	0.117440	1.025177	-0.087027
C17	C	-0.033472	1.507909	0.000011
C18	C	-0.137754	1.552970	0.000002
C19	C	-0.428459	1.105338	0.000019
C20	C	-0.526448	1.147706	0.000021
C21	C	-0.547337	1.386021	0.000023
C22	C	-0.449349	1.343675	0.000016
C23	C	-0.389917	1.203331	0.000015
C24	C	-0.410807	1.441669	0.000011
C25	C	-0.312826	1.399323	0.000009
C26	C	-0.253387	1.258985	0.000011
C27	C	-0.291936	1.160986	0.000012
C28	C	-0.470238	1.582008	0.000019
C29	C	-0.431696	1.680002	0.000015
C30	C	-0.333715	1.637661	0.000006
C31	C	-0.274277	1.497322	0.000008
C32	C	-0.295166	1.735659	0.000005
C33	C	-0.197186	1.693314	0.000003
C34	C	-0.176296	1.454977	0.000006
C35	C	0.309841	1.333076	0.000023
C36	C	0.414122	1.288018	0.000026
C37	C	0.132821	1.652537	0.000018
C38	C	0.135579	1.790693	0.000013
N39	N	0.201163	1.306833	0.248772
N40	N	0.075199	1.534165	-0.248736
C41	C	-0.026220	1.717294	0.600498
C42	C	-0.000777	1.671346	0.701008
C43	C	0.125766	1.442880	0.701022
C44	C	0.100337	1.488812	0.600510
C45	C	0.024342	1.626020	0.550256
C46	C	0.150899	1.397538	0.550268
C47	C	0.125468	1.443463	0.449766
C48	C	0.049475	1.580664	0.399505
C49	C	-0.001088	1.671946	0.449754
C50	C	0.226888	1.260326	0.600524
C51	C	0.277451	1.169052	0.550282
C52	C	0.252025	1.214981	0.449778
C53	C	0.176032	1.352182	0.399517
C54	C	0.302588	1.123699	0.399529
C55	C	0.277157	1.169625	0.299026
C56	C	0.150601	1.398107	0.299014
H57	H	0.095829	0.874906	-0.157894
H58	H	-0.127905	1.340698	-0.000002
H59	H	0.339324	1.057333	0.591210
F60	F	-0.567462	1.043393	0.000031
F61	F	0.180988	0.704434	0.179684
F62	F	-0.574517	1.627070	0.000028
F63	F	0.095362	1.136585	-0.179667
F64	F	0.330971	1.072476	0.245555
F65	F	-0.610596	1.535377	0.000031
H66	H	0.247588	1.222937	0.682360
F67	F	-0.494955	1.829358	0.000023
F68	F	-0.149104	1.213913	0.000017
F69	F	-0.228681	1.011620	0.000002
F70	F	-0.365204	0.955971	0.000008
H71	H	0.088725	1.509842	0.258096
H72	H	0.180537	0.966072	0.157924
H73	H	0.028767	1.618052	0.317669
H74	H	0.187639	1.331162	0.741950
H75	H	-0.343567	1.849922	0.000015
H76	H	-0.165804	1.773110	0.000001
H77	H	0.364457	1.011978	0.440459
H78	H	-0.062964	1.783680	0.408835
F79	F	-0.107094	1.863336	0.547012
H80	H	-0.041959	1.745685	0.741910
