data_functionalizedCrystal
_audit_creation_method	'MofGen! by Chris Wilmer'
_symmetry_space_group_name_H-M	'P1'
_symmetry_Int_Tables_number	1
_symmetry_cell_setting	triclinic
loop_
_symmetry_equiv_pos_as_xyz
  x,y,z
_cell_length_a	15.297327
_cell_length_b	12.827893
_cell_length_c	12.827885
_cell_angle_alpha	90.021189
_cell_angle_beta	99.642715
_cell_angle_gamma	80.294845
loop_
_atom_site_label
_atom_site_type_symbol
_atom_site_fract_x
_atom_site_fract_y
_atom_site_fract_z
Zn1	Zn	-0.359158	-1.525593	-0.662833
Zn2	Zn	-0.510042	-1.495208	-0.518312
Zn3	Zn	-0.359197	-1.350827	-0.488109
Zn4	Zn	-0.509970	-1.320555	-0.692992
O5	O	-0.434592	-1.423046	-0.590562
O6	O	-0.379187	-1.667796	-0.643681
O7	O	-0.490079	-1.476008	-0.368079
O8	O	-0.232947	-1.399395	-0.486025
O9	O	-0.490041	-1.645472	-0.537502
O10	O	-0.232919	-1.527796	-0.614394
O11	O	-0.379254	-1.369932	-0.345889
O12	O	-0.379184	-1.200578	-0.515268
O13	O	-0.489918	-1.347801	-0.835218
O14	O	-0.489956	-1.178337	-0.665795
O15	O	-0.379117	-1.498442	-0.813061
O16	O	-0.636277	-1.446654	-0.566746
O17	O	-0.636224	-1.318338	-0.695082
C18	C	-0.434567	-1.151541	-0.590528
C19	C	-0.434579	-1.035385	-0.590542
C20	C	-0.379820	-0.994628	-0.643199
C21	C	-0.379831	-0.874576	-0.643216
C22	C	-0.668985	-1.375942	-0.637487
C23	C	-0.769259	-1.355887	-0.657596
C24	C	-1.051900	-1.566816	-0.447191
C25	C	-0.957687	-1.585659	-0.428292
C26	C	-0.910575	-1.528218	-0.485616
C27	C	-0.957685	-1.451930	-0.561843
C28	C	-1.051907	-1.433080	-0.580739
C29	C	-0.910583	-1.394481	-0.619164
C30	C	-0.957693	-1.318194	-0.695391
C31	C	-1.051906	-1.299348	-0.714284
C32	C	-1.099017	-1.356789	-0.656959
C33	C	-0.816361	-1.413332	-0.600269
C34	C	-0.816369	-1.279595	-0.733816
C35	C	-0.910582	-1.260753	-0.752716
C36	C	-0.199284	-1.470362	-0.543476
C37	C	-0.099010	-1.490525	-0.523411
C38	C	-0.434505	-1.423134	-0.863115
C39	C	-0.434468	-1.423172	-0.979260
C40	C	-0.434610	-0.695612	-0.590586
C41	C	-0.434599	-0.811768	-0.590572
C42	C	-0.379630	-1.497723	-1.020079
C43	C	-0.379590	-1.497764	-1.140121
C44	C	-0.434613	-1.423031	-0.319056
C45	C	-0.434396	-1.423247	-0.202860
H46	H	-0.332953	-0.839482	-0.688302
H47	H	-0.332644	-1.561592	-1.175267
H48	H	-0.481487	-0.846852	-0.545495
C49	C	-1.103724	-1.215420	-0.798126
N50	N	-1.142753	-1.152204	-0.861277
H51	H	-0.481465	-0.981402	-0.545470
C52	C	-0.497855	-1.336980	-1.052105
N53	N	-0.545599	-1.272058	-1.106971
H54	H	-0.948952	-1.198638	-0.814780
H55	H	-0.833863	-1.543563	-0.470223
C56	C	-0.764551	-1.497248	-0.516422
N57	N	-0.725528	-1.560460	-0.453265
C58	C	-0.905873	-1.669555	-0.344427
N59	N	-0.866846	-1.732744	-0.281249
H60	H	-0.332929	-1.048613	-0.688265
C61	C	-0.316237	-1.583909	-0.947233
N62	N	-0.268489	-1.648827	-0.892366
C63	C	-1.103728	-1.629981	-0.384132
N64	N	-1.142767	-1.677558	-0.336629
H65	H	-0.778011	-1.232820	-0.780493
C66	C	-1.202658	-1.336061	-0.677740
N67	N	-1.280721	-1.320450	-0.693388
H68	H	-0.481351	-1.359421	-1.167723
