data_functionalizedCrystal
_audit_creation_method	'MofGen! by Chris Wilmer'
_symmetry_space_group_name_H-M	'P1'
_symmetry_Int_Tables_number	1
_symmetry_cell_setting	triclinic
loop_
_symmetry_equiv_pos_as_xyz
  x,y,z
_cell_length_a	10.540558
_cell_length_b	14.421503
_cell_length_c	10.540510
_cell_angle_alpha	89.993188
_cell_angle_beta	95.476776
_cell_angle_gamma	89.993591
loop_
_atom_site_label
_atom_site_type_symbol
_atom_site_fract_x
_atom_site_fract_y
_atom_site_fract_z
O1	O	-1.685862	0.077079	0.178998
O2	O	-1.316450	0.077086	0.195830
O3	O	-1.509604	0.077082	0.002706
O4	O	-1.492708	0.077083	0.372122
O5	O	-1.509572	-0.077142	0.002734
O6	O	-1.316418	-0.077137	0.195858
O7	O	-1.685830	-0.077145	0.179027
Cu8	Cu	-1.501121	-0.091223	0.187445
Cu9	Cu	-1.501159	0.091164	0.187411
O10	O	-1.492676	-0.077141	0.372151
C11	C	-1.269132	-0.000025	0.194577
C12	C	-1.128185	-0.000022	0.190785
N13	N	-1.501104	-0.219504	0.187469
C14	C	-0.944775	-0.000384	0.045854
C15	C	-1.091392	-0.000025	0.049698
C16	C	-1.066524	0.088044	0.258661
C17	C	-0.919981	0.088106	0.253836
C18	C	-0.919456	-0.087274	0.256739
C19	C	-1.066437	-0.088428	0.258048
C20	C	-1.411773	-0.469156	0.276728
C21	C	-1.526701	-0.530961	0.302416
C22	C	-1.501134	-0.408666	0.187438
C23	C	-1.386236	-0.530955	0.161781
C24	C	-1.501154	-0.591387	0.187412
C25	C	-1.616121	-0.469110	0.213183
C26	C	-1.475579	-0.469098	0.072498
C27	C	-1.590590	-0.530875	0.098138
C28	C	-1.501121	-0.303404	0.187457
C29	C	-1.501180	-0.696646	0.187393
C30	C	-0.733150	-0.000034	0.180263
C31	C	-0.874103	-0.000039	0.184004
C32	C	-1.508329	-0.000028	-0.044584
C33	C	-1.504562	-0.000022	-0.185534
N34	N	-1.501186	0.219445	0.187378
C35	C	-1.638745	-0.000378	-0.402980
C36	C	-1.642763	-0.000026	-0.256384
C37	C	-1.433835	0.088046	-0.230314
C38	C	-1.430795	0.088115	-0.377075
C39	C	-1.427881	-0.087265	-0.376851
C40	C	-1.434436	-0.088425	-0.230509
C41	C	-1.493951	-0.000029	0.419440
C42	C	-1.497718	-0.000028	0.560391
H43	H	-1.133998	-0.063155	-0.003711
Br44	Br	-1.439466	-0.423769	-0.089445
H45	H	-1.666251	-0.557804	0.022613
Br46	Br	-1.224274	-0.576238	0.125629
H47	H	-1.332094	0.091323	-0.182932
Br48	Br	-1.285948	-0.423982	0.402678
Br49	Br	-1.778129	-0.424030	0.249520
H50	H	-1.692573	-0.063537	-0.444920
Br51	Br	-0.872986	0.197826	0.170175
H52	H	-1.698103	-0.063156	-0.227025
Br53	Br	-1.727998	0.104289	-0.475504
Br54	Br	-1.735578	0.105377	-0.209041
H55	H	-1.333537	-0.093741	-0.181448
H56	H	-1.482979	0.153585	-0.199466
H57	H	-1.088866	0.091321	0.362271
H58	H	-1.107390	-0.153578	0.208463
H59	H	-1.479157	0.153946	-0.417299
H60	H	-1.133156	0.063213	-0.004111
H61	H	-1.327430	0.092107	-0.400078
Br62	Br	-0.866870	-0.198537	0.180652
H63	H	-1.090651	-0.093744	0.360911
H64	H	-1.548334	-0.558133	0.399607
Br65	Br	-1.500560	-0.198524	-0.447672
Br66	Br	-1.254938	-0.088253	-0.413779
Br67	Br	-0.894453	0.104286	-0.046688
Br68	Br	-0.897115	-0.105653	-0.047031
Br69	Br	-0.840006	0.094768	0.422941
Br70	Br	-1.520200	-0.197021	-0.182786
H71	H	-1.109131	0.153584	0.211487
Br72	Br	-0.840729	-0.088267	0.426582
