data_functionalizedCrystal
_audit_creation_method	'MofGen! by Chris Wilmer'
_symmetry_space_group_name_H-M	'P1'
_symmetry_Int_Tables_number	1
_symmetry_cell_setting	triclinic
loop_
_symmetry_equiv_pos_as_xyz
  x,y,z
_cell_length_a	18.215407
_cell_length_b	12.645330
_cell_length_c	18.215399
_cell_angle_alpha	89.976970
_cell_angle_beta	89.980167
_cell_angle_gamma	90.018140
loop_
_atom_site_label
_atom_site_type_symbol
_atom_site_fract_x
_atom_site_fract_y
_atom_site_fract_z
Zn1	Zn	1.125109	-0.422038	-0.416141
Zn2	Zn	1.458442	-0.088704	-0.082808
Zn3	Zn	1.791775	0.244629	0.250526
Zn4	Zn	1.125033	-0.599320	-0.293085
Zn5	Zn	1.458366	-0.265986	0.040248
Zn6	Zn	1.791699	0.067347	0.373581
Zn7	Zn	1.002041	-0.422072	-0.293088
Zn8	Zn	1.335375	-0.088739	0.040245
Zn9	Zn	1.668708	0.244594	0.373578
Zn10	Zn	1.002023	-0.599261	-0.416110
Zn11	Zn	1.335356	-0.265927	-0.082777
Zn12	Zn	1.668689	0.067406	0.250556
O13	O	1.063551	-0.510673	-0.354606
O14	O	1.396885	-0.177339	-0.021273
O15	O	1.730218	0.155994	0.312060
O16	O	1.228083	-0.445565	-0.399829
O17	O	1.561416	-0.112231	-0.066496
O18	O	1.894750	0.221102	0.266838
O19	O	1.108693	-0.575847	-0.190101
O20	O	1.442027	-0.242513	0.143232
O21	O	1.775360	0.090820	0.476565
O22	O	1.018406	-0.273720	-0.309426
O23	O	1.351739	0.059613	0.023908
O24	O	1.685073	0.392946	0.357241
O25	O	1.228027	-0.575813	-0.309421
O26	O	1.561360	-0.242480	0.023913
O27	O	1.894694	0.090854	0.357246
O28	O	1.108823	-0.273695	-0.399832
O29	O	1.442157	0.059638	-0.066499
O30	O	1.775490	0.392972	0.266835
O31	O	1.018332	-0.445624	-0.190104
O32	O	1.351666	-0.112290	0.143230
O33	O	1.684999	0.221043	0.476563
O34	O	0.899055	-0.445566	-0.309396
O35	O	1.232388	-0.112233	0.023937
O36	O	1.565721	0.221100	0.357271
O37	O	1.018374	-0.575713	-0.519099
O38	O	1.351708	-0.242379	-0.185765
O39	O	1.685041	0.090954	0.147568
O40	O	0.899041	-0.575746	-0.399780
O41	O	1.232374	-0.242413	-0.066446
O42	O	1.565708	0.090920	0.266887
O43	O	1.108805	-0.445507	-0.519121
O44	O	1.442138	-0.112174	-0.185788
O45	O	1.775472	0.221159	0.147545
O46	O	1.108675	-0.747659	-0.309391
O47	O	1.442009	-0.414326	0.023943
O48	O	1.775342	-0.080993	0.357276
O49	O	1.018300	-0.747616	-0.399777
O50	O	1.351634	-0.414283	-0.066443
O51	O	1.684967	-0.080949	0.266890
C52	C	0.872345	-0.510654	-0.354585
C53	C	1.205678	-0.177321	-0.021252
C54	C	1.539012	0.156012	0.312082
C55	C	0.790546	-0.510672	-0.354594
C56	C	1.123880	-0.177339	-0.021260
C57	C	1.457213	0.155994	0.312073
C58	C	0.602364	-0.578563	-0.401597
C59	C	0.935698	-0.245230	-0.068264
C60	C	1.269031	0.088103	0.265069
C61	C	0.525506	-0.578567	-0.401606
C62	C	0.858839	-0.245233	-0.068273
C63	C	1.192172	0.088100	0.265060
C64	C	0.525490	-0.442801	-0.307631
C65	C	0.858824	-0.109468	0.025702
C66	C	1.192157	0.223866	0.359035
C67	C	0.602348	-0.442793	-0.307626
C68	C	0.935681	-0.109460	0.025707
C69	C	1.269014	0.223873	0.359040
C70	C	0.640783	-0.510680	-0.354608
C71	C	0.974116	-0.177347	-0.021275
C72	C	1.307449	0.155986	0.312058
C73	C	0.487067	-0.510692	-0.354622
C74	C	0.820400	-0.177358	-0.021289
C75	C	1.153733	0.155975	0.312044
C76	C	0.403733	-0.510695	-0.354632
C77	C	0.737066	-0.177361	-0.021299
C78	C	1.070400	0.155972	0.312035
C79	C	0.724122	-0.510676	-0.354600
C80	C	1.057455	-0.177343	-0.021267
C81	C	1.390788	0.155991	0.312067
C82	C	1.063498	-0.786102	-0.354596
C83	C	1.396831	-0.452769	-0.021263
C84	C	1.730164	-0.119436	0.312071
C85	C	1.063542	-0.903932	-0.354616
C86	C	1.396875	-0.570599	-0.021283
C87	C	1.730209	-0.237266	0.312051
C88	C	1.006922	-1.071513	-0.411653
C89	C	1.340255	-0.738180	-0.078320
C90	C	1.673588	-0.404847	0.255013
C91	C	1.006632	-0.948954	-0.411470
C92	C	1.339965	-0.615620	-0.078137
C93	C	1.673299	-0.282287	0.255197
C94	C	1.042549	-0.948523	-0.277058
C95	C	1.375882	-0.615190	0.056276
C96	C	1.709216	-0.281856	0.389609
C97	C	1.042203	-1.071122	-0.277404
C98	C	1.375537	-0.737788	0.055930
C99	C	1.708870	-0.404455	0.389263
C100	C	1.141502	-1.071022	-0.374509
C101	C	1.474835	-0.737688	-0.041175
C102	C	1.808168	-0.404355	0.292158
C103	C	1.141024	-0.948415	-0.376205
C104	C	1.474357	-0.615082	-0.042871
C105	C	1.807691	-0.281748	0.290462
C106	C	1.255504	-0.510692	-0.354628
C107	C	1.588838	-0.177358	-0.021295
C108	C	1.922171	0.155975	0.312039
C109	C	1.337303	-0.510700	-0.354637
C110	C	1.670636	-0.177366	-0.021304
C111	C	2.003970	0.155967	0.312030
C112	C	1.063596	-0.510600	-0.546559
C113	C	1.396929	-0.177266	-0.213226
C114	C	1.730263	0.156067	0.120107
C115	C	1.063615	-0.510568	-0.628358
C116	C	1.396949	-0.177235	-0.295025
C117	C	1.730282	0.156098	0.038308
C118	C	1.063625	-0.234167	-0.354633
C119	C	1.396959	0.099166	-0.021299
C120	C	1.730292	0.432499	0.312034
C121	C	1.063657	-0.116337	-0.354644
C122	C	1.396990	0.216996	-0.021311
C123	C	1.730323	0.550329	0.312023
C124	C	1.110720	-0.442707	-0.816565
C125	C	1.444053	-0.109374	-0.483232
C126	C	1.777386	0.223960	-0.149899
C127	C	1.110728	-0.442676	-0.893424
C128	C	1.444062	-0.109343	-0.560091
C129	C	1.777395	0.223990	-0.226757
C130	C	1.016563	-0.578266	-0.893389
C131	C	1.349896	-0.244932	-0.560056
C132	C	1.683230	0.088401	-0.226722
C133	C	1.016551	-0.578290	-0.816532
C134	C	1.349884	-0.244957	-0.483198
C135	C	1.683218	0.088376	-0.149865
C136	C	1.063634	-0.510513	-0.778122
C137	C	1.396967	-0.177179	-0.444788
C138	C	1.730300	0.156154	-0.111455
C139	C	1.063654	-0.510457	-0.931838
C140	C	1.396988	-0.177124	-0.598505
C141	C	1.730321	0.156210	-0.265171
C142	C	1.063663	-0.510424	-1.015172
C143	C	1.396997	-0.177091	-0.681838
C144	C	1.730330	0.156243	-0.348505
C145	C	1.063624	-0.510544	-0.694783
C146	C	1.396957	-0.177211	-0.361449
C147	C	1.730290	0.156123	-0.028116
C148	C	1.063549	-0.510669	-0.163400
C149	C	1.396882	-0.177336	0.169933
C150	C	1.730216	0.155998	0.503267
C151	C	1.063672	-0.510401	-0.081602
C152	C	1.397006	-0.177068	0.251732
C153	C	1.730339	0.156265	0.585065
H154	H	0.494187	-0.387531	-0.269379
H155	H	0.827520	-0.054198	0.063954
H156	H	1.160854	0.279135	0.397287
H157	H	0.985298	-1.099813	-0.260576
H158	H	1.318632	-0.766479	0.072758
H159	H	1.651965	-0.433146	0.406091
C160	C	0.967486	-0.907793	-0.254064
C161	C	1.300820	-0.574460	0.079269
C162	C	1.634153	-0.241127	0.412602
C163	C	0.949663	-0.948336	-0.184774
C164	C	1.282996	-0.615003	0.148559
C165	C	1.616329	-0.281670	0.481892
C166	C	0.880523	-0.910831	-0.163570
C167	C	1.213857	-0.577498	0.169763
C168	C	1.547190	-0.244164	0.503097
H169	H	0.931722	-0.929899	-0.288761
H170	H	1.265055	-0.596566	0.044573
H171	H	1.598389	-0.263232	0.377906
H172	H	0.968446	-0.832736	-0.251974
H173	H	1.301779	-0.499403	0.081360
H174	H	1.635113	-0.166069	0.414693
H175	H	0.948697	-1.023377	-0.186870
H176	H	1.282031	-0.690044	0.146463
H177	H	1.615364	-0.356711	0.479797
H178	H	0.985408	-0.926234	-0.150062
H179	H	1.318742	-0.592901	0.183271
H180	H	1.652075	-0.259567	0.516605
H181	H	0.881483	-0.835774	-0.161479
H182	H	1.214817	-0.502440	0.171854
H183	H	1.548150	-0.169107	0.505187
H184	H	0.844765	-0.932939	-0.198271
H185	H	1.178098	-0.599606	0.135062
H186	H	1.511432	-0.266272	0.468395
H187	H	0.868424	-0.938326	-0.116552
H188	H	1.201758	-0.604992	0.216781
H189	H	1.535091	-0.271659	0.550114
C190	C	0.643932	-0.369048	-0.256525
C191	C	0.977265	-0.035714	0.076808
C192	C	1.310599	0.297619	0.410142
C193	C	0.593824	-0.309623	-0.215363
C194	C	0.927158	0.023711	0.117970
C195	C	1.260491	0.357044	0.451304
C196	C	0.632105	-0.241689	-0.168279
C197	C	0.965438	0.091645	0.165054
C198	C	1.298772	0.424978	0.498388
H199	H	0.673936	-0.322813	-0.284648
H200	H	1.007269	0.010520	0.048686
H201	H	1.340603	0.343854	0.382019
H202	H	0.673879	-0.409517	-0.224373
H203	H	1.007212	-0.076184	0.108960
H204	H	1.340546	0.257150	0.442294
H205	H	0.563890	-0.269156	-0.247511
H206	H	0.897223	0.064177	0.085822
H207	H	1.230557	0.397510	0.419156
H208	H	0.563819	-0.355829	-0.187226
H209	H	0.897152	-0.022496	0.146108
H210	H	1.230485	0.310837	0.479441
H211	H	0.662052	-0.282158	-0.136127
H212	H	0.995385	0.051175	0.197206
H213	H	1.328718	0.384508	0.530540
H214	H	0.662108	-0.195461	-0.196407
H215	H	0.995441	0.137872	0.136926
H216	H	1.328774	0.471205	0.470259
H217	H	0.598113	-0.201368	-0.140340
H218	H	0.931446	0.131965	0.192993
H219	H	1.264779	0.465299	0.526326
H220	H	0.494229	-0.633842	-0.439871
H221	H	0.827562	-0.300509	-0.106537
H222	H	1.160895	0.032824	0.226796
H223	H	0.978203	-0.633505	-0.785230
H224	H	1.311536	-0.300172	-0.451897
H225	H	1.644869	0.033162	-0.118564
H226	H	0.633656	-0.633839	-0.439855
H227	H	0.966989	-0.300506	-0.106521
H228	H	1.300323	0.032828	0.226812
H229	H	1.081734	-1.100776	-0.233479
H230	H	1.415067	-0.767443	0.099854
H231	H	1.748401	-0.434110	0.433188
C232	C	0.965373	-0.651899	-0.934961
C233	C	1.298706	-0.318566	-0.601627
C234	C	1.632040	0.014767	-0.268294
C235	C	0.924120	-0.711267	-0.884840
C236	C	1.257454	-0.377933	-0.551507
C237	C	1.590787	-0.044600	-0.218173
C238	C	0.876951	-0.779103	-0.923107
C239	C	1.210284	-0.445770	-0.589773
C240	C	1.543618	-0.112436	-0.256440
H241	H	0.993438	-0.698175	-0.964943
H242	H	1.326771	-0.364841	-0.631610
H243	H	1.660105	-0.031508	-0.298277
H244	H	0.933282	-0.611362	-0.964927
H245	H	1.266615	-0.278029	-0.631594
H246	H	1.599949	0.055304	-0.298261
H247	H	0.956207	-0.751801	-0.854886
H248	H	1.289541	-0.418467	-0.521553
H249	H	1.622874	-0.085134	-0.188219
H250	H	0.896041	-0.665019	-0.854856
H251	H	1.229374	-0.331686	-0.521522
H252	H	1.562707	0.001647	-0.188189
H253	H	0.844860	-0.738566	-0.953073
H254	H	1.178193	-0.405232	-0.619740
H255	H	1.511527	-0.071899	-0.286407
H256	H	0.905022	-0.825371	-0.953088
H257	H	1.238355	-0.492038	-0.619755
H258	H	1.571688	-0.158705	-0.286422
H259	H	0.848951	-0.819385	-0.889106
H260	H	1.182284	-0.486051	-0.555773
H261	H	1.515617	-0.152718	-0.222439
H262	H	1.019766	-0.918802	-0.468979
H263	H	1.353099	-0.585469	-0.135646
H264	H	1.686433	-0.252136	0.197688
H265	H	1.160652	-1.101868	-0.430103
H266	H	1.493985	-0.768535	-0.096770
H267	H	1.827319	-0.435201	0.236564
H268	H	1.149069	-0.387460	-0.924721
H269	H	1.482403	-0.054127	-0.591388
H270	H	1.815736	0.279206	-0.258055
H271	H	0.949572	-1.102414	-0.398661
H272	H	1.282905	-0.769081	-0.065327
H273	H	1.616238	-0.435747	0.268006
C274	C	1.024360	-1.110896	-0.488529
C275	C	1.357694	-0.777562	-0.155196
C276	C	1.691027	-0.444229	0.178138
C277	C	1.086398	-1.176144	-0.486083
C278	C	1.419732	-0.842811	-0.152750
C279	C	1.753065	-0.509477	0.180583
C280	C	1.102478	-1.212464	-0.556887
C281	C	1.435811	-0.879131	-0.223554
C282	C	1.769145	-0.545797	0.109780
H283	H	1.033775	-1.052293	-0.519788
H284	H	1.367109	-0.718960	-0.186455
H285	H	1.700442	-0.385626	0.146879
H286	H	0.983770	-1.149896	-0.506954
H287	H	1.317103	-0.816563	-0.173621
H288	H	1.650436	-0.483230	0.159713
H289	H	1.126980	-1.137144	-0.467669
H290	H	1.460313	-0.803811	-0.134335
H291	H	1.793647	-0.470478	0.198998
H292	H	1.077000	-1.234762	-0.454839
H293	H	1.410333	-0.901429	-0.121505
H294	H	1.743667	-0.568096	0.211828
H295	H	1.061887	-1.251465	-0.575312
H296	H	1.395221	-0.918131	-0.241978
H297	H	1.728554	-0.584798	0.091355
H298	H	1.111890	-1.153855	-0.588140
H299	H	1.445223	-0.820522	-0.254807
H300	H	1.778556	-0.487188	0.078526
H301	H	1.144568	-1.256746	-0.555236
H302	H	1.477901	-0.923413	-0.221903
H303	H	1.811234	-0.590080	0.111431
H304	H	0.948921	-0.919719	-0.398309
H305	H	1.282255	-0.586386	-0.064976
H306	H	1.615588	-0.253052	0.268357
H307	H	1.082562	-0.919362	-0.233421
H308	H	1.415896	-0.586029	0.099913
H309	H	1.749229	-0.252696	0.433246
H310	H	1.156855	-0.919267	-0.433284
H311	H	1.490189	-0.585934	-0.099950
H312	H	1.823522	-0.252600	0.233383
H313	H	1.183771	-1.100007	-0.332986
H314	H	1.517104	-0.766674	0.000347
H315	H	1.850437	-0.433341	0.333680
C316	C	1.200305	-0.907685	-0.324757
C317	C	1.533638	-0.574352	0.008576
C318	C	1.866971	-0.241018	0.341910
C319	C	1.184290	-0.939293	-0.252836
C320	C	1.517624	-0.605960	0.080497
C321	C	1.850957	-0.272626	0.413830
C322	C	1.238885	-0.901804	-0.205418
C323	C	1.572218	-0.568470	0.127916
C324	C	1.905552	-0.235137	0.461249
H325	H	1.202008	-0.832680	-0.327091
H326	H	1.535342	-0.499347	0.006242
H327	H	1.868675	-0.166014	0.339576
H328	H	1.246501	-0.935838	-0.339038
H329	H	1.579834	-0.602504	-0.005704
H330	H	1.913167	-0.269171	0.327629
H331	H	1.138107	-0.911136	-0.238559
H332	H	1.471440	-0.577802	0.094774
H333	H	1.804773	-0.244469	0.428107
H334	H	1.182593	-1.014292	-0.250479
H335	H	1.515926	-0.680959	0.082854
H336	H	1.849260	-0.347625	0.416188
H337	H	1.285081	-0.929957	-0.219698
H338	H	1.618415	-0.596623	0.113635
H339	H	1.951748	-0.263290	0.446968
H340	H	1.240585	-0.826800	-0.207758
H341	H	1.573918	-0.493467	0.125575
H342	H	1.907251	-0.160134	0.458908
H343	H	1.228031	-0.923253	-0.156616
H344	H	1.561364	-0.589919	0.176718
H345	H	1.894697	-0.256586	0.510051
H346	H	1.149055	-0.387515	-0.785294
H347	H	1.482388	-0.054182	-0.451961
H348	H	1.815722	0.279151	-0.118627
