data_functionalizedCrystal
_audit_creation_method	'MofGen! by Chris Wilmer'
_symmetry_space_group_name_H-M	'P1'
_symmetry_Int_Tables_number	1
_symmetry_cell_setting	triclinic
loop_
_symmetry_equiv_pos_as_xyz
  x,y,z
_cell_length_a	12.759401
_cell_length_b	12.759394
_cell_length_c	12.759393
_cell_angle_alpha	89.970474
_cell_angle_beta	89.980324
_cell_angle_gamma	90.014282
loop_
_atom_site_label
_atom_site_type_symbol
_atom_site_fract_x
_atom_site_fract_y
_atom_site_fract_z
Zn1	Zn	1.606273	-0.418204	-0.593992
Zn2	Zn	1.606166	-0.593919	-0.418315
Zn3	Zn	1.430571	-0.418256	-0.418331
Zn4	Zn	1.430566	-0.593843	-0.593956
O5	O	1.518394	-0.506055	-0.506148
O6	O	1.753279	-0.441523	-0.570696
O7	O	1.582831	-0.570671	-0.271296
O8	O	1.453925	-0.271228	-0.441654
O9	O	1.753201	-0.570620	-0.441627
O10	O	1.583012	-0.271190	-0.570712
O11	O	1.453822	-0.441612	-0.271308
O12	O	1.283549	-0.441538	-0.441620
O13	O	1.453916	-0.570490	-0.740982
O14	O	1.283545	-0.570541	-0.570651
O15	O	1.583007	-0.441448	-0.741008
O16	O	1.582826	-0.740930	-0.441592
O17	O	1.453813	-0.740874	-0.570635
C18	C	1.245427	-0.506037	-0.506134
C19	C	1.128650	-0.506055	-0.506152
C20	C	1.073829	-0.438955	-0.573462
C21	C	0.964105	-0.438966	-0.573469
C22	C	0.964032	-0.573185	-0.438853
C23	C	1.073754	-0.573168	-0.438842
C24	C	1.518336	-0.779023	-0.506131
C25	C	1.518407	-0.895800	-0.506159
C26	C	1.652724	-0.895601	-0.640647
C27	C	1.719916	-0.950363	-0.707899
C28	C	1.719979	-1.060084	-0.707922
C29	C	1.652840	-1.115047	-0.640687
C30	C	1.585648	-1.060285	-0.573435
C31	C	1.585595	-0.950561	-0.573418
C32	C	1.451326	-1.060484	-0.438954
C33	C	1.451268	-0.950762	-0.438924
C34	C	1.384187	-1.115446	-0.371720
C35	C	1.316999	-1.060685	-0.304461
C36	C	1.316940	-0.950956	-0.304440
C37	C	1.384076	-0.896001	-0.371672
C38	C	1.792427	-0.506074	-0.506164
C39	C	1.909204	-0.506082	-0.506171
C40	C	1.518473	-0.505955	-0.780182
C41	C	1.518506	-0.505912	-0.896959
C42	C	1.518481	-0.232022	-0.506189
C43	C	1.518518	-0.115245	-0.506206
C44	C	1.585729	-0.438709	-0.951836
C45	C	1.585746	-0.438664	-1.061560
C46	C	1.451316	-0.573033	-1.061520
C47	C	1.451294	-0.573072	-0.951798
C48	C	1.518376	-0.506080	-0.233181
C49	C	1.518546	-0.505827	-0.116405
H50	H	0.919323	-0.627827	-0.384053
H51	H	1.774578	-0.905603	-0.762643
C52	C	1.377352	-0.647005	-0.891428
H53	H	1.337338	-0.687009	-0.939801
H54	H	1.331581	-0.606830	-0.848622
H55	H	1.417530	-0.692801	-0.848628
C56	C	1.134061	-0.646985	-0.364801
H57	H	1.085654	-0.686969	-0.324726
H58	H	1.176849	-0.606734	-0.319090
H59	H	1.176875	-0.692805	-0.404917
C60	C	1.793891	-1.120324	-0.781892
H61	H	1.833873	-1.071881	-0.821927
H62	H	1.753708	-1.163132	-0.827643
H63	H	1.839709	-1.163114	-0.741732
C64	C	1.377395	-0.646913	-1.121841
H65	H	1.337350	-0.686935	-1.073440
H66	H	1.417578	-0.692678	-1.164641
H67	H	1.331636	-0.606699	-1.164644
C68	C	1.134211	-0.365126	-0.647491
H69	H	1.085843	-0.325159	-0.687572
H70	H	1.177032	-0.405360	-0.693197
H71	H	1.176998	-0.319291	-0.607368
H72	H	1.652690	-0.806260	-0.640625
H73	H	0.919475	-0.384325	-0.628278
H74	H	1.652888	-1.204388	-0.640721
H75	H	1.384239	-1.204787	-0.371747
H76	H	1.640484	-0.383939	-1.106236
C77	C	1.243157	-1.121143	-0.230513
H78	H	1.252819	-1.194331	-0.240159
H79	H	1.172550	-1.103203	-0.245824
H80	H	1.258565	-1.103206	-0.159926
C81	C	1.243027	-0.890727	-0.230462
H82	H	1.203060	-0.939178	-0.190423
H83	H	1.197212	-0.847929	-0.270606
H84	H	1.283218	-0.847929	-0.184699
H85	H	1.384039	-0.806659	-0.371658
C86	C	1.659645	-0.364823	-0.891516
H87	H	1.699674	-0.324786	-0.939918
H88	H	1.705403	-0.405024	-0.848710
H89	H	1.619450	-0.319056	-0.848720
