data_functionalizedCrystal
_audit_creation_method	'MofGen! by Chris Wilmer'
_symmetry_space_group_name_H-M	'P1'
_symmetry_Int_Tables_number	1
_symmetry_cell_setting	triclinic
loop_
_symmetry_equiv_pos_as_xyz
  x,y,z
_cell_length_a	19.077105
_cell_length_b	16.625545
_cell_length_c	19.076919
_cell_angle_alpha	87.727985
_cell_angle_beta	90.076224
_cell_angle_gamma	92.279587
loop_
_atom_site_label
_atom_site_type_symbol
_atom_site_fract_x
_atom_site_fract_y
_atom_site_fract_z
Zn1	Zn	1.058273	0.390077	-0.440419
Zn2	Zn	1.391606	0.723410	-0.107086
Zn3	Zn	1.724939	1.056744	0.226247
Zn4	Zn	1.062913	0.519720	-0.322913
Zn5	Zn	1.396247	0.853053	0.010420
Zn6	Zn	1.729580	1.186387	0.343754
Zn7	Zn	0.945491	0.379276	-0.318213
Zn8	Zn	1.278824	0.712609	0.015121
Zn9	Zn	1.612157	1.045942	0.348454
Zn10	Zn	0.940735	0.519234	-0.435665
Zn11	Zn	1.274069	0.852567	-0.102332
Zn12	Zn	1.607402	1.185900	0.231001
O13	O	1.001853	0.452077	-0.379303
O14	O	1.335186	0.785410	-0.045969
O15	O	1.668520	1.118743	0.287364
O16	O	1.157220	0.411998	-0.428788
O17	O	1.490553	0.745332	-0.095455
O18	O	1.823887	1.078665	0.237878
O19	O	1.051269	0.496773	-0.223958
O20	O	1.384603	0.830106	0.109375
O21	O	1.717936	1.163440	0.442709
O22	O	0.960499	0.267879	-0.334446
O23	O	1.293833	0.601213	-0.001113
O24	O	1.627166	0.934546	0.332221
O25	O	1.160630	0.507247	-0.342457
O26	O	1.493963	0.840580	-0.009124
O27	O	1.827296	1.173913	0.324210
O28	O	1.043360	0.275815	-0.424231
O29	O	1.376693	0.609148	-0.090897
O30	O	1.710027	0.942482	0.242436
O31	O	0.964999	0.393589	-0.220505
O32	O	1.298333	0.726922	0.112829
O33	O	1.631666	1.060256	0.446162
O34	O	0.846528	0.393117	-0.329836
O35	O	1.179861	0.726451	0.003497
O36	O	1.513195	1.059784	0.336830
O37	O	0.952395	0.506418	-0.534627
O38	O	1.285728	0.839751	-0.201294
O39	O	1.619061	1.173084	0.132039
O40	O	0.843034	0.495944	-0.416129
O41	O	1.176368	0.829277	-0.082795
O42	O	1.509701	1.162611	0.250538
O43	O	1.038749	0.411527	-0.538120
O44	O	1.372082	0.744860	-0.204787
O45	O	1.705416	1.078193	0.128547
O46	O	1.046658	0.632485	-0.337847
O47	O	1.379992	0.965818	-0.004514
O48	O	1.713325	1.299151	0.328819
O49	O	0.956894	0.632127	-0.420686
O50	O	1.290228	0.965461	-0.087353
O51	O	1.623561	1.298794	0.245980
C52	C	0.819285	0.443307	-0.371957
C53	C	1.152618	0.776640	-0.038624
C54	C	1.485951	1.109973	0.294710
C55	C	0.741180	0.439575	-0.368831
C56	C	1.074514	0.772908	-0.035498
C57	C	1.407847	1.106241	0.297836
C58	C	0.702689	0.491433	-0.412220
C59	C	1.036023	0.824766	-0.078886
C60	C	1.369356	1.158099	0.254447
C61	C	0.629302	0.487916	-0.409286
C62	C	0.962635	0.821249	-0.075953
C63	C	1.295969	1.154582	0.257381
C64	C	0.594407	0.432544	-0.362960
C65	C	0.927741	0.765878	-0.029627
C66	C	1.261074	1.099211	0.303707
C67	C	0.632904	0.380681	-0.319570
C68	C	0.966237	0.714014	0.013764
C69	C	1.299570	1.047348	0.347097
C70	C	0.706290	0.384195	-0.322507
C71	C	1.039623	0.717528	0.010826
C72	C	1.372956	1.050861	0.344159
C73	C	0.375120	0.416284	-0.349367
C74	C	0.708453	0.749617	-0.016034
C75	C	1.041787	1.082950	0.317300
C76	C	0.301729	0.412776	-0.346431
C77	C	0.635062	0.746109	-0.013098
C78	C	0.968396	1.079442	0.320235
C79	C	0.298132	0.520010	-0.436149
C80	C	0.631465	0.853343	-0.102816
C81	C	0.964799	1.186677	0.230518
C82	C	0.371520	0.523522	-0.439080
C83	C	0.704853	0.856855	-0.105746
C84	C	1.038186	1.190188	0.227587
C85	C	0.410010	0.471656	-0.395692
C86	C	0.743343	0.804989	-0.062359
C87	C	1.076676	1.138322	0.270975
N88	N	0.519394	0.428950	-0.359959
N89	N	0.852727	0.762283	-0.026625
N90	N	1.186060	1.095617	0.306708
N91	N	0.485022	0.475247	-0.398697
N92	N	0.818355	0.808580	-0.065364
N93	N	1.151688	1.141913	0.267969
C94	C	1.001782	0.661563	-0.379277
C95	C	1.335116	0.994896	-0.045944
C96	C	1.668449	1.328230	0.287390
C97	C	1.001816	0.751186	-0.379292
C98	C	1.335149	1.084520	-0.045959
C99	C	1.668482	1.417853	0.287374
C100	C	1.001927	1.079371	-0.379381
C101	C	1.335260	1.412704	-0.046048
C102	C	1.668594	1.746038	0.287286
C103	C	1.001894	0.988060	-0.379358
C104	C	1.335227	1.321393	-0.046025
C105	C	1.668560	1.654727	0.287309
C106	C	1.001871	0.915282	-0.379336
C107	C	1.335204	1.248615	-0.046003
C108	C	1.668537	1.581948	0.287330
C109	C	1.001838	0.823965	-0.379314
C110	C	1.335172	1.157298	-0.045981
C111	C	1.668505	1.490632	0.287352
C112	C	1.185134	0.460882	-0.386677
C113	C	1.518467	0.794215	-0.053344
C114	C	1.851801	1.127548	0.279989
C115	C	1.263238	0.464634	-0.389820
C116	C	1.596571	0.797967	-0.056486
C117	C	1.929904	1.131300	0.276847
C118	C	0.994524	0.460123	-0.562583
C119	C	1.327857	0.793456	-0.229249
C120	C	1.661190	1.126790	0.104084
C121	C	0.991400	0.463552	-0.640686
C122	C	1.324734	0.796885	-0.307352
C123	C	1.658067	1.130218	0.025981
C124	C	1.001936	1.241774	-0.379352
C125	C	1.335269	1.575107	-0.046019
C126	C	1.668603	1.908440	0.287314
C127	C	1.001955	1.152155	-0.379394
C128	C	1.335289	1.485489	-0.046061
C129	C	1.668622	1.818822	0.287273
C130	C	1.034891	0.415760	-0.679198
C131	C	1.368224	0.749094	-0.345865
C132	C	1.701557	1.082427	-0.012532
C133	C	1.031947	0.418979	-0.752584
C134	C	1.365281	0.752312	-0.419251
C135	C	1.698614	1.085645	-0.085917
C136	C	0.985517	0.469993	-0.787456
C137	C	1.318850	0.803326	-0.454123
C138	C	1.652183	1.136660	-0.120790
C139	C	0.942022	0.517786	-0.748938
C140	C	1.275355	0.851120	-0.415605
C141	C	1.608688	1.184453	-0.082272
C142	C	0.944962	0.514563	-0.675554
C143	C	1.278295	0.847897	-0.342221
C144	C	1.611628	1.181230	-0.008887
C145	C	0.971899	0.484926	-1.006737
C146	C	1.305232	0.818260	-0.673404
C147	C	1.638566	1.151593	-0.340071
C148	C	0.968963	0.488147	-1.080127
C149	C	1.302297	0.821481	-0.746794
C150	C	1.635630	1.154814	-0.413461
C151	C	1.058889	0.389338	-1.083768
C152	C	1.392222	0.722671	-0.750434
C153	C	1.725555	1.056005	-0.417101
C154	C	1.061828	0.386123	-1.010382
C155	C	1.395161	0.719456	-0.677048
C156	C	1.728494	1.052790	-0.343715
C157	C	1.018330	0.433913	-0.971870
C158	C	1.351663	0.767246	-0.638537
C159	C	1.684997	1.100580	-0.305204
N160	N	0.982509	0.473286	-0.862468
N161	N	1.315842	0.806619	-0.529135
N162	N	1.649175	1.139953	-0.195802
N163	N	1.021335	0.430616	-0.896859
N164	N	1.354668	0.763949	-0.563526
N165	N	1.688002	1.097282	-0.230193
C166	C	1.009194	0.444005	-0.196737
C167	C	1.342528	0.777339	0.136596
C168	C	1.675861	1.110672	0.469930
C169	C	1.012454	0.440356	-0.118640
C170	C	1.345787	0.773689	0.214694
C171	C	1.679120	1.107023	0.548027
H172	H	0.273320	0.367677	-0.308711
H173	H	0.606653	0.701010	0.024622
H174	H	0.939987	1.034343	0.357956
H175	H	0.909540	0.553472	-0.644198
H176	H	1.242873	0.886805	-0.310864
H177	H	1.576207	1.220139	0.022469
O178	O	0.409151	0.583255	-0.489040
O179	O	0.742484	0.916588	-0.155706
O180	O	1.075818	1.249922	0.177627
H181	H	0.466648	0.576995	-0.483784
H182	H	0.799981	0.910328	-0.150451
H183	H	1.133314	1.243661	0.182882
H184	H	1.094301	0.350429	-1.115132
H185	H	1.427634	0.683762	-0.781798
H186	H	1.760968	1.017095	-0.448465
H187	H	0.731095	0.536525	-0.449941
H188	H	1.064428	0.869858	-0.116608
H189	H	1.397762	1.203191	0.216725
H190	H	0.597965	0.530145	-0.444617
H191	H	0.931299	0.863478	-0.111284
H192	H	1.264632	1.196811	0.222050
H193	H	0.266786	0.562235	-0.471474
H194	H	0.600119	0.895569	-0.138141
H195	H	0.933452	1.228902	0.195193
H196	H	0.931152	0.529692	-1.108518
H197	H	1.264485	0.863025	-0.775185
H198	H	1.597818	1.196358	-0.441851
H199	H	0.406450	0.374056	-0.314032
H200	H	0.739783	0.707390	0.019301
H201	H	1.073117	1.040723	0.352634
O202	O	0.595274	0.320976	-0.269584
O203	O	0.928607	0.654310	0.063750
O204	O	1.261940	0.987643	0.397083
H205	H	0.537777	0.327257	-0.274817
H206	H	0.871111	0.660590	0.058516
H207	H	1.204444	0.993924	0.391849
O208	O	0.747811	0.328272	-0.275702
O209	O	1.081145	0.661606	0.057631
O210	O	1.414478	0.994939	0.390965
H211	H	0.711220	0.289186	-0.242988
H212	H	1.044553	0.622519	0.090346
H213	H	1.377886	0.955852	0.423679
O214	O	1.084970	0.360737	-0.641587
O215	O	1.418303	0.694070	-0.308253
O216	O	1.751636	1.027404	0.025080
H217	H	1.114712	0.328040	-0.680699
H218	H	1.448045	0.661374	-0.347365
H219	H	1.781378	0.994707	-0.014032
H220	H	1.067364	0.380064	-0.783938
H221	H	1.400697	0.713397	-0.450605
H222	H	1.734030	1.046730	-0.117271
O223	O	1.111909	0.331104	-0.972769
O224	O	1.445243	0.664437	-0.639436
O225	O	1.778576	0.997771	-0.306102
H226	H	1.141656	0.298409	-1.011879
H227	H	1.474989	0.631742	-0.678545
H228	H	1.808322	0.965075	-0.345212
O229	O	0.924950	0.536426	-0.965202
O230	O	1.258284	0.869759	-0.631869
O231	O	1.591617	1.203092	-0.298535
H232	H	0.892163	0.572428	-1.001782
H233	H	1.225496	0.905762	-0.668448
H234	H	1.558830	1.239095	-0.335115
H235	H	0.904214	0.559321	-0.777337
H236	H	1.237548	0.892654	-0.444004
H237	H	1.570881	1.225987	-0.110670
