data_functionalizedCrystal
_audit_creation_method	'MofGen! by Chris Wilmer'
_symmetry_space_group_name_H-M	'P1'
_symmetry_Int_Tables_number	1
_symmetry_cell_setting	triclinic
loop_
_symmetry_equiv_pos_as_xyz
  x,y,z
_cell_length_a	14.519709
_cell_length_b	14.044220
_cell_length_c	12.996460
_cell_angle_alpha	90.001035
_cell_angle_beta	90.000602
_cell_angle_gamma	88.434511
loop_
_atom_site_label
_atom_site_type_symbol
_atom_site_fract_x
_atom_site_fract_y
_atom_site_fract_z
O1	O	1.233894	0.124265	0.085435
O2	O	1.567227	0.457598	0.418768
O3	O	1.900560	0.790931	0.752101
O4	O	0.966597	0.138899	0.085466
O5	O	1.299931	0.472232	0.418800
O6	O	1.633264	0.805566	0.752133
O7	O	1.096233	-0.006410	0.085441
O8	O	1.429567	0.326924	0.418774
O9	O	1.762900	0.660257	0.752108
O10	O	1.104258	0.269573	0.085460
O11	O	1.437591	0.602907	0.418794
O12	O	1.770924	0.936240	0.752127
O13	O	1.096216	-0.006401	-0.085693
O14	O	1.429549	0.326932	0.247640
O15	O	1.762882	0.660266	0.580974
O16	O	0.966580	0.138908	-0.085667
O17	O	1.299913	0.472241	0.247666
O18	O	1.633246	0.805574	0.580999
O19	O	1.233876	0.124273	-0.085699
O20	O	1.567209	0.457606	0.247634
O21	O	1.900543	0.790940	0.580968
Cu22	Cu	1.100226	0.131591	-0.101309
Cu23	Cu	1.433560	0.464924	0.232024
Cu24	Cu	1.766893	0.798258	0.565358
Cu25	Cu	1.100247	0.131581	0.101076
Cu26	Cu	1.433580	0.464914	0.434410
Cu27	Cu	1.766914	0.798248	0.767743
O28	O	1.104240	0.269582	-0.085674
O29	O	1.437573	0.602915	0.247660
O30	O	1.770907	0.936248	0.580993
C31	C	0.932174	0.138221	-0.000097
C32	C	1.265507	0.471555	0.333237
C33	C	1.598840	0.804888	0.666570
C34	C	0.829628	0.136177	-0.000085
C35	C	1.162961	0.469511	0.333249
C36	C	1.496294	0.802844	0.666582
C37	C	0.454125	0.128653	-0.000132
C38	C	0.787458	0.461987	0.333201
C39	C	1.120791	0.795320	0.666535
C40	C	0.558601	0.130743	-0.000119
C41	C	0.891935	0.464076	0.333215
C42	C	1.225268	0.797409	0.666548
C43	C	0.641873	0.132415	-0.000107
C44	C	0.975206	0.465749	0.333226
C45	C	1.308540	0.799082	0.666559
C46	C	0.746356	0.134505	-0.000096
C47	C	1.079689	0.467838	0.333237
C48	C	1.413023	0.801172	0.666571
C49	C	1.092712	-0.041726	-0.000126
C50	C	1.426045	0.291608	0.333207
C51	C	1.759379	0.624941	0.666541
C52	C	1.082235	-0.146969	-0.000126
C53	C	1.415568	0.186364	0.333207
C54	C	1.748902	0.519697	0.666541
C55	C	1.063081	-0.339663	-0.000109
C56	C	1.396414	-0.006330	0.333224
C57	C	1.729747	0.327004	0.666558
C58	C	1.137389	-0.397170	-0.000115
C59	C	1.470722	-0.063837	0.333219
C60	C	1.804055	0.269496	0.666552
C61	C	1.126731	-0.504392	-0.000105
C62	C	1.460064	-0.171059	0.333228
C63	C	1.793398	0.162275	0.666562
C64	C	1.073737	-0.232432	-0.000118
C65	C	1.407070	0.100902	0.333215
C66	C	1.740404	0.434235	0.666548
C67	C	1.268300	0.124951	-0.000134
C68	C	1.601633	0.458284	0.333199
C69	C	1.934966	0.791617	0.666533
C70	C	1.370846	0.126995	-0.000139
C71	C	1.704179	0.460328	0.333194
C72	C	2.037512	0.793661	0.666528
C73	C	1.107761	0.304898	-0.000104
C74	C	1.441095	0.638231	0.333229
C75	C	1.774428	0.971564	0.666562
C76	C	1.118238	0.410141	-0.000098
C77	C	1.451572	0.743475	0.333236
C78	C	1.784905	1.076808	0.666569
N79	N	1.100218	0.131597	-0.243656
N80	N	1.433552	0.464931	0.089677
N81	N	1.766885	0.798264	0.423010
C82	C	1.100223	0.131600	-0.336762
C83	C	1.433556	0.464933	-0.003429
C84	C	1.766889	0.798266	0.329905
C85	C	1.100231	0.131593	-0.453567
C86	C	1.433564	0.464927	-0.120234
C87	C	1.766897	0.798260	0.213099
C88	C	1.100241	0.131583	-0.546666
C89	C	1.433575	0.464916	-0.213332
C90	C	1.766908	0.798250	0.120001
C91	C	1.100251	0.131578	-0.663478
C92	C	1.433584	0.464911	-0.330145
C93	C	1.766918	0.798244	0.003189
N94	N	1.100262	0.131567	0.243424
N95	N	1.433595	0.464900	0.576757
N96	N	1.766928	0.798234	0.910090
H97	H	1.209010	-0.365878	-0.000054
H98	H	1.542343	-0.032545	0.333279
H99	H	1.875677	0.300789	0.666613
O100	O	0.977708	-0.377143	-0.000149
O101	O	1.311041	-0.043810	0.333185
O102	O	1.644375	0.289523	0.666518
C103	C	0.985941	-0.477407	-0.000119
C104	C	1.319274	-0.144074	0.333214
C105	C	1.652607	0.189259	0.666548
H106	H	1.056044	-0.500385	-0.032516
H107	H	1.389377	-0.167052	0.300817
H108	H	1.722711	0.166282	0.634150
H109	H	0.979253	-0.504949	0.081984
H110	H	1.312586	-0.171615	0.415317
H111	H	1.645919	0.161718	0.748651
C112	C	0.823167	-0.490466	-0.027439
C113	C	1.156500	-0.157133	0.305894
C114	C	1.489833	0.176200	0.639228
C115	C	0.909266	-0.518688	-0.067239
C116	C	1.242600	-0.185354	0.266095
C117	C	1.575933	0.147979	0.599428
H118	H	0.775868	-0.515931	-0.068837
H119	H	1.109202	-0.182598	0.264496
H120	H	1.442535	0.150735	0.597829
H121	H	0.817619	-0.422917	-0.027455
H122	H	1.150952	-0.089583	0.305878
H123	H	1.484286	0.243750	0.639211
H124	H	0.817606	-0.513419	0.040979
H125	H	1.150940	-0.180086	0.374313
H126	H	1.484273	0.153247	0.707646
H127	H	0.914830	-0.495725	-0.135650
H128	H	1.248163	-0.162391	0.197683
H129	H	1.581496	0.170942	0.531016
H130	H	0.914813	-0.586235	-0.067235
H131	H	1.248146	-0.252902	0.266098
H132	H	1.581480	0.080432	0.599431
