data_functionalizedCrystal
_audit_creation_method	'MofGen! by Chris Wilmer'
_symmetry_space_group_name_H-M	'P1'
_symmetry_Int_Tables_number	1
_symmetry_cell_setting	triclinic
loop_
_symmetry_equiv_pos_as_xyz
  x,y,z
_cell_length_a	10.686220
_cell_length_b	29.839131
_cell_length_c	10.685986
_cell_angle_alpha	94.417510
_cell_angle_beta	80.968697
_cell_angle_gamma	94.423467
loop_
_atom_site_label
_atom_site_type_symbol
_atom_site_fract_x
_atom_site_fract_y
_atom_site_fract_z
Zn1	Zn	1.885380	-0.111719	0.569004
Zn2	Zn	1.901409	-0.192220	0.356750
Zn3	Zn	1.689366	-0.122458	0.373031
Zn4	Zn	1.673006	-0.192188	0.585194
O5	O	1.787290	-0.154646	0.470995
O6	O	2.065126	-0.117917	0.527258
O7	O	1.886836	-0.187474	0.181290
O8	O	1.715506	-0.058162	0.399065
O9	O	2.076902	-0.177060	0.371316
O10	O	1.859516	-0.050272	0.543045
O11	O	1.731048	-0.136220	0.193252
O12	O	1.509576	-0.136189	0.414765
O13	O	1.687623	-0.177006	0.760666
O14	O	1.497556	-0.187419	0.570640
O15	O	1.843653	-0.117886	0.748771
O16	O	1.870972	-0.255088	0.387016
O17	O	1.703166	-0.255064	0.554853
C18	C	1.457511	-0.162966	0.496227
C19	C	1.316428	-0.166536	0.507051
C20	C	1.787066	-0.271376	0.470949
C21	C	1.787082	-0.321310	0.470963
C22	C	1.874805	-0.630940	0.383709
C23	C	1.874958	-0.818607	0.383747
O24	O	1.949365	-0.842866	0.309526
N25	N	1.787546	-0.842079	0.471070
C26	C	1.700094	-0.818631	0.558396
O27	O	1.625757	-0.842901	0.632680
C28	C	1.699948	-0.630964	0.558364
C29	C	1.787358	-0.607495	0.471026
C30	C	1.962209	-0.607470	0.296380
C31	C	1.962165	-0.560557	0.296367
C32	C	1.874718	-0.537112	0.383683
C33	C	1.787315	-0.560581	0.471013
C34	C	1.612504	-0.607516	0.645695
C35	C	1.612477	-0.560596	0.645681
C36	C	1.699887	-0.537127	0.558343
C37	C	1.699824	-0.490222	0.558317
N38	N	1.787236	-0.466750	0.470993
C39	C	1.874683	-0.490195	0.383677
C40	C	1.700176	-0.917159	0.558405
C41	C	1.700210	-0.964076	0.558412
C42	C	1.875076	-0.964049	0.383764
C43	C	1.875034	-0.917132	0.383752
C44	C	1.787588	-0.893687	0.471082
C45	C	1.874584	-0.391672	0.383655
C46	C	1.874530	-0.344755	0.383647
C47	C	1.699669	-0.344786	0.558299
C48	C	1.699719	-0.391700	0.558304
C49	C	1.787187	-0.415142	0.470977
O50	O	1.625465	-0.465934	0.632509
O51	O	1.949028	-0.465916	0.309423
C52	C	1.874849	-0.677853	0.383722
C53	C	1.787445	-0.701323	0.471052
C54	C	1.699998	-0.677878	0.558369
C55	C	1.787480	-0.748239	0.471059
C56	C	1.874927	-0.771684	0.383742
C57	C	1.962340	-0.748212	0.296418
C58	C	1.962296	-0.701298	0.296405
C59	C	1.612586	-0.701350	0.645692
C60	C	1.612636	-0.748264	0.645697
C61	C	1.700083	-0.771708	0.558381
C62	C	2.118357	-0.146294	0.445665
C63	C	2.259437	-0.142735	0.434871
C64	C	1.762025	-0.146244	0.802061
C65	C	1.751259	-0.142664	0.943142
C66	C	1.787548	-0.037459	0.471065
C67	C	1.787658	0.012479	0.471096
C68	C	1.812530	-0.162981	0.141211
C69	C	1.823542	-0.166429	0.000112
H70	H	1.318579	-0.119628	0.364792
H71	H	1.893668	-0.189510	0.940955
H72	H	1.257280	-0.189647	0.577126
O73	O	1.968819	-0.319440	0.289453
H74	H	2.029642	-0.343627	0.228751
H75	H	2.033539	-0.767309	0.225319
O76	O	1.658381	-0.112077	1.021492
H77	H	1.664215	-0.113970	1.123725
H78	H	2.033345	-0.541451	0.225252
O79	O	1.968912	-0.416954	0.289461
H80	H	2.029665	-0.392747	0.228732
H81	H	2.033426	-0.626554	0.225275
H82	H	1.946211	-0.898026	0.312635
H83	H	1.946279	-0.983146	0.312667
H84	H	1.628963	-0.898074	0.629522
O85	O	1.605926	-0.989388	0.652603
H86	H	1.545127	-0.965198	0.713322
H87	H	1.541320	-0.626617	0.716809
H88	H	1.541269	-0.541510	0.716800
H89	H	1.628546	-0.410809	0.629425
H90	H	2.033474	-0.682193	0.225287
O91	O	1.605358	-0.319495	0.652481
H92	H	1.620032	-0.282928	0.637802
O93	O	1.518353	-0.773575	0.739905
H94	H	1.457553	-0.749385	0.800622
H95	H	1.541377	-0.682264	0.716798
