data_functionalizedCrystal
_audit_creation_method	'MofGen! by Chris Wilmer'
_symmetry_space_group_name_H-M	'P1'
_symmetry_Int_Tables_number	1
_symmetry_cell_setting	triclinic
loop_
_symmetry_equiv_pos_as_xyz
  x,y,z
_cell_length_a	13.897448
_cell_length_b	16.959455
_cell_length_c	16.959447
_cell_angle_alpha	90.022691
_cell_angle_beta	89.971905
_cell_angle_gamma	89.984126
loop_
_atom_site_label
_atom_site_type_symbol
_atom_site_fract_x
_atom_site_fract_y
_atom_site_fract_z
Zn1	Zn	-0.384055	-1.208425	-0.447014
Zn2	Zn	-0.545369	-1.208345	-0.314837
Zn3	Zn	-0.384085	-1.076245	-0.314840
Zn4	Zn	-0.545304	-1.076224	-0.446965
O5	O	-0.464703	-1.142310	-0.380914
O6	O	-0.405468	-1.319026	-0.429499
O7	O	-0.524014	-1.190797	-0.204227
O8	O	-0.249099	-1.093822	-0.332395
O9	O	-0.523985	-1.318966	-0.332390
O10	O	-0.249077	-1.190934	-0.429502
O11	O	-0.405519	-1.093744	-0.204229
O12	O	-0.405456	-0.965632	-0.332348
O13	O	-0.523874	-1.093785	-0.557582
O14	O	-0.523904	-0.965616	-0.429419
O15	O	-0.405405	-1.190913	-0.557618
O16	O	-0.680342	-1.190776	-0.332343
O17	O	-0.680295	-1.093707	-0.429416
C18	C	-0.464677	-0.936944	-0.380879
C19	C	-0.464689	-0.849087	-0.380883
C20	C	-0.715318	-1.142252	-0.380891
C21	C	-0.822532	-1.142300	-0.380908
C22	C	-0.402930	-0.807798	-0.330421
C23	C	-0.526453	-0.807823	-0.431352
C24	C	-0.526463	-0.725277	-0.431361
C25	C	-0.464704	-0.683988	-0.380899
C26	C	-0.402936	-0.725244	-0.330430
C27	C	-0.588224	-0.684014	-0.481835
C28	C	-0.588235	-0.601463	-0.481846
C29	C	-0.526480	-0.560172	-0.431380
C30	C	-0.464710	-0.601434	-0.380908
C31	C	-0.402952	-0.560145	-0.330446
C32	C	-0.341185	-0.601405	-0.279969
C33	C	-0.341181	-0.683953	-0.279964
C34	C	-0.526485	-0.477624	-0.431386
C35	C	-0.402957	-0.477591	-0.330455
C36	C	-1.018827	-1.142383	-0.380957
C37	C	-0.909594	-1.142334	-0.380932
C38	C	-0.213110	-1.142389	-0.380954
C39	C	-0.105896	-1.142423	-0.380971
C40	C	-0.464629	-1.142356	-0.587082
C41	C	-0.464597	-1.142376	-0.674939
C42	C	-0.464726	-0.348478	-0.380939
C43	C	-0.464726	-0.436335	-0.380924
C44	C	-0.526276	-1.192917	-0.716213
C45	C	-0.402894	-1.091848	-0.716218
C46	C	-0.402866	-1.091862	-0.798764
C47	C	-0.464545	-1.142403	-0.840038
C48	C	-0.526252	-1.192930	-0.798767
C49	C	-0.341167	-1.041329	-0.840042
C50	C	-0.341137	-1.041340	-0.922593
C51	C	-0.402812	-1.091886	-0.963869
C52	C	-0.464520	-1.142416	-0.922592
C53	C	-0.526199	-1.192957	-0.963866
C54	C	-0.587904	-1.243492	-0.922591
C55	C	-0.587926	-1.243476	-0.840043
C56	C	-0.402789	-1.091902	-1.046417
C57	C	-0.526175	-1.192971	-1.046420
C58	C	-0.464708	-1.142310	-0.175548
C59	C	-0.464468	-1.142443	-0.087692
H60	H	-0.352667	-0.443979	-0.289361
H61	H	-0.290958	-1.000176	-0.806430
O62	O	-0.586351	-1.241960	-0.676209
C63	C	-0.682481	-1.224646	-0.696341
H64	H	-0.684460	-1.194268	-0.756269
H65	H	-0.725740	-1.281679	-0.699171
H66	H	-0.714978	-1.183991	-0.649865
O67	O	-0.342810	-1.042929	-1.086597
C68	C	-0.280475	-1.087953	-1.134352
H69	H	-0.314489	-1.147850	-1.146726
H70	H	-0.267529	-1.055770	-1.192396
H71	H	-0.209003	-1.096646	-1.102552
O72	O	-0.281333	-0.561259	-0.230866
C73	C	-0.336184	-0.513455	-0.179765
H74	H	-0.412146	-0.538317	-0.174777
H75	H	-0.301214	-0.512486	-0.118981
H76	H	-0.339547	-0.450907	-0.204213
H77	H	-0.290893	-1.000192	-0.956192
O78	O	-0.648238	-0.723998	-0.530928
C79	C	-0.702767	-0.669883	-0.575468
H80	H	-0.663269	-0.611047	-0.578266
H81	H	-0.713138	-0.693767	-0.637729
H82	H	-0.775988	-0.661076	-0.546429
O83	O	-0.343015	-1.042829	-0.676005
C84	C	-0.356289	-1.053635	-0.594295
H85	H	-0.387891	-1.114624	-0.583029
H86	H	-0.284048	-1.048290	-0.562932
H87	H	-0.407660	-1.006731	-0.570851
H88	H	-0.290894	-0.717555	-0.238869
O89	O	-0.648100	-0.561353	-0.530956
C90	C	-0.593270	-0.513618	-0.582077
H91	H	-0.517302	-0.538505	-0.587065
H92	H	-0.628249	-0.512706	-0.642857
H93	H	-0.589922	-0.451044	-0.557647
H94	H	-0.638126	-1.284640	-0.956208
H95	H	-0.352644	-0.841395	-0.289322
H96	H	-0.576730	-0.841445	-0.472439
O97	O	-0.586334	-0.437506	-0.480497
C98	C	-0.531487	-0.389774	-0.531609
H99	H	-0.455522	-0.414669	-0.536588
H100	H	-0.566454	-0.388856	-0.592394
H101	H	-0.528134	-0.327202	-0.507176
O102	O	-0.586044	-1.242179	-1.086423
C103	C	-0.564951	-1.320961	-1.066290
H104	H	-0.527883	-1.322598	-1.006364
H105	H	-0.634566	-1.356388	-1.063455
H106	H	-0.515349	-1.347602	-1.112769
H107	H	-0.638164	-1.284617	-0.806429
