data_functionalizedCrystal
_audit_creation_method	'MofGen! by Chris Wilmer'
_symmetry_space_group_name_H-M	'P1'
_symmetry_Int_Tables_number	1
_symmetry_cell_setting	triclinic
loop_
_symmetry_equiv_pos_as_xyz
  x,y,z
_cell_length_a	13.032831
_cell_length_b	15.297327
_cell_length_c	13.033429
_cell_angle_alpha	91.279548
_cell_angle_beta	89.091437
_cell_angle_gamma	93.742008
loop_
_atom_site_label
_atom_site_type_symbol
_atom_site_fract_x
_atom_site_fract_y
_atom_site_fract_z
Zn1	Zn	1.405146	-0.419820	-0.853129
Zn2	Zn	1.390163	-0.584810	-0.709533
Zn3	Zn	1.253960	-0.424431	-0.660152
Zn4	Zn	1.204488	-0.548574	-0.853431
O5	O	1.313439	-0.494409	-0.769061
O6	O	1.544136	-0.454942	-0.854620
O7	O	1.386530	-0.580630	-0.561999
O8	O	1.300990	-0.302816	-0.664959
O9	O	1.533128	-0.576159	-0.749121
O10	O	1.412066	-0.299429	-0.806738
O11	O	1.286462	-0.462800	-0.525719
O12	O	1.106420	-0.427664	-0.665251
O13	O	1.216671	-0.514400	-0.994374
O14	O	1.070073	-0.518871	-0.807252
O15	O	1.364094	-0.419805	-0.994152
O16	O	1.338558	-0.701006	-0.749413
O17	O	1.202143	-0.674384	-0.855134
C18	C	1.051692	-0.469836	-0.730927
C19	C	0.939709	-0.459342	-0.714640
C20	C	1.263381	-0.719070	-0.807691
C21	C	1.242055	-0.815185	-0.824264
C22	C	0.871817	-0.499886	-0.777561
C23	C	0.756076	-0.489041	-0.760730
C24	C	1.466242	-1.141437	-0.651014
C25	C	1.486279	-1.051132	-0.635438
C26	C	1.425225	-0.992141	-0.682643
C27	C	1.344130	-1.023463	-0.745427
C28	C	1.324086	-1.113777	-0.760999
C29	C	1.283069	-0.964481	-0.792628
C30	C	1.201974	-0.995804	-0.855412
C31	C	1.181934	-1.086109	-0.870982
C32	C	1.242988	-1.145100	-0.823776
C33	C	1.303113	-0.874168	-0.777056
C34	C	1.160957	-0.846508	-0.887041
C35	C	1.140920	-0.936813	-0.902618
C36	C	1.576208	-0.519078	-0.807345
C37	C	1.688185	-0.529591	-0.823659
C38	C	1.286536	-0.462546	-1.031840
C39	C	1.275071	-0.448969	-1.143821
C40	C	1.363718	-0.268870	-0.730306
C41	C	1.385144	-0.172759	-0.713791
C42	C	1.307625	-0.487195	-1.327434
C43	C	1.319476	-0.501224	-1.211695
C44	C	1.340310	-0.526090	-0.507302
C45	C	1.352025	-0.539443	-0.395308
H46	H	0.899380	-0.542623	-0.843894
F47	F	1.213920	-0.376916	-1.179851
F48	F	1.221379	-1.241223	-0.839983
F49	F	1.095621	-1.119442	-0.937797
F50	F	0.720062	-0.433166	-0.674029
F51	F	0.724198	-0.585448	-0.910376
H52	H	0.912147	-0.416597	-0.648314
H53	H	1.074892	-0.962329	-0.953737
F54	F	1.531207	-1.204222	-0.600780
F55	F	1.389418	-0.840842	-0.710238
H56	H	1.441543	-0.918612	-0.669956
F57	F	1.572589	-1.017802	-0.568629
H58	H	1.111240	-0.798477	-0.925478
F59	F	1.246478	-0.415147	-1.363471
F60	F	1.380639	-0.573268	-1.175663
H61	H	1.398814	-0.594557	-1.367732
