data_functionalizedCrystal
_audit_creation_method	'MofGen! by Chris Wilmer'
_symmetry_space_group_name_H-M	'P1'
_symmetry_Int_Tables_number	1
_symmetry_cell_setting	triclinic
loop_
_symmetry_equiv_pos_as_xyz
  x,y,z
_cell_length_a	12.759401
_cell_length_b	21.395361
_cell_length_c	21.395355
_cell_angle_alpha	90.021511
_cell_angle_beta	89.978644
_cell_angle_gamma	89.969131
loop_
_atom_site_label
_atom_site_type_symbol
_atom_site_fract_x
_atom_site_fract_y
_atom_site_fract_z
Zn1	Zn	1.606168	0.249508	-0.354195
Zn2	Zn	2.106168	0.749508	0.145805
Zn3	Zn	1.606005	0.354268	-0.249412
Zn4	Zn	2.106005	0.854268	0.250588
Zn5	Zn	1.430461	0.249509	-0.249437
Zn6	Zn	1.930461	0.749509	0.250563
Zn7	Zn	1.430410	0.354252	-0.354158
Zn8	Zn	1.930410	0.854252	0.145842
O9	O	1.518261	0.301884	-0.301801
O10	O	2.018261	0.801884	0.198199
O11	O	1.753167	0.263412	-0.340300
O12	O	2.253167	0.763412	0.159700
O13	O	1.582672	0.340378	-0.161737
O14	O	2.082672	0.840378	0.338263
O15	O	1.453859	0.161831	-0.263360
O16	O	1.953859	0.661831	0.236640
O17	O	1.753047	0.340378	-0.263316
O18	O	2.253047	0.840378	0.236684
O19	O	1.582950	0.161831	-0.340325
O20	O	2.082950	0.661831	0.159675
O21	O	1.453701	0.263412	-0.161756
O22	O	1.953701	0.763412	0.338244
O23	O	1.283433	0.263397	-0.263324
O24	O	1.783433	0.763397	0.236676
O25	O	1.453771	0.340351	-0.441841
O26	O	1.953771	0.840351	0.058159
O27	O	1.283395	0.340351	-0.340262
O28	O	1.783395	0.840351	0.159738
O29	O	1.582900	0.263396	-0.441868
O30	O	2.082900	0.763396	0.058132
O31	O	1.582621	0.441944	-0.263281
O32	O	2.082621	0.941944	0.236719
O33	O	1.453613	0.441932	-0.340237
O34	O	1.953613	0.941932	0.159763
C35	C	1.245294	0.301873	-0.301792
C36	C	1.745294	0.801873	0.198208
C37	C	1.128517	0.301883	-0.301803
C38	C	1.628517	0.801883	0.198197
C39	C	1.518122	0.464672	-0.301766
C40	C	2.018122	0.964672	0.198234
C41	C	1.518159	0.534313	-0.301772
C42	C	2.018159	1.034313	0.198228
C43	C	1.518348	0.301872	-0.465224
C44	C	2.018348	0.801872	0.034776
C45	C	1.518385	0.301866	-0.534865
C46	C	2.018385	0.801866	-0.034865
C47	C	1.073663	0.342018	-0.341798
C48	C	1.573663	0.842018	0.158202
C49	C	0.963938	0.342025	-0.341805
C50	C	1.463938	0.842025	0.158195
C51	C	0.963933	0.261763	-0.261816
C52	C	1.463933	0.761763	0.238184
C53	C	1.073655	0.261752	-0.261813
C54	C	1.573655	0.761752	0.238187
C55	C	1.128525	0.382148	-0.381789
C56	C	1.628525	0.882148	0.118211
C57	C	1.073670	0.422287	-0.421787
C58	C	1.573670	0.922287	0.078213
C59	C	0.963946	0.422295	-0.421793
C60	C	1.463946	0.922295	0.078207
C61	C	0.909076	0.382164	-0.381802
C62	C	1.409076	0.882164	0.118198
C63	C	1.792294	0.301897	-0.301809
C64	C	2.292294	0.801897	0.198191
C65	C	1.909071	0.301902	-0.301813
C66	C	2.409071	0.801902	0.198187
C67	C	1.518429	0.138461	-0.301849
C68	C	2.018429	0.638461	0.198151
C69	C	1.518500	0.068820	-0.301870
C70	C	2.018500	0.568820	0.198130
C71	C	1.585393	0.567012	-0.261742
C72	C	2.085393	1.067012	0.238258
C73	C	1.585442	0.632447	-0.261756
C74	C	2.085442	1.132447	0.238244
C75	C	1.518238	0.665182	-0.301793
C76	C	2.018238	1.165182	0.198207
C77	C	1.450999	0.632475	-0.341831
C78	C	1.950999	1.132475	0.158169
C79	C	1.450959	0.567041	-0.341820
C80	C	1.950959	1.067041	0.158180
C81	C	1.423640	0.768897	-0.306706
C82	C	1.923640	1.268897	0.193294
C83	C	1.423678	0.834330	-0.306713
C84	C	1.923678	1.334330	0.193287
C85	C	1.518360	0.867002	-0.301830
C86	C	2.018360	1.367002	0.198170
C87	C	1.613008	0.834234	-0.296928
C88	C	2.113008	1.334234	0.203072
C89	C	1.612969	0.768800	-0.296917
C90	C	2.112969	1.268800	0.203083
C91	C	1.518274	0.736134	-0.301810
C92	C	2.018274	1.236134	0.198190
C93	C	1.585653	0.970653	-0.261813
C94	C	2.085653	1.470653	0.238187
C95	C	1.585704	1.036090	-0.261831
C96	C	2.085704	1.536090	0.238169
C97	C	1.451251	1.036117	-0.341904
C98	C	1.951251	1.536117	0.158096
C99	C	1.451210	0.970682	-0.341888
C100	C	1.951210	1.470682	0.158112
C101	C	1.518410	0.937954	-0.301840
C102	C	2.018410	1.437954	0.198160
C103	C	1.585620	0.261794	-0.567593
C104	C	2.085620	0.761794	-0.067593
C105	C	1.585618	0.261767	-0.633029
C106	C	2.085618	0.761767	-0.133029
C107	C	1.518393	0.301824	-0.665734
C108	C	2.018393	0.801824	-0.165734
C109	C	1.451146	0.341899	-0.632997
C110	C	1.951146	0.841899	-0.132997
C111	C	1.451142	0.341920	-0.567563
C112	C	1.951142	0.841920	-0.067563
C113	C	1.510050	0.358239	-0.769396
C114	C	2.010050	0.858239	-0.269396
C115	C	1.510061	0.358219	-0.834829
C116	C	2.010061	0.858219	-0.334829
C117	C	1.518400	0.301757	-0.867554
C118	C	2.018400	0.801757	-0.367554
C119	C	1.526749	0.245315	-0.834838
C120	C	2.026749	0.745315	-0.334838
C121	C	1.526745	0.245336	-0.769404
C122	C	2.026745	0.745336	-0.269404
C123	C	1.518390	0.301805	-0.736686
C124	C	2.018390	0.801805	-0.236686
C125	C	1.585637	0.261653	-0.971235
C126	C	2.085637	0.761653	-0.471235
C127	C	1.585628	0.261625	-1.036672
C128	C	2.085628	0.761625	-0.536672
C129	C	1.451161	0.341762	-1.036639
C130	C	1.951161	0.841762	-0.536639
C131	C	1.451164	0.341784	-0.971204
C132	C	1.951164	0.841784	-0.471204
C133	C	1.518408	0.301730	-0.938506
C134	C	2.018408	0.801730	-0.438506
C135	C	1.518234	0.301852	-0.139013
C136	C	2.018234	0.801852	0.360987
C137	C	1.518401	0.301681	-0.069372
C138	C	2.018401	0.801681	0.430628
H139	H	1.217867	0.382148	-0.381786
H140	H	1.717867	0.882148	0.118214
F141	F	1.501198	0.418338	-0.734574
F142	F	2.001198	0.918338	-0.234574
H143	H	0.919287	0.454972	-0.454366
H144	H	1.419287	0.954972	0.045634
H145	H	1.118352	0.454955	-0.454350
H146	H	1.618352	0.954955	0.045650
F147	F	0.792297	0.382170	-0.381816
F148	F	1.292297	0.882170	0.118184
F149	F	1.379733	1.070951	-0.384519
F150	F	1.879733	1.570951	0.115481
F151	F	1.379645	0.935880	-0.384492
F152	F	1.879645	1.435880	0.115508
H153	H	1.396282	0.659132	-0.374431
H154	H	1.896282	1.159132	0.125569
H155	H	1.396208	0.540418	-0.374419
H156	H	1.896208	1.040418	0.125581
H157	H	1.346609	0.861005	-0.310698
H158	H	1.846609	1.361005	0.189302
H159	H	1.640114	0.540367	-0.229133
H160	H	2.140114	1.040367	0.270867
H161	H	1.640377	0.228990	-1.063318
H162	H	2.140377	0.728990	-0.563318
F163	F	1.657182	0.219163	-0.532798
F164	F	2.157182	0.719163	-0.032798
H165	H	1.396407	0.374511	-0.659630
H166	H	1.896407	0.874511	-0.159630
H167	H	1.640367	0.229132	-0.659681
H168	H	2.140367	0.729132	-0.159681
F169	F	1.379606	0.384437	-0.936371
F170	F	1.879606	0.884437	-0.436371
F171	F	1.535626	0.185268	-0.734588
F172	F	2.035626	0.685268	-0.234588
F173	F	0.905533	0.219058	-0.219257
F174	F	1.405533	0.719058	0.280743
F175	F	1.132038	0.219037	-0.219246
F176	F	1.632038	0.719037	0.280754
H177	H	1.690108	0.860834	-0.292952
H178	H	2.190108	1.360834	0.207048
F179	F	1.535629	0.185220	-0.869661
F180	F	2.035629	0.685220	-0.369661
H181	H	1.640196	0.659075	-0.229158
H182	H	2.140196	1.159075	0.270842
H183	H	1.396414	0.374370	-1.063267
H184	H	1.896414	0.874370	-0.563267
F185	F	1.657198	0.219022	-0.936433
F186	F	2.157198	0.719022	-0.436433
H187	H	1.690033	0.742121	-0.292927
H188	H	2.190033	1.242121	0.207073
F189	F	1.657171	0.935820	-0.219190
F190	F	2.157171	1.435820	0.280810
F191	F	1.657275	1.070890	-0.219227
F192	F	2.157275	1.570890	0.280773
F193	F	1.322859	0.734131	-0.311904
F194	F	1.822859	1.234131	0.188096
F195	F	1.501184	0.418290	-0.869642
F196	F	2.001184	0.918290	-0.369642
F197	F	1.379578	0.384572	-0.532730
F198	F	1.879578	0.884572	-0.032730
