data_functionalizedCrystal
_audit_creation_method	'MofGen! by Chris Wilmer'
_symmetry_space_group_name_H-M	'P1'
_symmetry_Int_Tables_number	1
_symmetry_cell_setting	triclinic
loop_
_symmetry_equiv_pos_as_xyz
  x,y,z
_cell_length_a	19.188900
_cell_length_b	18.266242
_cell_length_c	17.038272
_cell_angle_alpha	89.993727
_cell_angle_beta	87.122023
_cell_angle_gamma	89.982578
loop_
_atom_site_label
_atom_site_type_symbol
_atom_site_fract_x
_atom_site_fract_y
_atom_site_fract_z
O1	O	-0.932219	0.061025	-0.097480
O2	O	-0.598885	0.394358	0.235854
O3	O	-0.265552	0.727691	0.569187
O4	O	-0.729722	0.060995	-0.110641
O5	O	-0.396389	0.394329	0.222692
O6	O	-0.063056	0.727662	0.556025
O7	O	-0.829767	0.061004	0.009751
O8	O	-0.496434	0.394337	0.343084
O9	O	-0.163100	0.727671	0.676418
O10	O	-0.832174	0.061016	-0.217872
O11	O	-0.498841	0.394349	0.115461
O12	O	-0.165507	0.727683	0.448795
O13	O	-0.829748	-0.060758	0.009757
O14	O	-0.496415	0.272575	0.343090
O15	O	-0.163082	0.605909	0.676424
O16	O	-0.729704	-0.060767	-0.110635
O17	O	-0.396370	0.272567	0.222698
O18	O	-0.063037	0.605900	0.556031
O19	O	-0.932200	-0.060737	-0.097473
O20	O	-0.598867	0.272596	0.235860
O21	O	-0.265534	0.605929	0.569193
Zn22	Zn	-0.830949	-0.080084	-0.104053
Zn23	Zn	-0.497616	0.253249	0.229280
Zn24	Zn	-0.164282	0.586582	0.562613
Zn25	Zn	-0.830973	0.080342	-0.104062
Zn26	Zn	-0.497640	0.413676	0.229272
Zn27	Zn	-0.164307	0.747009	0.562605
O28	O	-0.832155	-0.060746	-0.217866
O29	O	-0.498822	0.272587	0.115467
O30	O	-0.165489	0.605921	0.448801
C31	C	-0.703675	0.000110	-0.110216
C32	C	-0.370342	0.333444	0.223117
C33	C	-0.037009	0.666777	0.556451
C34	C	-0.626091	0.000099	-0.108948
C35	C	-0.292758	0.333432	0.224385
C36	C	0.040576	0.666766	0.557718
N37	N	-0.830937	-0.189571	-0.104047
N38	N	-0.497604	0.143762	0.229286
N39	N	-0.164271	0.477095	0.562619
C40	C	-0.589671	0.066472	-0.108343
C41	C	-0.256338	0.399806	0.224990
C42	C	0.076995	0.733139	0.558324
C43	C	-0.516773	0.066480	-0.107143
C44	C	-0.183440	0.399813	0.226190
C45	C	0.149894	0.733146	0.559524
C46	C	-0.480298	0.000110	-0.106533
C47	C	-0.146965	0.333443	0.226800
C48	C	0.186369	0.666777	0.560134
C49	C	-0.516726	-0.066272	-0.107143
C50	C	-0.183393	0.267061	0.226190
C51	C	0.149941	0.600394	0.559523
C52	C	-0.589623	-0.066278	-0.108351
C53	C	-0.256289	0.267055	0.224982
C54	C	0.077044	0.600389	0.558316
N55	N	-0.368388	-0.049287	-0.060150
N56	N	-0.035055	0.284046	0.273183
N57	N	0.298278	0.617379	0.606516
N58	N	-0.299140	-0.049278	-0.059002
N59	N	0.034193	0.284056	0.274332
N60	N	0.367527	0.617389	0.607665
C61	C	-0.260665	0.000122	-0.102896
C62	C	0.072669	0.333456	0.230437
C63	C	0.406002	0.666789	0.563771
N64	N	-0.294055	0.049523	-0.147973
N65	N	0.039279	0.382857	0.185360
N66	N	0.372612	0.716190	0.518694
N67	N	-0.363310	0.049516	-0.149118
N68	N	-0.029977	0.382849	0.184215
N69	N	0.303357	0.716182	0.517548
C70	C	-0.401254	0.000108	-0.105224
C71	C	-0.067921	0.333442	0.228109
C72	C	0.265413	0.666775	0.561443
C73	C	-0.145200	0.066508	-0.100990
C74	C	0.188133	0.399842	0.232343
C75	C	0.521466	0.733175	0.565676
C76	C	-0.072300	0.066513	-0.099795
C77	C	0.261033	0.399846	0.233538
C78	C	0.594366	0.733180	0.566871
C79	C	-0.072255	-0.066241	-0.099788
C80	C	0.261078	0.267092	0.233546
C81	C	0.594411	0.600425	0.566879
C82	C	-0.145153	-0.066244	-0.100991
C83	C	0.188180	0.267089	0.232343
C84	C	0.521513	0.600423	0.565676
C85	C	-0.181622	0.000133	-0.101588
C86	C	0.151712	0.333466	0.231745
C87	C	0.485045	0.666800	0.565078
C88	C	-0.875254	-0.227876	-0.050764
C89	C	-0.541921	0.105457	0.282570
C90	C	-0.208588	0.438790	0.615903
C91	C	-0.875259	-0.304521	-0.050760
C92	C	-0.541925	0.028812	0.282573
C93	C	-0.208592	0.362145	0.615907
C94	C	-0.830953	-0.342858	-0.104054
C95	C	-0.497620	-0.009525	0.229280
C96	C	-0.164287	0.323808	0.562613
C97	C	-0.786628	-0.304544	-0.157341
C98	C	-0.453294	0.028789	0.175992
C99	C	-0.119961	0.362123	0.509325
C100	C	-0.786620	-0.227901	-0.157338
C101	C	-0.453286	0.105433	0.175995
C102	C	-0.119953	0.438766	0.509328
N103	N	-0.826177	-0.463188	-0.173253
N104	N	-0.492843	-0.129854	0.160081
N105	N	-0.159510	0.203479	0.493414
N106	N	-0.826188	-0.535996	-0.173253
N107	N	-0.492855	-0.202662	0.160080
N108	N	-0.159522	0.130671	0.493414
C109	C	-0.830974	-0.573781	-0.104065
C110	C	-0.497640	-0.240447	0.229268
C111	C	-0.164307	0.092886	0.562602
N112	N	-0.835760	-0.536007	-0.034874
N113	N	-0.502427	-0.202673	0.298459
N114	N	-0.169094	0.130660	0.631793
N115	N	-0.835752	-0.463192	-0.034874
N116	N	-0.502419	-0.129859	0.298459
N117	N	-0.169086	0.203475	0.631792
C118	C	-0.830957	-0.425965	-0.104062
C119	C	-0.497623	-0.092632	0.229271
C120	C	-0.164290	0.240702	0.562604
C121	C	-0.875297	-0.695193	-0.050773
C122	C	-0.541964	-0.361859	0.282561
C123	C	-0.208631	-0.028526	0.615894
C124	C	-0.875297	-0.771839	-0.050768
C125	C	-0.541963	-0.438506	0.282565
C126	C	-0.208630	-0.105172	0.615899
C127	C	-0.786670	-0.771860	-0.157356
C128	C	-0.453336	-0.438527	0.175977
C129	C	-0.120003	-0.105194	0.509310
C130	C	-0.786667	-0.695216	-0.157354
C131	C	-0.453333	-0.361882	0.175979
C132	C	-0.120000	-0.028549	0.509313
C133	C	-0.830984	-0.656886	-0.104063
C134	C	-0.497651	-0.323553	0.229270
C135	C	-0.164318	0.009780	0.562603
C136	C	0.041753	0.000143	-0.097904
C137	C	0.375087	0.333477	0.235429
C138	C	0.708420	0.666810	0.568763
C139	C	-0.035830	0.000142	-0.099187
C140	C	0.297503	0.333476	0.234146
C141	C	0.630836	0.666809	0.567480
C142	C	-0.827568	0.000123	0.038875
C143	C	-0.494235	0.333456	0.372208
C144	C	-0.160902	0.666789	0.705542
C145	C	-0.821037	0.000122	0.125647
C146	C	-0.487704	0.333455	0.458980
C147	C	-0.154370	0.666789	0.792313
N148	N	-0.830990	0.189829	-0.104061
N149	N	-0.497657	0.523163	0.229272
N150	N	-0.164324	0.856496	0.562605
C151	C	-0.834354	0.000137	-0.246990
C152	C	-0.501021	0.333470	0.086343
C153	C	-0.167687	0.666803	0.419677
C154	C	-0.840885	0.000142	-0.333762
C155	C	-0.507552	0.333476	-0.000428
C156	C	-0.174219	0.666809	0.332905
C157	C	-0.881004	0.000130	0.175956
C158	C	-0.547671	0.333463	0.509289
C159	C	-0.214337	0.666797	0.842622
C160	C	-0.874863	0.000136	0.257486
C161	C	-0.541529	0.333469	0.590820
C162	C	-0.208196	0.666803	0.924153
C163	C	-0.808754	0.000129	0.288706
C164	C	-0.475421	0.333462	0.622040
C165	C	-0.142087	0.666796	0.955373
C166	C	-0.748783	0.000123	0.238391
C167	C	-0.415449	0.333456	0.571724
C168	C	-0.082116	0.666790	0.905058
C169	C	-0.754924	0.000122	0.156862
C170	C	-0.421591	0.333456	0.490195
C171	C	-0.088258	0.666789	0.823529
C172	C	-0.787056	0.000136	0.534394
C173	C	-0.453723	0.333469	0.867727
C174	C	-0.120389	0.666802	1.201061
C175	C	-0.780919	0.000134	0.615929
C176	C	-0.447585	0.333468	0.949263
C177	C	-0.114252	0.666801	1.282596
C178	C	-0.906999	0.000149	0.635019
C179	C	-0.573666	0.333482	0.968352
C180	C	-0.240333	0.666815	1.301686
C181	C	-0.913135	0.000143	0.553488
C182	C	-0.579802	0.333477	0.886821
C183	C	-0.246469	0.666810	1.220154
C184	C	-0.853164	0.000142	0.503179
C185	C	-0.519831	0.333475	0.836513
C186	C	-0.186497	0.666808	1.169846
C187	C	-0.802475	0.000133	0.372044
C188	C	-0.469142	0.333466	0.705377
C189	C	-0.135808	0.666799	1.038710
C190	C	-0.859443	0.000143	0.419844
C191	C	-0.526110	0.333476	0.753177
C192	C	-0.192777	0.666810	1.086510
H193	H	-0.619359	0.120522	-0.108830
H194	H	-0.286026	0.453855	0.224504
H195	H	0.047307	0.787188	0.557837
H196	H	-0.913269	0.000165	0.394421
H197	H	-0.579936	0.333498	0.727754
H198	H	-0.246602	0.666832	1.061088
Cl199	Cl	-0.665674	0.000123	0.277639
Cl200	Cl	-0.332340	0.333457	0.610973
Cl201	Cl	0.000993	0.666790	0.944306
Cl202	Cl	-0.191049	0.149951	-0.101749
Cl203	Cl	0.142284	0.483285	0.231584
Cl204	Cl	0.475617	0.816618	0.564917
Cl205	Cl	-0.719369	0.000128	0.411299
Cl206	Cl	-0.386036	0.333461	0.744632
Cl207	Cl	-0.052703	0.666794	1.077966
H208	H	-0.911348	-0.335715	-0.007368
H209	H	-0.578015	-0.002382	0.325965
H210	H	-0.244681	0.330952	0.659298
H211	H	-0.911339	-0.196671	-0.007369
H212	H	-0.578005	0.136662	0.325964
H213	H	-0.244672	0.469996	0.659297
H214	H	-0.487023	-0.120311	-0.106648
H215	H	-0.153690	0.213022	0.226685
H216	H	0.179643	0.546355	0.560018
Cl217	Cl	-0.730926	-0.352737	-0.224336
Cl218	Cl	-0.397593	-0.019404	0.108997
Cl219	Cl	-0.064260	0.313929	0.442330
Cl220	Cl	-0.931010	-0.819997	0.016227
Cl221	Cl	-0.597676	-0.486664	0.349561
Cl222	Cl	-0.264343	-0.153330	0.682894
Cl223	Cl	-0.190941	-0.149690	-0.101747
Cl224	Cl	0.142392	0.183643	0.231586
Cl225	Cl	0.475726	0.516977	0.564920
Cl226	Cl	-0.964116	0.000131	0.136716
Cl227	Cl	-0.630783	0.333465	0.470050
Cl228	Cl	-0.297450	0.666798	0.803383
Cl229	Cl	-0.950254	0.000144	0.320729
Cl230	Cl	-0.616920	0.333477	0.654062
Cl231	Cl	-0.283587	0.666811	0.987396
Cl232	Cl	-0.931007	-0.647006	0.016225
Cl233	Cl	-0.597673	-0.313673	0.349558
Cl234	Cl	-0.264340	0.019660	0.682892
H235	H	-0.750582	-0.664025	-0.200746
H236	H	-0.417249	-0.330692	0.132587
H237	H	-0.083916	0.002641	0.465921
H238	H	-0.487114	0.120531	-0.106651
H239	H	-0.153781	0.453864	0.226682
H240	H	0.179552	0.787197	0.560016
H241	H	-0.955824	0.000152	0.675988
H242	H	-0.622491	0.333485	1.009321
H243	H	-0.289158	0.666818	1.342655
Cl244	Cl	-0.697804	0.000121	0.655176
Cl245	Cl	-0.364471	0.333454	0.988509
Cl246	Cl	-0.031137	0.666788	1.321842
Cl247	Cl	-0.730903	-0.179742	-0.224330
Cl248	Cl	-0.397570	0.153591	0.109003
Cl249	Cl	-0.064237	0.486924	0.442337
H250	H	-0.619275	-0.120329	-0.108845
H251	H	-0.285942	0.213004	0.224489
H252	H	0.047392	0.546338	0.557822
H253	H	-0.750593	-0.803074	-0.200746
H254	H	-0.417259	-0.469740	0.132588
H255	H	-0.083926	-0.136407	0.465921
H256	H	-0.966968	0.000149	0.528075
H257	H	-0.633635	0.333482	0.861408
H258	H	-0.300301	0.666816	1.194741
Cl259	Cl	-0.026515	0.149962	-0.099041
Cl260	Cl	0.306819	0.483295	0.234293
Cl261	Cl	0.640152	0.816629	0.567626
Cl262	Cl	-0.711662	0.000135	0.471160
Cl263	Cl	-0.378329	0.333469	0.804493
Cl264	Cl	-0.044995	0.666802	1.137827
Cl265	Cl	-0.679534	0.000115	0.093616
Cl266	Cl	-0.346201	0.333448	0.426949
Cl267	Cl	-0.012867	0.666782	0.760283
Cl268	Cl	-0.026407	-0.149679	-0.099029
Cl269	Cl	0.306926	0.183654	0.234304
Cl270	Cl	0.640259	0.516988	0.567638
