data_functionalizedCrystal
_audit_creation_method	'MofGen! by Chris Wilmer'
_symmetry_space_group_name_H-M	'P1'
_symmetry_Int_Tables_number	1
_symmetry_cell_setting	triclinic
loop_
_symmetry_equiv_pos_as_xyz
  x,y,z
_cell_length_a	10.654550
_cell_length_b	14.519709
_cell_length_c	9.730223
_cell_angle_alpha	89.997715
_cell_angle_beta	89.996251
_cell_angle_gamma	84.082524
loop_
_atom_site_label
_atom_site_type_symbol
_atom_site_fract_x
_atom_site_fract_y
_atom_site_fract_z
O1	O	1.666589	0.129528	-0.114406
O2	O	1.300991	0.141869	-0.114384
O3	O	1.493483	0.001510	-0.114384
O4	O	1.474097	0.269887	-0.114407
O5	O	1.493481	0.001514	0.114196
O6	O	1.300989	0.141873	0.114195
O7	O	1.666586	0.129532	0.114174
Zn8	Zn	1.483787	0.135703	0.150477
Zn9	Zn	1.483790	0.135698	-0.150687
O10	O	1.474094	0.269890	0.114173
C11	C	1.254201	0.140965	-0.000092
C12	C	1.114784	0.138254	-0.000083
C13	C	1.034504	0.220895	-0.000110
C14	C	0.903507	0.218342	-0.000134
C15	C	0.933085	0.050500	-0.000108
C16	C	1.064078	0.053054	-0.000075
C17	C	1.017426	0.317797	-0.000131
C18	C	0.886430	0.315244	-0.000154
C19	C	1.492579	-0.032852	-0.000093
C20	C	1.489871	-0.135247	-0.000092
C21	C	1.479904	-0.510195	-0.000127
C22	C	1.482672	-0.405873	-0.000117
C23	C	1.484887	-0.322725	-0.000109
C24	C	1.487656	-0.218396	-0.000101
C25	C	1.713377	0.130436	-0.000122
C26	C	1.852794	0.133147	-0.000140
C27	C	1.474999	0.304253	-0.000120
C28	C	1.477707	0.406648	-0.000130
N29	N	1.483795	0.135705	0.356013
N30	N	1.483793	0.135688	-0.356224
C31	C	1.569052	0.073576	0.427939
C32	C	1.569048	0.073565	0.571822
C33	C	1.398527	0.197821	0.571840
C34	C	1.398525	0.197827	0.427959
C35	C	1.667505	0.001840	0.427931
C36	C	1.667502	0.001829	0.571814
H37	H	0.840476	0.344531	0.098527
C38	C	1.740801	-0.132458	0.295240
C39	C	1.639457	-0.093841	0.375197
H40	H	1.723480	-0.191526	0.262690
H41	H	1.752336	-0.093072	0.219329
H42	H	1.815313	-0.138979	0.349487
H43	H	1.564946	-0.087314	0.320947
H44	H	1.627907	-0.133236	0.451119
C45	C	0.917928	-0.093341	0.117410
C46	C	0.877343	-0.043149	-0.000108
H47	H	0.883510	-0.151154	0.117410
H48	H	1.007421	-0.103646	0.117419
H49	H	0.890356	-0.059266	0.197103
H50	H	0.904923	-0.077220	-0.079801
H51	H	0.787830	-0.032847	-0.000130
H52	H	1.763861	0.017630	0.610857
H53	H	1.637633	-0.065157	0.616437
H54	H	1.329091	0.248409	0.369398
C55	C	1.870960	0.052058	0.474831
C56	C	1.790307	0.032154	0.367662
H57	H	1.946774	0.070768	0.437619
H58	H	1.830834	0.100547	0.529770
H59	H	1.889984	-0.001651	0.529771
H60	H	1.771276	0.085865	0.312728
H61	H	1.830440	-0.016339	0.312700
C62	C	1.227669	0.216649	0.733663
C63	C	1.304808	0.266104	0.650933
H64	H	1.169817	0.258808	0.782495
H65	H	1.182419	0.177964	0.677530
H66	H	1.278460	0.179648	0.797086
H67	H	1.254018	0.303101	0.587503
H68	H	1.350062	0.304806	0.707071
H69	H	1.129439	-0.014241	-0.000033
H70	H	1.046392	0.355697	0.095532
H71	H	1.052786	0.348651	-0.098821
H72	H	0.844347	0.351754	-0.095825
