data_functionalizedCrystal
_audit_creation_method	'MofGen! by Chris Wilmer'
_symmetry_space_group_name_H-M	'P1'
_symmetry_Int_Tables_number	1
_symmetry_cell_setting	triclinic
loop_
_symmetry_equiv_pos_as_xyz
  x,y,z
_cell_length_a	11.026607
_cell_length_b	13.101039
_cell_length_c	11.026607
_cell_angle_alpha	85.898113
_cell_angle_beta	108.586017
_cell_angle_gamma	94.097295
loop_
_atom_site_label
_atom_site_type_symbol
_atom_site_fract_x
_atom_site_fract_y
_atom_site_fract_z
O1	O	1.732207	0.085212	0.528122
O2	O	2.065540	0.418546	0.861455
O3	O	2.398874	0.751879	1.194788
O4	O	1.365627	0.085214	0.467358
O5	O	1.698961	0.418547	0.800691
O6	O	2.032294	0.751881	1.134025
O7	O	1.518535	0.085209	0.314450
O8	O	1.851868	0.418543	0.647784
O9	O	2.185202	0.751876	0.981117
O10	O	1.579299	0.085217	0.681030
O11	O	1.912632	0.418550	1.014363
O12	O	2.245966	0.751883	1.347696
O13	O	1.507569	-0.085220	0.325444
O14	O	1.840903	0.248113	0.658778
O15	O	2.174236	0.581447	0.992111
O16	O	1.354661	-0.085216	0.478352
O17	O	1.687995	0.248118	0.811686
O18	O	2.021328	0.581451	1.145019
O19	O	1.721241	-0.085217	0.539116
O20	O	2.054574	0.248116	0.872449
O21	O	2.387908	0.581449	1.205783
Zn22	Zn	1.536210	-0.112276	0.510480
Zn23	Zn	1.869543	0.221057	0.843813
Zn24	Zn	2.202877	0.554391	1.177146
Zn25	Zn	1.550658	0.112272	0.495994
Zn26	Zn	1.883992	0.445606	0.829328
Zn27	Zn	2.217325	0.778939	1.162661
O28	O	1.568333	-0.085213	0.692024
O29	O	1.901667	0.248120	1.025357
O30	O	2.235000	0.581454	1.358691
C31	C	1.312485	-0.000001	0.461645
C32	C	1.645818	0.333333	0.794979
C33	C	1.979151	0.666666	1.128312
C34	C	1.170471	-0.000000	0.428228
C35	C	1.503804	0.333333	0.761562
C36	C	1.837137	0.666667	1.094895
N37	N	1.526359	-0.265524	0.520367
N38	N	1.859692	0.067809	0.853700
N39	N	2.193026	0.401143	1.187033
C40	C	1.116822	0.000002	0.520498
C41	C	1.450155	0.333336	0.853831
C42	C	1.783488	0.666669	1.187165
C43	C	0.970043	0.000003	0.485962
C44	C	1.303376	0.333336	0.819295
C45	C	1.636710	0.666670	1.152629
C46	C	1.512958	-0.474566	0.533830
C47	C	1.846292	-0.141233	0.867164
C48	C	2.179625	0.192100	1.200497
C49	C	1.573915	-0.525444	0.472639
C50	C	1.907248	-0.192110	0.805973
C51	C	2.240581	0.141223	1.139306
C52	C	1.566458	-0.641762	0.480130
C53	C	1.899792	-0.308429	0.813464
C54	C	2.233125	0.024905	1.146797
C55	C	1.520413	-0.358238	0.526340
C56	C	1.853747	-0.024904	0.859674
C57	C	2.187080	0.308429	1.193007
C58	C	1.774384	-0.000001	0.544829
C59	C	2.107717	0.333333	0.878162
C60	C	2.441051	0.666666	1.211495
C61	C	1.916398	0.000006	0.578245
C62	C	2.249732	0.333339	0.911578
C63	C	2.583065	0.666672	1.244912
C64	C	1.501842	-0.000004	0.272288
C65	C	1.835176	0.333329	0.605621
C66	C	2.168509	0.666663	0.938954
C67	C	1.468426	-0.000000	0.130273
C68	C	1.801759	0.333333	0.463607
C69	C	2.135092	0.666666	0.796940
N70	N	1.560517	0.265521	0.486099
N71	N	1.893851	0.598854	0.819433
N72	N	2.227184	0.932187	1.152766
C73	C	1.560695	0.000001	0.076624
C74	C	1.894029	0.333334	0.409957
C75	C	2.227362	0.666667	0.743291
C76	C	1.526160	0.000005	-0.070155
C77	C	1.859493	0.333338	0.263178
C78	C	2.192827	0.666671	0.596512
C79	C	1.585026	0.000003	0.734186
C80	C	1.918359	0.333336	1.067520
C81	C	2.251693	0.666669	1.400853
C82	C	1.618443	0.000006	0.876200
C83	C	1.951776	0.333339	1.209533
C84	C	2.285110	0.666672	1.542867
H85	H	1.179554	-0.000001	0.625061
H86	H	1.512888	0.333332	0.958394
H87	H	1.846221	0.666665	1.291728
Br88	Br	1.351869	0.000020	-0.174699
Br89	Br	1.685202	0.333354	0.158635
Br90	Br	2.018536	0.666687	0.491968
H91	H	1.723018	0.000082	-0.061077
H92	H	2.056352	0.333416	0.272256
H93	H	2.389685	0.666749	0.605589
H94	H	0.907315	0.000027	0.381391
H95	H	1.240649	0.333361	0.714724
H96	H	1.573982	0.666694	1.048057
H97	H	0.979125	0.000001	0.682816
H98	H	1.312459	0.333334	1.016149
H99	H	1.645792	0.666667	1.349482
H100	H	1.665258	-0.000006	0.139358
H101	H	1.998591	0.333327	0.472691
H102	H	2.331925	0.666661	0.806024
H103	H	1.631702	-0.481643	0.414627
H104	H	1.965035	-0.148310	0.747960
H105	H	2.298368	0.185024	1.081294
Br106	Br	1.416650	-0.547563	0.630521
Br107	Br	1.749984	-0.214230	0.963854
Br108	Br	2.083317	0.119103	1.297188
Br109	Br	1.294142	0.000015	0.025726
Br110	Br	1.627475	0.333349	0.359059
Br111	Br	1.960808	0.666682	0.692392
H112	H	1.107739	0.000024	0.323664
H113	H	1.441072	0.333357	0.656997
H114	H	1.774406	0.666691	0.990331
