data_functionalizedCrystal
_audit_creation_method	'MofGen! by Chris Wilmer'
_symmetry_space_group_name_H-M	'P1'
_symmetry_Int_Tables_number	1
_symmetry_cell_setting	triclinic
loop_
_symmetry_equiv_pos_as_xyz
  x,y,z
_cell_length_a	16.974800
_cell_length_b	13.339070
_cell_length_c	15.455313
_cell_angle_alpha	93.394339
_cell_angle_beta	90.973911
_cell_angle_gamma	99.476486
loop_
_atom_site_label
_atom_site_type_symbol
_atom_site_fract_x
_atom_site_fract_y
_atom_site_fract_z
O1	O	1.077288	0.129038	0.003523
O2	O	1.577288	0.629038	0.503523
O3	O	0.851236	0.144496	-0.012353
O4	O	1.351236	0.644496	0.487647
O5	O	0.938318	-0.010570	-0.006234
O6	O	1.438318	0.489430	0.493766
O7	O	0.990206	0.284104	-0.002595
O8	O	1.490206	0.784104	0.497405
O9	O	0.933331	-0.001739	0.137677
O10	O	1.433331	0.498261	0.637677
O11	O	0.846248	0.153327	0.131559
O12	O	1.346248	0.653327	0.631559
O13	O	1.072301	0.137869	0.147435
O14	O	1.572301	0.637869	0.647435
Cu15	Cu	0.958819	0.146404	0.152637
Cu16	Cu	1.458819	0.646404	0.652637
Cu17	Cu	0.964718	0.135961	-0.017555
Cu18	Cu	1.464718	0.635961	0.482445
O19	O	0.985218	0.292935	0.141316
O20	O	1.485218	0.792935	0.641316
C21	C	0.819219	0.148162	0.057530
C22	C	1.319219	0.648162	0.557530
C23	C	0.731246	0.145916	0.051351
C24	C	1.231246	0.645916	0.551351
C25	C	0.687201	0.149672	0.126897
C26	C	1.187201	0.649672	0.626897
C27	C	0.604540	0.147545	0.121094
C28	C	1.104540	0.647545	0.621094
C29	C	0.565925	0.141670	0.039745
C30	C	1.065925	0.641670	0.539745
C31	C	0.609975	0.137911	-0.035806
C32	C	1.109975	0.637911	0.464194
C33	C	0.692634	0.140030	-0.030003
C34	C	1.192634	0.640030	0.469997
C35	C	0.319000	0.134809	0.013975
C36	C	0.819000	0.634809	0.513975
C37	C	0.236335	0.132693	0.008177
C38	C	0.736335	0.632693	0.508177
C39	C	0.230906	0.142326	0.165079
C40	C	0.730906	0.642326	0.665079
C41	C	0.313567	0.144451	0.170875
C42	C	0.813567	0.644451	0.670875
C43	C	0.357610	0.140686	0.095324
C44	C	0.857610	0.640686	0.595324
N45	N	0.481432	0.139499	0.033811
N46	N	0.981432	0.639499	0.533811
N47	N	0.442100	0.142849	0.101258
N48	N	0.942100	0.642849	0.601258
C49	C	0.927060	-0.043869	0.065105
C50	C	1.427060	0.456131	0.565105
C51	C	0.900934	-0.156245	0.063267
C52	C	1.400934	0.343755	0.563267
C53	C	1.104073	-0.520460	0.077533
C54	C	1.604073	-0.020460	0.577533
C55	C	1.128622	-0.414877	0.079266
C56	C	1.628622	0.085123	0.579266
C57	C	1.071702	-0.350214	0.075266
C58	C	1.571702	0.149786	0.575266
C59	C	0.990230	-0.391144	0.069534
C60	C	1.490230	0.108856	0.569534
C61	C	0.965678	-0.496737	0.067808
C62	C	1.465678	0.003263	0.567808
C63	C	0.933307	-0.326491	0.065541
C64	C	1.433307	0.173509	0.565541
C65	C	0.851835	-0.367422	0.059809
C66	C	1.351835	0.132578	0.559809
C67	C	0.827288	-0.473005	0.058083
C68	C	1.327288	0.026995	0.558083
C69	C	0.884207	-0.537667	0.062083
C70	C	1.384207	-0.037667	0.562083
C71	C	0.957858	-0.220898	0.067266
C72	C	1.457858	0.279102	0.567266
C73	C	0.819463	-0.197176	0.057541
C74	C	1.319463	0.302824	0.557541
C75	C	0.794915	-0.302759	0.055809
C76	C	1.294915	0.197241	0.555809
C77	C	1.104318	0.134203	0.077550
C78	C	1.604318	0.634203	0.577550
C79	C	1.192291	0.136449	0.083723
C80	C	1.692291	0.636449	0.583723
C81	C	0.996477	0.326234	0.069975
C82	C	1.496477	0.826234	0.569975
C83	C	1.022602	0.438610	0.071808
C84	C	1.522602	0.938610	0.571808
N85	N	0.954676	0.153749	0.272342
N86	N	1.454676	0.653749	0.772342
N87	N	0.968865	0.128608	-0.137259
N88	N	1.468865	0.628608	0.362741
C89	C	0.991695	0.087896	0.320337
C90	C	1.491695	0.587896	0.820337
C91	C	0.988571	0.093459	0.410925
C92	C	1.488571	0.593459	0.910925
C93	C	0.948432	0.164882	0.453517
C94	C	1.448432	0.664882	0.953517
C95	C	0.911408	0.230739	0.405515
C96	C	1.411408	0.730739	0.905515
C97	C	0.914528	0.225169	0.314928
C98	C	1.414528	0.725169	0.814928
C99	C	0.934961	0.188895	0.724152
C100	C	1.434961	0.688895	1.224152
C101	C	0.931846	0.194461	0.814746
C102	C	1.431846	0.694461	1.314746
C103	C	1.009008	0.057180	0.820149
C104	C	1.509008	0.557180	1.320149
C105	C	1.012128	0.051621	0.729560
C106	C	1.512128	0.551621	1.229560
C107	C	0.975100	0.117474	0.681566
C108	C	1.475100	0.617474	1.181566
N109	N	0.945240	0.170573	0.546113
N110	N	1.445240	0.670573	1.046113
N111	N	0.978288	0.111777	0.588972
N112	N	1.478288	0.611777	1.088972
H113	H	0.568680	0.150587	0.182611
H114	H	1.068680	0.650587	0.682611
H115	H	1.150408	-0.573116	0.080797
H116	H	1.650408	-0.073116	0.580797
O117	O	0.724782	0.155242	0.205871
O118	O	1.224782	0.655242	0.705871
C119	C	0.762195	0.069156	0.213213
C120	C	1.262195	0.569156	0.713213
H121	H	0.773532	0.036095	0.145732
H122	H	1.273532	0.536095	0.645732
H123	H	0.821469	0.092381	0.250659
H124	H	1.321469	0.592381	0.750659
H125	H	0.721839	0.009382	0.249186
H126	H	1.221839	0.509382	0.749186
O127	O	0.892784	0.263707	0.856216
O128	O	1.392784	0.763707	1.356216
C129	C	0.830472	0.212530	0.904373
C130	C	1.330472	0.712530	1.404373
H131	H	0.844106	0.134267	0.918925
H132	H	1.344106	0.634267	1.418925
H133	H	0.825044	0.258644	0.967849
H134	H	1.325044	0.758644	1.467849
H135	H	0.771881	0.203294	0.865287
H136	H	1.271881	0.703294	1.365287
H137	H	1.194956	-0.381559	0.083934
H138	H	1.694956	0.118441	0.583934
O139	O	0.860225	-0.640213	0.060348
O140	O	1.360225	-0.140213	0.560348
C141	C	0.776110	-0.662476	0.054459
C142	C	1.276110	-0.162476	0.554459
H143	H	0.752017	-0.596577	0.025465
H144	H	1.252017	-0.096577	0.525465
H145	H	0.756934	-0.734949	0.011219
H146	H	1.256934	-0.234949	0.511219
H147	H	0.751363	-0.673906	0.121928
H148	H	1.251363	-0.173906	0.621928
O149	O	1.095504	-0.247635	0.077098
O150	O	1.595504	0.252365	0.577098
C151	C	1.063145	-0.201279	0.149526
C152	C	1.563145	0.298721	0.649526
H153	H	1.048403	-0.259142	0.200710
H154	H	1.548403	0.240858	0.700710
H155	H	1.108515	-0.134221	0.177799
H156	H	1.608515	0.365779	0.677799
H157	H	1.006351	-0.172987	0.128639
H158	H	1.506351	0.327013	0.628639
H159	H	0.345001	0.149230	0.237118
H160	H	0.845001	0.649230	0.737118
O161	O	0.188066	0.145790	0.238438
O162	O	0.688066	0.645790	0.738438
C163	C	0.129857	0.057276	0.239048
C164	C	0.629857	0.557276	0.739048
H165	H	0.149165	-0.006033	0.195775
H166	H	0.649165	0.493967	0.695775
H167	H	0.123087	0.032107	0.308124
H168	H	0.623087	0.532107	0.808124
H169	H	0.070251	0.074179	0.213738
H170	H	0.570251	0.574179	0.713738
H171	H	0.760947	-0.506326	0.053422
H172	H	1.260947	-0.006326	0.553422
H173	H	0.728579	-0.336099	0.051142
H174	H	1.228579	0.163901	0.551142
O175	O	0.198925	0.127122	-0.070896
O176	O	0.698925	0.627122	0.429104
C177	C	0.230984	0.212309	-0.116480
C178	C	0.730984	0.712309	0.383520
H179	H	0.293640	0.244408	-0.089732
H180	H	0.793640	0.744408	0.410268
H181	H	0.233987	0.188280	-0.188211
H182	H	0.733987	0.688280	0.311789
H183	H	0.191250	0.273123	-0.108360
H184	H	0.691250	0.773123	0.391640
H185	H	0.578527	0.133120	-0.102043
H186	H	1.078527	0.633120	0.397957
H187	H	0.884382	0.278793	0.275851
H188	H	1.384382	0.778793	0.775851
H189	H	0.773114	-0.144526	0.054288
H190	H	1.273114	0.355474	0.554288
O191	O	0.361875	0.131303	-0.059352
O192	O	0.861875	0.631303	0.440648
C193	C	0.420059	0.219838	-0.059989
C194	C	0.920059	0.719838	0.440011
H195	H	0.433500	0.253533	0.009231
H196	H	0.933500	0.753533	0.509231
H197	H	0.477032	0.199592	-0.089282
H198	H	0.977032	0.699592	0.410718
H199	H	0.396696	0.277981	-0.100431
H200	H	0.896696	0.777981	0.399569
H201	H	1.024384	0.029740	0.285665
H202	H	1.524384	0.529740	0.785665
H203	H	0.728495	0.136973	-0.091520
H204	H	1.228495	0.636973	0.408480
H205	H	1.018714	0.039836	0.450002
H206	H	1.518714	0.539836	0.950002
H207	H	0.904814	0.242517	0.685082
H208	H	1.404814	0.742517	1.185082
O209	O	1.051119	-0.017852	0.688324
O210	O	1.551119	0.482148	1.188324
C211	C	1.083141	-0.074768	0.750113
C212	C	1.583141	0.425232	1.250113
H213	H	1.048335	-0.072060	0.812407
H214	H	1.548335	0.427940	1.312407
H215	H	1.078401	-0.157173	0.723548
H216	H	1.578401	0.342827	1.223548
H217	H	1.148579	-0.041097	0.764347
H218	H	1.648579	0.458903	1.264347
O219	O	0.872351	0.299985	0.446979
O220	O	1.372351	0.799985	0.946979
C221	C	0.810032	0.248818	0.495134
C222	C	1.310032	0.748818	0.995134
H223	H	0.823660	0.170555	0.509694
H224	H	1.323660	0.670555	1.009694
H225	H	0.804602	0.294940	0.558606
H226	H	1.304602	0.794940	1.058606
H227	H	0.751445	0.239585	0.456041
H228	H	1.251445	0.739585	0.956041
O229	O	1.037009	-0.181202	0.072674
O230	O	1.537009	0.318798	0.572674
C231	C	1.075691	-0.218816	0.000687
C232	C	1.575691	0.281184	0.500687
H233	H	1.030261	-0.244093	-0.054725
H234	H	1.530261	0.255907	0.445275
H235	H	1.124092	-0.156296	-0.020993
H236	H	1.624092	0.343704	0.479007
H237	H	1.104000	-0.286471	0.019568
H238	H	1.604000	0.213529	0.519568
H239	H	1.039152	0.003565	0.859234
H240	H	1.539152	0.503565	1.359234
