data_functionalizedCrystal
_audit_creation_method	'MofGen! by Chris Wilmer'
_symmetry_space_group_name_H-M	'P1'
_symmetry_Int_Tables_number	1
_symmetry_cell_setting	triclinic
loop_
_symmetry_equiv_pos_as_xyz
  x,y,z
_cell_length_a	13.032831
_cell_length_b	21.295417
_cell_length_c	13.032268
_cell_angle_alpha	82.858212
_cell_angle_beta	89.113023
_cell_angle_gamma	82.833712
loop_
_atom_site_label
_atom_site_type_symbol
_atom_site_fract_x
_atom_site_fract_y
_atom_site_fract_z
Zn1	Zn	1.498345	-0.425104	0.780742
Zn2	Zn	1.520057	-0.518889	0.608741
Zn3	Zn	1.348211	-0.398808	0.586989
Zn4	Zn	1.326306	-0.515485	0.758867
O5	O	1.423230	-0.464571	0.683835
O6	O	1.645141	-0.449974	0.776184
O7	O	1.515515	-0.493379	0.461941
O8	O	1.368207	-0.314217	0.612741
O9	O	1.661094	-0.518877	0.649816
O10	O	1.478510	-0.333536	0.755091
O11	O	1.389261	-0.405156	0.445960
O12	O	1.201389	-0.401856	0.591531
O13	O	1.330873	-0.513077	0.905684
O14	O	1.185295	-0.487579	0.717809
O15	O	1.457269	-0.446673	0.921755
O16	O	1.494275	-0.606517	0.628605
O17	O	1.351927	-0.604016	0.738902
C18	C	1.156026	-0.441495	0.649936
C19	C	1.041712	-0.431640	0.635459
C20	C	0.982824	-0.469715	0.691391
C21	C	0.864674	-0.459530	0.676429
C22	C	1.423105	-0.628108	0.683766
C23	C	1.423142	-0.698080	0.683783
C24	C	1.480533	-0.740949	0.757947
C25	C	1.480566	-0.806697	0.757977
C26	C	1.423221	-0.829572	0.683826
C27	C	1.365818	-0.786694	0.609656
C28	C	1.365778	-0.720948	0.609635
N29	N	1.426890	-0.926160	0.592840
N30	N	1.426933	-0.988616	0.592864
C31	C	1.423335	-1.027660	0.683888
N32	N	1.419712	-1.001890	0.774891
N33	N	1.419674	-0.939428	0.774866
C34	C	1.423257	-0.900862	0.683842
C35	C	1.480765	-1.141821	0.758090
C36	C	1.480790	-1.207569	0.758121
C37	C	1.366049	-1.187565	0.609792
C38	C	1.366017	-1.121818	0.609769
C39	C	1.423381	-1.098950	0.683918
C40	C	1.691477	-0.487738	0.717866
C41	C	1.805788	-0.497610	0.732369
C42	C	1.389206	-0.482429	0.952078
C43	C	1.374707	-0.490038	1.066387
C44	C	1.423380	-0.300400	0.683930
C45	C	1.423444	-0.230440	0.683970
C46	C	1.457181	-0.446743	0.416643
C47	C	1.471879	-0.438974	0.302359
C48	C	1.430781	-0.460576	1.125302
C49	C	1.415797	-0.468440	1.243447
H50	H	0.827625	-0.419387	0.617467
N51	N	1.029300	-0.520077	0.765345
N52	N	1.018239	-0.576668	0.756841
H53	H	1.051062	-0.612239	0.809072
N54	N	1.504912	-0.421625	1.078845
N55	N	1.516976	-0.415289	0.982937
H56	H	1.569332	-0.387778	0.950127
N57	N	1.341645	-0.507382	1.289897
N58	N	1.329575	-0.513713	1.385804
H59	H	1.277206	-0.541214	1.418612
H60	H	1.530978	-0.407922	1.265337
H61	H	1.527290	-0.841607	0.818381
H62	H	1.319289	-1.086912	0.549374
N63	N	1.300560	-0.528978	1.112842
N64	N	1.288489	-0.535309	1.208749
H65	H	1.236120	-0.562810	1.241557
H66	H	1.004658	-0.391500	0.576501
H67	H	0.842834	-0.537748	0.791341
H68	H	1.319351	-1.206189	0.549422
N69	N	1.539131	-0.717602	0.833693
N70	N	1.590369	-0.755891	0.899907
H71	H	1.631754	-0.739402	0.953405
H72	H	1.319125	-0.805323	0.549284
H73	H	1.319043	-0.686042	0.549241
N74	N	1.539361	-1.118467	0.833834
N75	N	1.590594	-1.156754	0.900055
H76	H	1.631980	-1.140263	0.953550
H77	H	1.527524	-1.242473	0.818518
