data_functionalizedCrystal
_audit_creation_method	'MofGen! by Chris Wilmer'
_symmetry_space_group_name_H-M	'P1'
_symmetry_Int_Tables_number	1
_symmetry_cell_setting	triclinic
loop_
_symmetry_equiv_pos_as_xyz
  x,y,z
_cell_length_a	11.792241
_cell_length_b	8.597213
_cell_length_c	7.088929
_cell_angle_alpha	88.663806
_cell_angle_beta	83.733449
_cell_angle_gamma	84.765068
loop_
_atom_site_label
_atom_site_type_symbol
_atom_site_fract_x
_atom_site_fract_y
_atom_site_fract_z
O1	O	0.205124	2.034151	-0.494056
O2	O	0.705124	2.534151	0.005944
O3	O	0.212771	1.584775	-0.420039
O4	O	0.712771	2.084775	0.079961
O5	O	0.043980	1.820370	-0.458830
O6	O	0.543980	2.320370	0.041170
O7	O	0.373916	1.798557	-0.455264
O8	O	0.873916	2.298557	0.044736
O9	O	0.021370	1.851854	-0.146039
O10	O	0.521370	2.351854	0.353961
O11	O	0.190161	1.616260	-0.107247
O12	O	0.690161	2.116260	0.392753
O13	O	0.182514	2.065635	-0.181265
O14	O	0.682514	2.565635	0.318735
Cu15	Cu	0.184273	1.843822	-0.115696
Cu16	Cu	0.684273	2.343822	0.384304
Cu17	Cu	0.211012	1.806588	-0.485608
Cu18	Cu	0.711012	2.306588	0.014392
O19	O	0.351306	1.830041	-0.142473
O20	O	0.851306	2.330041	0.357527
C21	C	0.199386	1.542988	-0.254167
C22	C	0.699386	2.042988	0.245833
C23	C	0.193172	1.371566	-0.225932
C24	C	0.693172	1.871566	0.274068
C25	C	-0.009642	1.834742	-0.302210
C26	C	0.490358	2.334742	0.197790
C27	C	-0.135732	1.830641	-0.301536
C28	C	0.364268	2.330641	0.198464
C29	C	-0.366582	1.823097	-0.300326
C30	C	0.133418	2.323097	0.199674
C31	C	-0.238120	1.827289	-0.300999
C32	C	0.261880	2.327289	0.199001
C33	C	0.404928	1.815669	-0.299098
C34	C	0.904928	2.315669	0.200902
C35	C	0.531018	1.819768	-0.299784
C36	C	1.031018	2.319768	0.200216
C37	C	0.195900	2.107423	-0.347141
C38	C	0.695900	2.607423	0.152859
C39	C	0.202114	2.278843	-0.375388
C40	C	0.702114	2.778843	0.124612
N41	N	0.165466	1.870022	0.144478
N42	N	0.665466	2.370022	0.644478
N43	N	0.229811	1.780401	-0.745784
N44	N	0.729811	2.280401	-0.245784
H45	H	0.214532	1.330599	-0.524939
H46	H	0.714532	1.830599	-0.024939
O47	O	0.177190	1.302944	-0.027801
O48	O	0.677190	1.802944	0.472199
H49	H	0.174883	1.174516	-0.035963
H50	H	0.674883	1.674516	0.464037
O51	O	0.318117	1.657332	0.166350
O52	O	0.818117	2.157332	0.666350
H53	H	0.316542	1.659479	0.010041
H54	H	0.816542	2.159479	0.510041
O55	O	0.077141	1.993082	0.232347
O56	O	0.577141	2.493082	0.732347
H57	H	0.014060	1.936501	0.332879
H58	H	0.514060	2.436501	0.832879
