data_functionalizedCrystal
_audit_creation_method	'MofGen! by Chris Wilmer'
_symmetry_space_group_name_H-M	'P1'
_symmetry_Int_Tables_number	1
_symmetry_cell_setting	triclinic
loop_
_symmetry_equiv_pos_as_xyz
  x,y,z
_cell_length_a	20.919320
_cell_length_b	20.919319
_cell_length_c	17.052862
_cell_angle_alpha	67.976616
_cell_angle_beta	89.327624
_cell_angle_gamma	65.126533
loop_
_atom_site_label
_atom_site_type_symbol
_atom_site_fract_x
_atom_site_fract_y
_atom_site_fract_z
Zr1	Zr	0.638171	0.713784	-0.148216
O2	O	0.556793	0.813451	-0.259982
O3	O	0.659166	0.591323	-0.109928
O4	O	0.680669	0.689570	-0.260022
O5	O	0.522824	0.742252	0.003928
O6	O	0.782879	0.696398	-0.264633
O7	O	0.535290	0.715204	-0.109888
O8	O	0.744414	0.520652	0.003857
O9	O	0.561288	0.917998	-0.264561
O10	O	0.749172	0.655231	-0.101904
O11	O	0.663590	0.670321	-0.013523
O12	O	0.688907	0.785994	-0.190239
O13	O	0.603325	0.801084	-0.101857
Zr14	Zr	0.781301	0.767813	0.025954
Zr15	Zr	0.801184	0.724674	-0.155571
Zr16	Zr	0.618288	0.756923	0.033308
Zr17	Zr	0.645340	0.880524	-0.155520
Zr18	Zr	0.774132	0.601072	0.033258
O19	O	0.760306	0.890273	-0.012334
O20	O	0.788577	0.828935	-0.270439
O21	O	0.528522	0.874789	-0.001877
O22	O	0.862679	0.668145	0.137719
O23	O	0.890950	0.606807	-0.120385
O24	O	0.630895	0.652661	0.148176
O25	O	0.896648	0.739344	-0.126191
O26	O	0.738803	0.792026	0.137759
O27	O	0.636593	0.785198	0.142370
O28	O	0.884181	0.766392	-0.012374
O29	O	0.690862	0.926654	-0.270407
O30	O	0.728610	0.554942	0.148144
O31	O	0.858184	0.563598	0.142299
O32	O	0.873988	0.529309	-0.001989
O33	O	0.545484	0.952288	-0.120274
O34	O	0.675058	0.960944	-0.126119
O35	O	0.730565	0.695602	0.067976
O36	O	0.816147	0.680512	-0.020406
O37	O	0.755882	0.811275	-0.108740
O38	O	0.670299	0.826366	-0.020358
C39	C	0.700768	0.532231	-0.051995
C40	C	0.697725	0.461445	-0.048895
C41	C	0.678488	0.061300	-0.028716
C42	C	0.681315	0.127840	-0.031681
C43	C	0.727399	0.153233	-0.079304
C44	C	0.770663	0.112077	-0.123957
C45	C	0.767838	0.045536	-0.120987
C46	C	0.738165	0.353748	-0.090577
C47	C	0.740984	0.420296	-0.093547
C48	C	0.651637	0.436053	-0.001269
C49	C	0.648814	0.369512	0.001693
C50	C	0.692080	0.328361	-0.042956
C51	C	0.730288	0.221248	-0.082338
C52	C	0.689194	0.260343	-0.039916
C53	C	0.505831	0.727176	-0.051932
C54	C	0.436628	0.722553	-0.048810
C55	C	0.046815	0.692960	-0.028814
C56	C	0.111837	0.697308	-0.031757
C57	C	0.112886	0.767742	-0.079333
C58	C	0.048908	0.833829	-0.123977
C59	C	-0.016112	0.829479	-0.121039
C60	C	0.307630	0.784291	-0.090516
C61	C	0.372657	0.788637	-0.093448
C62	C	0.435581	0.652114	-0.001229
C63	C	0.370557	0.647771	0.001709
C64	C	0.306585	0.713858	-0.042938
C65	C	0.179348	0.772189	-0.082340
C66	C	0.240126	0.709409	-0.039936
C67	C	0.913641	0.754420	-0.070331
C68	C	0.982844	0.759043	-0.073453
C69	C	0.734607	0.686838	-0.288191
C70	C	0.743047	0.668524	-0.365253
C71	C	0.718703	0.949365	-0.070267
C72	C	0.721747	1.020151	-0.073368
C73	C	0.640998	0.889936	-0.766920
C74	C	0.633063	0.907145	-0.694518
C75	C	0.660559	0.847491	-0.612199
C76	C	0.695990	0.770626	-0.602288
C77	C	0.703921	0.753415	-0.674696
C78	C	0.723482	0.710970	-0.519975
C79	C	0.758913	0.634105	-0.510064
C80	C	0.766843	0.616898	-0.582467
C81	C	0.739347	0.676551	-0.664786
C82	C	0.715551	0.728181	-0.447566
C83	C	0.778474	0.591660	-0.355342
C84	C	0.786408	0.574452	-0.427744
C85	C	0.684865	0.794758	0.165928
C86	C	0.676424	0.813072	0.242990
C87	C	0.904673	0.545853	-0.061194
C88	C	0.970833	0.479690	-0.061216
C89	C	0.675898	0.586191	0.175064
C90	C	0.664414	0.533719	0.255227
C91	C	0.879803	0.599813	0.165865
C92	C	0.937522	0.551964	0.242906
C93	C	0.539669	0.881784	-0.288128
C94	C	0.481950	0.929633	-0.365168
C95	C	0.514798	0.935744	-0.061068
C96	C	0.448638	1.001906	-0.061047
C97	C	0.743574	0.895405	-0.297327
C98	C	0.755058	0.947877	-0.377490
C99	C	0.966944	0.435421	-0.103775
C100	C	1.029104	0.373258	-0.103812
C101	C	1.095153	0.355363	-0.061285
C102	C	1.099041	0.399639	-0.018724
C103	C	1.036882	0.461804	-0.018693
C104	C	0.693979	0.522276	0.335421
C105	C	0.683185	0.472983	0.410749
C106	C	0.642830	0.435130	0.405881
C107	C	0.613260	0.446578	0.325678
C108	C	0.624050	0.495874	0.250352
C109	C	1.009307	0.521617	0.232950
C110	C	1.063548	0.476665	0.305330
C111	C	1.046001	0.462057	0.387665
C112	C	0.974209	0.492410	0.397619
C113	C	0.919970	0.537365	0.325240
C114	C	0.410165	0.959988	-0.355213
C115	C	0.355925	1.004960	-0.427594
C116	C	0.373472	1.019571	-0.509929
C117	C	0.445264	0.989214	-0.519883
C118	C	0.499502	0.944248	-0.447503
C119	C	0.452529	1.046181	-0.018495
C120	C	0.390372	1.108357	-0.018479
C121	C	0.324324	1.126253	-0.061009
C122	C	0.320435	1.081975	-0.103566
C123	C	0.382592	1.019804	-0.103587
C124	C	0.795418	0.985716	-0.372594
C125	C	0.806223	1.035013	-0.447908
C126	C	0.776662	1.046475	-0.528118
C127	C	0.736301	1.008630	-0.533012
C128	C	0.725501	0.959329	-0.457698
H129	H	0.646093	0.161337	0.004685
H130	H	0.599975	0.505181	0.185057
N131	N	0.814487	0.001153	-0.169154
H132	H	0.847249	-0.053255	-0.127352
H133	H	0.844063	0.027395	-0.199778
N134	N	0.278495	1.037692	-0.416855
H135	H	0.270091	1.072469	-0.385789
H136	H	0.266774	0.994094	-0.382403
N137	N	0.523764	1.026886	0.027373
H138	H	0.521878	1.014446	0.090333
H139	H	0.534544	1.072532	0.001542
N140	N	0.737509	0.563094	0.340692
H141	H	0.714300	0.596897	0.372406
H142	H	0.739855	0.596020	0.280785
N143	N	0.314968	1.068071	-0.587993
H144	H	0.266831	1.085078	-0.569185
H145	H	0.317815	1.036603	-0.621798
H146	H	0.393552	1.144400	0.016179
H147	H	0.611288	0.348842	0.040474
N148	N	0.464184	1.004977	-0.608689
H149	H	0.418926	1.038066	-0.653024
H150	H	0.491479	0.954510	-0.614476
N151	N	0.576928	0.911491	-0.458240
H152	H	0.603122	0.931643	-0.431982
H153	H	0.579749	0.927576	-0.521395
N154	N	0.895712	0.454711	-0.149648
H155	H	0.862008	0.450872	-0.107178
H156	H	0.902756	0.417217	-0.176612
N157	N	0.827316	0.973360	-0.286093
H158	H	0.861005	0.916880	-0.252962
H159	H	0.787755	0.990149	-0.252996
N160	N	0.790689	0.447686	-0.144918
H161	H	0.761904	0.501388	-0.190838
H162	H	0.817657	0.411467	-0.172696
H163	H	0.045969	0.635606	0.009931
N164	N	1.028242	0.537359	0.144152
H165	H	1.081951	0.511309	0.148841
H166	H	1.009368	0.594839	0.110387
H167	H	0.487672	0.598310	0.035119
H168	H	0.273717	1.176879	-0.060986
H169	H	0.266650	1.096556	-0.138193
N170	N	0.378390	0.972053	-0.149484
H171	H	0.327116	0.992829	-0.176419
H172	H	0.396296	0.916649	-0.106988
N173	N	0.652014	0.866048	-0.534106
H174	H	0.624166	0.840833	-0.496823
H175	H	0.625420	0.923800	-0.552945
N176	N	0.849757	1.075824	-0.442619
H177	H	0.866836	1.061085	-0.380376
H178	H	0.819153	1.133468	-0.472006
H179	H	0.795687	0.554308	-0.574391
H180	H	0.785461	1.086620	-0.589437
H181	H	0.692634	0.928525	-0.461697
H182	H	0.049767	0.891177	-0.162719
H183	H	0.712236	1.017970	-0.598329
N184	N	0.180836	0.626030	0.016378
H185	H	0.170305	0.580752	0.046964
H186	H	0.204522	0.634988	0.059812
H187	H	0.373501	0.846001	-0.132170
N188	N	1.140976	0.443932	0.294584
H189	H	1.143855	0.460003	0.231441
H190	H	1.163743	0.385764	0.324325
N191	N	0.594857	0.990043	-0.705205
H192	H	0.578646	1.025222	-0.768339
H193	H	0.628495	1.002710	-0.678900
N194	N	0.677345	0.811083	-0.458266
H195	H	0.710946	0.823825	-0.432012
H196	H	0.634356	0.818657	-0.428563
N197	N	0.808140	0.527312	-0.266563
H198	H	0.784981	0.491915	-0.257271
H199	H	0.797740	0.549937	-0.222254
H200	H	1.145761	0.304743	-0.061316
N201	N	0.628780	0.033916	0.022646
H202	H	0.601807	0.070081	0.050485
H203	H	0.657607	-0.019799	0.068516
N204	N	1.024891	0.325511	-0.149712
H205	H	1.042771	0.270093	-0.107264
H206	H	1.055458	0.328230	-0.195991
N207	N	0.604985	0.480430	0.046900
H208	H	0.575365	0.454245	0.077521
H209	H	0.572266	0.534833	0.005054
H210	H	0.773393	0.320249	-0.126935
N211	N	1.104500	0.413565	0.465734
H212	H	1.136788	0.438812	0.463336
H213	H	1.133364	0.360487	0.466719
N214	N	0.820364	0.139465	-0.175329
H215	H	0.855469	0.140279	-0.135997
H216	H	0.791527	0.193155	-0.221241
N217	N	0.639496	0.232952	0.011450
H218	H	0.604395	0.232142	-0.027891
H219	H	0.612564	0.269133	0.039284
H220	H	0.767809	0.241930	-0.121116
N221	N	0.391221	0.944245	-0.266419
H222	H	0.413419	0.965107	-0.236044
H223	H	0.410035	0.886769	-0.232679
N224	N	1.170281	0.380335	0.027142
H225	H	1.209062	0.334234	0.020662
H226	H	1.168334	0.367918	0.090085
H227	H	0.959932	0.480509	0.464666
H228	H	0.815256	0.511867	-0.419686
N229	N	0.369427	0.571803	0.053021
H230	H	0.389830	0.552849	0.115310
H231	H	0.399156	0.532641	0.029953
N232	N	0.238638	0.855569	-0.138660
H233	H	0.249171	0.900847	-0.169239
H234	H	0.205623	0.866866	-0.096802
H235	H	0.745807	0.662544	-0.723746
N236	N	-0.085115	0.900751	-0.169180
H237	H	-0.082886	0.921220	-0.232493
H238	H	-0.092190	0.941431	-0.147138
N239	N	0.238988	0.633448	0.011376
H240	H	0.259385	0.614494	0.073667
H241	H	0.268716	0.594280	-0.011685
H242	H	0.618611	0.938497	-0.833946
N243	N	0.180488	0.848153	-0.133641
H244	H	0.150753	0.887368	-0.110639
H245	H	0.160105	0.867049	-0.195921
N246	N	1.041082	0.509547	0.027217
H247	H	1.092357	0.488771	0.054152
H248	H	1.010465	0.506871	0.073444
N249	N	0.842544	0.570090	0.335984
H250	H	0.839666	0.554009	0.399127
H251	H	0.816414	0.549910	0.309685
H252	H	0.634049	0.394993	0.467223
N253	N	0.715084	0.460641	0.497246
H254	H	0.742292	0.492095	0.488893
H255	H	0.748739	0.404148	0.530342
N256	N	0.569739	0.405744	0.320434
H257	H	0.567399	0.372777	0.380325
H258	H	0.592975	0.371979	0.288688
