data_functionalizedCrystal
_audit_creation_method	'MofGen! by Chris Wilmer'
_symmetry_space_group_name_H-M	'P1'
_symmetry_Int_Tables_number	1
_symmetry_cell_setting	triclinic
loop_
_symmetry_equiv_pos_as_xyz
  x,y,z
_cell_length_a	18.050583
_cell_length_b	13.032831
_cell_length_c	13.032721
_cell_angle_alpha	89.097115
_cell_angle_beta	82.849899
_cell_angle_gamma	82.810084
loop_
_atom_site_label
_atom_site_type_symbol
_atom_site_fract_x
_atom_site_fract_y
_atom_site_fract_z
Zn1	Zn	-0.611859	1.520239	0.609352
Zn2	Zn	-0.501211	1.498281	0.781335
Zn3	Zn	-0.470220	1.348258	0.587526
Zn4	Zn	-0.607894	1.326387	0.759399
O5	O	-0.547796	1.423291	0.684403
O6	O	-0.611811	1.661239	0.650481
O7	O	-0.393176	1.478344	0.755671
O8	O	-0.477698	1.389414	0.446516
O9	O	-0.530518	1.645107	0.776836
O10	O	-0.581760	1.515767	0.462552
O11	O	-0.370407	1.368122	0.613280
O12	O	-0.473853	1.201443	0.592010
O13	O	-0.712344	1.352138	0.739450
O14	O	-0.575002	1.185375	0.718285
O15	O	-0.715257	1.494560	0.629211
O16	O	-0.526673	1.457137	0.922330
O17	O	-0.605053	1.330847	0.906214
C18	C	-0.520635	1.156094	0.650400
C19	C	-0.509035	1.041783	0.635878
C20	C	-0.568815	1.389264	0.951589
C21	C	-0.577841	1.374801	1.065904
C22	C	-0.741500	1.423359	0.684318
C23	C	-0.824045	1.423387	0.684282
C24	C	-1.074456	1.500910	0.624273
C25	C	-1.034986	1.514098	0.721304
C26	C	-1.121167	1.423462	0.684225
C27	C	-1.013560	1.410284	0.587234
C28	C	-0.975181	1.423429	0.684248
C29	C	-1.082794	1.436693	0.781311
C30	C	-1.061362	1.332844	0.647173
C31	C	-1.021916	1.345988	0.744264
C32	C	-1.205266	1.423484	0.684211
C33	C	-0.891085	1.423405	0.684274
C34	C	-0.354846	1.423293	0.684421
C35	C	-0.272298	1.423500	0.684193
C36	C	-0.553850	0.982884	0.691982
C37	C	-0.541862	0.864737	0.676975
C38	C	-0.575063	1.691532	0.718540
C39	C	-0.586683	1.805840	0.733087
C40	C	-0.526714	1.457479	0.416178
C41	C	-0.517730	1.472048	0.301876
C42	C	-0.543124	1.430894	1.124815
C43	C	-0.552452	1.415947	1.242966
H44	H	-1.097486	1.566454	0.573641
H45	H	-0.506498	1.489988	1.087784
O46	O	-1.020733	1.605583	0.758548
C47	C	-1.047535	1.687051	0.695125
H48	H	-1.051362	1.655698	0.615039
H49	H	-1.105666	1.723088	0.730780
C50	C	-0.988415	1.808221	0.784224
C51	C	-0.993109	1.769714	0.685859
H52	H	-0.954845	1.859214	0.778511
H53	H	-0.970360	1.753336	0.826957
H54	H	-1.036861	1.838244	0.813926
H55	H	-0.944665	1.739681	0.656164
H56	H	-1.011155	1.824597	0.643121
O57	O	-1.118500	1.450235	0.879248
C58	C	-1.104831	1.545475	0.918264
H59	H	-1.050930	1.569455	0.874709
H60	H	-1.154013	1.607016	0.907601
C61	C	-1.162478	1.504532	1.087619
C62	C	-1.096272	1.533980	1.034129
H63	H	-1.157201	1.497444	1.159091
H64	H	-1.171689	1.440368	1.061333
H65	H	-1.203456	1.555821	1.078722
H66	H	-1.055297	1.482685	1.043016
H67	H	-1.087053	1.598135	1.060420
H68	H	-0.461795	1.004741	0.576730
H69	H	-0.614473	1.315716	1.102938
H70	H	-1.073344	1.256253	0.615794
O71	O	-0.994672	1.267926	0.804989
C72	C	-1.030467	1.282191	0.907138
H73	H	-1.053088	1.367269	0.919946
H74	H	-1.079001	1.233410	0.920331
C75	C	-0.945668	1.144249	0.967862
C76	C	-0.973445	1.248744	0.983596
H77	H	-0.910496	1.123613	1.015026
H78	H	-0.921554	1.134635	0.899042
H79	H	-0.986119	1.103611	0.978855
H80	H	-0.932996	1.289381	0.972590
H81	H	-0.997552	1.258364	1.052416
H82	H	-0.983478	1.399153	0.505201
H83	H	-0.601095	1.019926	0.751122
O84	O	-0.643143	0.849980	0.803537
C85	C	-0.712794	0.826665	0.777904
H86	H	-0.707195	0.807522	0.692023
H87	H	-0.730206	0.757377	0.825218
C88	C	-0.779794	0.944164	0.907486
C89	C	-0.772919	0.920661	0.802002
H90	H	-0.816884	1.002142	0.922354
H91	H	-0.732870	0.959869	0.924758
H92	H	-0.794301	0.886417	0.946901
H93	H	-0.758403	0.978402	0.762589
H94	H	-0.819843	0.904967	0.784723
H95	H	-0.494618	0.827700	0.617823
O96	O	-0.596101	1.345463	1.287296
C97	C	-0.595710	1.346243	1.395396
H98	H	-0.542989	1.378140	1.414283
H99	H	-0.647738	1.397157	1.432753
C100	C	-0.660968	1.196058	1.414303
C101	C	-0.596213	1.235225	1.437501
H102	H	-0.661282	1.127578	1.440277
H103	H	-0.661235	1.195533	1.341475
H104	H	-0.704318	1.238496	1.445435
H105	H	-0.552864	1.192795	1.406358
H106	H	-0.595939	1.235740	1.510325
H107	H	-0.481102	1.531146	1.264848
