data_functionalizedCrystal
_audit_creation_method	'MofGen! by Chris Wilmer'
_symmetry_space_group_name_H-M	'P1'
_symmetry_Int_Tables_number	1
_symmetry_cell_setting	triclinic
loop_
_symmetry_equiv_pos_as_xyz
  x,y,z
_cell_length_a	12.759395
_cell_length_b	16.625546
_cell_length_c	12.759387
_cell_angle_alpha	90.035560
_cell_angle_beta	90.020509
_cell_angle_gamma	90.024005
loop_
_atom_site_label
_atom_site_type_symbol
_atom_site_fract_x
_atom_site_fract_y
_atom_site_fract_z
Zn1	Zn	1.606212	-0.320926	0.593970
Zn2	Zn	1.606079	-0.455781	0.418276
Zn3	Zn	1.430510	-0.320970	0.418307
Zn4	Zn	1.430479	-0.455724	0.593915
O5	O	1.518320	-0.388350	0.506117
O6	O	1.753215	-0.338820	0.570674
O7	O	1.582747	-0.437941	0.271259
O8	O	1.453886	-0.208132	0.441645
O9	O	1.753118	-0.437898	0.441592
O10	O	1.582974	-0.208099	0.570704
O11	O	1.453757	-0.338895	0.271282
O12	O	1.283485	-0.338840	0.441592
O13	O	1.453833	-0.437800	0.740944
O14	O	1.283462	-0.437843	0.570610
O15	O	1.582943	-0.338765	0.740984
O16	O	1.582716	-0.568606	0.441539
O17	O	1.453704	-0.568564	0.570580
C18	C	1.245352	-0.388341	0.506099
C19	C	1.128576	-0.388356	0.506116
C20	C	1.128590	-0.491615	0.640246
C21	C	1.073737	-0.543250	0.707314
C22	C	0.964015	-0.543260	0.707327
C23	C	0.909144	-0.491627	0.640267
C24	C	0.963998	-0.439991	0.573199
C25	C	1.073722	-0.439989	0.573191
C26	C	0.963984	-0.336730	0.439076
C27	C	1.073705	-0.336723	0.439056
C28	C	0.909113	-0.285096	0.372016
C29	C	0.963967	-0.233463	0.304942
C30	C	1.073695	-0.233456	0.304931
C31	C	1.128559	-0.285087	0.371989
C32	C	1.518220	-0.597841	0.506073
C33	C	1.518274	-0.687462	0.506090
C34	C	1.518457	-1.015638	0.506199
C35	C	1.518403	-0.924329	0.506171
C36	C	1.518365	-0.851553	0.506144
C37	C	1.518312	-0.760239	0.506117
C38	C	1.792353	-0.388361	0.506136
C39	C	1.909130	-0.388365	0.506144
C40	C	1.518399	-0.388271	0.780151
C41	C	1.518433	-0.388238	0.896928
C42	C	1.518448	-0.178041	0.506184
C43	C	1.518503	-0.088420	0.506213
C44	C	1.518301	-0.388371	0.233150
C45	C	1.518471	-0.388177	0.116374
C46	C	1.652885	-0.285119	0.896990
C47	C	1.720126	-0.233547	0.951881
C48	C	1.720151	-0.233518	1.061603
C49	C	1.652927	-0.285064	1.116435
C50	C	1.585686	-0.336635	1.061544
C51	C	1.585670	-0.336661	0.951819
C52	C	1.451230	-0.439749	1.061482
C53	C	1.451209	-0.439784	0.951760
C54	C	1.384006	-0.491295	1.116314
C55	C	1.316769	-0.542872	1.061422
C56	C	1.316747	-0.542900	0.951694
C57	C	1.383968	-0.491355	0.896868
H58	H	1.118424	-0.585288	0.761914
H59	H	0.819772	-0.285105	0.372036
O60	O	1.383859	-0.491198	1.222897
C61	C	1.283183	-0.470491	1.259550
H62	H	1.239764	-0.435345	1.196330
H63	H	1.237627	-0.527565	1.278983
C64	C	1.346731	-0.461416	1.436383
C65	C	1.293406	-0.418243	1.358738
H66	H	1.353034	-0.429190	1.497570
H67	H	1.414557	-0.475370	1.411691
H68	H	1.308760	-0.508976	1.452565
H69	H	1.331383	-0.370689	1.342549
H70	H	1.225586	-0.404279	1.383430
O71	O	0.910887	-0.593489	0.772515
C72	C	0.982838	-0.639040	0.831726
H73	H	1.061032	-0.641794	0.788682
H74	H	0.994557	-0.609583	0.911586
C75	C	0.843935	-0.721485	0.899542
C76	C	0.939972	-0.724874	0.846670
H77	H	0.817493	-0.774430	0.908765
H78	H	0.795460	-0.690795	0.859653
H79	H	0.853714	-0.696934	0.966087
H80	H	0.930189	-0.749415	0.780122
H81	H	0.988445	-0.755570	0.886548
O82	O	1.251624	-0.593023	1.114731
C83	C	1.311413	-0.645072	1.178218
H84	H	1.394151	-0.650071	1.145166
H85	H	1.315064	-0.620114	1.261380
C86	C	1.158408	-0.722747	1.220469
C87	C	1.260025	-0.728893	1.179869
H88	H	1.126707	-0.774451	1.221493
H89	H	1.118125	-0.687680	1.177701
H90	H	1.161464	-0.701946	1.289768
H91	H	1.256966	-0.749684	1.110568
H92	H	1.300306	-0.763966	1.222626
O93	O	1.785574	-0.183519	0.898735
C94	C	1.890278	-0.201162	0.925541
H95	H	1.892443	-0.232139	1.005194
H96	H	1.925622	-0.242636	0.863778
C97	C	1.951321	-0.084518	0.832825
C98	C	1.953981	-0.122559	0.930660
H99	H	1.990619	-0.036033	0.835978
H100	H	1.880781	-0.072632	0.814761
H101	H	1.980773	-0.119088	0.781366
H102	H	1.924518	-0.087993	0.982114
H103	H	2.024518	-0.134437	0.948733
O104	O	0.910830	-0.183236	0.239774
C105	C	0.982768	-0.137678	0.180547
H106	H	1.061008	-0.134923	0.223570
H107	H	0.994378	-0.167129	0.100681
C108	C	0.843882	-0.055234	0.112779
C109	C	0.939975	-0.051845	0.165625
H110	H	0.817485	-0.002289	0.103569
H111	H	0.795415	-0.085929	0.152677
H112	H	0.853570	-0.079780	0.046229
H113	H	0.930283	-0.027309	0.232178
H114	H	0.988440	-0.021144	0.125737
O115	O	1.251403	-0.593080	0.898538
C116	C	1.192065	-0.638551	0.970467
H117	H	1.235108	-0.641317	1.048689
H118	H	1.112292	-0.609018	0.982126
C119	C	1.123999	-0.720985	0.831550
C120	C	1.176870	-0.724387	0.927622
H121	H	1.114620	-0.773931	0.805120
H122	H	1.163972	-0.690348	0.783089
H123	H	1.057526	-0.696370	0.841279
H124	H	1.243345	-0.748992	0.917889
H125	H	1.136907	-0.755030	0.976080
O126	O	0.802562	-0.491760	0.640381
C127	C	0.765913	-0.548388	0.713980
H128	H	0.829129	-0.595507	0.728573
H129	H	0.746495	-0.516490	0.790668
C130	C	0.589073	-0.531809	0.653148
C131	C	0.666712	-0.589687	0.671064
H132	H	0.527879	-0.557283	0.626680
H133	H	0.613762	-0.493656	0.603566
H134	H	0.572904	-0.505232	0.717060
H135	H	0.682889	-0.616255	0.607152
H136	H	0.642023	-0.627846	0.720635
H137	H	1.217931	-0.491618	0.640234
O138	O	1.653114	-0.285102	1.223018
C139	C	1.753805	-0.305784	1.259691
H140	H	1.797205	-0.340960	1.196460
H141	H	1.799362	-0.248697	1.279185
C142	C	1.690322	-0.314774	1.436495
C143	C	1.743624	-0.357983	1.358836
H144	H	1.684044	-0.346969	1.497655
H145	H	1.622486	-0.300837	1.411789
H146	H	1.728294	-0.267203	1.452726
H147	H	1.705646	-0.405547	1.342597
H148	H	1.811454	-0.371930	1.383542
H149	H	1.383961	-0.491376	0.807527
O150	O	1.127093	-0.183409	0.239727
C151	C	1.190486	-0.229245	0.171728
H152	H	1.206915	-0.290385	0.208627
H153	H	1.148156	-0.238028	0.093854
C154	C	1.274543	-0.109763	0.107480
C155	C	1.294728	-0.184854	0.152804
H156	H	1.338843	-0.082380	0.095802
H157	H	1.231832	-0.078882	0.153289
H158	H	1.239265	-0.117093	0.042590
H159	H	1.329993	-0.177522	0.217698
H160	H	1.337448	-0.215733	0.107005
H161	H	1.217900	-0.285088	0.371983
H162	H	1.652881	-0.285145	0.807648
H163	H	1.774898	-0.191519	1.106296
