data_functionalizedCrystal
_audit_creation_method	'MofGen! by Chris Wilmer'
_symmetry_space_group_name_H-M	'P1'
_symmetry_Int_Tables_number	1
_symmetry_cell_setting	triclinic
loop_
_symmetry_equiv_pos_as_xyz
  x,y,z
_cell_length_a	11.026607
_cell_length_b	12.837942
_cell_length_c	10.065875
_cell_angle_alpha	99.723749
_cell_angle_beta	79.302338
_cell_angle_gamma	101.707478
loop_
_atom_site_label
_atom_site_type_symbol
_atom_site_fract_x
_atom_site_fract_y
_atom_site_fract_z
O1	O	1.677813	0.431471	-0.113501
O2	O	1.318665	0.380952	-0.113502
O3	O	1.490274	0.253824	-0.113493
O4	O	1.506204	0.558600	-0.113509
O5	O	1.457565	0.278190	0.113494
O6	O	1.285956	0.405318	0.113485
O7	O	1.645104	0.455838	0.113486
Zn8	Zn	1.460337	0.434446	0.149525
Zn9	Zn	1.503433	0.402343	-0.149540
O10	O	1.473495	0.582966	0.113478
C11	C	1.256022	0.383815	-0.000008
C12	C	1.118096	0.356032	-0.000008
C13	C	1.468539	0.226382	0.000000
C14	C	1.452492	0.108310	-0.000002
C15	C	1.053161	0.432745	-0.000013
C16	C	0.910607	0.404032	-0.000014
C17	C	1.645414	-0.096651	-0.000030
C18	C	1.630342	-0.207590	-0.000032
C19	C	1.407280	-0.224509	-0.000019
C20	C	1.422351	-0.113570	-0.000017
C21	C	1.541422	-0.049645	-0.000020
C22	C	1.556491	0.061297	-0.000008
C23	C	1.333431	0.044375	-0.000004
C24	C	1.318359	-0.066563	-0.000007
C25	C	1.707748	0.452974	-0.000010
C26	C	1.845676	0.480756	-0.000019
C27	C	1.495231	0.610407	-0.000018
C28	C	1.511279	0.728478	-0.000025
N29	N	1.430934	0.456357	0.353629
N30	N	1.532844	0.380426	-0.353644
C31	C	1.493194	0.409958	0.421411
C32	C	1.470575	0.426831	0.578577
H33	H	0.860672	0.317088	-0.000044
C34	C	1.832639	-0.239837	-0.116725
C35	C	1.744655	-0.259258	-0.000039
H36	H	1.903216	-0.271730	-0.116724
H37	H	1.795744	-0.269994	-0.195863
H38	H	1.858641	-0.164614	-0.116710
H39	H	1.718646	-0.334481	-0.000059
H40	H	1.781555	-0.229105	0.079119
H41	H	1.310340	-0.276577	-0.000031
H42	H	1.653444	0.113344	-0.000006
C43	C	1.808573	0.025415	-0.116707
C44	C	1.776287	-0.026371	-0.000026
H45	H	1.889366	0.068807	-0.116697
H46	H	1.809474	-0.026707	-0.195849
H47	H	1.748783	0.069281	-0.116693
H48	H	1.836072	-0.070244	-0.000046
H49	H	1.775396	0.025758	0.079135
H50	H	0.895613	0.567697	-0.000014
H51	H	1.221416	-0.118627	-0.000009
H52	H	1.248752	0.082660	0.000015
C53	C	1.256900	0.454123	0.622886
C54	C	1.376001	0.497322	0.657296
H55	H	1.198515	0.497637	0.671493
H56	H	1.259701	0.452042	0.527607
H57	H	1.231702	0.383397	0.646246
H58	H	1.401203	0.568046	0.633926
H59	H	1.373203	0.499415	0.752596
H60	H	1.563237	0.357738	0.363091
H61	H	1.360881	0.508568	0.411952
C62	C	1.248744	0.555835	-0.000015
C63	C	1.120572	0.550108	-0.000017
H64	H	1.290356	0.628292	-0.000024
H65	H	1.259995	0.530055	0.079138
H66	H	1.282808	0.513055	-0.079174
H67	H	1.086505	0.592882	0.079148
H68	H	1.109312	0.575901	-0.079177
C69	C	0.922514	0.232941	-0.000014
C70	C	1.050686	0.238669	-0.000009
H71	H	0.880905	0.160483	-0.000024
H72	H	0.888448	0.275709	0.079137
H73	H	0.911267	0.258732	-0.079175
H74	H	1.061934	0.212886	0.079157
H75	H	1.084762	0.195885	-0.079168
H76	H	1.602892	0.328202	0.588039
