data_functionalizedCrystal
_audit_creation_method	'MofGen! by Chris Wilmer'
_symmetry_space_group_name_H-M	'P1'
_symmetry_Int_Tables_number	1
_symmetry_cell_setting	triclinic
loop_
_symmetry_equiv_pos_as_xyz
  x,y,z
_cell_length_a	19.121102
_cell_length_b	19.121063
_cell_length_c	19.120904
_cell_angle_alpha	94.741613
_cell_angle_beta	89.911827
_cell_angle_gamma	89.873098
loop_
_atom_site_label
_atom_site_type_symbol
_atom_site_fract_x
_atom_site_fract_y
_atom_site_fract_z
Zn1	Zn	1.039579	0.343506	0.456040
Zn2	Zn	1.539579	0.843506	0.956040
Zn3	Zn	1.039493	0.456149	0.343386
Zn4	Zn	1.539493	0.956149	0.843386
Zn5	Zn	0.927792	0.333518	0.333417
Zn6	Zn	1.427792	0.833518	0.833417
Zn7	Zn	0.917325	0.455677	0.455570
Zn8	Zn	1.417325	0.955677	0.955570
O9	O	0.981047	0.397212	0.397103
O10	O	1.481047	0.897212	0.897103
O11	O	1.137479	0.362826	0.445465
O12	O	1.637479	0.862826	0.945465
O13	O	1.029020	0.435899	0.243797
O14	O	1.529020	0.935899	0.743797
O15	O	0.947038	0.236577	0.345708
O16	O	1.447038	0.736577	0.845708
O17	O	1.137415	0.445584	0.362699
O18	O	1.637415	0.945584	0.862699
O19	O	1.029167	0.243915	0.435798
O20	O	1.529167	0.743915	0.935798
O21	O	0.946954	0.345802	0.236473
O22	O	1.446954	0.845802	0.736473
O23	O	0.828493	0.345345	0.345252
O24	O	1.328493	0.845345	0.845252
O25	O	0.929198	0.444780	0.553899
O26	O	1.429198	0.944780	1.053899
O27	O	0.820803	0.435094	0.434997
O28	O	1.320803	0.935094	0.934997
O29	O	1.019018	0.362368	0.554244
O30	O	1.519018	0.862368	1.054244
O31	O	1.018870	0.554352	0.362243
O32	O	1.518870	1.054352	0.862243
O33	O	0.929114	0.554005	0.444664
O34	O	1.429114	1.054005	0.944664
C35	C	0.799261	0.389085	0.388992
C36	C	1.299261	0.889085	0.888992
C37	C	0.721490	0.385626	0.385539
C38	C	1.221490	0.885626	0.885539
C39	C	0.972865	0.579659	0.404501
C40	C	1.472865	1.079659	0.904501
C41	C	0.969428	0.657714	0.407691
C42	C	1.469428	1.157714	0.907691
C43	C	0.972950	0.404635	0.580263
C44	C	1.472950	0.904635	1.080263
C45	C	0.969500	0.407799	0.658315
C46	C	1.469500	0.907799	1.158315
C47	C	0.680968	0.430793	0.430575
C48	C	1.180968	0.930793	0.930575
C49	C	0.607894	0.427534	0.427334
C50	C	1.107894	0.927534	0.927334
C51	C	0.575344	0.379110	0.379053
C52	C	1.075344	0.879110	0.879053
C53	C	0.615872	0.333937	0.334016
C54	C	1.115872	0.833937	0.834016
C55	C	0.688944	0.337194	0.337261
C56	C	1.188944	0.837194	0.837261
C57	C	0.354913	0.366933	0.366924
C58	C	0.854913	0.866933	0.866924
C59	C	0.281835	0.363681	0.363681
C60	C	0.781835	0.863681	0.863681
C61	C	0.273863	0.457277	0.457000
C62	C	0.773863	0.957277	0.957000
C63	C	0.346937	0.460532	0.460238
C64	C	0.846937	0.960532	0.960238
C65	C	0.387458	0.415357	0.415203
C66	C	0.887458	0.915357	0.915203
C67	C	0.500651	0.375778	0.375738
C68	C	1.000651	0.875778	0.875738
C69	C	0.462149	0.418686	0.418523
C70	C	0.962149	0.918686	0.918523
C71	C	1.163544	0.405372	0.405246
C72	C	1.663544	0.905372	0.905246
C73	C	1.241313	0.408849	0.408717
C74	C	1.741313	0.908849	0.908717
C75	C	0.989280	0.214054	0.389693
C76	C	1.489280	0.714054	0.889693
C77	C	0.992788	0.136003	0.386535
C78	C	1.492788	0.636003	0.886535
C79	C	1.014577	0.694545	0.366317
C80	C	1.514577	1.194545	0.866317
C81	C	1.011348	0.767887	0.369323
C82	C	1.511348	1.267887	0.869323
C83	C	0.962966	0.804396	0.413699
C84	C	1.462966	1.304396	0.913699
C85	C	0.917815	0.767560	0.455078
C86	C	1.417815	1.267560	0.955078
C87	C	0.921048	0.694220	0.452076
C88	C	1.421048	1.194220	0.952076
C89	C	0.950869	1.025828	0.424912
C90	C	1.450869	1.525828	0.924912
C91	C	0.947638	1.099173	0.427909
C92	C	1.447638	1.599173	0.927909
C93	C	1.041173	1.099494	0.342155
C94	C	1.541173	1.599494	0.842155
C95	C	1.044399	1.026153	0.339154
C96	C	1.544399	1.526153	0.839154
C97	C	0.999250	0.989323	0.380535
C98	C	1.499250	1.489323	0.880535
C99	C	0.959663	0.879363	0.416770
C100	C	1.459663	1.379363	0.916770
C101	C	1.002557	0.914358	0.377467
C102	C	1.502557	1.414358	0.877467
C103	C	0.989156	0.389769	0.214655
C104	C	1.489156	0.889769	0.714655
C105	C	0.992751	0.386414	0.136602
C106	C	1.492751	0.886414	0.636602
C107	C	1.014640	0.366379	0.695165
C108	C	1.514640	0.866379	1.195165
C109	C	1.011390	0.369348	0.768503
C110	C	1.511390	0.869348	1.268503
C111	C	0.963001	0.413741	0.804990
C112	C	1.463001	0.913741	1.304990
C113	C	0.917856	0.455162	0.768135
C114	C	1.417856	0.955162	1.268135
C115	C	0.921103	0.452188	0.694798
C116	C	1.421103	0.952188	1.194798
C117	C	0.950853	0.424862	1.026410
C118	C	1.450853	0.924862	1.526410
C119	C	0.947610	0.427833	1.099752
C120	C	1.447610	0.927833	1.599752
C121	C	1.041143	0.342019	1.100115
C122	C	1.541143	0.842019	1.600115
C123	C	1.044390	0.339052	1.026777
C124	C	1.544390	0.839052	1.526777
C125	C	0.999242	0.380470	0.989928
C126	C	1.499242	0.880470	1.489928
C127	C	0.959679	0.416779	0.879953
C128	C	1.459679	0.916779	1.379953
C129	C	1.002561	0.377429	0.914966
C130	C	1.502561	0.877429	1.414966
H131	H	0.707464	0.470228	0.469888
H132	H	1.207464	0.970228	0.969888
F133	F	0.866327	0.806418	0.502311
F134	F	1.366327	1.306418	1.002311
H135	H	1.041956	0.341281	0.885255
H136	H	1.541956	0.841281	1.385255
H137	H	1.054046	0.330232	0.665463
H138	H	1.554046	0.830232	1.165463
F139	F	1.095892	0.291804	0.987950
F140	F	1.595892	0.791804	1.487950
H141	H	0.884338	0.485909	0.664795
H142	H	1.384338	0.985909	1.164795
F143	F	0.908184	0.464026	0.918791
F144	F	1.408184	0.964026	1.418791
H145	H	1.048150	0.335622	0.798503
H146	H	1.548150	0.835622	1.298503
H147	H	0.488655	0.458110	0.457836
H148	H	0.988655	0.958110	0.957836
F149	F	0.908172	0.918225	0.463997
F150	F	1.408172	1.418225	0.963997
H151	H	0.884283	0.664233	0.485768
H152	H	1.384283	1.164233	0.985768
F153	F	1.089188	0.297940	1.139337
F154	F	1.589188	0.797940	1.639337
F155	F	0.896103	0.475081	1.138582
F156	F	1.396103	0.975081	1.638582
F157	F	1.054050	0.875502	0.330243
F158	F	1.554050	1.375502	0.830243
H159	H	0.914100	0.458598	0.996417
H160	H	1.414100	0.958598	1.496417
H161	H	0.240863	0.494055	0.493666
H162	H	0.740863	0.994055	0.993666
H163	H	0.914106	0.995847	0.458605
H164	H	1.414106	1.495847	0.958605
H165	H	0.474141	0.336353	0.336426
H166	H	0.974141	0.836353	0.836426
H167	H	1.053972	0.664824	0.330178
H168	H	1.553972	1.164824	0.830178
F169	F	0.866354	0.502405	0.806968
F170	F	1.366354	1.002405	1.306968
H171	H	0.574904	0.464315	0.464006
H172	H	1.074904	0.964315	0.964006
H173	H	0.908248	1.128897	0.464059
H174	H	1.408248	1.628897	0.964059
H175	H	0.255336	0.324240	0.324369
H176	H	0.755336	0.824240	0.824369
F177	F	0.398029	0.318851	0.318995
F178	F	0.898029	0.818851	0.818995
F179	F	0.581228	0.282396	0.282636
F180	F	1.081228	0.782396	0.782636
F181	F	0.381573	0.512074	0.511624
F182	F	0.881573	1.012074	1.011624
H183	H	1.048113	0.797871	0.335631
H184	H	1.548113	1.297871	0.835631
H185	H	0.721937	0.300410	0.300591
H186	H	1.221937	0.800410	0.800591
F187	F	1.095901	0.987303	0.291931
F188	F	1.595901	1.487303	0.791931
H189	H	1.077932	1.129489	0.308466
H190	H	1.577932	1.629489	0.808466
