data_functionalizedCrystal
_audit_creation_method	'MofGen! by Chris Wilmer'
_symmetry_space_group_name_H-M	'P1'
_symmetry_Int_Tables_number	1
_symmetry_cell_setting	triclinic
loop_
_symmetry_equiv_pos_as_xyz
  x,y,z
_cell_length_a	14.908795
_cell_length_b	12.759400
_cell_length_c	14.908308
_cell_angle_alpha	93.270344
_cell_angle_beta	89.788666
_cell_angle_gamma	93.303773
loop_
_atom_site_label
_atom_site_type_symbol
_atom_site_fract_x
_atom_site_fract_y
_atom_site_fract_z
Zn1	Zn	1.345352	-0.367479	-0.587853
Zn2	Zn	1.353950	-0.532504	-0.437503
Zn3	Zn	1.203665	-0.366341	-0.428824
Zn4	Zn	1.194977	-0.552621	-0.579126
O5	O	1.274486	-0.454736	-0.508327
O6	O	1.472319	-0.381428	-0.575194
O7	O	1.341248	-0.501567	-0.310528
O8	O	1.222497	-0.219470	-0.449940
O9	O	1.478636	-0.502671	-0.464732
O10	O	1.326594	-0.220306	-0.566778
O11	O	1.230835	-0.379488	-0.304152
O12	O	1.076686	-0.398994	-0.441478
O13	O	1.207691	-0.536956	-0.706107
O14	O	1.070303	-0.535853	-0.551903
O15	O	1.318170	-0.400934	-0.712519
O16	O	1.332824	-0.682195	-0.456269
O17	O	1.216028	-0.696974	-0.560319
C18	C	1.040869	-0.469483	-0.494802
C19	C	0.940925	-0.475819	-0.489038
C20	C	0.803355	-0.547755	-0.423313
C21	C	0.897261	-0.541806	-0.428729
C22	C	0.890677	-0.415773	-0.543933
C23	C	0.796771	-0.421722	-0.538517
C24	C	0.753113	-0.487716	-0.478206
C25	C	0.659205	-0.493670	-0.472795
C26	C	0.652624	-0.367632	-0.587995
C27	C	0.746530	-0.361683	-0.593410
C28	C	1.274439	-0.727706	-0.508310
C29	C	1.274500	-0.844480	-0.508337
C30	C	1.328672	-0.899703	-0.569220
C31	C	1.328712	-1.009426	-0.569245
C32	C	1.220408	-1.008693	-0.447495
C33	C	1.220363	-0.898973	-0.447476
C34	C	1.382809	-0.845211	-0.630082
C35	C	1.436986	-0.900434	-0.690969
C36	C	1.437026	-1.010157	-0.690993
C37	C	1.382890	-1.064656	-0.630130
C38	C	1.509015	-0.439933	-0.521905
C39	C	1.608957	-0.433624	-0.527691
C40	C	1.261002	-0.471316	-0.742850
C41	C	1.255256	-0.478381	-0.842790
C42	C	1.274556	-0.180701	-0.508365
C43	C	1.274585	-0.063923	-0.508381
C44	C	1.359499	-0.349993	-1.037266
C45	C	1.354103	-0.356628	-1.131169
C46	C	1.239065	-0.498280	-1.124500
C47	C	1.244461	-0.491645	-1.030597
C48	C	1.304681	-0.417500	-0.986984
C49	C	1.310080	-0.410871	-0.893080
C50	C	1.195038	-0.552517	-0.886412
C51	C	1.189642	-0.559152	-0.980314
C52	C	1.287969	-0.438142	-0.274719
C53	C	1.293889	-0.430770	-0.174789
H54	H	0.938164	-0.590695	-0.384028
C55	C	0.756116	-0.619432	-0.357753
C56	C	0.820216	-0.670727	-0.310827
C57	C	0.776735	-0.736755	-0.250418
H58	H	0.717515	-0.670099	-0.389874
H59	H	0.721749	-0.578750	-0.316471
H60	H	0.854568	-0.711406	-0.352103
H61	H	0.858820	-0.620086	-0.278687
H62	H	0.742369	-0.696073	-0.209136
H63	H	0.738135	-0.787416	-0.282547
H64	H	0.820221	-0.771559	-0.218565
C65	C	0.938251	-0.344222	-0.609378
C66	C	1.031242	-0.351881	-0.602378
C67	C	1.075096	-0.285993	-0.662659
H68	H	0.923720	-0.273615	-0.595495
H69	H	0.919460	-0.364955	-0.668908
H70	H	1.050027	-0.331142	-0.542862
H71	H	1.045800	-0.422473	-0.616269
H72	H	1.056305	-0.306725	-0.722189
H73	H	1.060557	-0.215390	-0.648771
H74	H	1.138194	-0.291187	-0.657924
H75	H	1.408537	-0.289627	-1.001756
H76	H	1.190036	-0.558644	-1.160026
C77	C	1.413730	-0.283279	-1.185606
C78	C	1.467635	-0.216947	-1.127310
C79	C	1.522584	-0.149370	-1.177425
H80	H	1.377339	-0.242165	-1.220262
H81	H	1.450845	-0.323554	-1.224483
H82	H	1.430524	-0.176676	-1.088449
H83	H	1.504044	-0.258033	-1.092653
H84	H	1.559699	-0.189645	-1.216302
H85	H	1.486186	-0.108263	-1.212079
H86	H	1.559171	-0.104363	-1.137879
H87	H	1.382916	-1.154002	-0.630165
H88	H	0.782089	-0.307950	-0.642512
C89	C	1.382855	-0.726089	-0.630228
C90	C	1.441842	-0.690185	-0.696571
C91	C	1.441899	-0.580458	-0.696737
H92	H	1.401800	-0.696065	-0.573168
H93	H	1.323931	-0.706036	-0.642415
H94	H	1.500754	-0.710227	-0.684378
H95	H	1.422910	-0.720180	-0.753641
H96	H	1.382974	-0.560406	-0.708924
H97	H	1.460842	-0.550444	-0.639674
H98	H	1.481914	-0.556084	-0.741755
C99	C	1.124353	-0.639614	-1.027838
C100	C	1.131372	-0.630993	-1.120838
C101	C	1.071250	-0.705109	-1.164643
H102	H	1.064783	-0.627049	-1.009059
H103	H	1.138391	-0.708312	-1.013257
H104	H	1.117328	-0.562311	-1.135412
H105	H	1.190929	-0.643568	-1.139642
H106	H	1.085289	-0.773807	-1.150062
H107	H	1.011685	-0.692537	-1.145857
H108	H	1.076011	-0.699277	-1.227748
H109	H	1.359116	-0.350500	-0.857572
C110	C	1.495633	-0.841339	-0.757193
C111	C	1.470861	-0.875518	-0.845008
C112	C	1.524858	-0.821096	-0.906040
H113	H	1.556845	-0.854492	-0.747708
H114	H	1.487840	-0.768079	-0.748520
H115	H	1.478662	-0.948761	-0.853678
H116	H	1.409658	-0.862364	-0.854521
H117	H	1.517064	-0.747836	-0.897366
H118	H	1.586067	-0.834252	-0.896547
H119	H	1.508052	-0.844271	-0.965628
C120	C	1.495684	-1.070188	-0.757201
C121	C	1.441441	-1.140468	-0.811873
C122	C	1.495449	-1.195774	-0.872881
H123	H	1.536892	-1.108158	-0.725220
H124	H	1.527898	-1.022055	-0.793495
H125	H	1.409242	-1.188595	-0.775584
H126	H	1.400235	-1.102526	-0.843874
H127	H	1.527663	-1.147641	-0.909175
H128	H	1.536654	-1.233737	-0.840892
H129	H	1.458653	-1.243458	-0.909989
H130	H	1.176333	-1.053075	-0.397943
H131	H	1.176251	-0.854010	-0.397900
C132	C	0.611747	-0.565460	-0.407463
C133	C	0.554936	-0.639919	-0.455166
C134	C	0.511215	-0.706077	-0.395010
H135	H	0.577285	-0.524880	-0.366210
H136	H	0.655092	-0.600427	-0.375559
H137	H	0.511596	-0.604956	-0.487055
H138	H	0.589375	-0.680524	-0.496415
H139	H	0.554561	-0.741044	-0.363106
H140	H	0.476759	-0.665489	-0.353760
H141	H	0.472671	-0.756612	-0.427368
C142	C	0.597918	-0.302488	-0.647494
C143	C	0.506334	-0.321805	-0.629834
C144	C	0.455913	-0.261811	-0.684621
H145	H	0.609742	-0.321214	-0.708801
H146	H	0.614007	-0.229953	-0.635316
H147	H	0.490251	-0.394323	-0.642018
H148	H	0.494483	-0.303074	-0.568537
H149	H	0.472002	-0.189276	-0.672444
H150	H	0.467745	-0.280541	-0.745925
H151	H	0.393769	-0.274901	-0.672640
H152	H	1.150404	-0.607489	-0.845462
