data_functionalizedCrystal
_audit_creation_method	'MofGen! by Chris Wilmer'
_symmetry_space_group_name_H-M	'P1'
_symmetry_Int_Tables_number	1
_symmetry_cell_setting	triclinic
loop_
_symmetry_equiv_pos_as_xyz
  x,y,z
_cell_length_a	16.109301
_cell_length_b	14.044220
_cell_length_c	14.586319
_cell_angle_alpha	89.995213
_cell_angle_beta	89.999213
_cell_angle_gamma	88.325179
loop_
_atom_site_label
_atom_site_type_symbol
_atom_site_fract_x
_atom_site_fract_y
_atom_site_fract_z
O1	O	1.112195	0.121835	-0.076185
O2	O	1.612195	0.621835	0.423815
O3	O	0.871261	0.136997	-0.076199
O4	O	1.371261	0.636997	0.423801
O5	O	0.988112	-0.008568	-0.076183
O6	O	1.488112	0.491432	0.423817
O7	O	0.995345	0.267399	-0.076201
O8	O	1.495345	0.767399	0.423799
O9	O	0.988103	-0.008570	0.076298
O10	O	1.488103	0.491430	0.576298
O11	O	0.871252	0.136995	0.076281
O12	O	1.371252	0.636995	0.576281
O13	O	1.112186	0.121832	0.076296
O14	O	1.612186	0.621832	0.576296
Cu15	Cu	0.991719	0.129413	0.090212
Cu16	Cu	1.491719	0.629413	0.590212
Cu17	Cu	0.991729	0.129416	-0.090115
Cu18	Cu	1.491729	0.629416	0.409885
O19	O	0.995336	0.267397	0.076280
O20	O	1.495336	0.767397	0.576280
C21	C	0.840236	0.136381	0.000039
C22	C	1.340236	0.636381	0.500039
C23	C	0.747804	0.134540	0.000034
C24	C	1.247804	0.634540	0.500034
C25	C	0.531640	0.216634	0.000039
C26	C	1.031640	0.716634	0.500039
C27	C	0.444790	0.214896	0.000045
C28	C	0.944790	0.714896	0.500045
C29	C	0.451815	0.042189	0.000052
C30	C	0.951815	0.542189	0.500052
C31	C	0.538663	0.043927	0.000053
C32	C	1.038663	0.543927	0.500053
C33	C	0.578573	0.131153	0.000042
C34	C	1.078573	0.631153	0.500042
C35	C	0.404875	0.127677	0.000047
C36	C	0.904875	0.627677	0.500047
C37	C	0.310709	0.125792	0.000054
C38	C	0.810709	0.625792	0.500054
C39	C	0.672745	0.133038	0.000037
C40	C	1.172745	0.633038	0.500037
C41	C	0.984941	-0.043882	0.000058
C42	C	1.484941	0.456118	0.500058
C43	C	0.975498	-0.149105	0.000058
C44	C	1.475498	0.350895	0.500058
C45	C	0.958232	-0.341761	0.000044
C46	C	1.458232	0.158239	0.500044
C47	C	1.025212	-0.399415	0.000045
C48	C	1.525212	0.100585	0.500045
C49	C	1.015605	-0.506616	0.000037
C50	C	1.515605	-0.006616	0.500037
C51	C	0.967838	-0.234551	0.000052
C52	C	1.467838	0.265449	0.500052
C53	C	1.143211	0.122448	0.000056
C54	C	1.643211	0.622448	0.500056
C55	C	1.235644	0.124289	0.000055
C56	C	1.735644	0.624289	0.500055
C57	C	0.998506	0.302711	0.000037
C58	C	1.498506	0.802711	0.500037
C59	C	1.007950	0.407934	0.000031
C60	C	1.507950	0.907934	0.500031
N61	N	0.991717	0.129411	0.217043
N62	N	1.491717	0.629411	0.717043
N63	N	0.991737	0.129411	-0.216946
N64	N	1.491737	0.629411	0.283054
C65	C	1.043479	0.064976	0.452057
C66	C	1.543479	0.564976	0.952057
C67	C	1.043481	0.064974	0.548038
C68	C	1.543481	0.564974	1.048038
C69	C	0.939969	0.193848	0.548033
C70	C	1.439969	0.693848	1.048033
C71	C	0.939963	0.193845	0.452054
C72	C	1.439963	0.693845	0.952054
C73	C	0.991723	0.129410	0.404068
C74	C	1.491723	0.629410	0.904068
C75	C	0.991731	0.129411	0.596029
C76	C	1.491731	0.629411	1.096029
C77	C	0.991733	0.129409	0.700096
C78	C	1.491733	0.629409	1.200096
C79	C	0.991720	0.129411	0.299994
C80	C	1.491720	0.629411	0.799994
H81	H	0.419309	-0.028827	0.000067
H82	H	0.919309	0.471173	0.500067
O83	O	0.881202	-0.378872	-0.000121
O84	O	1.381202	0.121128	0.499879
C85	C	0.837751	-0.347877	-0.079078
C86	C	1.337751	0.152123	0.420922
H87	H	0.883982	-0.327225	-0.134275
H88	H	1.383982	0.172775	0.365725
H89	H	0.798030	-0.407836	-0.105587
H90	H	1.298030	0.092164	0.394413
H91	H	0.796107	-0.283510	-0.061219
H92	H	1.296107	0.216490	0.438781
H93	H	0.564132	0.287658	0.000037
H94	H	1.064132	0.787658	0.500037
O95	O	0.584296	-0.039089	0.000215
O96	O	1.084296	0.460911	0.500215
C97	C	0.634756	-0.043241	0.079175
C98	C	1.134756	0.456759	0.579175
H99	H	0.606586	0.005232	0.134370
H100	H	1.106586	0.505232	0.634370
H101	H	0.638852	-0.119596	0.105684
H102	H	1.138852	0.380404	0.605684
H103	H	0.699632	-0.018717	0.061321
H104	H	1.199632	0.481283	0.561321
O105	O	0.889575	0.256345	0.594610
O106	O	1.389575	0.756345	1.094610
C107	C	0.806133	0.240923	0.571151
C108	C	1.306133	0.740923	1.071151
H109	H	0.800099	0.165033	0.544773
H110	H	1.300099	0.665033	1.044773
H111	H	0.765222	0.251811	0.634275
H112	H	1.265222	0.751811	1.134275
H113	H	0.785603	0.293452	0.515437
H114	H	1.285603	0.793452	1.015437
O115	O	1.093715	0.002255	0.594553
O116	O	1.593715	0.502255	1.094553
C117	C	1.073231	-0.091581	0.571124
C118	C	1.573231	0.408419	1.071124
H119	H	1.041190	-0.091474	0.501439
H120	H	1.541190	0.408526	1.001439
H121	H	1.132264	-0.138238	0.567839
H122	H	1.632264	0.361762	1.067839
H123	H	1.029678	-0.120909	0.625148
H124	H	1.529678	0.379091	1.125148
O125	O	1.093614	0.002305	0.405362
O126	O	1.593614	0.502305	0.905362
C127	C	1.044717	-0.056199	0.349902
C128	C	1.544717	0.443801	0.849902
H129	H	0.982480	-0.018431	0.335503
H130	H	1.482480	0.481569	0.835503
H131	H	1.078297	-0.071248	0.282416
H132	H	1.578297	0.428752	0.782416
H133	H	1.033836	-0.126223	0.386937
H134	H	1.533836	0.373777	0.886937
H135	H	1.089769	-0.368264	-0.000012
H136	H	1.589769	0.131736	0.499988
O137	O	0.399111	0.297871	-0.000085
O138	O	0.899111	0.797871	0.499915
C139	C	0.348679	0.302045	-0.079067
C140	C	0.848679	0.802045	0.420933
H141	H	0.338715	0.226810	-0.105388
H142	H	0.838715	0.726810	0.394612
H143	H	0.286123	0.337373	-0.061308
H144	H	0.786123	0.837373	0.438692
H145	H	0.380419	0.345325	-0.134371
H146	H	0.880419	0.845325	0.365629
O147	O	0.889777	0.256573	0.405474
O148	O	1.389777	0.756573	0.905474
C149	C	0.910237	0.350410	0.428929
C150	C	1.410237	0.850410	0.928929
H151	H	0.976835	0.350897	0.455309
H152	H	1.476835	0.850897	0.955309
H153	H	0.904197	0.397974	0.365803
H154	H	1.404197	0.897974	0.865803
H155	H	0.866222	0.378240	0.484641
H156	H	1.366222	0.878240	0.984641
