data_functionalizedCrystal
_audit_creation_method	'MofGen! by Chris Wilmer'
_symmetry_space_group_name_H-M	'P1'
_symmetry_Int_Tables_number	1
_symmetry_cell_setting	triclinic
loop_
_symmetry_equiv_pos_as_xyz
  x,y,z
_cell_length_a	13.635800
_cell_length_b	17.296766
_cell_length_c	9.582880
_cell_angle_alpha	83.066697
_cell_angle_beta	111.207034
_cell_angle_gamma	77.378987
loop_
_atom_site_label
_atom_site_type_symbol
_atom_site_fract_x
_atom_site_fract_y
_atom_site_fract_z
V1	V	2.060280	-0.110751	0.481608
O2	O	2.051093	0.005671	0.456951
O3	O	2.037690	-0.219935	0.493211
O4	O	2.055634	-0.108894	0.684857
O5	O	2.033025	-0.106139	0.263978
V6	V	2.299351	-0.096843	0.453768
O7	O	2.196809	-0.141257	0.542677
O8	O	2.387920	-0.066337	0.392699
O9	O	2.210338	0.012341	0.442165
O10	O	2.367237	-0.213264	0.478425
O11	O	2.385305	-0.101455	0.671398
O12	O	2.192394	-0.098700	0.250518
V13	V	2.560280	-0.110751	0.481608
O14	O	2.551093	0.005671	0.456951
O15	O	2.537690	-0.219935	0.493211
O16	O	2.555634	-0.108894	0.684857
O17	O	2.533025	-0.106139	0.263978
V18	V	2.799351	-0.096843	0.453768
O19	O	2.696809	-0.141257	0.542677
O20	O	2.887920	-0.066337	0.392699
O21	O	2.710338	0.012341	0.442165
O22	O	2.867237	-0.213264	0.478425
O23	O	2.885305	-0.101455	0.671398
O24	O	2.692394	-0.098700	0.250518
C25	C	1.959949	-0.246557	0.489457
C26	C	1.982253	-0.335815	0.500298
C27	C	1.959213	-0.366382	0.366806
C28	C	1.980180	-0.450251	0.376998
C29	C	2.024180	-0.503551	0.520683
C30	C	2.047225	-0.472979	0.654186
C31	C	2.026265	-0.389112	0.643993
C32	C	2.089150	-0.757345	0.558393
C33	C	2.110106	-0.841217	0.568576
C34	C	2.043061	-0.818483	0.291386
C35	C	2.022097	-0.734615	0.281206
C36	C	2.045149	-0.704050	0.414709
C37	C	2.045610	-0.589279	0.531104
C38	C	2.023727	-0.618324	0.404287
C39	C	1.982838	-0.104912	0.733919
C40	C	2.019691	-0.104116	0.900174
C41	C	2.119749	0.038959	0.445915
C42	C	2.087065	0.128216	0.435083
C43	C	2.096860	-0.102685	0.201449
C44	C	2.049626	-0.103476	0.035192
C45	C	2.459949	-0.246557	0.489457
C46	C	2.482253	-0.335815	0.500298
C47	C	2.482838	-0.104912	0.733919
C48	C	2.519691	-0.104116	0.900174
C49	C	2.619749	0.038959	0.445915
C50	C	2.587065	0.128216	0.435083
C51	C	2.596860	-0.102685	0.201449
C52	C	2.549626	-0.103476	0.035192
C53	C	2.584586	-0.381821	0.513421
C54	C	2.605563	-0.465691	0.523631
C55	C	2.524202	-0.503554	0.520708
C56	C	2.421861	-0.457543	0.507588
C57	C	2.400889	-0.373675	0.497389
C58	C	2.657226	0.174221	0.421965
C59	C	2.626522	0.258091	0.411762
C60	C	2.525660	0.295954	0.414689
C61	C	2.455494	0.249943	0.427804
C62	C	2.486195	0.166076	0.437996
H63	H	1.923376	-0.322990	0.249801
H64	H	2.083059	-0.516384	0.771179
C65	C	2.093971	-0.647899	0.689165
C66	C	2.206225	-0.649641	0.809790
C67	C	2.254574	-0.708258	0.967854
C68	C	2.190669	-0.765132	1.005294
C69	C	2.078408	-0.763392	0.884666
C70	C	2.030059	-0.704775	0.726602
H71	H	2.253537	-0.607537	0.782078
H72	H	2.337677	-0.709545	1.057151
H73	H	2.226460	-0.808524	1.122303
H74	H	2.031096	-0.805496	0.912378
H75	H	1.946956	-0.703487	0.637305
C76	C	2.703722	0.308689	0.397357
C77	C	2.747328	0.356638	0.520171
C78	C	2.824530	0.407232	0.505770
C79	C	2.858127	0.409876	0.368556
C80	C	2.814521	0.361925	0.245733
C81	C	2.737318	0.311332	0.260133
H82	H	2.722458	0.354682	0.621754
H83	H	2.856810	0.442728	0.596693
H84	H	2.915277	0.447329	0.357896
H85	H	2.839391	0.363882	0.144150
H86	H	2.705038	0.275835	0.169210
H87	H	2.739358	0.143405	0.419581
H88	H	1.987906	-0.574924	0.287300
H89	H	2.045038	-0.364227	0.752698
C90	C	2.491902	0.388209	0.403490
C91	C	2.569092	0.438805	0.389073
C92	C	2.535343	0.531059	0.377880
C93	C	2.424404	0.572717	0.381104
C94	C	2.347207	0.522120	0.395522
C95	C	2.380956	0.429866	0.406716
H96	H	2.651222	0.407968	0.386685
H97	H	2.592489	0.568514	0.367206
H98	H	2.399420	0.641009	0.372818
H99	H	2.265077	0.552958	0.397910
H100	H	2.323809	0.392411	0.417389
H101	H	1.961419	-0.475134	0.268294
H102	H	1.986276	-0.691222	0.164202
H103	H	2.024297	-0.843378	0.182696
H104	H	2.145933	-0.884613	0.685587
H105	H	2.107908	-0.732469	0.667100
H106	H	2.650845	-0.351004	0.515794
H107	H	2.688898	-0.503142	0.534308
H108	H	2.355623	-0.488383	0.505210
H109	H	2.541294	-0.571845	0.529013
H110	H	2.317555	-0.336222	0.486697
H111	H	2.373369	0.280784	0.430184
H112	H	2.429059	0.128623	0.448690
