data_functionalizedCrystal
_audit_creation_method	'MofGen! by Chris Wilmer'
_symmetry_space_group_name_H-M	'P1'
_symmetry_Int_Tables_number	1
_symmetry_cell_setting	triclinic
loop_
_symmetry_equiv_pos_as_xyz
  x,y,z
_cell_length_a	19.188925
_cell_length_b	19.188930
_cell_length_c	16.176319
_cell_angle_alpha	89.988074
_cell_angle_beta	89.991631
_cell_angle_gamma	83.143665
loop_
_atom_site_label
_atom_site_type_symbol
_atom_site_fract_x
_atom_site_fract_y
_atom_site_fract_z
O1	O	0.926150	0.087151	-0.068774
O2	O	0.722838	0.098889	-0.068773
O3	O	0.830361	-0.008635	-0.068757
O4	O	0.818627	0.194676	-0.068789
O5	O	0.830346	-0.008642	0.068736
O6	O	0.722823	0.098883	0.068721
O7	O	0.926135	0.087144	0.068720
Cu8	Cu	0.824478	0.093013	0.081274
Cu9	Cu	0.824495	0.093021	-0.081327
O10	O	0.818612	0.194669	0.068704
C11	C	0.696820	0.098507	-0.000026
C12	C	0.619315	0.097367	-0.000025
C13	C	0.057545	0.152831	-0.000035
C14	C	0.130368	0.153908	-0.000040
C15	C	0.175302	0.090816	-0.000028
C16	C	0.147408	0.026642	-0.000033
C17	C	0.074586	0.025568	-0.000037
N18	N	0.295975	0.045137	0.046783
N19	N	0.365152	0.046162	0.046788
C20	C	0.394712	0.094050	-0.000019
N21	N	0.352479	0.140884	-0.046821
N22	N	0.283295	0.139861	-0.046823
C23	C	0.254267	0.091974	-0.000025
C24	C	0.501561	0.159386	-0.000025
C25	C	0.574385	0.160460	-0.000035
C26	C	0.591425	0.033193	-0.000020
C27	C	0.518601	0.032121	-0.000018
C28	C	0.473673	0.095220	-0.000017
C29	C	0.829974	-0.034650	-0.000008
C30	C	0.828833	-0.112154	-0.000001
C31	C	0.891924	-0.157079	0.000003
C32	C	0.890852	-0.229903	-0.000010
C33	C	0.826686	-0.257799	-0.000011
C34	C	0.763587	-0.212864	-0.000019
C35	C	0.764660	-0.140041	-0.000014
N36	N	0.777634	-0.365805	0.046781
N37	N	0.776618	-0.434984	0.046778
C38	C	0.823448	-0.477207	-0.000027
N39	N	0.871342	-0.447640	-0.046820
N40	N	0.872360	-0.378456	-0.046813
C41	C	0.825515	-0.336761	-0.000017
C42	C	0.885381	-0.601097	-0.000039
C43	C	0.884307	-0.673922	-0.000058
C44	C	0.757040	-0.656880	-0.000058
C45	C	0.758116	-0.584057	-0.000048
C46	C	0.822289	-0.556170	-0.000035
C47	C	0.952154	0.087527	-0.000029
C48	C	1.029658	0.088666	-0.000036
C49	C	0.819000	0.220684	-0.000047
C50	C	0.820140	0.298188	-0.000059
N51	N	0.824471	0.093007	0.195640
N52	N	0.824508	0.093021	-0.195693
C53	C	0.872096	0.045414	0.238911
C54	C	0.872100	0.045413	0.325458
C55	C	0.824481	0.093009	0.368732
C56	C	0.776850	0.140604	0.325455
C57	C	0.776844	0.140601	0.238909
C58	C	0.776874	0.140617	0.674483
C59	C	0.776885	0.140618	0.761035
C60	C	0.872130	0.045430	0.761031
C61	C	0.872124	0.045426	0.674486
C62	C	0.824491	0.093019	0.631216
C63	C	0.824487	0.093018	0.537372
C64	C	0.824488	0.093014	0.462575
H65	H	0.597088	0.212713	-0.000041
H66	H	0.738106	0.179378	0.796267
H67	H	0.628010	-0.018178	-0.000017
H68	H	0.020968	0.204211	-0.000038
H69	H	0.937635	-0.578390	-0.000032
H70	H	0.495896	-0.020129	-0.000014
H71	H	0.738091	0.179370	0.639260
H72	H	0.738074	0.179355	0.360694
H73	H	0.910880	0.006659	0.360689
H74	H	0.944179	-0.134379	0.000011
H75	H	0.738062	0.179355	0.203679
H76	H	0.942230	-0.266488	-0.000011
H77	H	0.711342	-0.235581	-0.000021
H78	H	0.935686	-0.710500	-0.000059
H79	H	0.153078	0.206160	-0.000032
H80	H	0.704794	-0.679592	-0.000062
H81	H	0.706740	-0.547478	-0.000046
H82	H	0.183999	-0.024728	-0.000026
H83	H	0.713282	-0.103462	-0.000017
H84	H	0.910876	0.006659	0.203682
H85	H	0.910902	0.006672	0.639255
H86	H	0.910913	0.006675	0.796271
H87	H	0.051883	-0.026685	-0.000038
H88	H	0.464978	0.210765	-0.000025
