data_functionalizedCrystal
_audit_creation_method	'MofGen! by Chris Wilmer'
_symmetry_space_group_name_H-M	'P1'
_symmetry_Int_Tables_number	1
_symmetry_cell_setting	triclinic
loop_
_symmetry_equiv_pos_as_xyz
  x,y,z
_cell_length_a	13.031981
_cell_length_b	14.908750
_cell_length_c	13.032268
_cell_angle_alpha	100.844162
_cell_angle_beta	90.931652
_cell_angle_gamma	85.675630
loop_
_atom_site_label
_atom_site_type_symbol
_atom_site_fract_x
_atom_site_fract_y
_atom_site_fract_z
Zn1	Zn	-0.556289	-1.270509	0.435082
Zn2	Zn	-0.056289	-0.770509	0.935082
Zn3	Zn	-0.706747	-1.275228	0.240903
Zn4	Zn	-0.206747	-0.775228	0.740903
Zn5	Zn	-0.527037	-1.140658	0.272770
Zn6	Zn	-0.027037	-0.640658	0.772770
Zn7	Zn	-0.718614	-1.102881	0.425622
Zn8	Zn	-0.218614	-0.602881	0.925622
O9	O	-0.627172	-1.197319	0.343594
O10	O	-0.127172	-0.697319	0.843594
O11	O	-0.583523	-1.397606	0.399947
O12	O	-0.083523	-0.897606	0.899947
O13	O	-0.665700	-1.275162	0.099896
O14	O	-0.165700	-0.775162	0.599896
O15	O	-0.387774	-1.171717	0.311597
O16	O	0.112226	-0.671717	0.811597
O17	O	-0.694065	-1.401073	0.257284
O18	O	-0.194065	-0.901073	0.757284
O19	O	-0.409265	-1.267118	0.430847
O20	O	0.090735	-0.767118	0.930847
O21	O	-0.533668	-1.176293	0.123309
O22	O	-0.033668	-0.676293	0.623309
O23	O	-0.545174	-1.009176	0.302423
O24	O	-0.045174	-0.509176	0.802423
O25	O	-0.714289	-1.107333	0.572110
O26	O	-0.214289	-0.607333	1.072110
O27	O	-0.685925	-0.981422	0.414723
O28	O	-0.185925	-0.481422	0.914723
O29	O	-0.595030	-1.230488	0.579061
O30	O	-0.095030	-0.730488	1.079061
O31	O	-0.851464	-1.238531	0.248110
O32	O	-0.351464	-0.738531	0.748110
O33	O	-0.860183	-1.111909	0.383823
O34	O	-0.360183	-0.611909	0.883823
C35	C	-0.613664	-0.962506	0.361005
C36	C	-0.113664	-0.462506	0.861005
C37	C	-0.607912	-0.862047	0.368475
C38	C	-0.107912	-0.362047	0.868475
C39	C	-0.892943	-1.171655	0.311503
C40	C	-0.392943	-0.671655	0.811503
C41	C	-1.006650	-1.160754	0.297802
C42	C	-0.506650	-0.660754	0.797802
C43	C	-0.542381	-0.718622	0.453362
C44	C	-0.042381	-0.218622	0.953362
C45	C	-0.547776	-0.813012	0.446350
C46	C	-0.047776	-0.313012	0.946350
C47	C	-0.662659	-0.816683	0.297610
C48	C	-0.162659	-0.316683	0.797610
C49	C	-0.657264	-0.722292	0.304622
C50	C	-0.157264	-0.222292	0.804622
C51	C	-0.597121	-0.673265	0.382500
C52	C	-0.097121	-0.173265	0.882500
C53	C	-0.591720	-0.578874	0.389507
C54	C	-0.091720	-0.078874	0.889507
C55	C	-0.706609	-0.582545	0.240773
C56	C	-0.206609	-0.082545	0.740773
C57	C	-0.712004	-0.676936	0.233760
C58	C	-0.212004	-0.176936	0.733760
C59	C	-1.067900	-1.203054	0.350762
C60	C	-0.567900	-0.703054	0.850762
C61	C	-1.185422	-1.191788	0.336603
C62	C	-0.685422	-0.691788	0.836603
C63	C	-0.360366	-1.223105	0.375832
C64	C	0.139634	-0.723105	0.875832
C65	C	-0.246670	-1.234093	0.389569
C66	C	0.253330	-0.734093	0.889569
C67	C	-0.659246	-1.164170	0.614296
C68	C	-0.159246	-0.664170	1.114296
C69	C	-0.672914	-1.150044	0.729653
C70	C	-0.172914	-0.650044	1.229653
C71	C	-0.640722	-0.433051	0.326109
C72	C	-0.140722	0.066949	0.826109
C73	C	-0.646467	-0.533510	0.318642
C74	C	-0.146467	-0.033510	0.818642
C75	C	-0.595151	-1.230398	0.073950
C76	C	-0.095151	-0.730398	0.573950
C77	C	-0.581205	-1.244727	-0.041384
C78	C	-0.081205	-0.744727	0.458616
C79	C	-0.620001	-1.204681	0.784522
C80	C	-0.120001	-0.704681	1.284522
C81	C	-0.634126	-1.190082	0.903749
C82	C	-0.134126	-0.690082	1.403749
H83	H	-0.542744	-0.538958	0.452915
H84	H	-0.042744	-0.038958	0.952915
H85	H	-1.212109	-1.278647	0.445400
H86	H	-0.712109	-0.778647	0.945400
H87	H	-0.689881	-1.132489	0.945039
H88	H	-0.189881	-0.632489	1.445039
N89	N	-0.507331	-1.321006	0.903941
N90	N	-0.007331	-0.821006	1.403941
H91	H	-0.507708	-1.320623	0.826520
H92	H	-0.007708	-0.820623	1.326520
H93	H	-0.529187	-1.381718	0.916124
H94	H	-0.029187	-0.881718	1.416124
N95	N	-0.477504	-0.665744	0.537347
N96	N	0.022496	-0.165744	1.037347
H97	H	-0.503219	-0.671561	0.608324
H98	H	-0.003219	-0.171561	1.108324
H99	H	-0.482412	-0.599089	0.530944
H100	H	0.017588	-0.099089	1.030944
N101	N	-0.488740	-0.861934	0.522782
N102	N	0.011260	-0.361934	1.022782
H103	H	-0.449824	-0.816549	0.573179
H104	H	0.050176	-0.316549	1.073179
H105	H	-0.438577	-0.910824	0.483431
H106	H	0.061423	-0.410824	0.983431
N107	N	-0.727525	-0.869569	0.213621
N108	N	-0.227525	-0.369569	0.713621
H109	H	-0.722635	-0.936247	0.219936
H110	H	-0.222635	-0.436247	0.719936
H111	H	-0.701763	-0.863683	0.142688
H112	H	-0.201763	-0.363683	0.642688
H113	H	-0.728666	-1.092454	0.770947
H114	H	-0.228666	-0.592454	1.270947
N115	N	-1.231195	-1.132774	0.262646
N116	N	-0.731195	-0.632774	0.762646
H117	H	-1.174174	-1.106094	0.229248
H118	H	-0.674174	-0.606094	0.729248
H119	H	-1.278155	-1.081528	0.302648
H120	H	-0.778155	-0.581528	0.802648
H121	H	-0.760973	-0.716866	0.170356
H122	H	-0.260973	-0.216866	0.670356
N123	N	-1.052419	-1.101735	0.223854
N124	N	-0.552419	-0.601735	0.723854
H125	H	-1.099369	-1.050441	0.263790
H126	H	-0.599369	-0.550441	0.763790
H127	H	-1.093104	-1.140236	0.167783
H128	H	-0.593104	-0.640236	0.667783
H129	H	-0.751185	-0.545606	0.183073
H130	H	-0.251185	-0.045606	0.683073
H131	H	-0.564238	-1.262262	0.743230
H132	H	-0.064238	-0.762262	1.243230
H133	H	-1.033335	-1.247604	0.406589
H134	H	-0.533335	-0.747604	0.906589
