data_functionalizedCrystal
_audit_creation_method	'MofGen! by Chris Wilmer'
_symmetry_space_group_name_H-M	'P1'
_symmetry_Int_Tables_number	1
_symmetry_cell_setting	triclinic
loop_
_symmetry_equiv_pos_as_xyz
  x,y,z
_cell_length_a	10.654554
_cell_length_b	10.540535
_cell_length_c	9.130313
_cell_angle_alpha	89.997370
_cell_angle_beta	90.001106
_cell_angle_gamma	84.505193
loop_
_atom_site_label
_atom_site_type_symbol
_atom_site_fract_x
_atom_site_fract_y
_atom_site_fract_z
O1	O	1.667891	0.178322	-0.121759
O2	O	1.302419	0.195304	-0.121772
O3	O	1.493496	0.002103	-0.121750
O4	O	1.476814	0.371523	-0.121781
O5	O	1.493493	0.002109	0.121848
O6	O	1.302416	0.195309	0.121827
O7	O	1.667888	0.178328	0.121840
Cu8	Cu	1.485152	0.186819	0.144076
Cu9	Cu	1.485155	0.186813	-0.144008
O10	O	1.476811	0.371528	0.121818
C11	C	1.255619	0.194058	0.000026
C12	C	1.116175	0.190324	0.000021
C13	C	1.492245	-0.045197	0.000050
C14	C	1.488505	-0.186144	0.000051
C15	C	0.905703	0.300574	0.000025
C16	C	1.036726	0.304083	0.000014
C17	C	1.064595	0.073049	0.000025
C18	C	0.933575	0.069541	0.000026
C19	C	0.826260	0.414340	0.000033
C20	C	0.877831	0.531616	0.000026
C21	C	1.008853	0.535125	0.000014
C22	C	1.088306	0.421359	0.000010
C23	C	1.348996	-0.222766	0.000036
C24	C	1.345061	-0.369365	-0.000543
C25	C	1.552191	-0.395493	-0.138816
C26	C	1.555159	-0.248729	-0.138906
C27	C	1.557186	-0.248862	0.138121
C28	C	1.550734	-0.395206	0.139920
C29	C	1.714688	0.179573	0.000039
C30	C	1.854132	0.183307	0.000034
C31	C	1.478062	0.418828	0.000015
C32	C	1.481802	0.559775	0.000003
N33	N	1.485159	0.186822	0.346698
N34	N	1.485157	0.186799	-0.346631
C35	C	1.569790	0.101303	0.423360
C36	C	1.569787	0.101287	0.576697
C37	C	1.400518	0.272323	0.576697
C38	C	1.400516	0.272331	0.423363
C39	C	1.654433	0.015794	0.346695
C40	C	1.739072	-0.069732	0.423357
C41	C	1.739069	-0.069747	0.576694
C42	C	1.654427	0.015764	0.653369
H43	H	0.719574	0.411495	0.000048
N44	N	1.830361	-0.161981	0.659376
H45	H	1.781888	-0.218661	0.722991
H46	H	1.883954	-0.216052	0.587437
H47	H	1.654446	0.015801	0.221841
N48	N	1.690623	-0.218255	-0.146725
H49	H	1.703363	-0.166690	-0.237846
H50	H	1.711024	-0.167575	-0.057401
H51	H	0.891585	-0.025948	0.000031
N52	N	1.309245	0.364572	0.340662
H53	H	1.253212	0.315533	0.277045
H54	H	1.255716	0.418726	0.412583
H55	H	1.050838	0.630617	-0.000004
N56	N	1.685553	-0.458262	-0.145141
H57	H	1.683987	-0.553840	-0.149591
H58	H	1.728936	-0.428028	-0.235231
N59	N	1.150293	-0.049643	0.000042
H60	H	1.133582	-0.100750	0.090350
H61	H	1.133550	-0.100662	-0.090314
H62	H	0.813133	0.624240	0.000019
N63	N	1.229623	0.425139	-0.000023
H64	H	1.250241	0.516691	-0.000036
H65	H	1.266572	0.380573	0.090283
N66	N	1.499530	-0.192615	0.277560
H67	H	1.428298	-0.125897	0.252636
H68	H	1.465918	-0.262273	0.337784
N69	N	1.654406	0.015754	0.818754
H70	H	1.635368	-0.070673	0.855684
H71	H	1.739909	0.035078	0.855583
H72	H	1.290000	-0.398689	0.098939
N73	N	1.278034	-0.167160	0.131895
H74	H	1.276612	-0.071227	0.129978
H75	H	1.188782	-0.191879	0.129698
H76	H	1.296321	-0.179285	-0.099372
H77	H	1.503899	-0.426371	-0.242533
H78	H	1.290289	-0.397794	-0.100656
H79	H	1.499511	-0.423800	0.242621
N80	N	1.492199	-0.195475	-0.276889
H81	H	1.462780	-0.267370	-0.337081
H82	H	1.417421	-0.133634	-0.250108
H83	H	1.650537	-0.444276	0.148724
H84	H	1.659827	-0.226702	0.139479
N85	N	1.830333	-0.161984	0.340669
H86	H	1.817492	-0.149005	0.231899
H87	H	1.919562	-0.146500	0.367467
H88	H	1.331606	0.341943	0.639136
