data_functionalizedCrystal
_audit_creation_method	'MofGen! by Chris Wilmer'
_symmetry_space_group_name_H-M	'P1'
_symmetry_Int_Tables_number	1
_symmetry_cell_setting	triclinic
loop_
_symmetry_equiv_pos_as_xyz
  x,y,z
_cell_length_a	6.817900
_cell_length_b	19.551786
_cell_length_c	16.255661
_cell_angle_alpha	95.873540
_cell_angle_beta	103.488922
_cell_angle_gamma	101.662645
loop_
_atom_site_label
_atom_site_type_symbol
_atom_site_fract_x
_atom_site_fract_y
_atom_site_fract_z
V1	V	-4.017639	-0.097240	-0.264266
O2	O	-4.014572	0.004092	-0.258831
O3	O	-3.960325	-0.192251	-0.262848
O4	O	-3.969317	-0.095999	-0.379345
O5	O	-4.005519	-0.092827	-0.141528
V6	V	-4.502412	-0.085089	-0.249539
O7	O	-4.276156	-0.123893	-0.296573
O8	O	-4.694092	-0.058436	-0.217232
O9	O	-4.336519	0.009923	-0.250957
O10	O	-4.622875	-0.186421	-0.254973
O11	O	-4.631929	-0.089502	-0.372277
O12	O	-4.327527	-0.086330	-0.134460
C13	C	-3.803155	-0.215405	-0.258779
C14	C	-3.837582	-0.293080	-0.258386
C15	C	-4.048290	-0.842665	-0.178110
C16	C	-4.015924	-0.769679	-0.178470
C17	C	-4.037153	-0.743287	-0.256148
C18	C	-4.090702	-0.789885	-0.333470
C19	C	-4.123046	-0.862868	-0.333107
C20	C	-4.131645	-0.637760	-0.319333
C21	C	-4.099312	-0.564778	-0.319694
C22	C	-3.937384	-0.518182	-0.257271
C23	C	-3.807812	-0.544577	-0.194475
C24	C	-3.840156	-0.617560	-0.194111
C25	C	-4.002083	-0.664150	-0.256550
C26	C	-3.848732	-0.392454	-0.180345
C27	C	-3.816354	-0.319468	-0.180708
C28	C	-3.891154	-0.339676	-0.335710
C29	C	-3.923510	-0.412660	-0.335344
C30	C	-3.902305	-0.439045	-0.257659
C31	C	-3.814624	-0.092625	-0.407381
C32	C	-3.856339	-0.092239	-0.501461
C33	C	-3.767326	-0.087629	-0.724261
C34	C	-3.918191	-0.147122	-0.793979
C35	C	-3.932791	-0.091515	-0.673707
C36	C	-3.856280	-0.031341	-0.771623
C37	C	-4.006625	-0.090813	-0.840087
C38	C	-4.083133	-0.151061	-0.742195
C39	C	-4.021165	-0.035228	-0.719824
C40	C	-4.172165	-0.094738	-0.789522
C41	C	-3.890253	-0.091920	-0.577859
C42	C	-4.049180	-0.090413	-0.935934
C43	C	-4.157030	0.033073	-0.255023
C44	C	-4.101842	0.110747	-0.255422
C45	C	-4.145562	-0.089707	-0.106419
C46	C	-4.083085	-0.090089	-0.012339
H47	H	-3.972303	-0.731739	-0.115511
H48	H	-3.772736	-0.281535	-0.117748
N49	N	-3.914062	-0.311218	-0.419492
H50	H	-3.952905	-0.351810	-0.468416
H51	H	-3.778373	-0.278880	-0.419591
H52	H	-4.166652	-0.900802	-0.396065
N53	N	-4.113620	-0.761422	-0.417251
H54	H	-4.152457	-0.802014	-0.466175
H55	H	-3.977938	-0.729080	-0.417351
H56	H	-4.343756	-0.097759	-0.817881
N57	N	-3.540192	-0.083752	-0.686505
H58	H	-3.477709	-0.039700	-0.642402
H59	H	-3.465940	-0.082203	-0.733509
N60	N	-3.633133	-0.494321	-0.127159
H61	H	-3.496494	-0.505115	-0.130984
H62	H	-3.653755	-0.500112	-0.068501
N63	N	-3.700412	-0.646027	-0.126388
H64	H	-3.552501	-0.631416	-0.130330
H65	H	-3.745657	-0.699326	-0.135671
H66	H	-3.760765	0.019242	-0.785027
N67	N	-3.981296	-0.462919	-0.418729
H68	H	-3.868130	-0.452137	-0.449249
H69	H	-4.115953	-0.457111	-0.456034
H70	H	-3.875104	-0.194429	-0.826257
N71	N	-4.209637	-0.218154	-0.724640
H72	H	-4.180425	-0.218020	-0.660779
H73	H	-4.171100	-0.260342	-0.752417
N74	N	-4.239047	-0.536312	-0.387422
H75	H	-4.386967	-0.550929	-0.383492
H76	H	-4.229630	-0.555939	-0.445940
N77	N	-4.025415	-0.871123	-0.094325
H78	H	-3.986574	-0.830530	-0.045402
H79	H	-3.913307	-0.898464	-0.087368
N80	N	-4.078141	0.027437	-0.677036
H81	H	-3.951664	0.057622	-0.633273
H82	H	-4.189828	0.010189	-0.647675
H83	H	-4.263505	-0.675694	-0.370171
N84	N	-3.825858	-0.420919	-0.096561
H85	H	-3.787003	-0.380327	-0.047637
H86	H	-3.713762	-0.448266	-0.089609
