data_functionalizedCrystal
_audit_creation_method	'MofGen! by Chris Wilmer'
_symmetry_space_group_name_H-M	'P1'
_symmetry_Int_Tables_number	1
_symmetry_cell_setting	triclinic
loop_
_symmetry_equiv_pos_as_xyz
  x,y,z
_cell_length_a	15.298114
_cell_length_b	19.121117
_cell_length_c	15.296720
_cell_angle_alpha	78.389849
_cell_angle_beta	110.778933
_cell_angle_gamma	97.625729
loop_
_atom_site_label
_atom_site_type_symbol
_atom_site_fract_x
_atom_site_fract_y
_atom_site_fract_z
Zn1	Zn	1.297631	0.496306	-0.312158
Zn2	Zn	1.797631	0.996306	0.187842
Zn3	Zn	1.317791	0.596421	-0.163277
Zn4	Zn	1.817791	1.096421	0.336723
Zn5	Zn	1.171345	0.461711	-0.181331
Zn6	Zn	1.671345	0.961711	0.318669
Zn7	Zn	1.135432	0.596409	-0.345698
Zn8	Zn	1.635432	1.096409	0.154302
O9	O	1.230550	0.537712	-0.250616
O10	O	1.730550	1.037712	0.249384
O11	O	1.429474	0.524070	-0.270816
O12	O	1.929474	1.024070	0.229184
O13	O	1.321832	0.564078	-0.034576
O14	O	1.821832	1.064078	0.465424
O15	O	1.194690	0.368030	-0.192205
O16	O	1.694690	0.868030	0.307795
O17	O	1.444285	0.597624	-0.161433
O18	O	1.944285	1.097624	0.338567
O19	O	1.287472	0.393447	-0.288323
O20	O	1.787472	0.893447	0.211677
O21	O	1.214239	0.465107	-0.047841
O22	O	1.714239	0.965107	0.452159
O23	O	1.037413	0.465096	-0.224727
O24	O	1.537413	0.965096	0.275273
O25	O	1.133481	0.597603	-0.472344
O26	O	1.633481	1.097603	0.027656
O27	O	1.011027	0.564058	-0.345487
O28	O	1.511027	1.064058	0.154513
O29	O	1.252648	0.524058	-0.447702
O30	O	1.752648	1.024058	0.052298
O31	O	1.287008	0.694690	-0.193956
O32	O	1.787008	1.194690	0.306044
O33	O	1.153030	0.694681	-0.327980
O34	O	1.653030	1.194681	0.172020
C35	C	0.990728	0.510822	-0.290706
C36	C	1.490728	1.010822	0.209294
C37	C	0.888126	0.499338	-0.307881
C38	C	1.388126	0.999338	0.192119
C39	C	1.218331	0.720171	-0.262664
C40	C	1.718331	1.220171	0.237336
C41	C	1.213182	0.798240	-0.267836
C42	C	1.713182	1.298240	0.232164
C43	C	0.629837	0.619822	-0.128100
C44	C	1.129837	1.119822	0.371900
C45	C	0.726238	0.630610	-0.111957
C46	C	1.226238	1.130610	0.388043
C47	C	0.766715	0.597793	-0.160936
C48	C	1.266715	1.097793	0.339064
C49	C	0.710781	0.554186	-0.226062
C50	C	1.210781	1.054186	0.273938
C51	C	0.614372	0.543392	-0.242201
C52	C	1.114372	1.043392	0.257799
C53	C	0.751250	0.521363	-0.275038
C54	C	1.251250	1.021363	0.224962
C55	C	0.695316	0.477755	-0.340163
C56	C	1.195316	0.977755	0.159837
C57	C	0.598916	0.466964	-0.356300
C58	C	1.098916	0.966964	0.143700
C59	C	0.558439	0.499781	-0.307320
C60	C	1.058439	0.999781	0.192680
C61	C	0.847659	0.532157	-0.258898
C62	C	1.347659	1.032157	0.241102
C63	C	0.832193	0.455727	-0.373000
C64	C	1.332193	0.955727	0.127000
C65	C	0.735792	0.444939	-0.389143
C66	C	1.235792	0.944939	0.110857
C67	C	1.180579	1.239798	-0.300654
C68	C	1.680579	1.739798	0.199346
C69	C	1.185418	1.166443	-0.295784
C70	C	1.685418	1.666443	0.204216
C71	C	1.257630	1.129758	-0.223605
C72	C	1.757630	1.629758	0.276395
C73	C	1.325012	1.166435	-0.156298
C74	C	1.825012	1.666435	0.343702
C75	C	1.320175	1.239790	-0.161172
C76	C	1.820175	1.739790	0.338828
C77	C	1.275728	0.908272	-0.205403
C78	C	1.775728	1.408272	0.294597
C79	C	1.280557	0.834911	-0.200532
C80	C	1.780557	1.334911	0.299468
C81	C	1.140964	0.834925	-0.340019
C82	C	1.640964	1.334925	0.159981
C83	C	1.136131	0.908281	-0.344884
C84	C	1.636131	1.408281	0.155116
C85	C	1.203516	0.944952	-0.277580
C86	C	1.703516	1.444952	0.222420
C87	C	1.262577	1.054776	-0.218624
C88	C	1.762577	1.554776	0.281376
C89	C	1.198572	1.019933	-0.282565
C90	C	1.698572	1.519933	0.217435
C91	C	1.471308	0.564707	-0.210369
C92	C	1.971308	1.064707	0.289631
C93	C	1.573905	0.576211	-0.193219
C94	C	2.073905	1.076211	0.306781
C95	C	1.186810	0.564688	-0.494965
C96	C	1.686810	1.064688	0.005035
C97	C	1.168170	0.576184	-0.599092
C98	C	1.668170	1.076184	-0.099092
C99	C	1.242808	1.354540	-0.238527
C100	C	1.742808	1.854540	0.261473
C101	C	1.247954	1.276469	-0.233349
C102	C	1.747954	1.776469	0.266651
C103	C	1.363811	0.455430	-0.841289
C104	C	1.863811	0.955430	-0.341289
C105	C	1.381330	0.444631	-0.743456
C106	C	1.881330	0.944631	-0.243456
C107	C	1.328041	0.477518	-0.707360
C108	C	1.828041	0.977518	-0.207360
C109	C	1.257232	0.521207	-0.769107
C110	C	1.757232	1.021207	-0.269107
C111	C	1.239716	0.532011	-0.866950
C112	C	1.739716	1.032011	-0.366950
C113	C	1.203946	0.554099	-0.733020
C114	C	1.703946	1.054099	-0.233020
C115	C	1.133137	0.597788	-0.794768
C116	C	1.633137	1.097788	-0.294768
C117	C	1.115624	0.608590	-0.892600
C118	C	1.615624	1.108590	-0.392600
C119	C	1.168913	0.575703	-0.928696
C120	C	1.668913	1.075703	-0.428696
C121	C	1.221462	0.543295	-0.635178
C122	C	1.721462	1.043295	-0.135178
C123	C	1.097367	0.619876	-0.660838
C124	C	1.597367	1.119876	-0.160838
C125	C	1.079848	0.630675	-0.758672
C126	C	1.579848	1.130675	-0.258672
C127	C	1.274176	0.510795	-0.007205
C128	C	1.774176	1.010795	0.492795
C129	C	1.293008	0.499122	0.096964
C130	C	1.793008	0.999122	0.596964
H131	H	0.893191	0.567663	-0.205873
H132	H	1.393191	1.067663	0.294127
H133	H	1.154653	0.584493	-1.008359
H134	H	1.654653	1.084493	-0.508359
O135	O	1.421260	0.419942	-0.880220
O136	O	1.921260	0.919942	-0.380220
H137	H	1.397172	0.434785	-0.958627
H138	H	1.897172	0.934785	-0.458627
H139	H	1.321371	1.024901	-0.159854
H140	H	1.821371	1.524901	0.340146
H141	H	1.279115	0.507723	-0.584912
H142	H	1.779115	1.007723	-0.084912
O143	O	1.402900	1.126868	-0.078451
O144	O	1.902900	1.626868	0.421549
H145	H	1.448944	1.164695	-0.032475
H146	H	1.948944	1.664695	0.467525
O147	O	0.454463	0.488139	-0.324719
O148	O	0.954463	0.988139	0.175281
H149	H	0.422139	0.540363	-0.351281
H150	H	0.922139	1.040363	0.148719
H151	H	0.553378	0.431450	-0.409322
H152	H	1.053378	0.931450	0.090678
O153	O	1.346923	0.465867	-0.601841
O154	O	1.846923	0.965867	-0.101841
H155	H	1.405106	0.429957	-0.564969
H156	H	1.905106	0.929957	-0.064969
O157	O	1.039252	0.655709	-0.959204
O158	O	1.539252	1.155709	-0.459204
H159	H	1.005132	0.676756	-0.917673
H160	H	1.505132	1.176756	-0.417673
H161	H	0.596873	0.646531	-0.088221
H162	H	1.096873	1.146531	0.411779
O163	O	1.039864	0.655344	-0.621935
O164	O	1.539864	1.155344	-0.121935
H165	H	1.086743	0.690782	-0.572801
H166	H	1.586743	1.190782	-0.072801
H167	H	1.330594	0.938120	-0.150596
H168	H	1.830594	1.438120	0.349404
O169	O	1.058249	0.947846	-0.422741
O170	O	1.558249	1.447846	0.077259
H171	H	1.016619	0.971418	-0.390843
H172	H	1.516619	1.471418	0.109157
O173	O	0.675460	0.397895	-0.459369
O174	O	1.175460	0.897895	0.040631
H175	H	0.620917	0.429720	-0.516386
H176	H	1.120917	0.929720	-0.016386
O177	O	0.875844	0.420325	-0.425826
O178	O	1.375844	0.920325	0.074174
H179	H	0.820759	0.388178	-0.473809
H180	H	1.320759	0.888178	0.026191
H181	H	1.121777	1.269662	-0.359430
H182	H	1.621777	1.769662	0.140570
H183	H	1.022194	0.666246	-0.808960
H184	H	1.522194	1.166246	-0.308960
H185	H	1.130557	1.136586	-0.350589
H186	H	1.630557	1.636586	0.149411
O187	O	0.870689	0.609426	-0.143535
O188	O	1.370689	1.109426	0.356465
H189	H	0.889201	0.667341	-0.161597
H190	H	1.389201	1.167341	0.338403
O191	O	0.786564	0.677635	-0.041713
O192	O	1.286564	1.177635	0.458287
H193	H	0.761534	0.732464	-0.064390
H194	H	1.261534	1.232464	0.435610
O195	O	1.068288	0.795378	-0.412615
O196	O	1.568288	1.295378	0.087385
H197	H	1.103230	0.771807	-0.451195
H198	H	1.603230	1.271807	0.048805
O199	O	1.358451	0.795341	-0.122685
O200	O	1.858451	1.295341	0.377315
H201	H	1.404502	0.833165	-0.076708
H202	H	1.904502	1.333165	0.423292
H203	H	1.375041	1.269647	-0.106368
H204	H	1.875041	1.769647	0.393632
O205	O	1.120682	1.059498	-0.360403
O206	O	1.620682	1.559498	0.139597
H207	H	1.151217	1.102769	-0.403411
H208	H	1.651217	1.602769	0.096589
H209	H	1.438985	0.409062	-0.693188
H210	H	1.938985	0.909062	-0.193188
