data_functionalizedCrystal
_audit_creation_method	'MofGen! by Chris Wilmer'
_symmetry_space_group_name_H-M	'P1'
_symmetry_Int_Tables_number	1
_symmetry_cell_setting	triclinic
loop_
_symmetry_equiv_pos_as_xyz
  x,y,z
_cell_length_a	19.077105
_cell_length_b	17.077402
_cell_length_c	19.077271
_cell_angle_alpha	87.673975
_cell_angle_beta	90.107074
_cell_angle_gamma	92.279266
loop_
_atom_site_label
_atom_site_type_symbol
_atom_site_fract_x
_atom_site_fract_y
_atom_site_fract_z
Zn1	Zn	1.058274	0.340278	0.440431
Zn2	Zn	1.062914	0.477024	0.322924
Zn3	Zn	0.945491	0.340717	0.318222
Zn4	Zn	0.940736	0.466443	0.435679
O5	O	1.001854	0.406115	0.379314
O6	O	1.157222	0.362662	0.428800
O7	O	1.051269	0.463554	0.223967
O8	O	0.960501	0.230813	0.334455
O9	O	1.160630	0.463128	0.342468
O10	O	1.043362	0.230490	0.424241
O11	O	0.964999	0.363409	0.220513
O12	O	0.846529	0.353150	0.329846
O13	O	0.952396	0.445096	0.534642
O14	O	0.843035	0.445521	0.416141
O15	O	1.038751	0.352403	0.538134
O16	O	1.046658	0.585466	0.337860
O17	O	0.956895	0.577693	0.420700
C18	C	0.819285	0.398236	0.371968
C19	C	0.741181	0.394883	0.368842
C20	C	1.001782	0.610061	0.379290
C21	C	1.001815	0.697312	0.379306
C22	C	0.994526	0.397520	0.562598
C23	C	0.991403	0.393858	0.640702
C24	C	0.702690	0.441480	0.412232
C25	C	0.629303	0.438319	0.409298
C26	C	0.594408	0.388565	0.362971
C27	C	0.632905	0.341963	0.319579
C28	C	0.706290	0.345120	0.322517
C29	C	0.375121	0.373953	0.349378
C30	C	0.301730	0.370801	0.346442
C31	C	0.298133	0.467156	0.436162
C32	C	0.371521	0.470312	0.439093
C33	C	0.410010	0.423707	0.395704
N34	N	0.519395	0.385335	0.359969
N35	N	0.485022	0.426934	0.398709
C36	C	1.185135	0.414026	0.386689
C37	C	1.263239	0.417397	0.389832
C38	C	1.048598	0.742323	0.336223
C39	C	1.048629	0.824304	0.336245
C40	C	1.001874	0.861272	0.379348
C41	C	0.955089	0.816255	0.422436
C42	C	0.955062	0.734275	0.422417
C43	C	0.955149	0.987126	0.422472
C44	C	0.955176	1.069111	0.422490
C45	C	1.048717	1.077154	0.336300
C46	C	1.048689	0.995175	0.336281
C47	C	1.001903	0.950163	0.379368
C48	C	1.001938	1.201373	0.379363
C49	C	1.001959	1.114122	0.379406
C50	C	1.009194	0.414622	0.196745
C51	C	1.012453	0.418070	0.118646
C52	C	0.969006	0.367650	1.080156
C53	C	0.971944	0.371088	1.006769
C54	C	1.018324	0.424951	0.971872
C55	C	1.061776	0.475374	1.010368
C56	C	1.058841	0.471930	1.083754
C57	C	1.031920	0.440837	0.752584
C58	C	1.034850	0.444277	0.679192
C59	C	0.945018	0.339991	0.675598
C60	C	0.942085	0.336556	0.748986
C61	C	0.985539	0.386975	0.787475
N62	N	1.021327	0.428469	0.896859
N63	N	0.982539	0.383453	0.862488
H64	H	0.731096	0.481997	0.449955
H65	H	0.931236	0.323790	1.108563
H66	H	1.086724	0.860949	0.301162
H67	H	0.917024	0.846360	0.457534
C68	C	0.903602	0.684763	0.469810
H69	H	0.875757	0.718520	0.495480
H70	H	0.929224	0.652465	0.501521
H71	H	0.874068	0.652766	0.441665
C72	C	0.924155	0.315623	0.964433
H73	H	0.896108	0.283057	0.995726
H74	H	0.952199	0.283925	0.936896
H75	H	0.894666	0.345671	0.934564
H76	H	1.094221	0.512987	1.115092
C77	C	0.903748	1.109778	0.469900
H78	H	0.910461	1.165049	0.463731
H79	H	0.912101	1.094544	0.517532
H80	H	0.856949	1.094840	0.457673
C81	C	0.903688	0.937614	0.469870
H82	H	0.875843	0.971371	0.495539
H83	H	0.929309	0.905316	0.501581
H84	H	0.874155	0.905619	0.441723
H85	H	0.597966	0.476263	0.444630
C86	C	0.891070	0.277302	0.787367
H87	H	0.865619	0.247760	0.753932
H88	H	0.859294	0.304660	0.814759
H89	H	0.916829	0.242917	0.817081
C90	C	0.255793	0.518408	0.483892
H91	H	0.207089	0.509399	0.475514
H92	H	0.268214	0.572135	0.474010
H93	H	0.265947	0.505296	0.531607
C94	C	0.897230	0.284528	0.633260
H95	H	0.905623	0.294286	0.584556
H96	H	0.849530	0.293406	0.643384
H97	H	0.907067	0.231666	0.645712
H98	H	1.099543	0.519227	0.981950
H99	H	1.072635	0.488126	0.650783
C100	C	0.409899	0.525036	0.490058
H101	H	0.376464	0.552330	0.515484
H102	H	0.439589	0.561685	0.464271
H103	H	0.437315	0.494848	0.521870
H104	H	0.273321	0.330276	0.308720
C105	C	1.100119	0.954511	0.288870
H106	H	1.127991	0.993058	0.263216
H107	H	1.074478	0.922848	0.257145
H108	H	1.129628	0.922548	0.317006
C109	C	0.748634	0.293866	0.274789
H110	H	0.797337	0.302866	0.283179
H111	H	0.738484	0.306965	0.227075
H112	H	0.736210	0.240137	0.284683
H113	H	1.086814	1.113807	0.301219
C114	C	1.079705	0.496309	0.794912
H115	H	1.107738	0.528887	0.763616
H116	H	1.109197	0.466273	0.824781
H117	H	1.051653	0.528006	0.822448
H118	H	0.604487	0.301449	0.281861
C119	C	0.417451	0.322704	0.301639
H120	H	0.386157	0.292631	0.273621
H121	H	0.445022	0.288513	0.329710
H122	H	0.447284	0.355359	0.272119
H123	H	1.086668	0.712229	0.301121
