data_functionalizedCrystal
_audit_creation_method	'MofGen! by Chris Wilmer'
_symmetry_space_group_name_H-M	'P1'
_symmetry_Int_Tables_number	1
_symmetry_cell_setting	triclinic
loop_
_symmetry_equiv_pos_as_xyz
  x,y,z
_cell_length_a	17.699104
_cell_length_b	14.421503
_cell_length_c	17.699083
_cell_angle_alpha	90.000692
_cell_angle_beta	96.712734
_cell_angle_gamma	89.993796
loop_
_atom_site_label
_atom_site_type_symbol
_atom_site_fract_x
_atom_site_fract_y
_atom_site_fract_z
O1	O	1.004054	0.077132	-0.095781
O2	O	0.783678	0.077130	-0.108217
O3	O	0.900092	0.077123	0.008190
O4	O	0.887640	0.077139	-0.212187
O5	O	0.900106	-0.077100	0.008183
O6	O	0.783692	-0.077093	-0.108224
O7	O	1.004068	-0.077091	-0.095788
Cu8	Cu	0.893881	-0.091174	-0.102007
Cu9	Cu	0.893864	0.091213	-0.101998
O10	O	0.887654	-0.077084	-0.212195
C11	C	0.755488	0.000018	-0.107772
C12	C	0.671471	0.000017	-0.106427
N13	N	0.893898	-0.219455	-0.102013
C14	C	0.146600	0.000031	-0.167171
C15	C	0.225543	0.000034	-0.168430
C16	C	0.274161	0.000029	-0.100095
C17	C	0.243831	0.000030	-0.030496
C18	C	0.164889	0.000034	-0.029238
C19	C	0.562197	0.000016	-0.035569
C20	C	0.641144	0.000009	-0.036833
C21	C	0.622852	0.000016	-0.174762
C22	C	0.543909	0.000020	-0.173503
C23	C	0.513587	0.000026	-0.103905
C24	C	0.427987	0.000025	-0.102541
C25	C	0.359759	0.000023	-0.101459
C26	C	0.947740	-0.469087	-0.048174
C27	C	0.879378	-0.530886	-0.033596
C28	C	0.893881	-0.408617	-0.102004
C29	C	0.962227	-0.530912	-0.116538
C30	C	0.893871	-0.591338	-0.101993
C31	C	0.825485	-0.469055	-0.087391
C32	C	0.908379	-0.469075	-0.170363
C33	C	0.839968	-0.530846	-0.155813
C34	C	0.893888	-0.303356	-0.102008
C35	C	0.893857	-0.696597	-0.101989
C36	C	1.032258	0.000023	-0.096233
C37	C	1.116275	0.000030	-0.097578
C38	C	0.899653	0.000011	0.036383
C39	C	0.898314	0.000011	0.120402
N40	N	0.893853	0.219494	-0.101986
C41	C	0.888093	0.000030	-0.240388
C42	C	0.889431	0.000036	-0.324406
C43	C	0.966647	0.000010	0.169017
C44	C	0.965385	0.000018	0.247961
C45	C	0.895789	0.000021	0.278287
C46	C	0.827451	0.000024	0.229665
C47	C	0.828714	0.000023	0.150723
C48	C	0.822356	0.000032	0.548028
C49	C	0.821098	0.000030	0.626976
C50	C	0.959026	0.000027	0.645266
C51	C	0.960289	0.000026	0.566324
C52	C	0.891952	0.000034	0.517709
C53	C	0.893321	0.000027	0.432110
C54	C	0.894419	0.000021	0.363885
H55	H	0.107020	0.000029	-0.222818
Cl56	Cl	0.742806	0.000027	0.089605
Cl57	Cl	0.736445	0.000044	0.486922
Cl58	Cl	0.263662	0.000041	-0.255923
Cl59	Cl	0.860423	-0.572798	0.055664
Cl60	Cl	0.736221	-0.427287	-0.068300
H61	H	0.504328	0.000019	-0.229149
Cl62	Cl	1.017987	-0.427216	0.022143
Cl63	Cl	1.047784	0.000026	0.528205
Cl64	Cl	0.733599	0.000035	0.665099
Cl65	Cl	0.304951	0.000026	0.055412
Cl66	Cl	0.126766	0.000032	0.058255
Cl67	Cl	0.927362	-0.427116	-0.259595
H68	H	0.794368	-0.557791	-0.201334
H69	H	1.020031	-0.558083	-0.128836
Cl70	Cl	1.054144	-0.000002	0.130902
H71	H	0.537518	0.000018	0.021102
H72	H	1.021028	0.000016	0.287541
H73	H	0.647550	0.000015	-0.231432
H74	H	0.770785	0.000032	0.254362
Cl75	Cl	1.044938	0.000021	0.706387
H76	H	0.680728	0.000007	0.018817
