data_functionalizedCrystal
_audit_creation_method	'MofGen! by Chris Wilmer'
_symmetry_space_group_name_H-M	'P1'
_symmetry_Int_Tables_number	1
_symmetry_cell_setting	triclinic
loop_
_symmetry_equiv_pos_as_xyz
  x,y,z
_cell_length_a	15.297475
_cell_length_b	21.295416
_cell_length_c	15.296720
_cell_angle_alpha	99.640632
_cell_angle_beta	88.382886
_cell_angle_gamma	99.667634
loop_
_atom_site_label
_atom_site_type_symbol
_atom_site_fract_x
_atom_site_fract_y
_atom_site_fract_z
Zn1	Zn	1.253312	0.489900	0.726542
Zn2	Zn	1.753312	0.989900	1.226542
Zn3	Zn	1.278558	0.580539	0.580048
Zn4	Zn	1.778558	1.080539	1.080048
Zn5	Zn	1.132196	0.454537	0.554787
Zn6	Zn	1.632196	0.954537	1.054787
Zn7	Zn	1.106785	0.574352	0.701177
Zn8	Zn	1.606785	1.074352	1.201177
O9	O	1.192713	0.524832	0.640639
O10	O	1.692713	1.024832	1.140639
O11	O	1.379236	0.519312	0.728297
O12	O	1.879236	1.019312	1.228297
O13	O	1.280343	0.551615	0.454124
O14	O	1.780343	1.051615	0.954124
O15	O	1.148331	0.371153	0.577615
O16	O	1.648331	0.871153	1.077615
O17	O	1.397784	0.585905	0.620668
O18	O	1.897784	1.085905	1.120668
O19	O	1.237314	0.397133	0.703803
O20	O	1.737314	0.897133	1.203803
O21	O	1.172811	0.459042	0.435565
O22	O	1.672811	0.959042	0.935565
O23	O	1.006250	0.453042	0.553019
O24	O	1.506250	0.953042	1.053019
O25	O	1.105022	0.575359	0.827115
O26	O	1.605022	1.075359	1.327115
O27	O	0.987581	0.541070	0.660571
O28	O	1.487581	1.041070	1.160571
O29	O	1.212675	0.513312	0.845751
O30	O	1.712675	1.013312	1.345751
O31	O	1.255703	0.667794	0.596072
O32	O	1.755703	1.167794	1.096072
O33	O	1.129502	0.663248	0.685065
O34	O	1.629502	1.163248	1.185065
C35	C	0.965133	0.492548	0.601302
C36	C	1.465133	0.992548	1.101302
C37	C	0.867770	0.478754	0.584494
C38	C	1.367770	0.978754	1.084494
C39	C	0.554598	0.623426	0.760768
C40	C	1.054598	1.123426	1.260768
C41	C	0.646076	0.636390	0.776557
C42	C	1.146076	1.136390	1.276557
C43	C	0.701504	0.596982	0.728543
C44	C	1.201504	1.096982	1.228543
C45	C	0.665445	0.544607	0.664736
C46	C	1.165445	1.044607	1.164736
C47	C	0.573959	0.531644	0.648941
C48	C	1.073959	1.031644	1.148941
C49	C	0.720865	0.505201	0.616716
C50	C	1.220865	1.005201	1.116716
C51	C	0.684807	0.452826	0.552909
C52	C	1.184807	0.952826	1.052909
C53	C	0.593329	0.439865	0.537117
C54	C	1.093329	0.939865	1.037117
C55	C	0.537901	0.479273	0.585131
C56	C	1.037901	0.979273	1.085131
C57	C	0.812351	0.518164	0.632512
C58	C	1.312351	1.018164	1.132512
C59	C	0.831712	0.426383	0.520685
C60	C	1.331712	0.926383	1.020685
C61	C	0.740235	0.413418	0.504895
C62	C	1.240235	0.913418	1.004895
C63	C	1.192605	0.688364	0.640580
C64	C	1.692605	1.188364	1.140580
C65	C	1.192634	0.758338	0.640598
C66	C	1.692634	1.258338	1.140598
C67	C	1.258387	0.793563	0.594328
C68	C	1.758387	1.293563	1.094328
C69	C	1.258424	0.859314	0.594358
C70	C	1.758424	1.359314	1.094358
C71	C	1.192695	0.889833	0.640648
C72	C	1.692695	1.389833	1.140648
C73	C	1.126937	0.854600	0.686929
C74	C	1.626937	1.354600	1.186929
C75	C	1.126906	0.788852	0.686904
C76	C	1.626906	1.288852	1.186904
N77	N	1.114912	0.982900	0.634087
N78	N	1.614912	1.482900	1.134087
N79	N	1.114944	1.045358	0.634106
N80	N	1.614944	1.545358	1.134106
C81	C	1.192783	1.087928	0.640727
C82	C	1.692783	1.587928	1.140727
N83	N	1.270593	1.065680	0.647312
N84	N	1.770593	1.565680	1.147312
N85	N	1.270561	1.003216	0.647289
N86	N	1.770561	1.503216	1.147289
C87	C	1.192721	0.961126	0.640681
C88	C	1.692721	1.461126	1.140681
C89	C	1.258581	1.194449	0.594488
C90	C	1.758581	1.694449	1.094488
C91	C	1.258619	1.260202	0.594525
C92	C	1.758619	1.760202	1.094525
C93	C	1.127124	1.255485	0.687090
C94	C	1.627124	1.755485	1.187090
C95	C	1.127094	1.189735	0.687058
C96	C	1.627094	1.689735	1.187058
C97	C	1.192822	1.159220	0.640753
C98	C	1.692822	1.659220	1.140753
C99	C	1.421181	0.557243	0.680129
C100	C	1.921181	1.057243	1.180129
C101	C	1.518540	0.571055	0.696958
C102	C	2.018540	1.071055	1.196958
C103	C	1.153198	0.547590	0.869103
C104	C	1.653198	1.047590	1.369103
C105	C	1.136359	0.557288	0.966461
C106	C	1.636359	1.057288	1.466461
C107	C	1.192840	1.360669	0.640736
C108	C	1.692840	1.860669	1.140736
C109	C	1.192890	1.290717	0.640816
C110	C	1.692890	1.790717	1.140816
C111	C	1.232124	0.502125	0.413071
C112	C	1.732124	1.002125	0.913071
C113	C	1.249133	0.492273	0.315743
C114	C	1.749133	0.992273	0.815743
C115	C	1.313096	0.455413	1.279710
C116	C	1.813096	0.955413	1.779710
C117	C	1.328922	0.446303	1.188238
C118	C	1.828922	0.946303	1.688238
C119	C	1.280783	0.474048	1.132790
C120	C	1.780783	0.974048	1.632790
C121	C	1.216814	0.510906	1.168822
C122	C	1.716814	1.010906	1.668822
C123	C	1.200991	0.520021	1.260303
C124	C	1.700991	1.020021	1.760303
C125	C	1.168678	0.538656	1.113383
C126	C	1.668678	1.038656	1.613383
C127	C	1.104709	0.575513	1.149415
C128	C	1.604709	1.075513	1.649415
C129	C	1.088889	0.584626	1.240888
C130	C	1.588889	1.084626	1.740888
C131	C	1.137028	0.556881	1.296336
C132	C	1.637028	1.056881	1.796336
C133	C	1.184501	0.529541	1.021901
C134	C	1.684501	1.029541	1.521901
C135	C	1.072396	0.594148	1.002494
C136	C	1.572396	1.094148	1.502494
C137	C	1.056570	0.603258	1.093966
C138	C	1.556570	1.103258	1.593966
H139	H	0.563975	0.397223	0.485153
H140	H	1.063975	0.897223	0.985153
H141	H	1.311908	0.768721	0.556625
H142	H	1.811908	1.268721	1.056625
H143	H	1.033198	0.616742	0.957348
H144	H	1.533198	1.116742	1.457348
H145	H	0.841701	0.560808	0.684464
H146	H	1.341701	1.060808	1.184464
N147	N	1.056042	0.887517	0.736849
N148	N	1.556042	1.387517	1.236849
H149	H	0.995826	0.865884	0.712374
H150	H	1.495826	1.365884	1.212374
H151	H	1.058842	0.884201	0.801772
H152	H	1.558842	1.384201	1.301772
N153	N	0.494810	0.665921	0.812543
N154	N	0.994810	1.165921	1.312543
H155	H	0.499913	0.664712	0.877905
H156	H	0.999913	1.164712	1.377905
H157	H	0.513103	0.711746	0.801497
H158	H	1.013103	1.211746	1.301497
H159	H	0.463411	0.468719	0.572281
H160	H	0.963411	0.968719	1.072281
H161	H	1.381008	0.416296	1.158908
H162	H	1.881008	0.916296	1.658908
N163	N	1.055975	0.750857	0.736806
N164	N	1.555975	1.250857	1.236806
H165	H	1.021563	0.714318	0.694151
H166	H	1.521563	1.214318	1.194151
H167	H	1.084561	0.732672	0.783561
H168	H	1.584561	1.232672	1.283561
N169	N	0.701342	0.356940	0.436061
N170	N	1.201342	0.856940	0.936061
H171	H	0.634981	0.354714	0.433339
H172	H	1.134981	0.854714	0.933339
H173	H	0.728144	0.362708	0.376243
H174	H	1.228144	0.862708	0.876243
H175	H	1.312167	1.288883	0.556848
H176	H	1.812167	1.788883	1.056848
H177	H	1.311970	0.888001	0.556680
H178	H	1.811970	1.388001	1.056680
H179	H	0.876843	0.394294	0.481586
H180	H	1.376843	0.894294	0.981586
N181	N	0.800167	0.610965	0.745583
N182	N	1.300167	1.110965	1.245583
H183	H	0.819424	0.572542	0.765607
H184	H	1.319424	1.072542	1.265607
H185	H	0.832519	0.619613	0.689244
H186	H	1.332519	1.119613	1.189244
N187	N	0.684968	0.692878	0.845367
N188	N	1.184968	1.192878	1.345367
H189	H	0.635975	0.715876	0.873387
H190	H	1.135975	1.215876	1.373387
H191	H	0.715927	0.676729	0.892525
H192	H	1.215927	1.176729	1.392525
H193	H	1.312103	1.169604	0.556786
H194	H	1.812103	1.669604	1.056786
H195	H	1.073610	1.280334	0.724784
H196	H	1.573610	1.780334	1.224784
H197	H	1.073549	1.161051	0.724732
H198	H	1.573549	1.661051	1.224732
N199	N	1.253493	0.489793	0.983043
N200	N	1.753493	0.989793	1.483043
H201	H	1.237177	0.444479	0.996633
H202	H	1.737177	0.944479	1.496633
H203	H	1.256184	0.488282	0.916692
H204	H	1.756184	0.988282	1.416692
N205	N	1.297836	0.464224	1.034128
N206	N	1.797836	0.964224	1.534128
H207	H	1.361723	0.482124	1.022466
H208	H	1.861723	0.982124	1.522466
H209	H	1.285532	0.416560	1.009400
H210	H	1.785532	0.916560	1.509400
H211	H	1.352289	0.432832	1.324865
H212	H	1.852289	0.932832	1.824865
N213	N	1.119933	0.566688	1.394994
N214	N	1.619933	1.066688	1.894994
H215	H	1.160127	0.543509	1.424647
H216	H	1.660127	1.043509	1.924647
H217	H	1.132163	0.614350	1.419740
H218	H	1.632163	1.114350	1.919740
N219	N	1.019906	0.624386	1.279756
N220	N	1.519906	1.124386	1.779756
H221	H	0.991809	0.640579	1.230752
H222	H	1.491809	1.140579	1.730752
H223	H	0.972826	0.596797	1.310718
H224	H	1.472826	1.096797	1.810718
H225	H	1.004486	0.633267	1.123317
H226	H	1.504486	1.133267	1.623317
