data_functionalizedCrystal
_audit_creation_method	'MofGen! by Chris Wilmer'
_symmetry_space_group_name_H-M	'P1'
_symmetry_Int_Tables_number	1
_symmetry_cell_setting	triclinic
loop_
_symmetry_equiv_pos_as_xyz
  x,y,z
_cell_length_a	29.839134
_cell_length_b	29.839132
_cell_length_c	12.759387
_cell_angle_alpha	90.039470
_cell_angle_beta	89.967375
_cell_angle_gamma	89.959876
loop_
_atom_site_label
_atom_site_type_symbol
_atom_site_fract_x
_atom_site_fract_y
_atom_site_fract_z
Zn1	Zn	0.686755	0.178891	-0.594281
Zn2	Zn	0.686668	0.254029	-0.418575
Zn3	Zn	0.611624	0.178907	-0.418581
Zn4	Zn	0.611580	0.253988	-0.594177
O5	O	0.649157	0.216454	-0.506404
O6	O	0.749610	0.188869	-0.571015
O7	O	0.676695	0.244087	-0.271555
O8	O	0.621644	0.116038	-0.441934
O9	O	0.749547	0.244072	-0.441924
O10	O	0.676843	0.116026	-0.571020
O11	O	0.621560	0.188896	-0.271559
O12	O	0.548751	0.188856	-0.441833
O13	O	0.621571	0.244003	-0.741212
O14	O	0.548719	0.244018	-0.570843
O15	O	0.676801	0.188829	-0.741289
O16	O	0.676653	0.316891	-0.441823
O17	O	0.621486	0.316861	-0.570837
C18	C	0.532434	0.216435	-0.506328
C19	C	0.482500	0.216437	-0.506320
C20	C	0.172849	0.245219	-0.573497
C21	C	-0.014824	0.245232	-0.573543
O22	O	-0.039095	0.269682	-0.630614
N23	N	-0.038285	0.216470	-0.506483
C24	C	-0.014826	0.187701	-0.439410
O25	O	-0.039087	0.163235	-0.382380
C26	C	0.172846	0.187687	-0.439370
C27	C	0.196306	0.216453	-0.506427
C28	C	0.196308	0.273983	-0.640549
C29	C	0.243224	0.273981	-0.640533
C30	C	0.266680	0.245216	-0.573464
C31	C	0.243221	0.216452	-0.506411
C32	C	0.196305	0.158916	-0.372304
C33	C	0.243226	0.158914	-0.372301
C34	C	0.266685	0.187681	-0.439359
C35	C	0.313593	0.187684	-0.439325
N36	N	0.337054	0.216446	-0.506386
C37	C	0.313598	0.245211	-0.573455
C38	C	-0.113356	0.187712	-0.439435
C39	C	-0.160274	0.187716	-0.439444
C40	C	-0.160269	0.245246	-0.573578
C41	C	-0.113350	0.245243	-0.573563
C42	C	-0.089895	0.216473	-0.506496
C43	C	0.412124	0.245206	-0.573415
C44	C	0.459043	0.245203	-0.573389
C45	C	0.459034	0.187672	-0.439259
C46	C	0.412119	0.187676	-0.439280
C47	C	0.388665	0.216445	-0.506367
O48	O	0.337893	0.163244	-0.382293
O49	O	0.337868	0.269667	-0.630493
C50	C	0.125934	0.245221	-0.573513
C51	C	0.102475	0.216457	-0.506460
C52	C	0.125931	0.187691	-0.439391
C53	C	0.055557	0.216461	-0.506469
C54	C	0.032100	0.245227	-0.573538
C55	C	0.055562	0.273988	-0.640599
C56	C	0.102477	0.273986	-0.640582
C57	C	0.102469	0.158930	-0.372330
C58	C	0.055554	0.158934	-0.372351
C59	C	0.032098	0.187700	-0.439421
C60	C	0.649068	0.333176	-0.506341
C61	C	0.649071	0.383111	-0.506349
C62	C	0.677902	0.692757	-0.439281
C63	C	0.677945	0.880430	-0.439305
O64	O	0.702410	0.904697	-0.382263
N65	N	0.649204	0.903896	-0.506421
C66	C	0.620452	0.880440	-0.573540
O67	O	0.596010	0.904706	-0.630634
C68	C	0.620411	0.692768	-0.573521
C69	C	0.649151	0.669305	-0.506393
C70	C	0.706640	0.669294	-0.372160
C71	C	0.706628	0.622378	-0.372150
C72	C	0.677877	0.598926	-0.439262
C73	C	0.649139	0.622390	-0.506384
C74	C	0.591662	0.669314	-0.640645
C75	C	0.591655	0.622393	-0.640636
C76	C	0.620395	0.598929	-0.573508
C77	C	0.620375	0.552022	-0.573486
N78	N	0.649117	0.528556	-0.506371
C79	C	0.677867	0.552008	-0.439259
C80	C	0.620474	0.978971	-0.573544
C81	C	0.620484	1.025889	-0.573548
C82	C	0.677978	1.025875	-0.439314
C83	C	0.677966	0.978957	-0.439305
C84	C	0.649216	0.955505	-0.506428
C85	C	0.677838	0.453483	-0.439244
C86	C	0.677822	0.406563	-0.439237
C87	C	0.620329	0.406581	-0.573475
C88	C	0.620344	0.453496	-0.573478
C89	C	0.649102	0.476946	-0.506359
O90	O	0.595926	0.527726	-0.630507
O91	O	0.702313	0.527735	-0.382189
C92	C	0.677915	0.739673	-0.439290
C93	C	0.649177	0.763136	-0.506412
C94	C	0.620426	0.739684	-0.573524
C95	C	0.649186	0.810054	-0.506415
C96	C	0.677937	0.833506	-0.439303
C97	C	0.706678	0.810040	-0.372188
C98	C	0.706666	0.763125	-0.372178
C99	C	0.591685	0.763149	-0.640640
C100	C	0.591700	0.810065	-0.640643
C101	C	0.620450	0.833517	-0.573530
C102	C	0.766335	0.216473	-0.506480
C103	C	0.816269	0.216482	-0.506513
C104	C	0.649191	0.216410	-0.780437
C105	C	0.649205	0.216391	-0.897214
C106	C	0.649241	1.099275	-0.506467
C107	C	0.649234	1.049341	-0.506436
C108	C	0.706720	0.158943	-0.897313
C109	C	0.735484	0.130212	-0.952224
C110	C	0.735495	0.130195	-1.061946
C111	C	0.706738	0.158912	-1.116759
C112	C	0.677974	0.187643	-1.061849
C113	C	0.677967	0.187657	-0.952125
C114	C	0.620457	0.245088	-1.061749
C115	C	0.620448	0.245108	-0.952028
C116	C	0.591700	0.273805	-1.116563
C117	C	0.562938	0.302539	-1.061652
C118	C	0.562929	0.302554	-0.951924
C119	C	0.591684	0.273839	-0.897117
C120	C	0.649149	0.216465	-0.233436
C121	C	0.649221	0.216357	-0.116660
H122	H	0.262320	0.297405	-0.695140
H123	H	-0.094253	0.268667	-0.628169
O124	O	0.534976	0.330510	-0.898749
C125	C	0.509593	0.355843	-0.970662
H126	H	0.527998	0.357386	-1.048893
H127	H	0.475488	0.339384	-0.982307
C128	C	0.480469	0.401769	-0.831723
C129	C	0.503076	0.403667	-0.927806
H130	H	0.476447	0.431269	-0.805287
H131	H	0.497569	0.384701	-0.783273
H132	H	0.452050	0.388051	-0.841440
H133	H	0.531496	0.417380	-0.918085
H134	H	0.485981	0.420739	-0.976253
H135	H	0.568257	0.688409	-0.695302
H136	H	0.706719	0.158957	-0.807972
H137	H	0.758897	0.106831	-0.907583
H138	H	0.121574	0.297411	-0.695188
O139	O	0.173583	0.130992	-0.307004
C140	C	0.185019	0.140769	-0.202257
H141	H	0.219066	0.158049	-0.200031
H142	H	0.158586	0.163840	-0.166751
C143	C	0.145407	0.075718	-0.141543
C144	C	0.187227	0.096938	-0.138808
H145	H	0.146767	0.048682	-0.102402
H146	H	0.137701	0.069132	-0.212112
H147	H	0.123384	0.094949	-0.111956
H148	H	0.209248	0.077710	-0.168407
H149	H	0.194937	0.103520	-0.068242
O150	O	0.591712	0.273872	-1.223146
C151	C	0.603221	0.316925	-1.259772
H152	H	0.595513	0.342808	-1.196511
H153	H	0.640498	0.317886	-1.279268
C154	C	0.585316	0.295903	-1.436597
C155	C	0.575846	0.327693	-1.358902
H156	H	0.568431	0.302545	-1.497748
H157	H	0.577564	0.266897	-1.411923
H158	H	0.616381	0.296707	-1.452831
H159	H	0.544783	0.326884	-1.342660
H160	H	0.583592	0.356699	-1.383576
O161	O	0.563731	0.740322	-0.705685
C162	C	0.534713	0.713241	-0.645787
H163	H	0.550575	0.706219	-0.566211
H164	H	0.501430	0.731362	-0.634153
C165	C	0.507063	0.677290	-0.801305
C166	C	0.526548	0.668662	-0.703572
H167	H	0.502024	0.649792	-0.836950
H168	H	0.526612	0.695536	-0.841661
H169	H	0.479330	0.692392	-0.791596
H170	H	0.554283	0.653565	-0.713283
H171	H	0.507003	0.650412	-0.663219
H172	H	0.036456	0.297411	-0.695206
O173	O	0.705713	0.476311	-0.374006
C174	C	0.680164	0.503492	-0.306065
H175	H	0.646110	0.510544	-0.343022
H176	H	0.675244	0.485443	-0.228187
C177	C	0.746729	0.539379	-0.241737
C178	C	0.704905	0.548043	-0.287132
H179	H	0.761991	0.566860	-0.230053
H180	H	0.763942	0.521066	-0.287506
H181	H	0.742623	0.524337	-0.176843
H182	H	0.709011	0.563080	-0.352030
H183	H	0.687693	0.566361	-0.241373
H184	H	0.177215	0.297407	-0.695171
H185	H	0.478142	0.268630	-0.627997
H186	H	0.393033	0.268631	-0.628045
H187	H	-0.179375	0.268668	-0.628189
H188	H	0.568244	0.603301	-0.695299
H189	H	0.262321	0.135483	-0.317692
H190	H	0.758915	0.106797	-1.106654
O191	O	-0.182990	0.159733	-0.374262
C192	C	-0.152220	0.134353	-0.315051
H193	H	-0.118764	0.132820	-0.358090
H194	H	-0.147262	0.150764	-0.235186
C195	C	-0.211593	0.088414	-0.247259
C196	C	-0.170502	0.086528	-0.300124
H197	H	-0.222870	0.058914	-0.238046
H198	H	-0.232323	0.105514	-0.287147
H199	H	-0.207455	0.102092	-0.180710
H200	H	-0.174641	0.072856	-0.366676
H201	H	-0.149772	0.069424	-0.260247
O202	O	0.734666	0.832840	-0.307159
C203	C	0.763663	0.859932	-0.367087
H204	H	0.766399	0.845759	-0.449837
H205	H	0.749787	0.895505	-0.370672
C206	C	0.807026	0.878026	-0.214287
C207	C	0.810390	0.860616	-0.315920
H208	H	0.835849	0.878450	-0.182724
H209	H	0.787490	0.859775	-0.173911
H210	H	0.795461	0.907669	-0.217289
H211	H	0.821949	0.830973	-0.312916
H212	H	0.829930	0.878863	-0.356294
H213	H	0.478141	0.164253	-0.384650
H214	H	-0.094263	0.164283	-0.384815
H215	H	0.706746	0.158892	-1.206101
H216	H	0.393017	0.164253	-0.384675
O217	O	0.032838	0.130946	-0.307172
C218	C	0.063608	0.105566	-0.247960
H219	H	0.097066	0.104038	-0.290992
H220	H	0.068562	0.121975	-0.168090
C221	C	0.004237	0.059620	-0.180189
C222	C	0.045330	0.057739	-0.233046
H223	H	-0.007038	0.030118	-0.170985
H224	H	-0.016494	0.076720	-0.220078
H225	H	0.008371	0.073295	-0.113637
H226	H	0.041195	0.044069	-0.299602
H227	H	0.066060	0.040636	-0.193168
O228	O	0.563764	0.832785	-0.705954
C229	C	0.538381	0.802019	-0.765164
H230	H	0.556774	0.768555	-0.768827
H231	H	0.504267	0.797075	-0.726609
C232	C	0.509299	0.861392	-0.872477
C233	C	0.531892	0.820293	-0.876984
H234	H	0.505294	0.872665	-0.941452
H235	H	0.526399	0.882120	-0.832584
H236	H	0.480873	0.857267	-0.840344
H237	H	0.560319	0.824420	-0.909105
H238	H	0.514796	0.799566	-0.916885
H239	H	0.121563	0.135505	-0.317713
H240	H	0.701225	0.387461	-0.384570
H241	H	0.539524	0.325915	-1.106290
H242	H	0.596943	0.472601	-0.628142
O243	O	0.734529	0.599640	-0.306806
C244	C	0.724733	0.611141	-0.202069
H245	H	0.707464	0.645220	-0.199854
H246	H	0.701645	0.584765	-0.166606
C247	C	0.789756	0.571444	-0.141274
C248	C	0.768550	0.613302	-0.138554
H249	H	0.816785	0.572776	-0.102093
H250	H	0.796356	0.563694	-0.211836
H251	H	0.770512	0.549469	-0.111724
H252	H	0.787793	0.635276	-0.168115
H253	H	0.761955	0.621057	-0.067994
H254	H	0.730055	0.688384	-0.317509
H255	H	0.701369	0.959856	-0.384645
H256	H	0.701388	1.044978	-0.384669
O257	O	0.592548	1.048609	-0.638846
C258	C	0.567165	1.017843	-0.698058
H259	H	0.585560	0.984381	-0.701731
H260	H	0.533052	1.012895	-0.659497
C261	C	0.538074	1.077217	-0.805354
C262	C	0.560670	1.036121	-0.809873
H263	H	0.534066	1.088493	-0.874325
H264	H	0.555174	1.097946	-0.765460
H265	H	0.509650	1.073089	-0.773215
H266	H	0.589096	1.040251	-0.841998
H267	H	0.543575	1.015393	-0.849775
H268	H	0.591681	0.273850	-0.807776
H269	H	0.597061	0.959880	-0.628205
H270	H	0.596919	0.387479	-0.628113
H271	H	0.730069	0.744024	-0.317517
