data_functionalizedCrystal
_audit_creation_method	'MofGen! by Chris Wilmer'
_symmetry_space_group_name_H-M	'P1'
_symmetry_Int_Tables_number	1
_symmetry_cell_setting	triclinic
loop_
_symmetry_equiv_pos_as_xyz
  x,y,z
_cell_length_a	14.395555
_cell_length_b	14.395555
_cell_length_c	14.395555
_cell_angle_alpha	59.995932
_cell_angle_beta	89.999455
_cell_angle_gamma	60.001260
loop_
_atom_site_label
_atom_site_type_symbol
_atom_site_fract_x
_atom_site_fract_y
_atom_site_fract_z
Zr1	Zr	0.894947	1.016757	-0.121876
O2	O	0.746625	1.210566	-0.270217
O3	O	0.940411	0.822957	-0.076399
O4	O	0.940421	1.016762	-0.270204
O5	O	0.746613	1.016755	0.076461
O6	O	1.093295	1.016755	-0.270196
O7	O	0.746616	1.016762	-0.076413
O8	O	1.093278	0.670074	0.076485
O9	O	0.746629	1.363436	-0.270220
O10	O	1.073895	0.902661	-0.057001
O11	O	0.959804	0.902661	0.057082
O12	O	0.959815	1.130841	-0.171098
O13	O	0.845725	1.130841	-0.057016
Zr14	Zr	1.138759	1.016735	0.121953
Zr15	Zr	1.138763	1.016746	-0.121863
Zr16	Zr	0.894943	1.016746	0.121941
Zr17	Zr	0.894954	1.260566	-0.121880
Zr18	Zr	1.138752	0.772926	0.121957
O19	O	1.093295	1.210535	0.076477
O20	O	1.093301	1.210551	-0.270199
O21	O	0.746619	1.210551	0.076458
O22	O	1.287081	0.822926	0.270295
O23	O	1.287087	0.822941	-0.076381
O24	O	0.940405	0.822941	0.270276
O25	O	1.287093	1.016737	-0.076384
O26	O	1.093285	1.016730	0.270281
O27	O	0.940411	1.016737	0.270273
O28	O	1.287090	1.016730	0.076490
O29	O	0.940431	1.363427	-0.270209
O30	O	1.093275	0.670065	0.270287
O31	O	1.287077	0.670056	0.270297
O32	O	1.287080	0.670065	0.076495
O33	O	0.746626	1.363427	-0.076418
O34	O	0.940428	1.363418	-0.076408
O35	O	1.073891	0.902651	0.171176
O36	O	1.187981	0.902651	0.057094
O37	O	1.073902	1.130831	-0.057004
O38	O	0.959811	1.130831	0.057078
C39	C	1.016844	0.711778	0.000043
C40	C	1.016841	0.608274	0.000045
C41	C	0.711876	1.016760	0.000023
C42	C	0.608369	1.016764	0.000017
C43	C	0.954637	0.547682	0.062251
C44	C	0.909557	0.561945	-0.045031
C45	C	1.061894	0.409615	0.107294
C46	C	0.971698	0.623964	-0.107300
C47	C	1.124094	0.471571	0.045102
C48	C	1.079040	0.485881	-0.062244
C49	C	0.485579	1.141178	-0.062184
C50	C	0.454743	1.078987	-0.107260
C51	C	0.454783	1.078951	0.045084
C52	C	0.578896	0.954572	-0.045121
C53	C	0.578933	0.954554	0.107282
C54	C	0.548169	0.892272	0.062233
C55	C	1.321830	1.016732	0.000055
C56	C	1.425337	1.016728	0.000060
C57	C	1.016858	1.016760	-0.304939
C58	C	1.016860	1.016764	-0.408445
C59	C	1.016862	1.321714	0.000034
C60	C	1.016865	1.425218	0.000033
C61	C	0.954647	1.141178	-0.531245
C62	C	1.061914	1.078980	-0.562078
C63	C	0.909599	1.078958	-0.562035
C64	C	1.124191	0.954566	-0.437914
C65	C	0.971798	0.954561	-0.437875
C66	C	1.079130	0.892272	-0.468635
C67	C	1.016848	1.016732	0.305016
C68	C	1.016846	1.016728	0.408523
C69	C	1.321821	0.711764	0.000060
C70	C	1.425325	0.608256	0.000067
C71	C	1.016839	0.711764	0.305021
C72	C	1.016834	0.608256	0.408529
C73	C	1.321816	0.711750	0.305037
C74	C	1.425317	0.608238	0.408550
C75	C	0.711890	1.321742	-0.304959
C76	C	0.608389	1.425254	-0.408473
C77	C	0.711885	1.321728	0.000018
C78	C	0.608381	1.425236	0.000011
C79	C	1.016868	1.321728	-0.304943
C80	C	1.016872	1.425236	-0.408451
C81	C	1.548116	0.547691	0.062246
C82	C	1.578973	0.409580	0.107304
C83	C	1.578886	0.561992	-0.045042
C84	C	1.454817	0.471444	0.045188
C85	C	1.454734	0.623930	-0.107219
C86	C	1.485517	0.485828	-0.062187
C87	C	0.954624	0.547674	0.406912
C88	C	1.061898	0.409564	0.499942
C89	C	0.909588	0.561903	0.499939
C90	C	1.124171	0.471446	0.500195
C91	C	0.971783	0.623859	0.500178
C92	C	1.079122	0.485759	0.593225
C93	C	1.423699	0.547623	0.531346
C94	C	1.516686	0.409522	0.562148
C95	C	1.516759	0.561793	0.562185
C96	C	1.516941	0.471438	0.437988
C97	C	1.517000	0.623783	0.438029
C98	C	1.610004	0.485691	0.468757
H99	H	0.901963	0.574908	0.114778
H100	H	1.214938	0.902011	-0.384550
H101	H	0.573823	0.786983	0.114841
C102	C	1.418174	0.519095	0.269012
C103	C	1.515795	0.421019	0.365925
H104	H	1.417462	0.487964	0.224529
H105	H	1.418417	0.594831	0.225362
H106	H	1.352436	0.540989	0.291422
H107	H	1.581534	0.399132	0.343515
H108	H	1.515562	0.345260	0.409582
H109	H	0.401228	1.131572	-0.197955
H110	H	1.632362	0.599232	-0.083156
C111	C	1.484465	0.682289	0.131863
C112	C	1.582445	0.584250	0.133365
H113	H	1.505658	0.704861	0.175765
H114	H	1.440068	0.650801	0.163128
H115	H	1.441230	0.757704	0.055675
H116	H	1.625677	0.508831	0.209554
H117	H	1.626861	0.615735	0.102105
H118	H	1.459860	0.458814	-0.114802
H119	H	0.460140	1.246382	-0.114866
C120	C	1.104013	0.561039	0.700749
C121	C	1.150254	0.449313	0.700693
H122	H	1.147940	0.538550	0.767081
H123	H	1.027893	0.593825	0.700123
H124	H	1.104864	0.626507	0.635089
H125	H	1.149396	0.383849	0.766349
H126	H	1.226394	0.416508	0.701330
H127	H	0.933640	0.715515	0.499189
H128	H	0.401278	1.131554	0.083181
C129	C	0.722122	0.643218	-0.031218
C130	C	0.787129	0.612141	-0.096494
H131	H	0.646542	0.674199	-0.062982
H132	H	0.721174	0.709532	-0.030950
H133	H	0.754556	0.566989	0.044545
H134	H	0.754700	0.688372	-0.172255
H135	H	0.788072	0.545822	-0.096774
H136	H	1.214914	0.434067	0.499376
H137	H	0.933500	0.715536	-0.198048
C138	C	0.931204	1.348034	-0.629299
C139	C	0.883751	1.283190	-0.565580
H140	H	0.887443	1.435700	-0.650486
H141	H	0.931259	1.348998	-0.695755
H142	H	1.007087	1.303390	-0.584859
H143	H	0.807870	1.327829	-0.610023
H144	H	0.883683	1.282233	-0.499113
C145	C	0.758992	0.775936	-0.015993
C146	C	0.650916	0.883648	-0.096699
H147	H	0.803453	0.732160	-0.047841
H148	H	0.751737	0.716991	0.049085
H149	H	0.795087	0.805614	0.005496
H150	H	0.614817	0.853969	-0.118182
H151	H	0.658167	0.942604	-0.161798
C152	C	1.293514	0.310489	0.208977
C153	C	1.246496	0.421405	0.096598
H154	H	1.369078	0.279522	0.240777
H155	H	1.294366	0.243583	0.209990
H156	H	1.248991	0.333149	0.252382
H157	H	1.291014	0.398742	0.053191
H158	H	1.245651	0.488324	0.095578
H159	H	0.902101	0.574764	0.327147
H160	H	1.100013	0.317942	0.500872
H161	H	1.131642	0.458938	-0.114928
C162	C	1.113731	0.189174	0.228370
C163	C	1.113321	0.285949	0.229748
H164	H	1.145465	0.112841	0.303971
H165	H	1.158029	0.167887	0.184296
H166	H	1.037970	0.221158	0.195926
H167	H	1.189083	0.253969	0.262185
H168	H	1.069023	0.307236	0.273839
H169	H	0.632444	0.902014	0.197958
C170	C	1.194696	0.662829	-0.315184
C171	C	1.150241	0.750141	-0.434006
H172	H	1.238606	0.575087	-0.293811
H173	H	1.134081	0.676824	-0.285027
H174	H	1.241569	0.677352	-0.286134
H175	H	1.103361	0.735625	-0.463056
H176	H	1.210865	0.736140	-0.464175
C177	C	0.807936	0.949003	-0.429499
C178	C	0.920314	0.883646	-0.365617
H179	H	0.776143	0.905233	-0.384888
H180	H	0.806914	0.949165	-0.495553
H181	H	0.764535	1.036933	-0.451364
H182	H	0.963717	0.795718	-0.343760
H183	H	0.921343	0.883470	-0.299542
C184	C	0.722179	1.280245	-0.668173
C185	C	0.787151	1.149966	-0.634257
H186	H	0.646585	1.324084	-0.712754
H187	H	0.754609	1.323559	-0.711972
H188	H	0.721267	1.281445	-0.602790
H189	H	0.788071	1.148766	-0.699640
H190	H	0.754713	1.106641	-0.590456
C191	C	0.722166	0.643199	0.404787
C192	C	0.787145	0.612121	0.501160
H193	H	0.646574	0.674208	0.405535
H194	H	0.754595	0.566978	0.405266
H195	H	0.721245	0.709507	0.338201
H196	H	0.788073	0.545806	0.567746
H197	H	0.754707	0.688352	0.500691
H198	H	1.100024	1.131561	-0.615601
H199	H	1.632508	0.317934	0.197991
H200	H	1.401478	0.434027	0.083398
C201	C	1.446311	0.796223	-0.276648
C202	C	1.382456	0.747688	-0.229613
H203	H	1.401688	0.872637	-0.352208
H204	H	1.512364	0.731209	-0.277525
H205	H	1.468171	0.817758	-0.232117
H206	H	1.360604	0.726144	-0.274139
H207	H	1.316383	0.812716	-0.228743
C208	C	1.314841	0.473077	0.629345
C209	C	1.316017	0.584218	0.565669
H210	H	1.248359	0.495672	0.650524
H211	H	1.380334	0.406524	0.695805
H212	H	1.315014	0.441674	0.584879
H213	H	1.315853	0.615615	0.610139
H214	H	1.250508	0.650794	0.499199
C215	C	1.517207	0.238788	0.569756
C216	C	1.517912	0.285846	0.634354
H217	H	1.517953	0.162445	0.614334
H218	H	1.582570	0.217526	0.546747
H219	H	1.450608	0.304475	0.504387
H220	H	1.584516	0.220161	0.699720
H221	H	1.452542	0.307102	0.657380
H222	H	1.689635	0.458648	0.443104
H223	H	1.516057	0.715416	0.384547
H224	H	1.517751	0.598820	0.615816
