data_functionalizedCrystal
_audit_creation_method	'MofGen! by Chris Wilmer'
_symmetry_space_group_name_H-M	'P1'
_symmetry_Int_Tables_number	1
_symmetry_cell_setting	triclinic
loop_
_symmetry_equiv_pos_as_xyz
  x,y,z
_cell_length_a	23.096457
_cell_length_b	14.809374
_cell_length_c	14.809374
_cell_angle_alpha	61.589507
_cell_angle_beta	98.957807
_cell_angle_gamma	55.129096
loop_
_atom_site_label
_atom_site_type_symbol
_atom_site_fract_x
_atom_site_fract_y
_atom_site_fract_z
Zr1	Zr	-0.125305	1.187708	0.693480
O2	O	-0.258481	1.414115	0.511815
O3	O	-0.066347	0.961326	0.773903
O4	O	-0.213303	1.187736	0.738195
O5	O	-0.016230	1.187674	0.547556
O6	O	-0.198291	1.187732	0.888631
O7	O	-0.111525	1.187704	0.547524
O8	O	0.064587	0.782724	0.952508
O9	O	-0.279107	1.592681	0.483680
O10	O	-0.051905	1.054428	0.890590
O11	O	0.008009	1.054409	0.778345
O12	O	-0.165012	1.320978	0.736302
O13	O	-0.105097	1.320959	0.624057
Zr14	Zr	0.050623	1.187653	0.933460
Zr15	Zr	-0.101362	1.187701	0.933409
Zr16	Zr	0.026681	1.187660	0.693531
Zr17	Zr	-0.158200	1.472501	0.648607
Zr18	Zr	0.083519	0.902860	0.978333
O19	O	-0.008335	1.414035	0.853036
O20	O	-0.224439	1.414104	0.852963
O21	O	-0.042378	1.414046	0.511888
O22	O	0.183800	0.961246	1.115124
O23	O	-0.032304	0.961315	1.115051
O24	O	0.149757	0.961257	0.773976
O25	O	-0.058452	1.187687	1.079384
O26	O	0.138621	1.187625	0.888745
O27	O	0.123609	1.187629	0.738309
O28	O	0.036844	1.187657	1.079416
O29	O	-0.260076	1.592675	0.674391
O30	O	0.185395	0.782686	0.952548
O31	O	0.204425	0.782680	1.143260
O32	O	0.083617	0.782718	1.143219
O33	O	-0.158299	1.592643	0.483721
O34	O	-0.139268	1.592637	0.674432
O35	O	0.090331	1.054383	0.890638
O36	O	0.030416	1.054402	1.002883
O37	O	-0.082691	1.320952	0.848595
O38	O	-0.022776	1.320933	0.736350
C39	C	0.003807	0.831448	0.869599
C40	C	0.017772	0.710546	0.888649
C41	C	-0.044553	0.750152	0.803632
C42	C	-0.030120	0.625195	0.823319
C43	C	-0.227451	1.187741	0.813406
C44	C	-0.291973	1.187761	0.813384
C45	C	-0.313997	1.187761	0.896263
C46	C	-0.374598	1.187730	0.896293
C47	C	-0.413187	1.187730	0.813422
C48	C	-0.391154	1.187721	0.730537
C49	C	-0.330547	1.187737	0.730518
N50	N	-0.551384	1.274589	0.701472
N51	N	-0.608959	1.274577	0.701494
C52	C	-0.595792	1.187679	0.813476
N53	N	-0.522882	1.100812	0.925438
N54	N	-0.465304	1.100831	0.925415
C55	C	-0.478906	1.187712	0.813434
C56	C	-0.683526	1.187643	0.896394
C57	C	-0.744125	1.187603	0.896427
C58	C	-0.760686	1.187609	0.730659
C59	C	-0.700081	1.187634	0.730638
C60	C	-0.661508	1.187659	0.813504
C61	C	0.152770	1.187620	0.813534
C62	C	0.217291	1.187600	0.813556
C63	C	-0.067289	1.187690	0.513355
C64	C	-0.077453	1.187693	0.411499
C65	C	-0.078489	1.543913	0.757341
C66	C	-0.092454	1.664815	0.738291
C67	C	-0.042590	1.187682	0.260834
C68	C	-0.032086	1.187679	0.366108
C69	C	-0.007393	1.187671	1.113584
C70	C	0.002771	1.187668	1.215441
C71	C	0.033755	0.831438	1.169713
C72	C	0.057884	0.710533	1.290619
C73	C	0.193917	0.831388	0.869663
C74	C	0.272404	0.710465	0.888735
C75	C	0.223865	0.831378	1.169778
C76	C	0.312516	0.710452	1.290705
C77	C	-0.298547	1.543983	0.457162
C78	C	-0.387198	1.664909	0.336235
C79	C	-0.108437	1.543923	0.457226
C80	C	-0.132566	1.664828	0.336321
C81	C	-0.268599	1.543973	0.757277
C82	C	-0.347086	1.664896	0.738205
C83	C	0.026238	0.653768	1.288782
C84	C	0.048893	0.540181	1.402374
C85	C	0.103199	0.483352	1.517803
C86	C	0.134845	0.540128	1.519637
C87	C	0.112185	0.653722	1.406045
C88	C	0.352240	0.653665	0.956307
C89	C	0.425990	0.540061	0.974220
C90	C	0.419905	0.483252	0.924567
C91	C	0.340060	0.540063	0.856986
C92	C	0.266310	0.653673	0.839067
C93	C	0.322874	0.653674	1.406095
C94	C	0.406164	0.540067	1.519726
C95	C	0.479097	0.483233	1.517966
C96	C	0.468735	0.540022	1.402563
C97	C	0.385445	0.653635	1.288934
C98	C	-0.397557	1.721701	0.220843
C99	C	-0.480852	1.835343	0.107206
C100	C	-0.553785	1.892183	0.108965
C101	C	-0.543423	1.835386	0.224369
C102	C	-0.460130	1.721754	0.338002
C103	C	-0.100928	1.721605	0.338156
C104	C	-0.123603	1.835224	0.224559
C105	C	-0.177912	1.892056	0.109129
C106	C	-0.209554	1.835275	0.107297
C107	C	-0.186883	1.721666	0.220891
C108	C	-0.340972	1.721669	0.787875
C109	C	-0.414710	1.835274	0.769979
C110	C	-0.494561	1.892111	0.702406
C111	C	-0.500672	1.835326	0.652737
C112	C	-0.426934	1.721716	0.670640
H113	H	0.033926	0.498776	0.910687
H114	H	0.049380	1.187661	0.254509
H115	H	-0.312616	1.187737	0.663027
O116	O	-0.098073	1.187428	0.214344
C117	C	-0.050601	1.055256	0.235465
H118	H	0.021260	0.962847	0.317861
H119	H	-0.078323	1.010896	0.259951
H120	H	-0.056354	1.085145	0.145667
H121	H	0.179062	0.493842	1.613635
O122	O	0.142984	0.708807	1.407709
C123	C	0.193151	0.680966	1.360303
H124	H	0.172659	0.666868	1.297279
H125	H	0.181781	0.781836	1.301943
H126	H	0.265578	0.571687	1.443348
O127	O	-0.449927	1.666486	0.450192
C128	C	-0.360774	1.553982	0.550126
H129	H	-0.326445	1.572582	0.509930
H130	H	-0.355159	1.563236	0.622453
H131	H	-0.328626	1.435159	0.598806
O132	O	0.503622	0.484616	1.039998
C133	C	0.567506	0.325428	1.147358
H134	H	0.547476	0.277245	1.130302
H135	H	0.633357	0.266564	1.163753
H136	H	0.573344	0.303752	1.234829
O137	O	0.018110	0.485152	1.400360
C138	C	-0.034686	0.559689	1.274116
H139	H	-0.016053	0.606478	1.215736
H140	H	-0.024174	0.474477	1.274194
H141	H	-0.106520	0.658380	1.230332
O142	O	0.188744	0.708801	0.773607
C143	C	0.162190	0.680992	0.853224
H144	H	0.194656	0.666869	0.932583
H145	H	0.087947	0.781889	0.794795
H146	H	0.182492	0.571735	0.896671
H147	H	0.546912	0.390722	1.610499
H148	H	0.377024	0.699849	1.194984
H149	H	-0.108597	0.876569	0.716276
H150	H	0.357210	0.699906	0.996743
H151	H	-0.282589	1.187776	0.963740
H152	H	-0.056702	1.675340	0.432134
O153	O	-0.263486	1.666730	0.853399
C154	C	-0.274009	1.787945	0.791207
H155	H	-0.345991	1.901606	0.730366
H156	H	-0.233025	1.770789	0.865250
H157	H	-0.251521	1.789459	0.727717
H158	H	-0.338180	1.675427	0.219388
O159	O	-0.798054	1.187541	0.650114
C160	C	-0.765637	1.187596	0.576926
H161	H	-0.699497	1.139285	0.629180
H162	H	-0.757487	1.113487	0.561859
H163	H	-0.813712	1.310056	0.480559
H164	H	0.014526	1.187672	0.405172
O165	O	-0.132939	1.187436	0.365018
C166	C	-0.085468	1.055262	0.386143
H167	H	-0.013606	0.962856	0.468533
H168	H	-0.113188	1.010899	0.410638
H169	H	-0.091225	1.085150	0.296343
O170	O	-0.092748	1.890140	0.226591
C171	C	-0.039961	1.815619	0.352833
H172	H	-0.014229	1.700479	0.421992
H173	H	0.017564	1.796007	0.369286
H174	H	-0.080533	1.890108	0.369302
H175	H	-0.422575	1.187717	0.663064
O176	O	-0.026391	0.708821	1.176660
C177	C	0.018588	0.681080	1.122164
H178	H	0.092217	0.581490	1.199965
H179	H	0.000682	0.651010	1.073978
H180	H	-0.000764	0.788303	1.048482
O181	O	0.094261	0.559786	0.992835
C182	C	0.164686	0.527554	0.992683
H183	H	0.144629	0.637938	0.933251
H184	H	0.223564	0.441302	1.094631
H185	H	0.182813	0.477357	0.950046
O186	O	-0.199901	2.002274	-0.001275
C187	C	-0.170352	1.946762	-0.056638
H188	H	-0.162152	1.850143	-0.020504
H189	H	-0.220292	2.043808	-0.164772
H190	H	-0.104721	1.901447	-0.029407
H191	H	-0.253774	1.881565	0.013298
H192	H	0.121645	0.390856	1.610288
H193	H	0.479963	0.390744	0.939168
O194	O	-0.490745	1.890275	-0.004766
C195	C	-0.408509	1.815742	0.018060
H196	H	-0.354371	1.700591	0.121619
H197	H	-0.404640	1.796152	-0.047481
H198	H	-0.400017	1.890212	-0.001500
H199	H	-0.156503	0.791234	0.650927
H200	H	-0.565696	1.881621	0.597718
H201	H	-0.652114	1.187656	0.963873
H202	H	-0.602815	1.881681	0.225786
H203	H	-0.762051	1.187593	0.963924
H204	H	-0.212647	1.675441	0.219380
O205	O	0.334322	0.484630	0.808916
C206	C	0.416539	0.372190	0.839221
H207	H	0.470343	0.322551	0.926190
H208	H	0.427606	0.276581	0.861041
H209	H	0.418150	0.426513	0.754939
H210	H	0.263498	0.699932	1.407552
O211	O	-0.408902	1.890696	0.818016
C212	C	-0.467628	2.049881	0.717689
H213	H	-0.522217	2.098085	0.632959
H214	H	-0.497086	2.108739	0.750934
H215	H	-0.431070	2.071542	0.688048
O216	O	0.416070	0.485027	1.631715
C217	C	0.333833	0.559573	1.608887
H218	H	0.287588	0.606382	1.516095
H219	H	0.342068	0.474361	1.690940
H220	H	0.305343	0.658251	1.601168
O221	O	-0.566098	2.002333	0.685241
C222	C	-0.548507	1.946787	0.804885
H223	H	-0.474696	1.850125	0.880596
H224	H	-0.580897	2.043801	0.800706
H225	H	-0.575703	1.901521	0.830100
H226	H	0.528129	0.493731	1.401149
H227	H	-0.431924	1.675504	0.630186
O228	O	-0.634651	2.002365	-0.001426
C229	C	-0.634503	1.946847	-0.056805
H230	H	-0.579513	1.816042	0.020011
H231	H	-0.700081	1.991501	-0.102657
H232	H	-0.623798	1.988106	-0.132550
O233	O	-0.678571	1.187597	0.650231
C234	C	-0.616824	1.187659	0.667956
H235	H	-0.580914	1.139322	0.767158
H236	H	-0.567631	1.113576	0.657899
H237	H	-0.651994	1.310124	0.593147
O238	O	-0.395926	1.187788	0.976854
C239	C	-0.348861	1.187759	1.050019
H240	H	-0.328598	1.236102	0.997738
H241	H	-0.392034	1.261853	1.065099
H242	H	-0.287895	1.065303	1.146381
