data_functionalizedCrystal
_audit_creation_method	'MofGen! by Chris Wilmer'
_symmetry_space_group_name_H-M	'P1'
_symmetry_Int_Tables_number	1
_symmetry_cell_setting	triclinic
loop_
_symmetry_equiv_pos_as_xyz
  x,y,z
_cell_length_a	27.732048
_cell_length_b	27.732048
_cell_length_c	26.809956
_cell_angle_alpha	90.000636
_cell_angle_beta	89.996742
_cell_angle_gamma	97.357345
loop_
_atom_site_label
_atom_site_type_symbol
_atom_site_fract_x
_atom_site_fract_y
_atom_site_fract_z
O1	O	0.640931	-0.057510	-0.041421
O2	O	1.140931	0.442490	0.458579
O3	O	0.500138	-0.066256	-0.041436
O4	O	1.000138	0.433744	0.458564
O5	O	0.574907	0.008514	-0.041419
O6	O	1.074907	0.508514	0.458581
O7	O	0.566162	-0.132280	-0.041439
O8	O	1.066162	0.367720	0.458561
O9	O	0.574893	0.008502	0.041541
O10	O	1.074893	0.508502	0.541541
O11	O	0.500123	-0.066267	0.041523
O12	O	1.000123	0.433733	0.541523
O13	O	0.640917	-0.057522	0.041539
O14	O	1.140917	0.442478	0.541539
Zn15	Zn	0.570518	-0.061896	0.054702
Zn16	Zn	1.070518	0.438104	0.554702
Zn17	Zn	0.570536	-0.061881	-0.054600
Zn18	Zn	1.070536	0.438119	0.445400
O19	O	0.566147	-0.132291	0.041521
O20	O	1.066147	0.367709	0.541521
C21	C	0.482124	-0.066078	0.000041
C22	C	0.982124	0.433922	0.500041
C23	C	0.428469	-0.065525	0.000036
C24	C	0.928469	0.434475	0.500036
C25	C	0.089654	-0.106229	0.000051
C26	C	0.589654	0.393771	0.500051
C27	C	-0.112006	-0.104178	0.000056
C28	C	0.387994	0.395822	0.500056
O29	O	-0.143262	-0.141398	0.000073
O30	O	0.356738	0.358602	0.500073
N31	N	-0.131130	-0.059843	0.000062
N32	N	0.368870	0.440157	0.500062
C33	C	-0.099835	-0.016017	0.000069
C34	C	0.400165	0.483983	0.500069
O35	O	-0.120728	0.021740	0.000079
O36	O	0.379272	0.521740	0.500079
C37	C	0.101824	-0.018068	0.000068
C38	C	0.601824	0.481932	0.500068
C39	C	0.120944	-0.062407	0.000057
C40	C	0.620944	0.437593	0.500057
C41	C	0.108775	-0.150563	0.000042
C42	C	0.608775	0.349437	0.500042
C43	C	0.159187	-0.151076	0.000038
C44	C	0.659187	0.348924	0.500038
C45	C	0.190477	-0.107253	0.000044
C46	C	0.690477	0.392747	0.500044
C47	C	0.171356	-0.062919	0.000054
C48	C	0.671356	0.437081	0.500054
C49	C	0.133117	0.025757	0.000079
C50	C	0.633117	0.525757	0.500079
C51	C	0.183535	0.025240	0.000080
C52	C	0.683535	0.525240	0.500080
C53	C	0.202655	-0.019098	0.000069
C54	C	0.702655	0.480902	0.500069
C55	C	0.253059	-0.019609	0.000056
C56	C	0.753059	0.480391	0.500056
N57	N	0.272183	-0.063944	0.000050
N58	N	0.772183	0.436056	0.500050
C59	C	0.240892	-0.107766	0.000044
C60	C	0.740892	0.392234	0.500044
C61	C	-0.205709	-0.014943	0.000069
C62	C	0.294291	0.485057	0.500069
C63	C	-0.256124	-0.014430	0.000068
C64	C	0.243876	0.485570	0.500068
C65	C	-0.268291	-0.102591	0.000056
C66	C	0.231709	0.397409	0.500056
C67	C	-0.217876	-0.103104	0.000053
C68	C	0.282124	0.396896	0.500053
C69	C	-0.186585	-0.059278	0.000063
C70	C	0.313415	0.440722	0.500063
C71	C	0.346761	-0.108839	0.000036
C72	C	0.846761	0.391161	0.500036
C73	C	0.397178	-0.109347	0.000030
C74	C	0.897178	0.390653	0.500030
C75	C	0.409341	-0.021186	0.000044
C76	C	0.909341	0.478814	0.500044
C77	C	0.358929	-0.020678	0.000048
C78	C	0.858929	0.479322	0.500048
C79	C	0.327639	-0.064508	0.000045
C80	C	0.827639	0.435492	0.500045
O81	O	0.284343	0.017592	0.000045
O82	O	0.784343	0.517592	0.500045
O83	O	0.261794	-0.145518	0.000045
O84	O	0.761794	0.354482	0.500045
C85	C	0.039242	-0.105716	0.000055
C86	C	0.539242	0.394284	0.500055
C87	C	0.020120	-0.061382	0.000065
C88	C	0.520120	0.438618	0.500065
C89	C	0.051411	-0.017560	0.000071
C90	C	0.551411	0.482440	0.500071
C91	C	-0.030294	-0.060869	0.000065
C92	C	0.469706	0.439131	0.500065
C93	C	-0.061585	-0.104691	0.000059
C94	C	0.438415	0.395309	0.500059
C95	C	-0.042461	-0.149026	0.000053
C96	C	0.457539	0.350974	0.500053
C97	C	0.007951	-0.149539	0.000049
C98	C	0.507951	0.350461	0.500049
C99	C	0.032287	0.026775	0.000077
C100	C	0.532287	0.526775	0.500077
C101	C	-0.018125	0.027284	0.000080
C102	C	0.481875	0.527284	0.500080
C103	C	-0.049416	-0.016538	0.000074
C104	C	0.450584	0.483462	0.500074
C105	C	0.574716	0.026515	0.000062
C106	C	1.074716	0.526515	0.500062
C107	C	0.574164	0.080170	0.000066
C108	C	1.074164	0.580170	0.500066
C109	C	0.658931	-0.057699	0.000060
C110	C	1.158931	0.442301	0.500060
C111	C	0.712586	-0.058252	0.000062
C112	C	1.212586	0.441748	0.500062
C113	C	0.566338	-0.150292	0.000039
C114	C	1.066338	0.349708	0.500039
C115	C	0.566891	-0.203947	0.000031
C116	C	1.066891	0.296053	0.500031
N117	N	0.570509	-0.061906	0.129298
N118	N	1.070509	0.438094	0.629298
C119	C	0.614867	0.418985	0.000045
C120	C	1.114867	0.918985	0.500045
C121	C	0.612816	0.620645	0.000038
C122	C	1.112816	1.120645	0.500038
O123	O	0.650037	0.651900	0.000021
O124	O	1.150037	1.151900	0.500021
N125	N	0.568481	0.639768	0.000034
N126	N	1.068481	1.139768	0.500034
C127	C	0.524656	0.608474	0.000028
C128	C	1.024656	1.108474	0.500028
O129	O	0.486899	0.629367	0.000019
O130	O	0.986899	1.129367	0.500019
C131	C	0.526707	0.406815	0.000031
C132	C	1.026707	0.906815	0.500031
C133	C	0.571045	0.387694	0.000041
C134	C	1.071045	0.887694	0.500041
C135	C	0.659202	0.399864	0.000054
C136	C	1.159202	0.899864	0.500054
C137	C	0.659714	0.349452	0.000059
C138	C	1.159714	0.849452	0.500059
C139	C	0.615892	0.318161	0.000054
C140	C	1.115892	0.818161	0.500054
C141	C	0.571557	0.337282	0.000045
C142	C	1.071557	0.837282	0.500045
C143	C	0.482882	0.375521	0.000022
C144	C	0.982882	0.875521	0.500022
C145	C	0.483399	0.325104	0.000021
C146	C	0.983399	0.825104	0.500021
C147	C	0.527737	0.305983	0.000031
C148	C	1.027737	0.805983	0.500031
C149	C	0.528247	0.255580	0.000045
C150	C	1.028247	0.755580	0.500045
N151	N	0.572583	0.236456	0.000050
N152	N	1.072583	0.736456	0.500050
C153	C	0.616405	0.267747	0.000054
C154	C	1.116405	0.767747	0.500054
C155	C	0.523582	0.714348	0.000027
C156	C	1.023582	1.214348	0.500027
C157	C	0.523069	0.764762	0.000027
C158	C	1.023069	1.264762	0.500027
C159	C	0.611230	0.776930	0.000036
C160	C	1.111230	1.276930	0.500036
C161	C	0.611742	0.726514	0.000040
C162	C	1.111742	1.226514	0.500040
C163	C	0.567917	0.695224	0.000031
C164	C	1.067917	1.195224	0.500031
C165	C	0.617477	0.161878	0.000064
C166	C	1.117477	0.661878	0.500064
C167	C	0.617986	0.111461	0.000071
C168	C	1.117986	0.611461	0.500071
C169	C	0.529825	0.099298	0.000059
C170	C	1.029825	0.599298	0.500059
C171	C	0.529316	0.149710	0.000055
C172	C	1.029316	0.649710	0.500055
C173	C	0.573147	0.180999	0.000056
C174	C	1.073147	0.680999	0.500056
O175	O	0.491047	0.224296	0.000057
O176	O	0.991047	0.724296	0.500057
O177	O	0.654156	0.246844	0.000053
O178	O	1.154156	0.746844	0.500053
C179	C	0.614355	0.469397	0.000041
C180	C	1.114355	0.969397	0.500041
C181	C	0.570021	0.488518	0.000032
C182	C	1.070021	0.988518	0.500032
C183	C	0.526198	0.457228	0.000027
C184	C	1.026198	0.957228	0.500027
C185	C	0.569508	0.538933	0.000032
C186	C	1.069508	1.038933	0.500032
C187	C	0.613330	0.570223	0.000036
C188	C	1.113330	1.070223	0.500036
C189	C	0.657665	0.551100	0.000041
C190	C	1.157665	1.051100	0.500041
C191	C	0.658177	0.500688	0.000045
C192	C	1.158177	1.000688	0.500045
C193	C	0.481863	0.476351	0.000023
C194	C	0.981863	0.976351	0.500023
C195	C	0.481355	0.526764	0.000019
C196	C	0.981355	1.026764	0.500019
C197	C	0.525177	0.558054	0.000023
C198	C	1.025177	1.058054	0.500023
N199	N	0.570549	-0.061867	-0.129196
N200	N	1.070549	0.438133	0.370804
C201	C	0.603640	-0.028781	0.473932
C202	C	1.103640	0.471219	0.973932
C203	C	0.603652	-0.028774	0.682810
C204	C	1.103652	0.471226	1.182810
O205	O	0.631801	-0.000613	0.709820
O206	O	1.131801	0.499387	1.209820
N207	N	0.570539	-0.061870	0.708925
N208	N	1.070539	0.438130	1.208925
C209	C	0.537419	-0.094969	0.682818
C210	C	1.037419	0.405031	1.182818
O211	O	0.509252	-0.123116	0.709824
O212	O	1.009252	0.376884	1.209824
C213	C	0.537406	-0.094974	0.473941
C214	C	1.037406	0.405026	0.973941
C215	C	0.570524	-0.061878	0.447829
C216	C	1.070524	0.438122	0.947829
C217	C	0.636755	0.004312	0.447819
C218	C	1.136755	0.504312	0.947819
C219	C	0.636754	0.004308	0.395603
C220	C	1.136754	0.504308	0.895603
C221	C	0.603637	-0.028789	0.369500
C222	C	1.103637	0.471211	0.869500
C223	C	0.570522	-0.061882	0.395612
C224	C	1.070522	0.438118	0.895612
C225	C	0.504284	-0.128070	0.447835
C226	C	1.004284	0.371930	0.947835
C227	C	0.504283	-0.128067	0.395613
C228	C	1.004283	0.371933	0.895613
C229	C	0.537401	-0.094972	0.369500
C230	C	1.037401	0.405028	0.869500
C231	C	0.537405	-0.094983	0.317293
C232	C	1.037405	0.405017	0.817293
N233	N	0.570517	-0.061887	0.291177
N234	N	1.070517	0.438113	0.791177
C235	C	0.603633	-0.028790	0.317281
C236	C	1.103633	0.471210	0.817281
C237	C	0.537429	-0.094965	0.792481
C238	C	1.037429	0.405035	1.292481
C239	C	0.537433	-0.094964	0.844700
C240	C	1.037433	0.405036	1.344700
C241	C	0.603665	-0.028768	0.844689
C242	C	1.103665	0.471232	1.344689
C243	C	0.603663	-0.028772	0.792469
C244	C	1.103663	0.471228	1.292469
C245	C	0.570542	-0.061868	0.766366
C246	C	1.070542	0.438132	1.266366
C247	C	0.603628	-0.028801	0.207623
C248	C	1.103628	0.471199	0.707623
C249	C	0.603625	-0.028809	0.155402
C250	C	1.103625	0.471191	0.655402
C251	C	0.537392	-0.095003	0.155418
C252	C	1.037392	0.404997	0.655418
C253	C	0.537396	-0.094997	0.207635
C254	C	1.037396	0.405003	0.707635
C255	C	0.570516	-0.061892	0.233735
C256	C	1.070516	0.438108	0.733735
O257	O	0.509266	-0.123126	0.290250
O258	O	1.009266	0.376874	0.790250
O259	O	0.631789	-0.000640	0.290266
O260	O	1.131789	0.499360	0.790266
C261	C	0.603642	-0.028777	0.526149
C262	C	1.103642	0.471223	1.026149
C263	C	0.570527	-0.061870	0.552261
C264	C	1.070527	0.438130	1.052261
C265	C	0.537410	-0.094968	0.526158
C266	C	1.037410	0.405032	1.026158
C267	C	0.570531	-0.061870	0.604480
C268	C	1.070531	0.438130	1.104480
C269	C	0.603647	-0.028773	0.630584
C270	C	1.103647	0.471227	1.130584
C271	C	0.636759	0.004324	0.604468
C272	C	1.136759	0.504324	1.104468
C273	C	0.636758	0.004320	0.552252
C274	C	1.136758	0.504320	1.052252
C275	C	0.504298	-0.128064	0.552273
C276	C	1.004298	0.371936	1.052273
C277	C	0.504303	-0.128058	0.604489
C278	C	1.004303	0.371942	1.104489
C279	C	0.537419	-0.094961	0.630593
C280	C	1.037419	0.405039	1.130593
H281	H	0.174750	-0.187180	0.000029
H282	H	0.674750	0.312820	0.500029
C283	C	0.338101	0.027425	0.000133
C284	C	0.838101	0.527425	0.500133
C285	C	0.309507	0.030285	0.042813
C286	C	0.809507	0.530285	0.542813
C287	C	0.290313	0.074589	0.042910
C288	C	0.790313	0.574589	0.542910
H289	H	0.363910	0.053491	0.000160
H290	H	0.863910	0.553491	0.500160
H291	H	0.318658	0.029469	-0.028778
H292	H	0.818658	0.529469	0.471222
H293	H	0.328949	0.028247	0.071716
H294	H	0.828949	0.528247	0.571716
H295	H	0.283691	0.004230	0.042795
H296	H	0.783691	0.504230	0.542795
H297	H	0.270869	0.076632	0.013999
H298	H	0.770869	0.576632	0.513999
H299	H	0.316125	0.100651	0.042936
H300	H	0.816125	0.600651	0.542936
H301	H	0.270906	0.076533	0.071865
H302	H	0.770906	0.576533	0.571865
H303	H	0.445246	0.542327	0.000015
H304	H	0.945246	1.042327	0.500015
H305	H	0.434827	0.014492	0.000047
H306	H	0.934827	0.514492	0.500047
H307	H	0.446177	0.450879	0.000018
H308	H	0.946177	0.950879	0.500018
H309	H	0.486964	0.780325	0.000028
H310	H	0.986964	1.280325	0.500028
H311	H	0.630595	-0.001859	0.134142
H312	H	1.130595	0.498141	0.634142
C313	C	0.639541	0.007224	0.873062
C314	C	1.139541	0.507224	1.373062
C315	C	0.614008	0.036640	0.903033
C316	C	1.114008	0.536640	1.403033
C317	C	0.647035	0.069806	0.929174
C318	C	1.147035	0.569806	1.429174
H319	H	0.659546	-0.009967	0.893472
H320	H	1.159546	0.490033	1.393472
H321	H	0.659255	0.026967	0.850050
H322	H	1.159255	0.526967	1.350050
H323	H	0.594302	0.016899	0.926042
H324	H	1.094302	0.516899	1.426042
H325	H	0.594004	0.053842	0.882635
H326	H	1.094004	0.553842	1.382635
H327	H	0.666750	0.089550	0.906163
H328	H	1.166750	0.589550	1.406163
H329	H	0.667039	0.052611	0.949582
H330	H	1.167039	0.552611	1.449582
H331	H	0.629716	0.089772	0.949509
H332	H	1.129716	0.589772	1.449509
H333	H	-0.293777	-0.138273	0.000051
H334	H	0.206223	0.361727	0.500051
H335	H	0.446777	0.391080	0.000011
H336	H	0.946777	0.891080	0.500011
C337	C	0.705193	0.585159	0.000019
C338	C	1.205193	1.085159	0.500019
C339	C	0.695247	0.633400	0.000000
C340	C	1.195247	1.133400	0.500000
C341	C	0.739014	0.664790	-0.000031
C342	C	1.239014	1.164790	0.499969
H343	H	0.723423	0.579466	0.028942
H344	H	1.223423	1.079466	0.528942
H345	H	0.723396	0.579425	-0.028921
H346	H	1.223396	1.079425	0.471079
H347	H	0.677052	0.639130	0.028937
H348	H	1.177052	1.139130	0.528937
H349	H	0.677024	0.639108	-0.028921
H350	H	1.177024	1.139108	0.471079
H351	H	0.757217	0.659057	-0.028971
H352	H	1.257217	1.159057	0.471029
H353	H	0.757241	0.659093	0.028893
H354	H	1.257241	1.159093	0.528893
H355	H	0.732272	0.697525	-0.000048
H356	H	1.232272	1.197525	0.499952
H357	H	0.083302	-0.186251	0.000038
H358	H	0.583302	0.313749	0.500038
H359	H	-0.202311	-0.139207	0.000047
H360	H	0.297689	0.360793	0.500047
H361	H	0.487892	0.688875	0.000020
H362	H	0.987892	1.188875	0.500020
C363	C	0.312875	-0.156477	0.000003
C364	C	0.812875	0.343523	0.500003
C365	C	0.340420	-0.195408	-0.000021
C366	C	0.840420	0.304592	0.499979
C367	C	0.309221	-0.239299	-0.000062
C368	C	0.809221	0.260701	0.499938
H369	H	0.292941	-0.158189	0.028924
H370	H	0.792941	0.341811	0.528924
H371	H	0.292964	-0.158132	-0.028939
H372	H	0.792964	0.341868	0.471061
H373	H	0.360322	-0.193753	0.028918
H374	H	0.860322	0.306247	0.528918
H375	H	0.360352	-0.193712	-0.028940
H376	H	0.860352	0.306288	0.471060
H377	H	0.289310	-0.240954	-0.029004
H378	H	0.789310	0.259046	0.470996
H379	H	0.289289	-0.241006	0.028860
H380	H	0.789289	0.258994	0.528860
H381	H	0.327906	-0.265718	-0.000083
H382	H	0.827906	0.234282	0.499917
C383	C	0.672735	0.040310	0.523996
C384	C	1.172735	0.540310	1.023996
C385	C	0.701724	0.069300	0.558042
C386	C	1.201724	0.569300	1.058042
C387	C	0.734868	0.102466	0.532034
C388	C	1.234868	0.602466	1.032034
H389	H	0.692773	0.023119	0.503621
H390	H	1.192773	0.523119	1.003621
H391	H	0.655511	0.060341	0.503638
H392	H	1.155511	0.560341	1.003638
H393	H	0.718946	0.049271	0.578390
H394	H	1.218946	0.549271	1.078390
H395	H	0.681699	0.086502	0.578417
H396	H	1.181699	0.586502	1.078417
H397	H	0.717644	0.122497	0.511676
H398	H	1.217644	0.622497	1.011676
H399	H	0.754903	0.085271	0.511660
H400	H	1.254903	0.585271	1.011660
H401	H	0.754538	0.122143	0.555130
H402	H	1.254538	0.622143	1.055130
C403	C	0.501456	-0.130823	0.873112
C404	C	1.001456	0.369177	1.373112
C405	C	0.472070	-0.105277	0.903103
C406	C	0.972070	0.394723	1.403103
C407	C	0.438923	-0.138293	0.929285
C408	C	0.938923	0.361707	1.429285
H409	H	0.481687	-0.150546	0.850139
H410	H	0.981687	0.349454	1.350139
H411	H	0.518679	-0.150821	0.893509
H412	H	1.018679	0.349179	1.393509
H413	H	0.454849	-0.085288	0.882707
H414	H	0.954849	0.414712	1.382707
H415	H	0.491826	-0.085556	0.926084
H416	H	0.991826	0.414444	1.426084
H417	H	0.456146	-0.158291	0.949683
H418	H	0.956146	0.341709	1.449683
H419	H	0.419157	-0.158014	0.906309
H420	H	0.919157	0.341986	1.406309
H421	H	0.418984	-0.120965	0.949641
H422	H	0.918984	0.379035	1.449641
H423	H	0.654093	0.095896	0.000080
H424	H	1.154093	0.595896	0.500080
H425	H	0.057760	0.062462	0.000083
H426	H	0.557760	0.562462	0.500083
C427	C	0.468420	-0.164048	0.632864
C428	C	0.968420	0.335952	1.132864
C429	C	0.493937	-0.193473	0.662835
C430	C	0.993937	0.306527	1.162835
C431	C	0.460896	-0.226632	0.688973
C432	C	0.960896	0.273368	1.188973
H433	H	0.448416	-0.146851	0.653273
H434	H	0.948416	0.353149	1.153273
H435	H	0.448704	-0.183785	0.609850
H436	H	0.948704	0.316215	1.109850
H437	H	0.513644	-0.173739	0.685846
H438	H	1.013644	0.326261	1.185846
H439	H	0.513938	-0.210681	0.642438
H440	H	1.013938	0.289319	1.142438
H441	H	0.441181	-0.246369	0.665960
H442	H	0.941181	0.253631	1.165960
H443	H	0.440895	-0.209431	0.709380
H444	H	0.940895	0.290569	1.209380
H445	H	0.478205	-0.246604	0.709309
H446	H	0.978205	0.253396	1.209309
H447	H	0.630597	-0.001843	0.228868
H448	H	1.130597	0.498157	0.728868
C449	C	-0.276786	0.033759	0.000099
C450	C	0.223214	0.533759	0.500099
C451	C	-0.238586	0.072023	0.000118
C452	C	0.261414	0.572023	0.500118
C453	C	-0.257599	0.116423	0.000156
C454	C	0.242401	0.616423	0.500156
H455	H	-0.296189	0.035868	-0.028823
H456	H	0.203811	0.535868	0.471177
H457	H	-0.296187	0.035815	0.029041
H458	H	0.203813	0.535815	0.529041
H459	H	-0.219194	0.069968	-0.028821
H460	H	0.280806	0.569968	0.471179
H461	H	-0.219180	0.069930	0.029037
H462	H	0.280820	0.569930	0.529037
H463	H	-0.277000	0.118479	0.029098
H464	H	0.223000	0.618479	0.529098
H465	H	-0.277003	0.118527	-0.028766
H466	H	0.222997	0.618527	0.471234
H467	H	-0.231684	0.142391	0.000174
H468	H	0.268316	0.642391	0.500174
C469	C	0.435763	0.291212	0.000038
C470	C	0.935763	0.791212	0.500038
C471	C	0.396829	0.318753	0.000041
C472	C	0.896829	0.818753	0.500041
C473	C	0.352941	0.287550	0.000064
C474	C	0.852941	0.787550	0.500064
H475	H	0.434067	0.271280	-0.028883
H476	H	0.934067	0.771280	0.471117
H477	H	0.434096	0.271301	0.028980
H478	H	0.934096	0.771301	0.528980
H479	H	0.398496	0.338656	-0.028898
H480	H	0.898496	0.838656	0.471102
H481	H	0.398509	0.338684	0.028960
H482	H	0.898509	0.838684	0.528960
H483	H	0.351273	0.267638	0.029006
H484	H	0.851273	0.767638	0.529006
H485	H	0.351250	0.267619	-0.028858
H486	H	0.851250	0.767619	0.471142
H487	H	0.326519	0.306232	0.000071
H488	H	0.826519	0.806232	0.500071
C489	C	-0.171685	0.032607	-0.000004
C490	C	0.328315	0.532607	0.499996
C491	C	-0.142376	0.034890	-0.042679
C492	C	0.357624	0.534890	0.457321
C493	C	-0.111025	0.078683	-0.042763
C494	C	0.388975	0.578683	0.457237
H495	H	-0.190239	0.059121	-0.000028
H496	H	0.309761	0.559121	0.499972
H497	H	-0.151737	0.034246	0.028910
H498	H	0.348263	0.534246	0.528910
H499	H	-0.162320	0.033256	-0.071586
H500	H	0.337680	0.533256	0.428414
H501	H	-0.123811	0.008387	-0.042664
H502	H	0.376189	0.508387	0.457336
H503	H	-0.091078	0.080322	-0.013848
H504	H	0.408922	0.580322	0.486152
H505	H	-0.129583	0.105193	-0.042785
H506	H	0.370417	0.605193	0.457215
H507	H	-0.091132	0.080236	-0.071714
H508	H	0.408868	0.580236	0.428286
H509	H	0.117558	0.061861	0.000088
H510	H	0.617558	0.561861	0.500088
H511	H	0.209009	0.060929	0.000089
H512	H	0.709009	0.560929	0.500089
C513	C	0.658824	0.810886	0.000140
C514	C	1.158824	1.310886	0.500140
C515	C	0.685538	0.802310	0.042826
C516	C	1.185538	1.302310	0.542826
C517	C	0.729378	0.833588	0.042937
C518	C	1.229378	1.333588	0.542937
H519	H	0.677079	0.805154	-0.028757
H520	H	1.177079	1.305154	0.471243
H521	H	0.652184	0.843655	0.000165
H522	H	1.152184	1.343655	0.500165
H523	H	0.692180	0.769549	0.042797
H524	H	1.192180	1.269549	0.542797
H525	H	0.667298	0.808045	0.071729
H526	H	1.167298	1.308045	0.571729
H527	H	0.722738	0.866357	0.042962
H528	H	1.222738	1.366357	0.542962
H529	H	0.747629	0.827853	0.014039
H530	H	1.247629	1.327853	0.514039
H531	H	0.747508	0.827777	0.071901
H532	H	1.247508	1.327777	0.571901
C533	C	0.028612	-0.197728	0.000067
C534	C	0.528612	0.302272	0.500067
C535	C	-0.009589	-0.235991	0.000076
C536	C	0.490411	0.264009	0.500076
C537	C	0.009421	-0.280392	0.000100
C538	C	0.509421	0.219608	0.500100
H539	H	0.048019	-0.199830	-0.028855
H540	H	0.548019	0.300170	0.471145
H541	H	0.048009	-0.199794	0.029008
H542	H	0.548009	0.300206	0.529008
H543	H	-0.028978	-0.233926	-0.028862
H544	H	0.471022	0.266074	0.471138
H545	H	-0.028999	-0.233904	0.028996
H546	H	0.471001	0.266096	0.528996
H547	H	0.028818	-0.282457	0.029041
H548	H	0.528818	0.217543	0.529041
H549	H	0.028828	-0.282489	-0.028822
H550	H	0.528828	0.217511	0.471178
H551	H	-0.016495	-0.306358	0.000111
H552	H	0.483505	0.193642	0.500111
H553	H	0.493213	0.165279	0.000061
H554	H	0.993213	0.665279	0.500061
C555	C	0.706367	0.480026	0.000026
C556	C	1.206367	0.980026	0.500026
C557	C	0.744629	0.518228	0.000016
C558	C	1.244629	1.018228	0.500016
C559	C	0.789030	0.499217	-0.000010
C560	C	1.289030	0.999217	0.499990
H561	H	0.708468	0.460621	0.028949
H562	H	1.208468	0.960621	0.528949
H563	H	0.708433	0.460627	-0.028915
H564	H	1.208433	0.960627	0.471085
H565	H	0.742564	0.537619	0.028954
H566	H	1.242564	1.037619	0.528954
H567	H	0.742544	0.537636	-0.028904
H568	H	1.242544	1.037636	0.471096
H569	H	0.791097	0.479818	-0.028950
H570	H	1.291097	0.979818	0.471050
H571	H	0.791127	0.479813	0.028913
H572	H	1.291127	0.979813	0.528913
H573	H	0.814997	0.525134	-0.000021
H574	H	1.314997	1.025134	0.499979
H575	H	-0.033688	0.063392	0.000085
H576	H	0.466312	0.563392	0.500085
H577	H	0.477330	-0.155015	0.531024
H578	H	0.977330	0.344985	1.031024
C579	C	0.501447	-0.130959	0.764236
C580	C	1.001447	0.369041	1.264236
C581	C	0.472463	-0.159948	0.798289
C582	C	0.972463	0.340052	1.298289
C583	C	0.439317	-0.193117	0.772290
C584	C	0.939317	0.306883	1.272290
H585	H	0.481405	-0.113770	0.743866
H586	H	0.981405	0.386230	1.243866
H587	H	0.518669	-0.150990	0.743874
H588	H	1.018669	0.349010	1.243874
H589	H	0.455243	-0.139919	0.818642
H590	H	0.955243	0.360081	1.318642
H591	H	0.492492	-0.177148	0.818660
H592	H	0.992492	0.322852	1.318660
H593	H	0.456539	-0.213149	0.751929
H594	H	0.956539	0.286851	1.251929
H595	H	0.419279	-0.175924	0.751921
H596	H	0.919279	0.324076	1.251921
H597	H	0.419651	-0.212793	0.795392
H598	H	0.919651	0.287207	1.295392
H599	H	0.412743	-0.145454	0.000021
H600	H	0.912743	0.354546	0.500021
C601	C	0.468401	-0.164054	0.476205
C602	C	0.968401	0.335946	0.976205
C603	C	0.493917	-0.193483	0.506174
C604	C	0.993917	0.306517	1.006174
C605	C	0.460875	-0.226643	0.532310
C606	C	0.960875	0.273357	1.032310
H607	H	0.448399	-0.146858	0.496616
H608	H	0.948399	0.353142	0.996616
H609	H	0.448685	-0.183789	0.453190
H610	H	0.948685	0.316211	0.953190
H611	H	0.513625	-0.173751	0.529187
H612	H	1.013625	0.326249	1.029187
H613	H	0.513917	-0.210691	0.485775
H614	H	1.013917	0.289309	0.985775
H615	H	0.441158	-0.246377	0.509295
H616	H	0.941158	0.253623	1.009295
H617	H	0.440874	-0.209442	0.552718
H618	H	0.940874	0.290558	1.052718
H619	H	0.478182	-0.246617	0.552644
H620	H	0.978182	0.253383	1.052644
H621	H	-0.067947	-0.184708	0.000046
H622	H	0.432053	0.315292	0.500046
H623	H	0.653168	0.187348	0.000063
H624	H	1.153168	0.687348	0.500063
H625	H	0.695819	0.333889	0.000065
H626	H	1.195819	0.833889	0.500065
C627	C	0.672728	0.040300	0.367347
C628	C	1.172728	0.540300	0.867347
C629	C	0.701717	0.069291	0.401393
C630	C	1.201717	0.569291	0.901393
C631	C	0.734858	0.102460	0.375385
C632	C	1.234858	0.602460	0.875385
H633	H	0.692768	0.023111	0.346971
H634	H	1.192768	0.523111	0.846971
H635	H	0.655503	0.060330	0.346990
H636	H	1.155503	0.560330	0.846990
H637	H	0.718941	0.049263	0.421740
H638	H	1.218941	0.549263	0.921740
H639	H	0.681691	0.086491	0.421769
H640	H	1.181691	0.586491	0.921769
H641	H	0.717632	0.122490	0.355029
H642	H	1.217632	0.622490	0.855029
H643	H	0.754894	0.085267	0.355010
H644	H	1.254894	0.585267	0.855010
H645	H	0.754528	0.122137	0.398481
H646	H	1.254528	0.622137	0.898481
C647	C	0.639639	0.007218	0.764210
C648	C	1.139639	0.507218	1.264210
C649	C	0.668632	0.036207	0.798254
C650	C	1.168632	0.536207	1.298254
C651	C	0.701774	0.069373	0.772244
C652	C	1.201774	0.569373	1.272244
H653	H	0.659675	-0.009974	0.743834
H654	H	1.159675	0.490026	1.243834
H655	H	0.622414	0.027250	0.743855
H656	H	1.122414	0.527250	1.243855
H657	H	0.685855	0.016178	0.818601
H658	H	1.185855	0.516178	1.318601
H659	H	0.648609	0.053410	0.818632
H660	H	1.148609	0.553410	1.318632
H661	H	0.684550	0.089405	0.751888
H662	H	1.184550	0.589405	1.251888
H663	H	0.721807	0.052177	0.751868
H664	H	1.221807	0.552177	1.251868
H665	H	0.721447	0.089049	0.795338
H666	H	1.221447	0.589049	1.295338
H667	H	0.494146	0.073812	0.000057
H668	H	0.994146	0.573812	0.500057
C669	C	0.468301	-0.164058	0.367364
C670	C	0.968301	0.335942	0.867364
C671	C	0.439310	-0.193046	0.401413
C672	C	0.939310	0.306954	0.901413
C673	C	0.406165	-0.226211	0.375410
C674	C	0.906165	0.273789	0.875410
H675	H	0.448263	-0.146867	0.346992
H676	H	0.948263	0.353133	0.846992
H677	H	0.485523	-0.184091	0.347004
H678	H	0.985523	0.315909	0.847004
H679	H	0.422090	-0.173016	0.421764
H680	H	0.922090	0.326984	0.921764
H681	H	0.459335	-0.210249	0.421786
H682	H	0.959335	0.289751	0.921786
H683	H	0.423387	-0.246244	0.355050
H684	H	0.923387	0.253756	0.855050
H685	H	0.386130	-0.209015	0.355039
H686	H	0.886130	0.290985	0.855039
H687	H	0.386494	-0.245886	0.398508
H688	H	0.886494	0.254114	0.898508
C689	C	0.501385	-0.130949	0.235898
C690	C	1.001385	0.369051	0.735898
C691	C	0.472376	-0.159927	0.201858
C692	C	0.972376	0.340073	0.701858
C693	C	0.439187	-0.193043	0.227873
C694	C	0.939187	0.306957	0.727873
H695	H	0.518559	-0.150999	0.256276
H696	H	1.018559	0.349001	0.756276
H697	H	0.481369	-0.113704	0.256254
H698	H	0.981369	0.386296	0.756254
H699	H	0.492389	-0.177171	0.181512
H700	H	0.992389	0.322829	0.681512
H701	H	0.455191	-0.139891	0.181480
H702	H	0.955191	0.360109	0.681480
H703	H	0.419171	-0.175798	0.248228
H704	H	0.919171	0.324202	0.748228
H705	H	0.456365	-0.213089	0.248249
H706	H	0.956365	0.286911	0.748249
H707	H	0.419497	-0.212705	0.204781
H708	H	0.919497	0.287295	0.704781
C709	C	0.501514	-0.130956	0.127006
C710	C	1.001514	0.369044	0.627006
C711	C	0.527036	-0.160363	0.097013
C712	C	1.027036	0.339637	0.597013
C713	C	0.493998	-0.193482	0.070827
C714	C	0.993998	0.306518	0.570827
H715	H	0.481774	-0.150715	0.149976
H716	H	0.981774	0.349285	0.649976
H717	H	0.481534	-0.113713	0.106609
H718	H	0.981534	0.386287	0.606609
H719	H	0.547007	-0.177606	0.117408
H720	H	1.047007	0.322394	0.617408
H721	H	0.546773	-0.140618	0.074034
H722	H	1.046773	0.359382	0.574034
H723	H	0.474019	-0.176238	0.050430
H724	H	0.974019	0.323762	0.550430
H725	H	0.474260	-0.213237	0.093800
H726	H	0.974260	0.286763	0.593800
H727	H	0.511310	-0.213435	0.050470
H728	H	1.011310	0.286565	0.550470
H729	H	0.663722	0.031266	0.469068
H730	H	1.163722	0.531266	0.969068
H731	H	0.663726	0.031271	0.625730
H732	H	1.163726	0.531271	1.125730
H733	H	0.694889	0.425336	0.000056
H734	H	1.194889	0.925336	0.500056
H735	H	0.647846	0.710950	0.000047
H736	H	1.147846	1.210950	0.500047
