data_functionalizedCrystal
_audit_creation_method	'MofGen! by Chris Wilmer'
_symmetry_space_group_name_H-M	'P1'
_symmetry_Int_Tables_number	1
_symmetry_cell_setting	triclinic
loop_
_symmetry_equiv_pos_as_xyz
  x,y,z
_cell_length_a	15.538191
_cell_length_b	15.995350
_cell_length_c	14.185569
_cell_angle_alpha	76.847063
_cell_angle_beta	97.875798
_cell_angle_gamma	65.382234
loop_
_atom_site_label
_atom_site_type_symbol
_atom_site_fract_x
_atom_site_fract_y
_atom_site_fract_z
O1	O	1.228538	-0.246460	-0.083440
O2	O	0.954280	-0.149782	-0.083436
O3	O	1.098906	-0.322287	-0.083437
O4	O	1.083912	-0.073955	-0.083439
O5	O	1.141630	-0.373243	0.083397
O6	O	0.997004	-0.200737	0.083399
O7	O	1.271262	-0.297416	0.083394
Cu8	Cu	1.138034	-0.253729	0.098629
Cu9	Cu	1.087508	-0.193468	-0.098671
O10	O	1.126635	-0.124910	0.083395
C11	C	0.940547	-0.165144	-0.000018
C12	C	0.835973	-0.135015	-0.000016
C13	C	0.548179	-0.434345	-0.000030
C14	C	0.449913	-0.406012	-0.000031
C15	C	0.427470	-0.246646	-0.000032
C16	C	0.525737	-0.274967	-0.000026
C17	C	0.586085	-0.368817	-0.000026
C18	C	0.563643	-0.209439	-0.000022
C19	C	0.661900	-0.237757	-0.000021
C20	C	0.722252	-0.331602	-0.000025
C21	C	0.684342	-0.397135	-0.000026
C22	C	0.503292	-0.115587	-0.000029
C23	C	0.541197	-0.050060	-0.000025
C24	C	0.639458	-0.078379	-0.000017
C25	C	0.699811	-0.172225	-0.000021
C26	C	0.677369	-0.012847	-0.000016
C27	C	0.775626	-0.041165	-0.000016
C28	C	0.798068	-0.200542	-0.000020
C29	C	1.119648	-0.378771	-0.000022
C30	C	1.117788	-0.471155	-0.000028
C31	C	1.111115	-0.806875	-0.000024
C32	C	1.008019	-0.728023	-0.000397
C33	C	1.009974	-0.632013	-0.000021
C34	C	1.114425	-0.640320	-0.000026
C35	C	1.189625	-0.725935	0.095241
C36	C	1.187058	-0.821808	0.095321
C37	C	1.140601	-0.764867	-0.094401
C38	C	1.140254	-0.667530	-0.095660
C39	C	1.116302	-0.546193	-0.000024
C40	C	1.109243	-0.901005	-0.000019
C41	C	1.284995	-0.282052	-0.000026
C42	C	1.389566	-0.312180	-0.000034
C43	C	1.105893	-0.068426	-0.000022
C44	C	1.107752	0.023960	-0.000023
N45	N	1.173578	-0.296116	0.237400
N46	N	1.051971	-0.151090	-0.237442
C47	C	0.947543	-0.026594	0.605052
C48	C	0.974474	-0.058698	0.710074
C49	C	1.102566	-0.211417	0.710033
C50	C	1.075643	-0.179328	0.605010
C51	C	0.998131	-0.086915	0.552528
C52	C	1.126231	-0.239649	0.552485
C53	C	1.099314	-0.207560	0.447471
C54	C	1.021807	-0.115150	0.394981
C55	C	0.971214	-0.054826	0.447514
C56	C	1.203747	-0.332059	0.604969
C57	C	1.254336	-0.392380	0.552445
C58	C	1.227413	-0.360294	0.447428
C59	C	1.149907	-0.267884	0.394939
C60	C	1.278007	-0.420618	0.394896
C61	C	1.251089	-0.388529	0.289882
C62	C	1.122989	-0.235795	0.289925
H63	H	0.806491	0.012192	-0.000004
H64	H	0.733482	-0.473559	-0.000020
H65	H	0.802256	-0.354653	-0.000038
N66	N	1.043814	-0.141391	0.236320
N67	N	1.048104	-0.067971	0.248051
H68	H	0.992190	-0.001300	0.210192
H69	H	1.168250	-0.850603	0.166539
N70	N	0.868355	0.067802	0.551449
N71	N	0.823185	0.121653	0.598355
H72	H	0.767262	0.188319	0.560499
N73	N	0.859713	-0.296406	-0.000035
N74	N	0.899033	-0.308508	-0.070363
H75	H	0.942569	-0.376208	-0.070376
H76	H	0.597319	-0.510769	-0.000024
H77	H	1.225663	-0.358180	0.690479
N78	N	0.411209	-0.472963	-0.000039
N79	N	0.465103	-0.556750	-0.000042
H80	H	0.437769	-0.604034	-0.000050
N81	N	1.233952	-0.675071	-0.102886
N82	N	1.283442	-0.660456	-0.037373
H83	H	1.349619	-0.665780	-0.042472
H84	H	0.999895	-0.089023	0.309472
H85	H	0.908089	0.020421	0.404781
H86	H	0.933272	-0.009568	0.752834
N87	N	1.302772	-0.450202	0.236279
N88	N	1.346271	-0.423566	0.177663
H89	H	1.382781	-0.467150	0.139831
H90	H	0.378322	-0.170231	-0.000036
N91	N	0.479539	0.045794	-0.000014
N92	N	0.440211	0.057891	0.070310
H93	H	0.396664	0.125589	0.070320
H94	H	0.987290	-0.612824	0.068389
H95	H	1.317449	-0.467622	0.595188
H96	H	0.628218	0.063569	-0.000026
N97	N	0.937932	-0.554971	-0.085692
N98	N	0.885853	-0.571901	-0.146179
H99	H	0.834966	-0.517491	-0.206686
N100	N	1.357192	-0.514999	0.448527
N101	N	1.381226	-0.543632	0.542289
H102	H	1.437154	-0.610289	0.580167
N103	N	0.402928	-0.086674	-0.000020
N104	N	0.382089	-0.131088	0.070308
H105	H	0.311207	-0.110669	0.070316
N106	N	0.934433	-0.709396	-0.086110
N107	N	0.957107	-0.754019	-0.147923
H108	H	0.905137	-0.740866	-0.208464
N109	N	0.978435	-0.763017	0.084833
N110	N	1.032949	-0.845776	0.145847
H111	H	1.012058	-0.870494	0.206042
H112	H	1.172495	-0.708484	0.166140
N113	N	1.283318	-0.892755	0.100771
N114	N	1.353216	-0.917457	0.174050
H115	H	1.421201	-0.967562	0.177907
H116	H	1.267269	-0.736212	0.098780
N117	N	1.075175	-0.750143	-0.184989
N118	N	1.066953	-0.820225	-0.201801
H119	H	1.020741	-0.809827	-0.265776
H120	H	1.216377	-0.819511	-0.095045
H121	H	1.085062	-0.607467	-0.166136
N122	N	1.181747	-0.305802	0.763662
N123	N	1.205780	-0.334439	0.857424
H124	H	1.261705	-0.401099	0.895299
