data_functionalizedCrystal
_audit_creation_method	'MofGen! by Chris Wilmer'
_symmetry_space_group_name_H-M	'P1'
_symmetry_Int_Tables_number	1
_symmetry_cell_setting	triclinic
loop_
_symmetry_equiv_pos_as_xyz
  x,y,z
_cell_length_a	19.121414
_cell_length_b	19.121073
_cell_length_c	19.076919
_cell_angle_alpha	94.604058
_cell_angle_beta	94.615013
_cell_angle_gamma	94.803854
loop_
_atom_site_label
_atom_site_type_symbol
_atom_site_fract_x
_atom_site_fract_y
_atom_site_fract_z
Zn1	Zn	1.048446	-0.249492	-0.363868
Zn2	Zn	1.381779	0.083841	-0.030535
Zn3	Zn	1.715113	0.417174	0.302798
Zn4	Zn	1.048062	-0.362436	-0.251007
Zn5	Zn	1.381395	-0.029103	0.082326
Zn6	Zn	1.714729	0.304230	0.415660
Zn7	Zn	0.935513	-0.249805	-0.251018
Zn8	Zn	1.268846	0.083528	0.082316
Zn9	Zn	1.602179	0.416861	0.415649
Zn10	Zn	0.925284	-0.372581	-0.374332
Zn11	Zn	1.258617	-0.039247	-0.040998
Zn12	Zn	1.591950	0.294086	0.292335
O13	O	0.989326	-0.308579	-0.310056
O14	O	1.322659	0.024755	0.023277
O15	O	1.655993	0.358088	0.356611
O16	O	1.147041	-0.260098	-0.344513
O17	O	1.480374	0.073235	-0.011180
O18	O	1.813708	0.406568	0.322153
O19	O	1.037252	-0.343381	-0.152168
O20	O	1.370586	-0.010048	0.181165
O21	O	1.703919	0.323285	0.514499
O22	O	0.954935	-0.151114	-0.261613
O23	O	1.288268	0.182219	0.071720
O24	O	1.621602	0.515552	0.405054
O25	O	1.146759	-0.343078	-0.261595
O26	O	1.480092	-0.009745	0.071739
O27	O	1.813426	0.323589	0.405072
O28	O	1.037907	-0.150884	-0.344524
O29	O	1.371240	0.182449	-0.011191
O30	O	1.704573	0.515782	0.322143
O31	O	0.954563	-0.260632	-0.152176
O32	O	1.287896	0.072702	0.181157
O33	O	1.621230	0.406035	0.514491
O34	O	0.835510	-0.270468	-0.271759
O35	O	1.168843	0.062865	0.061574
O36	O	1.502176	0.396199	0.394908
O37	O	0.937501	-0.360367	-0.471784
O38	O	1.270834	-0.027034	-0.138451
O39	O	1.604168	0.306300	0.194883
O40	O	0.827994	-0.360670	-0.362357
O41	O	1.161328	-0.027337	-0.029024
O42	O	1.494661	0.305996	0.304309
O43	O	1.027988	-0.269935	-0.464097
O44	O	1.361321	0.063399	-0.130763
O45	O	1.694654	0.396732	0.202570
O46	O	1.027334	-0.462432	-0.271741
O47	O	1.360667	-0.129098	0.061593
O48	O	1.694000	0.204235	0.394926
O49	O	0.937129	-0.469884	-0.362347
O50	O	1.270462	-0.136551	-0.029014
O51	O	1.603796	0.196782	0.304320
C52	C	0.806174	-0.316704	-0.318195
C53	C	1.139508	0.016629	0.015138
C54	C	1.472841	0.349962	0.348471
C55	C	0.727820	-0.320198	-0.321695
C56	C	1.061153	0.013135	0.011639
C57	C	1.394486	0.346468	0.344972
C58	C	0.694901	-0.274811	-0.276240
C59	C	1.028234	0.058522	0.057093
C60	C	1.361567	0.391855	0.390426
C61	C	0.621278	-0.278100	-0.279528
C62	C	0.954611	0.055233	0.053805
C63	C	1.287944	0.388566	0.387138
C64	C	0.580575	-0.326773	-0.328275
C65	C	0.913909	0.006560	0.005058
C66	C	1.247242	0.339893	0.338392
C67	C	0.613499	-0.372165	-0.373731
C68	C	0.946833	-0.038832	-0.040398
C69	C	1.280166	0.294501	0.292935
C70	C	0.687121	-0.368879	-0.370439
C71	C	1.020454	-0.035546	-0.037106
C72	C	1.353787	0.297787	0.296227
C73	C	0.358092	-0.339051	-0.340568
C74	C	0.691425	-0.005718	-0.007235
C75	C	1.024758	0.327615	0.326098
C76	C	0.284465	-0.342333	-0.343858
C77	C	0.617799	-0.008999	-0.010525
C78	C	0.951132	0.324334	0.322808
C79	C	0.292249	-0.248268	-0.249654
C80	C	0.625582	0.085065	0.083679
C81	C	0.958915	0.418399	0.417013
C82	C	0.365871	-0.244983	-0.246369
C83	C	0.699205	0.088350	0.086964
C84	C	1.032538	0.421683	0.420297
C85	C	0.398789	-0.290378	-0.291823
C86	C	0.732122	0.042956	0.041510
C87	C	1.065455	0.376289	0.374844
C88	C	0.505321	-0.330135	-0.331639
C89	C	0.838654	0.003198	0.001695
C90	C	1.171988	0.336532	0.335028
C91	C	0.474042	-0.287019	-0.288455
C92	C	0.807375	0.046314	0.044878
C93	C	1.140709	0.379648	0.378211
C94	C	0.981098	-0.491737	-0.318193
C95	C	1.314431	-0.158403	0.015141
C96	C	1.647765	0.174930	0.348474
C97	C	0.977642	-0.570090	-0.321694
C98	C	1.310975	-0.236757	0.011639
C99	C	1.644308	0.096576	0.344973
C100	C	0.955756	-1.013441	-0.343918
C101	C	1.289090	-0.680108	-0.010585
C102	C	1.622423	-0.346774	0.322749
C103	C	0.959004	-0.939819	-0.340620
C104	C	1.292338	-0.606486	-0.007287
C105	C	1.625671	-0.273152	0.326046
C106	C	1.007625	-0.899107	-0.291828
C107	C	1.340959	-0.565773	0.041505
C108	C	1.674292	-0.232440	0.374838
C109	C	1.053007	-0.932020	-0.246336
C110	C	1.386340	-0.598686	0.086997
C111	C	1.719673	-0.265353	0.420330
C112	C	1.049761	-1.005641	-0.249638
C113	C	1.383095	-0.672307	0.083695
C114	C	1.716428	-0.338974	0.417029
C115	C	1.019778	-0.676624	-0.279504
C116	C	1.353111	-0.343291	0.053830
C117	C	1.686444	-0.009958	0.387163
C118	C	1.023018	-0.602999	-0.276204
C119	C	1.356351	-0.269665	0.057129
C120	C	1.689685	0.063668	0.390463
C121	C	0.929016	-0.610803	-0.370489
C122	C	1.262349	-0.277470	-0.037156
C123	C	1.595683	0.055864	0.296177
C124	C	0.925773	-0.684425	-0.373784
C125	C	1.259106	-0.351092	-0.040451
C126	C	1.592439	-0.017758	0.292883
C127	C	0.971156	-0.717332	-0.328294
C128	C	1.304489	-0.383998	0.005039
C129	C	1.637823	-0.050665	0.338372
C130	C	1.010945	-0.823853	-0.288455
C131	C	1.344278	-0.490520	0.044879
C132	C	1.677612	-0.157186	0.378212
C133	C	0.967839	-0.792584	-0.331672
C134	C	1.301173	-0.459251	0.001661
C135	C	1.634506	-0.125917	0.334995
C136	C	1.173193	-0.300422	-0.301886
C137	C	1.506526	0.032912	0.031448
C138	C	1.839860	0.366245	0.364781
C139	C	1.251546	-0.296946	-0.298404
C140	C	1.584879	0.036388	0.034929
C141	C	1.918213	0.369721	0.368263
C142	C	0.981646	-0.316247	-0.494285
C143	C	1.314980	0.017086	-0.160952
C144	C	1.648313	0.350419	0.172382
C145	C	0.978374	-0.319515	-0.572792
C146	C	1.311707	0.013818	-0.239459
C147	C	1.645040	0.347151	0.093874
C148	C	0.997605	-0.124705	-0.301903
C149	C	1.330938	0.208628	0.031431
C150	C	1.664271	0.541961	0.364764
C151	C	1.001133	-0.046349	-0.298428
C152	C	1.334466	0.286984	0.034905
C153	C	1.667799	0.620317	0.368239
C154	C	1.023945	-0.273970	-0.605674
C155	C	1.357279	0.059364	-0.272341
C156	C	1.690612	0.392697	0.060993
C157	C	1.020862	-0.277038	-0.679440
C158	C	1.354195	0.056295	-0.346107
C159	C	1.687528	0.389629	-0.012774
C160	C	0.972209	-0.325656	-0.720324
C161	C	1.305543	0.007677	-0.386990
C162	C	1.638876	0.341011	-0.053657
C163	C	0.926633	-0.371204	-0.687437
C164	C	1.259966	-0.037871	-0.354104
C165	C	1.593300	0.295463	-0.020770
C166	C	0.929714	-0.368132	-0.613672
C167	C	1.263047	-0.034798	-0.280339
C168	C	1.596380	0.298535	0.052995
C169	C	0.957941	-0.339890	-0.941367
C170	C	1.291274	-0.006557	-0.608033
C171	C	1.624608	0.326777	-0.274700
C172	C	0.954865	-0.342960	-1.015136
C173	C	1.288199	-0.009627	-0.681803
C174	C	1.621532	0.323707	-0.348470
C175	C	1.049094	-0.248793	-1.007135
C176	C	1.382427	0.084540	-0.673801
C177	C	1.715760	0.417874	-0.340468
C178	C	1.052173	-0.245728	-0.933369
C179	C	1.385506	0.087605	-0.600035
C180	C	1.718839	0.420939	-0.266702
C181	C	1.006594	-0.291273	-0.900488
C182	C	1.339927	0.042060	-0.567155
C183	C	1.673260	0.375394	-0.233822
N184	N	0.969058	-0.328795	-0.795725
N185	N	1.302391	0.004538	-0.462391
N186	N	1.635725	0.337872	-0.129058
N187	N	1.009742	-0.288130	-0.825089
N188	N	1.343076	0.045203	-0.491755
N189	N	1.676409	0.378536	-0.158422
C190	C	0.997019	-0.300887	-0.126540
C191	C	1.330352	0.032446	0.206793
C192	C	1.663686	0.365780	0.540127
C193	C	1.000437	-0.297414	-0.048018
C194	C	1.333770	0.035919	0.285315
C195	C	1.667104	0.369252	0.618649
H196	H	0.580354	-0.411799	-0.413419
H197	H	0.913687	-0.078466	-0.080085
H198	H	1.247020	0.254867	0.253248
H199	H	0.399007	-0.205353	-0.206670
H200	H	0.732340	0.127980	0.126663
H201	H	1.065673	0.461313	0.459997
N202	N	0.722625	-0.417834	-0.419467
N203	N	1.055958	-0.084501	-0.086133
N204	N	1.389292	0.248832	0.247200
H205	H	0.753096	-0.389241	-0.449609
H206	H	1.086430	-0.055907	-0.116276
H207	H	1.419763	0.277426	0.217058
H208	H	0.752860	-0.447888	-0.390740
H209	H	1.086194	-0.114555	-0.057407
H210	H	1.419527	0.218779	0.275927
N211	N	1.104622	-0.193262	-0.889277
N212	N	1.437956	0.140071	-0.555944
N213	N	1.771289	0.473404	-0.222610
H214	H	1.099652	-0.198222	-0.837558
H215	H	1.432986	0.135112	-0.504224
H216	H	1.766319	0.468445	-0.170891
H217	H	1.153945	-0.202515	-0.900409
H218	H	1.487278	0.130819	-0.567076
H219	H	1.820612	0.464152	-0.233743
N220	N	0.585761	-0.229138	-0.230522
N221	N	0.919095	0.104196	0.102811
N222	N	1.252428	0.437529	0.436145
H223	H	0.555290	-0.257726	-0.200376
H224	H	0.888623	0.075608	0.132958
H225	H	1.221956	0.408941	0.466291
H226	H	0.622751	-0.197804	-0.199190
H227	H	0.956085	0.135530	0.134143
H228	H	1.289418	0.468863	0.467477
H229	H	0.265439	-0.211311	-0.212648
H230	H	0.598773	0.122022	0.120686
H231	H	0.932106	0.455355	0.454019
N232	N	0.873325	-0.728335	-0.426403
N233	N	1.206658	-0.395002	-0.093069
N234	N	1.539991	-0.061668	0.240264
H235	H	0.845069	-0.696316	-0.454720
H236	H	1.178403	-0.362982	-0.121386
H237	H	1.511736	-0.029649	0.211947
H238	H	0.899280	-0.758929	-0.459207
H239	H	1.232614	-0.425596	-0.125874
H240	H	1.565947	-0.092263	0.207460
N241	N	0.240562	-0.394826	-0.396443
N242	N	0.573895	-0.061493	-0.063110
N243	N	0.907229	0.271840	0.270223
H244	H	0.272586	-0.423084	-0.424740
H245	H	0.605919	-0.089751	-0.091406
H246	H	0.939252	0.243582	0.241927
H247	H	0.209744	-0.427567	-0.370455
H248	H	0.543078	-0.094234	-0.037121
H249	H	0.876411	0.239100	0.296212
N250	N	0.880079	-0.575309	-0.419558
N251	N	1.213413	-0.241975	-0.086225
N252	N	1.546746	0.091358	0.247108
H253	H	0.848787	-0.612272	-0.450969
H254	H	1.182120	-0.278938	-0.117636
H255	H	1.515454	0.054395	0.215698
H256	H	0.850020	-0.545058	-0.390866
H257	H	1.183354	-0.211725	-0.057533
H258	H	1.516687	0.121609	0.275800
H259	H	1.086713	-1.032433	-0.212597
H260	H	1.420047	-0.699100	0.120737
H261	H	1.753380	-0.365767	0.454070
N262	N	0.908792	-0.389023	-0.905911
N263	N	1.242125	-0.055689	-0.572577
N264	N	1.575459	0.277644	-0.239244
H265	H	0.918121	-0.379702	-0.852977
H266	H	1.251454	-0.046369	-0.519644
H267	H	1.584788	0.286965	-0.186310
H268	H	0.858402	-0.380824	-0.920554
H269	H	1.191735	-0.047491	-0.587221
H270	H	1.525069	0.285843	-0.253887
N271	N	0.874142	-0.423628	-0.731528
N272	N	1.207475	-0.090294	-0.398195
N273	N	1.540808	0.243039	-0.064862
H274	H	0.879102	-0.418662	-0.783248
H275	H	1.212435	-0.085328	-0.449915
H276	H	1.545768	0.248005	-0.116581
H277	H	0.883371	-0.472956	-0.720386
H278	H	1.216704	-0.139623	-0.387052
H279	H	1.550038	0.193710	-0.053719
H280	H	1.086201	-0.211712	-1.033914
H281	H	1.419534	0.121622	-0.700581
H282	H	1.752867	0.454955	-0.367247
H283	H	0.507185	-0.247392	-0.248764
H284	H	0.840518	0.085941	0.084569
H285	H	1.173851	0.419275	0.417903
N286	N	0.738799	-0.222307	-0.223670
N287	N	1.072132	0.111026	0.109663
N288	N	1.405465	0.444360	0.442997
H289	H	0.706770	-0.194054	-0.195374
H290	H	1.040103	0.139279	0.137959
H291	H	1.373437	0.472613	0.471293
H292	H	0.769421	-0.248222	-0.190841
H293	H	1.102754	0.085111	0.142492
H294	H	1.436087	0.418445	0.475825
N295	N	0.393590	-0.388011	-0.389590
N296	N	0.726924	-0.054677	-0.056257
N297	N	1.060257	0.278656	0.277076
H298	H	0.356632	-0.419340	-0.420970
H299	H	0.689966	-0.086007	-0.087637
H300	H	1.023299	0.247326	0.245696
H301	H	0.424065	-0.359369	-0.419687
H302	H	0.757399	-0.026036	-0.086354
H303	H	1.090732	0.307298	0.246980
H304	H	0.472173	-0.369764	-0.371329
H305	H	0.805506	-0.036431	-0.037996
H306	H	1.138840	0.296902	0.295338
N307	N	0.880554	-0.417255	-0.578210
N308	N	1.213887	-0.083921	-0.244877
N309	N	1.547221	0.249412	0.088456
H310	H	0.888695	-0.467674	-0.592793
H311	H	1.222028	-0.134341	-0.259459
H312	H	1.555361	0.198993	0.073874
H313	H	0.889906	-0.407872	-0.525286
H314	H	1.223239	-0.074538	-0.191953
H315	H	1.556573	0.258795	0.141381
N316	N	0.903309	-1.057350	-0.396539
N317	N	1.236643	-0.724017	-0.063206
N318	N	1.569976	-0.390683	0.270128
H319	H	0.875058	-1.025328	-0.424856
H320	H	1.208391	-0.691995	-0.091523
H321	H	1.541724	-0.358662	0.241810
H322	H	0.929269	-1.087941	-0.429342
H323	H	1.262603	-0.754608	-0.096009
H324	H	1.595936	-0.421275	0.237325
H325	H	0.915244	-0.382553	-1.048422
H326	H	1.248578	-0.049219	-0.715089
H327	H	1.581911	0.284114	-0.381755
N328	N	0.910060	-0.904324	-0.389681
N329	N	1.243394	-0.570991	-0.056348
N330	N	1.576727	-0.237658	0.276985
H331	H	0.878763	-0.941287	-0.421087
H332	H	1.212096	-0.607953	-0.087754
H333	H	1.545429	-0.274620	0.245579
H334	H	0.880007	-0.874074	-0.360981
H335	H	1.213341	-0.540741	-0.027648
H336	H	1.546674	-0.207408	0.305685
H337	H	1.092599	-0.898867	-0.206611
H338	H	1.425932	-0.565534	0.126722
H339	H	1.759265	-0.232201	0.460056
H340	H	1.062613	-0.569853	-0.236469
H341	H	1.395947	-0.236520	0.096864
H342	H	1.729280	0.096813	0.430198
H343	H	1.056730	-0.703408	-0.242461
H344	H	1.390063	-0.370075	0.090873
H345	H	1.723397	-0.036741	0.424206
H346	H	0.928255	-0.825735	-0.371401
H347	H	1.261588	-0.492402	-0.038067
H348	H	1.594922	-0.159068	0.295266
N349	N	1.063376	-0.779933	-0.235826
N350	N	1.396709	-0.446600	0.097507
N351	N	1.730042	-0.113267	0.430841
H352	H	1.054000	-0.791162	-0.186412
H353	H	1.387333	-0.457829	0.146921
H354	H	1.720667	-0.124495	0.480254
H355	H	1.112695	-0.790927	-0.245223
H356	H	1.446028	-0.457594	0.088111
H357	H	1.779361	-0.124261	0.421444
N358	N	1.076425	-0.221535	-0.561581
N359	N	1.409758	0.111798	-0.228248
N360	N	1.743092	0.445131	0.105086
H361	H	1.104825	-0.193148	-0.593608
H362	H	1.438159	0.140186	-0.260275
H363	H	1.771492	0.473519	0.073059
H364	H	1.050479	-0.188910	-0.530801
H365	H	1.383812	0.144424	-0.197468
H366	H	1.717146	0.477757	0.135865
N367	N	1.070000	-0.227901	-0.714907
N368	N	1.403334	0.105433	-0.381573
N369	N	1.736667	0.438766	-0.048240
H370	H	1.101287	-0.196634	-0.677814
H371	H	1.434621	0.136699	-0.344481
H372	H	1.767954	0.470032	-0.011148
H373	H	1.100055	-0.256412	-0.745346
H374	H	1.433389	0.076922	-0.412012
H375	H	1.766722	0.410255	-0.078679
