data_functionalizedCrystal
_audit_creation_method	'MofGen! by Chris Wilmer'
_symmetry_space_group_name_H-M	'P1'
_symmetry_Int_Tables_number	1
_symmetry_cell_setting	triclinic
loop_
_symmetry_equiv_pos_as_xyz
  x,y,z
_cell_length_a	10.723023
_cell_length_b	10.723024
_cell_length_c	15.021413
_cell_angle_alpha	90.002854
_cell_angle_beta	90.006772
_cell_angle_gamma	95.532291
loop_
_atom_site_label
_atom_site_type_symbol
_atom_site_fract_x
_atom_site_fract_y
_atom_site_fract_z
O1	O	1.657195	-0.175009	0.074022
O2	O	2.157195	0.324991	0.574022
O3	O	1.294043	-0.191764	0.074026
O4	O	1.794043	0.308236	0.574026
O5	O	1.483996	-0.001810	0.074019
O6	O	1.983996	0.498190	0.574019
O7	O	1.467242	-0.364963	0.074029
O8	O	1.967242	0.135037	0.574029
O9	O	1.483967	-0.001831	-0.074045
O10	O	1.983967	0.498169	0.425955
O11	O	1.294014	-0.191784	-0.074039
O12	O	1.794014	0.308216	0.425961
O13	O	1.657166	-0.175030	-0.074042
O14	O	2.157166	0.324970	0.425958
Zn15	Zn	1.475585	-0.183410	-0.097549
Zn16	Zn	1.975585	0.316590	0.402451
Zn17	Zn	1.475624	-0.183383	0.097532
Zn18	Zn	1.975624	0.316617	0.597532
O19	O	1.467213	-0.364983	-0.074036
O20	O	1.967213	0.135017	0.425964
C21	C	1.247529	-0.190555	-0.000006
C22	C	1.747529	0.309445	0.499994
C23	C	1.108974	-0.186908	-0.000005
C24	C	1.608974	0.313092	0.499995
C25	C	1.047187	-0.185292	-0.076706
C26	C	1.547187	0.314708	0.423294
C27	C	0.903984	-0.181522	-0.076706
C28	C	1.403984	0.318478	0.423294
C29	C	1.482762	0.044679	-0.000012
C30	C	1.982762	0.544679	0.499988
C31	C	1.479114	0.183233	-0.000010
C32	C	1.979114	0.683233	0.499990
C33	C	1.703680	-0.176239	-0.000009
C34	C	2.203680	0.323761	0.499991
C35	C	1.842235	-0.179886	-0.000004
C36	C	2.342235	0.320114	0.499996
N37	N	1.475568	-0.183428	-0.230686
N38	N	1.975568	0.316572	0.269314
C39	C	1.585402	0.258216	-0.000011
C40	C	2.085402	0.758216	0.499989
C41	C	1.581634	0.401420	-0.000009
C42	C	2.081634	0.901420	0.499991
C43	C	1.468447	0.588527	-0.000004
C44	C	1.968447	1.088527	0.499996
C45	C	1.472095	0.449973	-0.000006
C46	C	1.972095	0.949973	0.499994
C47	C	1.388474	-0.271961	-0.529698
C48	C	1.888474	0.228039	-0.029698
C49	C	1.362267	-0.159327	-0.470342
C50	C	1.862267	0.340673	0.029658
C51	C	1.475622	-0.183377	-0.587723
C52	C	1.975622	0.316623	-0.087723
C53	C	1.501744	-0.296033	-0.470338
C54	C	2.001744	0.203967	0.029662
C55	C	1.475593	-0.183408	-0.412299
C56	C	1.975593	0.316592	0.087701
C57	C	1.449359	-0.070686	-0.529674
C58	C	1.949359	0.429314	-0.029674
C59	C	1.588886	-0.207466	-0.529675
C60	C	2.088886	0.292534	-0.029675
C61	C	1.562726	-0.094751	-0.470345
C62	C	2.062726	0.405249	0.029655
C63	C	1.475636	-0.183361	-0.688781
C64	C	1.975636	0.316639	-0.188781
C65	C	1.475579	-0.183412	-0.311244
C66	C	1.975579	0.316588	0.188756
N67	N	1.475651	-0.183355	0.230670
N68	N	1.975651	0.316645	0.730670
H69	H	1.100307	-0.186693	-0.142372
H70	H	1.600307	0.313307	0.357628
N71	N	1.242101	-0.133781	-0.437623
N72	N	1.742101	0.366219	0.062377
N73	N	1.223148	-0.128794	-0.355653
N74	N	1.723148	0.371206	0.144347
H75	H	1.138279	-0.110759	-0.332546
H76	H	1.638279	0.389241	0.167454
N77	N	1.695789	0.482238	-0.000029
N78	N	2.195789	0.982238	0.499971
N79	N	1.719108	0.557994	-0.062446
N80	N	2.219108	1.057994	0.437554
H81	H	1.799734	0.615075	-0.062463
H82	H	2.299734	1.115075	0.437537
N83	N	0.908855	-0.181637	0.082389
N84	N	1.408855	0.318363	0.582389
N85	N	0.883670	-0.269058	0.136450
N86	N	1.383670	0.230942	0.636450
H87	H	0.930728	-0.270295	0.194642
H88	H	1.430728	0.229705	0.694642
N89	N	1.529515	-0.415521	-0.437643
N90	N	2.029515	0.084479	0.062357
N91	N	1.623985	-0.423782	-0.390041
N92	N	2.123985	0.076218	0.109959
H93	H	1.643592	-0.508172	-0.366952
H94	H	2.143592	-0.008172	0.133048
H95	H	1.684653	-0.227873	-0.555759
H96	H	2.184653	0.272127	-0.055759
H97	H	1.427140	0.024593	-0.555628
H98	H	1.927140	0.524593	-0.055628
H99	H	1.381099	0.385548	-0.000012
H100	H	1.881099	0.885548	0.499988
N101	N	1.042354	-0.185114	0.082378
N102	N	1.542354	0.314886	0.582378
N103	N	0.980438	-0.095381	0.100317
N104	N	1.480438	0.404619	0.600317
H105	H	0.933390	-0.094111	0.158503
H106	H	1.433390	0.405889	0.658503
N107	N	1.296004	-0.365835	-0.562401
N108	N	1.796004	0.134165	-0.062401
N109	N	1.301854	-0.478245	-0.542323
N110	N	1.801854	0.021755	-0.042323
H111	H	1.236550	-0.544543	-0.565420
H112	H	1.736550	-0.044543	-0.065420
H113	H	1.385328	0.225055	-0.000004
H114	H	1.885328	0.725055	0.499996
H115	H	1.679188	0.216394	-0.000017
H116	H	2.179188	0.716394	0.499983
H117	H	1.636415	-0.019770	-0.444450
H118	H	2.136415	0.480230	0.055550
H119	H	0.850848	-0.180140	-0.142373
H120	H	1.350848	0.319860	0.357627
