data_functionalizedCrystal
_audit_creation_method	'MofGen! by Chris Wilmer'
_symmetry_space_group_name_H-M	'P1'
_symmetry_Int_Tables_number	1
_symmetry_cell_setting	triclinic
loop_
_symmetry_equiv_pos_as_xyz
  x,y,z
_cell_length_a	16.992694
_cell_length_b	16.992695
_cell_length_c	16.053948
_cell_angle_alpha	92.712453
_cell_angle_beta	92.711578
_cell_angle_gamma	90.668223
loop_
_atom_site_label
_atom_site_type_symbol
_atom_site_fract_x
_atom_site_fract_y
_atom_site_fract_z
O1	O	1.047717	0.163775	-0.069324
O2	O	1.547717	0.663775	0.430676
O3	O	0.819316	0.161943	-0.069349
O4	O	1.319316	0.661943	0.430651
O5	O	0.932601	0.048659	-0.069330
O6	O	1.432601	0.548659	0.430670
O7	O	0.934432	0.277058	-0.069343
O8	O	1.434432	0.777058	0.430657
O9	O	0.938867	0.054947	0.069526
O10	O	1.438867	0.554947	0.569526
O11	O	0.825582	0.168231	0.069507
O12	O	1.325582	0.668231	0.569507
O13	O	1.053983	0.170063	0.069532
O14	O	1.553983	0.670063	0.569532
Zn15	Zn	0.940777	0.170146	0.091566
Zn16	Zn	1.440777	0.670146	0.591566
Zn17	Zn	0.932521	0.161860	-0.091383
Zn18	Zn	1.432521	0.661860	0.408617
O19	O	0.940698	0.283347	0.069513
O20	O	1.440698	0.783347	0.569513
C21	C	0.793088	0.162731	0.000076
C22	C	1.293088	0.662731	0.500076
C23	C	0.705603	0.155702	0.000067
C24	C	1.205603	0.655702	0.500067
C25	C	0.659612	0.223520	0.000064
C26	C	1.159612	0.723520	0.500064
C27	C	0.577412	0.216911	0.000076
C28	C	1.077412	0.716911	0.500076
C29	C	0.541204	0.142484	0.000085
C30	C	1.041204	0.642484	0.500085
C31	C	0.587202	0.074661	0.000091
C32	C	1.087202	0.574661	0.500091
C33	C	0.669401	0.081271	0.000085
C34	C	1.169401	0.581271	0.500085
C35	C	0.295891	0.115090	0.000109
C36	C	0.795891	0.615090	0.500109
C37	C	0.213686	0.108486	0.000112
C38	C	0.713686	0.608486	0.500112
C39	C	0.203902	0.250737	0.000099
C40	C	0.703902	0.750737	0.500099
C41	C	0.286103	0.257339	0.000088
C42	C	0.786103	0.757339	0.500088
C43	C	0.332093	0.189517	0.000098
C44	C	0.832093	0.689517	0.500098
N45	N	0.457183	0.135727	0.000094
N46	N	0.957183	0.635727	0.500094
N47	N	0.416114	0.196275	0.000094
N48	N	0.916114	0.696275	0.500094
C49	C	0.933378	0.022443	0.000098
C50	C	1.433378	0.522443	0.500098
C51	C	0.926349	-0.065042	0.000097
C52	C	1.426349	0.434958	0.500097
C53	C	0.994168	-0.111032	0.000105
C54	C	1.494168	0.388968	0.500105
C55	C	0.987559	-0.193233	0.000096
C56	C	1.487559	0.306767	0.500096
C57	C	0.913130	-0.229442	0.000086
C58	C	1.413130	0.270558	0.500086
C59	C	0.845307	-0.183446	0.000075
C60	C	1.345307	0.316554	0.500075
C61	C	0.851917	-0.101246	0.000078
C62	C	1.351917	0.398754	0.500078
C63	C	0.885735	-0.474757	0.000071
C64	C	1.385735	0.025243	0.500071
C65	C	0.879131	-0.556962	0.000071
C66	C	1.379131	-0.056962	0.500071
C67	C	1.021383	-0.566744	0.000091
C68	C	1.521383	-0.066744	0.500091
C69	C	1.027986	-0.484543	0.000099
C70	C	1.527986	0.015457	0.500099
C71	C	0.960163	-0.438554	0.000083
C72	C	1.460163	0.061446	0.500083
N73	N	0.906373	-0.313465	0.000079
N74	N	1.406373	0.186535	0.500079
N75	N	0.966921	-0.354533	0.000084
N76	N	1.466921	0.145467	0.500084
C77	C	1.080210	0.169275	0.000105
C78	C	1.580210	0.669275	0.500105
C79	C	1.167695	0.176304	0.000109
C80	C	1.667695	0.676304	0.500109
C81	C	0.939920	0.309563	0.000084
C82	C	1.439920	0.809563	0.500084
C83	C	0.946949	0.397047	0.000079
C84	C	1.446949	0.897047	0.500079
N85	N	0.946417	0.175800	0.216424
N86	N	1.446417	0.675800	0.716424
N87	N	0.926887	0.156200	-0.216241
N88	N	1.426887	0.656200	0.283759
C89	C	0.897673	0.127017	0.260139
C90	C	1.397673	0.627017	0.760139
C91	C	0.901639	0.130983	0.347544
C92	C	1.401639	0.630983	0.847544
C93	C	0.954353	0.183728	0.391232
C94	C	1.454353	0.683728	0.891232
C95	C	1.003100	0.232516	0.347511
C96	C	1.503100	0.732516	0.847511
C97	C	0.999130	0.228554	0.260107
C98	C	1.499130	0.728554	0.760107
C99	C	0.971663	0.201026	0.652634
C100	C	1.471663	0.701026	1.152634
C101	C	0.975631	0.204983	0.740044
C102	C	1.475631	0.704983	1.240044
C103	C	0.874169	0.103450	0.740072
C104	C	1.374169	0.603450	1.240072
C105	C	0.870207	0.099489	0.652666
C106	C	1.370207	0.599489	1.152666
C107	C	0.918950	0.148280	0.608952
C108	C	1.418950	0.648280	1.108952
N109	N	0.958410	0.187781	0.480574
N110	N	1.458410	0.687781	0.980574
N111	N	0.914889	0.144230	0.519612
N112	N	1.414889	0.644230	1.019612
H113	H	0.184209	0.047875	0.000119
H114	H	0.684209	0.547875	0.500119
F115	F	1.093560	-0.615695	0.000106
F116	F	1.593560	-0.115695	0.500106
F117	F	0.822294	0.051531	0.786601
F118	F	1.322294	0.551531	1.286601
F119	F	0.344827	0.042907	0.000119
F120	F	0.844827	0.542907	0.500119
H121	H	0.539969	0.272136	0.000072
H122	H	1.039969	0.772136	0.500072
H123	H	0.315577	0.317945	0.000071
H124	H	0.815577	0.817945	0.500071
F125	F	1.023523	0.252972	0.606122
F126	F	1.523523	0.752972	1.106122
H127	H	0.557715	0.014061	0.000110
H128	H	1.057715	0.514061	0.500110
H129	H	1.018559	0.247937	0.775612
H130	H	1.518559	0.747937	1.275612
H131	H	1.046018	0.275465	0.383088
H132	H	1.546018	0.775465	0.883088
F133	F	0.718348	0.009089	0.000091
F134	F	1.218348	0.509089	0.500091
F135	F	1.059741	-0.242176	0.000107
F136	F	1.559741	0.257824	0.500107
H137	H	0.796692	-0.063801	0.000071
H138	H	1.296692	0.436199	0.500071
H139	H	0.166449	0.305954	0.000092
H140	H	0.666449	0.805954	0.500092
F141	F	1.073385	-0.072503	0.000125
F142	F	1.573385	0.427497	0.500125
F143	F	1.051012	0.280473	0.213582
F144	F	1.551012	0.780473	0.713582
F145	F	0.698140	0.302736	0.000048
F146	F	1.198140	0.802736	0.500048
F147	F	1.107202	-0.446014	0.000089
F148	F	1.607202	0.053986	0.500089
H149	H	0.818520	-0.586440	0.000076
H150	H	1.318520	-0.086440	0.500076
F151	F	0.813550	-0.425822	0.000053
F152	F	1.313550	0.074178	0.500053
H153	H	0.784705	-0.212933	0.000061
H154	H	1.284705	0.287067	0.500061
H155	H	0.861946	0.091259	0.383134
H156	H	1.361946	0.591259	0.883134
F157	F	0.841573	0.070872	0.213651
F158	F	1.341573	0.570872	0.713651
H159	H	0.827283	0.056537	0.617102
H160	H	1.327283	0.556537	1.117102
