data_functionalizedCrystal
_audit_creation_method	'MofGen! by Chris Wilmer'
_symmetry_space_group_name_H-M	'P1'
_symmetry_Int_Tables_number	1
_symmetry_cell_setting	triclinic
loop_
_symmetry_equiv_pos_as_xyz
  x,y,z
_cell_length_a	9.065218
_cell_length_b	14.853567
_cell_length_c	7.540329
_cell_angle_alpha	90.000203
_cell_angle_beta	89.996962
_cell_angle_gamma	84.325408
loop_
_atom_site_label
_atom_site_type_symbol
_atom_site_fract_x
_atom_site_fract_y
_atom_site_fract_z
O1	O	1.957778	0.132191	-0.147470
O2	O	1.528279	0.143034	-0.147471
O3	O	1.754501	0.006468	-0.147476
O4	O	1.731556	0.268757	-0.147465
O5	O	1.754488	0.006466	0.147489
O6	O	1.528265	0.143032	0.147494
O7	O	1.957765	0.132189	0.147495
Cu8	Cu	1.743014	0.137611	0.174427
Cu9	Cu	1.743030	0.137613	-0.174403
O10	O	1.731542	0.268756	0.147500
C11	C	1.473306	0.141991	0.000011
C12	C	1.309525	0.138875	0.000010
C13	C	1.753455	-0.027130	0.000001
C14	C	1.750339	-0.127236	-0.000014
C15	C	1.602788	-0.540862	0.000019
C16	C	1.871546	-0.560154	0.000020
C17	C	1.874475	-0.466099	0.000010
C18	C	1.741559	-0.409421	0.000007
C19	C	1.605714	-0.446798	0.000014
C20	C	2.010318	-0.428714	0.000020
C21	C	2.013253	-0.334654	0.000012
C22	C	1.880335	-0.277974	-0.000004
C23	C	1.744484	-0.315356	0.000002
C24	C	1.611568	-0.258678	-0.000001
C25	C	1.475716	-0.296059	-0.000008
C26	C	1.472796	-0.390118	-0.000001
C27	C	1.883255	-0.183915	-0.000011
C28	C	1.614494	-0.164614	-0.000006
C29	C	2.012738	0.133232	0.000009
C30	C	2.176519	0.136348	-0.000002
C31	C	1.732589	0.302353	0.000019
C32	C	1.735704	0.402460	0.000022
N33	N	1.743013	0.137609	0.419776
N34	N	1.743042	0.137608	-0.419752
H35	H	1.506255	-0.118471	-0.000016
H36	H	2.118531	-0.474868	0.000039
C37	C	1.325419	-0.430829	-0.000267
C38	C	1.315913	-0.484293	-0.151985
C39	C	1.180182	-0.521825	-0.152271
H40	H	1.246544	-0.383701	-0.000363
H41	H	1.318683	-0.467167	0.102549
H42	H	1.322634	-0.447957	-0.254774
H43	H	1.394756	-0.531435	-0.151921
H44	H	1.173447	-0.558163	-0.049455
H45	H	1.101319	-0.474691	-0.152362
H46	H	1.173721	-0.558110	-0.255200
H47	H	2.123872	-0.304227	0.000015
H48	H	1.367496	-0.249899	0.000002
C49	C	2.030627	-0.143203	-0.000280
C50	C	2.040153	-0.089756	-0.152017
C51	C	2.175888	-0.052229	-0.152316
H52	H	2.109497	-0.190334	-0.000360
H53	H	2.037355	-0.106856	0.102523
H54	H	2.033439	-0.126101	-0.254793
H55	H	1.961315	-0.042611	-0.151969
H56	H	2.182617	-0.015881	-0.049513
H57	H	2.254748	-0.099365	-0.152391
H58	H	2.182365	-0.015954	-0.255258
C59	C	1.455404	-0.581565	-0.000262
C60	C	1.445894	-0.635018	-0.151995
C61	C	1.310154	-0.672538	-0.152303
H62	H	1.376538	-0.534432	-0.000353
H63	H	1.448655	-0.617909	0.102544
H64	H	1.452629	-0.598677	-0.254774
H65	H	1.524728	-0.682166	-0.151936
H66	H	1.303405	-0.708882	-0.049497
H67	H	1.231299	-0.625399	-0.152389
H68	H	1.303690	-0.708817	-0.255242
C69	C	2.015897	-0.621641	0.000388
C70	C	2.097663	-0.604593	0.152155
C71	C	2.230645	-0.661228	0.152561
H72	H	2.071766	-0.610245	-0.102358
H73	H	1.994764	-0.683026	0.000491
H74	H	2.118799	-0.543222	0.152036
H75	H	2.041839	-0.615994	0.254925
H76	H	2.209512	-0.722613	0.152664
H77	H	2.286501	-0.649827	0.049809
H78	H	2.286133	-0.649675	0.255541
