data_functionalizedCrystal
_audit_creation_method	'MofGen! by Chris Wilmer'
_symmetry_space_group_name_H-M	'P1'
_symmetry_Int_Tables_number	1
_symmetry_cell_setting	triclinic
loop_
_symmetry_equiv_pos_as_xyz
  x,y,z
_cell_length_a	14.971482
_cell_length_b	13.262508
_cell_length_c	13.448316
_cell_angle_alpha	105.911733
_cell_angle_beta	89.993798
_cell_angle_gamma	84.039810
loop_
_atom_site_label
_atom_site_type_symbol
_atom_site_fract_x
_atom_site_fract_y
_atom_site_fract_z
O1	O	1.187331	0.136760	-0.045689
O2	O	0.926976	0.153143	-0.041262
O3	O	1.063707	-0.007827	-0.084792
O4	O	1.050600	0.297730	-0.002159
O5	O	1.063689	-0.007837	0.080589
O6	O	0.926958	0.153134	0.124119
O7	O	1.187313	0.136750	0.119693
Cu8	Cu	1.057134	0.144941	0.137006
Cu9	Cu	1.057155	0.144953	-0.058576
O10	O	1.050582	0.297720	0.163222
C11	C	0.893640	0.152407	0.041230
C12	C	0.794337	0.150213	0.040635
C13	C	0.747680	0.149174	0.130506
C14	C	0.654376	0.147096	0.129945
C15	C	0.607729	0.146065	0.039514
C16	C	0.654393	0.147100	-0.050364
C17	C	0.747696	0.149171	-0.049805
C18	C	0.459919	0.142788	-0.051524
C19	C	0.366609	0.140719	-0.052084
C20	C	0.366598	0.140713	0.128225
C21	C	0.459902	0.142784	0.128785
C22	C	0.506559	0.143821	0.038907
C23	C	1.062965	-0.046935	-0.012678
C24	C	1.060769	-0.163452	-0.044195
C25	C	1.054538	-0.491927	0.227574
C26	C	1.056594	-0.382453	0.257187
C27	C	1.057638	-0.327697	0.181844
C28	C	1.056626	-0.382426	0.076884
C29	C	1.054563	-0.491910	0.047269
C30	C	1.057663	-0.327680	0.001538
C31	C	1.056651	-0.382409	-0.103422
C32	C	1.054588	-0.491882	-0.133032
C33	C	1.053544	-0.546638	-0.057689
C34	C	1.059726	-0.218197	0.031153
C35	C	1.059751	-0.218180	-0.149152
C36	C	1.057695	-0.327654	-0.178765
C37	C	1.220649	0.137487	0.037198
C38	C	1.319952	0.139681	0.037787
C39	C	1.051324	0.336829	0.091107
C40	C	1.053520	0.453345	0.122616
N41	N	1.057126	0.144932	0.274568
N42	N	1.057170	0.144953	-0.196140
C43	C	1.117690	0.073684	0.307342
C44	C	1.117695	0.073683	0.411445
C45	C	1.057141	0.144936	0.482774
C46	C	0.996571	0.216188	0.449994
C47	C	0.996562	0.216183	0.345892
C48	C	0.996596	0.216195	0.666976
C49	C	0.996606	0.216201	0.771087
C50	C	1.117730	0.073695	0.732529
C51	C	1.117720	0.073690	0.628427
C52	C	1.057151	0.144943	0.595655
H53	H	0.616394	0.146233	0.203122
H54	H	1.167032	0.015675	0.570351
C55	C	0.929989	0.294575	0.849545
C56	C	0.863360	0.372937	0.813490
C57	C	0.796741	0.451312	0.891946
C58	C	0.796750	0.451325	1.006457
C59	C	0.863382	0.372960	1.042517
C60	C	0.930001	0.294585	0.964061
H61	H	0.863351	0.372931	0.728717
H62	H	0.747416	0.509323	0.865251
H63	H	0.747435	0.509342	1.064535
H64	H	0.863391	0.372966	1.127290
H65	H	0.979326	0.236574	0.990756
C66	C	0.315291	0.139574	-0.151557
C67	C	0.260969	0.047082	-0.201339
C68	C	0.209649	0.045936	-0.300812
C69	C	0.212651	0.137281	-0.350501
C70	C	0.266976	0.229779	-0.300718
C71	C	0.318296	0.230926	-0.201246
H72	H	0.258744	-0.020543	-0.164557
H73	H	0.169434	-0.022538	-0.337664
H74	H	0.174661	0.136432	-0.424136
H75	H	0.269200	0.297404	-0.337501
H76	H	0.358511	0.299400	-0.164393
C77	C	0.511207	0.143896	0.228259
C78	C	0.488553	0.234657	0.327201
C79	C	0.539855	0.235754	0.426674
C80	C	0.613812	0.146090	0.427206
C81	C	0.636471	0.055322	0.328260
C82	C	0.585168	0.054225	0.228786
H83	H	0.433802	0.301038	0.326811
H84	H	0.523082	0.302947	0.499921
H85	H	0.651790	0.146902	0.500842
H86	H	0.691221	-0.011059	0.328650
H87	H	0.601942	-0.012968	0.155540
C88	C	0.315284	0.139566	0.227095
C89	C	0.241309	0.229206	0.276132
C90	C	0.189992	0.228064	0.375000
C91	C	0.212650	0.137282	0.424831
C92	C	0.286629	0.047635	0.375793
C93	C	0.337946	0.048777	0.276925
H94	H	0.224533	0.296414	0.239245
H95	H	0.135228	0.294427	0.411301
H96	H	0.174662	0.136437	0.498019
H97	H	0.303405	-0.019573	0.412681
H98	H	0.392710	-0.017586	0.240625
C99	C	0.511246	0.143933	-0.150388
C100	C	0.508253	0.052589	-0.249473
C101	C	0.559581	0.053742	-0.348331
C102	C	0.613902	0.146237	-0.348103
C103	C	0.616897	0.237588	-0.249014
C104	C	0.565569	0.236435	-0.150157
H105	H	0.468040	-0.015888	-0.249645
H106	H	0.557363	-0.013882	-0.421683
H107	H	0.651898	0.147090	-0.421284
H108	H	0.657110	0.306064	-0.248843
H109	H	0.567787	0.304059	-0.076805
H110	H	1.053756	-0.536439	-0.218497
C111	C	0.799024	0.150317	-0.148662
C112	C	0.796026	0.058967	-0.247742
C113	C	0.847353	0.060108	-0.346604
C114	C	0.901678	0.152597	-0.346387
C115	C	0.904678	0.243954	-0.247304
C116	C	0.853351	0.242813	-0.148442
H117	H	0.755810	-0.009506	-0.247906
H118	H	0.845133	-0.007521	-0.419951
H119	H	0.939674	0.153442	-0.419570
H120	H	0.944894	0.312426	-0.247139
H121	H	0.855571	0.310442	-0.075094
C122	C	0.798989	0.150315	0.229983
C123	C	0.776324	0.241096	0.328907
C124	C	0.827631	0.242235	0.428386
C125	C	0.901603	0.152593	0.428941
C126	C	0.924271	0.061806	0.330014
C127	C	0.872964	0.060666	0.230534
H128	H	0.721563	0.307460	0.328500
H129	H	0.810850	0.309442	0.501619
H130	H	0.939583	0.153437	0.502582
H131	H	0.979032	-0.004559	0.330421
H132	H	0.889745	-0.006541	0.157302
C133	C	1.060900	-0.157962	-0.232040
C134	C	1.138200	-0.184827	-0.313682
C135	C	1.139346	-0.124601	-0.396563
C136	C	1.063191	-0.037511	-0.397801
C137	C	0.985884	-0.010642	-0.316155
C138	C	0.984739	-0.070867	-0.233275
H139	H	1.194580	-0.249300	-0.312769
H140	H	1.196573	-0.144492	-0.457002
H141	H	1.064039	0.007071	-0.459153
H142	H	0.929505	0.053831	-0.317069
H143	H	0.927511	-0.050977	-0.172836
C144	C	1.060846	-0.158003	0.146603
C145	C	0.982976	-0.161249	0.220097
C146	C	0.984098	-0.101056	0.335554
C147	C	1.063090	-0.037618	0.377517
C148	C	1.140966	-0.034370	0.304021
C149	C	1.139844	-0.094562	0.188564
H150	H	0.924496	-0.208212	0.189035
H151	H	0.926449	-0.103461	0.389960
H152	H	1.063921	0.006940	0.462985
H153	H	1.199446	0.012593	0.335084
H154	H	1.197493	-0.092157	0.134158
C155	C	1.057714	-0.322260	0.372636
C156	C	0.981550	-0.235183	0.420988
C157	C	0.982671	-0.174992	0.536446
C158	C	1.059957	-0.201877	0.603551
C159	C	1.136127	-0.288958	0.555200
C160	C	1.135006	-0.349149	0.439742
H161	H	0.924333	-0.215278	0.371313
H162	H	0.926285	-0.110528	0.572238
H163	H	1.060788	-0.157319	0.689020
H164	H	1.193344	-0.308863	0.604876
H165	H	1.191392	-0.413613	0.403950
H166	H	0.616407	0.146253	-0.123997
H167	H	0.947271	0.274214	0.640298
C168	C	1.053379	-0.552169	0.310432
C169	C	0.974372	-0.615612	0.318031
C170	C	0.973207	-0.675860	0.400891
C171	C	1.051049	-0.672664	0.476152
C172	C	1.130062	-0.609218	0.468556
C173	C	1.131227	-0.548970	0.385695
H174	H	0.916743	-0.617980	0.262316
H175	H	0.914716	-0.722827	0.406514
H176	H	1.050187	-0.717263	0.537490
H177	H	1.187691	-0.606850	0.524271
H178	H	1.189718	-0.502003	0.380072
H179	H	1.059311	-0.238558	0.205961
C180	C	1.184302	-0.004698	0.228884
C181	C	1.250916	-0.083074	0.264939
C182	C	1.317528	-0.161461	0.186483
C183	C	1.317526	-0.161472	0.071973
C184	C	1.250909	-0.083093	0.035912
C185	C	1.184297	-0.004706	0.114368
H186	H	1.250920	-0.083068	0.349711
H187	H	1.366842	-0.219482	0.213178
H188	H	1.366836	-0.219499	0.013896
H189	H	1.250905	-0.083099	-0.048860
H190	H	1.134983	0.053315	0.087673
H191	H	1.051875	-0.635781	-0.081795
H192	H	1.056870	-0.372230	-0.264225
H193	H	1.167010	0.015667	0.438127
H194	H	1.167046	0.015678	0.759218
H195	H	0.947262	0.274200	0.508076
H196	H	0.947244	0.274199	0.319210
