data_functionalizedCrystal
_audit_creation_method	'MofGen! by Chris Wilmer'
_symmetry_space_group_name_H-M	'P1'
_symmetry_Int_Tables_number	1
_symmetry_cell_setting	triclinic
loop_
_symmetry_equiv_pos_as_xyz
  x,y,z
_cell_length_a	14.519731
_cell_length_b	16.974959
_cell_length_c	15.455313
_cell_angle_alpha	96.307475
_cell_angle_beta	87.313475
_cell_angle_gamma	83.546093
loop_
_atom_site_label
_atom_site_type_symbol
_atom_site_fract_x
_atom_site_fract_y
_atom_site_fract_z
O1	O	1.227183	0.100611	-0.065080
O2	O	0.958623	0.112840	-0.064224
O3	O	1.100833	-0.008750	-0.072741
O4	O	1.084973	0.222202	-0.056562
O5	O	1.092701	-0.001826	0.072006
O6	O	0.950491	0.119765	0.080523
O7	O	1.219051	0.107536	0.079668
Cu8	Cu	1.084029	0.114282	0.093312
Cu9	Cu	1.093646	0.106094	-0.077868
O10	O	1.076841	0.229126	0.088185
C11	C	1.096312	-0.034846	-0.002440
C12	C	1.094943	-0.122918	-0.008615
C13	C	0.920202	0.115729	0.008110
C14	C	0.817834	0.114012	0.007989
C15	C	1.087804	-0.619089	-0.051940
C16	C	1.089080	-0.536334	-0.046120
C17	C	1.085278	-0.491197	0.035692
C18	C	1.080209	-0.528821	0.111689
C19	C	1.078939	-0.611575	0.105868
C20	C	1.088605	-0.243296	0.061561
C21	C	1.089872	-0.160536	0.067376
C22	C	1.098744	-0.168054	-0.090433
C23	C	1.097469	-0.250809	-0.096247
C24	C	1.092405	-0.288426	-0.020250
N25	N	1.086579	-0.406608	0.041643
N26	N	1.091110	-0.373015	-0.026202
C27	C	0.734700	0.112617	0.007888
C28	C	0.630403	0.110874	0.007765
C29	C	0.547274	0.109490	0.007668
C30	C	0.442971	0.107747	0.007544
C31	C	1.257473	0.104646	0.007332
C32	C	1.359841	0.106363	0.007447
C33	C	1.081363	0.255221	0.017882
C34	C	1.082732	0.343293	0.024051
N35	N	1.077271	0.120042	0.213711
N36	N	1.100411	0.100328	-0.198268
C37	C	1.137708	0.068405	0.255488
C38	C	1.132606	0.072767	0.346601
C39	C	1.067071	0.128771	0.395937
C40	C	1.006628	0.180411	0.354153
C41	C	1.011726	0.176043	0.263041
C42	C	1.045066	0.147600	0.668837
C43	C	1.039974	0.151965	0.759955
C44	C	1.165951	0.044320	0.752397
C45	C	1.171047	0.039961	0.661284
C46	C	1.110601	0.091598	0.619508
N47	N	1.061857	0.133234	0.489069
N48	N	1.115812	0.087131	0.526377
H49	H	1.090891	-0.655832	-0.118560
H50	H	1.074809	-0.642202	0.167748
C51	C	1.208895	0.007517	0.202079
C52	C	1.260712	-0.036784	0.258171
C53	C	1.326289	-0.092891	0.209005
H54	H	1.249214	0.034334	0.168519
H55	H	1.177903	-0.027320	0.164246
H56	H	1.291702	-0.001952	0.295989
H57	H	1.220419	-0.063618	0.291732
H58	H	1.295298	-0.127728	0.171171
H59	H	1.366601	-0.066067	0.175446
H60	H	1.361449	-0.122961	0.247055
H61	H	1.093211	-0.505709	-0.108000
C62	C	1.104099	-0.127095	-0.172869
C63	C	1.025762	-0.070997	-0.173518
C64	C	1.030670	-0.033244	-0.249443
H65	H	1.106139	-0.165738	-0.222491
H66	H	1.158527	-0.100881	-0.174302
H67	H	0.971348	-0.097210	-0.172094
H68	H	1.023706	-0.032338	-0.123914
H69	H	1.085098	-0.007031	-0.250876
H70	H	1.032712	-0.071893	-0.299058
H71	H	0.977524	0.004827	-0.249889
H72	H	1.077119	-0.492065	0.178302
H73	H	0.995850	0.189646	0.634831
H74	H	1.215163	0.002280	0.786419
H75	H	1.224411	-0.005641	0.621117
H76	H	1.181818	0.030720	0.380616
H77	H	0.986605	0.197573	0.800121
C78	C	1.085751	-0.111668	0.156287
C79	C	1.081053	-0.162324	0.221597
C80	C	1.077249	-0.117335	0.303506
H81	H	1.032281	-0.073274	0.162353
H82	H	1.139841	-0.085192	0.161486
H83	H	1.026967	-0.188787	0.216400
H84	H	1.134516	-0.200718	0.215559
H85	H	1.131340	-0.090859	0.308705
H86	H	1.023779	-0.078943	0.309563
H87	H	1.074069	-0.151699	0.347829
C88	C	1.101715	-0.299686	-0.185154
C89	C	1.106480	-0.249034	-0.250461
C90	C	1.110428	-0.294034	-0.332374
H91	H	1.047670	-0.326195	-0.190452
H92	H	1.155220	-0.338055	-0.191127
H93	H	1.052980	-0.210678	-0.244491
H94	H	1.160523	-0.222523	-0.245193
H95	H	1.163933	-0.332404	-0.338347
H96	H	1.056382	-0.320542	-0.337662
H97	H	1.113670	-0.259675	-0.376695
C98	C	0.935570	0.241189	0.407869
C99	C	0.944057	0.233979	0.496605
C100	C	0.878622	0.289964	0.546112
H101	H	0.874856	0.231793	0.392450
H102	H	0.946152	0.293459	0.396688
H103	H	0.933467	0.181721	0.507782
H104	H	1.004756	0.243382	0.512050
H105	H	0.889205	0.342235	0.534931
H106	H	0.817913	0.280564	0.530686
H107	H	0.884377	0.285085	0.606325
H108	H	1.084482	-0.273914	0.123443
H109	H	0.962511	0.218091	0.229028
