data_functionalizedCrystal
_audit_creation_method	'MofGen! by Chris Wilmer'
_symmetry_space_group_name_H-M	'P1'
_symmetry_Int_Tables_number	1
_symmetry_cell_setting	triclinic
loop_
_symmetry_equiv_pos_as_xyz
  x,y,z
_cell_length_a	19.121102
_cell_length_b	12.759400
_cell_length_c	12.759393
_cell_angle_alpha	90.031769
_cell_angle_beta	87.540415
_cell_angle_gamma	92.430863
loop_
_atom_site_label
_atom_site_type_symbol
_atom_site_fract_x
_atom_site_fract_y
_atom_site_fract_z
Zn1	Zn	1.073793	0.486827	-0.662513
Zn2	Zn	1.073724	0.662542	-0.486829
Zn3	Zn	0.956339	0.479376	-0.479357
Zn4	Zn	0.956329	0.654958	-0.654978
O5	O	1.015046	0.570926	-0.570919
O6	O	1.172069	0.516429	-0.645489
O7	O	1.058128	0.638301	-0.338815
O8	O	0.971952	0.333345	-0.503679
O9	O	1.172019	0.645526	-0.516415
O10	O	1.058245	0.338820	-0.638243
O11	O	0.971886	0.503729	-0.333325
O12	O	0.858052	0.496375	-0.496372
O13	O	0.971935	0.632599	-0.803000
O14	O	0.858045	0.625374	-0.625401
O15	O	1.058235	0.509074	-0.808536
O16	O	1.058119	0.808555	-0.509108
O17	O	0.971869	0.802983	-0.632647
C18	C	0.832564	0.559243	-0.559259
C19	C	0.754498	0.554271	-0.554295
C20	C	1.015004	0.843890	-0.570895
C21	C	1.015051	0.960670	-0.570923
C22	C	1.015107	0.296896	-0.570968
C23	C	1.015133	0.180121	-0.570989
C24	C	0.717837	0.619199	-0.619036
C25	C	0.644485	0.614513	-0.614377
C26	C	0.607795	0.544904	-0.544971
C27	C	0.644462	0.479968	-0.480228
C28	C	0.717812	0.484650	-0.484893
C29	C	0.386324	0.527399	-0.527536
C30	C	0.312968	0.522724	-0.522874
C31	C	0.312996	0.657269	-0.657025
C32	C	0.386348	0.661948	-0.661679
C33	C	0.423008	0.597009	-0.596940
C34	C	0.532818	0.540114	-0.540206
C35	C	0.497984	0.601794	-0.601712
C36	C	1.198240	0.582654	-0.582626
C37	C	1.276307	0.587653	-0.587615
C38	C	1.015092	0.570822	-0.844956
C39	C	1.015111	0.570777	-0.961734
C40	C	1.060011	1.018402	-0.506674
C41	C	1.060054	1.128129	-0.506710
C42	C	0.970171	1.122382	-0.635245
C43	C	0.970132	1.012657	-0.635215
C44	C	1.111902	1.021721	-0.432462
C45	C	1.111945	1.131447	-0.432497
C46	C	0.970224	0.500695	-1.013744
C47	C	0.970245	0.500665	-1.123470
C48	C	1.060047	0.640803	-1.129165
C49	C	1.060022	0.640838	-1.019441
C50	C	0.918379	0.419784	-1.010457
C51	C	0.918400	0.419754	-1.120183
C52	C	1.015041	0.570956	-0.297952
C53	C	1.015158	0.570713	-0.181183
H54	H	0.747704	0.675887	-0.675550
Cl55	Cl	1.195855	0.980979	-0.471557
H56	H	0.937876	0.343751	-0.977685
H57	H	0.527859	0.658465	-0.658226
Cl58	Cl	0.598399	0.696142	-0.695770
H59	H	0.866726	0.445577	-1.150911
H60	H	0.863969	0.438095	-0.977207
H61	H	0.747661	0.431773	-0.432180
Cl62	Cl	0.432466	0.749464	-0.748933
Cl63	Cl	0.913705	1.187745	-0.716065
H64	H	0.933528	0.965653	-0.687541
Cl65	Cl	0.940817	0.295504	-1.167626
Cl66	Cl	1.089513	1.176127	-0.305425
Cl67	Cl	1.081827	0.967378	-0.311169
Cl68	Cl	0.266905	0.738902	-0.738405
H69	H	1.096563	0.697920	-0.977098
Cl70	Cl	0.266845	0.435216	-0.435607
H71	H	0.416163	0.474528	-0.474813
Cl72	Cl	0.598338	0.392451	-0.392982
Cl73	Cl	0.486688	0.452607	-0.452956
Cl74	Cl	1.191725	1.188963	-0.482707
H75	H	1.096612	0.697843	-1.176163
