data_functionalizedCrystal
_audit_creation_method	'MofGen! by Chris Wilmer'
_symmetry_space_group_name_H-M	'P1'
_symmetry_Int_Tables_number	1
_symmetry_cell_setting	triclinic
loop_
_symmetry_equiv_pos_as_xyz
  x,y,z
_cell_length_a	12.759401
_cell_length_b	16.959454
_cell_length_c	12.759393
_cell_angle_alpha	89.969236
_cell_angle_beta	89.980163
_cell_angle_gamma	90.021600
loop_
_atom_site_label
_atom_site_type_symbol
_atom_site_fract_x
_atom_site_fract_y
_atom_site_fract_z
Zn1	Zn	1.606216	-0.314602	-0.594026
Zn2	Zn	1.606094	-0.446804	-0.418349
Zn3	Zn	1.430518	-0.314647	-0.418362
Zn4	Zn	1.430490	-0.446746	-0.593986
O5	O	1.518329	-0.380700	-0.506181
O6	O	1.753221	-0.332145	-0.570734
O7	O	1.582764	-0.429316	-0.271330
O8	O	1.453887	-0.204030	-0.441686
O9	O	1.753131	-0.429273	-0.441665
O10	O	1.582972	-0.203997	-0.570746
O11	O	1.453769	-0.332221	-0.271339
O12	O	1.283493	-0.332165	-0.441647
O13	O	1.453840	-0.429174	-0.741013
O14	O	1.283473	-0.429218	-0.570678
O15	O	1.582945	-0.332089	-0.741042
O16	O	1.582737	-0.557407	-0.441626
O17	O	1.453721	-0.557365	-0.570666
C18	C	1.245362	-0.380690	-0.506160
C19	C	1.128585	-0.380705	-0.506176
C20	C	1.073740	-0.431317	-0.573257
C21	C	0.964016	-0.431320	-0.573277
C22	C	0.963992	-0.330097	-0.439128
C23	C	1.073714	-0.330090	-0.439113
C24	C	1.518241	-0.586066	-0.506163
C25	C	1.518300	-0.673923	-0.506190
C26	C	1.451248	-1.045406	-0.573365
C27	C	1.585703	-1.045390	-0.439104
C28	C	1.585666	-0.962845	-0.439094
C29	C	1.518418	-0.921576	-0.506220
C30	C	1.451207	-0.962853	-0.573355
C31	C	1.652868	-0.921561	-0.371953
C32	C	1.652833	-0.839011	-0.371940
C33	C	1.585590	-0.797740	-0.439071
C34	C	1.518377	-0.839022	-0.506210
C35	C	1.451130	-0.797753	-0.573335
C36	C	1.383921	-0.839034	-0.640480
C37	C	1.383964	-0.921582	-0.640486
C38	C	1.585547	-0.715192	-0.439065
C39	C	1.451089	-0.715200	-0.573326
C40	C	1.792363	-0.380710	-0.506202
C41	C	1.909139	-0.380715	-0.506212
C42	C	1.518403	-0.380620	-0.780214
C43	C	1.518434	-0.380586	-0.896991
C44	C	1.518446	-0.174532	-0.506222
C45	C	1.518496	-0.086675	-0.506239
C46	C	1.451290	-0.330019	-0.951857
C47	C	1.451315	-0.329995	-1.061581
C48	C	1.585635	-0.431106	-1.061563
C49	C	1.585605	-0.431134	-0.951841
C50	C	1.518317	-0.380723	-0.233213
C51	C	1.518489	-0.380534	-0.116437
H52	H	1.118413	-0.472529	-0.627866
H53	H	1.640262	-0.681585	-0.384392
H54	H	1.707610	-0.955169	-0.317295
F55	F	1.657068	-0.484960	-0.893445
H56	H	1.329246	-0.955200	-0.695151
F57	F	1.379729	-1.089339	-0.644826
F58	F	0.905651	-0.485188	-0.644676
F59	F	1.379518	-0.671285	-0.644777
F60	F	0.905585	-0.276233	-0.367758
H61	H	1.118370	-0.288871	-0.384488
F62	F	1.312349	-0.795103	-0.711913
H63	H	1.640446	-1.078997	-0.384447
H64	H	1.707558	-0.805405	-0.317268
H65	H	1.396595	-0.288860	-0.907201
H66	H	1.396639	-0.288819	-1.106249
H67	H	1.640324	-0.472260	-1.106236
