data_functionalizedCrystal
_audit_creation_method	'MofGen! by Chris Wilmer'
_symmetry_space_group_name_H-M	'P1'
_symmetry_Int_Tables_number	1
_symmetry_cell_setting	triclinic
loop_
_symmetry_equiv_pos_as_xyz
  x,y,z
_cell_length_a	16.625548
_cell_length_b	25.639240
_cell_length_c	16.625539
_cell_angle_alpha	90.038438
_cell_angle_beta	90.020568
_cell_angle_gamma	90.033826
loop_
_atom_site_label
_atom_site_type_symbol
_atom_site_fract_x
_atom_site_fract_y
_atom_site_fract_z
Zn1	Zn	1.232623	-0.208135	0.455853
Zn2	Zn	1.232502	-0.295573	0.320996
Zn3	Zn	1.097785	-0.208155	0.321033
Zn4	Zn	1.097731	-0.295543	0.455786
O5	O	1.165160	-0.251851	0.388417
O6	O	1.345439	-0.219738	0.437976
O7	O	1.214603	-0.283998	0.208168
O8	O	1.115744	-0.134987	0.338961
O9	O	1.345350	-0.283978	0.338897
O10	O	1.214809	-0.134972	0.438012
O11	O	1.115627	-0.219772	0.208196
O12	O	0.984945	-0.219743	0.338896
O13	O	1.115653	-0.283927	0.568627
O14	O	0.984906	-0.283946	0.437898
O15	O	1.214757	-0.219709	0.568676
O16	O	1.214551	-0.368734	0.338833
O17	O	1.115535	-0.368712	0.437862
C18	C	0.955669	-0.251844	0.388394
C19	C	0.866048	-0.251853	0.388404
C20	C	0.537872	-0.251857	0.388438
C21	C	0.629181	-0.251854	0.388426
C22	C	0.701957	-0.251855	0.388420
C23	C	0.793272	-0.251852	0.388409
C24	C	1.165046	-0.387694	0.388354
C25	C	1.165071	-0.445808	0.388354
C26	C	1.216769	-0.806125	0.440086
C27	C	1.216793	-0.860729	0.440102
O28	O	1.260612	-0.888927	0.484022
N29	N	1.165272	-0.888090	0.388495
C30	C	1.113718	-0.860844	0.336873
O31	O	1.069898	-0.889131	0.292979
C32	C	1.113691	-0.806241	0.336862
C33	C	1.165221	-0.778883	0.388467
C34	C	1.268294	-0.778767	0.491687
C35	C	1.268271	-0.724166	0.491670
C36	C	1.216723	-0.696924	0.440051
C37	C	1.165198	-0.724282	0.388449
C38	C	1.062134	-0.778996	0.285245
C39	C	1.062111	-0.724389	0.285238
C40	C	1.113641	-0.697031	0.336843
C41	C	1.113627	-0.642440	0.336812
N42	N	1.165148	-0.615078	0.388420
C43	C	1.216696	-0.642321	0.440039
C44	C	1.113778	-0.975515	0.336903
C45	C	1.113809	-1.030117	0.336910
C46	C	1.216883	-1.029998	0.440140
C47	C	1.216855	-0.975395	0.440128
C48	C	1.165299	-0.948154	0.388510
C49	C	1.216644	-0.527655	0.439997
C50	C	1.216619	-0.473050	0.439973
C51	C	1.113543	-0.473174	0.336746
C52	C	1.113571	-0.527774	0.336767
C53	C	1.165124	-0.555014	0.388399
O54	O	1.069827	-0.614207	0.292917
O55	O	1.260502	-0.614027	0.483933
C56	C	1.375469	-0.251859	0.388440
C57	C	1.465090	-0.251863	0.388450
C58	C	1.165212	-0.251812	0.598726
C59	C	1.165235	-0.251796	0.688347
C60	C	1.165296	-0.115478	0.388498
C61	C	1.165354	-0.057364	0.388532
C62	C	1.165154	-0.251852	0.178926
C63	C	1.165288	-0.251722	0.089305
C64	C	1.165272	-0.251737	1.016523
C65	C	1.165259	-0.251755	0.925214
C66	C	1.165254	-0.251767	0.852438
C67	C	1.165240	-0.251784	0.761124
H68	H	1.258584	-0.450777	0.481996
H69	H	1.020125	-0.702212	0.243205
O70	O	1.266795	-0.554030	0.490181
C71	C	1.368987	-0.548135	0.592607
C72	C	1.312246	-0.518201	0.535805
H73	H	1.405736	-0.519180	0.629521
H74	H	1.411239	-0.573683	0.555683
H75	H	1.331943	-0.573707	0.634711
H76	H	1.349225	-0.492600	0.493690
H77	H	1.269991	-0.492686	0.572778
O78	O	1.318405	-0.697569	0.541691
C79	C	1.427203	-0.635833	0.552650
C80	C	1.370490	-0.665926	0.495903
H81	H	1.469316	-0.610233	0.515655
H82	H	1.464102	-0.664665	0.589532
H83	H	1.390129	-0.610293	0.594787
H84	H	1.407502	-0.691466	0.453718
H85	H	1.333588	-0.637065	0.459079
O86	O	1.318450	-0.805144	0.541858
C87	C	1.420657	-0.799244	0.644269
C88	C	1.363899	-0.769313	0.587480
H89	H	1.457405	-0.770288	0.681181
H90	H	1.462909	-0.824786	0.607335
H91	H	1.383626	-0.824824	0.686375
H92	H	1.400865	-0.743705	0.545363
H93	H	1.321644	-0.743804	0.624465
O94	O	1.266930	-0.948902	0.490339
C95	C	1.369198	-0.954562	0.592698
C96	C	1.312517	-0.984626	0.535884
H97	H	1.406082	-0.983432	0.629524
H98	H	1.332181	-0.929015	0.634877
H99	H	1.411335	-0.928976	0.555707
H100	H	1.270369	-1.010241	0.572810
H101	H	1.349584	-1.010140	0.493703
H102	H	1.071576	-0.450985	0.294716
H103	H	1.258854	-1.052189	0.482173
H104	H	1.071798	-0.953338	0.294863
O105	O	1.063683	-1.056609	0.286748
C106	C	0.961481	-1.050949	0.184324
C107	C	1.018200	-1.020885	0.241101
H108	H	0.924705	-1.022079	0.147391
H109	H	0.919252	-1.076501	0.221269
H110	H	0.998544	-1.076530	0.142237
H111	H	0.981202	-0.995276	0.283199
H112	H	1.060431	-0.995366	0.204106
H113	H	1.071617	-0.550051	0.294740
O114	O	1.011997	-0.805483	0.235093
C115	C	0.909780	-0.799814	0.132684
C116	C	0.966511	-0.769755	0.189456
H117	H	0.873001	-0.770941	0.095760
H118	H	0.867554	-0.825365	0.169633
H119	H	0.946834	-0.825395	0.090589
H120	H	0.929521	-0.744145	0.231562
H121	H	1.008739	-0.744236	0.152457
