data_functionalizedCrystal
_audit_creation_method	'MofGen! by Chris Wilmer'
_symmetry_space_group_name_H-M	'P1'
_symmetry_Int_Tables_number	1
_symmetry_cell_setting	triclinic
loop_
_symmetry_equiv_pos_as_xyz
  x,y,z
_cell_length_a	8.497374
_cell_length_b	12.827893
_cell_length_c	12.827892
_cell_angle_alpha	89.984638
_cell_angle_beta	89.992687
_cell_angle_gamma	90.001575
loop_
_atom_site_label
_atom_site_type_symbol
_atom_site_fract_x
_atom_site_fract_y
_atom_site_fract_z
Zn1	Zn	0.891962	1.597487	0.416215
Zn2	Zn	0.628170	1.597435	0.590924
Zn3	Zn	0.628190	1.422782	0.416197
Zn4	Zn	0.891902	1.422714	0.590915
O5	O	0.760056	1.510105	0.503563
O6	O	0.856986	1.743716	0.439402
O7	O	0.407411	1.574274	0.567742
O8	O	0.663214	1.446008	0.269964
O9	O	0.663179	1.743678	0.567760
O10	O	0.857006	1.574363	0.269977
O11	O	0.407425	1.445958	0.439372
O12	O	0.663156	1.276537	0.439363
O13	O	1.112673	1.445891	0.567744
O14	O	0.856904	1.276487	0.567727
O15	O	1.112717	1.574296	0.439393
O16	O	0.663121	1.574207	0.737159
O17	O	0.856884	1.445840	0.737152
C18	C	0.760026	1.238595	0.503543
C19	C	0.760051	1.122442	0.503559
C20	C	0.855776	1.070659	0.567177
C21	C	0.855803	0.950609	0.567195
C22	C	0.760028	1.510039	0.775073
C23	C	0.760069	1.510107	0.891226
C24	C	1.171537	1.510097	0.503564
C25	C	1.350181	1.510099	0.503575
C26	C	0.760087	1.782675	0.503584
C27	C	0.760101	1.898828	0.503593
C28	C	0.760119	1.510199	0.230993
C29	C	0.760145	1.510239	0.114839
C30	C	0.664296	1.573702	0.942979
C31	C	0.664336	1.573774	1.063030
H32	H	0.678124	1.077897	0.449103
H33	H	0.937714	1.115204	0.621625
H34	H	0.582276	1.628101	0.898413
C35	C	0.966525	0.890460	0.640780
C36	C	0.966395	0.770414	0.640694
C37	C	1.077121	0.710263	0.714281
C38	C	1.187977	0.770157	0.787954
C39	C	1.188111	0.890209	0.788044
C40	C	1.077385	0.950361	0.714456
H41	H	0.884329	0.726071	0.586154
H42	H	1.077021	0.621392	0.714214
H43	H	1.269943	0.725629	0.842428
H44	H	1.270177	0.934552	0.842584
H45	H	1.077486	1.039231	0.714523
C46	C	0.649374	0.958970	0.430005
C47	C	0.718028	1.034049	0.348089
C48	C	0.607302	1.094201	0.274502
C49	C	0.427922	1.079273	0.282831
C50	C	0.359259	1.004190	0.364750
C51	C	0.469985	0.944039	0.438338
H52	H	0.850825	1.045103	0.341920
H53	H	0.658132	1.149782	0.213859
H54	H	0.345956	1.123800	0.228357
H55	H	0.226462	0.993136	0.370919
H56	H	0.419155	0.888458	0.498980
H57	H	0.582336	1.628217	1.107536
H58	H	0.842139	1.455785	1.070340
H59	H	0.842100	1.455718	0.935794
