data_functionalizedCrystal
_audit_creation_method	'MofGen! by Chris Wilmer'
_symmetry_space_group_name_H-M	'P1'
_symmetry_Int_Tables_number	1
_symmetry_cell_setting	triclinic
loop_
_symmetry_equiv_pos_as_xyz
  x,y,z
_cell_length_a	12.759395
_cell_length_b	12.645324
_cell_length_c	12.759394
_cell_angle_alpha	89.965987
_cell_angle_beta	90.015598
_cell_angle_gamma	89.979098
loop_
_atom_site_label
_atom_site_type_symbol
_atom_site_fract_x
_atom_site_fract_y
_atom_site_fract_z
Zn1	Zn	1.606266	-0.599371	-0.418165
Zn2	Zn	1.606157	-0.422105	-0.593890
Zn3	Zn	1.430565	-0.422122	-0.418227
Zn4	Zn	1.430556	-0.599326	-0.593805
O5	O	1.518386	-0.510731	-0.506022
O6	O	1.753273	-0.575868	-0.441485
O7	O	1.582822	-0.273760	-0.570649
O8	O	1.453921	-0.445661	-0.271198
O9	O	1.753193	-0.445631	-0.570589
O10	O	1.583009	-0.575885	-0.271152
O11	O	1.453815	-0.273773	-0.441591
O12	O	1.283543	-0.445617	-0.441509
O13	O	1.453907	-0.747680	-0.570445
O14	O	1.283537	-0.575808	-0.570505
O15	O	1.583000	-0.747713	-0.441403
O16	O	1.582814	-0.445587	-0.740900
O17	O	1.453801	-0.575791	-0.740838
C18	C	1.245419	-0.510710	-0.506005
C19	C	1.128642	-0.510727	-0.506024
C20	C	0.909291	-0.646597	-0.371828
C21	C	0.964199	-0.714502	-0.304708
C22	C	1.073921	-0.714484	-0.304690
C23	C	1.128737	-0.646555	-0.371802
C24	C	1.073829	-0.578650	-0.438922
C25	C	0.964104	-0.578674	-0.438930
C26	C	1.073734	-0.442822	-0.573144
C27	C	0.964012	-0.442833	-0.573158
C28	C	1.128550	-0.374893	-0.640255
C29	C	1.073642	-0.306981	-0.707372
C30	C	0.963914	-0.307002	-0.707386
C31	C	0.909104	-0.374928	-0.640278
C32	C	1.518465	-0.787237	-0.505908
C33	C	1.518499	-0.905067	-0.505859
C34	C	1.600027	-1.072652	-0.424914
C35	C	1.599766	-0.950092	-0.424622
C36	C	1.407813	-0.949550	-0.475774
C37	C	1.408308	-1.072149	-0.475159
C38	C	1.546757	-1.072259	-0.617007
C39	C	1.549178	-0.949654	-0.616448
C40	C	1.792420	-0.510753	-0.506039
C41	C	1.909196	-0.510762	-0.506047
C42	C	1.518323	-0.510706	-0.778989
C43	C	1.518392	-0.510730	-0.895766
C44	C	1.518368	-0.235301	-0.506060
C45	C	1.518538	-0.117472	-0.505813
C46	C	1.652834	-0.375250	-0.895777
C47	C	1.720083	-0.307523	-0.950644
C48	C	1.720144	-0.307551	-1.060365
C49	C	1.652952	-0.375317	-1.115223
C50	C	1.585704	-0.443045	-1.060357
C51	C	1.585648	-0.443006	-0.950632
C52	C	1.451269	-0.578528	-1.060345
C53	C	1.451200	-0.578496	-0.950624
C54	C	1.384077	-0.646294	-1.115203
C55	C	1.316822	-0.714018	-1.060337
C56	C	1.316762	-0.713986	-0.950609
C57	C	1.383952	-0.646223	-0.895757
C58	C	1.518478	-0.510780	-0.231988
C59	C	1.518517	-0.510801	-0.115212
H60	H	1.118627	-0.769779	-0.250037
H61	H	1.630633	-0.920579	-0.639134
C62	C	1.384145	-0.646322	-1.235900
N63	N	1.384190	-0.646340	-1.326810
C64	C	0.903894	-0.789204	-0.230872
N65	N	0.858474	-0.845464	-0.175255
C66	C	1.242917	-0.788550	-1.120687
N67	N	1.187248	-0.844686	-1.166147
C68	C	1.383898	-0.646186	-0.775061
N69	N	1.383865	-0.646160	-0.684150
H70	H	0.919214	-0.251710	-0.762049
C71	C	1.249247	-0.374871	-0.640230
N72	N	1.340157	-0.374848	-0.640207
H73	H	1.681841	-0.920017	-0.443462
H74	H	1.652777	-0.375206	-0.806436
C75	C	1.133946	-0.232266	-0.781184
N76	N	1.179371	-0.175986	-0.836777
H77	H	0.819763	-0.374938	-0.640271
C78	C	1.242790	-0.788501	-0.890264
N79	N	1.187075	-0.844630	-0.844817
H80	H	1.682374	-1.102141	-0.443518
C81	C	1.575109	-1.114292	-0.314247
N82	N	1.556337	-1.145656	-0.230893
C83	C	0.788594	-0.646617	-0.371835
N84	N	0.697684	-0.646635	-0.371839
C85	C	1.574515	-0.910492	-0.313343
N86	N	1.555491	-0.880666	-0.229524
H87	H	1.384389	-1.100762	-0.393877
H88	H	1.345526	-1.101796	-0.531519
C89	C	1.653029	-0.375350	-1.235920
N90	N	1.653085	-0.375374	-1.326830
H91	H	1.774909	-0.252407	-1.105037
H92	H	1.494140	-0.919001	-0.679967
H93	H	1.345445	-0.920383	-0.532886
H94	H	1.383456	-0.918859	-0.395399
H95	H	1.626058	-1.103241	-0.644397
C96	C	1.466578	-1.111421	-0.698440
N97	N	1.406186	-1.140926	-0.759768
C98	C	1.793987	-0.232981	-0.890292
N99	N	1.849652	-0.176836	-0.844838
H100	H	1.218078	-0.646556	-0.371791
