data_functionalizedCrystal
_audit_creation_method	'MofGen! by Chris Wilmer'
_symmetry_space_group_name_H-M	'P1'
_symmetry_Int_Tables_number	1
_symmetry_cell_setting	triclinic
loop_
_symmetry_equiv_pos_as_xyz
  x,y,z
_cell_length_a	19.077692
_cell_length_b	16.625548
_cell_length_c	19.076919
_cell_angle_alpha	92.279214
_cell_angle_beta	85.342111
_cell_angle_gamma	92.269401
loop_
_atom_site_label
_atom_site_type_symbol
_atom_site_fract_x
_atom_site_fract_y
_atom_site_fract_z
Zn1	Zn	-0.296667	-1.227403	0.409902
Zn2	Zn	0.203333	-0.727403	0.909902
Zn3	Zn	-0.409812	-1.237716	0.296753
Zn4	Zn	0.090188	-0.737716	0.796753
Zn5	Zn	-0.291951	-1.097782	0.292028
Zn6	Zn	0.208049	-0.597782	0.792028
Zn7	Zn	-0.414508	-1.097728	0.414593
Zn8	Zn	0.085492	-0.597728	0.914593
O9	O	-0.353234	-1.165157	0.353319
O10	O	0.146766	-0.665157	0.853319
O11	O	-0.311684	-1.341603	0.394907
O12	O	0.188316	-0.841603	0.894907
O13	O	-0.390239	-1.223492	0.197479
O14	O	0.109761	-0.723492	0.697479
O15	O	-0.193934	-1.110683	0.303723
O16	O	0.306066	-0.610683	0.803723
O17	O	-0.394812	-1.349180	0.311777
O18	O	0.105188	-0.849180	0.811777
O19	O	-0.197398	-1.205915	0.390324
O20	O	0.302602	-0.705915	0.890324
O21	O	-0.303646	-1.120683	0.194007
O22	O	0.196354	-0.620683	0.694007
O23	O	-0.308200	-0.984943	0.308272
O24	O	0.191800	-0.484943	0.808272
O25	O	-0.402815	-1.110591	0.512618
O26	O	0.097185	-0.610591	1.012618
O27	O	-0.398242	-0.984903	0.398321
O28	O	0.101758	-0.484903	0.898321
O29	O	-0.316237	-1.205863	0.509171
O30	O	0.183763	-0.705863	1.009171
O31	O	-0.509078	-1.223439	0.316326
O32	O	-0.009078	-0.723439	0.816326
O33	O	-0.512528	-1.120591	0.402903
O34	O	-0.012528	-0.620591	0.902903
C35	C	-0.353219	-0.955667	0.353293
C36	C	0.146781	-0.455667	0.853293
C37	C	-0.353231	-0.866046	0.353299
C38	C	0.146769	-0.366046	0.853299
C39	C	-0.353230	-0.537869	0.353321
C40	C	0.146770	-0.037869	0.853321
C41	C	-0.353228	-0.629178	0.353312
C42	C	0.146772	-0.129178	0.853312
C43	C	-0.353231	-0.701955	0.353309
C44	C	0.146769	-0.201955	0.853309
C45	C	-0.353228	-0.793269	0.353302
C46	C	0.146772	-0.293269	0.853302
C47	C	-0.536380	-1.173150	0.360652
C48	C	-0.036380	-0.673150	0.860652
C49	C	-0.614732	-1.176642	0.363813
C50	C	-0.114732	-0.676642	0.863813
C51	C	-0.649799	-1.128748	0.320179
C52	C	-0.149799	-0.628748	0.820179
C53	C	-0.723419	-1.132037	0.323152
C54	C	-0.223419	-0.632037	0.823152
C55	C	-0.761970	-1.183216	0.369762
C56	C	-0.261970	-0.683216	0.869762
C57	C	-0.726898	-1.231115	0.413397
C58	C	-0.226898	-0.731115	0.913397
C59	C	-0.653279	-1.227830	0.410421
C60	C	-0.153279	-0.727830	0.910421
C61	C	-0.982333	-1.198358	0.383501
C62	C	-0.482333	-0.698358	0.883501
C63	C	-1.055956	-1.201638	0.386476
C64	C	-0.555956	-0.701638	0.886476
C65	C	-1.052473	-1.102561	0.296229
C66	C	-0.552473	-0.602561	0.796229
C67	C	-0.978853	-1.099276	0.293259
C68	C	-0.478853	-0.599276	0.793259
C69	C	-0.943787	-1.147178	0.336892
C70	C	-0.443787	-0.647178	0.836892
N71	N	-0.837221	-1.186578	0.372804
N72	N	-0.337221	-0.686578	0.872804
N73	N	-0.868537	-1.143820	0.333846
N74	N	-0.368537	-0.643820	0.833846
C75	C	-0.169374	-1.157155	0.345973
C76	C	0.330626	-0.657155	0.845973
C77	C	-0.091024	-1.153744	0.342842
C78	C	0.408976	-0.653744	0.842842
C79	C	-0.360576	-1.157071	0.537188
C80	C	0.139424	-0.657071	1.037188
C81	C	-0.363705	-1.153625	0.615542
C82	C	0.136295	-0.653625	1.115542
C83	C	-0.353245	-0.375465	0.353339
C84	C	0.146755	0.124535	0.853339
C85	C	-0.353237	-0.465087	0.353329
C86	C	0.146763	0.034913	0.853329
C87	C	-0.345870	-1.173256	0.170163
C88	C	0.154130	-0.673256	0.670163
C89	C	-0.342543	-1.176850	0.091802
C90	C	0.157457	-0.676850	0.591802
C91	C	-0.320100	-1.201606	0.650559
C92	C	0.179900	-0.701606	1.150559
C93	C	-0.323037	-1.198358	0.724181
C94	C	0.176963	-0.698358	1.224181
C95	C	-0.369583	-1.147133	0.762784
C96	C	0.130417	-0.647133	1.262784
C97	C	-0.413189	-1.099146	0.727762
C98	C	0.086811	-0.599146	1.227762
C99	C	-0.410248	-1.102390	0.654141
C100	C	0.089752	-0.602390	1.154141
C101	C	-0.383209	-1.132107	0.983159
C102	C	0.116791	-0.632107	1.483159
C103	C	-0.386148	-1.128868	1.056784
C104	C	0.113852	-0.628868	1.556784
C105	C	-0.295995	-1.228080	1.053199
C106	C	0.204005	-0.728080	1.553199
C107	C	-0.293061	-1.231323	0.979577
C108	C	0.206939	-0.731323	1.479577
C109	C	-0.336664	-1.183333	0.944561
C110	C	0.163336	-0.683333	1.444561
N111	N	-0.372587	-1.143813	0.838038
N112	N	0.127413	-0.643813	1.338038
N113	N	-0.333656	-1.186649	0.869308
N114	N	0.166344	-0.686649	1.369308
H115	H	-0.618416	-1.087069	0.282228
H116	H	-0.118416	-0.587069	0.782228
H117	H	-0.445748	-1.063310	0.625631
H118	H	0.054252	-0.563310	1.125631
N119	N	-0.427738	-1.083084	0.947390
N120	N	0.072262	-0.583084	1.447390
N121	N	-0.401287	-1.032429	0.905317
N122	N	0.098713	-0.532429	1.405317
H123	H	-0.432736	-0.997801	0.880053
H124	H	0.067264	-0.497801	1.380053
H125	H	-0.953788	-1.237360	0.419029
H126	H	-0.453788	-0.737360	0.919029
N127	N	-0.759229	-1.083095	0.278589
N128	N	-0.259229	-0.583095	0.778589
N129	N	-0.724801	-1.037389	0.236988
N130	N	-0.224801	-0.537389	0.736988
H131	H	-0.750090	-1.002815	0.205517
H132	H	-0.250090	-0.502815	0.705517
N133	N	-0.766285	-1.283396	0.461000
N134	N	-0.266285	-0.783396	0.961000
N135	N	-0.832014	-1.286323	0.463653
N136	N	-0.332014	-0.786323	0.963653
H137	H	-0.859832	-1.323246	0.497274
H138	H	-0.359832	-0.823246	0.997274
N139	N	-0.617467	-1.276762	0.454991
N140	N	-0.117467	-0.776762	0.954991
N141	N	-0.651894	-1.322457	0.496604
N142	N	-0.151894	-0.822457	0.996604
H143	H	-0.626603	-1.357021	0.528081
H144	H	-0.126603	-0.857021	1.028081
N145	N	-0.272544	-1.253930	0.611141
N146	N	0.227456	-0.753930	1.111141
N147	N	-0.207829	-1.245385	0.616769
N148	N	0.292171	-0.745385	1.116769
H149	H	-0.174238	-1.282338	0.588932
H150	H	0.325762	-0.782338	1.088932
H151	H	-0.424052	-1.087152	1.088214
H152	H	0.075948	-0.587152	1.588214
N153	N	-0.460718	-1.046806	0.767198
N154	N	0.039282	-0.546806	1.267198
N155	N	-0.437542	-0.992542	0.807278
N156	N	0.062458	-0.492542	1.307278
H157	H	-0.471108	-0.955575	0.835131
H158	H	0.028892	-0.455575	1.335131
N159	N	-0.939487	-1.046990	0.245646
N160	N	-0.439487	-0.546990	0.745646
N161	N	-0.970807	-1.004230	0.206691
N162	N	-0.470807	-0.504230	0.706691
H163	H	-0.943005	-0.967300	0.173065
H164	H	-0.443005	-0.467300	0.673065
N165	N	-1.095347	-1.253922	0.434079
N166	N	-0.595347	-0.753922	0.934079
N167	N	-1.161077	-1.256842	0.436730
N168	N	-0.661077	-0.756842	0.936730
H169	H	-1.188898	-1.293764	0.470349
H170	H	-0.688898	-0.793764	0.970349
N171	N	-1.088309	-1.053656	0.251658
N172	N	-0.588309	-0.553656	0.751658
N173	N	-1.127595	-1.085885	0.208427
N174	N	-0.627595	-0.585885	0.708427
H175	H	-1.152907	-1.051349	0.176945
H176	H	-0.652907	-0.551349	0.676945
N177	N	-0.278491	-1.247375	0.759939
N178	N	0.221509	-0.747375	1.259939
N179	N	-0.236940	-1.293113	0.725464
N180	N	0.263060	-0.793113	1.225464
H181	H	-0.205476	-1.327734	0.750717
H182	H	0.294524	-0.827734	1.250717
H183	H	-0.255160	-1.273038	0.948151
H184	H	0.244840	-0.773038	1.448151
H185	H	-0.260494	-1.267149	1.081717
H186	H	0.239506	-0.767149	1.581717
