data_functionalizedCrystal
_audit_creation_method	'MofGen! by Chris Wilmer'
_symmetry_space_group_name_H-M	'P1'
_symmetry_Int_Tables_number	1
_symmetry_cell_setting	triclinic
loop_
_symmetry_equiv_pos_as_xyz
  x,y,z
_cell_length_a	18.215405
_cell_length_b	18.215407
_cell_length_c	18.215399
_cell_angle_alpha	89.986109
_cell_angle_beta	89.967040
_cell_angle_gamma	90.022344
loop_
_atom_site_label
_atom_site_type_symbol
_atom_site_fract_x
_atom_site_fract_y
_atom_site_fract_z
Zn1	Zn	-0.293024	1.125050	-0.416045
Zn2	Zn	-0.043024	1.375050	-0.166045
Zn3	Zn	0.206976	1.625050	0.083955
Zn4	Zn	0.456976	1.875050	0.333955
Zn5	Zn	-0.416101	1.124965	-0.292973
Zn6	Zn	-0.166101	1.374965	-0.042973
Zn7	Zn	0.083899	1.624965	0.207027
Zn8	Zn	0.333899	1.874965	0.457027
Zn9	Zn	-0.293047	1.001989	-0.292999
Zn10	Zn	-0.043047	1.251989	-0.042999
Zn11	Zn	0.206953	1.501989	0.207001
Zn12	Zn	0.456953	1.751989	0.457001
Zn13	Zn	-0.416048	1.001949	-0.416004
Zn14	Zn	-0.166048	1.251949	-0.166004
Zn15	Zn	0.083952	1.501949	0.083996
Zn16	Zn	0.333952	1.751949	0.333996
O17	O	-0.354555	1.063488	-0.354505
O18	O	-0.104555	1.313488	-0.104505
O19	O	0.145445	1.563488	0.145495
O20	O	0.395445	1.813488	0.395495
O21	O	-0.309363	1.228023	-0.399726
O22	O	-0.059363	1.478023	-0.149726
O23	O	0.190637	1.728023	0.100274
O24	O	0.440637	1.978023	0.350274
O25	O	-0.399809	1.108633	-0.189992
O26	O	-0.149809	1.358633	0.060008
O27	O	0.100191	1.608633	0.310008
O28	O	0.350191	1.858633	0.560008
O29	O	-0.190060	1.018366	-0.309349
O30	O	0.059940	1.268366	-0.059349
O31	O	0.309940	1.518366	0.190651
O32	O	0.559940	1.768366	0.440651
O33	O	-0.399787	1.227960	-0.309305
O34	O	-0.149787	1.477960	-0.059305
O35	O	0.100213	1.727960	0.190695
O36	O	0.350213	1.977960	0.440695
O37	O	-0.190043	1.108778	-0.399750
O38	O	0.059957	1.358778	-0.149750
O39	O	0.309957	1.608778	0.100250
O40	O	0.559957	1.858778	0.350250
O41	O	-0.309402	1.018283	-0.190011
O42	O	-0.059402	1.268283	0.059989
O43	O	0.190598	1.518283	0.309989
O44	O	0.440598	1.768283	0.559989
O45	O	-0.309351	0.898999	-0.309309
O46	O	-0.059351	1.148999	-0.059309
O47	O	0.190649	1.398999	0.190691
O48	O	0.440649	1.648999	0.440691
O49	O	-0.399697	1.018297	-0.518994
O50	O	-0.149697	1.268297	-0.268994
O51	O	0.100303	1.518297	-0.018994
O52	O	0.350303	1.768297	0.231006
O53	O	-0.399719	0.898970	-0.399681
O54	O	-0.149719	1.148970	-0.149681
O55	O	0.100281	1.398970	0.100319
O56	O	0.350281	1.648970	0.350319
O57	O	-0.309312	1.108739	-0.519024
O58	O	-0.059312	1.358739	-0.269024
O59	O	0.190688	1.608739	-0.019024
O60	O	0.440688	1.858739	0.230976
O61	O	-0.519078	1.108594	-0.309266
O62	O	-0.269078	1.358594	-0.059266
O63	O	-0.019078	1.608594	0.190734
O64	O	0.230922	1.858594	0.440734
O65	O	-0.519039	1.018214	-0.399656
O66	O	-0.269039	1.268214	-0.149656
O67	O	-0.019039	1.518214	0.100344
O68	O	0.230961	1.768214	0.350344
C69	C	-0.354532	0.872282	-0.354494
C70	C	-0.104532	1.122282	-0.104494
C71	C	0.145468	1.372282	0.145506
C72	C	0.395468	1.622282	0.395506
C73	C	-0.354541	0.790483	-0.354507
C74	C	-0.104541	1.040483	-0.104507
C75	C	0.145459	1.290483	0.145493
C76	C	0.395459	1.540483	0.395493
C77	C	-0.401687	0.525429	-0.401497
C78	C	-0.151687	0.775429	-0.151497
C79	C	0.098313	1.025429	0.098503
C80	C	0.348313	1.275429	0.348503
C81	C	-0.401681	0.602288	-0.401494
C82	C	-0.151681	0.852288	-0.151494
C83	C	0.098319	1.102288	0.098506
C84	C	0.348319	1.352288	0.348506
C85	C	-0.307439	0.602288	-0.307526
C86	C	-0.057439	0.852288	-0.057526
C87	C	0.192561	1.102288	0.192474
C88	C	0.442561	1.352288	0.442474
C89	C	-0.307450	0.525431	-0.307527
C90	C	-0.057450	0.775431	-0.057527
C91	C	0.192550	1.025431	0.192473
C92	C	0.442550	1.275431	0.442473
C93	C	-0.354573	0.487003	-0.354516
C94	C	-0.104573	0.737003	-0.104516
C95	C	0.145427	0.987003	0.145484
C96	C	0.395427	1.237003	0.395484
C97	C	-0.354556	0.640720	-0.354512
C98	C	-0.104556	0.890720	-0.104512
C99	C	0.145444	1.140720	0.145488
C100	C	0.395444	1.390720	0.395488
C101	C	-0.354549	0.724053	-0.354508
C102	C	-0.104549	0.974053	-0.104508
C103	C	0.145451	1.224053	0.145492
C104	C	0.395451	1.474053	0.395492
C105	C	-0.354581	0.403664	-0.354520
C106	C	-0.104581	0.653664	-0.104520
C107	C	0.145419	0.903664	0.145480
C108	C	0.395419	1.153664	0.395480
C109	C	-0.545761	1.063410	-0.354470
C110	C	-0.295761	1.313410	-0.104470
C111	C	-0.045761	1.563410	0.145530
C112	C	0.204239	1.813410	0.395530
C113	C	-0.627560	1.063445	-0.354479
C114	C	-0.377560	1.313445	-0.104479
C115	C	-0.127560	1.563445	0.145521
C116	C	0.122440	1.813445	0.395521
C117	C	-0.815750	1.110616	-0.307500
C118	C	-0.565750	1.360616	-0.057500
C119	C	-0.315750	1.610616	0.192500
C120	C	-0.065750	1.860616	0.442500
C121	C	-0.892609	1.110649	-0.307517
C122	C	-0.642609	1.360649	-0.057517
C123	C	-0.392609	1.610649	0.192483
C124	C	-0.142609	1.860649	0.442483
C125	C	-0.892608	1.016455	-0.401564
C126	C	-0.642608	1.266455	-0.151564
C127	C	-0.392608	1.516455	0.098436
C128	C	-0.142608	1.766455	0.348436
C129	C	-0.815751	1.016426	-0.401549
C130	C	-0.565751	1.266426	-0.151549
C131	C	-0.315751	1.516426	0.098451
C132	C	-0.065751	1.766426	0.348451
C133	C	-0.777324	1.063505	-0.354513
C134	C	-0.527324	1.313505	-0.104513
C135	C	-0.277324	1.563505	0.145487
C136	C	-0.027324	1.813505	0.395487
C137	C	-0.931040	1.063567	-0.354545
C138	C	-0.681040	1.313567	-0.104545
C139	C	-0.431040	1.563567	0.145455
C140	C	-0.181040	1.813567	0.395455
C141	C	-1.014373	1.063602	-0.354565
C142	C	-0.764373	1.313602	-0.104565
C143	C	-0.514373	1.563602	0.145435
C144	C	-0.264373	1.813602	0.395435
C145	C	-0.693985	1.063471	-0.354494
C146	C	-0.443985	1.313471	-0.104494
C147	C	-0.193985	1.563471	0.145506
C148	C	0.056015	1.813471	0.395506
C149	C	-0.162602	1.063586	-0.354557
C150	C	0.087398	1.313586	-0.104557
C151	C	0.337398	1.563586	0.145443
C152	C	0.587398	1.813586	0.395443
C153	C	-0.080803	1.063628	-0.354579
C154	C	0.169197	1.313628	-0.104579
C155	C	0.419197	1.563628	0.145421
C156	C	0.669197	1.813628	0.395421
C157	C	-0.354496	1.063523	-0.546458
C158	C	-0.104496	1.313523	-0.296458
C159	C	0.145504	1.563523	-0.046458
C160	C	0.395504	1.813523	0.203542
C161	C	-0.354471	1.063538	-0.628257
C162	C	-0.104471	1.313538	-0.378257
C163	C	0.145529	1.563538	-0.128257
C164	C	0.395529	1.813538	0.121743
C165	C	-0.354578	1.255441	-0.354517
C166	C	-0.104578	1.505441	-0.104517
C167	C	0.145422	1.755441	0.145483
C168	C	0.395422	2.005441	0.395483
C169	C	-0.354588	1.337240	-0.354522
C170	C	-0.104588	1.587240	-0.104522
C171	C	0.145412	1.837240	0.145478
C172	C	0.395412	2.087240	0.395478
C173	C	-0.307365	1.016532	-0.816462
C174	C	-0.057365	1.266532	-0.566462
C175	C	0.192635	1.516532	-0.316462
C176	C	0.442635	1.766532	-0.066462
C177	C	-0.307350	1.016545	-0.893321
C178	C	-0.057350	1.266545	-0.643321
C179	C	0.192650	1.516545	-0.393321
C180	C	0.442650	1.766545	-0.143321
C181	C	-0.401490	1.110631	-0.893290
C182	C	-0.151490	1.360631	-0.643290
C183	C	0.098510	1.610631	-0.393290
C184	C	0.348510	1.860631	-0.143290
C185	C	-0.401508	1.110614	-0.816433
C186	C	-0.151508	1.360614	-0.566433
C187	C	0.098492	1.610614	-0.316433
C188	C	0.348492	1.860614	-0.066433
C189	C	-0.354441	1.063566	-0.778021
C190	C	-0.104441	1.313566	-0.528021
C191	C	0.145559	1.563566	-0.278021
C192	C	0.395559	1.813566	-0.028021
C193	C	-0.354408	1.063596	-0.931737
C194	C	-0.104408	1.313596	-0.681737
C195	C	0.145592	1.563596	-0.431737
C196	C	0.395592	1.813596	-0.181737
C197	C	-0.354393	1.063610	-1.015071
C198	C	-0.104393	1.313610	-0.765071
C199	C	0.145607	1.563610	-0.515071
C200	C	0.395607	1.813610	-0.265071
C201	C	-0.354458	1.063550	-0.694682
C202	C	-0.104458	1.313550	-0.444682
C203	C	0.145542	1.563550	-0.194682
C204	C	0.395542	1.813550	0.055318
C205	C	-0.354561	1.063496	-0.163299
C206	C	-0.104561	1.313496	0.086701
C207	C	0.145439	1.563496	0.336701
C208	C	0.395439	1.813496	0.586701
C209	C	-0.354378	1.063624	-0.081500
C210	C	-0.104378	1.313624	0.168500
C211	C	0.145622	1.563624	0.418500
C212	C	0.395622	1.813624	0.668500
H213	H	-0.440047	0.633571	-0.439749
H214	H	-0.190047	0.883571	-0.189749
H215	H	0.059953	1.133571	0.060251
H216	H	0.309953	1.383571	0.310251
H217	H	-0.784464	1.148952	-0.269201
H218	H	-0.534464	1.398952	-0.019201
H219	H	-0.284464	1.648952	0.230799
H220	H	-0.034464	1.898952	0.480799
H221	H	-0.923905	0.978123	-0.439858
H222	H	-0.673905	1.228123	-0.189858
H223	H	-0.423905	1.478123	0.060142
H224	H	-0.173905	1.728123	0.310142
F225	F	-0.451619	1.160674	-0.775519
F226	F	-0.201619	1.410674	-0.525519
F227	F	0.048381	1.660674	-0.275519
F228	F	0.298381	1.910674	-0.025519
H229	H	-0.784462	0.978063	-0.439837
H230	H	-0.534462	1.228063	-0.189837
H231	H	-0.284462	1.478063	0.060163
H232	H	-0.034462	1.728063	0.310163
F233	F	-0.451578	1.160702	-0.934178
F234	F	-0.201578	1.410702	-0.684178
F235	F	0.048422	1.660702	-0.434178
F236	F	0.298422	1.910702	-0.184178
F237	F	-0.257274	0.966458	-0.775583
F238	F	-0.007274	1.216458	-0.525583
F239	F	0.242726	1.466458	-0.275583
F240	F	0.492726	1.716458	-0.025583
F241	F	-0.257288	0.643192	-0.257522
F242	F	-0.007288	0.893192	-0.007522
F243	F	0.242712	1.143192	0.242478
F244	F	0.492712	1.393192	0.492478
F245	F	-0.933501	1.160792	-0.257481
F246	F	-0.683501	1.410792	-0.007481
F247	F	-0.433501	1.660792	0.242519
F248	F	-0.183501	1.910792	0.492519
H249	H	-0.269083	0.494144	-0.269266
H250	H	-0.019083	0.744144	-0.019266
H251	H	0.230917	0.994144	0.230734
H252	H	0.480917	1.244144	0.480734
F253	F	-0.451841	0.484534	-0.451506
F254	F	-0.201841	0.734534	-0.201506
F255	F	0.048159	0.984534	0.048494
F256	F	0.298159	1.234534	0.298494
F257	F	-0.257252	0.966478	-0.934229
F258	F	-0.007252	1.216478	-0.684229
F259	F	0.242748	1.466478	-0.434229
F260	F	0.492748	1.716478	-0.184229
