data_functionalizedCrystal
_audit_creation_method	'MofGen! by Chris Wilmer'
_symmetry_space_group_name_H-M	'P1'
_symmetry_Int_Tables_number	1
_symmetry_cell_setting	triclinic
loop_
_symmetry_equiv_pos_as_xyz
  x,y,z
_cell_length_a	15.944551
_cell_length_b	22.610064
_cell_length_c	15.944551
_cell_angle_alpha	89.996881
_cell_angle_beta	83.498738
_cell_angle_gamma	90.003741
loop_
_atom_site_label
_atom_site_type_symbol
_atom_site_fract_x
_atom_site_fract_y
_atom_site_fract_z
O1	O	1.114530	0.049124	0.108321
O2	O	1.614530	0.549124	0.608321
O3	O	0.869980	0.049139	0.121677
O4	O	1.369980	0.549139	0.621677
O5	O	0.998933	0.049126	-0.007276
O6	O	1.498933	0.549126	0.492724
O7	O	0.985577	0.049137	0.237274
O8	O	1.485577	0.549137	0.737274
O9	O	0.998910	-0.049243	-0.007257
O10	O	1.498910	0.450757	0.492743
O11	O	0.869958	-0.049230	0.121696
O12	O	1.369958	0.450770	0.621696
O13	O	1.114507	-0.049245	0.108339
O14	O	1.614507	0.450755	0.608339
Zn15	Zn	0.992229	-0.064856	0.115021
Zn16	Zn	1.492229	0.435144	0.615021
Zn17	Zn	0.992259	0.064750	0.114996
Zn18	Zn	1.492259	0.564750	0.614996
O19	O	0.985554	-0.049232	0.237292
O20	O	1.485554	0.450768	0.737292
C21	C	0.838675	-0.000044	0.121132
C22	C	1.338675	0.499956	0.621132
C23	C	0.745429	-0.000038	0.119470
C24	C	1.245429	0.499962	0.619470
N25	N	0.992214	-0.153308	0.115037
N26	N	1.492214	0.346692	0.615037
C27	C	0.530572	-0.000054	0.035565
C28	C	1.030572	0.499946	0.535565
C29	C	0.469563	0.048449	0.074518
C30	C	0.969563	0.548449	0.574518
C31	C	0.574703	-0.000045	0.116462
C32	C	1.074703	0.499955	0.616462
C33	C	0.469563	-0.048535	0.074556
C34	C	0.969563	0.451465	0.574556
C35	C	0.409790	-0.000055	0.113551
C36	C	0.909790	0.499945	0.613551
C37	C	0.514922	0.048498	0.155438
C38	C	1.014922	0.548498	0.655438
C39	C	0.514929	-0.048530	0.155464
C40	C	1.014929	0.451470	0.655464
C41	C	0.453937	-0.000015	0.194476
C42	C	0.953937	0.499985	0.694476
C43	C	0.669705	-0.000039	0.118137
C44	C	1.169705	0.499961	0.618137
C45	C	0.314789	-0.000057	0.111883
C46	C	0.814789	0.499943	0.611883
C47	C	1.049362	-0.561956	0.057904
C48	C	1.549362	-0.061956	0.557904
C49	C	1.049366	-0.623875	0.057898
C50	C	1.549366	-0.123875	0.557898
O51	O	1.097919	-0.655899	0.009334
O52	O	1.597919	-0.155899	0.509334
N53	N	0.992258	-0.654845	0.114978
N54	N	1.492258	-0.154845	0.614978
C55	C	0.935136	-0.623892	0.172063
C56	C	1.435136	-0.123892	0.672063
O57	O	0.886562	-0.655920	0.220613
O58	O	1.386562	-0.155920	0.720613
C59	C	0.935129	-0.561974	0.172064
C60	C	1.435129	-0.061974	0.672064
C61	C	0.992246	-0.531007	0.114986
C62	C	1.492246	-0.031007	0.614986
C63	C	1.106474	-0.530989	0.000830
C64	C	1.606474	-0.030989	0.500830
C65	C	1.106470	-0.469073	0.000837
C66	C	1.606470	0.030927	0.500837
C67	C	1.049355	-0.438124	0.057919
C68	C	1.549355	0.061876	0.557919
C69	C	0.992243	-0.469091	0.114993
C70	C	1.492243	0.030909	0.614993
C71	C	0.878004	-0.531022	0.229144
C72	C	1.378004	-0.031022	0.729144
C73	C	0.878001	-0.469099	0.229140
C74	C	1.378001	0.030901	0.729140
C75	C	0.935118	-0.438132	0.172062
C76	C	1.435118	0.061868	0.672062
C77	C	0.935124	-0.376227	0.172082
C78	C	1.435124	0.123773	0.672082
N79	N	0.992232	-0.345257	0.115002
N80	N	1.492232	0.154743	0.615002
C81	C	1.049347	-0.376205	0.057920
C82	C	1.549347	0.123795	0.557920
C83	C	0.935156	-0.753926	0.172054
C84	C	1.435156	-0.253926	0.672054
C85	C	0.935167	-0.815844	0.172058
C86	C	1.435167	-0.315844	0.672058
C87	C	1.049396	-0.815822	0.057892
C88	C	1.549396	-0.315822	0.557892
C89	C	1.049388	-0.753904	0.057893
C90	C	1.549388	-0.253904	0.557893
C91	C	0.992264	-0.722956	0.114974
C92	C	1.492264	-0.222956	0.614974
C93	C	1.049336	-0.246178	0.057941
C94	C	1.549336	0.253822	0.557941
C95	C	1.049330	-0.184257	0.057955
C96	C	1.549330	0.315743	0.557955
C97	C	0.935099	-0.184284	0.172118
C98	C	1.435099	0.315716	0.672118
C99	C	0.935107	-0.246199	0.172106
C100	C	1.435107	0.253801	0.672106
C101	C	0.992229	-0.277145	0.115011
C102	C	1.492229	0.222855	0.615011
O103	O	0.886593	-0.344164	0.220619
O104	O	1.386593	0.155836	0.720619
O105	O	1.097906	-0.344170	0.009371
O106	O	1.597906	0.155830	0.509371
C107	C	1.145813	-0.000061	0.108885
C108	C	1.645813	0.499939	0.608885
C109	C	1.239059	-0.000063	0.110547
C110	C	1.739059	0.499937	0.610547
C111	C	0.998367	-0.000059	-0.038561
C112	C	1.498367	0.499941	0.461439
C113	C	0.996705	-0.000059	-0.131807
C114	C	1.496705	0.499941	0.368193
N115	N	0.992280	0.153202	0.114973
N116	N	1.492280	0.653202	0.614973
C117	C	0.912801	-0.000046	-0.346663
C118	C	1.412801	0.499954	0.153337
C119	C	0.951752	-0.048550	-0.407671
C120	C	1.451752	0.451450	0.092329
C121	C	0.993698	-0.000054	-0.302533
C122	C	1.493698	0.499946	0.197467
C123	C	0.951793	0.048434	-0.407673
C124	C	1.451793	0.548434	0.092327
C125	C	0.990787	-0.000047	-0.467445
C126	C	1.490787	0.499953	0.032555
C127	C	1.032671	-0.048599	-0.362312
C128	C	1.532671	0.451401	0.137688
C129	C	1.032701	0.048429	-0.362308
C130	C	1.532701	0.548429	0.137692
C131	C	1.071711	-0.000087	-0.423298
C132	C	1.571711	0.499913	0.076702
C133	C	0.995372	-0.000059	-0.207530
C134	C	1.495372	0.499941	0.292470
C135	C	0.989119	-0.000047	-0.562446
C136	C	1.489119	0.499953	-0.062446
C137	C	0.986120	-0.000046	0.268577
C138	C	1.486120	0.499954	0.768577
C139	C	0.987782	-0.000042	0.361823
C140	C	1.487782	0.499958	0.861823
H141	H	0.563905	0.000003	-0.031573
H142	H	1.063905	0.500003	0.468427
H143	H	0.420779	0.000015	0.261683
H144	H	0.920779	0.500015	0.761683
O145	O	0.906419	-0.102863	-0.434299
O146	O	1.406419	0.397137	0.065701
H147	H	0.950195	-0.129520	-0.478303
H148	H	1.450195	0.370480	0.021697
O149	O	0.873496	-0.150886	0.233669
O150	O	1.373496	0.349114	0.733669
H151	H	0.884188	-0.162759	0.299165
H152	H	1.384188	0.337241	0.799165
O153	O	0.823861	-0.000100	-0.302531
O154	O	1.323861	0.499900	0.197469
H155	H	0.790472	-0.040422	-0.320572
H156	H	1.290472	0.459578	0.179428
H157	H	1.138919	-0.000118	-0.456457
H158	H	1.638919	0.499882	0.043543
O159	O	0.442920	0.102759	0.029190
O160	O	0.942920	0.602759	0.529190
H161	H	0.473904	0.102656	-0.036754
H162	H	0.973904	0.602656	0.463246
O163	O	1.077944	-0.102976	-0.335824
O164	O	1.577944	0.397024	0.164176
H165	H	1.143695	-0.103101	-0.367313
H166	H	1.643695	0.396899	0.132687
O167	O	1.078000	0.102741	-0.335639
O168	O	1.578000	0.602741	0.164361
H169	H	1.044297	0.142947	-0.353592
H170	H	1.544297	0.642947	0.146408
O171	O	0.906475	0.102753	-0.434293
O172	O	1.406475	0.602753	0.065707
H173	H	0.840538	0.102651	-0.403291
H174	H	1.340538	0.602651	0.096709
H175	H	1.152984	-0.556182	-0.045657
H176	H	1.652984	-0.056182	0.454343
O177	O	1.110996	-0.849216	-0.003676
O178	O	1.610996	-0.349216	0.496324
H179	H	1.176473	-0.837335	0.007074
H180	H	1.676473	-0.337335	0.507074
O181	O	0.541590	-0.102845	0.200758
O182	O	1.041590	0.397155	0.700758
H183	H	0.572582	-0.089198	0.256606
H184	H	1.072582	0.410802	0.756606
O185	O	1.110970	-0.720503	-0.003688
O186	O	1.610970	-0.220503	0.496312
H187	H	1.151799	-0.692285	0.031681
H188	H	1.651799	-0.192285	0.531681
O189	O	0.541403	0.102889	0.200686
O190	O	1.041403	0.602889	0.700686
H191	H	0.610913	0.102482	0.201522
H192	H	1.110913	0.602482	0.701522
H193	H	1.095845	-0.159046	0.011475
H194	H	1.595845	0.340954	0.511475
O195	O	0.442948	-0.102856	0.029236
O196	O	0.942948	0.397144	0.529236
H197	H	0.473952	-0.102753	-0.036700
H198	H	0.973952	0.397247	0.463300
H199	H	1.095849	-0.271367	0.011447
H200	H	1.595849	0.228633	0.511447
H201	H	1.152978	-0.443863	-0.045643
H202	H	1.652978	0.056137	0.454357
H203	H	0.888666	-0.841052	0.218545
H204	H	1.388666	-0.341052	0.718545
H205	H	0.831494	-0.556226	0.275621
H206	H	1.331494	-0.056226	0.775621
O207	O	0.873552	-0.720547	0.233636
O208	O	1.373552	-0.220547	0.733636
H209	H	0.833853	-0.752489	0.273328
H210	H	1.333853	-0.252489	0.773328
H211	H	0.831481	-0.443904	0.275621
H212	H	1.331481	0.056096	0.775621
H213	H	0.888605	-0.271413	0.218593
H214	H	1.388605	0.228587	0.718593
