data_functionalizedCrystal
_audit_creation_method	'MofGen! by Chris Wilmer'
_symmetry_space_group_name_H-M	'P1'
_symmetry_Int_Tables_number	1
_symmetry_cell_setting	triclinic
loop_
_symmetry_equiv_pos_as_xyz
  x,y,z
_cell_length_a	18.426585
_cell_length_b	14.560438
_cell_length_c	14.560438
_cell_angle_alpha	60.000905
_cell_angle_beta	90.000730
_cell_angle_gamma	60.001046
loop_
_atom_site_label
_atom_site_type_symbol
_atom_site_fract_x
_atom_site_fract_y
_atom_site_fract_z
Zr1	Zr	0.699110	1.005314	-0.120530
O2	O	0.583231	1.196911	-0.267171
O3	O	0.734633	0.813715	-0.075579
O4	O	0.734629	1.005319	-0.267179
O5	O	0.583237	1.005305	0.075571
O6	O	0.854055	1.005325	-0.267183
O7	O	0.583234	1.005307	-0.075570
O8	O	0.854061	0.662581	0.075555
O9	O	0.583231	1.348049	-0.267168
O10	O	0.838909	0.892528	-0.056408
O11	O	0.749785	0.892521	0.056390
O12	O	0.749781	1.118110	-0.169195
O13	O	0.660657	1.118104	-0.056398
Zr14	Zr	0.889585	1.005320	0.120516
Zr15	Zr	0.889580	1.005324	-0.120536
Zr16	Zr	0.699115	1.005310	0.120522
Zr17	Zr	0.699110	1.246362	-0.120525
Zr18	Zr	0.889585	0.764273	0.120512
O19	O	0.854062	1.196920	0.075565
O20	O	0.854055	1.196926	-0.267180
O21	O	0.583238	1.196905	0.075574
O22	O	1.005464	0.813723	0.267158
O23	O	1.005457	0.813729	-0.075587
O24	O	0.734640	0.813709	0.267166
O25	O	1.005458	1.005330	-0.075584
O26	O	0.854066	1.005316	0.267166
O27	O	0.734640	1.005310	0.267170
O28	O	1.005461	1.005327	0.075557
O29	O	0.734630	1.348057	-0.267173
O30	O	0.854065	0.662577	0.267160
O31	O	1.005464	0.662586	0.267155
O32	O	1.005460	0.662589	0.075550
O33	O	0.583235	1.348046	-0.075564
O34	O	0.734634	1.348054	-0.075569
O35	O	0.838914	0.892524	0.169182
O36	O	0.928038	0.892531	0.056384
O37	O	0.838910	1.118113	-0.056403
O38	O	0.749786	1.118107	0.056394
C39	C	0.794347	0.703804	-0.000012
C40	C	0.794347	0.601473	-0.000014
C41	C	0.840867	0.553400	-0.058894
C42	C	0.840870	0.457241	-0.058883
C43	C	0.747827	0.457239	0.058888
C44	C	0.747829	0.553390	0.058883
C45	C	0.556098	1.005305	0.000001
C46	C	0.475238	1.005300	0.000004
C47	C	0.179123	1.005339	-0.000016
C48	C	0.261509	1.005334	-0.000014
C49	C	0.327178	1.005320	-0.000007
C50	C	0.409570	1.005314	-0.000003
C51	C	1.032597	1.005330	-0.000014
C52	C	1.113457	1.005334	-0.000017
C53	C	0.794341	1.005322	-0.301526
C54	C	0.794339	1.005324	-0.403859
C55	C	0.794348	1.306831	-0.000001
C56	C	0.794348	1.409162	0.000001
C57	C	0.747816	1.123074	-0.510809
C58	C	0.747827	1.123067	-0.606958
C59	C	0.840884	0.887552	-0.489193
C60	C	0.840879	0.887559	-0.393046
C61	C	0.794354	1.005312	0.301513
C62	C	0.794356	1.005311	0.403846
C63	C	1.032597	0.703816	-0.000020
C64	C	1.113456	0.601490	-0.000025
C65	C	0.794353	0.703798	0.301507
C66	C	0.794355	0.601466	0.403838
C67	C	1.032603	0.703811	0.301499
C68	C	1.113464	0.601483	0.403828
C69	C	0.556092	1.306823	-0.301513
C70	C	0.475231	1.409152	-0.403841
C71	C	0.556098	1.306818	0.000007
C72	C	0.475239	1.409145	0.000011
C73	C	0.794342	1.306836	-0.301520
C74	C	0.794340	1.409169	-0.403852
C75	C	1.104905	0.553434	-0.058913
C76	C	1.180873	0.457301	-0.058940
C77	C	1.265393	0.409218	-0.000071
C78	C	1.273943	0.457283	0.058819
C79	C	1.197975	0.553421	0.058839
C80	C	1.197967	0.553432	0.393003
C81	C	1.273953	0.457297	0.489142
C82	C	1.265433	0.409208	0.596105
C83	C	1.180921	0.457268	0.606928
C84	C	1.104937	0.553408	0.510790
C85	C	0.390728	1.457215	-0.393017
C86	C	0.314742	1.553379	-0.489156
C87	C	0.323262	1.601473	-0.596119
C88	C	0.407774	1.553407	-0.606941
C89	C	0.483758	1.457250	-0.510803
C90	C	0.483790	1.457210	0.058890
C91	C	0.407822	1.553370	0.058890
C92	C	0.323302	1.601457	0.000017
C93	C	0.314752	1.553388	-0.058868
C94	C	0.390720	1.457236	-0.058874
C95	C	0.840879	0.553389	0.510790
C96	C	0.840871	0.457246	0.606937
C97	C	0.747813	0.457260	0.489167
C98	C	0.747817	0.553408	0.393022
H99	H	0.878752	0.418101	-0.106826
H100	H	0.414701	1.592577	-0.694042
O101	O	0.241376	1.705132	0.000072
H102	H	0.241432	1.792736	-0.036745
H103	H	0.878774	0.791672	-0.480403
O104	O	0.697650	1.250066	-0.722316
H105	H	0.626142	1.306522	-0.732106
O106	O	1.365104	0.405415	0.122318
H107	H	1.401933	0.299353	0.187385
H108	H	0.245926	1.592554	-0.106800
O109	O	0.697649	0.405383	0.477520
H110	H	0.646233	0.423806	0.518521
H111	H	0.245936	1.592499	-0.480322
O112	O	0.697643	0.405395	0.122396
H113	H	0.705446	0.330470	0.112497
O114	O	0.891055	0.760553	-0.277679
H115	H	0.923405	0.678663	-0.286311
H116	H	1.036091	0.592583	-0.106865
O117	O	1.207167	0.605304	0.277642
H118	H	1.278699	0.555742	0.286285
O119	O	0.697648	0.605256	0.122386
H120	H	0.665288	0.555684	0.163326
O121	O	1.207208	0.605231	0.122373
H122	H	1.174825	0.586764	0.187454
O123	O	0.891065	0.405379	0.722290
H124	H	0.864195	0.486087	0.732074
H125	H	0.709921	1.218965	-0.519620
H126	H	1.173895	0.418178	-0.106895
O127	O	0.574901	1.405396	-0.522483
H128	H	0.568050	1.454989	-0.613015
O129	O	0.697766	0.605108	0.277654
H130	H	0.665462	0.555465	0.286284
H131	H	1.327244	0.330935	-0.000095
H132	H	0.383773	1.418062	-0.305931
H133	H	0.552604	1.418066	0.106838
H134	H	1.327311	0.330925	0.674378
O135	O	0.891045	0.605255	-0.122404
H136	H	0.923401	0.555659	-0.163335
H137	H	0.414800	1.592492	0.106846
O138	O	1.365099	0.405455	0.477458
H139	H	1.358250	0.455032	0.386927
H140	H	0.383745	1.418104	-0.106817
H141	H	1.173997	0.418100	0.694030
O142	O	1.013794	0.605206	0.522470
H143	H	1.020645	0.555592	0.613002
H144	H	0.261384	1.679770	-0.674391
O145	O	0.891066	0.605234	0.522447
H146	H	0.923409	0.555655	0.612973
