data_functionalizedCrystal
_audit_creation_method	'MofGen! by Chris Wilmer'
_symmetry_space_group_name_H-M	'P1'
_symmetry_Int_Tables_number	1
_symmetry_cell_setting	triclinic
loop_
_symmetry_equiv_pos_as_xyz
  x,y,z
_cell_length_a	15.944551
_cell_length_b	15.944551
_cell_length_c	7.540329
_cell_angle_alpha	89.995457
_cell_angle_beta	90.001531
_cell_angle_gamma	83.498738
loop_
_atom_site_label
_atom_site_type_symbol
_atom_site_fract_x
_atom_site_fract_y
_atom_site_fract_z
O1	O	1.114522	0.108331	-0.147301
O2	O	0.869973	0.121687	-0.147346
O3	O	0.998926	-0.007266	-0.147306
O4	O	0.985569	0.237284	-0.147341
O5	O	0.998918	-0.007267	0.147659
O6	O	0.869965	0.121685	0.147619
O7	O	1.114515	0.108329	0.147664
Cu8	Cu	0.992239	0.115007	0.174574
Cu9	Cu	0.992248	0.115009	-0.174256
O10	O	0.985562	0.237282	0.147624
C11	C	0.838675	0.121132	0.000131
C12	C	0.745429	0.119470	0.000115
C13	C	0.530572	0.035565	0.000161
C14	C	0.469556	0.074528	-0.145278
C15	C	0.574703	0.116462	0.000136
C16	C	0.469571	0.074546	0.145534
C17	C	0.409790	0.113551	0.000164
C18	C	0.514915	0.155448	-0.145423
C19	C	0.514936	0.155454	0.145520
C20	C	0.453937	0.194476	0.000046
C21	C	0.669705	0.118137	0.000118
C22	C	0.314789	0.111883	0.000170
C23	C	0.998367	-0.038561	0.000176
C24	C	0.996705	-0.131807	0.000177
C25	C	0.912801	-0.346663	0.000137
C26	C	0.951759	-0.407681	0.145580
C27	C	0.993698	-0.302533	0.000163
C28	C	0.951786	-0.407663	-0.145232
C29	C	0.990787	-0.467445	0.000141
C30	C	1.032679	-0.362322	0.145726
C31	C	1.032694	-0.362298	-0.145217
C32	C	1.071711	-0.423298	0.000261
C33	C	0.995372	-0.207530	0.000177
C34	C	0.989119	-0.562446	0.000140
C35	C	1.145813	0.108885	0.000183
C36	C	1.239059	0.110547	0.000188
C37	C	0.986120	0.268577	0.000138
C38	C	0.987782	0.361823	0.000125
N39	N	0.992239	0.115005	0.419923
N40	N	0.992255	0.115004	-0.419605
H41	H	0.449449	0.040313	-0.268227
H42	H	0.534906	0.189639	-0.268514
H43	H	1.138919	-0.456457	0.000355
H44	H	0.420779	0.261683	-0.000045
C45	C	0.575596	-0.055132	-0.000047
H46	H	0.560180	-0.083737	-0.103516
H47	H	0.559439	-0.084176	0.102215
H48	H	0.634959	-0.053431	0.000985
C49	C	0.542138	0.201635	0.311615
H50	H	0.526795	0.172809	0.414859
H51	H	0.514843	0.257769	0.312653
H52	H	0.601571	0.202796	0.309824
C53	C	0.905539	-0.434856	0.311669
H54	H	0.942980	-0.472529	0.380150
H55	H	0.858332	-0.462314	0.276705
H56	H	0.886800	-0.386481	0.380633
C57	C	0.905557	-0.434801	-0.311338
H58	H	0.942988	-0.472475	-0.379822
H59	H	0.886814	-0.386418	-0.380275
H60	H	0.858349	-0.462268	-0.276376
H61	H	0.449481	0.040314	0.268487
C62	C	1.078879	-0.335093	-0.311312
H63	H	1.050057	-0.350435	-0.414557
H64	H	1.135014	-0.362388	-0.312349
H65	H	1.080040	-0.275660	-0.309522
C66	C	0.822095	-0.301661	0.000312
H67	H	0.793484	-0.317084	0.103772
H68	H	0.793070	-0.317832	-0.101959
H69	H	0.823775	-0.242295	-0.000731
H70	H	1.066863	-0.342333	0.268821
