data_functionalizedCrystal
_audit_creation_method	'MofGen! by Chris Wilmer'
_symmetry_space_group_name_H-M	'P1'
_symmetry_Int_Tables_number	1
_symmetry_cell_setting	triclinic
loop_
_symmetry_equiv_pos_as_xyz
  x,y,z
_cell_length_a	23.532407
_cell_length_b	23.532407
_cell_length_c	15.186229
_cell_angle_alpha	89.999328
_cell_angle_beta	89.991614
_cell_angle_gamma	82.848712
loop_
_atom_site_label
_atom_site_type_symbol
_atom_site_fract_x
_atom_site_fract_y
_atom_site_fract_z
O1	O	0.069135	0.755259	-0.073182
O2	O	0.569135	1.255259	0.426818
O3	O	0.079138	0.589395	-0.073197
O4	O	0.579138	1.089395	0.426803
O5	O	-0.008796	0.677329	-0.073173
O6	O	0.491204	1.177329	0.426827
O7	O	0.157068	0.667325	-0.073206
O8	O	0.657068	1.167325	0.426794
O9	O	-0.008797	0.677323	0.073284
O10	O	0.491203	1.177323	0.573284
O11	O	0.079136	0.589389	0.073260
O12	O	0.579136	1.089389	0.573260
O13	O	0.069133	0.755253	0.073275
O14	O	0.569133	1.255253	0.573275
Zn15	Zn	0.074135	0.672320	0.096521
Zn16	Zn	0.574135	1.172320	0.596521
Zn17	Zn	0.074136	0.672328	-0.096443
Zn18	Zn	0.574136	1.172328	0.403557
O19	O	0.157067	0.667319	0.073251
O20	O	0.657067	1.167319	0.573251
C21	C	0.078882	0.568176	0.000030
C22	C	0.578882	1.068176	0.500030
C23	C	0.078116	0.504959	0.000025
C24	C	0.578116	1.004959	0.500025
C25	C	0.022921	0.238792	0.000060
C26	C	0.522921	0.738792	0.500060
C27	C	0.023632	0.298192	0.000059
C28	C	0.523632	0.798192	0.500059
O29	O	-0.020153	0.334937	0.000099
O30	O	0.479847	0.834937	0.500099
N31	N	0.075909	0.320818	0.000043
N32	N	0.575909	0.820818	0.500043
C33	C	0.127477	0.284041	0.000036
C34	C	0.627477	0.784041	0.500036
O35	O	0.172007	0.308740	0.000023
O36	O	0.672007	0.808740	0.500023
C37	C	0.126765	0.224642	0.000043
C38	C	0.626765	0.724642	0.500043
C39	C	0.074485	0.202019	0.000050
C40	C	0.574485	0.702019	0.500050
C41	C	-0.029354	0.216169	0.000068
C42	C	0.470646	0.716169	0.500068
C43	C	-0.030066	0.156772	0.000067
C44	C	0.469934	0.656772	0.500067
C45	C	0.021499	0.119999	0.000057
C46	C	0.521499	0.619999	0.500057
C47	C	0.073774	0.142623	0.000049
C48	C	0.573774	0.642623	0.500049
C49	C	0.178333	0.187865	0.000042
C50	C	0.678333	0.687865	0.500042
C51	C	0.177616	0.128463	0.000049
C52	C	0.677616	0.628463	0.500049
C53	C	0.125336	0.105840	0.000057
C54	C	0.625336	0.605840	0.500057
C55	C	0.124627	0.046454	0.000038
C56	C	0.624627	0.546454	0.500038
N57	N	0.072351	0.023828	0.000054
N58	N	0.572351	0.523828	0.500054
C59	C	0.020787	0.060600	0.000064
C60	C	0.520787	0.560600	0.500064
C61	C	0.128968	0.408783	0.000023
C62	C	0.628968	0.908783	0.500023
C63	C	0.129681	0.468181	0.000010
C64	C	0.629681	0.968181	0.500010
C65	C	0.025836	0.482328	0.000036
C66	C	0.525836	0.982328	0.500036
C67	C	0.025124	0.422929	0.000042
C68	C	0.525124	0.922929	0.500042
C69	C	0.076692	0.386157	0.000040
C70	C	0.576692	0.886157	0.500040
C71	C	0.019297	-0.064136	0.000060
C72	C	0.519297	0.435864	0.500060
C73	C	0.018590	-0.123538	0.000056
C74	C	0.518590	0.376462	0.500056
C75	C	0.122435	-0.137680	0.000035
C76	C	0.622435	0.362320	0.500035
C77	C	0.123142	-0.078284	0.000035
C78	C	0.623142	0.421716	0.500035
C79	C	0.071568	-0.041512	0.000051
C80	C	0.571568	0.458488	0.500051
O81	O	0.168390	0.009675	0.000002
O82	O	0.668390	0.509675	0.500002
O83	O	-0.023737	0.035892	0.000089
O84	O	0.476263	0.535892	0.500089
C85	C	-0.030012	0.677071	0.000058
C86	C	0.469988	1.177071	0.500058
C87	C	-0.093229	0.676305	0.000065
C88	C	0.406771	1.176305	0.500065
C89	C	-0.492332	0.723538	0.000021
C90	C	0.007668	1.223538	0.500021
C91	C	-0.551733	0.722827	0.000014
C92	C	-0.051733	1.222827	0.500014
O93	O	-0.588477	0.766613	-0.000015
O94	O	-0.088477	1.266613	0.499985
N95	N	-0.574359	0.670551	0.000010
N96	N	-0.074359	1.170551	0.500010
C97	C	-0.537581	0.618982	0.000003
C98	C	-0.037581	1.118982	0.500003
O99	O	-0.562281	0.574452	-0.000001
O100	O	-0.062281	1.074452	0.499999
C101	C	-0.478182	0.619695	0.000004
C102	C	0.021818	1.119695	0.500004
C103	C	-0.455559	0.671974	0.000017
C104	C	0.044441	1.171974	0.500017
C105	C	-0.469709	0.775814	0.000033
C106	C	0.030291	1.275814	0.500033
C107	C	-0.410313	0.776525	0.000041
C108	C	0.089687	1.276525	0.500041
C109	C	-0.373540	0.724961	0.000038
C110	C	0.126460	1.224961	0.500038
C111	C	-0.396163	0.672685	0.000025
C112	C	0.103837	1.172685	0.500025
C113	C	-0.441406	0.568127	-0.000009
C114	C	0.058594	1.068127	0.499991
C115	C	-0.382003	0.568843	-0.000009
C116	C	0.117997	1.068843	0.499991
C117	C	-0.359381	0.621123	0.000004
C118	C	0.140619	1.121123	0.500004
C119	C	-0.299994	0.621832	0.000030
C120	C	0.200006	1.121832	0.500030
N121	N	-0.277368	0.674109	0.000034
N122	N	0.222632	1.174109	0.500034
C123	C	-0.314141	0.725673	0.000038
C124	C	0.185859	1.225673	0.500038
C125	C	-0.662324	0.617491	0.000001
C126	C	-0.162324	1.117491	0.500001
C127	C	-0.721722	0.616778	0.000007
C128	C	-0.221722	1.116778	0.500007
C129	C	-0.735869	0.720623	0.000016
C130	C	-0.235869	1.220623	0.500016
C131	C	-0.676470	0.721335	0.000016
C132	C	-0.176470	1.221335	0.500016
C133	C	-0.639698	0.669767	0.000005
C134	C	-0.139698	1.169767	0.500005
C135	C	-0.189404	0.727163	0.000056
C136	C	0.310596	1.227163	0.500056
C137	C	-0.130002	0.727869	0.000068
C138	C	0.369998	1.227869	0.500068
C139	C	-0.115860	0.624025	0.000055
C140	C	0.384140	1.124025	0.500055
C141	C	-0.175257	0.623318	0.000047
C142	C	0.324743	1.123318	0.500047
C143	C	-0.212028	0.674891	0.000045
C144	C	0.287972	1.174891	0.500045
O145	O	-0.263215	0.578069	0.000055
O146	O	0.236785	1.078069	0.500055
O147	O	-0.289433	0.770196	0.000031
O148	O	0.210567	1.270196	0.500031
C149	C	0.178283	0.667577	0.000018
C150	C	0.678283	1.167577	0.500018
C151	C	0.241500	0.668343	0.000006
C152	C	0.741500	1.168343	0.500006
N153	N	0.074133	0.672319	0.228214
N154	N	0.574133	1.172319	0.728214
C155	C	0.069389	0.776472	0.000047
C156	C	0.569389	1.276472	0.500047
C157	C	0.070155	0.839689	0.000046
C158	C	0.570155	1.339689	0.500046
N159	N	0.074133	0.672333	-0.228135
N160	N	0.574133	1.172333	0.271865
C161	C	0.035209	0.711269	0.453947
C162	C	0.535209	1.211269	0.953947
C163	C	0.035208	0.711271	0.546137
C164	C	0.535208	1.211271	1.046137
C165	C	0.113059	0.633379	0.546125
C166	C	0.613059	1.133379	1.046125
C167	C	0.113057	0.633375	0.453937
C168	C	0.613057	1.133375	0.953937
C169	C	0.074133	0.672323	0.407850
C170	C	0.574133	1.172323	0.907850
C171	C	0.074133	0.672329	0.592228
C172	C	0.574133	1.172329	1.092228
C173	C	0.074132	0.672331	0.692184
C174	C	0.574132	1.172331	1.192184
C175	C	0.074133	0.672321	0.307888
C176	C	0.574133	1.172321	0.807888
H177	H	-0.071347	0.246104	0.000079
H178	H	0.428653	0.746104	0.500079
H179	H	0.144751	0.601669	0.583657
H180	H	0.644751	1.101669	1.083657
H181	H	-0.219337	0.769159	0.000051
H182	H	0.280663	1.269159	0.500051
H183	H	-0.765821	0.762610	0.000015
H184	H	-0.265821	1.262610	0.500015
Br185	Br	-0.017622	0.764125	0.608696
Br186	Br	0.482378	1.264125	1.108696
H187	H	-0.023984	-0.141954	0.000059
H188	H	0.476016	0.358046	0.500059
Br189	Br	-0.050696	-0.014242	0.000082
Br190	Br	0.449304	0.485758	0.500082
H191	H	0.144754	0.601658	0.416402
H192	H	0.644754	1.101658	0.916402
Br193	Br	-0.045829	0.392234	0.000055
Br194	Br	0.454171	0.892234	0.500055
H195	H	-0.193677	0.580747	0.000061
H196	H	0.306323	1.080747	0.500061
H197	H	0.172252	0.486595	-0.000008
H198	H	0.672252	0.986595	0.499992
H199	H	-0.072637	0.138359	0.000077
H200	H	0.427363	0.638359	0.500077
Br201	Br	-0.332101	0.498854	-0.000028
Br202	Br	0.167899	0.998854	0.499972
Br203	Br	-0.752416	0.545825	0.000010
Br204	Br	-0.252416	1.045825	0.500010
H205	H	-0.016150	0.512280	0.000044
H206	H	0.483850	1.012280	0.500044
H207	H	0.170964	0.378846	0.000015
H208	H	0.670964	0.878846	0.500015
H209	H	0.003514	0.742982	0.416426
H210	H	0.503514	1.242982	0.916426
H211	H	0.220904	0.206274	0.000032
H212	H	0.720904	0.706274	0.500032
H213	H	-0.111587	0.770443	0.000081
H214	H	0.388413	1.270443	0.500081
H215	H	0.219610	0.098525	0.000051
H216	H	0.719610	0.598525	0.500051
H217	H	0.165712	-0.059864	0.000028
H218	H	0.665712	0.440136	0.500028
H219	H	-0.085909	0.582043	0.000055
H220	H	0.414091	1.082043	0.500055
H221	H	0.164417	-0.167631	0.000023
H222	H	0.664417	0.332369	0.500023
H223	H	-0.499644	0.817806	0.000033
H224	H	0.000356	1.317806	0.500033
Br225	Br	-0.645774	0.792288	0.000036
Br226	Br	-0.145774	1.292288	0.500036
Br227	Br	-0.612423	0.547499	-0.000006
Br228	Br	-0.112423	1.047499	0.499994
Br229	Br	-0.379620	0.847480	0.000034
Br230	Br	0.120380	1.347480	0.500034
Br231	Br	-0.472092	0.497171	-0.000030
Br232	Br	0.027908	0.997171	0.499970
