data_functionalizedCrystal
_audit_creation_method	'MofGen! by Chris Wilmer'
_symmetry_space_group_name_H-M	'P1'
_symmetry_Int_Tables_number	1
_symmetry_cell_setting	triclinic
loop_
_symmetry_equiv_pos_as_xyz
  x,y,z
_cell_length_a	16.959455
_cell_length_b	25.639240
_cell_length_c	25.639234
_cell_angle_alpha	89.967912
_cell_angle_beta	89.980540
_cell_angle_gamma	90.029705
loop_
_atom_site_label
_atom_site_type_symbol
_atom_site_fract_x
_atom_site_fract_y
_atom_site_fract_z
Zn1	Zn	1.208354	-0.208225	-0.295578
Zn2	Zn	1.708354	0.291775	0.204422
Zn3	Zn	1.208236	-0.295653	-0.208132
Zn4	Zn	1.708236	0.204347	0.291868
Zn5	Zn	1.076171	-0.208229	-0.208157
Zn6	Zn	1.576171	0.291771	0.291843
Zn7	Zn	1.076118	-0.295627	-0.295537
Zn8	Zn	1.576118	0.204373	0.204463
O9	O	1.142220	-0.251934	-0.251851
O10	O	1.642220	0.248066	0.248149
O11	O	1.318949	-0.219832	-0.283985
O12	O	1.818949	0.280168	0.216015
O13	O	1.190689	-0.284069	-0.134970
O14	O	1.690689	0.215931	0.365030
O15	O	1.093777	-0.135063	-0.219782
O16	O	1.593777	0.364937	0.280218
O17	O	1.318862	-0.284065	-0.219738
O18	O	1.818862	0.215935	0.280262
O19	O	1.190891	-0.135061	-0.284010
O20	O	1.690891	0.364939	0.215990
O21	O	1.093662	-0.219839	-0.134989
O22	O	1.593662	0.280161	0.365011
O23	O	0.965553	-0.219813	-0.219742
O24	O	1.465553	0.280187	0.280258
O25	O	1.093687	-0.284020	-0.368707
O26	O	1.593687	0.215980	0.131293
O27	O	0.965514	-0.284024	-0.283939
O28	O	1.465514	0.215976	0.216061
O29	O	1.190840	-0.219806	-0.368738
O30	O	1.690840	0.280194	0.131262
O31	O	1.190638	-0.368815	-0.219698
O32	O	1.690638	0.131185	0.280302
O33	O	1.093572	-0.368796	-0.283914
O34	O	1.593572	0.131204	0.216086
C35	C	0.936853	-0.251916	-0.251839
C36	C	1.436853	0.248084	0.248161
C37	C	0.848997	-0.251922	-0.251846
C38	C	1.348997	0.248078	0.248154
C39	C	0.477517	-0.218472	-0.218493
C40	C	0.977517	0.281528	0.281507
C41	C	0.477525	-0.285439	-0.285238
C42	C	0.977525	0.214561	0.214762
C43	C	0.560071	-0.285431	-0.285235
C44	C	1.060071	0.214569	0.214765
C45	C	0.601344	-0.251944	-0.251860
C46	C	1.101344	0.248056	0.248140
C47	C	0.560070	-0.218464	-0.218488
C48	C	1.060070	0.281536	0.281512
C49	C	0.601351	-0.318914	-0.318603
C50	C	1.101351	0.181086	0.181397
C51	C	0.683902	-0.318908	-0.318601
C52	C	1.183902	0.181092	0.181399
C53	C	0.725176	-0.285418	-0.285228
C54	C	1.225176	0.214582	0.214772
C55	C	0.683897	-0.251937	-0.251855
C56	C	1.183897	0.248063	0.248145
C57	C	0.725170	-0.218449	-0.218479
C58	C	1.225170	0.281551	0.281521
C59	C	0.683893	-0.184965	-0.185109
C60	C	1.183893	0.315035	0.314891
C61	C	0.601344	-0.184974	-0.185115
C62	C	1.101344	0.315026	0.314885
C63	C	0.807724	-0.285409	-0.285221
C64	C	1.307724	0.214591	0.214779
C65	C	0.807723	-0.218442	-0.218474
C66	C	1.307723	0.281558	0.281526
C67	C	1.142108	-0.387776	-0.251810
C68	C	1.642108	0.112224	0.248190
C69	C	1.142132	-0.445890	-0.251810
C70	C	1.642132	0.054110	0.248190
C71	C	1.192812	-0.806213	-0.285355
C72	C	1.692812	-0.306213	0.214645
C73	C	1.192836	-0.860818	-0.285365
C74	C	1.692836	-0.360818	0.214635
O75	O	1.235792	-0.889020	-0.313844
O76	O	1.735792	-0.389020	0.186156
N77	N	1.142329	-0.888173	-0.251901
N78	N	1.642329	-0.388173	0.248099
C79	C	1.091791	-0.860921	-0.218429
C80	C	1.591791	-0.360921	0.281571
O81	O	1.048833	-0.889202	-0.189966
O82	O	1.548833	-0.389202	0.310034
C83	C	1.091764	-0.806317	-0.218421
C84	C	1.591764	-0.306317	0.281579
C85	C	1.142279	-0.778965	-0.251883
C86	C	1.642279	-0.278965	0.248117
C87	C	1.243323	-0.778861	-0.318815
C88	C	1.743323	-0.278861	0.181185
C89	C	1.243300	-0.724260	-0.318803
C90	C	1.743300	-0.224260	0.181197
C91	C	1.192767	-0.697012	-0.285332
C92	C	1.692767	-0.197012	0.214668
C93	C	1.142257	-0.724365	-0.251872
C94	C	1.642257	-0.224365	0.248128
C95	C	1.041222	-0.779066	-0.184951
C96	C	1.541222	-0.279066	0.315049
C97	C	1.041199	-0.724459	-0.184947
C98	C	1.541199	-0.224459	0.315053
C99	C	1.091714	-0.697107	-0.218409
C100	C	1.591714	-0.197107	0.281591
C101	C	1.091701	-0.642516	-0.218389
C102	C	1.591701	-0.142516	0.281611
N103	N	1.142208	-0.615161	-0.251853
N104	N	1.642208	-0.115161	0.248147
C105	C	1.192741	-0.642409	-0.285324
C106	C	1.692741	-0.142409	0.214676
C107	C	1.091850	-0.975591	-0.218448
C108	C	1.591850	-0.475591	0.281552
C109	C	1.091880	-1.030194	-0.218452
C110	C	1.591880	-0.530194	0.281548
C111	C	1.192924	-1.030087	-0.285390
C112	C	1.692924	-0.530087	0.214610
C113	C	1.192897	-0.975483	-0.285382
C114	C	1.692897	-0.475483	0.214618
C115	C	1.142356	-0.948236	-0.251912
C116	C	1.642356	-0.448236	0.248088
C117	C	1.192690	-0.527744	-0.285297
C118	C	1.692690	-0.027744	0.214703
C119	C	1.192665	-0.473139	-0.285281
C120	C	1.692665	0.026861	0.214719
C121	C	1.091619	-0.473250	-0.218346
C122	C	1.591619	0.026750	0.281654
C123	C	1.091646	-0.527851	-0.218360
C124	C	1.591646	-0.027851	0.281640
C125	C	1.142184	-0.555096	-0.251840
C126	C	1.642184	-0.055096	0.248160
O127	O	1.048764	-0.614278	-0.189926
O128	O	1.548764	-0.114278	0.310074
O129	O	1.235684	-0.614121	-0.313786
O130	O	1.735684	-0.114121	0.186214
C131	C	1.348388	-0.251951	-0.251863
C132	C	1.848388	0.248049	0.248137
C133	C	1.436244	-0.251959	-0.251868
C134	C	1.936244	0.248041	0.248132
C135	C	1.142271	-0.251910	-0.388224
C136	C	1.642271	0.248090	0.111776
C137	C	1.142293	-0.251900	-0.446338
C138	C	1.642293	0.248100	0.053662
C139	C	1.142353	-0.115561	-0.251903
C140	C	1.642353	0.384439	0.248097
C141	C	1.142410	-0.057447	-0.251926
C142	C	1.642410	0.442553	0.248074
C143	C	1.091793	-0.218393	-0.806717
C144	C	1.591793	0.281607	-0.306717
C145	C	1.091797	-0.218383	-0.861321
C146	C	1.591797	0.281617	-0.361321
O147	O	1.048820	-0.189952	-0.889571
O148	O	1.548820	0.310048	-0.389571
N149	N	1.142319	-0.251818	-0.888621
N150	N	1.642319	0.248182	-0.388621
C151	C	1.192834	-0.285267	-0.861313
C152	C	1.692834	0.214733	-0.361313
O153	O	1.235807	-0.313705	-0.889548
O154	O	1.735807	0.186295	-0.389548
C155	C	1.192826	-0.285279	-0.806710
C156	C	1.692826	0.214721	-0.306710
C157	C	1.142306	-0.251839	-0.779413
C158	C	1.642306	0.248161	-0.279413
C159	C	1.041277	-0.184955	-0.779420
C160	C	1.541277	0.315045	-0.279420
C161	C	1.041274	-0.184964	-0.724819
C162	C	1.541274	0.315036	-0.224819
C163	C	1.091787	-0.218411	-0.697515
C164	C	1.591787	0.281589	-0.197515
C165	C	1.142303	-0.251848	-0.724812
C166	C	1.642303	0.248152	-0.224812
C167	C	1.243336	-0.318731	-0.779404
C168	C	1.743336	0.181269	-0.279404
C169	C	1.243323	-0.318740	-0.724796
C170	C	1.743323	0.181260	-0.224796
C171	C	1.192803	-0.285300	-0.697500
C172	C	1.692803	0.214700	-0.197500
C173	C	1.192813	-0.285303	-0.642908
C174	C	1.692813	0.214697	-0.142908
N175	N	1.142291	-0.251868	-0.615609
N176	N	1.642291	0.248132	-0.115609
C177	C	1.091778	-0.218422	-0.642912
C178	C	1.591778	0.281578	-0.142912
C179	C	1.192848	-0.285241	-0.975984
C180	C	1.692848	0.214759	-0.475984
C181	C	1.192862	-0.285227	-1.030586
C182	C	1.692862	0.214773	-0.530586
C183	C	1.091823	-0.218343	-1.030590
C184	C	1.591823	0.281657	-0.530590
C185	C	1.091814	-0.218355	-0.975987
C186	C	1.591814	0.281645	-0.475987
C187	C	1.142326	-0.251807	-0.948684
C188	C	1.642326	0.248193	-0.448684
C189	C	1.091776	-0.218443	-0.528247
C190	C	1.591776	0.281557	-0.028247
C191	C	1.091780	-0.218454	-0.473642
C192	C	1.591780	0.281546	0.026358
C193	C	1.192815	-0.285339	-0.473642
C194	C	1.692815	0.214661	0.026358
C195	C	1.192815	-0.285327	-0.528243
C196	C	1.692815	0.214673	-0.028243
C197	C	1.142289	-0.251877	-0.555544
C198	C	1.642289	0.248123	-0.055544
O199	O	1.235766	-0.313721	-0.614624
O200	O	1.735766	0.186279	-0.114624
O201	O	1.048805	-0.189994	-0.614671
O202	O	1.548805	0.310006	-0.114671
C203	C	1.142214	-0.251920	-0.116008
C204	C	1.642214	0.248080	0.383992
C205	C	1.142345	-0.251783	-0.057895
C206	C	1.642345	0.248217	0.442105
H207	H	0.443906	-0.191208	-0.191325
H208	H	0.943906	0.308792	0.308675
H209	H	1.050692	-0.191110	-1.052831
H210	H	1.550692	0.308890	-0.552831
O211	O	0.847778	-0.185968	-0.185977
O212	O	1.347778	0.314032	0.314023
C213	C	0.872951	-0.160443	-0.097089
C214	C	1.372951	0.339557	0.402911
C215	C	0.827554	-0.197259	-0.133832
C216	C	1.327554	0.302741	0.366168
H217	H	0.856604	-0.169551	-0.054922
H218	H	1.356604	0.330449	0.445078
H219	H	0.939050	-0.166192	-0.102769
H220	H	1.439050	0.333808	0.397231
H221	H	0.856764	-0.118301	-0.106381
H222	H	1.356764	0.381699	0.393619
H223	H	0.843675	-0.239415	-0.124563
H224	H	1.343675	0.260585	0.375437
H225	H	0.761466	-0.191465	-0.128145
H226	H	1.261466	0.308535	0.371855
H227	H	1.234009	-0.312452	-1.052807
H228	H	1.734009	0.187548	-0.552807
O229	O	1.042848	-0.185819	-0.949450
O230	O	1.542848	0.314181	-0.449450
C231	C	1.032256	-0.115259	-0.887805
C232	C	1.532256	0.384741	-0.387805
C233	C	1.087806	-0.152066	-0.917830
C234	C	1.587806	0.347934	-0.417830
H235	H	1.068582	-0.087968	-0.862225
H236	H	1.568582	0.412032	-0.362225
H237	H	0.996173	-0.091316	-0.916681
H238	H	1.496173	0.408684	-0.416681
H239	H	0.990878	-0.139276	-0.862252
H240	H	1.490878	0.360724	-0.362252
H241	H	1.129231	-0.128089	-0.943384
H242	H	1.629231	0.371911	-0.443384
H243	H	1.123833	-0.176011	-0.888925
H244	H	1.623833	0.323989	-0.388925
O245	O	0.437519	-0.317936	-0.317732
O246	O	0.937519	0.182064	0.182268
C247	C	0.412254	-0.343402	-0.406626
C248	C	0.912254	0.156598	0.093374
C249	C	0.457631	-0.306577	-0.369881
C250	C	0.957631	0.193423	0.130119
H251	H	0.428485	-0.334224	-0.448796
H252	H	0.928485	0.165776	0.051204
H253	H	0.428463	-0.385558	-0.397413
H254	H	0.928463	0.114442	0.102587
H255	H	0.346170	-0.337661	-0.400867
H256	H	0.846170	0.162339	0.099133
H257	H	0.523726	-0.312271	-0.375619
H258	H	1.023726	0.187729	0.124381
H259	H	0.441356	-0.264434	-0.379103
H260	H	0.941356	0.235566	0.120897
O261	O	0.992264	-0.152503	-0.698226
O262	O	1.492264	0.347497	-0.198226
C263	C	0.947411	-0.122897	-0.614117
C264	C	1.447411	0.377103	-0.114117
C265	C	1.002975	-0.159676	-0.644164
C266	C	1.502975	0.340324	-0.144164
H267	H	0.956040	-0.128692	-0.570403
H268	H	1.456040	0.371308	-0.070403
H269	H	0.961329	-0.080725	-0.624833
H270	H	1.461329	0.419275	-0.124833
H271	H	0.883681	-0.132072	-0.624877
H272	H	1.383681	0.367928	-0.124877
H273	H	1.066724	-0.150548	-0.633420
H274	H	1.566724	0.349452	-0.133420
H275	H	0.988990	-0.201838	-0.633445
H276	H	1.488990	0.298162	-0.133445
O277	O	0.723955	-0.152495	-0.152612
O278	O	1.223955	0.347505	0.347388
C279	C	0.749145	-0.126975	-0.063725
C280	C	1.249145	0.373025	0.436275
C281	C	0.703735	-0.163785	-0.100466
C282	C	1.203735	0.336215	0.399534
H283	H	0.732802	-0.136082	-0.021558
H284	H	1.232802	0.363918	0.478442
H285	H	0.815243	-0.132730	-0.069409
H286	H	1.315243	0.367270	0.430591
H287	H	0.732967	-0.084831	-0.073015
H288	H	1.232967	0.415169	0.426985
H289	H	0.719848	-0.205943	-0.091199
H290	H	1.219848	0.294057	0.408801
H291	H	0.637649	-0.157984	-0.094776
H292	H	1.137649	0.342016	0.405224
O293	O	0.724080	-0.351356	-0.351046
O294	O	1.224080	0.148644	0.148954
C295	C	0.817274	-0.358469	-0.421645
C296	C	1.317274	0.141531	0.078355
C297	C	0.771836	-0.321666	-0.384923
C298	C	1.271836	0.178334	0.115077
H299	H	0.855883	-0.334479	-0.449051
H300	H	1.355883	0.165521	0.050949
H301	H	0.855949	-0.385764	-0.397619
H302	H	1.355949	0.114236	0.102381
H303	H	0.773578	-0.382415	-0.445475
H304	H	1.273578	0.117585	0.054525
H305	H	0.815475	-0.297686	-0.361086
H306	H	1.315475	0.202314	0.138914
H307	H	0.733149	-0.294405	-0.408979
H308	H	1.233149	0.205595	0.091021
O309	O	0.561126	-0.152496	-0.152721
O310	O	1.061126	0.347504	0.347279
C311	C	0.433949	-0.122801	-0.123182
C312	C	0.933949	0.377199	0.376818
C313	C	0.479401	-0.159618	-0.159883
C314	C	0.979401	0.340382	0.340117
H315	H	0.367867	-0.128538	-0.128968
H316	H	0.867867	0.371462	0.371032
H317	H	0.450082	-0.131916	-0.080990
H318	H	0.950082	0.368084	0.419010
H319	H	0.450259	-0.080660	-0.132445
H320	H	0.950259	0.419340	0.367555
H321	H	0.463116	-0.201771	-0.150667
H322	H	0.963116	0.298229	0.349333
H323	H	0.463264	-0.150458	-0.202064
H324	H	0.963264	0.349542	0.297936
O325	O	0.561340	-0.351408	-0.351097
O326	O	1.061340	0.148592	0.148903
C327	C	0.536075	-0.376870	-0.439992
C328	C	1.036075	0.123130	0.060008
C329	C	0.581459	-0.340051	-0.403246
C330	C	1.081459	0.159949	0.096754
H331	H	0.552312	-0.367693	-0.482162
H332	H	1.052312	0.132307	0.017838
H333	H	0.552272	-0.419028	-0.430779
H334	H	1.052272	0.080972	0.069221
H335	H	0.469992	-0.371122	-0.434236
H336	H	0.969992	0.128878	0.065764
H337	H	0.647553	-0.345752	-0.408982
H338	H	1.147553	0.154248	0.091018
H339	H	0.565196	-0.297906	-0.412468
H340	H	1.065196	0.202094	0.087532
O341	O	1.241741	-0.554150	-0.317891
O342	O	1.741741	-0.054150	0.182109
C343	C	1.280008	-0.570783	-0.406858
C344	C	1.780008	-0.070783	0.093142
C345	C	1.224421	-0.540836	-0.370006
C346	C	1.724421	-0.040836	0.129994
H347	H	1.266014	-0.560039	-0.449001
H348	H	1.766014	-0.060039	0.050999
H349	H	1.343760	-0.560009	-0.397755
H350	H	1.843760	-0.060009	0.102245
H351	H	1.271366	-0.614507	-0.401096
H352	H	1.771366	-0.114507	0.098904
H353	H	1.232993	-0.497106	-0.375748
H354	H	1.732993	0.002894	0.124252
H355	H	1.160690	-0.551654	-0.379118
H356	H	1.660690	-0.051654	0.120882
H357	H	1.050634	-0.191205	-0.550469
H358	H	1.550634	0.308795	-0.050469
H359	H	0.841328	-0.312673	-0.312390
H360	H	1.341328	0.187327	0.187610
O361	O	0.992313	-0.152439	-0.805997
O362	O	1.492313	0.347561	-0.305997
C363	C	0.981750	-0.081807	-0.867635
C364	C	1.481750	0.418193	-0.367635
C365	C	1.037290	-0.118611	-0.837583
C366	C	1.537290	0.381389	-0.337583
H367	H	1.018092	-0.054440	-0.893171
H368	H	1.518092	0.445560	-0.393171
H369	H	0.940408	-0.105771	-0.893219
H370	H	1.440408	0.394229	-0.393219
H371	H	0.945628	-0.057939	-0.838729
H372	H	1.445628	0.442061	-0.338729
H373	H	1.073464	-0.142487	-0.866451
H374	H	1.573464	0.357513	-0.366451
H375	H	1.078580	-0.094618	-0.811991
H376	H	1.578580	0.405382	-0.311991
H377	H	1.233804	-0.450870	-0.312530
H378	H	1.733804	0.049130	0.187470
H379	H	1.050754	-1.052459	-0.191198
H380	H	1.550754	-0.552459	0.308802
O381	O	1.292392	-0.697775	-0.351361
O382	O	1.792392	-0.197775	0.148639
C383	C	1.392647	-0.703453	-0.417733
C384	C	1.892647	-0.203453	0.082267
C385	C	1.337076	-0.733507	-0.380893
C386	C	1.837076	-0.233507	0.119107
H387	H	1.428801	-0.732329	-0.441612
H388	H	1.928801	-0.232329	0.058388
H389	H	1.356363	-0.677904	-0.445083
H390	H	1.856363	-0.177904	0.054917
H391	H	1.433958	-0.677869	-0.393744
H392	H	1.933958	-0.177869	0.106256
H393	H	1.295754	-0.759119	-0.404839
H394	H	1.795754	-0.259119	0.095161
H395	H	1.373409	-0.759023	-0.353541
H396	H	1.873409	-0.259023	0.146459
O397	O	1.292456	-0.805382	-0.351258
O398	O	1.792456	-0.305382	0.148742
C399	C	1.399249	-0.866928	-0.358363
C400	C	1.899249	-0.366928	0.141637
C401	C	1.343633	-0.836940	-0.321564
C402	C	1.843633	-0.336940	0.178436
H403	H	1.440651	-0.892441	-0.334371
H404	H	1.940651	-0.392441	0.165629
H405	H	1.363003	-0.892529	-0.385681
H406	H	1.863003	-0.392529	0.114319
H407	H	1.435303	-0.837980	-0.382284
H408	H	1.935303	-0.337980	0.117716
H409	H	1.307568	-0.865849	-0.297609
H410	H	1.807568	-0.365849	0.202391
H411	H	1.379924	-0.811330	-0.294281
H412	H	1.879924	-0.311330	0.205719
O413	O	1.241986	-0.948996	-0.317940
O414	O	1.741986	-0.448996	0.182060
C415	C	1.342241	-0.954669	-0.384313
C416	C	1.842241	-0.454669	0.115687
C417	C	1.286675	-0.984726	-0.347473
C418	C	1.786675	-0.484726	0.152527
H419	H	1.378398	-0.983543	-0.408192
H420	H	1.878398	-0.483543	0.091808
H421	H	1.305952	-0.929123	-0.411664
H422	H	1.805952	-0.429123	0.088336
H423	H	1.383548	-0.929082	-0.360326
H424	H	1.883548	-0.429082	0.139674
H425	H	1.245357	-1.010341	-0.371418
H426	H	1.745357	-0.510341	0.128582
H427	H	1.323013	-1.010239	-0.320120
H428	H	1.823013	-0.510239	0.179880
H429	H	1.050695	-0.953409	-0.191188
H430	H	1.550695	-0.453409	0.308812
O431	O	1.242001	-0.317750	-0.949545
O432	O	1.742001	0.182250	-0.449545
C433	C	1.342186	-0.384108	-0.955315
C434	C	1.842186	0.115892	-0.455315
C435	C	1.286577	-0.347310	-0.985318
C436	C	1.786577	0.152690	-0.485318
H437	H	1.378228	-0.408024	-0.984225
H438	H	1.878228	0.091976	-0.484225
H439	H	1.383593	-0.360139	-0.929782
H440	H	1.883593	0.139861	-0.429782
H441	H	1.305859	-0.411430	-0.929722
H442	H	1.805859	0.088570	-0.429722
H443	H	1.322840	-0.319980	-1.010940
H444	H	1.822840	0.180020	-0.510940
H445	H	1.245168	-0.371311	-1.010819
H446	H	1.745168	0.128689	-0.510819
O447	O	0.992072	-0.805547	-0.152431
O448	O	1.492072	-0.305547	0.347569
C449	C	0.891867	-0.799866	-0.086027
C450	C	1.391867	-0.299866	0.413973
C451	C	0.947481	-0.769813	-0.122839
C452	C	1.447481	-0.269813	0.377161
H453	H	0.855813	-0.770989	-0.062084
H454	H	1.355813	-0.270989	0.437916
H455	H	0.850473	-0.825418	-0.109986
H456	H	1.350473	-0.325418	0.390014
H457	H	0.928192	-0.825446	-0.058730
H458	H	1.428192	-0.325446	0.441270
H459	H	0.911220	-0.744205	-0.150143
H460	H	1.411220	-0.244205	0.349857
H461	H	0.988878	-0.744294	-0.098846
H462	H	1.488878	-0.244294	0.401154
H463	H	1.234069	-1.052282	-0.312645
H464	H	1.734069	-0.552282	0.187355
O465	O	0.992019	-0.697968	-0.152506
O466	O	1.492019	-0.197968	0.347494
C467	C	0.885310	-0.636360	-0.145397
C468	C	1.385310	-0.136360	0.354603
C469	C	0.940940	-0.666336	-0.182195
C470	C	1.440940	-0.166336	0.317805
H471	H	0.844010	-0.610770	-0.169385
H472	H	1.344010	-0.110770	0.330615
H473	H	0.849155	-0.665268	-0.121494
H474	H	1.349155	-0.165268	0.378506
H475	H	0.921625	-0.610820	-0.118063
H476	H	1.421625	-0.110820	0.381937
H477	H	0.904686	-0.691876	-0.209561
H478	H	1.404686	-0.191876	0.290439
H479	H	0.977098	-0.637400	-0.206062
H480	H	1.477098	-0.137400	0.293938
H481	H	1.050519	-0.550122	-0.191108
H482	H	1.550519	-0.050122	0.308892
O483	O	1.042813	-0.185914	-0.447103
O484	O	1.542813	0.314086	0.052897
C485	C	1.032232	-0.115352	-0.385459
C486	C	1.532232	0.384648	0.114541
C487	C	1.087776	-0.152159	-0.415488
C488	C	1.587776	0.347841	0.084512
H489	H	1.068562	-0.088059	-0.359883
H490	H	1.568562	0.411941	0.140117
H491	H	0.996142	-0.091410	-0.414333
H492	H	1.496142	0.408590	0.085667
H493	H	0.990860	-0.139369	-0.359901
H494	H	1.490860	0.360631	0.140099
H495	H	1.129196	-0.128183	-0.441047
H496	H	1.629196	0.371817	0.058953
H497	H	1.123811	-0.176103	-0.386586
H498	H	1.623811	0.323897	0.113414
H499	H	1.050478	-0.451056	-0.191092
H500	H	1.550478	0.048944	0.308908
H501	H	1.284474	-0.345962	-0.801619
H502	H	1.784474	0.154038	-0.301619
O503	O	1.292465	-0.351254	-0.698356
O504	O	1.792465	0.148746	-0.198356
C505	C	1.392634	-0.417623	-0.704120
C506	C	1.892634	0.082377	-0.204120
C507	C	1.337036	-0.380820	-0.734127
C508	C	1.837036	0.119180	-0.234127
H509	H	1.428673	-0.441545	-0.733028
H510	H	1.928673	0.058455	-0.233028
H511	H	1.434045	-0.393657	-0.678587
H512	H	1.934045	0.106343	-0.178587
H513	H	1.356299	-0.444939	-0.678526
H514	H	1.856299	0.055061	-0.178526
H515	H	1.373308	-0.353496	-0.759749
H516	H	1.873308	0.146504	-0.259749
H517	H	1.295623	-0.404819	-0.759627
H518	H	1.795623	0.095181	-0.259627
H519	H	1.233960	-0.312551	-0.550469
H520	H	1.733960	0.187449	-0.050469
O521	O	1.241764	-0.317884	-0.447089
O522	O	1.741764	0.182116	0.052911
C523	C	1.252293	-0.388459	-0.385383
C524	C	1.752293	0.111541	0.114617
C525	C	1.196775	-0.351640	-0.415434
C526	C	1.696775	0.148360	0.084566
H527	H	1.215942	-0.415753	-0.359774
H528	H	1.715942	0.084247	0.140226
H529	H	1.288391	-0.412400	-0.414243
H530	H	1.788391	0.087600	0.085757
H531	H	1.293658	-0.364453	-0.359857
H532	H	1.793658	0.135547	0.140143
H533	H	1.155362	-0.375605	-0.440961
H534	H	1.655362	0.124395	0.059039
H535	H	1.160732	-0.327697	-0.386546
H536	H	1.660732	0.172303	0.113454
