data_functionalizedCrystal
_audit_creation_method	'MofGen! by Chris Wilmer'
_symmetry_space_group_name_H-M	'P1'
_symmetry_Int_Tables_number	1
_symmetry_cell_setting	triclinic
loop_
_symmetry_equiv_pos_as_xyz
  x,y,z
_cell_length_a	21.395364
_cell_length_b	21.395361
_cell_length_c	21.395355
_cell_angle_alpha	90.021511
_cell_angle_beta	90.025298
_cell_angle_gamma	90.047409
loop_
_atom_site_label
_atom_site_type_symbol
_atom_site_fract_x
_atom_site_fract_y
_atom_site_fract_z
Zn1	Zn	-0.957859	0.249232	-0.354261
Zn2	Zn	-0.457859	0.749232	0.145739
Zn3	Zn	-0.957762	0.353992	-0.249478
Zn4	Zn	-0.457762	0.853992	0.250522
Zn5	Zn	-0.853074	0.249263	-0.249496
Zn6	Zn	-0.353074	0.749263	0.250504
Zn7	Zn	-0.853043	0.354006	-0.354217
Zn8	Zn	-0.353043	0.854006	0.145783
O9	O	-0.905435	0.301623	-0.301863
O10	O	-0.405435	0.801623	0.198137
O11	O	-1.045524	0.263110	-0.340372
O12	O	-0.545524	0.763110	0.159628
O13	O	-0.943847	0.340106	-0.161802
O14	O	-0.443847	0.840106	0.338198
O15	O	-0.867028	0.161581	-0.263420
O16	O	-0.367028	0.661581	0.236580
O17	O	-1.045453	0.340076	-0.263388
O18	O	-0.545453	0.840076	0.236612
O19	O	-0.944013	0.161558	-0.340390
O20	O	-0.444013	0.661558	0.159610
O21	O	-0.866933	0.263162	-0.161816
O22	O	-0.366933	0.763162	0.338184
O23	O	-0.765392	0.263176	-0.263377
O24	O	-0.265392	0.763176	0.236623
O25	O	-0.866975	0.340101	-0.441901
O26	O	-0.366975	0.840101	0.058099
O27	O	-0.765370	0.340131	-0.340315
O28	O	-0.265370	0.840131	0.159685
O29	O	-0.943983	0.263124	-0.441933
O30	O	-0.443983	0.763124	0.058067
O31	O	-0.943817	0.441672	-0.263346
O32	O	-0.443817	0.941672	0.236654
O33	O	-0.866881	0.441682	-0.340297
O34	O	-0.366881	0.941682	0.159703
C35	C	-0.742647	0.301659	-0.301843
C36	C	-0.242647	0.801659	0.198157
C37	C	-0.673006	0.301689	-0.301850
C38	C	-0.173006	0.801689	0.198150
C39	C	-0.640352	0.261679	-0.341997
C40	C	-0.140352	0.761679	0.158003
C41	C	-0.574917	0.261664	-0.341998
C42	C	-0.074917	0.761664	0.158002
C43	C	-0.542137	0.301671	-0.301859
C44	C	-0.042137	0.801671	0.198141
C45	C	-0.574799	0.341683	-0.261705
C46	C	-0.074799	0.841683	0.238295
C47	C	-0.640233	0.341692	-0.261700
C48	C	-0.140233	0.841692	0.238300
C49	C	-0.438413	0.358099	-0.296818
C50	C	0.061587	0.858099	0.203182
C51	C	-0.372980	0.358090	-0.296827
C52	C	0.127020	0.858090	0.203173
C53	C	-0.340317	0.301642	-0.301871
C54	C	0.159683	0.801642	0.198129
C55	C	-0.373094	0.245200	-0.306919
C56	C	0.126906	0.745200	0.193081
C57	C	-0.438528	0.245210	-0.306914
C58	C	0.061472	0.745210	0.193086
C59	C	-0.471185	0.301665	-0.301860
C60	C	0.028815	0.801665	0.198140
C61	C	-0.236711	0.261613	-0.342021
C62	C	0.263289	0.761613	0.157979
C63	C	-0.171274	0.261597	-0.342019
C64	C	0.328726	0.761597	0.157981
C65	C	-0.171157	0.341622	-0.261728
C66	C	0.328843	0.841622	0.238272
C67	C	-0.236593	0.341632	-0.261728
C68	C	0.263407	0.841632	0.238272
C69	C	-0.269365	0.301629	-0.301878
C70	C	0.230635	0.801629	0.198122
C71	C	-0.905352	0.464411	-0.301828
C72	C	-0.405352	0.964411	0.198172
C73	C	-0.905374	0.534052	-0.301834
C74	C	-0.405374	1.034052	0.198166
C75	C	-0.905487	0.301610	-0.465286
C76	C	-0.405487	0.801610	0.034714
C77	C	-0.905509	0.301605	-0.534928
C78	C	-0.405509	0.801605	-0.034928
C79	C	-0.068858	0.301596	-0.301880
C80	C	0.431142	0.801596	0.198120
C81	C	-0.138499	0.301604	-0.301879
C82	C	0.361501	0.801604	0.198121
C83	C	-0.905535	0.138200	-0.301912
C84	C	-0.405535	0.638200	0.198088
C85	C	-0.905577	0.068558	-0.301932
C86	C	-0.405577	0.568558	0.198068
C87	C	-0.945470	0.566739	-0.261807
C88	C	-0.445470	1.066739	0.238193
C89	C	-0.945499	0.632174	-0.261821
C90	C	-0.445499	1.132174	0.238179
C91	C	-0.905421	0.664920	-0.301856
C92	C	-0.405421	1.164920	0.198144
C93	C	-0.865322	0.632226	-0.341891
C94	C	-0.365322	1.132226	0.158109
C95	C	-0.865298	0.566791	-0.341880
C96	C	-0.365298	1.066791	0.158120
C97	C	-0.849006	0.768652	-0.306765
C98	C	-0.349006	1.268652	0.193235
C99	C	-0.849029	0.834085	-0.306771
C100	C	-0.349029	1.334085	0.193229
C101	C	-0.905494	0.866741	-0.301892
C102	C	-0.405494	1.366741	0.198108
C103	C	-0.961938	0.833956	-0.296994
C104	C	-0.461938	1.333956	0.203006
C105	C	-0.961915	0.768522	-0.296983
C106	C	-0.461915	1.268522	0.203017
C107	C	-0.905442	0.735873	-0.301872
C108	C	-0.405442	1.235873	0.198128
C109	C	-0.945625	0.970380	-0.261878
C110	C	-0.445625	1.470380	0.238122
C111	C	-0.945655	1.035817	-0.261896
C112	C	-0.445655	1.535817	0.238104
C113	C	-0.865473	1.035867	-0.341963
C114	C	-0.365473	1.535867	0.158037
C115	C	-0.865448	0.970432	-0.341948
C116	C	-0.365448	1.470432	0.158052
C117	C	-0.905523	0.937692	-0.301902
C118	C	-0.405523	1.437692	0.198098
C119	C	-0.945605	0.261521	-0.567659
C120	C	-0.445605	0.761521	-0.067659
C121	C	-0.945604	0.261494	-0.633094
C122	C	-0.445604	0.761494	-0.133094
C123	C	-0.905514	0.301562	-0.665796
C124	C	-0.405514	0.801562	-0.165796
C125	C	-0.865410	0.341649	-0.633057
C126	C	-0.365410	0.841649	-0.133057
C127	C	-0.865407	0.341670	-0.567623
C128	C	-0.365407	0.841670	-0.067623
C129	C	-0.900538	0.357979	-0.769459
C130	C	-0.400538	0.857979	-0.269459
C131	C	-0.900545	0.357959	-0.834892
C132	C	-0.400545	0.857959	-0.334892
C133	C	-0.905518	0.301496	-0.867617
C134	C	-0.405518	0.801496	-0.367617
C135	C	-0.910497	0.245052	-0.834901
C136	C	-0.410497	0.745052	-0.334901
C137	C	-0.910494	0.245073	-0.769467
C138	C	-0.410494	0.745073	-0.269467
C139	C	-0.905512	0.301543	-0.736748
C140	C	-0.405512	0.801543	-0.236748
C141	C	-0.945615	0.261380	-0.971300
C142	C	-0.445615	0.761380	-0.471300
C143	C	-0.945610	0.261352	-1.036737
C144	C	-0.445610	0.761352	-0.536737
C145	C	-0.865419	0.341512	-1.036699
C146	C	-0.365419	0.841512	-0.536699
C147	C	-0.865421	0.341534	-0.971263
C148	C	-0.365421	0.841534	-0.471263
C149	C	-0.905522	0.301469	-0.938568
C150	C	-0.405522	0.801469	-0.438568
C151	C	-0.905419	0.301591	-0.139075
C152	C	-0.405419	0.801591	0.360925
C153	C	-0.905518	0.301419	-0.069435
C154	C	-0.405518	0.801419	0.430565
H155	H	-0.263179	0.374215	-0.229039
H156	H	0.236821	0.874215	0.270961
H157	H	-0.144469	0.374196	-0.229047
H158	H	0.355531	0.874196	0.270953
Cl159	Cl	-0.681285	0.391993	-0.211224
Cl160	Cl	-0.181285	0.891993	0.288776
H161	H	-0.667032	0.229104	-0.374689
H162	H	-0.167032	0.729104	0.125311
Cl163	Cl	-0.815035	0.929337	-0.392268
Cl164	Cl	-0.315035	1.429337	0.107732
Cl165	Cl	-0.814941	0.673391	-0.392223
Cl166	Cl	-0.314941	1.173391	0.107777
Cl167	Cl	-0.814887	0.525697	-0.392204
Cl168	Cl	-0.314887	1.025697	0.107796
Cl169	Cl	-0.996015	0.211150	-0.526559
Cl170	Cl	-0.496015	0.711150	-0.026559
H171	H	-0.144689	0.229013	-0.374710
H172	H	0.355311	0.729013	0.125290
Cl173	Cl	-1.032870	0.727309	-0.290832
Cl174	Cl	-0.532870	1.227309	0.209168
H175	H	-0.978254	0.228850	-0.659749
H176	H	-0.478254	0.728850	-0.159749
H177	H	-1.007918	0.860543	-0.293022
H178	H	-0.507918	1.360543	0.206978
Cl179	Cl	-0.894304	0.428970	-0.728325
Cl180	Cl	-0.394304	0.928970	-0.228325
Cl181	Cl	-0.331781	0.429046	-0.290491
Cl182	Cl	0.168219	0.929046	0.209509
H183	H	-0.803022	0.742070	-0.310740
H184	H	-0.303022	1.242070	0.189260
Cl185	Cl	-0.996004	0.929219	-0.211535
Cl186	Cl	-0.496004	1.429219	0.288465
H187	H	-0.914547	0.199115	-0.742833
H188	H	-0.414547	0.699115	-0.242833
H189	H	-0.914547	0.199075	-0.861545
H190	H	-0.414547	0.699075	-0.361545
H191	H	-0.978103	0.540084	-0.229201
H192	H	-0.478103	1.040084	0.270799
Cl193	Cl	-0.996071	1.076910	-0.211576
Cl194	Cl	-0.496071	1.576910	0.288424
H195	H	-0.548106	0.374256	-0.229023
H196	H	-0.048106	0.874256	0.270977
Cl197	Cl	-0.479732	0.174258	-0.313256
Cl198	Cl	0.020268	0.674258	0.186744
H199	H	-0.832843	1.062528	-0.374563
H200	H	-0.332843	1.562528	0.125437
H201	H	-0.978265	0.228753	-0.944679
H202	H	-0.478265	0.728753	-0.444679
H203	H	-0.832774	0.374179	-0.944614
H204	H	-0.332774	0.874179	-0.444614
Cl205	Cl	-0.996031	0.210966	-1.077885
Cl206	Cl	-0.496031	0.710966	-0.577885
H207	H	-0.832770	0.374130	-1.063324
H208	H	-0.332770	0.874130	-0.563324
Cl209	Cl	-0.894291	0.428916	-0.876013
Cl210	Cl	-0.394291	0.928916	-0.376013
H211	H	-0.832766	0.374270	-0.659687
H212	H	-0.332766	0.874270	-0.159687
H213	H	-0.832753	0.374310	-0.540974
H214	H	-0.332753	0.874310	-0.040974
H215	H	-0.548325	0.229080	-0.374689
H216	H	-0.048325	0.729080	0.125311
H217	H	-0.346501	0.199235	-0.311026
H218	H	0.153499	0.699235	0.188974
H219	H	-0.263396	0.229036	-0.374710
H220	H	0.236604	0.729036	0.125290
Cl221	Cl	-0.479469	0.429068	-0.290467
Cl222	Cl	0.020531	0.929068	0.209533
H223	H	-0.803068	0.860773	-0.310753
H224	H	-0.303068	1.360773	0.189247
H225	H	-0.978152	0.658793	-0.229226
H226	H	-0.478152	1.158793	0.270774
