data_functionalizedCrystal
_audit_creation_method	'MofGen! by Chris Wilmer'
_symmetry_space_group_name_H-M	'P1'
_symmetry_Int_Tables_number	1
_symmetry_cell_setting	triclinic
loop_
_symmetry_equiv_pos_as_xyz
  x,y,z
_cell_length_a	21.295420
_cell_length_b	29.839131
_cell_length_c	21.295411
_cell_angle_alpha	89.971982
_cell_angle_beta	89.975307
_cell_angle_gamma	90.033479
loop_
_atom_site_label
_atom_site_type_symbol
_atom_site_fract_x
_atom_site_fract_y
_atom_site_fract_z
Zn1	Zn	0.962335	-0.178925	-0.355886
Zn2	Zn	0.962228	-0.254041	-0.250599
Zn3	Zn	0.857058	-0.178924	-0.250631
Zn4	Zn	0.857019	-0.254027	-0.355831
O5	O	0.909660	-0.216479	-0.303237
O6	O	1.050410	-0.188896	-0.341929
O7	O	0.948249	-0.244082	-0.162514
O8	O	0.871084	-0.116057	-0.264629
O9	O	1.050332	-0.244083	-0.264576
O10	O	0.948430	-0.116058	-0.341959
O11	O	0.870981	-0.188893	-0.162537
O12	O	0.768963	-0.188879	-0.264576
O13	O	0.871017	-0.244059	-0.443928
O14	O	0.768934	-0.244058	-0.341866
O15	O	0.948392	-0.188883	-0.443968
O16	O	0.948211	-0.316906	-0.264523
O17	O	0.870914	-0.316896	-0.341836
C18	C	0.746108	-0.216467	-0.303219
C19	C	0.676140	-0.216473	-0.303226
C20	C	0.176684	-0.245263	-0.343443
C21	C	0.242426	-0.245264	-0.343436
C22	C	0.275301	-0.216489	-0.303256
C23	C	0.242427	-0.187721	-0.263069
C24	C	0.176686	-0.187725	-0.263072
N25	N	0.378546	-0.177154	-0.298530
N26	N	0.440997	-0.177151	-0.298530
C27	C	0.473375	-0.216477	-0.303243
N28	N	0.440943	-0.255806	-0.307967
N29	N	0.378486	-0.255808	-0.307970
C30	C	0.346586	-0.216482	-0.303248
C31	C	0.577526	-0.245246	-0.343418
C32	C	0.643270	-0.245247	-0.343406
C33	C	0.643270	-0.187700	-0.263043
C34	C	0.577528	-0.187703	-0.263051
C35	C	0.544660	-0.216475	-0.303241
C36	C	0.909564	-0.333202	-0.303184
C37	C	0.909580	-0.383136	-0.303182
C38	C	0.949925	-0.692745	-0.343560
C39	C	0.949994	-0.880419	-0.343598
O40	O	0.984202	-0.904654	-0.377889
N41	N	0.909767	-0.903921	-0.303306
C42	C	0.869517	-0.880503	-0.263006
O43	O	0.835299	-0.904800	-0.228741
C44	C	0.869446	-0.692831	-0.262972
C45	C	0.909680	-0.669330	-0.303261
C46	C	0.990156	-0.669245	-0.383847
C47	C	0.990141	-0.622330	-0.383834
C48	C	0.949895	-0.598915	-0.343535
C49	C	0.909665	-0.622415	-0.303249
C50	C	0.829193	-0.669413	-0.222674
C51	C	0.829178	-0.622492	-0.222671
C52	C	0.869412	-0.598992	-0.262960
C53	C	0.869405	-0.552084	-0.262937
N54	N	0.909631	-0.528582	-0.303229
C55	C	0.949877	-0.551997	-0.343528
C56	C	0.869558	-0.979034	-0.263026
C57	C	0.869576	-1.025951	-0.263033
C58	C	0.950052	-1.025864	-0.343626
C59	C	0.950037	-0.978945	-0.343615
C60	C	0.909785	-0.955531	-0.303317
C61	C	0.949843	-0.453471	-0.343499
C62	C	0.949826	-0.406551	-0.343481
C63	C	0.869348	-0.406643	-0.262890
C64	C	0.869366	-0.453559	-0.262905
C65	C	0.909616	-0.476971	-0.303215
O66	O	0.835209	-0.527820	-0.228669
O67	O	0.984080	-0.527692	-0.377797
C68	C	0.949940	-0.739661	-0.343572
C69	C	0.909710	-0.763161	-0.303286
C70	C	0.869465	-0.739746	-0.262987
C71	C	0.909729	-0.810079	-0.303293
C72	C	0.949974	-0.833494	-0.343592
C73	C	0.990201	-0.809991	-0.383884
C74	C	0.990186	-0.763076	-0.383871
C75	C	0.829238	-0.763249	-0.222695
C76	C	0.829257	-0.810164	-0.222710
C77	C	0.869502	-0.833580	-0.263009
C78	C	1.073850	-0.216492	-0.303255
C79	C	1.143818	-0.216497	-0.303263
C80	C	0.909712	-0.216470	-0.467427
C81	C	0.909734	-0.216466	-0.537395
C82	C	0.909773	-0.099301	-0.303304
C83	C	0.909822	-0.049366	-0.303332
C84	C	0.950022	-0.187734	-0.570284
C85	C	0.950021	-0.187714	-0.636026
C86	C	0.909739	-0.216435	-0.668878
C87	C	0.869444	-0.245169	-0.635981
C88	C	0.869441	-0.245184	-0.570240
N89	N	0.904878	-0.255735	-0.772087
N90	N	0.904884	-0.255719	-0.834538
C91	C	0.909743	-0.216389	-0.866953
N92	N	0.914609	-0.177075	-0.834556
N93	N	0.914606	-0.177091	-0.772099
C94	C	0.909737	-0.216421	-0.740163
C95	C	0.950032	-0.187634	-0.971127
C96	C	0.950027	-0.187614	-1.036871
C97	C	0.869453	-0.245072	-1.036824
C98	C	0.869455	-0.245088	-0.971082
C99	C	0.909748	-0.216370	-0.938237
C100	C	0.909644	-0.216456	-0.139685
C101	C	0.909744	-0.216334	-0.069717
H102	H	0.149927	-0.268693	-0.376167
H103	H	1.022948	-0.743945	-0.416679
H104	H	0.836648	-0.268452	-1.063571
C105	C	0.825121	-0.276794	-0.534061
N106	N	0.791740	-0.300603	-0.506811
C107	C	0.541374	-0.156052	-0.218857
N108	N	0.514144	-0.132210	-0.185569
H109	H	1.022972	-0.829064	-0.416694
H110	H	0.550764	-0.268674	-0.376142
C111	C	0.994349	-0.156039	-0.934995
N112	N	1.027728	-0.132242	-0.907783
H113	H	0.982833	-0.164214	-1.063647
H114	H	0.796398	-0.603431	-0.189856
H115	H	0.836652	-0.268487	-0.944303
H116	H	0.982827	-0.164315	-0.662809
C117	C	0.278585	-0.276907	-0.387643
N118	N	0.305819	-0.300739	-0.420941
C119	C	1.034404	-0.596485	-0.428154
N120	N	1.067746	-0.577022	-0.461538
H121	H	0.149927	-0.164299	-0.230353
C122	C	0.994319	-1.051629	-0.387959
N123	N	1.027655	-1.071038	-0.421353
H124	H	0.269198	-0.164294	-0.230354
H125	H	0.670028	-0.268675	-0.376124
H126	H	0.670036	-0.164273	-0.230326
H127	H	0.982591	-0.387419	-0.376289
H128	H	0.796494	-0.829294	-0.189896
H129	H	0.982613	-0.472528	-0.376327
H130	H	1.022928	-0.688305	-0.416667
C131	C	0.994337	-0.156137	-0.534158
N132	N	1.027713	-0.132336	-0.506948
H133	H	0.796431	-0.688539	-0.189866
H134	H	0.836821	-1.045081	-0.230219
H135	H	0.796464	-0.744188	-0.189880
C136	C	0.994294	-0.953099	-0.387939
N137	N	1.027630	-0.933634	-0.421326
H138	H	0.836779	-0.959973	-0.230208
H139	H	0.836610	-0.472694	-0.230094
C140	C	0.825077	-0.380878	-0.218566
N141	N	0.791728	-0.361469	-0.185185
C142	C	0.825131	-0.276759	-0.672119
N143	N	0.791751	-0.300552	-0.699338
