data_functionalizedCrystal
_audit_creation_method	'MofGen! by Chris Wilmer'
_symmetry_space_group_name_H-M	'P1'
_symmetry_Int_Tables_number	1
_symmetry_cell_setting	triclinic
loop_
_symmetry_equiv_pos_as_xyz
  x,y,z
_cell_length_a	14.519709
_cell_length_b	7.681481
_cell_length_c	8.559649
_cell_angle_alpha	94.930900
_cell_angle_beta	103.270595
_cell_angle_gamma	95.739713
loop_
_atom_site_label
_atom_site_type_symbol
_atom_site_fract_x
_atom_site_fract_y
_atom_site_fract_z
O1	O	1.199063	-0.146196	-0.224489
O2	O	1.699063	0.353804	0.275511
O3	O	0.928812	-0.146249	-0.249156
O4	O	1.428812	0.353751	0.250844
O5	O	1.087747	-0.146216	-0.004288
O6	O	1.587747	0.353784	0.495712
O7	O	1.040128	-0.146229	-0.469357
O8	O	1.540128	0.353771	0.030643
O9	O	1.107314	0.146646	0.025920
O10	O	1.607314	0.646646	0.525920
O11	O	0.948379	0.146613	-0.218948
O12	O	1.448379	0.646613	0.281052
O13	O	1.218630	0.146666	-0.194281
O14	O	1.718630	0.646666	0.305719
Zn15	Zn	1.086611	0.193138	-0.201819
Zn16	Zn	1.586611	0.693138	0.298181
Zn17	Zn	1.060831	-0.192720	-0.241618
Zn18	Zn	1.560831	0.307280	0.258382
O19	O	1.059695	0.146633	-0.439149
O20	O	1.559695	0.646633	0.060851
C21	C	0.904318	0.000175	-0.232903
C22	C	1.404318	0.500175	0.267097
C23	C	0.802183	0.000155	-0.229461
C24	C	1.302183	0.500155	0.270539
N25	N	1.104212	0.456476	-0.174655
N26	N	1.604212	0.956476	0.325345
N27	N	1.043238	-0.456058	-0.268769
N28	N	1.543238	0.043942	0.231231
C29	C	0.428202	0.000235	-0.216774
C30	C	0.928202	0.500235	0.283226
C31	C	0.532256	0.000212	-0.220297
C32	C	1.032256	0.500212	0.279703
C33	C	0.615189	0.000193	-0.223117
C34	C	1.115189	0.500193	0.276883
C35	C	0.719249	0.000174	-0.226641
C36	C	1.219249	0.500174	0.273359
C37	C	1.243124	0.000238	-0.210534
C38	C	1.743124	0.500238	0.289466
C39	C	1.345258	0.000247	-0.213977
C40	C	1.845258	0.500247	0.286023
C41	C	1.101139	0.000213	0.070335
C42	C	1.601139	0.500213	0.570335
C43	C	1.111880	0.000205	0.247684
C44	C	1.611880	0.500205	0.747684
C45	C	1.046303	0.000201	-0.513773
C46	C	1.546303	0.500201	-0.013773
C47	C	1.035561	0.000197	-0.691123
C48	C	1.535561	0.500197	-0.191123
H49	H	0.980995	0.468732	-0.364830
H50	H	1.480995	0.968732	0.135170
Br51	Br	1.207974	0.581833	-0.014556
Br52	Br	1.707974	1.081833	0.485444
H53	H	0.962003	0.000188	0.225590
H54	H	1.462003	0.500188	0.725590
Br55	Br	1.234495	0.000261	0.386508
Br56	Br	1.734495	0.500261	0.886508
