data_functionalizedCrystal
_audit_creation_method	'MofGen! by Chris Wilmer'
_symmetry_space_group_name_H-M	'P1'
_symmetry_Int_Tables_number	1
_symmetry_cell_setting	triclinic
loop_
_symmetry_equiv_pos_as_xyz
  x,y,z
_cell_length_a	12.837943
_cell_length_b	23.532407
_cell_length_c	11.295483
_cell_angle_alpha	94.064566
_cell_angle_beta	85.461227
_cell_angle_gamma	88.838809
loop_
_atom_site_label
_atom_site_type_symbol
_atom_site_fract_x
_atom_site_fract_y
_atom_site_fract_z
O1	O	1.380948	0.144513	-0.099028
O2	O	1.079219	0.137204	-0.099034
O3	O	1.239181	0.058450	-0.099009
O4	O	1.220986	0.223267	-0.099053
O5	O	1.225131	0.065355	0.099039
O6	O	1.065169	0.144109	0.099014
O7	O	1.366899	0.151419	0.099020
Cu8	Cu	1.214751	0.148394	0.117101
Cu9	Cu	1.231366	0.140228	-0.117115
O10	O	1.206937	0.230173	0.098995
C11	C	1.033599	0.138187	-0.000010
C12	C	0.918597	0.130823	-0.000012
C13	C	0.676728	0.219356	-0.000018
C14	C	0.568673	0.212439	-0.000018
C15	C	0.594431	0.110073	-0.000004
C16	C	0.702485	0.116990	-0.000004
C17	C	0.743630	0.171633	-0.000013
C18	C	0.851687	0.178549	-0.000021
C19	C	0.877442	0.076184	0.000002
C20	C	0.769387	0.069267	0.000002
C21	C	1.231692	0.040660	0.000018
C22	C	1.230298	-0.022637	0.000027
C23	C	1.316228	-0.416812	-0.000037
C24	C	1.314934	-0.476287	-0.000046
O25	O	1.394590	-0.508463	-0.000088
N26	N	1.219836	-0.504370	-0.000047
C27	C	1.126025	-0.472975	-0.000051
O28	O	1.045018	-0.502323	-0.000053
C29	C	1.127321	-0.413501	-0.000050
C30	C	1.222424	-0.385421	-0.000037
C31	C	1.411324	-0.388732	-0.000025
C32	C	1.412617	-0.329261	-0.000014
C33	C	1.318814	-0.297871	-0.000014
C34	C	1.223717	-0.325951	-0.000026
C35	C	1.033512	-0.382108	-0.000063
C36	C	1.034816	-0.322631	-0.000063
C37	C	1.129920	-0.294551	-0.000050
C38	C	1.131207	-0.235089	-0.000015
N39	N	1.226306	-0.207006	-0.000014
C40	C	1.320109	-0.238397	-0.000013
C41	C	1.123313	-0.597873	-0.000054
C42	C	1.122016	-0.657345	-0.000046
C43	C	1.310925	-0.660653	-0.000043
C44	C	1.312220	-0.601180	-0.000043
C45	C	1.218411	-0.569790	-0.000053
C46	C	1.322817	-0.113504	0.000011
C47	C	1.324101	-0.054028	0.000027
C48	C	1.135193	-0.050725	0.000019
C49	C	1.133908	-0.110196	0.000009
C50	C	1.227729	-0.141584	0.000001
O51	O	1.051593	-0.202877	0.000023
O52	O	1.401104	-0.209042	-0.000026
C53	C	1.412519	0.150435	-0.000006
C54	C	1.527521	0.157799	-0.000013
C55	C	1.214425	0.247962	-0.000035
C56	C	1.215820	0.311259	-0.000052
N57	N	1.203072	0.154138	0.281835
N58	N	1.243053	0.134480	-0.281849
C59	C	1.327124	0.093101	0.531144
C60	C	1.318306	0.097446	0.655806
C61	C	1.176612	0.167170	0.655824
C62	C	1.185431	0.162825	0.531162
C63	C	1.260690	0.125790	0.468826
C64	C	1.269513	0.121448	0.344162
C65	C	1.127815	0.191169	0.344182
C66	C	1.118997	0.195514	0.468844
H67	H	0.560905	0.065588	0.000102
H68	H	0.735871	0.024778	0.000023
C69	C	0.936587	0.220490	0.507272
C70	C	1.036273	0.236219	0.537376
H71	H	0.885518	0.245618	0.549586
H72	H	0.932337	0.222586	0.424120
H73	H	0.924295	0.182599	0.527714
H74	H	1.048569	0.274108	0.516926
H75	H	1.040526	0.234128	0.620546
H76	H	1.387305	-0.686223	-0.000047
C77	C	1.430497	-0.539765	-0.101850
C78	C	1.416758	-0.570315	-0.000040
H79	H	1.495034	-0.520711	-0.101845
H80	H	1.430964	-0.565303	-0.170899
H81	H	1.374814	-0.512557	-0.101840
H82	H	1.472436	-0.597527	-0.000054
H83	H	1.416300	-0.544775	0.069026
C84	C	1.068685	0.285051	0.305807
C85	C	1.054786	0.227106	0.275683
H86	H	1.023607	0.307237	0.263513
H87	H	1.052661	0.292931	0.388964
H88	H	1.139215	0.294283	0.285354
H89	H	0.984257	0.217873	0.296144
H90	H	1.070803	0.219223	0.192508
H91	H	0.931927	0.037324	-0.000001
H92	H	0.885184	0.223042	-0.000026
H93	H	0.710228	0.263848	-0.000027
H94	H	0.956070	-0.404961	-0.000080
H95	H	1.044571	-0.680202	-0.000036
C96	C	1.423748	-0.178759	0.101813
C97	C	1.425943	-0.148002	0.000010
H98	H	1.487410	-0.200058	0.101811
H99	H	1.415421	-0.153087	0.170866
H100	H	1.366930	-0.203998	0.101790
H101	H	1.482757	-0.122759	0.000037
H102	H	1.434281	-0.173676	-0.069061
H103	H	1.330795	0.091294	0.293409
H104	H	1.115331	0.197319	0.706594
H105	H	1.490060	-0.306404	-0.000008
H106	H	1.401549	-0.031168	0.000041
H107	H	1.487714	-0.414284	-0.000029
C108	C	0.948334	-0.053415	-0.000003
C109	C	1.032088	-0.016213	0.000010
H110	H	0.884682	-0.032107	-0.000009
H111	H	0.956660	-0.079083	-0.069062
H112	H	0.946850	-0.074278	0.069067
H113	H	1.033576	0.004646	-0.069065
H114	H	1.023759	0.009465	0.069076
C115	C	0.936451	-0.600586	-0.000037
C116	C	1.020186	-0.563372	-0.000042
H117	H	0.872787	-0.579287	-0.000023
H118	H	0.944776	-0.626252	-0.069099
H119	H	0.934994	-0.621450	0.069029
H120	H	1.021647	-0.542510	-0.069113
H121	H	1.011859	-0.537695	0.069027
H122	H	0.514204	0.251300	-0.000020
H123	H	0.958424	-0.297076	-0.000073
H124	H	1.388410	0.062950	0.480389
C125	C	1.377440	0.003568	0.694187
C126	C	1.391333	0.061514	0.724307
H127	H	1.422530	-0.018615	0.736473
H128	H	1.306923	-0.005667	0.714642
H129	H	1.393464	-0.004312	0.611019
H130	H	1.375301	0.069395	0.807474
H131	H	1.461866	0.070753	0.703860
C132	C	1.030089	-0.178700	-0.101814
C133	C	1.029373	-0.141068	0.000005
H134	H	0.965556	-0.197760	-0.101818
H135	H	1.039412	-0.157965	-0.170856
H136	H	1.085776	-0.205905	-0.101808
H137	H	0.973691	-0.113861	-0.000005
H138	H	1.020038	-0.161805	0.069065
