data_functionalizedCrystal
_audit_creation_method	'MofGen! by Chris Wilmer'
_symmetry_space_group_name_H-M	'P1'
_symmetry_Int_Tables_number	1
_symmetry_cell_setting	triclinic
loop_
_symmetry_equiv_pos_as_xyz
  x,y,z
_cell_length_a	25.639239
_cell_length_b	25.639242
_cell_length_c	18.215399
_cell_angle_alpha	89.974553
_cell_angle_beta	89.967555
_cell_angle_gamma	90.034213
loop_
_atom_site_label
_atom_site_type_symbol
_atom_site_fract_x
_atom_site_fract_y
_atom_site_fract_z
Zn1	Zn	-0.208206	0.799242	-0.416274
Zn2	Zn	0.125127	1.132575	-0.082941
Zn3	Zn	0.458461	1.465909	0.250392
Zn4	Zn	-0.295646	0.799160	-0.293204
Zn5	Zn	0.037688	1.132494	0.040130
Zn6	Zn	0.371021	1.465827	0.373463
Zn7	Zn	-0.208219	0.711813	-0.293203
Zn8	Zn	0.125114	1.045147	0.040130
Zn9	Zn	0.458447	1.378480	0.373463
Zn10	Zn	-0.295605	0.711763	-0.416210
Zn11	Zn	0.037728	1.045097	-0.082877
Zn12	Zn	0.371061	1.378430	0.250457
O13	O	-0.251919	0.755495	-0.354723
O14	O	0.081414	1.088828	-0.021390
O15	O	0.414748	1.422161	0.311944
O16	O	-0.219816	0.872396	-0.399976
O17	O	0.113517	1.205730	-0.066643
O18	O	0.446850	1.539063	0.266691
O19	O	-0.284071	0.787560	-0.190219
O20	O	0.049262	1.120894	0.143114
O21	O	0.382596	1.454227	0.476447
O22	O	-0.135052	0.723466	-0.309556
O23	O	0.198281	1.056799	0.023778
O24	O	0.531614	1.390133	0.357111
O25	O	-0.284058	0.872336	-0.309556
O26	O	0.049275	1.205670	0.023777
O27	O	0.382609	1.539003	0.357110
O28	O	-0.135043	0.787699	-0.399976
O29	O	0.198291	1.121033	-0.066642
O30	O	0.531624	1.454366	0.266691
O31	O	-0.219839	0.723387	-0.190219
O32	O	0.113494	1.056720	0.143114
O33	O	0.446828	1.390054	0.476448
O34	O	-0.219800	0.638642	-0.309493
O35	O	0.113533	0.971975	0.023840
O36	O	0.446867	1.305308	0.357173
O37	O	-0.283989	0.723381	-0.519203
O38	O	0.049344	1.056714	-0.185870
O39	O	0.382677	1.390048	0.147464
O40	O	-0.284002	0.638605	-0.399866
O41	O	0.049331	0.971938	-0.066533
O42	O	0.382664	1.305272	0.266801
O43	O	-0.219777	0.787651	-0.519250
O44	O	0.113556	1.120984	-0.185917
O45	O	0.446889	1.454318	0.147416
O46	O	-0.368806	0.787512	-0.309494
O47	O	-0.035472	1.120845	0.023839
O48	O	0.297861	1.454179	0.357173
O49	O	-0.368776	0.723302	-0.399866
O50	O	-0.035443	1.056635	-0.066533
O51	O	0.297891	1.389969	0.266800
C52	C	-0.251899	0.619652	-0.354673
C53	C	0.081435	0.952986	-0.021340
C54	C	0.414768	1.286319	0.311994
C55	C	-0.251902	0.561538	-0.354669
C56	C	0.081431	0.894872	-0.021336
C57	C	0.414764	1.228205	0.311998
C58	C	-0.285405	0.201165	-0.401735
C59	C	0.047928	0.534498	-0.068402
C60	C	0.381262	0.867832	0.264931
C61	C	-0.285408	0.146561	-0.401747
C62	C	0.047925	0.479894	-0.068413
C63	C	0.381258	0.813227	0.264920
O64	O	-0.313868	0.118315	-0.441722
O65	O	0.019465	0.451649	-0.108389
O66	O	0.352799	0.784982	0.224945
N67	N	-0.251934	0.119256	-0.354771
N68	N	0.081400	0.452589	-0.021438
N69	N	0.414733	0.785922	0.311896
C70	C	-0.218450	0.146558	-0.307785
C71	C	0.114884	0.479891	0.025548
C72	C	0.448217	0.813225	0.358881
O73	O	-0.189977	0.118319	-0.267830
O74	O	0.143357	0.451652	0.065503
O75	O	0.476690	0.784986	0.398836
C76	C	-0.218444	0.201161	-0.307778
C77	C	0.114889	0.534495	0.025555
C78	C	0.448222	0.867828	0.358889
C79	C	-0.251925	0.228463	-0.354752
C80	C	0.081408	0.561797	-0.021419
C81	C	0.414742	0.895130	0.311915
C82	C	-0.318883	0.228467	-0.448706
C83	C	0.014451	0.561800	-0.115372
C84	C	0.347784	0.895134	0.217961
C85	C	-0.318880	0.283068	-0.448693
C86	C	0.014453	0.616401	-0.115360
C87	C	0.347787	0.949734	0.217974
C88	C	-0.285400	0.310366	-0.401710
C89	C	0.047933	0.643699	-0.068376
C90	C	0.381267	0.977033	0.264957
C91	C	-0.251922	0.283064	-0.354739
C92	C	0.081411	0.616397	-0.021406
C93	C	0.414744	0.949731	0.311928
C94	C	-0.184958	0.228463	-0.260797
C95	C	0.148375	0.561796	0.072536
C96	C	0.481709	0.895129	0.405870
C97	C	-0.184955	0.283070	-0.260794
C98	C	0.148378	0.616403	0.072539
C99	C	0.481711	0.949736	0.405873
C100	C	-0.218436	0.310372	-0.307768
C101	C	0.114897	0.643705	0.025565
C102	C	0.448231	0.977038	0.358899
C103	C	-0.218439	0.364963	-0.307743
C104	C	0.114894	0.698296	0.025590
C105	C	0.448227	1.031630	0.358924
N106	N	-0.251914	0.392268	-0.354719
N107	N	0.081419	0.725601	-0.021386
N108	N	0.414752	1.058934	0.311948
C109	C	-0.285394	0.364969	-0.401702
C110	C	0.047939	0.698303	-0.068369
C111	C	0.381272	1.031636	0.264964
C112	C	-0.218463	0.031887	-0.307805
C113	C	0.114870	0.365221	0.025528
C114	C	0.448204	0.698554	0.358861
C115	C	-0.218471	-0.022715	-0.307808
C116	C	0.114863	0.310618	0.025525
C117	C	0.448196	0.643952	0.358858
C118	C	-0.285429	-0.022709	-0.401771
C119	C	0.047905	0.310625	-0.068438
C120	C	0.381238	0.643958	0.264896
C121	C	-0.285423	0.031895	-0.401764
C122	C	0.047910	0.365228	-0.068430
C123	C	0.381243	0.698561	0.264903
C124	C	-0.251938	0.059192	-0.354781
C125	C	0.081396	0.392526	-0.021448
C126	C	0.414729	0.725859	0.311885
C127	C	-0.285387	0.479634	-0.401672
C128	C	0.047947	0.812968	-0.068338
C129	C	0.381280	1.146301	0.264995
C130	C	-0.285383	0.534240	-0.401652
C131	C	0.047951	0.867573	-0.068319
C132	C	0.381284	1.200906	0.265014
C133	C	-0.218423	0.534229	-0.307693
C134	C	0.114911	0.867562	0.025640
C135	C	0.448244	1.200895	0.358974
C136	C	-0.218429	0.479628	-0.307709
C137	C	0.114905	0.812961	0.025624
C138	C	0.448238	1.146295	0.358958
C139	C	-0.251912	0.452332	-0.354704
C140	C	0.081421	0.785666	-0.021371
C141	C	0.414754	1.118999	0.311962
O142	O	-0.189993	0.393243	-0.267791
O143	O	0.143341	0.726576	0.065543
O144	O	0.476674	1.059910	0.398876
O145	O	-0.313858	0.393215	-0.441658
O146	O	0.019476	0.726548	-0.108324
O147	O	0.352809	1.059882	0.225009
C148	C	-0.387762	0.755407	-0.354689
C149	C	-0.054428	1.088740	-0.021356
C150	C	0.278905	1.422074	0.311978
C151	C	-0.445876	0.755417	-0.354699
C152	C	-0.112542	1.088750	-0.021366
C153	C	0.220791	1.422084	0.311967
C154	C	-0.806242	0.789016	-0.307746
C155	C	-0.472908	1.122350	0.025587
C156	C	-0.139575	1.455683	0.358920
C157	C	-0.860846	0.789037	-0.307756
C158	C	-0.527513	1.122370	0.025577
C159	C	-0.194179	1.455703	0.358911
O160	O	-0.889085	0.817513	-0.267798
O161	O	-0.555752	1.150846	0.065535
O162	O	-0.222418	1.484179	0.398869
N163	N	-0.888158	0.755587	-0.354772
N164	N	-0.554825	1.088920	-0.021438
N165	N	-0.221492	1.422253	0.311895
C166	C	-0.860863	0.722118	-0.401786
C167	C	-0.527530	1.055451	-0.068452
C168	C	-0.194197	1.388785	0.264881
O169	O	-0.889108	0.693669	-0.441778
O170	O	-0.555775	1.027002	-0.108444
O171	O	-0.222442	1.360335	0.224889
C172	C	-0.806260	0.722101	-0.401779
C173	C	-0.472927	1.055434	-0.068446
C174	C	-0.139593	1.388768	0.264888
C175	C	-0.778951	0.755549	-0.354755
C176	C	-0.445617	1.088883	-0.021422
C177	C	-0.112284	1.422216	0.311912
C178	C	-0.778932	0.822462	-0.260727
C179	C	-0.445599	1.155796	0.072607
C180	C	-0.112265	1.489129	0.405940
C181	C	-0.724332	0.822441	-0.260716
C182	C	-0.390998	1.155775	0.072617
C183	C	-0.057665	1.489108	0.405951
C184	C	-0.697041	0.788974	-0.307725
C185	C	-0.363707	1.122307	0.025608
C186	C	-0.030374	1.455641	0.358942
C187	C	-0.724350	0.755528	-0.354744
C188	C	-0.391017	1.088861	-0.021411
C189	C	-0.057683	1.422195	0.311922
C190	C	-0.778966	0.688635	-0.448796
C191	C	-0.445633	1.021969	-0.115463
C192	C	-0.112299	1.355302	0.217870
C193	C	-0.724359	0.688621	-0.448786
C194	C	-0.391026	1.021955	-0.115453
C195	C	-0.057692	1.355288	0.217881
C196	C	-0.697050	0.722070	-0.401762
C197	C	-0.363716	1.055403	-0.068429
C198	C	-0.030383	1.388736	0.264905
C199	C	-0.642458	0.722040	-0.401743
C200	C	-0.309125	1.055373	-0.068409
C201	C	0.024208	1.388707	0.264924
N202	N	-0.615146	0.755490	-0.354727
N203	N	-0.281813	1.088823	-0.021394
N204	N	0.051520	1.422156	0.311940
C205	C	-0.642437	0.788957	-0.307718
C206	C	-0.309104	1.122290	0.025615
C207	C	0.024229	1.455624	0.358948
C208	C	-0.975534	0.722158	-0.401797
C209	C	-0.642201	1.055491	-0.068464
C210	C	-0.308867	1.388824	0.264870
C211	C	-1.030136	0.722172	-0.401801
C212	C	-0.696803	1.055505	-0.068467
C213	C	-0.363470	1.388838	0.264866
C214	C	-1.030115	0.789091	-0.307772
C215	C	-0.696782	1.122424	0.025562
C216	C	-0.363448	1.455758	0.358895
C217	C	-0.975512	0.789074	-0.307765
C218	C	-0.642178	1.122407	0.025568
C219	C	-0.308845	1.455740	0.358902
C220	C	-0.948222	0.755607	-0.354782
C221	C	-0.614888	1.088941	-0.021448
C222	C	-0.281555	1.422274	0.311885
C223	C	-0.527772	0.788910	-0.307699
C224	C	-0.194439	1.122243	0.025634
C225	C	0.138894	1.455576	0.358968
C226	C	-0.473167	0.788884	-0.307690
C227	C	-0.139834	1.122218	0.025643
C228	C	0.193500	1.455551	0.358976
C229	C	-0.473193	0.721967	-0.401722
C230	C	-0.139859	1.055300	-0.068388
C231	C	0.193474	1.388634	0.264945
C232	C	-0.527793	0.721991	-0.401728
C233	C	-0.194460	1.055324	-0.068395
C234	C	0.138873	1.388657	0.264939
C235	C	-0.555082	0.755466	-0.354714
C236	C	-0.221748	1.088799	-0.021381
C237	C	0.111585	1.422133	0.311953
O238	O	-0.614185	0.693580	-0.441683
O239	O	-0.280851	1.026913	-0.108349
O240	O	0.052482	1.360247	0.224984
O241	O	-0.614185	0.817407	-0.267740
O242	O	-0.280852	1.150740	0.065593
O243	O	0.052481	1.484073	0.398927
C244	C	-0.115546	0.755597	-0.354773
C245	C	0.217787	1.088931	-0.021439
C246	C	0.551121	1.422264	0.311894
C247	C	-0.057432	0.755641	-0.354794
C248	C	0.275901	1.088974	-0.021461
C249	C	0.609235	1.422308	0.311873
C250	C	-0.251877	0.755520	-0.546676
C251	C	0.081456	1.088853	-0.213343
C252	C	0.414789	1.422186	0.119991
C253	C	-0.251860	0.755530	-0.628475
C254	C	0.081474	1.088863	-0.295141
C255	C	0.414807	1.422197	0.038192
C256	C	-0.251940	0.891868	-0.354773
C257	C	0.081393	1.225201	-0.021440
C258	C	0.414726	1.558534	0.311893
C259	C	-0.251949	0.949982	-0.354795
C260	C	0.081384	1.283315	-0.021462
C261	C	0.414717	1.616649	0.311872
C262	C	-0.218392	0.722143	-0.816670
C263	C	0.114942	1.055476	-0.483336
C264	C	0.448275	1.388810	-0.150003
C265	C	-0.218381	0.722152	-0.893528
C266	C	0.114952	1.055486	-0.560195
C267	C	0.448286	1.388819	-0.226862
C268	C	-0.285265	0.788980	-0.893518
C269	C	0.048068	1.122313	-0.560185
C270	C	0.381401	1.455646	-0.226851
C271	C	-0.285278	0.788967	-0.816661
C272	C	0.048055	1.122301	-0.483327
C273	C	0.381389	1.455634	-0.149994
C274	C	-0.251838	0.755550	-0.778238
C275	C	0.081495	1.088883	-0.444905
C276	C	0.414828	1.422217	-0.111572
C277	C	-0.251815	0.755571	-0.931955
C278	C	0.081518	1.088905	-0.598621
C279	C	0.414852	1.422238	-0.265288
C280	C	-0.251804	0.755581	-1.015288
C281	C	0.081530	1.088915	-0.681955
C282	C	0.414863	1.422248	-0.348622
C283	C	-0.251850	0.755539	-0.694899
C284	C	0.081483	1.088872	-0.361566
C285	C	0.414817	1.422206	-0.028233
C286	C	-0.251923	0.755500	-0.163517
C287	C	0.081410	1.088834	0.169817
C288	C	0.414744	1.422167	0.503150
C289	C	-0.251794	0.755591	-0.081718
C290	C	0.081540	1.088924	0.251615
C291	C	0.414873	1.422258	0.584949
H292	H	-0.346142	0.305292	-0.486945
H293	H	-0.012809	0.638625	-0.153612
H294	H	0.320524	0.971959	0.179721
H295	H	-0.312649	0.556467	-0.439905
H296	H	0.020685	0.889800	-0.106571
H297	H	0.354018	1.223133	0.226762
H298	H	-0.191166	0.556465	-0.269438
H299	H	0.142168	0.889798	0.063895
H300	H	0.475501	1.223132	0.397229
H301	H	-0.312490	0.816187	-0.924811
H302	H	0.020843	1.149520	-0.591477
H303	H	0.354176	1.482854	-0.258144
H304	H	-0.953280	0.816311	-0.269475
H305	H	-0.619946	1.149644	0.063859
H306	H	-0.286613	1.482977	0.397192
H307	H	-0.157696	0.206243	-0.222544
H308	H	0.175638	0.539576	0.110789
H309	H	0.508971	0.872909	0.444123
Cl310	Cl	-0.327513	-0.057037	-0.460844
Cl311	Cl	0.005820	0.276297	-0.127510
Cl312	Cl	0.339153	0.609630	0.205823
H313	H	-0.191213	-0.044940	-0.269550
H314	H	0.142121	0.288394	0.063783
H315	H	0.475454	0.621727	0.397116
Cl316	Cl	-1.064461	0.680114	-0.460910
Cl317	Cl	-0.731128	1.013448	-0.127577
Cl318	Cl	-0.397795	1.346781	0.205756
H319	H	-0.191195	0.054110	-0.269541
H320	H	0.142138	0.387443	0.063792
H321	H	0.475471	0.720776	0.397125
H322	H	-0.191146	0.694949	-0.924816
H323	H	0.142188	1.028282	-0.591482
H324	H	0.475521	1.361615	-0.258149
H325	H	-0.191163	0.694932	-0.785389
H326	H	0.142171	1.028266	-0.452055
H327	H	0.475504	1.361599	-0.118722
Cl328	Cl	-0.327331	0.830966	-0.768343
Cl329	Cl	0.006002	1.164299	-0.435010
Cl330	Cl	0.339336	1.497633	-0.101677
Cl331	Cl	-0.327482	0.445328	-0.460751
Cl332	Cl	0.005852	0.778662	-0.127418
Cl333	Cl	0.339185	1.111995	0.205916
Cl334	Cl	-0.360978	0.194159	-0.507778
Cl335	Cl	-0.027645	0.527492	-0.174445
Cl336	Cl	0.305688	0.860826	0.158888
H337	H	-0.450933	0.816122	-0.269395
H338	H	-0.117600	1.149455	0.063938
H339	H	0.215734	1.482788	0.397271
Cl340	Cl	-0.690008	0.864501	-0.201608
Cl341	Cl	-0.356675	1.197834	0.131725
Cl342	Cl	-0.023341	1.531168	0.465058
Cl343	Cl	-0.142856	0.317383	-0.201727
Cl344	Cl	0.190477	0.650716	0.131606
Cl345	Cl	0.523811	0.984050	0.464939
Cl346	Cl	-0.176346	0.445304	-0.248644
Cl347	Cl	0.156987	0.778638	0.084689
Cl348	Cl	0.490320	1.111971	0.418023
Cl349	Cl	-0.327514	0.066212	-0.460820
Cl350	Cl	0.005820	0.399545	-0.127487
Cl351	Cl	0.339153	0.732878	0.205846
Cl352	Cl	-0.562126	0.679930	-0.460829
Cl353	Cl	-0.228793	1.013263	-0.127496
Cl354	Cl	0.104541	1.346597	0.205837
H355	H	-0.549984	0.816170	-0.269418
H356	H	-0.216651	1.149503	0.063916
H357	H	0.116683	1.482837	0.397249
H358	H	-0.801147	0.849718	-0.222446
H359	H	-0.467813	1.183051	0.110887
H360	H	-0.134480	1.516385	0.444220
H361	H	-0.953317	0.694901	-0.440081
H362	H	-0.619984	1.028234	-0.106748
H363	H	-0.286650	1.361568	0.226585
Cl364	Cl	-1.064434	0.831164	-0.248673
Cl365	Cl	-0.731101	1.164497	0.084660
Cl366	Cl	-0.397767	1.497830	0.417994
Cl367	Cl	-0.813285	0.646589	-0.507925
Cl368	Cl	-0.479951	0.979923	-0.174591
Cl369	Cl	-0.146618	1.313256	0.158742
Cl370	Cl	-0.690055	0.646547	-0.507897
Cl371	Cl	-0.356722	0.979881	-0.174564
Cl372	Cl	-0.023388	1.313214	0.158769
H373	H	-0.450964	0.694717	-0.439994
H374	H	-0.117631	1.028050	-0.106660
H375	H	0.215703	1.361384	0.226673
