data_functionalizedCrystal
_audit_creation_method	'MofGen! by Chris Wilmer'
_symmetry_space_group_name_H-M	'P1'
_symmetry_Int_Tables_number	1
_symmetry_cell_setting	triclinic
loop_
_symmetry_equiv_pos_as_xyz
  x,y,z
_cell_length_a	14.853568
_cell_length_b	12.503572
_cell_length_c	14.853567
_cell_angle_alpha	86.467985
_cell_angle_beta	96.364941
_cell_angle_gamma	86.479539
loop_
_atom_site_label
_atom_site_type_symbol
_atom_site_fract_x
_atom_site_fract_y
_atom_site_fract_z
O1	O	-1.201552	0.089241	0.112503
O2	O	-0.939094	0.089258	0.126522
O3	O	-1.077334	0.089253	-0.011717
O4	O	-1.063312	0.089247	0.250742
O5	O	-1.066937	-0.089389	-0.001304
O6	O	-0.928697	-0.089384	0.136936
O7	O	-1.191156	-0.089400	0.122916
Cu8	Cu	-1.058977	-0.105703	0.130877
Cu9	Cu	-1.071272	0.105561	0.118562
O10	O	-1.052915	-0.089395	0.261156
C11	C	-0.900307	-0.000061	0.131094
C12	C	-0.800224	-0.000054	0.129189
C13	C	-0.387688	-0.000077	0.039024
C14	C	-0.366407	-0.000080	0.203257
C15	C	-0.460441	-0.000076	0.205047
C16	C	-0.518103	-0.000072	0.123824
C17	C	-0.481732	-0.000071	0.040811
C18	C	-0.496821	-0.000066	0.288058
C19	C	-0.590860	-0.000061	0.289851
C20	C	-0.648524	-0.000064	0.208628
C21	C	-0.612146	-0.000065	0.125612
C22	C	-0.669809	-0.000060	0.044389
C23	C	-0.633433	-0.000068	-0.038628
C24	C	-0.539395	-0.000074	-0.040412
C25	C	-0.742561	-0.000059	0.210412
C26	C	-0.763852	-0.000053	0.046176
N27	N	-1.050336	-0.254295	0.139538
C28	C	-1.037625	-0.473410	0.152287
C29	C	-1.092629	-0.526739	0.097147
C30	C	-1.085556	-0.648662	0.104241
C31	C	-1.044696	-0.351476	0.145195
C32	C	-0.229943	-0.000080	0.118344
C33	C	-0.330026	-0.000082	0.120247
C34	C	-1.071500	-0.000065	-0.040100
C35	C	-1.069597	-0.000056	-0.140184
N36	N	-1.079920	0.254153	0.109893
C37	C	-0.979430	-0.000071	-0.552717
C38	C	-1.143663	-0.000081	-0.573997
C39	C	-1.145453	-0.000074	-0.479964
C40	C	-1.064231	-0.000068	-0.422302
C41	C	-0.981218	-0.000068	-0.458674
C42	C	-1.228464	-0.000086	-0.443584
C43	C	-1.230257	-0.000081	-0.349545
C44	C	-1.149035	-0.000066	-0.291882
C45	C	-1.066019	-0.000065	-0.328260
C46	C	-0.984797	-0.000058	-0.270598
C47	C	-0.901780	-0.000049	-0.306975
C48	C	-0.899996	-0.000053	-0.401012
C49	C	-1.150819	-0.000062	-0.197845
C50	C	-0.986584	-0.000055	-0.176556
C51	C	-1.058749	-0.000075	0.289538
C52	C	-1.060653	-0.000077	0.389622
H53	H	-0.509767	-0.000105	-0.107998
C54	C	-0.433394	-0.000076	0.377394
H55	H	-0.372179	-0.000096	0.364439
H56	H	-0.448044	0.062220	0.407799
H57	H	-0.440816	-0.062380	0.415056
C58	C	-0.966846	-0.535423	0.223260
H59	H	-0.971327	-0.610420	0.218782
H60	H	-0.907684	-0.517069	0.212424
H61	H	-0.977877	-0.517059	0.282368
C62	C	-1.163427	-0.464731	0.026180
H63	H	-1.197005	-0.514226	-0.007486
H64	H	-1.203558	-0.420858	0.056100
H65	H	-1.133387	-0.420860	-0.013865
H66	H	-1.294590	-0.000101	-0.490537
H67	H	-0.920443	-0.000045	-0.129613
H68	H	-0.835649	-0.000051	-0.260014
C69	C	-0.302983	-0.000087	0.292594
H70	H	-0.241767	-0.000097	0.279641
H71	H	-0.317640	0.062205	0.323001
H72	H	-0.310400	-0.062395	0.330254
H73	H	-0.772174	-0.000054	0.278003
C74	C	-0.808688	-0.000058	-0.441027
H75	H	-0.819257	-0.000076	-0.505289
H76	H	-0.778859	0.062238	-0.424883
H77	H	-0.771621	-0.062362	-0.417606
H78	H	-0.911841	-0.000059	-0.582339
H79	H	-1.209789	-0.000095	-0.620949
C80	C	-1.321570	-0.000076	-0.309539
H81	H	-1.369686	-0.000073	-0.357350
H82	H	-1.322062	-0.062366	-0.269658
H83	H	-1.329303	0.062234	-0.276939
C84	C	-0.347680	-0.000082	-0.052287
H85	H	-0.283417	-0.000081	-0.041724
H86	H	-0.363849	-0.062374	-0.082105
H87	H	-0.371084	0.062227	-0.089363
C88	C	-1.242122	-0.000076	-0.157829
H89	H	-1.231555	-0.000078	-0.093565
H90	H	-1.279201	0.062212	-0.181249
H91	H	-1.271935	-0.062388	-0.173975
C92	C	-0.827274	-0.000042	-0.043171
H93	H	-0.792140	-0.000039	-0.092864
H94	H	-0.860787	-0.062330	-0.042259
H95	H	-0.868014	0.062270	-0.049518
H96	H	-0.620469	-0.000055	0.357448
C97	C	-0.696863	-0.000053	-0.127970
H98	H	-0.661737	-0.000050	-0.177669
H99	H	-0.730379	-0.062340	-0.127054
H100	H	-0.737601	0.062261	-0.134310
