data_functionalizedCrystal
_audit_creation_method	'MofGen! by Chris Wilmer'
_symmetry_space_group_name_H-M	'P1'
_symmetry_Int_Tables_number	1
_symmetry_cell_setting	triclinic
loop_
_symmetry_equiv_pos_as_xyz
  x,y,z
_cell_length_a	16.120530
_cell_length_b	16.120444
_cell_length_c	16.120297
_cell_angle_alpha	84.384883
_cell_angle_beta	89.871860
_cell_angle_gamma	90.168401
loop_
_atom_site_label
_atom_site_type_symbol
_atom_site_fract_x
_atom_site_fract_y
_atom_site_fract_z
Zn1	Zn	1.224979	-0.422266	0.554818
Zn2	Zn	1.474979	-0.172266	0.804818
Zn3	Zn	1.724979	0.077734	1.054818
Zn4	Zn	1.974979	0.327734	1.304818
Zn5	Zn	1.224872	-0.554951	0.422125
Zn6	Zn	1.474872	-0.304951	0.672125
Zn7	Zn	1.724872	-0.054951	0.922125
Zn8	Zn	1.974872	0.195049	1.172125
Zn9	Zn	1.093719	-0.408182	0.408061
Zn10	Zn	1.343719	-0.158182	0.658061
Zn11	Zn	1.593719	0.091818	0.908061
Zn12	Zn	1.843719	0.341818	1.158061
Zn13	Zn	1.078869	-0.554183	0.554057
Zn14	Zn	1.328869	-0.304183	0.804057
Zn15	Zn	1.578869	-0.054183	1.054057
Zn16	Zn	1.828869	0.195817	1.304057
O17	O	1.155610	-0.484895	0.484765
O18	O	1.405610	-0.234895	0.734765
O19	O	1.655610	0.015105	0.984765
O20	O	1.905610	0.265105	1.234765
O21	O	1.341001	-0.446082	0.543421
O22	O	1.591001	-0.196082	0.793421
O23	O	1.841001	0.053918	1.043421
O24	O	2.091001	0.303918	1.293421
O25	O	1.213644	-0.529908	0.303627
O26	O	1.463644	-0.279908	0.553627
O27	O	1.713644	-0.029908	0.803627
O28	O	1.963644	0.220092	1.053627
O29	O	1.117390	-0.293419	0.421961
O30	O	1.367390	-0.043419	0.671961
O31	O	1.617390	0.206581	0.921961
O32	O	1.867390	0.456581	1.171961
O33	O	1.340922	-0.543565	0.445931
O34	O	1.590922	-0.293565	0.695931
O35	O	1.840922	-0.043565	0.945931
O36	O	2.090922	0.206435	1.195931
O37	O	1.213826	-0.303767	0.529783
O38	O	1.463826	-0.053767	0.779783
O39	O	1.713826	0.196233	1.029783
O40	O	1.963826	0.446233	1.279783
O41	O	1.117286	-0.422078	0.293294
O42	O	1.367286	-0.172078	0.543294
O43	O	1.617286	0.077922	0.793294
O44	O	1.867286	0.327922	1.043294
O45	O	0.975713	-0.421333	0.421223
O46	O	1.225713	-0.171333	0.671223
O47	O	1.475713	0.078667	0.921223
O48	O	1.725713	0.328667	1.171223
O49	O	1.092082	-0.542257	0.670791
O50	O	1.342082	-0.292257	0.920791
O51	O	1.592082	-0.042257	1.170791
O52	O	1.842082	0.207743	1.420791
O53	O	0.964804	-0.528600	0.528486
O54	O	1.214804	-0.278600	0.778486
O55	O	1.464804	-0.028600	1.028486
O56	O	1.714804	0.221400	1.278486
O57	O	1.199428	-0.445338	0.671350
O58	O	1.449428	-0.195338	0.921350
O59	O	1.699428	0.054662	1.171350
O60	O	1.949428	0.304662	1.421350
O61	O	1.199245	-0.671480	0.445193
O62	O	1.449245	-0.421480	0.695193
O63	O	1.699245	-0.171480	0.945193
O64	O	1.949245	0.078520	1.195193
O65	O	1.091978	-0.670916	0.542124
O66	O	1.341978	-0.420916	0.792124
O67	O	1.591978	-0.170916	1.042124
O68	O	1.841978	0.079084	1.292124
C69	C	0.940172	-0.473356	0.473247
C70	C	1.190172	-0.223356	0.723247
C71	C	1.440172	0.026644	0.973247
C72	C	1.690172	0.276644	1.223247
C73	C	0.848004	-0.468440	0.468340
C74	C	1.098004	-0.218440	0.718340
C75	C	1.348004	0.031560	0.968340
C76	C	1.598004	0.281560	1.218340
C77	C	1.144010	-0.701441	0.495121
C78	C	1.394010	-0.451441	0.745121
C79	C	1.644010	-0.201441	0.995121
C80	C	1.894010	0.048559	1.245121
C81	C	1.139122	-0.794086	0.499584
C82	C	1.389122	-0.544086	0.749584
C83	C	1.639122	-0.294086	0.999584
C84	C	1.889122	-0.044086	1.249584
C85	C	0.679253	-0.459446	0.459387
C86	C	0.929253	-0.209446	0.709387
C87	C	1.179253	0.040554	0.959387
C88	C	1.429253	0.290554	1.209387
C89	C	0.632801	-0.510409	0.510208
C90	C	0.882801	-0.260409	0.760208
C91	C	1.132801	-0.010409	1.010208
C92	C	1.382801	0.239591	1.260208
C93	C	0.538902	-0.505404	0.505226
C94	C	0.788902	-0.255404	0.755226
C95	C	1.038902	-0.005404	1.005226
C96	C	1.288902	0.244596	1.255226
C97	C	0.773160	-0.464449	0.464367
C98	C	1.023160	-0.214449	0.714367
C99	C	1.273160	0.035551	0.964367
C100	C	1.523160	0.285551	1.214367
C101	C	1.181160	-1.005244	0.461807
C102	C	1.431160	-0.755244	0.711807
C103	C	1.681160	-0.505244	0.961807
C104	C	1.931160	-0.255244	1.211807
C105	C	1.130213	-0.963704	0.507740
C106	C	1.380213	-0.713704	0.757740
C107	C	1.630213	-0.463704	1.007740
C108	C	1.880213	-0.213704	1.257740
C109	C	1.135171	-0.869320	0.503201
C110	C	1.385171	-0.619320	0.753201
C111	C	1.635171	-0.369320	1.003201
C112	C	1.885171	-0.119320	1.253201
C113	C	1.176203	-1.099637	0.466346
C114	C	1.426203	-0.849637	0.716346
C115	C	1.676203	-0.599637	0.966346
C116	C	1.926203	-0.349637	1.216346
C117	C	1.371889	-0.496481	0.496330
C118	C	1.621889	-0.246481	0.746330
C119	C	1.871889	0.003519	0.996330
C120	C	2.121889	0.253519	1.246330
C121	C	1.464055	-0.501417	0.501258
C122	C	1.714055	-0.251417	0.751258
C123	C	1.964055	-0.001417	1.001258
C124	C	2.214055	0.248583	1.251258
C125	C	1.144110	-0.495283	0.702158
C126	C	1.394110	-0.245283	0.952158
C127	C	1.644110	0.004717	1.202158
C128	C	1.894110	0.254717	1.452158
C129	C	1.139210	-0.499710	0.794797
C130	C	1.389210	-0.249710	1.044797
C131	C	1.639210	0.000290	1.294797
C132	C	1.889210	0.250290	1.544797
C133	C	1.167277	-0.267506	0.474388
C134	C	1.417277	-0.017506	0.724388
C135	C	1.667277	0.232494	0.974388
C136	C	1.917277	0.482494	1.224388
C137	C	1.172248	-0.174868	0.469966
C138	C	1.422248	0.075132	0.719966
C139	C	1.672248	0.325132	0.969966
C140	C	1.922248	0.575132	1.219966
C141	C	1.167116	-0.474490	0.268218
C142	C	1.417116	-0.224490	0.518218
C143	C	1.667116	0.025510	0.768218
C144	C	1.917116	0.275510	1.018218
C145	C	1.172189	-0.469838	0.175577
C146	C	1.422189	-0.219838	0.425577
C147	C	1.672189	0.030162	0.675577
C148	C	1.922189	0.280162	0.925577
C149	C	1.130233	-0.507771	0.964409
C150	C	1.380233	-0.257771	1.214409
C151	C	1.630233	-0.007771	1.464409
C152	C	1.880233	0.242229	1.714409
C153	C	1.181163	-0.461778	1.005971
C154	C	1.431163	-0.211778	1.255971
C155	C	1.681163	0.038222	1.505971
C156	C	1.931163	0.288222	1.755971
C157	C	1.176169	-0.466264	1.100348
C158	C	1.426169	-0.216264	1.350348
C159	C	1.676169	0.033736	1.600348
C160	C	1.926169	0.283736	1.850348
C161	C	1.135227	-0.503287	0.870023
C162	C	1.385227	-0.253287	1.120023
C163	C	1.635227	-0.003287	1.370023
C164	C	1.885227	0.246713	1.620023
H165	H	0.648503	-0.412062	0.412140
H166	H	0.898503	-0.162062	0.662140
H167	H	1.148503	0.087938	0.912140
H168	H	1.398503	0.337938	1.162140
O169	O	1.067510	-0.564392	1.011154
O170	O	1.317510	-0.314392	1.261154
O171	O	1.567510	-0.064392	1.511154
O172	O	1.817510	0.185608	1.761154
H173	H	1.073389	-0.559075	1.079020
H174	H	1.323389	-0.309075	1.329020
H175	H	1.573389	-0.059075	1.579020
H176	H	1.823389	0.190925	1.829020
H177	H	1.228498	-0.969926	0.419075
H178	H	1.478498	-0.719926	0.669075
H179	H	1.728498	-0.469926	0.919075
H180	H	1.978498	-0.219926	1.169075
H181	H	1.228516	-0.419032	0.970673
H182	H	1.478516	-0.169032	1.220673
H183	H	1.728516	0.080968	1.470673
H184	H	1.978516	0.330968	1.720673
H185	H	0.663552	-0.557796	0.557459
H186	H	0.913552	-0.307796	0.807459
H187	H	1.163552	-0.057796	1.057459
H188	H	1.413552	0.192204	1.307459
H189	H	1.082871	-0.999026	0.550474
H190	H	1.332871	-0.749026	0.800474
H191	H	1.582871	-0.499026	1.050474
H192	H	1.832871	-0.249026	1.300474
