data_functionalizedCrystal
_audit_creation_method	'MofGen! by Chris Wilmer'
_symmetry_space_group_name_H-M	'P1'
_symmetry_Int_Tables_number	1
_symmetry_cell_setting	triclinic
loop_
_symmetry_equiv_pos_as_xyz
  x,y,z
_cell_length_a	21.395362
_cell_length_b	21.295417
_cell_length_c	21.395356
_cell_angle_alpha	89.969378
_cell_angle_beta	89.957023
_cell_angle_gamma	90.046383
loop_
_atom_site_label
_atom_site_type_symbol
_atom_site_fract_x
_atom_site_fract_y
_atom_site_fract_z
Zn1	Zn	0.957854	-0.250358	-0.354573
Zn2	Zn	1.291188	0.082975	-0.021240
Zn3	Zn	1.624521	0.416308	0.312094
Zn4	Zn	0.957759	-0.355627	-0.249790
Zn5	Zn	1.291092	-0.022293	0.083543
Zn6	Zn	1.624426	0.311040	0.416877
Zn7	Zn	0.853071	-0.250404	-0.249774
Zn8	Zn	1.186404	0.082929	0.083559
Zn9	Zn	1.519738	0.416262	0.416893
Zn10	Zn	0.853039	-0.355623	-0.354495
Zn11	Zn	1.186372	-0.022289	-0.021161
Zn12	Zn	1.519706	0.311044	0.312172
O13	O	0.905431	-0.303003	-0.302158
O14	O	1.238764	0.030330	0.031175
O15	O	1.572098	0.363664	0.364509
O16	O	1.045520	-0.264305	-0.340713
O17	O	1.378853	0.069029	-0.007379
O18	O	1.712186	0.402362	0.325954
O19	O	0.943846	-0.341690	-0.162110
O20	O	1.277179	-0.008356	0.171223
O21	O	1.610512	0.324977	0.504557
O22	O	0.867024	-0.162309	-0.263702
O23	O	1.200358	0.171024	0.069631
O24	O	1.533691	0.504358	0.402965
O25	O	1.045450	-0.341645	-0.263729
O26	O	1.378783	-0.008312	0.069604
O27	O	1.712116	0.325022	0.402938
O28	O	0.944008	-0.162275	-0.340697
O29	O	1.277341	0.171058	-0.007364
O30	O	1.610675	0.504392	0.325970
O31	O	0.866932	-0.264383	-0.162098
O32	O	1.200265	0.068950	0.171235
O33	O	1.533598	0.402283	0.504568
O34	O	0.765389	-0.264380	-0.263626
O35	O	1.098722	0.068954	0.069707
O36	O	1.432056	0.402287	0.403041
O37	O	0.866969	-0.341638	-0.442183
O38	O	1.200303	-0.008305	-0.108850
O39	O	1.533636	0.325028	0.224484
O40	O	0.765365	-0.341683	-0.340564
O41	O	1.098699	-0.008350	-0.007231
O42	O	1.432032	0.324984	0.326103
O43	O	0.943977	-0.264301	-0.442240
O44	O	1.277310	0.069032	-0.108907
O45	O	1.610644	0.402366	0.224426
O46	O	0.943814	-0.443716	-0.263653
O47	O	1.277148	-0.110382	0.069680
O48	O	1.610481	0.222951	0.403013
O49	O	0.866877	-0.443713	-0.340579
O50	O	1.200210	-0.110379	-0.007246
O51	O	1.533544	0.222954	0.326087
C52	C	0.742643	-0.303036	-0.302085
C53	C	1.075977	0.030297	0.031248
C54	C	1.409310	0.363630	0.364581
C55	C	0.673002	-0.303066	-0.302069
C56	C	1.006335	0.030268	0.031264
C57	C	1.339669	0.363601	0.364598
C58	C	0.640293	-0.343371	-0.342070
C59	C	0.973626	-0.010038	-0.008737
C60	C	1.306960	0.323296	0.324596
C61	C	0.574858	-0.343356	-0.342098
C62	C	0.908191	-0.010022	-0.008765
C63	C	1.241524	0.323311	0.324568
C64	C	0.542134	-0.303042	-0.302114
C65	C	0.875467	0.030292	0.031220
C66	C	1.208800	0.363625	0.364553
C67	C	0.574851	-0.262728	-0.262109
C68	C	0.908184	0.070605	0.071224
C69	C	1.241517	0.403938	0.404557
C70	C	0.640285	-0.262741	-0.262087
C71	C	0.973618	0.070593	0.071246
C72	C	1.306951	0.403926	0.404580
C73	C	0.438410	-0.297979	-0.245709
C74	C	0.771743	0.035354	0.087625
C75	C	1.105077	0.368687	0.420958
C76	C	0.372977	-0.297972	-0.245730
C77	C	0.706310	0.035362	0.087603
C78	C	1.039644	0.368695	0.420937
C79	C	0.340313	-0.303000	-0.302183
C80	C	0.673646	0.030333	0.031151
C81	C	1.006980	0.363666	0.364484
C82	C	0.373090	-0.308050	-0.358616
C83	C	0.706423	0.025283	-0.025283
C84	C	1.039757	0.358617	0.308051
C85	C	0.438524	-0.308062	-0.358594
C86	C	0.771858	0.025271	-0.025261
C87	C	1.105191	0.358604	0.308073
C88	C	0.471181	-0.303024	-0.302134
C89	C	0.804515	0.030310	0.031200
C90	C	1.137848	0.363643	0.364533
C91	C	0.236651	-0.343291	-0.342218
C92	C	0.569985	-0.009958	-0.008885
C93	C	0.903318	0.323376	0.324449
C94	C	0.171215	-0.343271	-0.342247
C95	C	0.504548	-0.009938	-0.008914
C96	C	0.837882	0.323395	0.324420
C97	C	0.171209	-0.262647	-0.262252
C98	C	0.504543	0.070686	0.071081
C99	C	0.837876	0.404019	0.404414
C100	C	0.236645	-0.262664	-0.262229
C101	C	0.569978	0.070669	0.071104
C102	C	0.903311	0.404003	0.404438
C103	C	0.269362	-0.302989	-0.302211
C104	C	0.602695	0.030344	0.031122
C105	C	0.936028	0.363678	0.364456
C106	C	0.905349	-0.466555	-0.302123
C107	C	1.238682	-0.133221	0.031210
C108	C	1.572015	0.200112	0.364543
C109	C	0.905371	-0.536523	-0.302129
C110	C	1.238704	-0.203189	0.031204
C111	C	1.572038	0.130144	0.364537
C112	C	0.945468	-0.569370	-0.262115
C113	C	1.278801	-0.236037	0.071218
C114	C	1.612135	0.097297	0.404552
C115	C	0.945497	-0.635113	-0.262129
C116	C	1.278831	-0.301779	0.071204
C117	C	1.612164	0.031554	0.404538
C118	C	0.905418	-0.668005	-0.302151
C119	C	1.238752	-0.334672	0.031182
C120	C	1.572085	-0.001339	0.364516
C121	C	0.865319	-0.635150	-0.342173
C122	C	1.198652	-0.301817	-0.008840
C123	C	1.531985	0.031517	0.324494
C124	C	0.865295	-0.569409	-0.342162
C125	C	1.198628	-0.236076	-0.008829
C126	C	1.531962	0.097258	0.324504
N127	N	0.850609	-0.771286	-0.306903
N128	N	1.183942	-0.437953	0.026430
N129	N	1.517275	-0.104620	0.359764
N130	N	0.850633	-0.833738	-0.306910
N131	N	1.183966	-0.500405	0.026424
N132	N	1.517300	-0.167071	0.359757
C133	C	0.905489	-0.866080	-0.302187
C134	C	1.238822	-0.532747	0.031146
C135	C	1.572155	-0.199413	0.364480
N136	N	0.960320	-0.833611	-0.297445
N137	N	1.293654	-0.500278	0.035888
N138	N	1.626987	-0.166945	0.369222
N139	N	0.960295	-0.771154	-0.297435
N140	N	1.293629	-0.437821	0.035898
N141	N	1.626962	-0.104488	0.369231
C142	C	0.905440	-0.739291	-0.302167
C143	C	1.238773	-0.405957	0.031166
C144	C	1.572107	-0.072624	0.364499
C145	C	0.945621	-0.970213	-0.262186
C146	C	1.278954	-0.636879	0.071148
C147	C	1.612287	-0.303546	0.404481
C148	C	0.945651	-1.035956	-0.262204
C149	C	1.278985	-0.702623	0.071129
C150	C	1.612318	-0.369290	0.404463
C151	C	0.865467	-1.035993	-0.342245
C152	C	1.198801	-0.702659	-0.008912
C153	C	1.532134	-0.369326	0.324422
C154	C	0.865442	-0.970250	-0.342230
C155	C	1.198776	-0.636917	-0.008896
C156	C	1.532109	-0.303584	0.324437
C157	C	0.905518	-0.937364	-0.302197
C158	C	1.238852	-0.604031	0.031137
C159	C	1.572185	-0.270698	0.364470
C160	C	1.068854	-0.302970	-0.302231
C161	C	1.402188	0.030363	0.031102
C162	C	1.735521	0.363697	0.364435
C163	C	1.138496	-0.302956	-0.302262
C164	C	1.471829	0.030377	0.031071
C165	C	1.805162	0.363711	0.364404
C166	C	0.905480	-0.302964	-0.465581
C167	C	1.238814	0.030369	-0.132248
C168	C	1.572147	0.363703	0.201085
C169	C	0.905501	-0.302947	-0.535223
C170	C	1.238835	0.030386	-0.201889
C171	C	1.572168	0.363719	0.131444
C172	C	0.905530	-0.138813	-0.302206
C173	C	1.238864	0.194521	0.031127
C174	C	1.572197	0.527854	0.364460
C175	C	0.905573	-0.068845	-0.302227
C176	C	1.238906	0.264489	0.031106
C177	C	1.572240	0.597822	0.364439
C178	C	0.865463	-0.262689	-0.567920
C179	C	1.198796	0.070644	-0.234586
C180	C	1.532130	0.403977	0.098747
C181	C	0.865461	-0.262678	-0.633355
C182	C	1.198794	0.070656	-0.300022
C183	C	1.532127	0.403989	0.033311
C184	C	0.905508	-0.302917	-0.666091
C185	C	1.238841	0.030416	-0.332758
C186	C	1.572175	0.363749	0.000576
C187	C	0.945549	-0.343183	-0.633386
C188	C	1.278883	-0.009850	-0.300053
C189	C	1.612216	0.323483	0.033281
C190	C	0.945546	-0.343198	-0.567952
C191	C	1.278879	-0.009865	-0.234618
C192	C	1.612212	0.323468	0.098715
C193	C	0.961960	-0.307851	-0.769796
C194	C	1.295293	0.025483	-0.436463
C195	C	1.628627	0.358816	-0.103129
C196	C	0.961965	-0.307831	-0.835229
C197	C	1.295298	0.025502	-0.501896
C198	C	1.628631	0.358835	-0.168562
C199	C	0.905518	-0.302875	-0.867912
C200	C	1.238852	0.030458	-0.534578
C201	C	1.572185	0.363792	-0.201245
C202	C	0.849066	-0.297925	-0.835153
C203	C	1.182399	0.035409	-0.501820
C204	C	1.515733	0.368742	-0.168487
C205	C	0.849063	-0.297940	-0.769719
C206	C	1.182396	0.035394	-0.436386
C207	C	1.515729	0.368727	-0.103053
C208	C	0.905516	-0.302906	-0.737043
C209	C	1.238849	0.030427	-0.403710
C210	C	1.572183	0.363761	-0.070377
C211	C	0.865474	-0.262602	-0.971562
C212	C	1.198808	0.070731	-0.638228
C213	C	1.532141	0.404064	-0.304895
C214	C	0.865471	-0.262595	-1.036998
C215	C	1.198805	0.070738	-0.703665
C216	C	1.532138	0.404072	-0.370332
C217	C	0.945565	-0.343097	-1.037028
C218	C	1.278899	-0.009764	-0.703694
C219	C	1.612232	0.323570	-0.370361
C220	C	0.945563	-0.343108	-0.971592
C221	C	1.278896	-0.009774	-0.638259
C222	C	1.612230	0.323559	-0.304926
C223	C	0.905518	-0.302857	-0.938863
C224	C	1.238852	0.030476	-0.605530
C225	C	1.572185	0.363810	-0.272196
C226	C	0.905418	-0.302997	-0.139370
C227	C	1.238751	0.030337	0.193963
C228	C	1.572085	0.363670	0.527296
C229	C	0.905518	-0.302836	-0.069729
C230	C	1.238852	0.030498	0.263604
C231	C	1.572185	0.363831	0.596937
H232	H	0.666927	-0.376206	-0.374628
H233	H	1.000261	-0.042873	-0.041295
H234	H	1.333594	0.290461	0.292039
H235	H	0.832789	-0.943504	-0.374811
H236	H	1.166122	-0.610171	-0.041477
H237	H	1.499456	-0.276838	0.291856
C238	C	0.676266	-0.218403	-0.218077
C239	C	1.009599	0.114930	0.115256
C240	C	1.342932	0.448264	0.448590
N241	N	0.703368	-0.185009	-0.184926
N242	N	1.036701	0.148325	0.148407
N243	N	1.370034	0.481658	0.481740
C244	C	0.135217	-0.218301	-0.218269
C245	C	0.468550	0.115033	0.115065
C246	C	0.801883	0.448366	0.448398
N247	N	0.108104	-0.184897	-0.185140
N248	N	0.441437	0.148436	0.148194
N249	N	0.774771	0.481770	0.481527
H250	H	0.832853	-0.229916	-0.541276
H251	H	1.166186	0.103417	-0.207942
H252	H	1.499520	0.436750	0.125391
C253	C	0.135235	-0.387618	-0.386249
C254	C	0.468568	-0.054285	-0.052916
C255	C	0.801902	0.279049	0.280418
N256	N	0.108135	-0.421024	-0.419389
N257	N	0.441468	-0.087691	-0.086056
N258	N	0.774801	0.245643	0.247278
H259	H	0.978102	-0.542596	-0.229519
H260	H	1.311435	-0.209263	0.103814
H261	H	1.644768	0.124071	0.437147
H262	H	0.548221	-0.376177	-0.374675
H263	H	0.881554	-0.042843	-0.041341
H264	H	1.214887	0.290490	0.291992
H265	H	0.832643	-0.542664	-0.374747
H266	H	1.165976	-0.209331	-0.041414
H267	H	1.499309	0.124003	0.291919
H268	H	0.465209	-0.312172	-0.404544
H269	H	0.798542	0.021161	-0.071210
H270	H	1.131875	0.354495	0.262123
C271	C	0.337165	-0.313580	-0.420720
C272	C	0.670498	0.019754	-0.087387
C273	C	1.003831	0.353087	0.245947
N274	N	0.310103	-0.317745	-0.467495
N275	N	0.643436	0.015589	-0.134161
N276	N	0.976770	0.348922	0.199172
C277	C	0.272626	-0.218330	-0.218218
C278	C	0.605959	0.115003	0.115116
C279	C	0.939293	0.448337	0.448449
N280	N	0.299727	-0.184935	-0.185067
N281	N	0.633060	0.148398	0.148266
N282	N	0.966393	0.481731	0.481600
H283	H	0.832837	-1.062773	-0.374834
H284	H	1.166170	-0.729440	-0.041501
H285	H	1.499504	-0.396107	0.291832
C286	C	0.821419	-0.218333	-0.935557
C287	C	1.154752	0.115001	-0.602224
C288	C	1.488085	0.448334	-0.268891
N289	N	0.788234	-0.184989	-0.908441
N290	N	1.121568	0.148344	-0.575107
N291	N	1.454901	0.481677	-0.241774
H292	H	0.832858	-0.229892	-0.659982
H293	H	1.166191	0.103441	-0.326649
H294	H	1.499525	0.436775	0.006684
H295	H	0.978168	-0.375889	-0.944970
H296	H	1.311501	-0.042555	-0.611637
H297	H	1.644835	0.290778	-0.278303
C298	C	0.786966	-0.292501	-0.733688
C299	C	1.120299	0.040832	-0.400354
C300	C	1.453632	0.374166	-0.067021
N301	N	0.740193	-0.288407	-0.706549
N302	N	1.073527	0.044926	-0.373215
N303	N	1.406860	0.378259	-0.039882
H304	H	0.978152	-0.375980	-0.541330
H305	H	1.311486	-0.042647	-0.207997
H306	H	1.644819	0.290686	0.125337
H307	H	0.548203	-0.229903	-0.229555
H308	H	0.881536	0.103430	0.103779
H309	H	1.214869	0.436763	0.437112
H310	H	0.832863	-0.229814	-1.063619
H311	H	1.166196	0.103519	-0.730286
H312	H	1.499529	0.436853	-0.396953
C313	C	0.989763	-1.072088	-0.218182
C314	C	1.323096	-0.738755	0.115151
C315	C	1.656430	-0.405422	0.448484
N316	N	1.022988	-1.099303	-0.185023
N317	N	1.356321	-0.765970	0.148311
N318	N	1.689654	-0.432636	0.481644
C319	C	0.474334	-0.292450	-0.183602
C320	C	0.807667	0.040884	0.149732
C321	C	1.141000	0.374217	0.483065
N322	N	0.501390	-0.288286	-0.136824
N323	N	0.834724	0.045047	0.196509
N324	N	1.168057	0.378381	0.529843
C325	C	0.336929	-0.292412	-0.183653
C326	C	0.670262	0.040921	0.149680
C327	C	1.003595	0.374254	0.483014
N328	N	0.309778	-0.288222	-0.136895
N329	N	0.643112	0.045111	0.196438
N330	N	0.976445	0.378445	0.529772
C331	C	0.786969	-0.292478	-0.871099
C332	C	1.120303	0.040855	-0.537766
C333	C	1.453636	0.374188	-0.204433
N334	N	0.740200	-0.288377	-0.898177
N335	N	1.073533	0.044956	-0.564843
N336	N	1.406866	0.378289	-0.231510
H337	H	0.978255	-0.943436	-0.229590
H338	H	1.311589	-0.610102	0.103743
H339	H	1.644922	-0.276769	0.437076
C340	C	0.989646	-0.387333	-1.073033
C341	C	1.322980	-0.054000	-0.739700
C342	C	1.656313	0.279334	-0.406367
N343	N	1.022859	-0.420643	-1.100156
N344	N	1.356192	-0.087310	-0.766822
N345	N	1.689526	0.246023	-0.433489
C346	C	0.989605	-0.671252	-0.218105
C347	C	1.322939	-0.337918	0.115228
C348	C	1.656272	-0.004585	0.448562
N349	N	1.022826	-0.698470	-0.184945
N350	N	1.356160	-0.365137	0.148389
N351	N	1.689493	-0.031803	0.481722
H352	H	0.263291	-0.376123	-0.374777
H353	H	0.596625	-0.042790	-0.041444
H354	H	0.929958	0.290544	0.291890
C355	C	1.024063	-0.313276	-0.871257
C356	C	1.357396	0.020057	-0.537924
C357	C	1.690730	0.353391	-0.204590
N358	N	1.070837	-0.317378	-0.898392
N359	N	1.404171	0.015955	-0.565058
N360	N	1.737504	0.349288	-0.231725
H361	H	0.978156	-0.375947	-0.660043
H362	H	1.311489	-0.042613	-0.326710
H363	H	1.644823	0.290720	0.006623
C364	C	0.821230	-0.671333	-0.386195
C365	C	1.154563	-0.338000	-0.052862
C366	C	1.487896	-0.004667	0.280472
N367	N	0.788021	-0.698587	-0.419354
N368	N	1.121355	-0.365253	-0.086021
N369	N	1.454688	-0.031920	0.247312
H370	H	1.007929	-0.311882	-0.743191
H371	H	1.341263	0.021452	-0.409858
H372	H	1.674596	0.354785	-0.076525
