data_functionalizedCrystal
_audit_creation_method	'MofGen! by Chris Wilmer'
_symmetry_space_group_name_H-M	'P1'
_symmetry_Int_Tables_number	1
_symmetry_cell_setting	triclinic
loop_
_symmetry_equiv_pos_as_xyz
  x,y,z
_cell_length_a	19.188925
_cell_length_b	19.188930
_cell_length_c	9.016244
_cell_angle_alpha	89.992636
_cell_angle_beta	89.991721
_cell_angle_gamma	83.143665
loop_
_atom_site_label
_atom_site_type_symbol
_atom_site_fract_x
_atom_site_fract_y
_atom_site_fract_z
O1	O	0.926150	0.087147	-0.123389
O2	O	0.722839	0.098885	-0.123387
O3	O	0.830362	-0.008640	-0.123359
O4	O	0.818627	0.194671	-0.123417
O5	O	0.830346	-0.008638	0.123322
O6	O	0.722823	0.098887	0.123294
O7	O	0.926135	0.087149	0.123292
Cu8	Cu	0.824477	0.093018	0.145817
Cu9	Cu	0.824496	0.093015	-0.145912
O10	O	0.818612	0.194674	0.123264
C11	C	0.696820	0.098507	-0.000046
C12	C	0.619315	0.097367	-0.000044
C13	C	0.057545	0.152831	-0.000063
C14	C	0.130368	0.153908	-0.000072
C15	C	0.175302	0.090816	-0.000051
C16	C	0.147408	0.026642	-0.000060
C17	C	0.074586	0.025568	-0.000067
N18	N	0.295974	0.045140	0.083934
N19	N	0.365152	0.046166	0.083943
C20	C	0.394712	0.094050	-0.000034
N21	N	0.352480	0.140881	-0.084003
N22	N	0.283296	0.139857	-0.084006
C23	C	0.254267	0.091974	-0.000045
C24	C	0.501561	0.159386	-0.000045
C25	C	0.574385	0.160460	-0.000062
C26	C	0.591425	0.033193	-0.000036
C27	C	0.518601	0.032121	-0.000033
C28	C	0.473673	0.095220	-0.000031
C29	C	0.829974	-0.034650	-0.000014
C30	C	0.828833	-0.112154	-0.000002
C31	C	0.891924	-0.157079	0.000005
C32	C	0.890852	-0.229903	-0.000019
C33	C	0.826686	-0.257799	-0.000019
C34	C	0.763587	-0.212864	-0.000034
C35	C	0.764660	-0.140041	-0.000025
N36	N	0.777633	-0.365802	0.083931
N37	N	0.776618	-0.434980	0.083926
C38	C	0.823448	-0.477207	-0.000049
N39	N	0.871343	-0.447643	-0.084001
N40	N	0.872360	-0.378459	-0.083989
C41	C	0.825515	-0.336761	-0.000030
C42	C	0.885381	-0.601097	-0.000071
C43	C	0.884307	-0.673922	-0.000104
C44	C	0.757040	-0.656880	-0.000104
C45	C	0.758116	-0.584057	-0.000086
C46	C	0.822289	-0.556170	-0.000062
C47	C	0.952154	0.087527	-0.000052
C48	C	1.029658	0.088666	-0.000064
C49	C	0.819000	0.220684	-0.000084
C50	C	0.820140	0.298188	-0.000106
N51	N	0.824469	0.093020	0.351003
N52	N	0.824509	0.093008	-0.351098
C53	C	0.766780	0.150350	0.586021
C54	C	0.766903	0.150561	0.414129
C55	C	0.897274	0.108709	0.413335
C56	C	0.896958	0.109114	0.585280
C57	C	0.810082	0.019807	0.585568
C58	C	0.808401	0.020302	0.413613
H59	H	0.464978	0.210765	-0.000045
F60	F	0.960223	-0.127404	-0.000002
H61	H	0.754846	0.008391	0.372876
H62	H	0.712484	0.141191	0.627418
F63	F	0.742207	0.000025	0.642321
H64	H	0.020968	0.204211	-0.000068
H65	H	0.909706	0.162493	0.625353
H66	H	0.183999	-0.024728	-0.000048
F67	F	0.954729	0.056531	0.639650
F68	F	0.859812	-0.038062	0.357472
H69	H	0.597088	0.212713	-0.000074
F70	F	0.690965	-0.536242	-0.000087
H71	H	0.942230	-0.266488	-0.000019
H72	H	0.711342	-0.235581	-0.000038
F73	F	0.865111	-0.035966	0.638717
H74	H	0.713282	-0.103462	-0.000030
F75	F	0.953679	-0.571415	-0.000038
F76	F	0.160054	0.222204	-0.000068
H77	H	0.712779	0.141246	0.371989
F78	F	0.044907	-0.042728	-0.000072
H79	H	0.935686	-0.710500	-0.000106
H80	H	0.628010	-0.018178	-0.000030
F81	F	0.778630	0.220962	0.642431
H82	H	0.941246	0.068047	0.372441
H83	H	0.910328	0.161479	0.370242
F84	F	0.688749	-0.686564	-0.000112
F85	F	0.488921	-0.036173	-0.000038
H86	H	0.776089	0.204888	0.372967
