data_functionalizedCrystal
_audit_creation_method	'MofGen! by Chris Wilmer'
_symmetry_space_group_name_H-M	'P1'
_symmetry_Int_Tables_number	1
_symmetry_cell_setting	triclinic
loop_
_symmetry_equiv_pos_as_xyz
  x,y,z
_cell_length_a	21.295417
_cell_length_b	16.625547
_cell_length_c	16.625539
_cell_angle_alpha	90.027058
_cell_angle_beta	89.966627
_cell_angle_gamma	89.970308
loop_
_atom_site_label
_atom_site_type_symbol
_atom_site_fract_x
_atom_site_fract_y
_atom_site_fract_z
Zn1	Zn	-0.250622	-1.232635	-0.456021
Zn2	Zn	-0.000622	-0.982635	-0.206021
Zn3	Zn	0.249378	-0.732635	0.043979
Zn4	Zn	0.499378	-0.482635	0.293979
Zn5	Zn	-0.355895	-1.232520	-0.321176
Zn6	Zn	-0.105895	-0.982520	-0.071176
Zn7	Zn	0.144105	-0.732520	0.178824
Zn8	Zn	0.394105	-0.482520	0.428824
Zn9	Zn	-0.250642	-1.097797	-0.321186
Zn10	Zn	-0.000642	-0.847797	-0.071186
Zn11	Zn	0.249358	-0.597797	0.178814
Zn12	Zn	0.499358	-0.347797	0.428814
Zn13	Zn	-0.355855	-1.097749	-0.455950
Zn14	Zn	-0.105855	-0.847749	-0.205950
Zn15	Zn	0.144145	-0.597749	0.044050
Zn16	Zn	0.394145	-0.347749	0.294050
O17	O	-0.303254	-1.165175	-0.388583
O18	O	-0.053254	-0.915175	-0.138583
O19	O	0.196746	-0.665175	0.111417
O20	O	0.446746	-0.415175	0.361417
O21	O	-0.264594	-1.345452	-0.438158
O22	O	-0.014594	-1.095452	-0.188158
O23	O	0.235406	-0.845452	0.061842
O24	O	0.485406	-0.595452	0.311842
O25	O	-0.341958	-1.214620	-0.208345
O26	O	-0.091958	-0.964620	0.041655
O27	O	0.158042	-0.714620	0.291655
O28	O	0.408042	-0.464620	0.541655
O29	O	-0.162550	-1.115753	-0.339105
O30	O	0.087450	-0.865753	-0.089105
O31	O	0.337450	-0.615753	0.160895
O32	O	0.587450	-0.365753	0.410895
O33	O	-0.341938	-1.345367	-0.339088
O34	O	-0.091938	-1.095367	-0.089088
O35	O	0.158062	-0.845367	0.160912
O36	O	0.408062	-0.595367	0.410912
O37	O	-0.162535	-1.214818	-0.438168
O38	O	0.087465	-0.964818	-0.188168
O39	O	0.337465	-0.714818	0.061832
O40	O	0.587465	-0.464818	0.311832
O41	O	-0.264629	-1.115640	-0.208352
O42	O	-0.014629	-0.865640	0.041648
O43	O	0.235371	-0.615640	0.291648
O44	O	0.485371	-0.365640	0.541648
O45	O	-0.264591	-0.984958	-0.339037
O46	O	-0.014591	-0.734958	-0.089037
O47	O	0.235409	-0.484958	0.160963
O48	O	0.485409	-0.234958	0.410963
O49	O	-0.341871	-1.115670	-0.568792
O50	O	-0.091871	-0.865670	-0.318792
O51	O	0.158129	-0.615670	-0.068792
O52	O	0.408129	-0.365670	0.181208
O53	O	-0.341891	-0.984923	-0.438048
O54	O	-0.091891	-0.734923	-0.188048
O55	O	0.158109	-0.484923	0.061952
O56	O	0.408109	-0.234923	0.311952
O57	O	-0.264556	-1.214771	-0.568844
O58	O	-0.014556	-0.964771	-0.318844
O59	O	0.235444	-0.714771	-0.068844
O60	O	0.485444	-0.464771	0.181156
O61	O	-0.443979	-1.214573	-0.339020
O62	O	-0.193979	-0.964573	-0.089020
O63	O	0.056021	-0.714573	0.160980
O64	O	0.306021	-0.464573	0.410980
O65	O	-0.443950	-1.115558	-0.438039
O66	O	-0.193950	-0.865558	-0.188039
O67	O	0.056050	-0.615558	0.061961
O68	O	0.306050	-0.365558	0.311961
C69	C	-0.303239	-0.955684	-0.388537
C70	C	-0.053239	-0.705684	-0.138537
C71	C	0.196761	-0.455684	0.111463
C72	C	0.446761	-0.205684	0.361463
C73	C	-0.303248	-0.866063	-0.388536
C74	C	-0.053248	-0.616063	-0.138536
C75	C	0.196752	-0.366063	0.111464
C76	C	0.446752	-0.116063	0.361464
C77	C	-0.303249	-0.793281	-0.388543
C78	C	-0.053249	-0.543281	-0.138543
C79	C	0.196751	-0.293281	0.111457
C80	C	0.446751	-0.043281	0.361457
C81	C	-0.303251	-0.701972	-0.388560
C82	C	-0.053251	-0.451972	-0.138560
C83	C	0.196749	-0.201972	0.111440
C84	C	0.446749	0.048028	0.361440
C85	C	-0.303256	-0.629196	-0.388578
C86	C	-0.053256	-0.379196	-0.138578
C87	C	0.196744	-0.129196	0.111422
C88	C	0.446744	0.120804	0.361422
C89	C	-0.303260	-0.537882	-0.388593
C90	C	-0.053260	-0.287882	-0.138593
C91	C	0.196740	-0.037882	0.111407
C92	C	0.446740	0.212118	0.361407
C93	C	-0.466805	-1.165070	-0.388538
C94	C	-0.216805	-0.915070	-0.138538
C95	C	0.033195	-0.665070	0.111462
C96	C	0.283195	-0.415070	0.361462
C97	C	-0.536773	-1.165098	-0.388546
C98	C	-0.286773	-0.915098	-0.138546
C99	C	-0.036773	-0.665098	0.111454
C100	C	0.213227	-0.415098	0.361454
C101	C	-0.569634	-1.216701	-0.337040
C102	C	-0.319634	-0.966701	-0.087040
C103	C	-0.069634	-0.716701	0.162960
C104	C	0.180366	-0.466701	0.412960
C105	C	-0.635377	-1.216739	-0.337058
C106	C	-0.385377	-0.966739	-0.087058
C107	C	-0.135377	-0.716739	0.162942
C108	C	0.114623	-0.466739	0.412942
C109	C	-0.668256	-1.165159	-0.388574
C110	C	-0.418256	-0.915159	-0.138574
C111	C	-0.168256	-0.665159	0.111426
C112	C	0.081744	-0.415159	0.361426
C113	C	-0.635387	-1.113552	-0.440090
C114	C	-0.385387	-0.863552	-0.190090
C115	C	-0.135387	-0.613552	0.059910
C116	C	0.114613	-0.363552	0.309910
C117	C	-0.569646	-1.113522	-0.440076
C118	C	-0.319646	-0.863522	-0.190076
C119	C	-0.069646	-0.613522	0.059924
C120	C	0.180354	-0.363522	0.309924
N121	N	-0.771521	-1.094624	-0.394705
N122	N	-0.521521	-0.844624	-0.144705
N123	N	-0.271521	-0.594624	0.105295
N124	N	-0.021521	-0.344624	0.355295
N125	N	-0.833972	-1.094656	-0.394714
N126	N	-0.583972	-0.844656	-0.144714
N127	N	-0.333972	-0.594656	0.105286
N128	N	-0.083972	-0.344656	0.355286
C129	C	-0.866331	-1.165250	-0.388620
C130	C	-0.616331	-0.915250	-0.138620
C131	C	-0.366331	-0.665250	0.111380
C132	C	-0.116331	-0.415250	0.361380
N133	N	-0.833878	-1.235813	-0.382502
N134	N	-0.583878	-0.985813	-0.132502
N135	N	-0.333878	-0.735813	0.117498
N136	N	-0.083878	-0.485813	0.367498
N137	N	-0.771421	-1.235780	-0.382490
N138	N	-0.521421	-0.985780	-0.132490
N139	N	-0.271421	-0.735780	0.117510
N140	N	-0.021421	-0.485780	0.367510
C141	C	-0.739541	-1.165187	-0.388595
C142	C	-0.489541	-0.915187	-0.138595
C143	C	-0.239541	-0.665187	0.111405
C144	C	0.010459	-0.415187	0.361405
C145	C	-0.970477	-1.216898	-0.337131
C146	C	-0.720477	-0.966898	-0.087131
C147	C	-0.470477	-0.716898	0.162869
C148	C	-0.220477	-0.466898	0.412869
C149	C	-1.036221	-1.216937	-0.337155
C150	C	-0.786221	-0.966937	-0.087155
C151	C	-0.536221	-0.716937	0.162845
C152	C	-0.286221	-0.466937	0.412845
C153	C	-1.036230	-1.113743	-0.440183
C154	C	-0.786230	-0.863743	-0.190183
C155	C	-0.536230	-0.613743	0.059817
C156	C	-0.286230	-0.363743	0.309817
C157	C	-0.970487	-1.113712	-0.440163
C158	C	-0.720487	-0.863712	-0.190163
C159	C	-0.470487	-0.613712	0.059837
C160	C	-0.220487	-0.363712	0.309837
C161	C	-0.937615	-1.165288	-0.388633
C162	C	-0.687615	-0.915288	-0.138633
C163	C	-0.437615	-0.665288	0.111367
C164	C	-0.187615	-0.415288	0.361367
C165	C	-0.139063	-1.165303	-0.388646
C166	C	0.110937	-0.915303	-0.138646
C167	C	0.360937	-0.665303	0.111354
C168	C	0.610937	-0.415303	0.361354
C169	C	-0.069095	-1.165358	-0.388672
C170	C	0.180905	-0.915358	-0.138672
C171	C	0.430905	-0.665358	0.111328
C172	C	0.680905	-0.415358	0.361328
C173	C	-0.303207	-1.165228	-0.598892
C174	C	-0.053207	-0.915228	-0.348892
C175	C	0.196793	-0.665228	-0.098892
C176	C	0.446793	-0.415228	0.151108
C177	C	-0.303187	-1.165250	-0.688513
C178	C	-0.053187	-0.915250	-0.438513
C179	C	0.196813	-0.665250	-0.188513
C180	C	0.446813	-0.415250	0.061487
C181	C	-0.303266	-0.375484	-0.388620
C182	C	-0.053266	-0.125484	-0.138620
C183	C	0.196734	0.124516	0.111380
C184	C	0.446734	0.374516	0.361380
C185	C	-0.303265	-0.465105	-0.388611
C186	C	-0.053265	-0.215105	-0.138611
C187	C	0.196735	0.034895	0.111389
C188	C	0.446735	0.284895	0.361389
C189	C	-0.303116	-1.165287	-1.016689
C190	C	-0.053116	-0.915287	-0.766689
C191	C	0.196884	-0.665287	-0.516689
C192	C	0.446884	-0.415287	-0.266689
C193	C	-0.303138	-1.165275	-0.925381
C194	C	-0.053138	-0.915275	-0.675381
C195	C	0.196862	-0.665275	-0.425381
C196	C	0.446862	-0.415275	-0.175381
C197	C	-0.303152	-1.165269	-0.852604
C198	C	-0.053152	-0.915269	-0.602604
C199	C	0.196848	-0.665269	-0.352604
C200	C	0.446848	-0.415269	-0.102604
C201	C	-0.303173	-1.165256	-0.761290
C202	C	-0.053173	-0.915256	-0.511290
C203	C	0.196827	-0.665256	-0.261290
C204	C	0.446827	-0.415256	-0.011290
C205	C	-0.303255	-1.165170	-0.179092
C206	C	-0.053255	-0.915170	0.070908
C207	C	0.196745	-0.665170	0.320908
C208	C	0.446745	-0.415170	0.570908
C209	C	-0.303098	-1.165303	-0.089472
C210	C	-0.053098	-0.915303	0.160528
C211	C	0.196902	-0.665303	0.410528
C212	C	0.446902	-0.415303	0.660528
H213	H	-0.542871	-1.258700	-0.295084
H214	H	-0.292871	-1.008700	-0.045084
H215	H	-0.042871	-0.758700	0.204916
H216	H	0.207129	-0.508700	0.454916
Cl217	Cl	-1.077557	-1.048905	-0.504952
Cl218	Cl	-0.827557	-0.798905	-0.254952
Cl219	Cl	-0.577557	-0.548905	-0.004952
Cl220	Cl	-0.327557	-0.298905	0.245048
H221	H	-0.662137	-1.258764	-0.295116
H222	H	-0.412137	-1.008764	-0.045116
H223	H	-0.162137	-0.758764	0.204884
H224	H	0.087863	-0.508764	0.454884
H225	H	-0.542890	-1.071500	-0.482020
H226	H	-0.292890	-0.821500	-0.232020
H227	H	-0.042890	-0.571500	0.017980
H228	H	0.207110	-0.321500	0.267980
H229	H	-0.943711	-1.258897	-0.295175
H230	H	-0.693711	-1.008897	-0.045175
H231	H	-0.443711	-0.758897	0.204825
H232	H	-0.193711	-0.508897	0.454825
Cl233	Cl	-1.077532	-1.281822	-0.272404
Cl234	Cl	-0.827532	-1.031822	-0.022404
Cl235	Cl	-0.577532	-0.781822	0.227596
Cl236	Cl	-0.327532	-0.531822	0.477596
H237	H	-0.662161	-1.071557	-0.482036
H238	H	-0.412161	-0.821557	-0.232036
H239	H	-0.162161	-0.571557	0.017964
H240	H	0.087839	-0.321557	0.267964
Cl241	Cl	-0.929174	-1.048831	-0.504914
Cl242	Cl	-0.679174	-0.798831	-0.254914
Cl243	Cl	-0.429174	-0.548831	-0.004914
Cl244	Cl	-0.179174	-0.298831	0.245086
