data_functionalizedCrystal
_audit_creation_method	'MofGen! by Chris Wilmer'
_symmetry_space_group_name_H-M	'P1'
_symmetry_Int_Tables_number	1
_symmetry_cell_setting	triclinic
loop_
_symmetry_equiv_pos_as_xyz
  x,y,z
_cell_length_a	15.995350
_cell_length_b	10.723024
_cell_length_c	9.198806
_cell_angle_alpha	90.003648
_cell_angle_beta	89.999047
_cell_angle_gamma	96.019878
loop_
_atom_site_label
_atom_site_type_symbol
_atom_site_fract_x
_atom_site_fract_y
_atom_site_fract_z
O1	O	0.117435	-1.655690	-0.120875
O2	O	0.128675	-1.292394	-0.120879
O3	O	0.001224	-1.483973	-0.120876
O4	O	0.244886	-1.464111	-0.120879
O5	O	0.001224	-1.483957	0.120909
O6	O	0.128675	-1.292379	0.120906
O7	O	0.117434	-1.655674	0.120910
Cu8	Cu	0.123055	-1.474025	0.142985
Cu9	Cu	0.123055	-1.474043	-0.142954
O10	O	0.244885	-1.464096	0.120906
C11	C	0.127857	-1.245897	0.000013
C12	C	0.125410	-1.107374	0.000011
C13	C	-0.029975	-1.483144	0.000014
C14	C	-0.122940	-1.480682	0.000006
C15	C	0.118252	-1.702171	0.000015
C16	C	0.120700	-1.840694	0.000007
C17	C	-0.460738	-1.471842	0.000011
C18	C	-0.414088	-1.335403	-0.000533
C19	C	-0.317383	-1.337865	0.000012
C20	C	-0.293152	-1.476227	0.000007
C21	C	-0.333843	-1.543515	0.138077
C22	C	-0.430499	-1.540087	0.138192
C23	C	-0.430840	-1.542923	-0.136763
C24	C	-0.333895	-1.542891	-0.138587
C25	C	-0.198441	-1.478712	0.000010
C26	C	-0.555450	-1.469360	0.000017
C27	C	0.276085	-1.464924	0.000013
C28	C	0.369049	-1.467386	0.000012
N29	N	0.123054	-1.474022	0.344099
C30	C	0.196725	-1.031482	0.000009
C31	C	0.194197	-0.888310	0.000007
N32	N	0.123049	-1.474056	-0.344068
C33	C	0.069305	-1.554463	0.416297
C34	C	0.069302	-1.554482	0.583709
H35	H	-0.289265	-1.284972	-0.098962
Br36	Br	0.199761	-1.359269	0.552466
H37	H	0.255248	-0.823099	-0.000000
H38	H	-0.432932	-1.280876	-0.099545
H39	H	0.259651	-1.072501	0.000016
Br40	Br	-0.447665	-1.244640	0.163070
Br41	Br	-0.007605	-1.668917	0.312762
H42	H	-0.289825	-1.284604	0.099153
H43	H	0.023288	-1.623356	0.645797
H44	H	-0.449082	-1.491008	0.241404
H45	H	0.059646	-0.905898	-0.000001
H46	H	0.169065	-1.405162	0.406225
Br47	Br	-0.482813	-1.710588	-0.138318
H48	H	-0.462172	-1.640258	0.144454
Br49	Br	-0.309332	-1.712942	0.146638
H50	H	-0.305731	-1.496767	0.240826
Br51	Br	0.020521	-1.039020	0.000028
H52	H	-0.451636	-1.498321	-0.241411
H53	H	-0.306929	-1.493695	-0.240727
H54	H	-0.317954	-1.643790	-0.146927
