data_functionalizedCrystal
_audit_creation_method	'MofGen! by Chris Wilmer'
_symmetry_space_group_name_H-M	'P1'
_symmetry_Int_Tables_number	1
_symmetry_cell_setting	triclinic
loop_
_symmetry_equiv_pos_as_xyz
  x,y,z
_cell_length_a	19.188930
_cell_length_b	16.992695
_cell_length_c	15.455313
_cell_angle_alpha	87.152573
_cell_angle_beta	92.686066
_cell_angle_gamma	86.906501
loop_
_atom_site_label
_atom_site_type_symbol
_atom_site_fract_x
_atom_site_fract_y
_atom_site_fract_z
O1	O	-0.934752	-0.094420	-0.072413
O2	O	-0.732209	-0.107598	-0.072354
O3	O	-0.832668	0.013131	-0.072377
O4	O	-0.834293	-0.215148	-0.072391
O5	O	-0.826922	0.006255	0.071887
O6	O	-0.726463	-0.114473	0.071909
O7	O	-0.929005	-0.101295	0.071850
Cu8	Cu	-0.827209	-0.108512	0.085052
Cu9	Cu	-0.834005	-0.100381	-0.085556
O10	O	-0.828546	-0.222024	0.071873
C11	C	-0.827706	0.038899	-0.000244
C12	C	-0.821473	0.125921	-0.000243
C13	C	-0.703300	-0.110609	-0.000215
C14	C	-0.625719	-0.109329	-0.000192
C15	C	-0.957915	-0.098284	-0.000291
C16	C	-1.035495	-0.099563	-0.000320
C17	C	-0.584941	-0.180168	-0.000210
C18	C	-0.512047	-0.178964	-0.000219
C19	C	-0.479935	-0.106917	-0.000228
C20	C	-0.520722	-0.036070	-0.000205
C21	C	-0.593614	-0.037276	-0.000187
N22	N	-0.370689	-0.049505	-0.049359
N23	N	-0.301445	-0.048364	-0.049378
C24	C	-0.260316	-0.103279	-0.000281
N25	N	-0.291047	-0.159389	0.048825
N26	N	-0.360298	-0.160532	0.048840
C27	C	-0.400897	-0.105601	-0.000247
C28	C	-0.140498	-0.172817	-0.000308
C29	C	-0.067603	-0.171610	-0.000312
C30	C	-0.076279	-0.028714	-0.000307
C31	C	-0.149173	-0.029923	-0.000294
C32	C	-0.181278	-0.101976	-0.000299
C33	C	-0.833508	-0.247791	-0.000261
C34	C	-0.839742	-0.334814	-0.000269
N35	N	-0.822435	-0.114230	0.205049
C36	C	-0.881613	0.176369	-0.000259
C37	C	-0.875753	0.258136	-0.000266
C38	C	-0.809751	0.289453	-0.000250
C39	C	-0.749607	0.238999	-0.000235
C40	C	-0.755468	0.157234	-0.000235
C41	C	-0.785458	0.532968	-0.000254
C42	C	-0.779602	0.614739	-0.000252
C43	C	-0.905748	0.633870	-0.000284
C44	C	-0.911604	0.552102	-0.000279
C45	C	-0.851459	0.501656	-0.000269
N46	N	-0.803759	0.373031	-0.000253
N47	N	-0.857452	0.418079	-0.000271
N48	N	-0.838785	-0.094656	-0.205553
C49	C	-0.865130	-0.062959	0.250433
C50	C	-0.861526	-0.067291	0.341242
C51	C	-0.815230	-0.122898	0.386664
C52	C	-0.772530	-0.174172	0.341274
C53	C	-0.776131	-0.169835	0.250467
C54	C	-0.799686	-0.141593	0.658249
C55	C	-0.796089	-0.145927	0.749063
C56	C	-0.885085	-0.039045	0.749025
C57	C	-0.888685	-0.034717	0.658216
C58	C	-0.845982	-0.085988	0.612833
N59	N	-0.811546	-0.127329	0.479486
N60	N	-0.849663	-0.081553	0.520014
H61	H	-0.611076	-0.238839	-0.000215
H62	H	-0.695867	0.264504	-0.000228
C63	C	-0.706997	0.649187	-0.000249
H64	H	-0.672017	0.607434	-0.000254
H65	H	-0.700078	0.678293	0.050057
H66	H	-0.704105	0.683080	-0.050565
C67	C	-0.752735	-0.198007	0.608335
H68	H	-0.761506	-0.187464	0.547748
H69	H	-0.762657	-0.251011	0.623212
H70	H	-0.705075	-0.190344	0.623241
H71	H	-0.736484	0.491903	-0.000246
H72	H	-0.741362	-0.211585	0.213515
H73	H	-0.919851	0.002698	0.785984
C74	C	-0.689316	0.101739	-0.000217
H75	H	-0.702259	0.048558	-0.000229
H76	H	-0.660433	0.108810	0.050096
H77	H	-0.664449	0.113605	-0.050526
C78	C	-0.467183	-0.256888	-0.000252
H79	H	-0.496744	-0.299971	-0.000260
H80	H	-0.436541	-0.261794	0.050043
H81	H	-0.440596	-0.256976	-0.050579
H82	H	-0.924725	0.299207	-0.000278
C83	C	-0.721581	-0.235316	0.391232
H84	H	-0.696658	-0.265219	0.351194
H85	H	-0.747086	-0.269582	0.426648
H86	H	-0.689551	-0.208859	0.426664
H87	H	-0.626816	0.020411	-0.000173
C88	C	-0.916056	-0.001790	0.200476
H89	H	-0.940962	0.028129	0.240515
H90	H	-0.948092	-0.028215	0.165028
H91	H	-0.890524	0.032468	0.165077
H92	H	-0.166638	-0.231487	-0.000299
C93	C	-0.485402	0.043179	-0.000220
H94	H	-0.436150	0.033753	-0.000243
H95	H	-0.497106	0.069942	0.050091
H96	H	-0.501154	0.074732	-0.050531
H97	H	-0.896292	-0.025542	0.378194
H98	H	-0.034402	-0.229298	-0.000322
H99	H	-0.050137	0.029950	-0.000368
H100	H	-0.926383	0.010562	0.621235
H101	H	-0.758387	-0.191213	0.786042
H102	H	-0.182375	0.027762	-0.000284
H103	H	-0.935358	0.150877	-0.000267
C104	C	-0.984206	0.517659	-0.000308
H105	H	-1.019185	0.559416	-0.000328
H106	H	-0.987113	0.483764	0.049997
H107	H	-0.991113	0.488558	-0.050625
H108	H	-0.954714	0.674952	-0.000293
