data_functionalizedCrystal
_audit_creation_method	'MofGen! by Chris Wilmer'
_symmetry_space_group_name_H-M	'P1'
_symmetry_Int_Tables_number	1
_symmetry_cell_setting	triclinic
loop_
_symmetry_equiv_pos_as_xyz
  x,y,z
_cell_length_a	21.395362
_cell_length_b	15.297327
_cell_length_c	15.298259
_cell_angle_alpha	91.656652
_cell_angle_beta	80.357612
_cell_angle_gamma	99.725883
loop_
_atom_site_label
_atom_site_type_symbol
_atom_site_fract_x
_atom_site_fract_y
_atom_site_fract_z
Zn1	Zn	0.859493	-0.262567	0.555940
Zn2	Zn	1.359493	0.237433	1.055940
Zn3	Zn	0.853313	-0.434418	0.434798
Zn4	Zn	1.353313	0.065582	0.934798
Zn5	Zn	0.769262	-0.287998	0.409448
Zn6	Zn	1.269262	0.212002	0.909448
Zn7	Zn	0.734046	-0.409069	0.581169
Zn8	Zn	1.234046	0.090931	1.081169
O9	O	0.804029	-0.348513	0.495339
O10	O	1.304029	0.151487	0.995339
O11	O	0.946350	-0.285329	0.539921
O12	O	1.446350	0.214671	1.039921
O13	O	0.854315	-0.436247	0.308871
O14	O	1.354315	0.063753	0.808871
O15	O	0.798556	-0.162035	0.407712
O16	O	1.298556	0.337965	0.907712
O17	O	0.941809	-0.411587	0.450919
O18	O	1.441809	0.088413	0.950919
O19	O	0.864849	-0.143351	0.515340
O20	O	1.364849	0.356649	1.015340
O21	O	0.792563	-0.328672	0.290246
O22	O	1.292563	0.171328	0.790246
O23	O	0.676914	-0.304092	0.432176
O24	O	1.176914	0.195908	0.932176
O25	O	0.738535	-0.368383	0.700387
O26	O	1.238535	0.131617	1.200387
O27	O	0.651041	-0.393042	0.558339
O28	O	1.151041	0.106958	1.058339
O29	O	0.830701	-0.260749	0.681851
O30	O	1.330701	0.239251	1.181851
O31	O	0.820167	-0.553644	0.475382
O32	O	1.320167	-0.053644	0.975382
O33	O	0.732542	-0.535020	0.582921
O34	O	1.232542	-0.035020	1.082921
C35	C	0.641244	-0.348577	0.495245
C36	C	1.141244	0.151423	0.995245
C37	C	0.571600	-0.348621	0.495230
C38	C	1.071600	0.151379	0.995230
C39	C	0.771878	-0.576115	0.534659
C40	C	1.271878	-0.076115	1.034659
C41	C	0.758178	-0.673479	0.551510
C42	C	1.258178	-0.173479	1.051510
C43	C	0.525429	-0.395027	0.560852
C44	C	1.025429	0.104973	1.060852
C45	C	0.459992	-0.394998	0.560887
C46	C	0.959992	0.105002	1.060887
C47	C	0.440730	-0.348577	0.495286
C48	C	0.940730	0.151423	0.995286
C49	C	0.486911	-0.302161	0.429658
C50	C	0.986911	0.197839	0.929658
C51	C	0.552346	-0.302184	0.429630
C52	C	1.052346	0.197816	0.929630
C53	C	0.345836	-0.355186	0.415216
C54	C	0.845836	0.144814	0.915216
C55	C	0.280401	-0.355170	0.415244
C56	C	0.780401	0.144830	0.915244
C57	C	0.238908	-0.348503	0.495373
C58	C	0.738908	0.151497	0.995373
C59	C	0.262854	-0.341870	0.575480
C60	C	0.762854	0.158130	1.075480
C61	C	0.328288	-0.341892	0.575451
C62	C	0.828288	0.158108	1.075451
C63	C	0.369778	-0.348547	0.495310
C64	C	0.869778	0.151453	0.995310
C65	C	0.121782	-0.394880	0.561039
C66	C	0.621782	0.105120	1.061039
C67	C	0.056346	-0.394845	0.561074
C68	C	0.556346	0.105155	1.061074
C69	C	0.083265	-0.302014	0.429839
C70	C	0.583265	0.197986	0.929839
C71	C	0.148701	-0.302043	0.429810
C72	C	0.648701	0.197957	0.929810
C73	C	0.167955	-0.348480	0.495410
C74	C	0.667955	0.151520	0.995410
C75	C	0.902171	-0.986567	0.375203
C76	C	1.402171	-0.486567	0.875203
C77	C	0.915043	-0.895089	0.359366
C78	C	1.415043	-0.395089	0.859366
C79	C	0.875828	-0.839682	0.407401
C80	C	1.375828	-0.339682	0.907401
C81	C	0.823739	-0.875762	0.471275
C82	C	1.323739	-0.375762	0.971275
C83	C	0.810863	-0.967249	0.487108
C84	C	1.310863	-0.467249	0.987108
C85	C	0.784520	-0.820365	0.519306
C86	C	1.284520	-0.320365	1.019306
C87	C	0.732430	-0.856444	0.583180
C88	C	1.232430	-0.356444	1.083180
C89	C	0.719557	-0.947923	0.599011
C90	C	1.219557	-0.447923	1.099011
C91	C	0.758772	-1.003330	0.550976
C92	C	1.258772	-0.503330	1.050976
C93	C	0.797396	-0.728877	0.503473
C94	C	1.297396	-0.228877	1.003473
C95	C	0.706087	-0.709560	0.615378
C96	C	1.206087	-0.209560	1.115378
C97	C	0.693216	-0.801037	0.631214
C98	C	1.193216	-0.301037	1.131214
C99	C	0.967448	-0.348449	0.495433
C100	C	1.467448	0.151551	0.995433
C101	C	1.037088	-0.348422	0.495474
C102	C	1.537088	0.151578	0.995474
C103	C	0.781379	-0.308901	0.723788
C104	C	1.281379	0.191099	1.223788
C105	C	0.771728	-0.292021	0.821139
C106	C	1.271728	0.207979	1.321139
C107	C	0.836320	-0.120018	0.455884
C108	C	1.336320	0.379982	0.955884
C109	C	0.850081	-0.022648	0.439071
C110	C	1.350081	0.477352	0.939071
C111	C	0.826635	-0.387907	0.267768
C112	C	1.326635	0.112093	0.767768
C113	C	0.836442	-0.404540	0.170375
C114	C	1.336442	0.095460	0.670375
C115	C	0.873126	-0.468481	1.134337
C116	C	1.373126	0.031519	1.634337
C117	C	0.882191	-0.484346	1.042872
C118	C	1.382191	0.015654	1.542872
C119	C	0.854576	-0.436266	0.987434
C120	C	1.354576	0.063734	1.487434
C121	C	0.817895	-0.372319	1.023471
C122	C	1.317895	0.127681	1.523471
C123	C	0.808826	-0.356457	1.114946
C124	C	1.308826	0.143543	1.614946
C125	C	0.790275	-0.324242	0.968043
C126	C	1.290275	0.175758	1.468043
C127	C	0.753594	-0.260295	1.004079
C128	C	1.253594	0.239705	1.504079
C129	C	0.744527	-0.244435	1.095545
C130	C	1.244527	0.255565	1.595545
C131	C	0.772142	-0.292515	1.150983
C132	C	1.272142	0.207485	1.650983
C133	C	0.799344	-0.340104	0.876568
C134	C	1.299344	0.159896	1.376568
C135	C	0.735044	-0.228080	0.857176
C136	C	1.235044	0.271920	1.357176
C137	C	0.725979	-0.212215	0.948641
C138	C	1.225979	0.287785	1.448641
H139	H	0.541100	-0.432838	0.614269
H140	H	1.041100	0.067162	1.114269
C141	C	0.685629	-0.141880	0.988285
C142	C	1.185629	0.358120	1.488285
H143	H	0.670483	-0.115509	0.942173
H144	H	1.170483	0.384491	1.442173
H145	H	0.650058	-0.169212	1.029741
H146	H	1.150058	0.330788	1.529741
H147	H	0.711460	-0.097513	1.017387
H148	H	1.211460	0.402487	1.517387
C149	C	0.704663	-0.175188	0.796208
C150	C	1.204663	0.324812	1.296208
H151	H	0.681510	-0.134842	0.830771
H152	H	1.181510	0.365158	1.330771
H153	H	0.737561	-0.143197	0.753947
H154	H	1.237561	0.356803	1.253947
H155	H	0.676163	-0.214905	0.766300
H156	H	1.176163	0.285095	1.266300
C157	C	0.409198	-0.445986	0.633116
C158	C	0.909198	0.054014	1.133116
H159	H	0.430038	-0.473630	0.672191
H160	H	0.930038	0.026370	1.172191
H161	H	0.384668	-0.405856	0.665539
H162	H	0.884668	0.094144	1.165539
H163	H	0.381559	-0.489926	0.606187
H164	H	0.881559	0.010074	1.106187
H165	H	0.714652	-0.192373	1.124884
H166	H	1.214652	0.307627	1.624884
C167	C	0.922543	-0.554674	1.003236
C168	C	1.422543	-0.054674	1.503236
H169	H	0.937697	-0.581029	1.049349
H170	H	1.437697	-0.081029	1.549349
H171	H	0.896723	-0.599041	0.974128
H172	H	1.396723	-0.099041	1.474128
H173	H	0.958118	-0.527330	0.961784
H174	H	1.458118	-0.027330	1.461784
H175	H	0.829215	-0.392166	0.847235
H176	H	1.329215	0.107834	1.347235
H177	H	0.674154	-0.664447	0.654490
H178	H	1.174154	-0.164447	1.154490
H179	H	0.677136	-0.977297	0.651011
H180	H	1.177136	-0.477297	1.151011
C181	C	0.354631	-0.334594	0.663557
C182	C	0.854631	0.165406	1.163557
H183	H	0.399543	-0.335570	0.652061
H184	H	0.899543	0.164430	1.152061
H185	H	0.347010	-0.280594	0.692264
H186	H	0.847010	0.219406	1.192264
H187	H	0.333598	-0.383131	0.700700
H188	H	0.833598	0.116869	1.200700
C189	C	0.744615	-1.103955	0.568403
C190	C	1.244615	-0.603955	1.068403
H191	H	0.707978	-1.117509	0.613325
H192	H	1.207978	-0.617509	1.113325
H193	H	0.736503	-1.134502	0.515457
H194	H	1.236503	-0.634502	1.015457
H195	H	0.780632	-1.121931	0.587198
H196	H	1.280632	-0.621931	1.087198
H197	H	0.839807	-0.699510	0.451466
H198	H	1.339807	-0.199510	0.951466
C199	C	0.217220	-0.334533	0.663626
C200	C	0.717220	0.165467	1.163626
H201	H	0.174821	-0.335458	0.652173
H202	H	0.674821	0.164542	1.152173
H203	H	0.217631	-0.383069	0.700763
H204	H	0.717631	0.116931	1.200763
H205	H	0.231049	-0.280533	0.692315
H206	H	0.731049	0.219467	1.192315
C207	C	0.903497	-0.521362	1.195318
C208	C	1.403497	-0.021362	1.695318
H209	H	0.892843	-0.502752	1.254953
H210	H	1.392843	-0.002752	1.754953
H211	H	0.887495	-0.582824	1.190486
H212	H	1.387495	-0.082824	1.690486
H213	H	0.948895	-0.511120	1.178141
H214	H	1.448895	-0.011120	1.678141
H215	H	0.650804	-0.830426	0.683221
H216	H	1.150804	-0.330426	1.183221
H217	H	0.886311	-0.765198	0.394502
H218	H	1.386311	-0.265198	0.894502
H219	H	0.861958	-0.449189	0.912960
H220	H	1.361958	0.050811	1.412960
H221	H	0.589940	-0.264392	0.376192
H222	H	1.089940	0.235608	0.876192
C223	C	0.142966	-0.445947	0.633201
C224	C	0.642966	0.054053	1.133201
H225	H	0.106094	-0.473570	0.672298
H226	H	0.606094	0.026430	1.172298
H227	H	0.166402	-0.489895	0.606211
H228	H	0.666402	0.010105	1.106211
H229	H	0.169463	-0.405871	0.665627
H230	H	0.669463	0.094129	1.165627
C231	C	0.005556	-0.445908	0.633252
C232	C	0.505556	0.054092	1.133252
H233	H	0.026398	-0.473577	0.672306
H234	H	0.526398	0.026423	1.172306
H235	H	-0.019007	-0.405836	0.665713
H236	H	0.480993	0.094164	1.165713
H237	H	-0.022052	-0.489834	0.606261
H238	H	0.477948	0.010166	1.106261
H239	H	0.067583	-0.264212	0.376428
H240	H	0.567583	0.235788	0.876428
C241	C	0.199490	-0.251009	0.357615
C242	C	0.699490	0.248991	0.857615
H243	H	0.178648	-0.223364	0.318545
H244	H	0.678648	0.276636	0.818545
H245	H	0.227108	-0.207081	0.384581
H246	H	0.727108	0.292919	0.884581
H247	H	0.224043	-0.291106	0.325166
H248	H	0.724043	0.208894	0.825166
H249	H	0.957453	-0.865717	0.307360
H250	H	1.457453	-0.365717	0.807360
C251	C	0.762170	-0.275061	1.251596
C252	C	1.262170	0.224939	1.751596
H253	H	0.736371	-0.230090	1.265120
H254	H	1.236371	0.269910	1.765120
H255	H	0.741298	-0.328007	1.282049
H256	H	1.241298	0.171993	1.782049
H257	H	0.802697	-0.256302	1.269687
H258	H	1.302697	0.243698	1.769687
C259	C	0.945302	-1.047513	0.322376
C260	C	1.445302	-0.547513	0.822376
H261	H	0.930175	-1.107162	0.340959
H262	H	1.430175	-0.607162	0.840959
H263	H	0.944110	-1.042766	0.260923
H264	H	1.444110	-0.542766	0.760923
H265	H	0.988235	-1.030217	0.332669
H266	H	1.488235	-0.530217	0.832669
C267	C	0.391480	-0.362470	0.327065
C268	C	0.891480	0.137530	0.827065
H269	H	0.367848	-0.366416	0.279363
H270	H	0.867848	0.133584	0.779363
H271	H	0.424062	-0.311474	0.319530
H272	H	0.924062	0.188526	0.819530
H273	H	0.410681	-0.414016	0.327915
H274	H	0.910681	0.085984	0.827915
C275	C	0.254055	-0.362528	0.327140
C276	C	0.754055	0.137472	0.827140
H277	H	0.209138	-0.361590	0.338634
H278	H	0.709138	0.138410	0.838634
H279	H	0.275073	-0.314018	0.289961
H280	H	0.775073	0.185982	0.789961
H281	H	0.261689	-0.416548	0.298476
H282	H	0.761689	0.083452	0.798476
C283	C	0.465724	-0.251099	0.357499
C284	C	0.965724	0.248901	0.857499
H285	H	0.420140	-0.257739	0.366909
H286	H	0.920140	0.242261	0.866909
H287	H	0.483506	-0.190025	0.360245
H288	H	0.983506	0.309975	0.860245
H289	H	0.480450	-0.274044	0.300822
H290	H	0.980450	0.225956	0.800822
