data_functionalizedCrystal
_audit_creation_method	'MofGen! by Chris Wilmer'
_symmetry_space_group_name_H-M	'P1'
_symmetry_Int_Tables_number	1
_symmetry_cell_setting	triclinic
loop_
_symmetry_equiv_pos_as_xyz
  x,y,z
_cell_length_a	16.974885
_cell_length_b	19.188924
_cell_length_c	16.053919
_cell_angle_alpha	92.885510
_cell_angle_beta	89.241669
_cell_angle_gamma	83.267823
loop_
_atom_site_label
_atom_site_type_symbol
_atom_site_fract_x
_atom_site_fract_y
_atom_site_fract_z
O1	O	1.048766	0.088912	-0.001364
O2	O	1.382099	0.422245	0.331969
O3	O	1.715433	0.755578	0.665303
O4	O	0.819185	0.100835	0.014136
O5	O	1.152518	0.434168	0.347469
O6	O	1.485851	0.767501	0.680803
O7	O	0.940603	-0.006789	0.005929
O8	O	1.273936	0.326545	0.339262
O9	O	1.607270	0.659878	0.672595
O10	O	0.927348	0.196535	0.006843
O11	O	1.260681	0.529868	0.340177
O12	O	1.594014	0.863202	0.673510
O13	O	0.934680	-0.011996	-0.132529
O14	O	1.268013	0.321337	0.200805
O15	O	1.601346	0.654670	0.534138
O16	O	0.813261	0.095627	-0.124321
O17	O	1.146595	0.428960	0.209012
O18	O	1.479928	0.762294	0.542345
O19	O	1.042843	0.083704	-0.139821
O20	O	1.376176	0.417037	0.193512
O21	O	1.709509	0.750371	0.526845
Zn22	Zn	0.927112	0.088839	-0.154055
Zn23	Zn	1.260445	0.422172	0.179279
Zn24	Zn	1.593778	0.755505	0.512612
Zn25	Zn	0.934916	0.095700	0.028369
Zn26	Zn	1.268249	0.429033	0.361702
Zn27	Zn	1.601582	0.762367	0.695036
O28	O	0.921424	0.191327	-0.131614
O29	O	1.254758	0.524661	0.201719
O30	O	1.588091	0.857994	0.535053
C31	C	0.786851	0.097875	-0.053110
C32	C	1.120184	0.431208	0.280223
C33	C	1.453518	0.764542	0.613557
C34	C	0.699332	0.096806	-0.047201
C35	C	1.032666	0.430139	0.286132
C36	C	1.365999	0.763473	0.619465
C37	C	0.207047	0.091073	-0.005785
C38	C	0.540380	0.424407	0.327548
C39	C	0.873714	0.757740	0.660882
C40	C	0.289280	0.092077	-0.011348
C41	C	0.622613	0.425411	0.321986
C42	C	0.955946	0.758744	0.655319
C43	C	0.327159	0.089746	-0.089603
C44	C	0.660492	0.423079	0.243730
C45	C	0.993825	0.756412	0.577064
C46	C	0.282801	0.086403	-0.162300
C47	C	0.616135	0.419736	0.171033
C48	C	0.949468	0.753069	0.504367
C49	C	0.200571	0.085394	-0.156737
C50	C	0.533904	0.418727	0.176597
C51	C	0.867237	0.752061	0.509930
C52	C	0.572745	0.092454	-0.114335
C53	C	0.906078	0.425788	0.218998
C54	C	1.239411	0.759121	0.552331
C55	C	0.654981	0.093466	-0.119893
C56	C	0.988314	0.426799	0.213440
C57	C	1.321647	0.760132	0.546773
C58	C	0.661454	0.099139	0.031060
C59	C	0.994787	0.432472	0.364393
C60	C	1.328120	0.765805	0.697727
C61	C	0.579221	0.098134	0.036617
C62	C	0.912554	0.431467	0.369950
C63	C	1.245887	0.764800	0.703283
C64	C	0.534871	0.094787	-0.036081
C65	C	0.868205	0.428121	0.297253
C66	C	1.201538	0.761454	0.630586
N67	N	0.411213	0.090774	-0.095291
N68	N	0.744547	0.424107	0.238043
N69	N	1.077880	0.757441	0.571376
N70	N	0.450819	0.093754	-0.030392
N71	N	0.784152	0.427087	0.302941
N72	N	1.117486	0.760421	0.636275
C73	C	0.937213	-0.035403	-0.063272
C74	C	1.270546	0.297930	0.270061
C75	C	1.603880	0.631263	0.603395
C76	C	0.935927	-0.112907	-0.063187
C77	C	1.269260	0.220426	0.270146
C78	C	1.602594	0.553760	0.603479
C79	C	0.938556	-0.146467	0.012327
C80	C	1.271889	0.186867	0.345660
C81	C	1.605222	0.520200	0.678993
C82	C	0.937336	-0.219288	0.012415
C83	C	1.270670	0.114045	0.345749
C84	C	1.604003	0.447378	0.679082
C85	C	0.933504	-0.258549	-0.063015
C86	C	1.266838	0.074784	0.270318
C87	C	1.600171	0.408117	0.603651
C88	C	0.930871	-0.224981	-0.138539
C89	C	1.264204	0.108353	0.194795
C90	C	1.597538	0.441686	0.528128
C91	C	0.932082	-0.152159	-0.138625
C92	C	1.265415	0.181174	0.194709
C93	C	1.598749	0.514507	0.528042
N94	N	0.974065	-0.380360	-0.122087
N95	N	1.307398	-0.047027	0.211246
N96	N	1.640732	0.286306	0.544579
N97	N	0.972916	-0.449537	-0.122001
N98	N	1.306250	-0.116204	0.211333
N99	N	1.639583	0.217129	0.544666
C100	C	0.929853	-0.477955	-0.062761
C101	C	1.263186	-0.144622	0.270573
C102	C	1.596519	0.188712	0.603906
N103	N	0.887992	-0.434583	-0.003599
N104	N	1.221325	-0.101250	0.329735
N105	N	1.554658	0.232084	0.663068
N106	N	0.889144	-0.365400	-0.003683
N107	N	1.222478	-0.032067	0.329650
N108	N	1.555811	0.301267	0.662983
C109	C	0.932190	-0.337512	-0.062930
C110	C	1.265523	-0.004178	0.270403
C111	C	1.598857	0.329155	0.603736
C112	C	0.931158	-0.590476	0.012854
C113	C	1.264492	-0.257143	0.346188
C114	C	1.597825	0.076191	0.679521
C115	C	0.929934	-0.663298	0.012940
C116	C	1.263267	-0.329965	0.346274
C117	C	1.596601	0.003368	0.679607
C118	C	0.923477	-0.668990	-0.138016
C119	C	1.256810	-0.335657	0.195317
C120	C	1.590143	-0.002323	0.528650
C121	C	0.924693	-0.596168	-0.138100
C122	C	1.258026	-0.262835	0.195234
C123	C	1.591360	0.070498	0.528567
C124	C	0.928538	-0.556916	-0.062662
C125	C	1.261871	-0.223582	0.270671
C126	C	1.595204	0.109751	0.604005
C127	C	1.075176	0.086664	-0.072574
C128	C	1.408510	0.419997	0.260760
C129	C	1.741843	0.753331	0.594093
C130	C	1.162695	0.087733	-0.078477
C131	C	1.496029	0.421066	0.254857
C132	C	1.829362	0.754400	0.588190
C133	C	0.924815	0.219942	-0.062412
C134	C	1.258148	0.553275	0.270922
C135	C	1.591481	0.886609	0.604255
C136	C	0.926101	0.297446	-0.062491
C137	C	1.259434	0.630779	0.270842
C138	C	1.592767	0.964113	0.604176
N139	N	0.921791	0.084156	-0.278554
N140	N	1.255125	0.417489	0.054779
N141	N	1.588458	0.750822	0.388113
C142	C	0.894437	0.059826	-0.800333
C143	C	1.227770	0.393159	-0.466999
C144	C	1.561103	0.726492	-0.133666
C145	C	0.898153	0.063129	-0.713178
C146	C	1.231486	0.396462	-0.379844
C147	C	1.564820	0.729796	-0.046511
C148	C	0.947671	0.106988	-0.672823
C149	C	1.281005	0.440321	-0.339490
C150	C	1.614338	0.773655	-0.006157
C151	C	0.993483	0.147541	-0.719629
C152	C	1.326816	0.480874	-0.386296
C153	C	1.660149	0.814208	-0.052962
C154	C	0.989770	0.144234	-0.806783
C155	C	1.323103	0.477567	-0.473449
C156	C	1.656437	0.810900	-0.140116
C157	C	0.963890	0.121401	-0.412513
C158	C	1.297223	0.454735	-0.079180
C159	C	1.630556	0.788068	0.254153
C160	C	0.967597	0.124707	-0.325353
C161	C	1.300930	0.458041	0.007980
C162	C	1.634264	0.791374	0.341313
C163	C	0.872268	0.040294	-0.318908
C164	C	1.205601	0.373627	0.014425
C165	C	1.538935	0.706960	0.347759
C166	C	0.868556	0.036994	-0.406063
C167	C	1.201890	0.370327	-0.072730
C168	C	1.535223	0.703660	0.260603
C169	C	0.914371	0.077544	-0.452861
C170	C	1.247704	0.410877	-0.119528
C171	C	1.581037	0.744211	0.213805
N172	N	0.951469	0.110367	-0.583737
N173	N	1.284803	0.443700	-0.250404
N174	N	1.618136	0.777034	0.082930
N175	N	0.910576	0.074161	-0.541946
N176	N	1.243910	0.407494	-0.208613
N177	N	1.577243	0.740827	0.124720
N178	N	0.940242	0.100377	0.152868
N179	N	1.273576	0.433711	0.486202
N180	N	1.606909	0.767044	0.819535
H181	H	0.325388	0.094793	0.047846
H182	H	0.658722	0.428126	0.381179
H183	H	0.992055	0.761460	0.714512
Cl184	Cl	0.940641	-0.261487	0.107354
Cl185	Cl	1.273974	0.071846	0.440688
Cl186	Cl	1.607308	0.405180	0.774021
H187	H	0.176212	0.092977	0.057939
H188	H	0.509545	0.426310	0.391272
H189	H	0.842878	0.759644	0.724606
Cl190	Cl	0.832177	0.004689	-0.851055
Cl191	Cl	1.165511	0.338023	-0.517721
Cl192	Cl	1.498844	0.671356	-0.184388
H193	H	0.697572	0.101862	0.090246
H194	H	1.030905	0.435196	0.423579
H195	H	1.364239	0.768529	0.756912
H196	H	0.548386	0.100031	0.100340
H197	H	0.881719	0.433365	0.433674
H198	H	1.215053	0.766698	0.767007
Cl199	Cl	0.806298	-0.018142	-0.456788
Cl200	Cl	1.139631	0.315191	-0.123454
Cl201	Cl	1.472964	0.648525	0.209879
Cl202	Cl	0.926047	-0.274335	-0.233365
Cl203	Cl	1.259380	0.058998	0.099968
Cl204	Cl	1.592714	0.392331	0.433301
Cl205	Cl	1.021479	0.172385	-0.471334
Cl206	Cl	1.354813	0.505719	-0.138000
Cl207	Cl	1.688146	0.839052	0.195333
Cl208	Cl	0.921388	-0.553976	-0.233037
Cl209	Cl	1.254721	-0.220643	0.100296
Cl210	Cl	1.588054	0.112690	0.433630
Cl211	Cl	1.055739	0.202675	-0.668898
Cl212	Cl	1.389072	0.536008	-0.335565
Cl213	Cl	1.722405	0.869342	-0.002231
Cl214	Cl	0.702599	0.090533	-0.218279
Cl215	Cl	1.035932	0.423866	0.115055
Cl216	Cl	1.369265	0.757200	0.448388
H217	H	0.929938	-0.124836	-0.200119
H218	H	1.263272	0.208498	0.133214
H219	H	1.596605	0.541831	0.466548
Cl220	Cl	0.918654	-0.718339	-0.232844
Cl221	Cl	1.251988	-0.385006	0.100489
Cl222	Cl	1.585321	-0.051673	0.433822
H223	H	0.934284	-0.558514	0.074281
H224	H	1.267618	-0.225181	0.407614
H225	H	1.600951	0.108152	0.740947
H226	H	0.860855	0.030105	-0.675078
H227	H	1.194188	0.363439	-0.341744
H228	H	1.527522	0.696772	-0.008411
Cl229	Cl	0.144815	0.081188	-0.248125
Cl230	Cl	0.478148	0.414521	0.085209
Cl231	Cl	0.811482	0.747855	0.418542
Cl232	Cl	0.933233	-0.705487	0.107882
Cl233	Cl	1.266567	-0.372154	0.441215
Cl234	Cl	1.599900	-0.038821	0.774548
H235	H	0.834970	0.007279	-0.280796
H236	H	1.168303	0.340613	0.052538
H237	H	1.501636	0.673946	0.385871
H238	H	0.536646	0.089719	-0.173531
H239	H	0.869980	0.423052	0.159803
H240	H	1.203313	0.756386	0.493136
H241	H	0.313649	0.084500	-0.226017
H242	H	0.646983	0.417833	0.107316
H243	H	0.980316	0.751167	0.440649
Cl244	Cl	1.029876	0.179829	-0.274625
Cl245	Cl	1.363210	0.513162	0.058708
Cl246	Cl	1.696543	0.846495	0.392042
H247	H	1.027070	0.177255	-0.844886
H248	H	1.360404	0.510588	-0.511552
H249	H	1.693737	0.843922	-0.178219
H250	H	0.941684	-0.114511	0.073754
H251	H	1.275017	0.218822	0.407087
H252	H	1.608351	0.552155	0.740421
