data_functionalizedCrystal
_audit_creation_method	'MofGen! by Chris Wilmer'
_symmetry_space_group_name_H-M	'P1'
_symmetry_Int_Tables_number	1
_symmetry_cell_setting	triclinic
loop_
_symmetry_equiv_pos_as_xyz
  x,y,z
_cell_length_a	16.109301
_cell_length_b	16.109301
_cell_length_c	7.540329
_cell_angle_alpha	89.994987
_cell_angle_beta	89.999760
_cell_angle_gamma	83.461481
loop_
_atom_site_label
_atom_site_type_symbol
_atom_site_fract_x
_atom_site_fract_y
_atom_site_fract_z
O1	O	1.103130	0.106866	-0.147376
O2	O	0.861068	0.120165	-0.147405
O3	O	0.988749	-0.007515	-0.147372
O4	O	0.975450	0.234547	-0.147409
O5	O	0.988741	-0.007517	0.147594
O6	O	0.861061	0.120164	0.147560
O7	O	1.103123	0.106864	0.147589
Cu8	Cu	0.982091	0.113514	0.174507
Cu9	Cu	0.982100	0.113516	-0.174323
O10	O	0.975442	0.234545	0.147556
C11	C	0.830090	0.119626	0.000074
C12	C	0.737794	0.118011	0.000064
C13	C	0.515522	0.190018	0.000073
C14	C	0.428801	0.188494	0.000085
C15	C	0.448676	0.037006	0.000101
C16	C	0.535394	0.038530	0.000102
C17	C	0.568815	0.115039	0.000079
C18	C	0.395376	0.111990	0.000090
C19	C	0.301350	0.110337	0.000102
C20	C	0.662847	0.116693	0.000070
C21	C	0.988206	-0.038491	0.000112
C22	C	0.986591	-0.130786	0.000114
C23	C	1.058599	-0.353059	0.000095
C24	C	1.057075	-0.439779	0.000080
C25	C	0.905586	-0.419905	0.000069
C26	C	0.907111	-0.333186	0.000071
C27	C	0.983620	-0.299766	0.000093
C28	C	0.980571	-0.473205	0.000076
C29	C	0.978918	-0.567231	0.000060
C30	C	0.985273	-0.205734	0.000105
C31	C	1.134101	0.107404	0.000106
C32	C	1.226397	0.109019	0.000105
C33	C	0.975984	0.265521	0.000069
C34	C	0.977600	0.357816	0.000055
N35	N	0.982091	0.113512	0.419856
N36	N	0.982107	0.113511	-0.419672
H37	H	0.385413	0.249550	0.000083
H38	H	1.118130	-0.483168	0.000078
O39	O	0.416071	-0.037239	0.000030
C40	C	0.328102	-0.022509	0.000067
H41	H	0.307719	0.042379	-0.055781
H42	H	0.301492	-0.071460	-0.085567
H43	H	0.303963	-0.026536	0.141576
O44	O	0.831342	-0.452510	0.000143
C45	C	0.846072	-0.540478	0.000103
H46	H	0.910958	-0.560864	0.055947
H47	H	0.797119	-0.567092	0.085741
H48	H	0.842048	-0.564612	-0.141405
H49	H	0.578788	-0.022530	0.000112
H50	H	0.846050	-0.289792	0.000064
O51	O	0.547849	0.264408	0.000145
C52	C	0.482211	0.330259	0.000100
H53	H	0.423309	0.306963	0.055944
H54	H	0.500316	0.383671	0.085735
H55	H	0.469932	0.353391	-0.141410
O56	O	1.132989	-0.320731	0.000016
C57	C	1.198839	-0.386369	0.000052
H58	H	1.175544	-0.445270	-0.055787
H59	H	1.252252	-0.368262	-0.085591
H60	H	1.221971	-0.398654	0.141559
