data_functionalizedCrystal
_audit_creation_method	'MofGen! by Chris Wilmer'
_symmetry_space_group_name_H-M	'P1'
_symmetry_Int_Tables_number	1
_symmetry_cell_setting	triclinic
loop_
_symmetry_equiv_pos_as_xyz
  x,y,z
_cell_length_a	13.897441
_cell_length_b	11.169417
_cell_length_c	13.897449
_cell_angle_alpha	89.994686
_cell_angle_beta	89.977085
_cell_angle_gamma	90.018542
loop_
_atom_site_label
_atom_site_type_symbol
_atom_site_fract_x
_atom_site_fract_y
_atom_site_fract_z
Zn1	Zn	-0.545376	-1.834996	-0.383961
Zn2	Zn	-0.212043	-1.501663	-0.050628
Zn3	Zn	0.121290	-1.168330	0.282705
Zn4	Zn	-0.384099	-1.834911	-0.545283
Zn5	Zn	-0.050766	-1.501578	-0.211950
Zn6	Zn	0.282567	-1.168244	0.121384
Zn7	Zn	-0.384101	-1.634287	-0.384006
Zn8	Zn	-0.050768	-1.300953	-0.050673
Zn9	Zn	0.282566	-0.967620	0.282660
Zn10	Zn	-0.545358	-1.634310	-0.545219
Zn11	Zn	-0.212025	-1.300977	-0.211885
Zn12	Zn	0.121309	-0.967644	0.121448
O13	O	-0.464734	-1.734626	-0.464617
O14	O	-0.131400	-1.401293	-0.131284
O15	O	0.201933	-1.067959	0.202049
O16	O	-0.523990	-2.002935	-0.405369
O17	O	-0.190656	-1.669601	-0.072036
O18	O	0.142677	-1.336268	0.261297
O19	O	-0.249118	-1.808252	-0.523935
O20	O	0.084215	-1.474919	-0.190602
O21	O	0.417549	-1.141585	0.142732
O22	O	-0.405503	-1.660937	-0.249019
O23	O	-0.072169	-1.327604	0.084315
O24	O	0.261164	-0.994270	0.417648
O25	O	-0.405500	-2.002872	-0.523892
O26	O	-0.072167	-1.669539	-0.190558
O27	O	0.261167	-1.336205	0.142775
O28	O	-0.523991	-1.808398	-0.248986
O29	O	-0.190658	-1.475064	0.084348
O30	O	0.142676	-1.141731	0.417681
O31	O	-0.249119	-1.660854	-0.405446
O32	O	0.084214	-1.327521	-0.072112
O33	O	0.417548	-0.994188	0.261221
O34	O	-0.405485	-1.466340	-0.405383
O35	O	-0.072152	-1.133007	-0.072050
O36	O	0.261182	-0.799674	0.261283
O37	O	-0.680342	-1.660978	-0.523782
O38	O	-0.347009	-1.327644	-0.190448
O39	O	-0.013676	-0.994311	0.142885
O40	O	-0.523960	-1.466358	-0.523825
O41	O	-0.190627	-1.133024	-0.190492
O42	O	0.142707	-0.799691	0.142841
O43	O	-0.680356	-1.808421	-0.405307
O44	O	-0.347022	-1.475087	-0.071974
O45	O	-0.013689	-1.141754	0.261360
O46	O	-0.405482	-1.808275	-0.680256
O47	O	-0.072149	-1.474942	-0.346923
O48	O	0.261184	-1.141608	-0.013590
O49	O	-0.523959	-1.660895	-0.680209
O50	O	-0.190625	-1.327561	-0.346875
O51	O	0.142708	-0.994228	-0.013542
C52	C	-0.464739	-1.734611	-0.715232
C53	C	-0.131406	-1.401277	-0.381898
C54	C	0.201927	-1.067944	-0.048565
C55	C	-0.464774	-1.734714	-0.822446
C56	C	-0.131441	-1.401381	-0.489112
C57	C	0.201893	-1.068047	-0.155779
C58	C	-0.464721	-1.422801	-0.464603
C59	C	-0.131388	-1.089468	-0.131269
C60	C	0.201945	-0.756135	0.202064
C61	C	-0.464739	-1.289401	-0.464620
C62	C	-0.131405	-0.956068	-0.131286
C63	C	0.201928	-0.622735	0.202047
C64	C	-0.716327	-1.734711	-0.464532
C65	C	-0.382993	-1.401378	-0.131199
C66	C	-0.049660	-1.068045	0.202135
C67	C	-0.823541	-1.734747	-0.464496
C68	C	-0.490207	-1.401414	-0.131162
C69	C	-0.156874	-1.068081	0.202171
C70	C	-1.019836	-1.734780	-0.464431
C71	C	-0.686503	-1.401447	-0.131097
C72	C	-0.353169	-1.068113	0.202236
C73	C	-0.910603	-1.734758	-0.464470
C74	C	-0.577270	-1.401425	-0.131136
C75	C	-0.243937	-1.068092	0.202197
C76	C	-0.214119	-1.734610	-0.464633
C77	C	0.119214	-1.401277	-0.131299
C78	C	0.452547	-1.067944	0.202034
C79	C	-0.106906	-1.734807	-0.464397
C80	C	0.226427	-1.401473	-0.131064
C81	C	0.559761	-1.068140	0.202269
C82	C	-0.464747	-2.047668	-0.464633
C83	C	-0.131413	-1.714335	-0.131299
C84	C	0.201920	-1.381002	0.202034
C85	C	-0.464752	-2.181068	-0.464639
C86	C	-0.131419	-1.847735	-0.131306
C87	C	0.201914	-1.514402	0.202027
C88	C	-0.464749	-1.734674	-0.213024
C89	C	-0.131416	-1.401341	0.120309
C90	C	0.201918	-1.068008	0.453642
C91	C	-0.464756	-1.734695	-0.105811
C92	C	-0.131422	-1.401361	0.227523
C93	C	0.201911	-1.068028	0.560856
C94	C	-0.464764	-1.734709	-0.018741
C95	C	-0.131431	-1.401376	0.314593
C96	C	0.201902	-1.068042	0.647926
C97	C	-0.464772	-1.734715	0.090492
C98	C	-0.131439	-1.401382	0.423825
C99	C	0.201894	-1.068049	0.757158
