data_functionalizedCrystal
_audit_creation_method	'MofGen! by Chris Wilmer'
_symmetry_space_group_name_H-M	'P1'
_symmetry_Int_Tables_number	1
_symmetry_cell_setting	triclinic
loop_
_symmetry_equiv_pos_as_xyz
  x,y,z
_cell_length_a	16.959455
_cell_length_b	12.827892
_cell_length_c	12.827885
_cell_angle_alpha	89.970024
_cell_angle_beta	90.020321
_cell_angle_gamma	89.987661
loop_
_atom_site_label
_atom_site_type_symbol
_atom_site_fract_x
_atom_site_fract_y
_atom_site_fract_z
Zn1	Zn	1.208456	0.416066	0.590873
Zn2	Zn	1.208376	0.590844	0.416133
Zn3	Zn	1.076271	0.416108	0.416144
Zn4	Zn	1.076260	0.590756	0.590830
O5	O	1.142341	0.503443	0.503495
O6	O	1.319056	0.439269	0.567706
O7	O	1.190823	0.567719	0.269898
O8	O	1.093844	0.269866	0.439344
O9	O	1.318997	0.567678	0.439326
O10	O	1.190960	0.269835	0.567717
O11	O	1.093766	0.439341	0.269906
O12	O	0.965659	0.439256	0.439303
O13	O	1.093826	0.567529	0.737072
O14	O	0.965651	0.567570	0.567644
O15	O	1.190949	0.439184	0.737103
O16	O	1.190812	0.737068	0.439285
O17	O	1.093747	0.737004	0.567634
C18	C	0.936975	0.503409	0.503471
C19	C	0.849118	0.503419	0.503485
C20	C	1.142395	0.503342	0.776065
C21	C	1.142418	0.503299	0.892218
C22	C	1.142291	0.774953	0.503476
C23	C	1.142343	0.891106	0.503503
C24	C	0.477622	0.436576	0.436807
C25	C	0.477663	0.570397	0.570242
C26	C	0.560209	0.570382	0.570236
C27	C	0.601465	0.503464	0.503513
C28	C	0.560176	0.436561	0.436796
C29	C	0.601504	0.637291	0.636944
C30	C	0.684055	0.637279	0.636940
C31	C	0.725313	0.570355	0.570221
C32	C	0.684019	0.503449	0.503502
C33	C	0.725275	0.436531	0.436779
C34	C	0.683982	0.369619	0.370065
C35	C	0.601433	0.369637	0.370078
C36	C	0.807861	0.570337	0.570208
C37	C	0.807829	0.436516	0.436769
C38	C	1.348509	0.503479	0.503519
C39	C	1.436366	0.503494	0.503530
C40	C	1.142412	0.230873	0.503536
C41	C	1.142442	0.114720	0.503554
C42	C	1.190430	0.942888	0.440063
C43	C	1.190484	1.062939	0.440089
C44	C	1.142332	0.503469	0.231985
C45	C	1.142462	0.503217	0.115832
C46	C	1.190507	0.439734	1.064063
C47	C	1.190484	0.439778	0.944012
H48	H	0.841414	0.382016	0.382440
H49	H	1.101278	0.557645	0.936732
H50	H	1.101267	1.070196	0.557867
H51	H	1.101216	0.935650	0.557841
H52	H	0.567907	0.691779	0.691259
H53	H	1.101315	0.557603	1.071277
H54	H	1.231659	0.385357	1.108618
H55	H	0.717584	0.315139	0.315735
H56	H	1.231613	0.385423	0.899492
H57	H	1.231652	1.107470	0.385772
H58	H	0.717669	0.691763	0.691263
H59	H	0.443998	0.382094	0.382493
H60	H	0.567805	0.315162	0.315761
H61	H	0.841479	0.624819	0.624523
H62	H	1.231564	0.898346	0.385732
H63	H	0.444067	0.624884	0.624559
