data_functionalizedCrystal
_audit_creation_method	'MofGen! by Chris Wilmer'
_symmetry_space_group_name_H-M	'P1'
_symmetry_Int_Tables_number	1
_symmetry_cell_setting	triclinic
loop_
_symmetry_equiv_pos_as_xyz
  x,y,z
_cell_length_a	10.540535
_cell_length_b	10.540539
_cell_length_c	13.448316
_cell_angle_alpha	89.995557
_cell_angle_beta	89.995644
_cell_angle_gamma	84.524567
loop_
_atom_site_label
_atom_site_type_symbol
_atom_site_fract_x
_atom_site_fract_y
_atom_site_fract_z
O1	O	1.685894	0.178876	-0.082632
O2	O	2.185894	0.678876	0.417368
O3	O	1.316481	0.195738	-0.082646
O4	O	1.816481	0.695738	0.417354
O5	O	1.509616	0.002600	-0.082638
O6	O	2.009616	0.502600	0.417362
O7	O	1.492760	0.372014	-0.082641
O8	O	1.992760	0.872014	0.417359
O9	O	1.509591	0.002588	0.082746
O10	O	2.009591	0.502588	0.582746
O11	O	1.316456	0.195726	0.082738
O12	O	1.816456	0.695726	0.582738
O13	O	1.685870	0.178864	0.082751
O14	O	2.185870	0.678864	0.582751
Cu15	Cu	1.501161	0.187294	0.097846
Cu16	Cu	2.001161	0.687294	0.597846
Cu17	Cu	1.501190	0.187308	-0.097740
Cu18	Cu	2.001190	0.687308	0.402260
O19	O	1.492735	0.372002	0.082743
O20	O	1.992735	0.872002	0.582743
C21	C	1.269165	0.194469	0.000044
C22	C	1.769165	0.694469	0.500044
C23	C	1.128217	0.190689	0.000039
C24	C	1.628217	0.690689	0.500039
C25	C	1.091546	0.049675	0.000044
C26	C	1.591546	0.549675	0.500044
C27	C	0.944946	0.045698	0.000429
C28	C	1.444946	0.545698	0.500429
C29	C	0.918867	0.255052	0.094309
C30	C	1.418867	0.755052	0.594309
C31	C	1.065632	0.258053	0.094378
C32	C	1.565632	0.758053	0.594378
C33	C	1.065544	0.260119	-0.093701
C34	C	1.565544	0.760119	0.406299
C35	C	0.919198	0.253597	-0.094930
C36	C	1.419198	0.753597	0.405070
C37	C	1.508339	-0.044709	0.000053
C38	C	2.008339	0.455291	0.500053
C39	C	1.504557	-0.185657	0.000047
C40	C	2.004557	0.314343	0.500047
C41	C	1.359640	-0.369081	-0.000329
C42	C	1.859640	0.130919	0.499671
C43	C	1.363474	-0.222463	0.000043
C44	C	1.863474	0.277537	0.500043
C45	C	1.572439	-0.247322	0.094492
C46	C	2.072439	0.252678	0.594492
C47	C	1.567624	-0.393867	0.094571
C48	C	2.067624	0.106133	0.594571
C49	C	1.570521	-0.394371	-0.093501
C50	C	2.070521	0.105629	0.406499
C51	C	1.571821	-0.247389	-0.094750
C52	C	2.071821	0.252611	0.405250
C53	C	1.733185	0.180133	0.000059
C54	C	2.233185	0.680133	0.500059
C55	C	1.874134	0.183913	0.000058
C56	C	2.374134	0.683913	0.500058
C57	C	1.494011	0.419311	0.000051
C58	C	1.994011	0.919311	0.500051
C59	C	1.497793	0.560259	0.000050
C60	C	1.997793	1.060259	0.500050
N61	N	1.501150	0.187283	0.235410
N62	N	2.001150	0.687283	0.735410
N63	N	1.501211	0.187309	-0.235304
N64	N	2.001211	0.687309	0.264696
C65	C	1.586697	0.101797	0.287454
C66	C	2.086697	0.601797	0.787454
C67	C	1.586705	0.101796	0.391557
C68	C	2.086705	0.601796	0.891557
C69	C	1.501171	0.187288	0.443614
C70	C	2.001171	0.687288	0.943614
C71	C	1.415614	0.272778	0.391563
C72	C	1.915614	0.772778	0.891563
C73	C	1.415601	0.272772	0.287462
C74	C	1.915601	0.772772	0.787462
C75	C	1.415650	0.272787	0.608543
C76	C	1.915650	0.772787	1.108543
C77	C	1.415664	0.272795	0.712652
C78	C	1.915664	0.772795	1.212652
C79	C	1.586753	0.101811	0.712639
C80	C	2.086753	0.601811	1.212639
C81	C	1.586740	0.101805	0.608537
C82	C	2.086740	0.601805	1.108537
C83	C	1.501185	0.187297	0.556493
C84	C	2.001185	0.687297	1.056493
H85	H	0.916483	-0.009676	0.068393
H86	H	1.416483	0.490324	0.568393
F87	F	1.286887	-0.408998	0.087453
F88	F	1.786887	0.091002	0.587453
F89	F	1.700242	-0.456571	0.100187
F90	F	2.200242	0.043429	0.600187
H91	H	1.345938	0.342381	0.245089
H92	H	1.845938	0.842381	0.745089
F93	F	1.677742	0.010809	0.232060
F94	F	2.177742	0.510809	0.732060
H95	H	0.871510	0.356818	0.097547
H96	H	1.371510	0.856818	0.597547
F97	F	1.707862	-0.218109	0.099090
F98	F	2.207862	0.281891	0.599090
F99	F	1.324624	0.363786	0.768048
F100	F	1.824624	0.863786	1.268048
H101	H	1.310060	-0.179854	-0.067659
H102	H	1.810060	0.320146	0.432341
F103	F	1.286804	-0.406452	-0.088856
F104	F	1.786804	0.093548	0.411144
H105	H	1.525264	-0.204727	0.164771
H106	H	2.025264	0.295273	0.664771
F107	F	1.502019	-0.430735	0.186842
F108	F	2.002019	0.069265	0.686842
H109	H	0.887954	0.206235	0.164722
H110	H	1.387954	0.706235	0.664722
F111	F	1.293138	-0.167884	0.088675
F112	F	1.793138	0.332116	0.588675
F113	F	1.094496	0.395742	-0.094873
F114	F	1.594496	0.895742	0.405127
H115	H	1.524870	-0.425918	-0.165084
H116	H	2.024870	0.074082	0.334916
F117	F	1.507410	-0.193382	-0.186086
F118	F	2.007410	0.306618	0.313914
H119	H	1.656414	0.032201	0.755019
H120	H	2.156414	0.532201	1.255019
H121	H	1.674682	-0.223169	-0.100449
H122	H	2.174682	0.276831	0.399551
F123	F	1.677752	0.010812	0.446947
F124	F	2.177752	0.510812	0.946947
H125	H	1.672426	-0.441599	-0.094132
H126	H	2.172426	0.058401	0.405868
H127	H	1.656394	0.032198	0.566152
H128	H	2.156394	0.532198	1.066152
F129	F	1.324575	0.363760	0.446967
F130	F	1.824575	0.863760	0.946967
F131	F	0.906608	-0.027021	-0.087863
F132	F	1.406608	0.472979	0.412137
F133	F	1.146414	-0.021102	-0.088288
F134	F	1.646414	0.478898	0.411712
F135	F	1.324586	0.363774	0.553158
F136	F	1.824586	0.863774	1.053158
H137	H	1.108014	0.216122	-0.165165
H138	H	1.608014	0.716122	0.334835
H139	H	1.134994	-0.003574	0.067535
H140	H	1.634994	0.496426	0.567535
H141	H	1.088663	0.361427	0.098405
H142	H	1.588663	0.861427	0.598405
F143	F	1.118129	0.195244	0.186821
F144	F	1.618129	0.695244	0.686821
F145	F	0.881862	0.185909	-0.186071
F146	F	1.381862	0.685909	0.313929
H147	H	0.870151	0.354471	-0.100915
H148	H	1.370151	0.854471	0.399085
