data_functionalizedCrystal
_audit_creation_method	'MofGen! by Chris Wilmer'
_symmetry_space_group_name_H-M	'P1'
_symmetry_Int_Tables_number	1
_symmetry_cell_setting	triclinic
loop_
_symmetry_equiv_pos_as_xyz
  x,y,z
_cell_length_a	14.519731
_cell_length_b	17.000371
_cell_length_c	12.996460
_cell_angle_alpha	89.993316
_cell_angle_beta	89.994327
_cell_angle_gamma	79.644050
loop_
_atom_site_label
_atom_site_type_symbol
_atom_site_fract_x
_atom_site_fract_y
_atom_site_fract_z
O1	O	1.215191	0.104406	-0.085570
O2	O	0.945698	0.116674	-0.085571
O3	O	1.097178	-0.005301	-0.085563
O4	O	1.063711	0.226381	-0.085578
O5	O	1.097164	-0.005308	0.085571
O6	O	0.945684	0.116667	0.085563
O7	O	1.215177	0.104399	0.085564
Cu8	Cu	1.080429	0.110533	0.101189
Cu9	Cu	1.080446	0.110541	-0.101196
O10	O	1.063697	0.226375	0.085556
C11	C	0.911379	0.116096	-0.000004
C12	C	0.809142	0.114373	-0.000005
C13	C	0.726114	0.112974	-0.000009
C14	C	0.621951	0.111225	-0.000009
C15	C	0.538927	0.109837	-0.000009
C16	C	0.434756	0.108088	-0.000011
C17	C	1.098968	-0.034956	0.000004
C18	C	1.104313	-0.123307	0.000003
C19	C	1.022057	-0.155455	-0.000002
C20	C	1.027085	-0.238470	0.000000
C21	C	1.114370	-0.289336	0.000001
C22	C	1.196633	-0.257183	0.000009
C23	C	1.191604	-0.174169	0.000014
C24	C	1.133795	-0.540453	-0.000006
C25	C	1.138817	-0.623472	-0.000014
C26	C	0.969269	-0.604754	-0.000020
C27	C	0.964248	-0.521739	-0.000022
C28	C	1.046511	-0.489593	-0.000008
C29	C	1.119512	-0.374191	0.000001
C30	C	1.041368	-0.404739	-0.000001
C31	C	1.249495	0.104978	-0.000005
C32	C	1.351733	0.106700	-0.000011
C33	C	1.061906	0.256029	-0.000013
C34	C	1.056561	0.344380	-0.000019
N35	N	1.080424	0.110526	0.243536
N36	N	1.080459	0.110540	-0.243543
C37	C	1.080444	0.110541	0.663351
C38	C	1.080436	0.110540	0.546546
C39	C	1.080435	0.110535	0.453447
C40	C	1.080425	0.110532	0.336635
H41	H	0.950980	-0.114044	-0.000008
H42	H	0.893172	-0.480328	-0.000025
Br43	Br	0.857634	-0.648385	-0.000039
Br44	Br	1.315092	-0.326215	0.000026
Br45	Br	0.915446	-0.282096	-0.000005
H46	H	1.258585	-0.147996	0.000019
Br47	Br	1.257284	-0.692506	-0.000024
Br48	Br	1.237967	-0.443230	0.000010
H49	H	1.200779	-0.514290	0.000002
H50	H	0.970301	-0.363320	0.000005
