data_functionalizedCrystal
_audit_creation_method	'MofGen! by Chris Wilmer'
_symmetry_space_group_name_H-M	'P1'
_symmetry_Int_Tables_number	1
_symmetry_cell_setting	triclinic
loop_
_symmetry_equiv_pos_as_xyz
  x,y,z
_cell_length_a	19.805407
_cell_length_b	14.908520
_cell_length_c	19.805399
_cell_angle_alpha	93.269050
_cell_angle_beta	89.983114
_cell_angle_gamma	93.320773
loop_
_atom_site_label
_atom_site_type_symbol
_atom_site_fract_x
_atom_site_fract_y
_atom_site_fract_z
Zn1	Zn	1.019185	-0.359168	-0.398269
Zn2	Zn	1.012581	-0.510037	-0.291612
Zn3	Zn	0.906004	-0.359197	-0.285095
Zn4	Zn	0.899441	-0.509986	-0.404757
O5	O	0.959303	-0.434597	-0.344933
O6	O	1.113026	-0.379191	-0.384133
O7	O	0.998426	-0.490062	-0.196032
O8	O	0.926528	-0.232948	-0.294665
O9	O	1.108173	-0.490034	-0.305773
O10	O	1.009682	-0.232927	-0.377813
O11	O	0.920124	-0.379240	-0.191244
O12	O	0.810417	-0.379190	-0.300956
O13	O	0.915343	-0.489946	-0.498611
O14	O	0.805596	-0.489974	-0.388871
O15	O	1.003319	-0.379141	-0.493845
O16	O	0.992063	-0.636275	-0.312064
O17	O	0.908939	-0.636238	-0.395190
C18	C	0.783448	-0.434580	-0.344910
C19	C	0.708215	-0.434594	-0.344918
C20	C	0.949091	-0.668990	-0.355053
C21	C	0.944783	-0.769265	-0.359405
C22	C	0.670374	-0.492366	-0.390629
C23	C	0.599686	-0.492368	-0.390638
C24	C	0.566839	-0.434601	-0.344933
C25	C	0.604685	-0.376823	-0.299220
C26	C	0.675373	-0.376817	-0.299214
C27	C	0.319611	-0.376843	-0.299243
C28	C	0.248919	-0.376854	-0.299251
C29	C	0.243924	-0.492393	-0.390667
C30	C	0.314612	-0.492388	-0.390662
C31	C	0.352452	-0.434606	-0.344951
C32	C	0.429100	-0.434604	-0.344942
C33	C	0.490192	-0.434607	-0.344938
C34	C	1.023335	-0.957670	-0.281093
C35	C	1.019291	-1.051887	-0.285180
C36	C	0.932654	-1.051917	-0.371669
C37	C	0.936698	-0.957700	-0.367582
C38	C	0.982040	-0.910580	-0.322292
C39	C	0.986081	-0.816361	-0.318202
C40	C	0.899447	-0.816394	-0.404694
C41	C	0.895403	-0.910610	-0.408781
C42	C	1.135845	-0.434615	-0.344956
C43	C	1.211077	-0.434623	-0.344966
C44	C	0.959335	-0.434534	-0.521473
C45	C	0.959349	-0.434508	-0.596704
C46	C	0.969574	-0.199288	-0.334788
C47	C	0.973951	-0.099014	-0.330465
C48	C	0.918590	-0.376797	-0.629554
C49	C	0.918600	-0.376780	-0.700242
C50	C	0.959374	-0.434469	-0.738078
C51	C	1.000134	-0.492185	-0.705223
C52	C	1.000120	-0.492207	-0.634537
C53	C	1.000192	-0.492101	-0.990293
C54	C	1.000204	-0.492073	-1.060984
C55	C	0.918672	-0.376674	-1.055998
C56	C	0.918658	-0.376695	-0.985312
C57	C	0.959415	-0.434415	-0.952463
C58	C	0.959403	-0.434435	-0.875816
C59	C	0.959390	-0.434445	-0.814724
C60	C	0.959313	-0.434594	-0.169077
C61	C	0.959441	-0.434367	-0.093835
H62	H	0.568879	-0.539412	-0.427860
H63	H	0.577936	-0.329784	-0.262009
H64	H	0.706182	-0.329768	-0.261995
H65	H	0.885392	-0.329815	-0.598753
H66	H	1.022998	-0.777997	-0.281322
H67	H	1.060250	-0.919304	-0.244211
O68	O	1.039837	-0.548181	-0.741900
C69	C	1.108155	-0.528463	-0.723796
H70	H	1.111061	-0.493801	-0.670978
H71	H	1.132985	-0.482070	-0.761582
C72	C	1.141745	-0.658991	-0.789197
C73	C	1.145314	-0.616425	-0.724323
H74	H	1.164668	-0.713248	-0.789525
H75	H	1.095718	-0.672273	-0.801397
H76	H	1.162436	-0.620320	-0.820679
H77	H	1.124616	-0.655091	-0.692845
H78	H	1.191338	-0.603151	-0.712119
H79	H	0.341352	-0.539430	-0.427877
H80	H	0.213107	-0.539438	-0.427890
H81	H	0.697113	-0.539409	-0.427845
H82	H	0.885458	-0.329716	-0.954509
O83	O	0.217087	-0.320776	-0.254758
C84	C	0.233473	-0.340384	-0.188119
H85	H	0.283287	-0.375056	-0.188168
H86	H	0.191665	-0.386730	-0.167264
C87	C	0.179376	-0.209776	-0.143371
C88	C	0.240561	-0.252354	-0.143430
H89	H	0.183745	-0.155477	-0.115803
H90	H	0.168334	-0.196567	-0.188266
H91	H	0.144542	-0.248407	-0.125993
H92	H	0.275392	-0.213728	-0.160815
H93	H	0.251609	-0.265555	-0.098537
H94	H	0.885483	-0.329678	-1.082752
H95	H	1.052919	-1.090224	-0.251633
H96	H	0.895743	-1.090299	-0.408546
O97	O	0.356428	-0.320846	-0.254808
C98	C	0.395055	-0.372125	-0.213225
H99	H	0.402684	-0.440531	-0.239966
H100	H	0.367362	-0.381960	-0.163484
C101	C	0.454983	-0.238434	-0.166030
C102	C	0.464358	-0.322448	-0.198876
H103	H	0.497731	-0.207789	-0.157175
H104	H	0.428958	-0.203885	-0.194043
H105	H	0.431903	-0.246641	-0.124582
H106	H	0.487430	-0.314239	-0.240326
H107	H	0.490389	-0.356994	-0.170869
O108	O	0.859258	-0.770789	-0.444744
C109	C	0.818385	-0.832587	-0.485603
H110	H	0.813183	-0.899776	-0.460794
H111	H	0.842704	-0.842529	-0.537467
C112	C	0.754302	-0.713376	-0.524157
C113	C	0.747908	-0.795897	-0.493684
H114	H	0.710830	-0.690744	-0.529145
H115	H	0.781841	-0.671741	-0.496631
H116	H	0.774571	-0.721673	-0.567374
H117	H	0.727648	-0.787598	-0.450464
H118	H	0.720364	-0.837530	-0.521202
H119	H	0.858489	-0.948989	-0.445656
H120	H	0.885407	-0.329789	-0.726985
H121	H	1.033408	-0.539054	-1.091789
H122	H	1.033371	-0.539110	-0.963557
H123	H	1.033316	-0.539194	-0.607791
