data_functionalizedCrystal
_audit_creation_method	'MofGen! by Chris Wilmer'
_symmetry_space_group_name_H-M	'P1'
_symmetry_Int_Tables_number	1
_symmetry_cell_setting	triclinic
loop_
_symmetry_equiv_pos_as_xyz
  x,y,z
_cell_length_a	19.288864
_cell_length_b	15.995350
_cell_length_c	17.766277
_cell_angle_alpha	89.995869
_cell_angle_beta	89.976791
_cell_angle_gamma	83.314311
loop_
_atom_site_label
_atom_site_type_symbol
_atom_site_fract_x
_atom_site_fract_y
_atom_site_fract_z
O1	O	0.921624	0.104452	-0.062832
O2	O	1.421624	0.604452	0.437168
O3	O	0.719400	0.118542	-0.062780
O4	O	1.219400	0.618542	0.437220
O5	O	0.826040	-0.010412	-0.062807
O6	O	1.326040	0.489588	0.437193
O7	O	0.814984	0.233405	-0.062805
O8	O	1.314984	0.733405	0.437195
O9	O	0.826021	-0.010418	0.062382
O10	O	1.326021	0.489582	0.562382
O11	O	0.719381	0.118535	0.062408
O12	O	1.219381	0.618535	0.562408
O13	O	0.921605	0.104445	0.062357
O14	O	1.421605	0.604445	0.562357
Cu15	Cu	0.820492	0.111490	0.073813
Cu16	Cu	1.320492	0.611490	0.573813
Cu17	Cu	0.820514	0.111497	-0.074237
Cu18	Cu	1.320514	0.611497	0.425763
O19	O	0.814965	0.233399	0.062383
O20	O	1.314965	0.733399	0.562383
C21	C	0.693513	0.118085	-0.000179
C22	C	1.193513	0.618085	0.499821
C23	C	0.616406	0.116724	-0.000159
C24	C	1.116406	0.616724	0.499841
C25	C	0.825574	-0.041608	-0.000214
C26	C	1.325574	0.458392	0.499786
C27	C	0.824203	-0.134553	-0.000218
C28	C	1.324203	0.365447	0.499782
C29	C	0.571906	0.192388	-0.000171
C30	C	1.071906	0.692388	0.499829
C31	C	0.499456	0.191110	-0.000179
C32	C	0.999456	0.691110	0.499821
C33	C	0.471508	0.114163	-0.000191
C34	C	0.971508	0.614163	0.499809
C35	C	0.516018	0.038489	-0.000176
C36	C	1.016018	0.538489	0.499824
C37	C	0.588467	0.039769	-0.000160
C38	C	1.088467	0.539769	0.499840
C39	C	0.363096	0.053676	-0.044076
C40	C	0.863096	0.553676	0.455924
C41	C	0.290648	0.052398	-0.044097
C42	C	0.790648	0.552398	0.455903
C43	C	0.248053	0.110209	-0.000237
C44	C	0.748053	0.610209	0.499763
C45	C	0.277912	0.169312	0.043634
C46	C	0.777912	0.669312	0.543634
C47	C	0.350361	0.170593	0.043650
C48	C	0.850361	0.670593	0.543650
C49	C	0.392951	0.112765	-0.000208
C50	C	0.892951	0.612765	0.499792
C51	C	0.124993	0.184492	-0.000256
C52	C	0.624993	0.684492	0.499744
C53	C	0.052542	0.183210	-0.000260
C54	C	0.552542	0.683210	0.499740
C55	C	0.069106	0.030587	-0.000264
C56	C	0.569106	0.530587	0.499736
C57	C	0.141556	0.031871	-0.000253
C58	C	0.641556	0.531871	0.499747
C59	C	0.169495	0.108826	-0.000252
C60	C	0.669495	0.608826	0.499748
C61	C	0.819282	-0.472282	-0.000214
C62	C	1.319282	0.027718	0.499786
C63	C	0.743335	-0.424562	-0.000475
C64	C	1.243335	0.075438	0.499525
C65	C	0.744706	-0.327877	-0.000193
C66	C	1.244706	0.172123	0.499807
C67	C	0.821723	-0.304731	-0.000216
C68	C	1.321723	0.195269	0.499784
C69	C	0.859172	-0.345953	0.071262
C70	C	1.359172	0.154047	0.571262
C71	C	0.857264	-0.442582	0.071322
C72	C	1.357264	0.057418	0.571322
C73	C	0.858855	-0.442939	-0.071041
C74	C	1.358855	0.057061	0.428959
C75	C	0.858837	-0.345993	-0.071986
C76	C	1.358837	0.154007	0.428014
C77	C	0.823107	-0.210039	-0.000215
C78	C	1.323107	0.289961	0.499785
C79	C	0.817901	-0.566975	-0.000210
C80	C	1.317901	-0.066975	0.499790
C81	C	0.947492	0.104902	-0.000246
C82	C	1.447492	0.604902	0.499754
C83	C	1.024600	0.106263	-0.000271
C84	C	1.524600	0.606263	0.499729
C85	C	0.815432	0.264595	-0.000211
C86	C	1.315432	0.764595	0.499789
C87	C	0.816802	0.357540	-0.000212
C88	C	1.316802	0.857540	0.499788
N89	N	0.820481	0.111484	0.177944
N90	N	1.320481	0.611484	0.677944
N91	N	0.820530	0.111497	-0.178367
N92	N	1.320530	0.611497	0.321633
C93	C	0.867717	0.054411	0.217319
C94	C	1.367717	0.554411	0.717319
C95	C	0.867721	0.054407	0.296120
C96	C	1.367721	0.554407	0.796120
C97	C	0.820496	0.111490	0.335544
C98	C	1.320496	0.611490	0.835544
C99	C	0.773251	0.168567	0.296160
C100	C	1.273251	0.668567	0.796160
C101	C	0.773244	0.168564	0.217359
C102	C	1.273244	0.668564	0.717359
C103	C	0.811395	0.187781	0.460384
C104	C	1.311395	0.687781	0.960384
C105	C	0.811407	0.187785	0.539183
C106	C	1.311407	0.687785	1.039183
C107	C	0.820514	0.111500	0.578590
C108	C	1.320514	0.611500	1.078590
C109	C	0.829624	0.035208	0.539190
C110	C	1.329624	0.535208	1.039190
C111	C	0.829617	0.035204	0.460389
C112	C	1.329617	0.535204	0.960389
C113	C	0.820498	0.111500	0.420990
C114	C	1.320498	0.611500	0.920990
C115	C	0.867757	0.054419	0.703411
C116	C	1.367757	0.554419	1.203411
C117	C	0.867756	0.054414	0.782215
C118	C	1.367756	0.554414	1.282215
C119	C	0.773290	0.168581	0.782252
C120	C	1.273290	0.668581	1.282252
C121	C	0.773288	0.168579	0.703451
C122	C	1.273288	0.668579	1.203451
C123	C	0.820525	0.111499	0.664035
C124	C	1.320525	0.611499	1.164035
H125	H	0.463217	0.252727	-0.000186
H126	H	0.963217	0.752727	0.499814
H127	H	0.914850	-0.474911	-0.071538
H128	H	1.414850	0.025089	0.428462
N129	N	0.822632	-0.309695	-0.142039
N130	N	1.322632	0.190305	0.357961
H131	H	0.804489	-0.356282	-0.171898
H132	H	1.304489	0.143718	0.328102
H133	H	0.782382	-0.266690	-0.127300
H134	H	1.282382	0.233310	0.372700
H135	H	0.397772	0.006598	-0.079796
H136	H	0.897772	0.506598	0.420204
H137	H	0.493259	-0.024162	-0.000196
H138	H	0.993259	0.475838	0.499804
H139	H	0.046352	-0.032065	-0.000320
H140	H	0.546352	0.467935	0.499680
H141	H	0.833147	-0.317477	0.124469
H142	H	1.333147	0.182523	0.624469
N143	N	0.602032	0.275392	-0.000172
N144	N	1.102032	0.775392	0.499828
H145	H	0.585775	0.308530	0.046231
H146	H	1.085775	0.808530	0.546231
H147	H	0.654676	0.264662	-0.000190
H148	H	1.154676	0.764662	0.499810
H149	H	0.374670	0.218713	0.079373
H150	H	0.874670	0.718713	0.579373
N151	N	0.705438	-0.290810	0.067814
N152	N	1.205438	0.209190	0.567814
H153	H	0.655522	-0.303973	0.065630
H154	H	1.155522	0.196027	0.565630
H155	H	0.728373	-0.315865	0.115066
H156	H	1.228373	0.184135	0.615066
N157	N	0.821073	-0.466701	0.142116
N158	N	1.321073	0.033299	0.642116
H159	H	0.806505	-0.414586	0.172989
H160	H	1.306505	0.085414	0.672989
H161	H	0.778443	-0.494492	0.128215
H162	H	1.278443	0.005508	0.628215
H163	H	0.734836	0.215056	0.814350
H164	H	1.234836	0.715056	1.314350
N165	N	0.231981	0.231676	0.090940
N166	N	0.731981	0.731676	0.590940
H167	H	0.181554	0.221897	0.084277
H168	H	0.681554	0.721897	0.584277
H169	H	0.245467	0.224071	0.145649
H170	H	0.745467	0.724071	0.645649
N171	N	0.918661	-0.007154	0.174806
N172	N	1.418661	0.492846	0.674806
H173	H	0.948584	-0.043311	0.211712
H174	H	1.448584	0.456689	0.711712
H175	H	0.892070	-0.044093	0.142132
H176	H	1.392070	0.455907	0.642132
N177	N	0.918715	-0.007142	0.824681
N178	N	1.418715	0.492858	1.324681
H179	H	0.892190	-0.044146	0.857393
H180	H	1.392190	0.455854	1.357393
H181	H	0.948622	-0.043234	0.787697
H182	H	1.448622	0.456766	1.287697
N183	N	0.155132	0.267490	-0.000241
N184	N	0.655132	0.767490	0.499759
H185	H	0.207781	0.256820	-0.000235
H186	H	0.707781	0.756820	0.499765
H187	H	0.138875	0.300593	-0.046651
H188	H	0.638875	0.800593	0.453349
H189	H	0.906187	0.007930	0.328186
H190	H	1.406187	0.507930	0.828186
H191	H	0.713107	-0.444044	0.050512
H192	H	1.213107	0.055956	0.550512
N193	N	0.636466	-0.041845	-0.000159
N194	N	1.136466	0.458155	0.499841
H195	H	0.686602	-0.029357	-0.000151
H196	H	1.186602	0.470643	0.499849
H197	H	0.627397	-0.075395	0.046247
H198	H	1.127397	0.424605	0.546247
H199	H	0.803994	0.249907	0.571257
H200	H	1.303994	0.749907	1.071257
H201	H	0.715268	-0.299341	-0.051431
H202	H	1.215268	0.200659	0.448569
N203	N	0.703128	-0.448951	-0.068367
N204	N	1.203128	0.051049	0.431633
H205	H	0.733750	-0.491173	-0.099614
H206	H	1.233750	0.008827	0.400386
H207	H	0.660425	-0.474729	-0.051232
H208	H	1.160425	0.025271	0.448768
N209	N	0.839440	-0.047076	0.417894
N210	N	1.339440	0.452924	0.917894
H211	H	0.838056	-0.035499	0.361996
H212	H	1.338056	0.464501	0.861996
H213	H	0.886011	-0.078946	0.431647
H214	H	1.386011	0.421054	0.931647
N215	N	0.931121	-0.485573	0.075617
N216	N	1.431121	0.014427	0.575617
H217	H	0.936732	-0.521473	0.122477
H218	H	1.436732	-0.021473	0.622477
H219	H	0.941301	-0.522274	0.029760
H220	H	1.441301	-0.022274	0.529760
N221	N	0.189550	-0.049744	-0.000252
N222	N	0.689550	0.450256	0.499748
H223	H	0.220004	-0.052612	-0.046653
H224	H	0.720004	0.447388	0.453347
H225	H	0.219908	-0.052573	0.046193
H226	H	0.719908	0.447427	0.546193
N227	N	0.934130	-0.327559	0.074753
N228	N	1.434130	0.172441	0.574753
H229	H	0.944558	-0.292238	0.029929
H230	H	1.444558	0.207762	0.529929
H231	H	0.941855	-0.295942	0.122657
H232	H	1.441855	0.204058	0.622657
N233	N	0.825979	-0.470019	-0.142806
N234	N	1.325979	0.029981	0.357194
H235	H	0.775671	-0.444259	-0.145154
H236	H	1.275671	0.055741	0.354846
H237	H	0.852224	-0.450543	-0.187493
H238	H	1.352224	0.049457	0.312507
H239	H	0.016310	0.244828	-0.000265
H240	H	0.516310	0.744828	0.499735
N241	N	0.258443	-0.011343	-0.091410
N242	N	0.758443	0.488657	0.408590
H243	H	0.270238	-0.003328	-0.146135
H244	H	0.770238	0.496672	0.353865
H245	H	0.277446	-0.070001	-0.074963
H246	H	0.777446	0.429999	0.425037
N247	N	0.933236	-0.325932	-0.077731
N248	N	1.433236	0.174068	0.422269
H249	H	0.943986	-0.289652	-0.033694
H250	H	1.443986	0.210348	0.466306
H251	H	0.965998	-0.379994	-0.077127
H252	H	1.465998	0.120006	0.422873
H253	H	0.837040	-0.026911	0.571273
H254	H	1.337040	0.473089	1.071273
N255	N	0.722344	0.230149	0.660984
N256	N	1.222344	0.730149	1.160984
H257	H	0.748880	0.267141	0.628272
H258	H	1.248880	0.767141	1.128272
H259	H	0.691600	0.198188	0.628354
H260	H	1.191600	0.698188	1.128354
H261	H	0.803967	0.249906	0.428305
H262	H	1.303967	0.749906	0.928305
H263	H	0.734799	0.215044	0.328262
H264	H	1.234799	0.715044	0.828262
N265	N	0.722293	0.230121	0.174885
N266	N	1.222293	0.730121	0.674885
H267	H	0.692373	0.266281	0.211814
H268	H	1.192373	0.766281	0.711814
H269	H	0.748877	0.267057	0.142172
H270	H	1.248877	0.767057	0.642172
N271	N	0.918700	-0.007145	0.660892
N272	N	1.418700	0.492855	1.160892
H273	H	0.948621	-0.043307	0.697797
H274	H	1.448621	0.456693	1.197797
H275	H	0.892110	-0.044079	0.628212
H276	H	1.392110	0.455921	1.128212
