data_functionalizedCrystal
_audit_creation_method	'MofGen! by Chris Wilmer'
_symmetry_space_group_name_H-M	'P1'
_symmetry_Int_Tables_number	1
_symmetry_cell_setting	triclinic
loop_
_symmetry_equiv_pos_as_xyz
  x,y,z
_cell_length_a	35.277628
_cell_length_b	35.288095
_cell_length_c	35.277682
_cell_angle_alpha	59.997929
_cell_angle_beta	89.998958
_cell_angle_gamma	60.000166
loop_
_atom_site_label
_atom_site_type_symbol
_atom_site_fract_x
_atom_site_fract_y
_atom_site_fract_z
O1	O	-0.323087	-0.271234	0.011271
O2	O	-0.267964	-0.193634	-0.011228
O3	O	-0.267962	-0.271233	0.066395
O4	O	-0.323089	-0.193635	-0.066351
O5	O	-0.204915	-0.334261	0.066394
O6	O	-0.204918	-0.256661	-0.011228
O7	O	-0.260040	-0.334261	0.011271
Zn8	Zn	-0.222469	-0.305468	0.000022
Zn9	Zn	-0.305535	-0.222427	0.000022
O10	O	-0.260043	-0.256662	-0.066351
C11	C	-0.163481	-0.071298	-0.023519
C12	C	-0.186872	-0.024531	-0.020298
C13	C	-0.117860	-0.093995	-0.023838
C14	C	-0.163483	-0.139918	-0.023524
C15	C	-0.186875	-0.166518	-0.020308
C16	C	-0.117862	-0.162510	-0.023843
C17	C	-0.094838	-0.139921	-0.023519
C18	C	-0.044836	-0.166525	-0.020298
C19	C	-0.186401	-0.093991	-0.023843
C20	C	-0.004439	-0.188019	-0.017694
C21	C	-0.205769	0.013252	-0.017695
C22	C	-0.205774	-0.188010	-0.017709
C23	C	0.046241	-0.214983	-0.014429
C24	C	-0.229477	0.060653	-0.014430
C25	C	-0.229483	-0.214971	-0.014450
C26	C	-0.500364	-0.466062	0.034181
C27	C	-0.477341	-0.511990	0.034503
C28	C	-0.431722	-0.466060	0.034178
C29	C	-0.408804	-0.511988	0.034500
C30	C	-0.431721	-0.534685	0.034181
C31	C	-0.477342	-0.443470	0.034500
C32	C	-0.665895	-0.342485	0.021756
C33	C	-0.712772	-0.317221	0.018243
C34	C	-0.736287	-0.338907	0.016481
C35	C	-0.787116	-0.311512	0.012664
C36	C	-0.712921	-0.385861	0.018236
C37	C	-0.666047	-0.411125	0.021755
C38	C	-0.642533	-0.389434	0.023515
C39	C	-0.389805	-0.687746	0.021758
C40	C	-0.368199	-0.731097	0.018245
C41	C	-0.322995	-0.752841	0.016478
C42	C	-0.299567	-0.799839	0.012662
C43	C	-0.299393	-0.731235	0.018230
C44	C	-0.320995	-0.687892	0.021751
C45	C	-0.366205	-0.666148	0.023512
C46	C	-0.389808	-0.342477	0.021744
C47	C	-0.368205	-0.317208	0.018222
C48	C	-0.322998	-0.338892	0.016457
C49	C	-0.299573	-0.311495	0.012637
C50	C	-0.299398	-0.385842	0.018210
C51	C	-0.321003	-0.411107	0.021730
C52	C	-0.366208	-0.389423	0.023501
C53	C	-0.591706	-0.416830	0.027326
C54	C	-0.551191	-0.438667	0.030366
C55	C	-0.408299	-0.438663	0.030360
C56	C	-0.389629	-0.416824	0.027317
C57	C	-0.408298	-0.581682	0.030365
C58	C	-0.389627	-0.619146	0.027325
C59	C	-0.432024	-0.061845	-0.438511
C60	C	-0.477645	-0.015917	-0.461431
C61	C	-0.432025	-0.061844	-0.369869
C62	C	-0.477645	-0.015916	-0.392892
C63	C	-0.500668	0.006779	-0.438513
C64	C	-0.409106	-0.084435	-0.392891
C65	C	-0.320834	-0.185425	-0.480424
C66	C	-0.299076	-0.210690	-0.502029
C67	C	-0.322531	-0.189005	-0.547237
C68	C	-0.298945	-0.216401	-0.570661
C69	C	-0.367745	-0.142051	-0.570839
C70	C	-0.389497	-0.116787	-0.549237
C71	C	-0.366040	-0.138476	-0.504027
C72	C	-0.666200	0.159838	-0.549704
C73	C	-0.713077	0.203188	-0.571462
C74	C	-0.736595	0.224934	-0.548009
C75	C	-0.787423	0.271931	-0.571594
C76	C	-0.713230	0.203329	-0.502796
C77	C	-0.666353	0.159987	-0.481041
C78	C	-0.642841	0.138241	-0.504500
C79	C	-0.320836	-0.185423	-0.204335
C80	C	-0.299080	-0.210691	-0.157455
C81	C	-0.322536	-0.189006	-0.133940
C82	C	-0.298950	-0.216402	-0.083110
C83	C	-0.367748	-0.142056	-0.157305
C84	C	-0.389502	-0.116792	-0.204182
C85	C	-0.366040	-0.138478	-0.227695
C86	C	-0.389632	-0.111079	-0.480604
C87	C	-0.408436	-0.089241	-0.461934
C88	C	-0.408437	-0.089240	-0.319041
C89	C	-0.389634	-0.111078	-0.278525
C90	C	-0.551496	0.053776	-0.462102
C91	C	-0.592011	0.091239	-0.480906
O92	O	0.196122	-0.334274	0.011291
O93	O	0.063378	-0.256674	-0.011208
O94	O	0.140994	-0.334276	0.066414
O95	O	0.118506	-0.256671	-0.066331
O96	O	0.140996	-0.271251	0.066419
O97	O	0.063380	-0.193649	-0.011203
O98	O	0.196124	-0.271249	0.011296
Zn99	Zn	0.129752	-0.222442	0.000047
Zn100	Zn	0.129750	-0.305480	0.000041
O101	O	0.118508	-0.193647	-0.066327
O102	O	-0.260036	0.184774	0.011294
O103	O	-0.204910	0.074561	-0.011204
O104	O	-0.204913	0.074554	0.066418
O105	O	-0.260033	0.184781	-0.066328
O106	O	-0.267961	0.074557	0.066413
O107	O	-0.267958	0.074564	-0.011209
O108	O	-0.323083	0.184777	0.011289
Zn109	Zn	-0.305531	0.129671	0.000039
Zn110	Zn	-0.222463	0.129667	0.000046
O111	O	-0.323081	0.184784	-0.066333
O112	O	-0.936929	0.397535	-0.602582
O113	O	-0.804185	0.287317	-0.547454
O114	O	-0.881802	0.287315	-0.547452
O115	O	-0.859312	0.397537	-0.602584
O116	O	-0.881801	0.287314	-0.610498
O117	O	-0.804183	0.287316	-0.610500
O118	O	-0.936927	0.397533	-0.665628
Zn119	Zn	-0.870555	0.342425	-0.648073
Zn120	Zn	-0.870557	0.342426	-0.565008
O121	O	-0.859310	0.397536	-0.665629
O122	O	-0.267961	-0.271234	-0.665316
O123	O	-0.323086	-0.193638	-0.610192
O124	O	-0.323085	-0.271236	-0.610189
O125	O	-0.267962	-0.193636	-0.665319
O126	O	-0.260038	-0.334264	-0.547142
O127	O	-0.260039	-0.256666	-0.547145
O128	O	-0.204914	-0.334262	-0.602269
Zn129	Zn	-0.222466	-0.305471	-0.564697
Zn130	Zn	-0.305534	-0.222429	-0.647764
O131	O	-0.204915	-0.256664	-0.602272
C132	C	-0.094840	-0.456607	0.293255
C133	C	-0.044837	-0.503376	0.316647
C134	C	-0.117862	-0.433912	0.316174
C135	C	-0.163483	-0.387984	0.224612
C136	C	-0.186875	-0.361381	0.174609
C137	C	-0.186401	-0.365393	0.247634
C138	C	-0.163483	-0.387984	0.293255
C139	C	-0.186874	-0.361382	0.316646
C140	C	-0.117862	-0.433912	0.247635
C141	C	-0.205772	-0.339889	0.335543
C142	C	-0.004440	-0.541160	0.335545
C143	C	-0.205773	-0.339888	0.134212
C144	C	-0.229480	-0.312925	0.359250
C145	C	0.046239	-0.588562	0.359254
C146	C	-0.229481	-0.312924	0.083532
C147	C	0.153295	-0.388013	0.293279
C148	C	0.150076	-0.361413	0.316673
C149	C	0.153614	-0.433940	0.316196
C150	C	0.153297	-0.388008	0.224634
C151	C	0.150079	-0.361403	0.174632
C152	C	0.153616	-0.433935	0.247655
C153	C	0.153293	-0.456633	0.293275
C154	C	0.150072	-0.503401	0.316665
C155	C	0.153617	-0.365420	0.247659
C156	C	0.147469	-0.541185	0.335561
C157	C	0.147474	-0.339922	0.335572
C158	C	0.147479	-0.339908	0.134234
C159	C	0.144204	-0.588587	0.359267
C160	C	0.144211	-0.312962	0.359282
C161	C	0.144218	-0.312942	0.083555
C162	C	-0.163482	-0.139963	0.293267
C163	C	-0.186875	-0.166567	0.316654
C164	C	-0.117861	-0.162559	0.316187
C165	C	-0.163482	-0.071333	0.224628
C166	C	-0.186873	-0.024557	0.174627
C167	C	-0.117860	-0.094033	0.247653
C168	C	-0.094838	-0.139967	0.293272
C169	C	-0.044835	-0.166574	0.316665
C170	C	-0.186401	-0.094030	0.247648
C171	C	-0.004438	-0.188070	0.335563
C172	C	-0.205773	-0.188061	0.335549
C173	C	-0.205771	0.013233	0.134231
C174	C	0.046242	-0.215038	0.359273
C175	C	-0.229482	-0.215026	0.359253
C176	C	-0.229479	0.060643	0.083553
C177	C	0.095627	0.006487	-0.438489
C178	C	0.095306	-0.016206	-0.461409
C179	C	0.095623	-0.062137	-0.369847
C180	C	0.095303	-0.084726	-0.392871
C181	C	0.095625	-0.062133	-0.438492
C182	C	0.095305	-0.016210	-0.392868
C183	C	0.108059	0.159543	-0.480399
C184	C	0.111575	0.202893	-0.502003
C185	C	0.113340	0.224640	-0.547210
C186	C	0.117161	0.271637	-0.570634
C187	C	0.111587	0.203038	-0.570814
C188	C	0.108065	0.159695	-0.549212
C189	C	0.106302	0.137948	-0.504002
C190	C	0.108054	-0.116452	-0.549685
C191	C	0.111568	-0.141562	-0.571444
C192	C	0.113332	-0.188519	-0.547992
C193	C	0.117148	-0.215753	-0.571578
C194	C	0.111577	-0.210363	-0.502779
C195	C	0.108055	-0.185249	-0.481023
C196	C	0.106297	-0.138292	-0.504481
C197	C	0.108046	-0.116473	-0.204312
C198	C	0.111564	-0.141591	-0.157432
C199	C	0.113326	-0.188548	-0.133918
C200	C	0.117142	-0.215786	-0.083088
C201	C	0.111574	-0.210388	-0.157283
C202	C	0.108058	-0.185270	-0.204161
C203	C	0.106290	-0.138308	-0.227673
C204	C	0.102487	0.090947	-0.480580
C205	C	0.099445	0.053484	-0.461911
C206	C	0.099438	-0.089371	-0.319019
C207	C	0.102477	-0.111078	-0.278503
C208	C	0.099442	-0.089362	-0.462081
C209	C	0.102482	-0.111066	-0.480886
O210	O	0.118477	-0.256700	0.452885
O211	O	0.140984	-0.334299	0.397762
O212	O	0.063360	-0.256699	0.397752
O213	O	0.196101	-0.334300	0.452895
O214	O	0.063367	-0.193672	0.334708
O215	O	0.140992	-0.271271	0.334718
O216	O	0.118484	-0.193673	0.389842
Zn217	Zn	0.129739	-0.222465	0.352270
Zn218	Zn	0.129729	-0.305506	0.435333
O219	O	0.196108	-0.271272	0.389852
C220	C	-0.500364	0.533998	-0.438484
C221	C	-0.477341	0.556591	-0.461399
C222	C	-0.431721	0.465364	-0.369840
C223	C	-0.408802	0.488061	-0.392859
C224	C	-0.431720	0.533995	-0.438478
C225	C	-0.477342	0.488064	-0.392865
C226	C	-0.665898	0.588334	-0.480407
C227	C	-0.712776	0.613450	-0.502014
C228	C	-0.736291	0.660414	-0.547220
C229	C	-0.787122	0.687654	-0.570647
C230	C	-0.712926	0.682257	-0.570819
C231	C	-0.666050	0.657138	-0.549214
C232	C	-0.642536	0.610174	-0.504006
C233	C	-0.389802	0.657585	-0.549654
C234	C	-0.368196	0.682850	-0.571408
C235	C	-0.322990	0.661164	-0.547952
C236	C	-0.299561	0.688558	-0.571532
C237	C	-0.299388	0.614205	-0.502740
C238	C	-0.320990	0.588935	-0.480990
C239	C	-0.366202	0.610633	-0.504452
C240	C	-0.389804	0.312282	-0.204314
C241	C	-0.368201	0.268929	-0.157436
C242	C	-0.322993	0.247179	-0.133918
C243	C	-0.299567	0.200174	-0.083089
C244	C	-0.299392	0.268786	-0.157278
C245	C	-0.320998	0.312139	-0.204154
C246	C	-0.366204	0.333881	-0.227670
C247	C	-0.591708	0.582942	-0.480581
C248	C	-0.551193	0.561234	-0.461909
C249	C	-0.408297	0.418359	-0.319013
C250	C	-0.389626	0.380890	-0.278499
C251	C	-0.408296	0.561393	-0.462062
C252	C	-0.389624	0.583232	-0.480862
H253	H	-0.371321	-0.530978	0.035012
C254	C	-0.237037	-0.068363	0.222673
H255	H	-0.247446	-0.037700	0.192151
H256	H	-0.256094	-0.058004	0.239375
H257	H	-0.238807	-0.093550	0.221079
C258	C	-0.249349	-0.262335	-0.476068
H259	H	-0.239751	-0.274274	-0.495410
H260	H	-0.248680	-0.289275	-0.448520
H261	H	-0.228934	-0.255315	-0.468263
H262	H	-0.495826	0.593550	-0.498882
H263	H	0.112999	-0.123775	-0.608256
H264	H	-0.301770	0.550701	-0.444180
C265	C	0.154313	-0.315494	0.222689
H266	H	0.154455	-0.305228	0.242944
H267	H	0.127534	-0.286954	0.195718
H268	H	0.181387	-0.323506	0.214007
C269	C	-0.237037	-0.315468	0.222667
H270	H	-0.247445	-0.305206	0.242925
H271	H	-0.256096	-0.323472	0.213975
H272	H	-0.238803	-0.286921	0.195700
C273	C	0.113527	0.226958	-0.620538
H274	H	0.111973	0.207889	-0.631502
H275	H	0.141755	0.224134	-0.620526
H276	H	0.088040	0.263609	-0.640267
H277	H	-0.732378	0.221040	-0.483702
C278	C	0.094643	-0.134676	-0.367891
H279	H	0.094512	-0.144953	-0.337362
H280	H	0.121435	-0.163197	-0.366323
H281	H	0.067581	-0.126696	-0.384574
C282	C	-0.295036	0.335901	-0.229849
H283	H	-0.265016	0.316736	-0.209132
H284	H	-0.311902	0.372542	-0.241015
H285	H	-0.292164	0.333073	-0.255250
H286	H	-0.496128	0.003076	-0.374407
H287	H	-0.099379	-0.074998	-0.024355
C288	C	-0.295036	-0.664127	0.023676
H289	H	-0.265021	-0.683281	0.022117
H290	H	-0.292164	-0.666954	0.051903
H291	H	-0.311909	-0.627483	-0.001815
H292	H	0.106623	-0.203035	-0.444212
C293	C	-0.502308	-0.393546	0.035196
H294	H	-0.482049	-0.383283	0.035339
H295	H	-0.510999	-0.401551	0.062262
H296	H	-0.529274	-0.364999	0.008409
C297	C	-0.092901	-0.459576	0.366814
H298	H	-0.113163	-0.439474	0.377225
H299	H	-0.065931	-0.459767	0.368594
H300	H	-0.084218	-0.495322	0.385865
C301	C	-0.092892	-0.068368	0.222692
H302	H	-0.113148	-0.037703	0.192168
H303	H	-0.065920	-0.093554	0.221109
H304	H	-0.084213	-0.058002	0.239398
C305	C	-0.237035	-0.068339	-0.024537
H306	H	-0.247444	-0.088447	-0.024681
H307	H	-0.256095	-0.032590	-0.051601
H308	H	-0.238799	-0.068165	0.002253
C309	C	0.094603	0.009459	-0.512047
H310	H	0.094465	0.040115	-0.522458
H311	H	0.067532	0.019828	-0.531101
H312	H	0.121384	-0.015733	-0.513820
H313	H	0.113004	0.220477	-0.482781
C314	C	-0.393580	-0.118259	-0.620528
H315	H	-0.423629	-0.086695	-0.631481
H316	H	-0.396368	-0.143719	-0.620438
H317	H	-0.376694	-0.109692	-0.640314
C318	C	-0.502307	-0.537655	0.035207
H319	H	-0.532833	-0.517546	0.035346
H320	H	-0.485606	-0.573399	0.062278
H321	H	-0.503889	-0.537844	0.008425
C322	C	-0.092888	-0.212490	0.366821
H323	H	-0.062366	-0.222751	0.377233
H324	H	-0.091304	-0.241032	0.368586
H325	H	-0.109587	-0.204486	0.385882
C326	C	-0.640035	0.536677	-0.430683
H327	H	-0.608772	0.524848	-0.421192
H328	H	-0.640570	0.509679	-0.429961
H329	H	-0.654802	0.543639	-0.410215
C330	C	-0.295028	-0.209280	-0.430699
H331	H	-0.264985	-0.240856	-0.419739
H332	H	-0.311956	-0.217834	-0.410967
H333	H	-0.292217	-0.183866	-0.430717
H334	H	-0.099372	-0.452898	0.229148
H335	H	-0.647332	0.142401	-0.444230
H336	H	0.154138	-0.452930	0.229170
H337	H	0.154122	-0.452930	0.353678
C338	C	-0.502701	0.009582	-0.511987
H339	H	-0.533248	0.040195	-0.522374
H340	H	-0.504226	-0.015745	-0.513558
H341	H	-0.486113	0.019988	-0.531196
H342	H	-0.371622	-0.121391	-0.374409
H343	H	-0.426308	-0.078556	-0.568458
C344	C	-0.394167	-0.265563	0.016290
H345	H	-0.424182	-0.256270	0.017850
H346	H	-0.397041	-0.237300	-0.011941
H347	H	-0.377296	-0.271263	0.041776
C348	C	0.106114	0.135627	-0.430673
H349	H	0.103772	0.106715	-0.421185
H350	H	0.079832	0.162437	-0.429950
H351	H	0.133547	0.122962	-0.410205
H352	H	-0.386847	-0.124399	-0.138156
H353	H	-0.426314	-0.078564	-0.223203
C354	C	0.094601	0.009449	-0.367898
H355	H	0.094458	0.040109	-0.388152
H356	H	0.121377	-0.015743	-0.340924
H357	H	0.067525	0.019821	-0.359220
H358	H	-0.426617	-0.324814	0.023182
C359	C	0.113487	-0.117566	-0.131735
H360	H	0.111927	-0.085999	-0.152454
H361	H	0.141714	-0.142912	-0.106334
H362	H	0.087997	-0.108953	-0.120570
H363	H	0.113009	-0.248624	-0.138135
C364	C	-0.640032	-0.318630	0.023701
H365	H	-0.660657	-0.287055	0.022160
H366	H	-0.628856	-0.310076	-0.001782
H367	H	-0.614628	-0.344046	0.051935
H368	H	0.106608	-0.078237	-0.223453
C369	C	-0.738471	-0.265573	0.016306
H370	H	-0.717755	-0.256272	0.017853
H371	H	-0.749642	-0.271266	0.041789
H372	H	-0.763868	-0.237313	-0.011928
C373	C	0.106142	0.135932	-0.575171
H374	H	0.107703	0.155086	-0.605187
H375	H	0.077916	0.138757	-0.578046
H376	H	0.131632	0.099288	-0.558297
C377	C	0.106112	-0.064799	-0.575490
H378	H	0.107656	-0.055383	-0.605533
H379	H	0.131596	-0.070552	-0.558560
H380	H	0.077880	-0.036590	-0.578302
C381	C	-0.439528	0.681445	-0.575462
H382	H	-0.450486	0.713024	-0.605504
H383	H	-0.459258	0.689994	-0.558532
H384	H	-0.439513	0.656035	-0.578279
H385	H	-0.426614	0.329984	-0.223458
H386	H	-0.732070	-0.403516	0.016804
C387	C	-0.640349	-0.462766	0.023683
H388	H	-0.661067	-0.472062	0.022126
H389	H	-0.614949	-0.491030	0.051910
H390	H	-0.629185	-0.457060	-0.001808
H391	H	-0.426615	-0.670047	0.023195
H392	H	0.113006	-0.248593	-0.483685
C393	C	0.106125	-0.209289	-0.229861
H394	H	0.107673	-0.240848	-0.209145
H395	H	0.131609	-0.217903	-0.241030
H396	H	0.077893	-0.183934	-0.255260
C397	C	-0.394161	-0.754855	0.016312
H398	H	-0.424180	-0.735694	0.017862
H399	H	-0.377295	-0.791499	0.041796
H400	H	-0.397034	-0.752020	-0.011921
H401	H	-0.371318	0.469063	-0.374372
H402	H	-0.495832	0.469078	-0.374381
C403	C	-0.394162	0.245165	-0.131742
H404	H	-0.424177	0.264322	-0.152462
H405	H	-0.397034	0.247988	-0.106341
H406	H	-0.377291	0.208522	-0.120579
C407	C	-0.249661	0.590343	-0.476936
H408	H	-0.238698	0.558757	-0.446899
H409	H	-0.249671	0.615748	-0.474119
H410	H	-0.229933	0.581794	-0.493870
H411	H	-0.262584	-0.748943	0.016794
C412	C	-0.249663	0.244863	-0.131411
H413	H	-0.240173	0.215946	-0.100149
H414	H	-0.248937	0.271670	-0.131943
H415	H	-0.229200	0.232205	-0.146182
H416	H	-0.731797	0.595663	-0.482796
C417	C	-0.738792	0.733914	-0.620540
H418	H	-0.770058	0.745750	-0.630026
H419	H	-0.724029	0.726960	-0.641010
H420	H	-0.738254	0.760909	-0.621254
H421	H	-0.301784	-0.449335	0.023157
C422	C	-0.249710	-0.409630	0.016162
H423	H	-0.240232	-0.387842	0.013786
H424	H	-0.249073	-0.410834	-0.010149
H425	H	-0.229182	-0.444868	0.043562
H426	H	-0.262268	-0.248920	-0.138435
C427	C	-0.640352	0.681166	-0.575169
H428	H	-0.661071	0.712735	-0.605184
H429	H	-0.614953	0.655822	-0.578044
H430	H	-0.629187	0.689776	-0.558292
C431	C	-0.394160	0.734506	-0.621131
H432	H	-0.424180	0.743810	-0.631984
H433	H	-0.377297	0.728822	-0.640923
H434	H	-0.397029	0.762761	-0.621158
H435	H	-0.099380	-0.199466	-0.024359
C436	C	-0.295031	-0.209280	-0.230197
H437	H	-0.264992	-0.240863	-0.209568
H438	H	-0.292218	-0.183871	-0.255602
H439	H	-0.311963	-0.217832	-0.241370
C440	C	-0.640337	0.135926	-0.575509
H441	H	-0.660963	0.155004	-0.605552
H442	H	-0.629161	0.099277	-0.558580
H443	H	-0.614933	0.138753	-0.578322
H444	H	-0.732097	0.220775	-0.608274
