data_functionalizedCrystal
_audit_creation_method	'MofGen! by Chris Wilmer'
_symmetry_space_group_name_H-M	'P1'
_symmetry_Int_Tables_number	1
_symmetry_cell_setting	triclinic
loop_
_symmetry_equiv_pos_as_xyz
  x,y,z
_cell_length_a	14.971486
_cell_length_b	14.048226
_cell_length_c	14.971486
_cell_angle_alpha	90.007287
_cell_angle_beta	83.614129
_cell_angle_gamma	89.996377
loop_
_atom_site_label
_atom_site_type_symbol
_atom_site_fract_x
_atom_site_fract_y
_atom_site_fract_z
O1	O	1.186940	0.079052	0.116566
O2	O	1.520274	0.412385	0.449900
O3	O	1.853607	0.745718	0.783233
O4	O	0.926540	0.079078	0.130525
O5	O	1.259873	0.412411	0.463858
O6	O	1.593207	0.745744	0.797192
O7	O	1.063720	0.079057	-0.006654
O8	O	1.397053	0.412390	0.326679
O9	O	1.730386	0.745724	0.660012
O10	O	1.049761	0.079072	0.253746
O11	O	1.383094	0.412405	0.587079
O12	O	1.716427	0.745739	0.920412
O13	O	1.063717	-0.079264	-0.006666
O14	O	1.397050	0.254069	0.326668
O15	O	1.730383	0.587402	0.660001
O16	O	0.926537	-0.079244	0.130514
O17	O	1.259871	0.254090	0.463847
O18	O	1.593204	0.587423	0.797180
O19	O	1.186937	-0.079270	0.116555
O20	O	1.520271	0.254064	0.449888
O21	O	1.853604	0.587397	0.783222
Zn22	Zn	1.056737	-0.104394	0.123533
Zn23	Zn	1.390070	0.228940	0.456866
Zn24	Zn	1.723403	0.562273	0.790199
Zn25	Zn	1.056741	0.104202	0.123547
Zn26	Zn	1.390074	0.437535	0.456881
Zn27	Zn	1.723407	0.770868	0.790214
O28	O	1.049758	-0.079249	0.253734
O29	O	1.383091	0.254084	0.587068
O30	O	1.716425	0.587417	0.920401
C31	C	0.893214	-0.000080	0.129895
C32	C	1.226547	0.333254	0.463228
C33	C	1.559881	0.666587	0.796562
C34	C	0.793917	-0.000070	0.128024
C35	C	1.127250	0.333263	0.461358
C36	C	1.460583	0.666597	0.794691
C37	C	0.736692	-0.000067	0.208614
C38	C	1.070025	0.333267	0.541947
C39	C	1.403358	0.666600	0.875280
C40	C	0.643392	-0.000081	0.206850
C41	C	0.976725	0.333252	0.540184
C42	C	1.310059	0.666586	0.873517
C43	C	0.607320	-0.000092	0.124497
C44	C	0.940653	0.333241	0.457831
C45	C	1.273986	0.666575	0.791164
C46	C	0.664552	-0.000098	0.043902
C47	C	0.997886	0.333235	0.377235
C48	C	1.331219	0.666569	0.710569
C49	C	0.757850	-0.000090	0.045666
C50	C	1.091183	0.333243	0.378999
C51	C	1.424517	0.666576	0.712333
C52	C	0.470090	-0.000111	0.040231
C53	C	0.803423	0.333222	0.373564
C54	C	1.136757	0.666555	0.706897
C55	C	0.376786	-0.000117	0.038466
C56	C	0.710119	0.333216	0.371800
C57	C	1.043453	0.666550	0.705133
C58	C	0.355632	-0.000102	0.201415
C59	C	0.688965	0.333231	0.534749
C60	C	1.022299	0.666565	0.868082
C61	C	0.448930	-0.000094	0.203179
C62	C	0.782263	0.333239	0.536513
C63	C	1.115596	0.666572	0.869846
C64	C	0.506156	-0.000099	0.122584
C65	C	0.839489	0.333235	0.455917
C66	C	1.172822	0.666568	0.789250
C67	C	1.063094	-0.000103	-0.039985
C68	C	1.396427	0.333230	0.293348
C69	C	1.729761	0.666563	0.626682
C70	C	1.061223	-0.000102	-0.139282
C71	C	1.394556	0.333231	0.194051
C72	C	1.727890	0.666565	0.527385
C73	C	1.220263	-0.000110	0.117185
C74	C	1.553597	0.333223	0.450518
C75	C	1.886930	0.666556	0.783851
C76	C	1.319561	-0.000114	0.119056
C77	C	1.652894	0.333220	0.452389
C78	C	1.986227	0.666553	0.785722
N79	N	1.056744	0.246562	0.123551
N80	N	1.390077	0.579896	0.456884
N81	N	1.723410	0.913229	0.790218
N82	N	1.056741	-0.246754	0.123522
N83	N	1.390074	0.086579	0.456855
N84	N	1.723407	0.419912	0.790188
C85	C	1.117600	0.296371	0.062928
C86	C	1.450933	0.629705	0.396261
C87	C	1.784267	0.963038	0.729594
C88	C	1.117604	0.396029	0.062925
C89	C	1.450937	0.729362	0.396258
C90	C	1.784271	1.062696	0.729591
C91	C	1.056746	0.445876	0.123542
C92	C	1.390079	0.779209	0.456875
C93	C	1.723413	1.112542	0.790208
C94	C	0.995887	0.396060	0.184172
C95	C	1.329220	0.729393	0.517505
C96	C	1.662553	1.062726	0.850838
C97	C	0.995888	0.296404	0.184178
C98	C	1.329221	0.629737	0.517511
C99	C	1.662555	0.963071	0.850845
C100	C	0.995887	0.603774	0.184153
C101	C	1.329220	0.937107	0.517486
C102	C	1.662554	1.270441	0.850819
C103	C	0.995884	0.703437	0.184145
C104	C	1.329218	1.036770	0.517479
C105	C	1.662551	1.370103	0.850812
C106	C	1.117603	0.703399	0.062899
C107	C	1.450936	1.036732	0.396233
C108	C	1.784269	1.370066	0.729566
C109	C	1.117604	0.603743	0.062906
C110	C	1.450937	0.937076	0.396239
C111	C	1.784271	1.270410	0.729572
C112	C	1.056743	0.553934	0.123535
C113	C	1.390077	0.887267	0.456868
C114	C	1.723410	1.220601	0.790201
C115	C	1.141812	-0.000111	-0.196507
C116	C	1.475146	0.333222	0.136826
C117	C	1.808479	0.666556	0.470159
C118	C	1.140049	-0.000101	-0.289807
C119	C	1.473383	0.333232	0.043527
C120	C	1.806716	0.666566	0.376860
C121	C	1.057696	-0.000089	-0.325879
C122	C	1.391029	0.333244	0.007454
C123	C	1.724363	0.666577	0.340788
C124	C	0.977101	-0.000078	-0.268646
C125	C	1.310434	0.333255	0.064687
C126	C	1.643767	0.666589	0.398020
C127	C	0.978865	-0.000081	-0.175349
C128	C	1.312198	0.333253	0.157985
C129	C	1.645531	0.666586	0.491318
C130	C	0.973430	-0.000074	-0.463109
C131	C	1.306763	0.333259	-0.129776
C132	C	1.640096	0.666593	0.203558
C133	C	0.971665	-0.000073	-0.556413
C134	C	1.304998	0.333260	-0.223080
C135	C	1.638332	0.666594	0.110254
C136	C	1.134614	-0.000094	-0.577567
C137	C	1.467947	0.333239	-0.244233
C138	C	1.801281	0.666572	0.089100
C139	C	1.136378	-0.000097	-0.484269
C140	C	1.469712	0.333236	-0.150936
C141	C	1.803045	0.666569	0.182397
C142	C	1.055782	-0.000088	-0.427043
C143	C	1.389116	0.333246	-0.093710
C144	C	1.722449	0.666579	0.239624
C145	C	1.050384	-0.000087	0.287065
C146	C	1.383717	0.333246	0.620398
C147	C	1.717050	0.666580	0.953731
C148	C	1.052254	-0.000082	0.386362
C149	C	1.385588	0.333252	0.719695
C150	C	1.718921	0.666585	1.053028
H151	H	0.635175	-0.000120	-0.023152
H152	H	0.968508	0.333213	0.310182
H153	H	1.301842	0.666546	0.643515
Cl154	Cl	0.919383	0.458722	0.260382
Cl155	Cl	1.252716	0.792055	0.593715
Cl156	Cl	1.586049	1.125389	0.927048
Cl157	Cl	1.194111	0.458648	-0.013288
Cl158	Cl	1.527445	0.791981	0.320045
Cl159	Cl	1.860778	1.125314	0.653379
Cl160	Cl	0.829791	-0.000099	-0.055651
Cl161	Cl	1.163125	0.333235	0.277683
Cl162	Cl	1.496458	0.666568	0.611016
H163	H	1.167158	0.743959	0.013533
H164	H	1.500491	1.077293	0.346867
H165	H	1.833824	1.410626	0.680200
H166	H	0.766054	-0.000057	0.275675
H167	H	1.099387	0.333276	0.609008
H168	H	1.432720	0.666609	0.942342
H169	H	1.208874	-0.000126	-0.167145
H170	H	1.542207	0.333207	0.166188
H171	H	1.875541	0.666540	0.499522
H172	H	1.167154	0.563158	0.013543
H173	H	1.500488	0.896491	0.346876
H174	H	1.833821	1.229825	0.680209
Cl175	Cl	1.235935	-0.000102	-0.649508
Cl176	Cl	1.569268	0.333232	-0.316174
Cl177	Cl	1.902601	0.666565	0.017159
H178	H	1.205673	-0.000110	-0.336396
H179	H	1.539007	0.333223	-0.003063
H180	H	1.872340	0.666556	0.330270
Cl181	Cl	0.919376	0.766094	0.260355
Cl182	Cl	1.252709	1.099427	0.593689
Cl183	Cl	1.586042	1.432760	0.927022
H184	H	0.347419	-0.000127	-0.028593
H185	H	0.680753	0.333206	0.304740
H186	H	1.014086	0.666540	0.638074
H187	H	0.913240	-0.000074	-0.128756
H188	H	1.246574	0.333260	0.204577
H189	H	1.579907	0.666593	0.537911
H190	H	0.596802	-0.000077	0.272474
H191	H	0.930136	0.333256	0.605808
H192	H	1.263469	0.666589	0.939141
Cl193	Cl	1.239910	-0.000107	-0.438922
Cl194	Cl	1.573243	0.333226	-0.105589
Cl195	Cl	1.906576	0.666559	0.227744
H196	H	0.478296	-0.000077	0.270239
H197	H	0.811630	0.333257	0.603572
H198	H	1.144963	0.666590	0.936905
H199	H	0.309033	-0.000103	0.267039
H200	H	0.642367	0.333231	0.600373
H201	H	0.975700	0.666564	0.933706
Cl202	Cl	0.919376	0.541161	0.260376
Cl203	Cl	1.252710	0.874494	0.593710
Cl204	Cl	1.586043	1.207827	0.927043
H205	H	0.946334	0.255850	0.233545
H206	H	1.279667	0.589184	0.566878
H207	H	1.613000	0.922517	0.900212
Cl208	Cl	0.542030	-0.000119	-0.061092
Cl209	Cl	0.875364	0.333215	0.272242
Cl210	Cl	1.208697	0.666548	0.605575
Cl211	Cl	0.868134	-0.000059	-0.601760
Cl212	Cl	1.201467	0.333274	-0.268426
Cl213	Cl	1.534800	0.666608	0.064907
H214	H	0.907800	-0.000064	-0.416517
H215	H	1.241133	0.333270	-0.083184
H216	H	1.574466	0.666603	0.250150
Cl217	Cl	1.194108	0.233717	-0.013286
Cl218	Cl	1.527441	0.567050	0.320048
Cl219	Cl	1.860774	0.900384	0.653381
H220	H	0.910047	-0.000062	-0.298024
H221	H	1.243380	0.333271	0.035310
H222	H	1.576714	0.666604	0.368643
