data_functionalizedCrystal
_audit_creation_method	'MofGen! by Chris Wilmer'
_symmetry_space_group_name_H-M	'P1'
_symmetry_Int_Tables_number	1
_symmetry_cell_setting	triclinic
loop_
_symmetry_equiv_pos_as_xyz
  x,y,z
_cell_length_a	19.188930
_cell_length_b	16.109295
_cell_length_c	14.586319
_cell_angle_alpha	90.000576
_cell_angle_beta	89.991095
_cell_angle_gamma	96.698016
loop_
_atom_site_label
_atom_site_type_symbol
_atom_site_fract_x
_atom_site_fract_y
_atom_site_fract_z
O1	O	0.089725	-1.102836	-0.076188
O2	O	0.100898	-0.860737	-0.076205
O3	O	-0.006328	-0.988773	-0.076178
O4	O	0.196951	-0.974800	-0.076215
O5	O	-0.006329	-0.988764	0.076302
O6	O	0.100896	-0.860728	0.076276
O7	O	0.089724	-1.102828	0.076292
Cu8	Cu	0.095310	-0.981777	0.090207
Cu9	Cu	0.095312	-0.981787	-0.090120
O10	O	0.196949	-0.974791	0.076266
C11	C	0.100445	-0.829759	0.000033
C12	C	0.099090	-0.737468	0.000028
C13	C	-0.032341	-0.988316	0.000065
C14	C	-0.109848	-0.986958	0.000072
C15	C	0.159565	-0.514994	0.000026
C16	C	0.158286	-0.428278	0.000032
C17	C	0.031069	-0.448574	0.000051
C18	C	0.032348	-0.535289	0.000052
C19	C	0.096598	-0.568496	0.000035
C20	C	0.094040	-0.395065	0.000040
C21	C	0.092654	-0.301044	0.000046
C22	C	0.097985	-0.662524	0.000030
C23	C	-0.154598	-1.062085	0.000082
C24	C	-0.227425	-1.060809	0.000067
C25	C	-0.255499	-0.984401	0.000061
C26	C	-0.210739	-0.909264	0.000046
C27	C	-0.137914	-0.910542	0.000052
N28	N	-0.363640	-0.925994	0.051949
N29	N	-0.432821	-0.924784	0.051946
C30	C	-0.474916	-0.980545	0.000042
N31	N	-0.445218	-1.037574	-0.051846
N32	N	-0.376030	-1.038786	-0.051839
C33	C	-0.334464	-0.983007	0.000055
C34	C	-0.598634	-1.054294	0.000035
C35	C	-0.671461	-1.053015	0.000014
C36	C	-0.654774	-0.901468	0.000003
C37	C	-0.581948	-0.902749	0.000014
C38	C	-0.553882	-0.979165	0.000034
C39	C	0.222962	-0.975248	0.000021
C40	C	0.300470	-0.976606	0.000007
N41	N	0.095308	-0.981776	0.217038
C42	C	0.090181	-0.133805	0.000051
C43	C	0.091548	-0.226094	0.000047
N44	N	0.095308	-0.981795	-0.216951
C45	C	0.047844	-1.038489	0.452057
C46	C	0.047843	-1.038491	0.548038
C47	C	0.142774	-0.925076	0.548024
C48	C	0.142772	-0.925070	0.452044
C49	C	0.095308	-0.981781	0.404063
C50	C	0.095308	-0.981790	0.596024
C51	C	0.095307	-0.981792	0.700091
C52	C	0.095308	-0.981778	0.299989
H53	H	0.211881	-0.542029	0.000019
H54	H	-0.263867	-1.121989	0.000071
H55	H	-0.101478	-0.849362	0.000044
C56	C	-0.123726	-1.146137	0.000101
H57	H	-0.073944	-1.136141	0.000111
H58	H	-0.139081	-1.177069	-0.053067
H59	H	-0.139097	-1.177049	0.053287
C60	C	-0.720690	-1.135657	0.000014
H61	H	-0.768082	-1.123954	-0.000006
H62	H	-0.712196	-1.166999	0.053192
H63	H	-0.712169	-1.167001	-0.053162
H64	H	0.181422	-0.878889	0.412965
C65	C	0.194966	-0.862679	0.600801
H66	H	0.223222	-0.828893	0.558469
H67	H	0.224046	-0.892457	0.638247
H68	H	0.169818	-0.828173	0.638237
H69	H	-0.545511	-0.841572	0.000011
C70	C	0.227550	-0.369429	0.000016
H71	H	0.265995	-0.401629	-0.000001
H72	H	0.229698	-0.335179	0.053189
H73	H	0.229694	-0.335182	-0.053165
H74	H	-0.021241	-0.421525	0.000071
H75	H	-0.018930	-0.578853	0.000062
C76	C	-0.004366	-1.100867	0.600831
H77	H	0.002426	-1.092745	0.664866
H78	H	0.003228	-1.156324	0.585098
H79	H	-0.050967	-1.092002	0.585110
H80	H	0.009195	-1.084665	0.412993
C81	C	-0.241614	-0.825215	0.000036
H82	H	-0.204529	-0.780653	0.000023
H83	H	-0.269685	-0.821559	0.053206
H84	H	-0.269667	-0.821575	-0.053147
C85	C	-0.567758	-1.138346	0.000047
H86	H	-0.604843	-1.182908	0.000037
H87	H	-0.539706	-1.141993	0.053224
H88	H	-0.539686	-1.141996	-0.053129
H89	H	-0.677631	-0.839255	-0.000007
