data_functionalizedCrystal
_audit_creation_method	'MofGen! by Chris Wilmer'
_symmetry_space_group_name_H-M	'P1'
_symmetry_Int_Tables_number	1
_symmetry_cell_setting	triclinic
loop_
_symmetry_equiv_pos_as_xyz
  x,y,z
_cell_length_a	12.645330
_cell_length_b	21.395364
_cell_length_c	21.395355
_cell_angle_alpha	90.025298
_cell_angle_beta	89.987670
_cell_angle_gamma	89.965607
loop_
_atom_site_label
_atom_site_type_symbol
_atom_site_fract_x
_atom_site_fract_y
_atom_site_fract_z
Zn1	Zn	-0.421690	-0.957916	-0.354301
Zn2	Zn	-0.598939	-0.957842	-0.249535
Zn3	Zn	-0.421742	-0.853131	-0.249536
Zn4	Zn	-0.598963	-0.853124	-0.354274
O5	O	-0.510333	-0.905503	-0.301911
O6	O	-0.445170	-1.045584	-0.340414
O7	O	-0.575445	-0.943924	-0.161857
O8	O	-0.273387	-0.867065	-0.263446
O9	O	-0.575395	-1.045530	-0.263443
O10	O	-0.273349	-0.944050	-0.340416
O11	O	-0.445259	-0.866993	-0.161858
O12	O	-0.445282	-0.765452	-0.263419
O13	O	-0.575436	-0.867053	-0.441955
O14	O	-0.575486	-0.765447	-0.340369
O15	O	-0.445194	-0.944043	-0.441975
O16	O	-0.747289	-0.943917	-0.263416
O17	O	-0.747307	-0.866981	-0.340368
C18	C	-0.510393	-0.742716	-0.301892
C19	C	-0.510445	-0.673074	-0.301898
C20	C	-0.442750	-0.640412	-0.342039
C21	C	-0.442725	-0.574976	-0.342040
C22	C	-0.510414	-0.542206	-0.301908
C23	C	-0.578114	-0.574876	-0.261760
C24	C	-0.578129	-0.640311	-0.261755
C25	C	-0.605887	-0.438494	-0.296875
C26	C	-0.605874	-0.373061	-0.296884
C27	C	-0.510366	-0.340385	-0.301919
C28	C	-0.414869	-0.373150	-0.306958
C29	C	-0.414884	-0.438584	-0.306953
C30	C	-0.510404	-0.471254	-0.301908
C31	C	-0.442638	-0.236770	-0.342063
C32	C	-0.442612	-0.171334	-0.342061
C33	C	-0.578010	-0.171235	-0.261783
C34	C	-0.578027	-0.236670	-0.261783
C35	C	-0.510343	-0.269434	-0.301926
C36	C	-0.785763	-0.905457	-0.301903
C37	C	-0.903593	-0.905495	-0.301920
C38	C	-1.071212	-0.857294	-0.350479
C39	C	-0.948653	-0.857048	-0.350323
C40	C	-0.948172	-0.887617	-0.235888
C41	C	-1.070770	-0.887323	-0.236183
C42	C	-1.070656	-0.971869	-0.318856
C43	C	-0.948050	-0.971463	-0.320300
C44	C	-0.233828	-0.905566	-0.301934
C45	C	-0.115998	-0.905593	-0.301943
C46	C	-0.510312	-0.905555	-0.465335
C47	C	-0.510303	-0.905577	-0.534976
C48	C	-0.510287	-0.068926	-0.301928
C49	C	-0.510300	-0.138568	-0.301927
C50	C	-0.442483	-0.945664	-0.567701
C51	C	-0.442437	-0.945664	-0.633136
C52	C	-0.510230	-0.905582	-0.665844
C53	C	-0.578055	-0.865487	-0.633112
C54	C	-0.578091	-0.865485	-0.567678
C55	C	-0.605685	-0.900619	-0.769516
C56	C	-0.605651	-0.900626	-0.834949
C57	C	-0.510118	-0.905586	-0.867665
C58	C	-0.414617	-0.910553	-0.834940
C59	C	-0.414654	-0.910550	-0.769506
C60	C	-0.510198	-0.905580	-0.736797
C61	C	-0.442243	-0.945674	-0.971342
C62	C	-0.442196	-0.945669	-1.036779
C63	C	-0.577823	-0.865496	-1.036754
C64	C	-0.577861	-0.865498	-0.971318
C65	C	-0.510073	-0.905591	-0.938617
C66	C	-0.510278	-0.905487	-0.139124
C67	C	-0.509989	-0.905587	-0.069483
H68	H	-0.387594	-0.548377	-0.374726
C69	C	-1.109772	-1.020484	-0.271107
H70	H	-1.082107	-1.060435	-0.281569
H71	H	-1.184839	-1.021976	-0.271815
H72	H	-1.086484	-1.009031	-0.230475
C73	C	-0.367604	-0.989773	-1.072779
H74	H	-0.377285	-0.984031	-1.116434
H75	H	-0.383128	-1.031864	-1.062072
H76	H	-0.296377	-0.980627	-1.062049
H77	H	-0.336826	-0.914593	-0.861577
C78	C	-0.909173	-0.790675	-0.335185
H79	H	-0.834047	-0.790295	-0.335045
H80	H	-0.934638	-0.778419	-0.295242
H81	H	-0.934467	-0.762360	-0.365941
C82	C	-0.367910	-0.989759	-0.531732
H83	H	-0.327506	-1.013630	-0.560597
H84	H	-0.408464	-1.017048	-0.506218
H85	H	-0.321736	-0.965798	-0.506196
H86	H	-0.387480	-0.144741	-0.374747
C87	C	-1.109561	-0.821873	-0.216835
H88	H	-1.050392	-0.795714	-0.208872
H89	H	-1.151421	-0.825082	-0.180105
H90	H	-1.150785	-0.804440	-0.249601
H91	H	-0.918512	-0.868234	-0.399285
C92	C	-0.368182	-0.272813	-0.386213
H93	H	-0.327849	-0.243986	-0.410114
H94	H	-0.408808	-0.298333	-0.413472
H95	H	-0.321937	-0.298348	-0.362286
C96	C	-0.652471	-0.821408	-0.935316
H97	H	-0.642779	-0.827144	-0.891662
H98	H	-0.723689	-0.830561	-0.946048
H99	H	-0.636959	-0.779312	-0.946022
H100	H	-0.917579	-0.839673	-0.221302
C101	C	-0.710914	-0.337026	-0.291338
H102	H	-0.767795	-0.365857	-0.288326
H103	H	-0.720328	-0.311514	-0.327236
H104	H	-0.709427	-0.311484	-0.255018
C105	C	-0.309846	-0.474623	-0.312486
H106	H	-0.252958	-0.445795	-0.315481
H107	H	-0.311316	-0.500170	-0.348799
H108	H	-0.300454	-0.500132	-0.276579
H109	H	-0.633011	-0.832855	-1.063384
C110	C	-0.652472	-0.135195	-0.217641
H111	H	-0.642774	-0.091547	-0.223396
H112	H	-0.636863	-0.145904	-0.175557
H113	H	-0.723727	-0.145894	-0.226747
H114	H	-0.683414	-0.896586	-0.861588
C115	C	-0.367675	-0.989767	-0.935365
H116	H	-0.377420	-0.984031	-0.891707
H117	H	-0.296444	-0.980615	-0.946077
H118	H	-0.383174	-1.031864	-0.946109
H119	H	-1.100637	-0.868378	-0.399601
H120	H	-0.918983	-0.921680	-0.198737
C121	C	-0.906610	-1.022640	-0.276026
H122	H	-0.934721	-1.061963	-0.288230
H123	H	-0.927935	-1.013484	-0.234441
H124	H	-0.831601	-1.024053	-0.278098
C125	C	-0.652573	-0.538835	-0.217615
H126	H	-0.692889	-0.567662	-0.193704
H127	H	-0.698818	-0.513302	-0.241537
H128	H	-0.611940	-0.513313	-0.190356
C129	C	-0.652501	-0.272604	-0.217635
H130	H	-0.642811	-0.316267	-0.223377
H131	H	-0.723748	-0.261853	-0.226734
H132	H	-0.636873	-0.261866	-0.175551
C133	C	-0.710757	-0.895026	-0.733534
H134	H	-0.767621	-0.892036	-0.762394
H135	H	-0.709255	-0.858674	-0.708044
H136	H	-0.720217	-0.930887	-0.707974
C137	C	-1.112327	-0.993900	-0.382798
H138	H	-1.157771	-0.962880	-0.399779
H139	H	-1.150433	-1.031810	-0.377728
H140	H	-1.054477	-1.000586	-0.410342
C141	C	-0.652631	-0.821402	-0.669088
H142	H	-0.642905	-0.827150	-0.712746
H143	H	-0.637141	-0.779307	-0.658349
H144	H	-0.723863	-0.830560	-0.658370
C145	C	-0.367841	-0.989766	-0.669141
H146	H	-0.327480	-1.013646	-0.640293
H147	H	-0.321643	-0.965816	-0.694657
H148	H	-0.408389	-1.017056	-0.694676
C149	C	-0.908673	-0.989685	-0.385943
H150	H	-0.865315	-0.957232	-0.402084
H151	H	-0.967558	-0.995807	-0.412813
H152	H	-0.868826	-1.027255	-0.383424
C153	C	-0.309614	-0.916005	-0.733508
H154	H	-0.323324	-0.915297	-0.689854
H155	H	-0.265029	-0.881932	-0.744214
H156	H	-0.275695	-0.954161	-0.744242
H157	H	-0.633317	-0.832838	-0.541034
C158	C	-0.710949	-0.474435	-0.291333
H159	H	-0.697282	-0.518097	-0.292044
H160	H	-0.755628	-0.463711	-0.325371
H161	H	-0.744744	-0.463676	-0.253152
C162	C	-0.652606	-0.676241	-0.217604
H163	H	-0.692922	-0.647355	-0.193704
H164	H	-0.611997	-0.701775	-0.190344
H165	H	-0.698866	-0.701754	-0.241531
H166	H	-0.387635	-0.667084	-0.374726
H167	H	-1.102133	-0.808467	-0.339417
H168	H	-0.337097	-0.346546	-0.311058
H169	H	-1.100397	-0.920975	-0.198787
