data_functionalizedCrystal
_audit_creation_method	'MofGen! by Chris Wilmer'
_symmetry_space_group_name_H-M	'P1'
_symmetry_Int_Tables_number	1
_symmetry_cell_setting	triclinic
loop_
_symmetry_equiv_pos_as_xyz
  x,y,z
_cell_length_a	18.050591
_cell_length_b	13.032721
_cell_length_c	13.032268
_cell_angle_alpha	76.710373
_cell_angle_beta	82.843153
_cell_angle_gamma	97.201340
loop_
_atom_site_label
_atom_site_type_symbol
_atom_site_fract_x
_atom_site_fract_y
_atom_site_fract_z
Zn1	Zn	1.031220	-0.499207	0.654387
Zn2	Zn	1.031139	-0.654292	0.499335
Zn3	Zn	0.925098	-0.476689	0.476788
Zn4	Zn	0.888950	-0.676748	0.676851
O5	O	0.969102	-0.576734	0.576840
O6	O	1.135128	-0.519805	0.633854
O7	O	1.032166	-0.611910	0.347727
O8	O	0.954337	-0.331048	0.481509
O9	O	1.135069	-0.633745	0.519938
O10	O	1.032304	-0.347592	0.611991
O11	O	0.954258	-0.481427	0.331161
O12	O	0.816383	-0.503202	0.503292
O13	O	0.892729	-0.672019	0.822488
O14	O	0.789826	-0.650184	0.650278
O15	O	0.997254	-0.541581	0.805984
O16	O	0.997115	-0.805899	0.541720
O17	O	0.892650	-0.822398	0.672141
C18	C	0.940969	-0.852689	0.611838
C19	C	0.928998	-0.970749	0.626846
C20	C	0.776159	-0.576687	0.576776
C21	C	0.693613	-0.576696	0.576778
C22	C	0.975384	-1.015191	0.569055
C23	C	0.963013	-1.137212	0.584565
C24	C	0.508574	-0.496705	0.497000
C25	C	0.451966	-0.590267	0.483163
C26	C	0.542474	-0.576734	0.576830
C27	C	0.451997	-0.483206	0.590668
C28	C	0.396482	-0.576762	0.576877
C29	C	0.486954	-0.670340	0.562949
C30	C	0.486991	-0.563220	0.670491
C31	C	0.430395	-0.656853	0.656699
C32	C	0.626577	-0.576716	0.576800
C33	C	0.312380	-0.576791	0.576909
C34	C	1.162797	-0.576782	0.576905
C35	C	1.245338	-0.576803	0.576932
C36	C	0.940968	-0.611817	0.853849
C37	C	0.928979	-0.626767	0.971893
C38	C	0.997362	-0.299704	0.541729
C39	C	1.009405	-0.181651	0.526767
C40	C	0.997176	-0.541712	0.300900
C41	C	1.009339	-0.526462	0.182818
C42	C	0.975351	-0.568893	1.016355
C43	C	0.962961	-0.584344	1.138360
H44	H	1.024258	-0.962908	0.508100
H45	H	0.914141	-1.189495	0.645532
H46	H	1.024222	-0.507904	0.964096
H47	H	0.914080	-0.645326	1.190614
O48	O	0.507485	-0.775139	0.547330
H49	H	0.569045	-0.774286	0.547387
H50	H	1.058213	-0.465466	1.130564
O51	O	1.074152	-1.112412	0.446018
H52	H	1.051523	-1.055084	0.385556
H53	H	0.880102	-0.687745	1.024150
O54	O	0.864254	-1.039991	0.707588
H55	H	0.864691	-1.124964	0.707090
O56	O	0.507747	-0.548027	0.775336
H57	H	0.456433	-0.539673	0.827346
H58	H	0.542427	-0.429084	0.429433
O59	O	0.431258	-0.605441	0.378281
H60	H	0.462977	-0.538904	0.312120
H61	H	0.436371	-0.404105	0.602319
O62	O	0.385701	-0.746598	0.746154
H63	H	0.399631	-0.824101	0.734419
