data_functionalizedCrystal
_audit_creation_method	'MofGen! by Chris Wilmer'
_symmetry_space_group_name_H-M	'P1'
_symmetry_Int_Tables_number	1
_symmetry_cell_setting	triclinic
loop_
_symmetry_equiv_pos_as_xyz
  x,y,z
_cell_length_a	17.638686
_cell_length_b	18.050590
_cell_length_c	17.640968
_cell_angle_alpha	101.233828
_cell_angle_beta	114.307628
_cell_angle_gamma	78.785243
loop_
_atom_site_label
_atom_site_type_symbol
_atom_site_fract_x
_atom_site_fract_y
_atom_site_fract_z
Zn1	Zn	1.354101	-0.416468	0.720211
Zn2	Zn	1.326147	-0.561530	0.582381
Zn3	Zn	1.188428	-0.416433	0.554605
Zn4	Zn	1.216259	-0.519689	0.692348
O5	O	1.271234	-0.478530	0.637386
O6	O	1.465716	-0.453236	0.725212
O7	O	1.284532	-0.559778	0.463368
O8	O	1.210457	-0.312516	0.576610
O9	O	1.445178	-0.559812	0.623949
O10	O	1.332176	-0.312542	0.698280
O11	O	1.183351	-0.453176	0.442962
O12	O	1.076797	-0.412605	0.549592
O13	O	1.257890	-0.488500	0.811372
O14	O	1.097244	-0.488466	0.650791
O15	O	1.359162	-0.412664	0.831843
O16	O	1.311518	-0.659901	0.596931
O17	O	1.230784	-0.629161	0.677724
C18	C	1.057118	-0.445992	0.594155
C19	C	0.965523	-0.432087	0.575680
C20	C	0.717531	-0.584295	0.777947
C21	C	0.631459	-0.571226	0.760566
C22	C	0.610167	-0.492059	0.655351
C23	C	0.696239	-0.505125	0.672720
C24	C	0.749915	-0.551243	0.734020
C25	C	0.728622	-0.472072	0.628793
C26	C	0.814686	-0.485134	0.646164
C27	C	0.868368	-0.531248	0.707462
C28	C	0.835979	-0.564304	0.751391
C29	C	0.674945	-0.425950	0.567498
C30	C	0.707329	-0.392898	0.523571
C31	C	0.793394	-0.405964	0.540937
C32	C	0.847075	-0.452078	0.602236
C33	C	0.825782	-0.372907	0.497009
C34	C	0.911847	-0.385969	0.514380
C35	C	0.933140	-0.465139	0.619607
C36	C	1.271164	-0.671477	0.637341
C37	C	1.271215	-0.754028	0.637364
C38	C	1.315248	-0.970174	0.593529
C39	C	1.350587	-1.011169	0.672805
C40	C	1.271268	-0.905161	0.637406
C41	C	1.236020	-1.011255	0.558181
C42	C	1.271320	-1.051149	0.637441
C43	C	1.306654	-0.945068	0.716730
C44	C	1.192041	-0.945152	0.602047
C45	C	1.227362	-0.986113	0.681370
C46	C	1.271240	-0.821061	0.637386
C47	C	1.271350	-1.135246	0.637470
C48	C	1.486185	-0.511195	0.680787
C49	C	1.577785	-0.525116	0.699282
C50	C	1.314749	-0.445919	0.852347
C51	C	1.333293	-0.432022	0.943950
C52	C	1.271330	-0.284830	0.637455
C53	C	1.271371	-0.202286	0.637484
C54	C	1.227935	-0.510967	0.423272
C55	C	1.209551	-0.524679	0.331701
C56	C	1.130677	-0.583746	1.191938
C57	C	1.148118	-0.570681	1.278016
C58	C	1.253564	-0.491720	1.299320
C59	C	1.236128	-0.504776	1.213241
C60	C	1.174684	-0.550790	1.159556
C61	C	1.280136	-0.471819	1.180860
C62	C	1.262704	-0.484877	1.094789
C63	C	1.201265	-0.530891	1.041099
C64	C	1.157253	-0.563848	1.073485
C65	C	1.341584	-0.425810	1.234547
C66	C	1.385591	-0.392853	1.202166
C67	C	1.368156	-0.405907	1.116092
C68	C	1.306717	-0.451921	1.062403
C69	C	1.412168	-0.372950	1.083706
C70	C	1.394736	-0.386008	0.997635
C71	C	1.289285	-0.464978	0.976331
H72	H	0.605099	-0.598142	0.796344
H73	H	1.125030	-0.916421	0.572104
O74	O	1.200506	-1.045548	0.478190
C75	C	1.206765	-1.076978	0.341547
C76	C	1.247048	-1.038100	0.432102
H77	H	1.244387	-1.070984	0.304264
H78	H	1.139571	-1.048860	0.310967
H79	H	1.206546	-1.139926	0.342392
H80	H	1.247328	-0.975152	0.431332
H81	H	1.314221	-1.066278	0.462646
H82	H	0.663615	-0.355346	0.473663
O83	O	1.105461	-0.602659	1.309613
C84	C	1.085532	-0.617493	1.432758
C85	C	1.133916	-0.581249	1.397089
H86	H	1.108506	-0.600184	1.503484
H87	H	1.096556	-0.682149	1.418800
H88	H	1.015661	-0.596934	1.402376
H89	H	1.203801	-0.601749	1.427449
H90	H	1.122821	-0.516597	1.411036
O91	O	0.943366	-0.353774	0.471831
C92	C	1.038383	-0.269931	0.480555
C93	C	1.002746	-0.306329	0.528843
H94	H	1.086411	-0.231576	0.526630
H95	H	0.985273	-0.234679	0.433780
H96	H	1.069890	-0.316643	0.445504
H97	H	0.971248	-0.259666	0.563944
H98	H	1.055889	-0.341599	0.575569
H99	H	0.566454	-0.454508	0.605443
H100	H	1.430571	-0.359170	0.971270
H101	H	1.352466	-0.962627	0.556475
O102	O	0.773517	-0.328151	0.437472
C103	C	0.631502	-0.272888	0.364130
C104	C	0.690594	-0.323607	0.431561
H105	H	0.564449	-0.269185	0.359341
H106	H	0.634884	-0.298480	0.301029
H107	H	0.651444	-0.213401	0.382144
H108	H	0.670692	-0.383104	0.413626
H109	H	0.687204	-0.297954	0.494644
O110	O	1.471906	-0.328264	1.135748
C111	C	1.574626	-0.251277	1.147792
C112	C	1.507008	-0.301883	1.088764
H113	H	1.603013	-0.229920	1.109826
H114	H	1.625913	-0.285787	1.196757
H115	H	1.544965	-0.200612	1.180490
H116	H	1.536594	-0.352555	1.056008
H117	H	1.455730	-0.267318	1.039850
O118	O	1.430567	-1.045433	0.708381
C119	C	1.567333	-1.076692	0.702382
C120	C	1.476779	-1.037879	0.662004
H121	H	1.604726	-1.070584	0.664914
H122	H	1.566592	-1.139666	0.702582
H123	H	1.597736	-1.048512	0.769588
H124	H	1.446322	-1.065997	0.594783
H125	H	1.477578	-0.974904	0.661870
H126	H	1.336435	-0.916342	0.783787
H127	H	1.107199	-0.601296	1.029767
O128	O	1.183028	-0.995082	0.725654
C129	C	1.132784	-1.083412	0.774920
C130	C	1.182991	-1.073360	0.724725
H131	H	1.132752	-1.146696	0.774201
H132	H	1.065497	-1.055133	0.745349
H133	H	1.162986	-1.055839	0.842428
H134	H	1.152861	-1.100936	0.657211
H135	H	1.250275	-1.101619	0.754364
H136	H	1.303594	-0.454258	1.343043
H137	H	0.938448	-0.541877	0.721609
H138	H	1.239231	-0.502427	0.932613
H139	H	1.187076	-0.541525	0.971015
H140	H	0.604868	-0.415313	0.553361
H141	H	0.976846	-0.502697	0.669519
O142	O	1.071003	-0.628507	1.139906
C143	C	0.968243	-0.705456	1.127847
C144	C	1.035799	-0.654786	1.186866
H145	H	0.939749	-0.726704	1.165788
H146	H	0.997890	-0.756185	1.095207
H147	H	0.917033	-0.670941	1.078835
H148	H	1.087030	-0.689236	1.235925
H149	H	1.006090	-0.604055	1.219443
O150	O	1.358524	-0.413260	1.318158
C151	C	1.404724	-0.468926	1.445937
C152	C	1.385551	-0.483248	1.351251
H153	H	1.426596	-0.525499	1.472724
H154	H	1.345655	-0.440308	1.456478
H155	H	1.456174	-0.430353	1.478718
H156	H	1.334127	-0.521839	1.318408
H157	H	1.444660	-0.511829	1.340772
O158	O	1.445164	-0.348054	1.254332
C159	C	1.475984	-0.234757	1.353819
C160	C	1.408433	-0.285417	1.294762
H161	H	1.446316	-0.184113	1.386536
H162	H	1.504435	-0.213381	1.315922
H163	H	1.527230	-0.269311	1.402766
H164	H	1.357137	-0.250914	1.245803
H165	H	1.380049	-0.306798	1.332714
O166	O	0.888015	-0.609098	0.810988
C167	C	0.900055	-0.686290	0.913488
C168	C	0.841035	-0.635568	0.846032
H169	H	0.862093	-0.707719	0.941828
H170	H	0.949082	-0.651845	0.964833
H171	H	0.932686	-0.736905	0.883693
H172	H	0.808346	-0.584946	0.875751
H173	H	0.792060	-0.670068	0.794696
H174	H	0.761237	-0.621854	0.827859
