data_functionalizedCrystal
_audit_creation_method	'MofGen! by Chris Wilmer'
_symmetry_space_group_name_H-M	'P1'
_symmetry_Int_Tables_number	1
_symmetry_cell_setting	triclinic
loop_
_symmetry_equiv_pos_as_xyz
  x,y,z
_cell_length_a	13.635800
_cell_length_b	19.361435
_cell_length_c	21.457829
_cell_angle_alpha	85.802863
_cell_angle_beta	63.171644
_cell_angle_gamma	98.513410
loop_
_atom_site_label
_atom_site_type_symbol
_atom_site_fract_x
_atom_site_fract_y
_atom_site_fract_z
V1	V	-2.082650	-0.097441	0.218270
O2	O	-2.087447	0.003908	0.213697
O3	O	-2.046048	-0.192465	0.217180
O4	O	-2.094083	-0.096282	0.313282
O5	O	-2.039079	-0.092940	0.116930
V6	V	-2.321454	-0.085278	0.206100
O7	O	-2.219767	-0.124121	0.244966
O8	O	-2.409435	-0.058599	0.179404
O9	O	-2.246452	0.009745	0.207191
O10	O	-2.375355	-0.186628	0.210674
O11	O	-2.423722	-0.089779	0.307441
O12	O	-2.198417	-0.086438	0.111089
C13	C	-1.964378	-0.215619	0.213841
C14	C	-1.975333	-0.293304	0.213582
C15	C	-2.025651	-0.092927	0.336427
C16	C	-2.075559	-0.092608	0.414102
V17	V	-1.582650	-0.097441	0.218270
O18	O	-1.587447	0.003908	0.213697
O19	O	-1.546048	-0.192465	0.217180
O20	O	-1.594083	-0.096282	0.313282
O21	O	-1.539079	-0.092940	0.116930
V22	V	-1.821454	-0.085278	0.206100
O23	O	-1.719767	-0.124121	0.244966
O24	O	-1.909435	-0.058599	0.179404
O25	O	-1.746452	0.009745	0.207191
O26	O	-1.875355	-0.186628	0.210674
O27	O	-1.923722	-0.089779	0.307441
O28	O	-1.698417	-0.086438	0.111089
C29	C	-2.159791	0.032896	0.210528
C30	C	-2.138457	0.110580	0.210791
C31	C	-2.098518	-0.089795	0.087940
C32	C	-2.038230	-0.090110	0.010264
C33	C	-2.190956	-0.095955	0.454156
C34	C	-2.237861	-0.095646	0.527139
C35	C	-2.169369	-0.091995	0.560068
C36	C	-2.053961	-0.088646	0.520009
C37	C	-2.007056	-0.088950	0.447026
C38	C	-2.213916	0.150635	0.207466
C39	C	-2.193944	0.223613	0.207803
C40	C	-2.098522	0.256532	0.211479
C41	C	-2.023051	0.216469	0.214800
C42	C	-2.043019	0.143493	0.214456
C43	C	-2.035176	0.362800	0.255859
C44	C	-2.015215	0.435774	0.256207
C45	C	-2.036928	0.481615	0.212536
C46	C	-2.078626	0.454472	0.168525
C47	C	-2.098594	0.381496	0.168181
C48	C	-2.076860	0.335662	0.211851
C49	C	-2.090736	0.600801	0.209575
C50	C	-2.070756	0.673782	0.209908
C51	C	-1.899867	0.666635	0.216912
C52	C	-1.919842	0.593657	0.216573
C53	C	-2.015281	0.560744	0.212907
C54	C	-1.924510	-0.093766	-0.022653
C55	C	-1.867865	-0.094067	-0.095637
C56	C	-1.924952	-0.090726	-0.135699
C57	C	-2.038688	-0.087065	-0.102775
C58	C	-2.095327	-0.086757	-0.029793
C59	C	-1.917108	-0.129688	-0.247466
C60	C	-1.860468	-0.130000	-0.320446
C61	C	-1.750260	-0.091672	-0.360799
C62	C	-1.696686	-0.053042	-0.328163
C63	C	-1.753326	-0.052734	-0.255181
C64	C	-1.863545	-0.091059	-0.214836
C65	C	-1.575112	-0.095654	-0.472853
C66	C	-1.518467	-0.095951	-0.545840
C67	C	-1.689297	-0.088956	-0.552976
C68	C	-1.745936	-0.088652	-0.479992
C69	C	-1.688838	-0.092005	-0.439935
C70	C	-1.525651	-0.092927	0.336427
C71	C	-1.575559	-0.092608	0.414102
C72	C	-1.464378	-0.215619	0.213841
C73	C	-1.475333	-0.293304	0.213582
C74	C	-1.659791	0.032896	0.210528
C75	C	-1.638457	0.110580	0.210791
C76	C	-1.598518	-0.089795	0.087940
C77	C	-1.538230	-0.090110	0.010264
C78	C	-1.572404	-0.333361	0.216967
C79	C	-1.582718	-0.406357	0.216736
C80	C	-1.495957	-0.439294	0.213114
C81	C	-1.398880	-0.399231	0.209731
C82	C	-1.388571	-0.326238	0.209968
C83	C	-1.713881	0.150637	0.207408
C84	C	-1.693840	0.223632	0.207643
C85	C	-1.598379	0.256569	0.211267
C86	C	-1.522948	0.216507	0.214648
C87	C	-1.542985	0.143514	0.214407
C88	C	-1.424500	-0.093753	-0.022647
C89	C	-1.367836	-0.094041	-0.095633
C90	C	-1.424906	-0.090691	-0.135705
C91	C	-1.538646	-0.087046	-0.102789
C92	C	-1.595306	-0.086753	-0.029806
H93	H	-2.246743	-0.098930	0.427355
H94	H	-1.775253	-0.097033	-0.122444
Cl95	Cl	-1.224854	-0.098630	-0.136996
Cl96	Cl	-1.402940	0.257924	0.219199
Cl97	Cl	-1.353660	-0.091064	-0.227456
Cl98	Cl	-1.266523	-0.275887	0.205705
H99	H	-2.207576	-0.091749	0.619496
H100	H	-1.585101	-0.084317	-0.135428
H101	H	-1.998205	-0.085674	0.546831
Cl102	Cl	-1.738291	-0.082184	0.011560
Cl103	Cl	-1.861981	-0.084752	0.396684
Cl104	Cl	-2.288817	0.273976	0.203628
Cl105	Cl	-1.788682	0.273980	0.203394
Cl106	Cl	-2.382946	-0.099862	0.577485
Cl107	Cl	-1.508934	-0.531059	0.212814
Cl108	Cl	-2.333890	0.109263	0.202852
Cl109	Cl	-1.681496	-0.291973	0.221528
H110	H	-1.328244	-0.426059	0.206782
H111	H	-2.132542	0.359399	0.132345
H112	H	-2.017478	0.325482	0.291418
H113	H	-2.187931	-0.083781	-0.002994
Cl114	Cl	-1.448155	0.093165	0.218664
Cl115	Cl	-1.927820	-0.178567	-0.361466
Cl116	Cl	-2.105952	0.512091	0.113633
H117	H	-2.168444	0.574003	0.206587
H118	H	-1.582076	0.316005	0.211461
Cl119	Cl	-2.165620	0.724139	0.205716
H120	H	-1.822170	0.693437	0.219904
Cl121	Cl	-1.824974	0.543301	0.220752
H122	H	-1.981271	0.457867	0.292047
Cl123	Cl	-1.833899	0.109248	0.202851
H124	H	-1.981572	0.110880	0.217169
Cl125	Cl	-1.903086	0.257853	0.219415
Cl126	Cl	-1.352728	-0.097963	0.027714
H127	H	-1.661769	-0.438966	0.219489
H128	H	-1.878011	-0.096495	0.009958
H129	H	-1.709702	-0.021278	-0.228612
H130	H	-1.606947	-0.021834	-0.361017
H131	H	-1.425864	-0.098926	-0.572639
Cl132	Cl	-1.761066	-0.084743	-0.603335
Cl133	Cl	-1.503335	-0.099862	-0.422493
H134	H	-1.838538	-0.085679	-0.453191
H135	H	-2.006848	-0.160904	-0.214615
H136	H	-2.085165	-0.084345	-0.135399
