data_functionalizedCrystal
_audit_creation_method	'MofGen! by Chris Wilmer'
_symmetry_space_group_name_H-M	'P1'
_symmetry_Int_Tables_number	1
_symmetry_cell_setting	triclinic
loop_
_symmetry_equiv_pos_as_xyz
  x,y,z
_cell_length_a	16.625547
_cell_length_b	25.639239
_cell_length_c	16.625539
_cell_angle_alpha	89.968745
_cell_angle_beta	89.975178
_cell_angle_gamma	90.038623
loop_
_atom_site_label
_atom_site_type_symbol
_atom_site_fract_x
_atom_site_fract_y
_atom_site_fract_z
Zn1	Zn	1.232590	-0.208151	-0.455984
Zn2	Zn	1.232455	-0.295589	-0.321145
Zn3	Zn	1.097751	-0.208169	-0.321155
Zn4	Zn	1.097684	-0.295557	-0.455924
O5	O	1.165120	-0.251866	-0.388552
O6	O	1.345404	-0.219755	-0.438118
O7	O	1.214558	-0.284013	-0.208313
O8	O	1.115723	-0.135001	-0.339070
O9	O	1.345305	-0.283995	-0.339052
O10	O	1.214788	-0.134988	-0.438128
O11	O	1.115592	-0.219786	-0.208321
O12	O	0.984910	-0.219755	-0.339012
O13	O	1.115607	-0.283941	-0.568765
O14	O	0.984860	-0.283959	-0.438026
O15	O	1.214722	-0.219724	-0.568809
O16	O	1.214492	-0.368750	-0.338994
O17	O	1.115477	-0.368726	-0.438016
C18	C	0.955629	-0.251856	-0.388514
C19	C	0.866008	-0.251864	-0.388517
C20	C	0.793225	-0.251865	-0.388527
C21	C	0.701917	-0.251868	-0.388547
C22	C	0.629141	-0.251873	-0.388567
C23	C	0.537826	-0.251877	-0.388587
C24	C	1.164984	-0.387709	-0.388515
C25	C	1.165000	-0.445823	-0.388526
C26	C	1.216812	-0.806185	-0.337079
C27	C	1.216843	-0.860790	-0.337090
O28	O	1.260755	-0.889026	-0.293307
N29	N	1.165262	-0.888105	-0.388605
C30	C	1.113651	-0.860814	-0.440119
O31	O	1.069781	-0.889062	-0.483939
C32	C	1.113625	-0.806210	-0.440112
C33	C	1.165204	-0.778898	-0.388587
C34	C	1.268387	-0.778873	-0.285559
C35	C	1.268355	-0.724272	-0.285547
C36	C	1.216747	-0.696984	-0.337056
C37	C	1.165171	-0.724297	-0.388576
C38	C	1.062019	-0.778920	-0.491630
C39	C	1.061997	-0.724313	-0.491618
C40	C	1.113576	-0.697000	-0.440093
C41	C	1.113531	-0.642409	-0.440072
N42	N	1.165112	-0.615093	-0.388557
C43	C	1.216720	-0.642381	-0.337048
C44	C	1.113712	-0.975484	-0.440132
C45	C	1.113734	-1.030087	-0.440136
C46	C	1.216927	-1.030059	-0.337107
C47	C	1.216900	-0.975456	-0.337100
C48	C	1.165293	-0.948169	-0.388616
C49	C	1.216648	-0.527716	-0.337027
C50	C	1.216608	-0.473111	-0.337018
C51	C	1.113418	-0.473143	-0.440049
C52	C	1.113454	-0.527744	-0.440056
C53	C	1.165076	-0.555029	-0.388542
O54	O	1.069644	-0.614138	-0.483835
O55	O	1.260591	-0.614126	-0.293244
C56	C	1.375429	-0.251877	-0.388591
C57	C	1.465050	-0.251881	-0.388607
C58	C	1.165172	-0.251827	-0.598861
C59	C	1.165195	-0.251811	-0.688482
C60	C	1.165278	-0.115493	-0.388607
C61	C	1.165345	-0.057379	-0.388630
C62	C	1.165232	-0.251752	-1.016658
C63	C	1.165219	-0.251770	-0.925350
C64	C	1.165214	-0.251782	-0.852573
C65	C	1.165200	-0.251799	-0.761259
C66	C	1.165114	-0.251867	-0.179061
C67	C	1.165248	-0.251737	-0.089441
H68	H	1.258684	-0.549925	-0.295082
H69	H	1.258952	-1.052287	-0.295169
O70	O	1.063598	-1.056534	-0.490257
C71	C	1.018029	-1.020733	-0.535697
H72	H	1.051036	-0.981788	-0.538508
H73	H	0.956806	-1.014979	-0.506106
C74	C	0.965828	-1.089841	-0.618055
C75	C	1.006371	-1.042009	-0.621513
H76	H	0.958634	-1.102966	-0.670990
H77	H	0.996526	-1.113962	-0.587439
H78	H	0.914813	-1.085040	-0.593392
H79	H	1.057389	-1.046813	-0.646166
H80	H	0.975682	-1.017890	-0.652135
H81	H	1.071681	-0.953270	-0.482080
O82	O	1.063408	-0.446605	-0.490170
C83	C	1.109283	-0.414959	-0.542262
H84	H	1.172790	-0.431377	-0.547302
H85	H	1.112061	-0.373587	-0.517319
C86	C	0.991856	-0.393934	-0.619859
C87	C	1.069855	-0.414102	-0.626054
H88	H	0.967534	-0.393403	-0.671545
H89	H	0.960948	-0.415253	-0.584762
H90	H	0.994181	-0.359460	-0.599070
H91	H	1.067528	-0.448578	-0.646833
H92	H	1.100762	-0.392789	-0.661157
H93	H	1.020014	-0.801148	-0.533583
H94	H	1.258610	-0.450874	-0.295057
O95	O	1.318544	-0.697825	-0.235479
C96	C	1.364083	-0.733628	-0.190014
H97	H	1.366862	-0.772535	-0.223054
H98	H	1.334601	-0.739481	-0.128744
C99	C	1.446489	-0.664492	-0.137903
C100	C	1.449907	-0.712275	-0.178487
H101	H	1.499428	-0.651320	-0.130789
H102	H	1.415806	-0.640370	-0.168531
H103	H	1.421916	-0.669375	-0.086850
H104	H	1.474470	-0.707390	-0.229543
H105	H	1.480596	-0.736396	-0.147867
O106	O	1.318655	-0.805381	-0.235659
C107	C	1.370717	-0.836901	-0.281647
H108	H	1.375582	-0.820425	-0.345165
H109	H	1.345860	-0.878314	-0.284370
C110	C	1.448616	-0.857884	-0.164390
C111	C	1.454597	-0.837644	-0.242401
H112	H	1.500357	-0.858345	-0.140180
H113	H	1.413539	-0.836650	-0.133405
H114	H	1.427899	-0.892392	-0.166669
H115	H	1.475304	-0.803134	-0.240120
H116	H	1.489679	-0.858873	-0.273385
H117	H	1.019973	-0.702098	-0.533572
H118	H	1.258901	-0.953221	-0.295144
O119	O	1.063323	-0.554198	-0.490179
C120	C	1.017750	-0.518401	-0.535622
H121	H	1.050748	-0.479452	-0.538429
H122	H	0.956523	-0.512653	-0.506036
C123	C	0.965572	-0.587513	-0.617986
C124	C	1.006104	-0.539676	-0.621440
H125	H	0.958384	-0.600637	-0.670922
H126	H	0.996273	-0.611630	-0.587369
H127	H	0.914554	-0.582717	-0.593328
H128	H	1.057124	-0.544474	-0.646089
H129	H	0.975411	-0.515560	-0.652063
