data_functionalizedCrystal
_audit_creation_method	'MofGen! by Chris Wilmer'
_symmetry_space_group_name_H-M	'P1'
_symmetry_Int_Tables_number	1
_symmetry_cell_setting	triclinic
loop_
_symmetry_equiv_pos_as_xyz
  x,y,z
_cell_length_a	14.908979
_cell_length_b	14.908178
_cell_length_c	14.908308
_cell_angle_alpha	90.221621
_cell_angle_beta	83.628929
_cell_angle_gamma	96.795332
loop_
_atom_site_label
_atom_site_type_symbol
_atom_site_fract_x
_atom_site_fract_y
_atom_site_fract_z
Zn1	Zn	1.337569	-0.305881	0.415333
Zn2	Zn	1.338485	-0.447535	0.256244
Zn3	Zn	1.194939	-0.305925	0.272710
Zn4	Zn	1.177452	-0.465956	0.415270
O5	O	1.262111	-0.381324	0.339889
O6	O	1.464774	-0.316945	0.387365
O7	O	1.327146	-0.421059	0.132187
O8	O	1.220795	-0.179663	0.298546
O9	O	1.465447	-0.421018	0.270483
O10	O	1.325584	-0.179631	0.403331
O11	O	1.221683	-0.317019	0.144285
O12	O	1.065536	-0.334880	0.298485
O13	O	1.190989	-0.452412	0.541519
O14	O	1.052688	-0.452454	0.403224
O15	O	1.308627	-0.334806	0.541566
O16	O	1.310189	-0.576235	0.270422
O17	O	1.191878	-0.589768	0.387258
C18	C	1.026160	-0.395671	0.352635
C19	C	0.925217	-0.401832	0.358108
C20	C	0.776278	-0.471811	0.420244
C21	C	0.871123	-0.466024	0.415110
C22	C	0.884460	-0.343426	0.306234
C23	C	0.789616	-0.349214	0.311369
C24	C	0.735527	-0.413408	0.368377
C25	C	0.640681	-0.419191	0.373515
C26	C	0.654020	-0.296598	0.264635
C27	C	0.748865	-0.290810	0.259501
C28	C	1.249259	-0.615738	0.327064
C29	C	1.243842	-0.716018	0.321604
C30	C	1.342683	-0.904285	0.420583
C31	C	1.337596	-0.998507	0.415455
C32	C	1.228576	-0.998687	0.306225
C33	C	1.233663	-0.904465	0.311353
C34	C	1.290720	-0.857267	0.368533
C35	C	1.295811	-0.763043	0.373656
C36	C	1.186787	-0.763225	0.264431
C37	C	1.181700	-0.857447	0.259303
C38	C	1.498983	-0.366922	0.327094
C39	C	1.599924	-0.360784	0.321642
C40	C	1.247755	-0.395659	0.575191
C41	C	1.241637	-0.401768	0.675462
C42	C	1.275038	-0.145995	0.352782
C43	C	1.280546	-0.045711	0.358277
C44	C	1.276467	-0.366977	0.105504
C45	C	1.282775	-0.360603	0.005237
C46	C	1.352636	-0.290763	0.863934
C47	C	1.346890	-0.296500	0.958148
C48	C	1.224398	-0.418972	0.958106
C49	C	1.230143	-0.413236	0.863892
C50	C	1.294265	-0.349130	0.816809
C51	C	1.300014	-0.343399	0.722593
C52	C	1.177518	-0.465867	0.722554
C53	C	1.171773	-0.471603	0.816768
H54	H	0.904298	-0.513583	0.457346
O55	O	1.114522	-0.528788	0.671726
H56	H	1.068964	-0.574317	0.720298
H57	H	0.732239	-0.524073	0.466671
O58	O	1.421802	-0.221633	0.813148
H59	H	1.415996	-0.227456	0.739718
H60	H	1.394420	-0.248969	0.996514
O61	O	1.120173	-0.908365	0.197630
H62	H	1.048913	-0.895627	0.217869
H63	H	0.792916	-0.238547	0.213084
H64	H	1.172193	-0.471164	0.996458
H65	H	0.928515	-0.291169	0.259814
O66	O	1.357353	-0.712129	0.435318
H67	H	1.392627	-0.760658	0.470654
O68	O	0.610070	-0.233596	0.208689
H69	H	0.631750	-0.243528	0.136036
O70	O	1.404226	-0.853368	0.482242
H71	H	1.439507	-0.901893	0.517575
O72	O	1.369171	-0.274262	0.671803
H73	H	1.356372	-0.205500	0.694598
O74	O	0.582373	-0.488486	0.434957
H75	H	0.597102	-0.476380	0.505648
H76	H	1.379906	-1.036786	0.457844
H77	H	1.182120	-1.037132	0.259676
H78	H	1.119565	-0.523794	0.855116
O79	O	1.130731	-0.712515	0.208287
H80	H	1.143848	-0.639067	0.221461
