data_functionalizedCrystal
_audit_creation_method	'MofGen! by Chris Wilmer'
_symmetry_space_group_name_H-M	'P1'
_symmetry_Int_Tables_number	1
_symmetry_cell_setting	triclinic
loop_
_symmetry_equiv_pos_as_xyz
  x,y,z
_cell_length_a	17.639054
_cell_length_b	17.637651
_cell_length_c	17.637815
_cell_angle_alpha	92.204965
_cell_angle_beta	92.193571
_cell_angle_gamma	109.615240
loop_
_atom_site_label
_atom_site_type_symbol
_atom_site_fract_x
_atom_site_fract_y
_atom_site_fract_z
Zn1	Zn	1.038767	-0.228531	0.611074
Zn2	Zn	1.048929	-0.328309	0.460774
Zn3	Zn	0.939042	-0.218310	0.460786
Zn4	Zn	0.888503	-0.378743	0.550196
O5	O	0.978810	-0.288473	0.520707
O6	O	1.148990	-0.224937	0.616609
O7	O	1.059755	-0.288333	0.360457
O8	O	0.969168	-0.110766	0.506205
O9	O	1.156455	-0.298243	0.506184
O10	O	1.042436	-0.118275	0.616621
O11	O	0.979022	-0.207517	0.360466
O12	O	0.823463	-0.256421	0.447174
O13	O	0.883033	-0.384202	0.658590
O14	O	0.786333	-0.374291	0.512863
O15	O	0.993431	-0.273841	0.703317
O16	O	1.010750	-0.443898	0.447153
O17	O	0.892886	-0.480953	0.512851
C18	C	0.776668	-0.319721	0.473414
C19	C	0.690184	-0.333112	0.453195
C20	C	0.572203	-0.390055	0.367156
C21	C	0.653468	-0.377467	0.386162
C22	C	0.645641	-0.301330	0.501249
C23	C	0.564372	-0.313914	0.482255
C24	C	0.527660	-0.358277	0.415207
C25	C	0.519830	-0.282136	0.530305
C26	C	0.438570	-0.294716	0.511310
C27	C	0.401852	-0.339075	0.444264
C28	C	0.446400	-0.370857	0.396212
C29	C	0.556545	-0.237770	0.597350
C30	C	0.512002	-0.205992	0.645401
C31	C	0.430739	-0.218576	0.626409
C32	C	0.394022	-0.262934	0.559363
C33	C	0.386191	-0.186794	0.674461
C34	C	0.304931	-0.199374	0.655466
C35	C	0.312762	-0.275514	0.540368
C36	C	0.947454	-0.490663	0.473415
C37	C	0.934105	-0.577155	0.453224
C38	C	1.080671	-0.880963	0.674442
C39	C	1.068106	-0.962236	0.655451
C40	C	0.991901	-0.954492	0.540403
C41	C	1.004463	-0.873215	0.559382
C42	C	1.048848	-0.836457	0.626403
C43	C	0.972640	-0.828709	0.511343
C44	C	0.985198	-0.747440	0.530323
C45	C	1.029579	-0.710677	0.597343
C46	C	1.061406	-0.755188	0.645384
C47	C	0.928250	-0.865470	0.444325
C48	C	0.896427	-0.820964	0.396286
C49	C	0.908989	-0.739693	0.415263
C50	C	0.953370	-0.702929	0.482283
C51	C	0.877162	-0.695182	0.367222
C52	C	0.889720	-0.613913	0.386203
C53	C	0.965928	-0.621661	0.501263
C54	C	1.181742	-0.257104	0.568186
C55	C	1.268219	-0.243737	0.588418
C56	C	0.931461	-0.335787	0.707693
C57	C	0.911284	-0.355950	0.787375
C58	C	1.010306	-0.085495	0.568205
C59	C	1.023728	0.001002	0.588446
C60	C	1.026029	-0.241280	0.334473
C61	C	1.046391	-0.220875	0.254878
C62	C	1.132309	-0.134988	1.165867
C63	C	1.113338	-0.153953	1.240734
C64	C	0.998390	-0.268861	1.194154
C65	C	1.017354	-0.249909	1.119281
C66	C	1.084314	-0.182970	1.105145
C67	C	0.969359	-0.297891	1.058559
C68	C	0.988319	-0.278937	0.983693
C69	C	1.055274	-0.212001	0.969549
C70	C	1.103274	-0.164017	1.030279
C71	C	0.902396	-0.364826	1.072697
C72	C	0.854400	-0.412808	1.011974
C73	C	0.873363	-0.393858	0.937107
C74	C	0.940319	-0.326921	0.922963
C75	C	0.825363	-0.441842	0.876377
C76	C	0.844324	-0.422888	0.801511
C77	C	0.959279	-0.307967	0.848097
H78	H	0.282866	-0.311647	0.485775
H79	H	0.955760	-0.984432	0.485835
O80	O	0.532599	-0.437906	0.294841
H81	H	0.510195	-0.399530	0.257930
H82	H	1.002078	-0.591729	0.555834
H83	H	1.039803	-0.644503	0.612795
O84	O	1.102430	-1.010247	0.707265
H85	H	1.169022	-0.982077	0.712954
O86	O	1.204532	-0.062791	1.150609
H87	H	1.234724	-0.032605	1.205410
H88	H	0.689732	-0.403348	0.347029
O89	O	0.644194	-0.224182	0.617839
H90	H	0.649505	-0.250343	0.673205
O91	O	0.685238	-0.253484	0.573564
H92	H	0.749225	-0.250078	0.578703
O93	O	0.914716	-0.953122	0.423849
H94	H	0.881957	-0.990664	0.469219
O95	O	0.829285	-0.734830	0.294941
H96	H	0.859330	-0.702934	0.245461
O97	O	0.314208	-0.352646	0.423766
H98	H	0.276653	-0.385465	0.469101
H99	H	1.097556	-0.725257	0.699955
O100	O	1.128547	-0.841305	0.746728
H101	H	1.148567	-0.885904	0.776948
H102	H	0.416504	-0.406989	0.341619
H103	H	0.805231	-0.461950	0.752068
O104	O	0.848570	-0.860606	0.323993
H105	H	0.845192	-0.924592	0.318859
H106	H	0.268665	-0.173493	0.694591
O107	O	1.165112	-0.102202	1.306233
H108	H	1.214860	-0.052477	1.283822
O109	O	0.855406	-0.565899	0.334390
H110	H	0.822442	-0.605109	0.284593
O111	O	0.551599	-0.158146	0.717715
H112	H	0.615587	-0.154740	0.722855
H113	H	1.013808	-0.253463	0.836587
H114	H	0.416097	-0.150668	0.729048
O115	O	1.075725	-0.191562	0.888799
H116	H	1.074101	-0.130304	0.879116
O117	O	1.175497	-0.091820	1.015020
H118	H	1.205688	-0.061634	1.069822
O119	O	0.926168	-0.341055	1.209402
H120	H	0.921047	-0.346176	1.271662
O121	O	0.881935	-0.385276	1.153442
H122	H	0.933171	-0.396944	1.183230
H123	H	0.799880	-0.467308	1.023495
O124	O	0.753138	-0.514031	0.891627
H125	H	0.748016	-0.519148	0.953888
