data_functionalizedCrystal
_audit_creation_method	'MofGen! by Chris Wilmer'
_symmetry_space_group_name_H-M	'P1'
_symmetry_Int_Tables_number	1
_symmetry_cell_setting	triclinic
loop_
_symmetry_equiv_pos_as_xyz
  x,y,z
_cell_length_a	16.956995
_cell_length_b	17.038272
_cell_length_c	16.053802
_cell_angle_alpha	92.751609
_cell_angle_beta	87.607939
_cell_angle_gamma	83.583014
loop_
_atom_site_label
_atom_site_type_symbol
_atom_site_fract_x
_atom_site_fract_y
_atom_site_fract_z
O1	O	1.063355	0.028766	-0.069487
O2	O	0.833051	0.056094	-0.069477
O3	O	0.946834	-0.071297	-0.069475
O4	O	0.949572	0.156157	-0.069489
O5	O	0.940569	-0.064312	0.069384
O6	O	0.826787	0.063079	0.069382
O7	O	1.057090	0.035751	0.069372
Zn8	Zn	0.940944	0.050524	0.091424
Zn9	Zn	0.949198	0.041321	-0.091529
O10	O	0.943308	0.163142	0.069370
C11	C	0.800306	0.060986	-0.000046
C12	C	0.712067	0.065146	-0.000042
C13	C	0.214880	0.096266	-0.000074
C14	C	0.297789	0.092351	-0.000074
C15	C	0.343892	0.018868	-0.000063
C16	C	0.307082	-0.050704	-0.000062
C17	C	0.224174	-0.046789	-0.000069
C18	C	0.592349	-0.000511	-0.000047
C19	C	0.675262	-0.004421	-0.000038
C20	C	0.665964	0.138635	-0.000051
C21	C	0.583055	0.142544	-0.000053
C22	C	0.546252	0.072971	-0.000056
N23	N	0.428639	0.014865	-0.000059
N24	N	0.461507	0.076975	-0.000066
C25	C	0.941212	-0.096772	-0.000046
C26	C	0.933784	-0.183087	-0.000046
C27	C	1.001985	-0.237591	-0.000048
C28	C	0.995001	-0.318693	-0.000056
C29	C	0.919814	-0.345288	-0.000055
C30	C	0.851608	-0.290777	-0.000055
C31	C	0.858593	-0.209678	-0.000054
C32	C	0.895137	-0.589458	-0.000065
C33	C	0.888157	-0.670564	-0.000064
C34	C	1.031551	-0.698474	-0.000066
C35	C	1.038530	-0.617372	-0.000060
C36	C	0.970323	-0.562868	-0.000064
C37	C	0.912673	-0.428186	-0.000060
C38	C	0.977465	-0.479972	-0.000065
C39	C	1.089836	0.030859	-0.000061
C40	C	1.178075	0.026698	-0.000071
C41	C	0.948930	0.188617	-0.000061
C42	C	0.956359	0.274932	-0.000067
N43	N	0.935316	0.056804	0.216284
N44	N	0.954831	0.035035	-0.216389
C45	C	0.983751	0.002615	0.259979
C46	C	0.979823	0.007015	0.347385
C47	C	0.927463	0.065607	0.391096
C48	C	0.879023	0.119798	0.347395
C49	C	0.882948	0.115394	0.259990
C50	C	0.910316	0.084822	0.652505
C51	C	0.906396	0.089223	0.739917
C52	C	1.007196	-0.023562	0.739901
C53	C	1.011120	-0.027957	0.652494
C54	C	0.962677	0.026231	0.608801
N55	N	0.923448	0.070108	0.480440
N56	N	0.966688	0.021727	0.519459
H57	H	0.344626	-0.110536	-0.000058
H58	H	0.826927	-0.692213	-0.000050
H59	H	0.839598	-0.545090	-0.000069
N60	N	1.040221	-0.060578	0.212826
H61	H	1.096495	-0.054461	0.228015
H62	H	1.026579	-0.114445	0.228066
N63	N	1.068563	-0.377476	-0.000051
H64	H	1.066533	-0.409162	0.051422
H65	H	1.071148	-0.414280	-0.051562
H66	H	0.562394	-0.057162	-0.000047
H67	H	0.790389	-0.312438	-0.000060
N68	N	1.067600	-0.091151	0.605356
H69	H	1.106396	-0.065474	0.569083
H70	H	1.097632	-0.124787	0.646358
N71	N	0.858064	0.143269	0.605396
H72	H	0.870269	0.198699	0.620595
H73	H	0.868506	0.131527	0.543406
N74	N	0.705658	0.213670	-0.000051
H75	H	0.765175	0.200043	-0.000046
H76	H	0.691464	0.242994	-0.051534
H77	H	0.863756	0.136939	0.775502
N78	N	0.785039	-0.150879	-0.000048
H79	H	0.754800	-0.161473	-0.051521
H80	H	0.750215	-0.156327	0.051463
H81	H	1.099754	-0.595725	-0.000060
H82	H	0.836386	0.167503	0.382989
N83	N	0.830711	0.173846	0.212861
H84	H	0.841141	0.162164	0.150858
H85	H	0.773096	0.169229	0.228159
N86	N	1.105113	-0.757258	-0.000060
H87	H	1.089283	-0.812670	-0.000060
H88	H	1.139966	-0.751763	-0.051537
H89	H	1.019262	-0.037110	0.382961
N90	N	0.165148	0.175517	-0.000087
H91	H	0.128215	0.182917	0.051387
H92	H	0.201093	0.218951	-0.000122
N93	N	1.059442	-0.082005	0.787025
H94	H	1.049013	-0.070327	0.849029
H95	H	1.047213	-0.137411	0.771760
H96	H	0.327752	0.149000	-0.000084
N97	N	0.724991	-0.083680	-0.000025
H98	H	0.689097	-0.127161	-0.000030
H99	H	0.761924	-0.091007	-0.051497
N100	N	0.831578	-0.456868	-0.000052
H101	H	0.827807	-0.492480	-0.051527
H102	H	0.823217	-0.487273	0.051457
N103	N	0.533326	0.221805	0.000046
H104	H	0.569222	0.265285	0.000079
H105	H	0.501004	0.224029	-0.051397
N106	N	0.184473	-0.121822	-0.000069
H107	H	0.226258	-0.168967	-0.000060
H108	H	0.147946	-0.120723	0.051404
H109	H	1.063210	-0.215945	-0.000043
H110	H	1.038682	-0.458315	-0.000084
