data_functionalizedCrystal
_audit_creation_method	'MofGen! by Chris Wilmer'
_symmetry_space_group_name_H-M	'P1'
_symmetry_Int_Tables_number	1
_symmetry_cell_setting	triclinic
loop_
_symmetry_equiv_pos_as_xyz
  x,y,z
_cell_length_a	14.044191
_cell_length_b	14.044190
_cell_length_c	16.776229
_cell_angle_alpha	89.988781
_cell_angle_beta	89.995480
_cell_angle_gamma	93.191777
loop_
_atom_site_label
_atom_site_type_symbol
_atom_site_fract_x
_atom_site_fract_y
_atom_site_fract_z
O1	O	1.277182	0.230203	-0.066266
O2	O	1.527182	0.480203	0.183734
O3	O	1.777182	0.730203	0.433734
O4	O	2.027182	0.980203	0.683734
O5	O	1.000509	0.221891	-0.066276
O6	O	1.250509	0.471891	0.183724
O7	O	1.500509	0.721891	0.433724
O8	O	1.750509	0.971891	0.683724
O9	O	1.134689	0.087711	-0.066255
O10	O	1.384689	0.337711	0.183745
O11	O	1.634689	0.587711	0.433745
O12	O	1.884689	0.837711	0.683745
O13	O	1.143002	0.364383	-0.066287
O14	O	1.393002	0.614383	0.183713
O15	O	1.643002	0.864383	0.433713
O16	O	1.893002	1.114383	0.683713
O17	O	1.134669	0.087700	0.066321
O18	O	1.384669	0.337700	0.316321
O19	O	1.634669	0.587700	0.566321
O20	O	1.884669	0.837700	0.816321
O21	O	1.000489	0.221880	0.066301
O22	O	1.250489	0.471880	0.316301
O23	O	1.500489	0.721880	0.566301
O24	O	1.750489	0.971880	0.816301
O25	O	1.277162	0.230193	0.066310
O26	O	1.527162	0.480193	0.316310
O27	O	1.777162	0.730193	0.566310
O28	O	2.027162	0.980193	0.816310
Zn29	Zn	1.138822	0.226035	0.087355
Zn30	Zn	1.388822	0.476035	0.337355
Zn31	Zn	1.638822	0.726035	0.587355
Zn32	Zn	1.888822	0.976035	0.837355
Zn33	Zn	1.138849	0.226049	-0.087320
Zn34	Zn	1.388849	0.476049	0.162680
Zn35	Zn	1.638849	0.726049	0.412680
Zn36	Zn	1.888849	0.976049	0.662680
O37	O	1.142982	0.364373	0.066290
O38	O	1.392982	0.614373	0.316290
O39	O	1.642982	0.864373	0.566290
O40	O	1.892982	1.114373	0.816290
C41	C	0.964877	0.218249	0.000012
C42	C	1.214877	0.468249	0.250012
C43	C	1.464877	0.718249	0.500012
C44	C	1.714877	0.968249	0.750012
C45	C	0.858734	0.207401	0.000009
C46	C	1.108734	0.457401	0.250009
C47	C	1.358734	0.707401	0.500009
C48	C	1.608734	0.957401	0.750009
C49	C	0.613277	0.264502	0.000010
C50	C	0.863277	0.514502	0.250010
C51	C	1.113277	0.764502	0.500010
C52	C	1.363277	1.014502	0.750010
C53	C	0.664400	0.187585	0.000017
C54	C	0.914400	0.437585	0.250017
C55	C	1.164400	0.687585	0.500017
C56	C	1.414400	0.937585	0.750017
C57	C	0.772537	0.198614	0.000013
C58	C	1.022537	0.448614	0.250013
C59	C	1.272537	0.698614	0.500013
C60	C	1.522537	0.948614	0.750013
C61	C	0.505130	0.253475	0.000015
C62	C	0.755130	0.503475	0.250015
C63	C	1.005130	0.753475	0.500015
C64	C	1.255130	1.003475	0.750015
C65	C	1.131043	0.052083	0.000035
C66	C	1.381043	0.302083	0.250035
C67	C	1.631043	0.552083	0.500035
C68	C	1.881043	0.802083	0.750035
C69	C	1.120195	-0.054060	0.000042
C70	C	1.370195	0.195940	0.250042
C71	C	1.620195	0.445940	0.500042
C72	C	1.870195	0.695940	0.750042
C73	C	1.177296	-0.299517	0.000012
C74	C	1.427296	-0.049517	0.250012
C75	C	1.677296	0.200483	0.500012
C76	C	1.927296	0.450483	0.750012
C77	C	1.100379	-0.248394	0.000015
C78	C	1.350379	0.001606	0.250015
C79	C	1.600379	0.251606	0.500015
C80	C	1.850379	0.501606	0.750015
C81	C	1.111408	-0.140257	0.000030
C82	C	1.361408	0.109743	0.250030
C83	C	1.611408	0.359743	0.500030
C84	C	1.861408	0.609743	0.750030
C85	C	1.166269	-0.407664	-0.000002
C86	C	1.416269	-0.157664	0.249998
C87	C	1.666269	0.092336	0.499998
C88	C	1.916269	0.342336	0.749998
C89	C	1.312794	0.233834	0.000021
C90	C	1.562794	0.483834	0.250021
C91	C	1.812794	0.733834	0.500021
C92	C	2.062794	0.983834	0.750021
C93	C	1.418937	0.244682	0.000019
C94	C	1.668937	0.494682	0.250019
C95	C	1.918937	0.744682	0.500019
C96	C	2.168937	0.994682	0.750019
C97	C	1.146628	0.400000	-0.000002
C98	C	1.396628	0.650000	0.249998
C99	C	1.646628	0.900000	0.499998
C100	C	1.896628	1.150000	0.749998
C101	C	1.157476	0.506143	-0.000014
C102	C	1.407476	0.756143	0.249986
C103	C	1.657476	1.006143	0.499986
C104	C	1.907476	1.256143	0.749986
N105	N	1.138811	0.226025	0.206566
N106	N	1.388811	0.476025	0.456566
N107	N	1.638811	0.726025	0.706566
N108	N	1.888811	0.976025	0.956566
N109	N	1.138867	0.226051	-0.206532
N110	N	1.388867	0.476051	0.043468
N111	N	1.638867	0.726051	0.293468
N112	N	1.888867	0.976051	0.543468
C113	C	1.198248	0.166638	0.248292
C114	C	1.448248	0.416638	0.498292
C115	C	1.698248	0.666638	0.748292
C116	C	1.948248	0.916638	0.998292
C117	C	1.198253	0.166638	0.331744
C118	C	1.448253	0.416638	0.581744
C119	C	1.698253	0.666638	0.831744
C120	C	1.948253	0.916638	1.081744
C121	C	1.138826	0.226030	0.373469
C122	C	1.388826	0.476030	0.623469
C123	C	1.638826	0.726030	0.873469
C124	C	1.888826	0.976030	1.123469
C125	C	1.079382	0.285419	0.331737
C126	C	1.329382	0.535419	0.581737
C127	C	1.579382	0.785419	0.831737
C128	C	1.829382	1.035419	1.081737
C129	C	1.079373	0.285414	0.248286
C130	C	1.329373	0.535414	0.498286
C131	C	1.579373	0.785414	0.748286
C132	C	1.829373	1.035414	0.998286
C133	C	1.079418	0.285441	0.668284
C134	C	1.329418	0.535441	0.918284
C135	C	1.579418	0.785441	1.168284
C136	C	1.829418	1.035441	1.418284
C137	C	1.079434	0.285443	0.751741
C138	C	1.329434	0.535443	1.001741
C139	C	1.579434	0.785443	1.251741
C140	C	1.829434	1.035443	1.501741
C141	C	1.198299	0.166665	0.751742
C142	C	1.448299	0.416665	1.001742
C143	C	1.698299	0.666665	1.251742
C144	C	1.948299	0.916665	1.501742
C145	C	1.198289	0.166660	0.668292
C146	C	1.448289	0.416660	0.918292
C147	C	1.698289	0.666660	1.168292
C148	C	1.948289	0.916660	1.418292
C149	C	1.138842	0.226045	0.626567
C150	C	1.388842	0.476045	0.876567
C151	C	1.638842	0.726045	1.126567
C152	C	1.888842	0.976045	1.376567
C153	C	1.138836	0.226043	0.536079
C154	C	1.388836	0.476043	0.786079
C155	C	1.638836	0.726043	1.036079
C156	C	1.888836	0.976043	1.286079
C157	C	1.138836	0.226037	0.463956
C158	C	1.388836	0.476037	0.713956
C159	C	1.638836	0.726037	0.963956
C160	C	1.888836	0.976037	1.213956
H161	H	0.650720	0.338629	-0.000001
H162	H	0.900720	0.588629	0.249999
H163	H	1.150720	0.838629	0.499999
H164	H	1.400720	1.088629	0.749999
H165	H	0.626955	0.113453	-0.000030
H166	H	0.876955	0.363453	0.249970
H167	H	1.126955	0.613453	0.499970
H168	H	1.376955	0.863453	0.749970
H169	H	1.246701	0.118307	0.785723
H170	H	1.496701	0.368307	1.035723
H171	H	1.746701	0.618307	1.285723
H172	H	1.996701	0.868307	1.535723
F173	F	1.003482	-0.297335	0.000010
F174	F	1.253482	-0.047335	0.250010
F175	F	1.503482	0.202665	0.500010
F176	F	1.753482	0.452665	0.750010
H177	H	1.246650	0.118280	0.365717
H178	H	1.496650	0.368280	0.615717
H179	H	1.746650	0.618280	0.865717
H180	H	1.996650	0.868280	1.115717
H181	H	1.030990	0.333773	0.365714
H182	H	1.280990	0.583773	0.615714
H183	H	1.530990	0.833773	0.865714
H184	H	1.780990	1.083773	1.115714
H185	H	1.251423	-0.262074	0.000023
H186	H	1.501423	-0.012074	0.250023
H187	H	1.751423	0.237926	0.500023
H188	H	2.001423	0.487926	0.750023
H189	H	1.246645	0.118279	0.214325
H190	H	1.496645	0.368279	0.464325
H191	H	1.746645	0.618279	0.714325
H192	H	1.996645	0.868279	0.964325
H193	H	1.031038	0.333809	0.785712
H194	H	1.281038	0.583809	1.035712
H195	H	1.531038	0.833809	1.285712
H196	H	1.781038	1.083809	1.535712
H197	H	1.246684	0.118301	0.634322
H198	H	1.496684	0.368301	0.884322
H199	H	1.746684	0.618301	1.134322
H200	H	1.996684	0.868301	1.384322
H201	H	1.031016	0.333796	0.634319
H202	H	1.281016	0.583796	0.884319
H203	H	1.531016	0.833796	1.134319
H204	H	1.781016	1.083796	1.384319
H205	H	1.030972	0.333771	0.214314
H206	H	1.280972	0.583771	0.464314
H207	H	1.530972	0.833771	0.714314
H208	H	1.780972	1.083771	0.964314
