data_functionalizedCrystal
_audit_creation_method	'MofGen! by Chris Wilmer'
_symmetry_space_group_name_H-M	'P1'
_symmetry_Int_Tables_number	1
_symmetry_cell_setting	triclinic
loop_
_symmetry_equiv_pos_as_xyz
  x,y,z
_cell_length_a	12.594517
_cell_length_b	12.594516
_cell_length_c	12.594509
_cell_angle_alpha	89.961298
_cell_angle_beta	90.021327
_cell_angle_gamma	89.979314
loop_
_atom_site_label
_atom_site_type_symbol
_atom_site_fract_x
_atom_site_fract_y
_atom_site_fract_z
Zn1	Zn	1.627231	0.423716	0.601783
Zn2	Zn	1.627107	0.601726	0.423772
Zn3	Zn	1.449235	0.423761	0.423811
Zn4	Zn	1.449202	0.601652	0.601702
O5	O	1.538194	0.512714	0.512767
O6	O	1.776160	0.447341	0.578186
O7	O	1.603474	0.578169	0.274831
O8	O	1.472912	0.274809	0.447470
O9	O	1.776069	0.578124	0.447402
O10	O	1.603685	0.274776	0.578225
O11	O	1.472792	0.447419	0.274860
O12	O	1.300285	0.447347	0.447392
O13	O	1.472856	0.577998	0.750658
O14	O	1.300261	0.578043	0.578087
O15	O	1.603654	0.447269	0.750718
O16	O	1.603442	0.750662	0.447324
O17	O	1.472736	0.750608	0.578048
C18	C	1.261653	0.512692	0.512735
C19	C	1.143347	0.512709	0.512747
C20	C	1.538101	0.789255	0.512696
C21	C	1.538158	0.907560	0.512701
C22	C	1.074077	0.441527	0.441798
C23	C	1.003257	0.538615	0.415600
C24	C	1.003368	0.415668	0.538963
C25	C	1.074086	0.609849	0.486499
C26	C	1.074203	0.486836	0.609907
C27	C	1.003416	0.583992	0.583746
C28	C	1.609362	1.047568	0.441705
C29	C	1.512241	0.976883	0.415556
C30	C	1.635268	0.976673	0.538802
C31	C	1.441068	1.047661	0.486565
C32	C	1.564161	1.047458	0.609857
C33	C	1.466973	0.976805	0.583745
C34	C	1.815815	0.512736	0.512799
C35	C	1.934120	0.512745	0.512813
C36	C	1.538265	0.512621	0.790388
C37	C	1.538296	0.512581	0.908693
C38	C	1.538284	1.235093	0.512827
C39	C	1.538240	1.116788	0.512764
C40	C	1.538184	0.512730	0.236226
C41	C	1.538360	0.512470	0.117921
C42	C	1.467177	0.583644	0.977914
C43	C	1.564296	0.609650	1.048700
C44	C	1.441253	0.486510	1.048707
C45	C	1.635465	0.538638	0.977921
C46	C	1.512356	0.415453	0.977922
C47	C	1.609542	0.441422	1.048675
H48	H	1.105103	0.381389	0.381724
Br49	Br	0.951319	0.575132	0.278700
H50	H	1.669781	0.381279	1.079549
H51	H	1.105021	0.691955	0.464262
H52	H	1.717583	0.560736	0.946958
Br53	Br	0.952025	0.684458	0.683800
Br54	Br	1.126180	0.450278	0.746774
Br55	Br	1.475685	0.278664	0.926060
H56	H	1.407082	0.643833	0.946846
Br57	Br	0.951579	0.278864	0.575872
H58	H	1.669467	1.078638	0.381593
H59	H	1.490274	0.945879	0.333419
Br60	Br	1.304426	0.449834	1.100536
Br61	Br	1.772084	0.924697	0.575550
H62	H	1.358955	1.078710	0.464423
H63	H	1.406724	0.945931	0.643811
Br64	Br	1.600821	1.099179	0.746718
H65	H	1.586270	0.691742	1.079790
