data_functionalizedCrystal
_audit_creation_method	'MofGen! by Chris Wilmer'
_symmetry_space_group_name_H-M	'P1'
_symmetry_Int_Tables_number	1
_symmetry_cell_setting	triclinic
loop_
_symmetry_equiv_pos_as_xyz
  x,y,z
_cell_length_a	18.215407
_cell_length_b	13.032721
_cell_length_c	18.215399
_cell_angle_alpha	97.154738
_cell_angle_beta	89.980167
_cell_angle_gamma	97.205008
loop_
_atom_site_label
_atom_site_type_symbol
_atom_site_fract_x
_atom_site_fract_y
_atom_site_fract_z
Zn1	Zn	1.087881	-0.416041	-0.453320
Zn2	Zn	1.587881	0.083959	0.046680
Zn3	Zn	1.072167	-0.590804	-0.345882
Zn4	Zn	1.572167	-0.090804	0.154118
Zn5	Zn	0.964810	-0.416075	-0.330271
Zn6	Zn	1.464810	0.083925	0.169729
Zn7	Zn	0.949162	-0.590746	-0.468902
Zn8	Zn	1.449162	-0.090746	0.031098
O9	O	1.018505	-0.503417	-0.399594
O10	O	1.518505	-0.003417	0.100406
O11	O	1.188780	-0.439234	-0.439081
O12	O	1.688780	0.060766	0.060919
O13	O	1.057898	-0.567665	-0.240831
O14	O	1.557898	-0.067665	0.259169
O15	O	0.994261	-0.269831	-0.333539
O16	O	1.494261	0.230169	0.166461
O17	O	1.177235	-0.567632	-0.360147
O18	O	1.677235	-0.067632	0.139853
O19	O	1.084681	-0.269806	-0.423943
O20	O	1.584681	0.230194	0.076057
O21	O	0.979024	-0.439292	-0.229361
O22	O	1.479024	0.060708	0.270639
O23	O	0.859751	-0.439236	-0.348648
O24	O	1.359751	0.060764	0.151352
O25	O	0.967591	-0.567533	-0.569816
O26	O	1.467591	-0.067533	-0.069816
O27	O	0.848254	-0.567566	-0.450500
O28	O	1.348254	-0.067566	0.049500
O29	O	1.069507	-0.439177	-0.558368
O30	O	1.569507	0.060823	-0.058368
O31	O	1.042724	-0.737036	-0.375256
O32	O	1.542724	-0.237036	0.124744
O33	O	0.952353	-0.736993	-0.465638
O34	O	1.452353	-0.236993	0.034362
C35	C	0.827300	-0.503399	-0.399571
C36	C	1.327300	-0.003399	0.100429
C37	C	0.745500	-0.503416	-0.399581
C38	C	1.245500	-0.003416	0.100419
C39	C	0.551329	-0.570343	-0.452566
C40	C	1.051329	-0.070343	0.047434
C41	C	0.474470	-0.570346	-0.452575
C42	C	0.974470	-0.070346	0.047425
C43	C	0.486431	-0.436510	-0.346640
C44	C	0.986431	0.063490	0.153360
C45	C	0.563289	-0.436502	-0.346634
C46	C	1.063289	0.063498	0.153366
C47	C	0.595736	-0.503424	-0.399597
C48	C	1.095736	-0.003424	0.100403
C49	C	0.442019	-0.503435	-0.399612
C50	C	0.942019	-0.003435	0.100388
C51	C	0.358685	-0.503438	-0.399621
C52	C	0.858685	-0.003438	0.100379
C53	C	0.679075	-0.503420	-0.399588
C54	C	1.179075	-0.003420	0.100412
C55	C	0.994156	-0.774933	-0.423847
C56	C	1.494156	-0.274933	0.076153
C57	C	0.983806	-0.891089	-0.434248
C58	C	1.483806	-0.391089	0.065752
C59	C	1.023945	-0.942861	-0.394199
C60	C	1.523945	-0.442861	0.105801
C61	C	1.013250	-1.062914	-0.404947
C62	C	1.513250	-0.562914	0.095053
C63	C	1.210456	-0.503435	-0.399617
C64	C	1.710456	-0.003435	0.100383
C65	C	1.292254	-0.503443	-0.399627
C66	C	1.792254	-0.003443	0.100373
C67	C	1.018556	-0.503345	-0.591540
C68	C	1.518556	-0.003345	-0.091540
C69	C	1.018578	-0.503314	-0.673337
C70	C	1.518578	-0.003314	-0.173337
C71	C	1.042969	-0.230840	-0.375262
C72	C	1.542969	0.269160	0.124738
C73	C	1.053395	-0.114684	-0.364893
C74	C	1.553395	0.385316	0.135107
C75	C	1.071668	-0.436417	-0.855565
C76	C	1.571668	0.063583	-0.355565
C77	C	1.071680	-0.436386	-0.932421
C78	C	1.571680	0.063614	-0.432421
C79	C	0.965554	-0.570049	-0.944331
C80	C	1.465554	-0.070049	-0.444331
C81	C	0.965540	-0.570074	-0.867476
C82	C	1.465540	-0.070074	-0.367476
C83	C	1.018601	-0.503259	-0.823095
C84	C	1.518601	-0.003259	-0.323095
C85	C	1.018627	-0.503204	-0.976807
C86	C	1.518627	-0.003204	-0.476807
C87	C	1.018639	-0.503172	-1.060137
C88	C	1.518639	-0.003172	-0.560137
C89	C	1.018589	-0.503290	-0.739759
C90	C	1.518589	-0.003290	-0.239759
C91	C	1.018503	-0.503413	-0.208387
C92	C	1.518503	-0.003413	0.291613
C93	C	1.018650	-0.503149	-0.126565
C94	C	1.518650	-0.003149	0.373435
H95	H	0.577745	-0.624833	-0.495693
H96	H	1.077745	-0.124833	0.004307
H97	H	1.114891	-0.381955	-0.958854
H98	H	1.614891	0.118045	-0.458854
C99	C	0.611457	-0.363973	-0.289009
C100	C	1.111457	0.136027	0.210991
C101	C	0.590720	-0.386618	-0.218191
C102	C	1.090720	0.113382	0.281809
C103	C	0.635082	-0.319836	-0.165094
C104	C	1.135082	0.180164	0.334906
H105	H	0.605195	-0.293740	-0.293487
H106	H	1.105195	0.206260	0.206513
H107	H	0.661884	-0.373561	-0.296544
H108	H	1.161884	0.126439	0.203456
H109	H	0.540305	-0.377021	-0.210658
H110	H	1.040305	0.122979	0.289342
H111	H	0.596985	-0.456839	-0.213689
H112	H	1.096985	0.043161	0.286311
H113	H	0.685509	-0.329424	-0.172629
H114	H	1.185509	0.170576	0.327371
H115	H	0.628817	-0.249607	-0.169579
H116	H	1.128817	0.250393	0.330421
H117	H	0.621023	-0.335197	-0.117038
H118	H	1.121023	0.164803	0.382962
C119	C	0.451144	-0.364033	-0.289063
C120	C	0.951144	0.135967	0.210937
C121	C	0.401717	-0.423125	-0.247095
C122	C	0.901717	0.076875	0.252905
C123	C	0.369205	-0.356395	-0.194042
C124	C	0.869205	0.143605	0.305958
H125	H	0.425192	-0.318534	-0.313120
H126	H	0.925192	0.181466	0.186880
H127	H	0.488574	-0.324191	-0.257474
H128	H	0.988574	0.175809	0.242526
H129	H	0.364292	-0.462948	-0.278680
H130	H	0.864292	0.037052	0.221320
H131	H	0.427650	-0.468620	-0.223022
H132	H	0.927650	0.031380	0.276978
H133	H	0.406635	-0.316554	-0.162453
H134	H	0.906635	0.183446	0.337547
H135	H	0.343257	-0.310900	-0.218105
H136	H	0.843257	0.189100	0.281895
H137	H	0.335670	-0.396480	-0.165556
H138	H	0.835670	0.103520	0.334444
H139	H	1.114872	-0.382009	-0.819432
H140	H	1.614872	0.117991	-0.319432
H141	H	0.922355	-0.624450	-0.980476
H142	H	1.422355	-0.124450	-0.480476
H143	H	0.438318	-0.624836	-0.495709
H144	H	0.938318	-0.124836	0.004291
C145	C	0.907884	-0.642767	-0.832360
C146	C	1.407884	-0.142767	-0.332360
C147	C	0.861434	-0.701301	-0.887677
C148	C	1.361434	-0.201301	-0.387677
C149	C	0.808321	-0.768280	-0.855357
C150	C	1.308321	-0.268280	-0.355357
H151	H	0.879325	-0.602914	-0.798813
H152	H	1.379325	-0.102914	-0.298813
H153	H	0.931925	-0.688365	-0.806468
H154	H	1.431925	-0.188365	-0.306468
H155	H	0.837395	-0.655709	-0.913557
H156	H	1.337395	-0.155709	-0.413557
H157	H	0.889971	-0.741175	-0.921228
H158	H	1.389971	-0.241175	-0.421228
H159	H	0.832362	-0.813878	-0.829465
H160	H	1.332362	-0.313878	-0.329465
H161	H	0.779768	-0.728419	-0.821810
H162	H	1.279768	-0.228419	-0.321810
H163	H	0.776803	-0.808010	-0.892885
H164	H	1.276803	-0.308010	-0.392885
H165	H	1.066232	-0.898309	-0.351957
H166	H	1.566232	-0.398309	0.148043
H167	H	0.970967	-1.107465	-0.447198
H168	H	1.470967	-0.607465	0.052802
C169	C	1.109715	-1.055105	-0.308568
C170	C	1.609715	-0.555105	0.191432
C171	C	1.109111	-0.947875	-0.309084
C172	C	1.609111	-0.447875	0.190916
C173	C	1.160974	-0.892959	-0.257202
C174	C	1.660974	-0.392959	0.242798
H175	H	1.157626	-1.072746	-0.320903
H176	H	1.657626	-0.572746	0.179097
H177	H	1.097386	-1.072941	-0.260681
H178	H	1.597386	-0.572941	0.239319
H179	H	1.121445	-0.930047	-0.356960
H180	H	1.621445	-0.430047	0.143040
H181	H	1.061213	-0.930204	-0.296741
H182	H	1.561213	-0.430204	0.203259
H183	H	1.148645	-0.910795	-0.209315
H184	H	1.648645	-0.410795	0.290685
H185	H	1.208881	-0.910608	-0.269542
H186	H	1.708881	-0.410608	0.230458
H187	H	1.160566	-0.820199	-0.257540
H188	H	1.660566	-0.320199	0.242460
C189	C	0.927436	-0.950674	-0.490516
C190	C	1.427436	-0.450674	0.009484
C191	C	0.928018	-1.057904	-0.489973
C192	C	1.428018	-0.557904	0.010027
C193	C	0.876092	-1.112823	-0.541792
C194	C	1.376092	-0.612823	-0.041792
H195	H	0.939703	-0.932904	-0.538423
H196	H	1.439703	-0.432904	-0.038423
H197	H	0.879545	-0.932971	-0.478119
H198	H	1.379545	-0.432971	0.021881
H199	H	0.975898	-1.075600	-0.502375
H200	H	1.475898	-0.575600	-0.002375
H201	H	0.915743	-1.075704	-0.442079
H202	H	1.415743	-0.575704	0.057921
H203	H	0.828201	-1.095119	-0.529395
H204	H	1.328201	-0.595119	-0.029395
H205	H	0.888363	-1.095044	-0.589696
H206	H	1.388363	-0.595044	-0.089696
H207	H	0.876475	-1.185583	-0.541426
H208	H	1.376475	-0.685583	-0.041426
