data_functionalizedCrystal
_audit_creation_method	'MofGen! by Chris Wilmer'
_symmetry_space_group_name_H-M	'P1'
_symmetry_Int_Tables_number	1
_symmetry_cell_setting	triclinic
loop_
_symmetry_equiv_pos_as_xyz
  x,y,z
_cell_length_a	12.645330
_cell_length_b	12.645331
_cell_length_c	13.032268
_cell_angle_alpha	97.159165
_cell_angle_beta	82.850170
_cell_angle_gamma	89.993100
loop_
_atom_site_label
_atom_site_type_symbol
_atom_site_fract_x
_atom_site_fract_y
_atom_site_fract_z
Zn1	Zn	-0.498291	-1.544579	0.590975
Zn2	Zn	-0.653079	-1.567003	0.416239
Zn3	Zn	-0.475812	-1.389821	0.416239
Zn4	Zn	-0.675487	-1.367299	0.590913
O5	O	-0.575668	-1.467175	0.503591
O6	O	-0.518854	-1.695897	0.567822
O7	O	-0.610779	-1.562310	0.270010
O8	O	-0.330450	-1.410390	0.439443
O9	O	-0.632576	-1.712372	0.439444
O10	O	-0.346965	-1.524091	0.567821
O11	O	-0.480542	-1.432135	0.270010
O12	O	-0.502270	-1.238489	0.439383
O13	O	-0.670767	-1.372005	0.737150
O14	O	-0.648970	-1.221942	0.567716
O15	O	-0.540582	-1.502252	0.737195
O16	O	-0.804396	-1.540471	0.439384
O17	O	-0.820859	-1.393749	0.567716
C18	C	-0.575613	-1.191752	0.503544
C19	C	-0.575619	-1.073921	0.503548
C20	C	-0.851094	-1.467125	0.503567
C21	C	-0.968927	-1.467197	0.503591
C22	C	-1.126069	-1.559389	0.422693
C23	C	-1.003534	-1.559630	0.422892
C24	C	-1.027496	-1.483296	0.613742
C25	C	-1.150039	-1.484000	0.613313
C26	C	-1.132616	-1.358733	0.475423
C27	C	-1.009694	-1.359588	0.472953
C28	C	-0.482995	-0.916675	0.423249
C29	C	-0.483174	-1.039280	0.422903
C30	C	-0.683415	-1.033289	0.473462
C31	C	-0.682884	-0.910763	0.472906
C32	C	-0.561515	-0.892501	0.614219
C33	C	-0.558952	-1.015185	0.613612
C34	C	-0.299168	-1.467251	0.503639
C35	C	-0.181341	-1.467284	0.503659
C36	C	-0.610682	-1.432115	0.776148
C37	C	-0.625603	-1.417174	0.892296
C38	C	-0.575700	-0.743676	0.503624
C39	C	-0.575655	-0.861510	0.503597
C40	C	-0.540713	-1.502161	0.232094
C41	C	-0.525493	-1.517307	0.115947
C42	C	-0.567842	-1.474957	0.944101
C43	C	-0.583262	-1.459516	1.064145
H44	H	-1.145072	-1.551229	0.340779
N45	N	-0.776426	-0.861926	0.547021
H46	H	-0.749714	-0.810317	0.603285
H47	H	-0.817793	-0.920075	0.579837
N48	N	-0.663880	-1.378830	1.123113
H49	H	-0.718790	-1.416109	1.168401
H50	H	-0.700231	-1.342406	1.071990
H51	H	-0.970257	-1.347193	0.391891
H52	H	-1.153460	-1.341354	0.396499
N53	N	-0.487221	-1.555636	0.885138
H54	H	-0.450794	-1.592077	0.936202
H55	H	-0.432378	-1.518283	0.839854
N56	N	-0.978433	-1.265298	0.545314
H57	H	-0.937224	-1.291115	0.599229
H58	H	-1.044728	-1.225398	0.581260
N59	N	-0.444855	-1.597985	1.057001
H60	H	-0.389944	-1.560701	1.011720
H61	H	-0.482249	-1.652863	1.011778
N62	N	-0.706217	-1.336493	0.951267
H63	H	-0.761126	-1.373771	0.996556
H64	H	-0.742568	-1.300068	0.900144
N65	N	-1.181085	-1.268056	0.553529
H66	H	-1.234345	-1.297089	0.606949
H67	H	-1.218261	-1.216344	0.516285
H68	H	-0.963012	-1.551202	0.341216
N69	N	-1.169931	-1.665720	0.447143
H70	H	-1.225449	-1.654487	0.510439
H71	H	-1.110139	-1.712466	0.461632
H72	H	-0.485024	-0.858071	0.641575
N73	N	-0.999449	-1.396340	0.695805
H74	H	-1.066372	-1.356181	0.729699
H75	H	-0.948358	-1.345621	0.662216
N76	N	-0.494041	-1.092075	0.314324
H77	H	-0.498743	-1.035701	0.266501
H78	H	-0.560749	-1.136066	0.316048
N79	N	-0.376702	-1.075934	0.447872
H80	H	-0.329228	-1.012408	0.459203
H81	H	-0.342104	-1.127878	0.387933
N82	N	-0.651113	-0.843864	0.693530
H83	H	-0.641605	-0.864036	0.764447
H84	H	-0.721510	-0.871267	0.673039
N85	N	-0.643344	-1.045015	0.697161
H86	H	-0.630586	-1.006095	0.766935
H87	H	-0.639927	-1.124435	0.699654
H88	H	-1.181640	-1.562923	0.637230
N89	N	-0.967762	-1.666504	0.447636
H90	H	-0.987589	-1.724535	0.393147
H91	H	-1.003822	-1.679382	0.518500
H92	H	-1.187736	-1.419078	0.675717
H93	H	-0.999847	-1.561241	0.638058
H94	H	-0.491054	-0.896335	0.341756
N95	N	-0.376146	-0.874445	0.447934
H96	H	-0.386763	-0.819143	0.511440
H97	H	-0.339957	-0.840997	0.386623
N98	N	-0.700975	-0.886620	0.365788
H99	H	-0.709217	-0.955514	0.319373
H100	H	-0.638020	-0.846720	0.335035
H101	H	-0.753689	-1.055156	0.530151
H102	H	-0.697605	-1.074260	0.393463
H103	H	-0.479696	-1.041357	0.636298
