data_functionalizedCrystal
_audit_creation_method	'MofGen! by Chris Wilmer'
_symmetry_space_group_name_H-M	'P1'
_symmetry_Int_Tables_number	1
_symmetry_cell_setting	triclinic
loop_
_symmetry_equiv_pos_as_xyz
  x,y,z
_cell_length_a	19.188930
_cell_length_b	17.038272
_cell_length_c	15.500227
_cell_angle_alpha	86.966746
_cell_angle_beta	92.848719
_cell_angle_gamma	87.128168
loop_
_atom_site_label
_atom_site_type_symbol
_atom_site_fract_x
_atom_site_fract_y
_atom_site_fract_z
O1	O	-0.935251	-0.093937	-0.072226
O2	O	-0.601918	0.239397	0.261107
O3	O	-0.268585	0.572730	0.594441
O4	O	-0.732754	-0.107077	-0.072167
O5	O	-0.399420	0.226256	0.261166
O6	O	-0.066087	0.559589	0.594500
O7	O	-0.832799	0.013304	-0.072189
O8	O	-0.499465	0.346638	0.261144
O9	O	-0.166132	0.679971	0.594477
O10	O	-0.835206	-0.214318	-0.072204
O11	O	-0.501873	0.119015	0.261130
O12	O	-0.168539	0.452348	0.594463
O13	O	-0.826726	0.006028	0.071701
O14	O	-0.493393	0.339361	0.405034
O15	O	-0.160059	0.672694	0.738368
O16	O	-0.726681	-0.114354	0.071723
O17	O	-0.393348	0.218980	0.405056
O18	O	-0.060014	0.552313	0.738390
O19	O	-0.929178	-0.101213	0.071664
O20	O	-0.595845	0.232120	0.404998
O21	O	-0.262512	0.565453	0.738331
Cu22	Cu	-0.827375	-0.108448	0.084832
Cu23	Cu	-0.494042	0.224885	0.418165
Cu24	Cu	-0.160709	0.558219	0.751499
Cu25	Cu	-0.834557	-0.099843	-0.085335
Cu26	Cu	-0.501224	0.233491	0.247999
Cu27	Cu	-0.167890	0.566824	0.581332
O28	O	-0.829133	-0.221595	0.071686
O29	O	-0.495800	0.111739	0.405020
O30	O	-0.162467	0.445072	0.738353
C31	C	-0.827573	0.038787	-0.000244
C32	C	-0.494240	0.372121	0.333090
C33	C	-0.160906	0.705454	0.666423
C34	C	-0.821041	0.125560	-0.000242
C35	C	-0.487708	0.458893	0.333091
C36	C	-0.154375	0.792226	0.666425
C37	C	-0.703679	-0.110290	-0.000214
C38	C	-0.370346	0.223043	0.333119
C39	C	-0.037013	0.556376	0.666452
C40	C	-0.626095	-0.109014	-0.000191
C41	C	-0.292761	0.224319	0.333142
C42	C	0.040572	0.557652	0.666475
C43	C	-0.958253	-0.098000	-0.000290
C44	C	-0.624919	0.235333	0.333043
C45	C	-0.291586	0.568667	0.666376
C46	C	-1.035838	-0.099276	-0.000319
C47	C	-0.702504	0.234058	0.333015
C48	C	-0.369171	0.567391	0.666348
C49	C	-0.585560	-0.179649	-0.000210
C50	C	-0.252226	0.153685	0.333124
C51	C	0.081107	0.487018	0.666457
C52	C	-0.512662	-0.178448	-0.000219
C53	C	-0.179328	0.154885	0.333114
C54	C	0.154005	0.488218	0.666448
C55	C	-0.480302	-0.106609	-0.000228
C56	C	-0.146969	0.226724	0.333106
C57	C	0.186364	0.560058	0.666439
C58	C	-0.520847	-0.035966	-0.000205
C59	C	-0.187513	0.297368	0.333129
C60	C	0.145820	0.630701	0.666462
C61	C	-0.593743	-0.037168	-0.000187
C62	C	-0.260409	0.296165	0.333147
C63	C	0.072924	0.629498	0.666480
N64	N	-0.370979	-0.049219	-0.049231
N65	N	-0.037646	0.284114	0.284102
N66	N	0.295688	0.617448	0.617436
N67	N	-0.301731	-0.048081	-0.049250
N68	N	0.031603	0.285252	0.284083
N69	N	0.364936	0.618586	0.617417
C70	C	-0.260671	-0.102981	-0.000280
C71	C	0.072662	0.230352	0.333053
C72	C	0.405996	0.563686	0.666386
N73	N	-0.291475	-0.159073	0.048698
N74	N	0.041858	0.174260	0.382032
N75	N	0.375191	0.507594	0.715365
N76	N	-0.360730	-0.160213	0.048714
N77	N	-0.027397	0.173120	0.382047
N78	N	0.305936	0.506454	0.715380
C79	C	-0.401259	-0.105297	-0.000247
C80	C	-0.067926	0.228036	0.333087
C81	C	0.265407	0.561370	0.666420
C82	C	-0.141091	-0.172319	-0.000307
C83	C	0.192242	0.161015	0.333026
C84	C	0.525575	0.494348	0.666359
C85	C	-0.068192	-0.171116	-0.000312
C86	C	0.265141	0.162218	0.333022
C87	C	0.598475	0.495551	0.666355
C88	C	-0.076379	-0.028630	-0.000306
C89	C	0.256955	0.304703	0.333027
C90	C	0.590288	0.638036	0.666361
C91	C	-0.149276	-0.029836	-0.000293
C92	C	0.184057	0.303497	0.333040
C93	C	0.517391	0.636831	0.666373
C94	C	-0.181628	-0.101682	-0.000298
C95	C	0.151705	0.231651	0.333035
C96	C	0.485039	0.564985	0.666369
C97	C	-0.834359	-0.247078	-0.000261
C98	C	-0.501026	0.086256	0.333072
C99	C	-0.167692	0.419589	0.666406
C100	C	-0.840891	-0.333850	-0.000268
C101	C	-0.507558	-0.000517	0.333065
C102	C	-0.174224	0.332817	0.666398
N103	N	-0.822329	-0.114500	0.204518
N104	N	-0.488996	0.218833	0.537851
N105	N	-0.155662	0.552167	0.871185
C106	C	-0.881009	0.175862	-0.000259
C107	C	-0.547675	0.509196	0.333075
C108	C	-0.214342	0.842529	0.666408
C109	C	-0.874868	0.257394	-0.000265
C110	C	-0.541534	0.590727	0.333068
C111	C	-0.208201	0.924061	0.666402
C112	C	-0.808759	0.288621	-0.000249
C113	C	-0.475425	0.621955	0.333085
C114	C	-0.142092	0.955288	0.666418
C115	C	-0.748787	0.238312	-0.000235
C116	C	-0.415454	0.571646	0.333099
C117	C	-0.082121	0.904979	0.666432
C118	C	-0.754929	0.156783	-0.000234
C119	C	-0.421596	0.490116	0.333099
C120	C	-0.088262	0.823449	0.666432
C121	C	-0.787061	0.534312	-0.000254
C122	C	-0.453728	0.867645	0.333079
C123	C	-0.120394	1.200978	0.666413
C124	C	-0.780924	0.615848	-0.000252
C125	C	-0.447590	0.949181	0.333082
C126	C	-0.114257	1.282514	0.666415
C127	C	-0.907005	0.634924	-0.000284
C128	C	-0.573672	0.968257	0.333050
C129	C	-0.240338	1.301590	0.666383
C130	C	-0.913141	0.553391	-0.000278
C131	C	-0.579807	0.886724	0.333055
C132	C	-0.246474	1.220058	0.666388
C133	C	-0.853169	0.503090	-0.000269
C134	C	-0.519836	0.836423	0.333064
C135	C	-0.186503	1.169756	0.666398
C136	C	-0.802480	0.371959	-0.000252
C137	C	-0.469147	0.705293	0.333081
C138	C	-0.135813	1.038626	0.666414
C139	C	-0.859449	0.419754	-0.000271
C140	C	-0.526116	0.753087	0.333062
C141	C	-0.192782	1.086420	0.666395
N142	N	-0.839608	-0.093784	-0.205021
N143	N	-0.506275	0.239549	0.128313
N144	N	-0.172941	0.572882	0.461646
C145	C	-0.864739	-0.063509	0.249785
C146	C	-0.531405	0.269825	0.583119
C147	C	-0.198072	0.603158	0.916452
C148	C	-0.860929	-0.068093	0.340359
C149	C	-0.527596	0.265240	0.673692
C150	C	-0.194262	0.598574	1.007026
C151	C	-0.814713	-0.123673	0.385664
C152	C	-0.481380	0.209661	0.718997
C153	C	-0.148047	0.542994	1.052330
C154	C	-0.772299	-0.174666	0.340390
C155	C	-0.438966	0.158667	0.673724
C156	C	-0.105632	0.492001	1.007057
C157	C	-0.776106	-0.170078	0.249818
C158	C	-0.442772	0.163256	0.583152
C159	C	-0.109439	0.496589	0.916485
C160	C	-0.801000	-0.140189	0.659134
C161	C	-0.467667	0.193144	0.992467
C162	C	-0.134334	0.526477	1.325800
C163	C	-0.797199	-0.144776	0.749712
C164	C	-0.463865	0.188558	1.083045
C165	C	-0.130532	0.521891	1.416379
C166	C	-0.885828	-0.038201	0.749674
C167	C	-0.552495	0.295132	1.083008
C168	C	-0.219161	0.628466	1.416341
C169	C	-0.889633	-0.033621	0.659101
C170	C	-0.556300	0.299713	0.992434
C171	C	-0.222967	0.633046	1.325767
C172	C	-0.847217	-0.084611	0.613835
C173	C	-0.513883	0.248722	0.947168
C174	C	-0.180550	0.582056	1.280502
C175	C	-0.810820	-0.128361	0.478245
C176	C	-0.477487	0.204972	0.811578
C177	C	-0.144153	0.538305	1.144911
C178	C	-0.851107	-0.079918	0.521256
C179	C	-0.517774	0.253415	0.854589
C180	C	-0.184440	0.586749	1.187923
H181	H	-0.611896	-0.238151	-0.000215
H182	H	-0.278563	0.095182	0.333118
H183	H	0.054771	0.428515	0.666452
H184	H	-0.741570	-0.211599	0.212962
H185	H	-0.408237	0.121734	0.546296
H186	H	-0.074904	0.455068	0.879629
H187	H	-0.035189	-0.228637	-0.000321
H188	H	0.298144	0.104696	0.333012
H189	H	0.631478	0.438029	0.666345
H190	H	-0.494495	0.022527	-0.000224
H191	H	-0.161162	0.355861	0.333110
H192	H	0.172171	0.689194	0.666443
H193	H	-0.626746	0.020353	-0.000172
H194	H	-0.293413	0.353686	0.333161
H195	H	0.039920	0.687019	0.666494
O196	O	-0.175994	-0.249805	-0.000295
O197	O	0.157340	0.083528	0.333038
O198	O	0.490673	0.416862	0.666372
H199	H	-0.135556	-0.298723	-0.000293
H200	H	0.197778	0.034610	0.333041
H201	H	0.531111	0.367944	0.666374
O202	O	-0.731178	0.405645	-0.000216
O203	O	-0.397845	0.738978	0.333117
O204	O	-0.064512	1.072312	0.666450
H205	H	-0.727840	0.445302	-0.058857
H206	H	-0.394507	0.778635	0.274476
H207	H	-0.061173	1.111969	0.607809
H208	H	-0.050035	0.029865	-0.000367
H209	H	0.283299	0.363199	0.332967
H210	H	0.616632	0.696532	0.666300
H211	H	-0.479652	-0.235969	-0.000231
H212	H	-0.146318	0.097364	0.333102
H213	H	0.187015	0.430697	0.666435
H214	H	-0.182281	0.027683	-0.000283
H215	H	0.151053	0.361016	0.333050
H216	H	0.484386	0.694349	0.666383
H217	H	-0.934841	0.150444	-0.000266
H218	H	-0.601508	0.483777	0.333067
H219	H	-0.268175	0.817110	0.666400
H220	H	-0.902375	-0.018253	0.212904
H221	H	-0.569042	0.315080	0.546237
H222	H	-0.235709	0.648413	0.879571
H223	H	-0.888733	-0.034662	0.484366
H224	H	-0.555400	0.298671	0.817699
H225	H	-0.222067	0.632004	1.151033
O226	O	-0.939545	0.311651	-0.000268
O227	O	-0.606212	0.644984	0.333065
O228	O	-0.272878	0.978318	0.666398
H229	H	-0.986546	0.276239	-0.000264
H230	H	-0.653212	0.609572	0.333069
H231	H	-0.319879	0.942905	0.666403
H232	H	-0.966974	0.527972	-0.000291
H233	H	-0.633640	0.861306	0.333042
H234	H	-0.300307	1.194639	0.666375
O235	O	-0.971687	0.689175	-0.000299
O236	O	-0.638354	1.022508	0.333034
O237	O	-0.305020	1.355841	0.666367
H238	H	-0.956314	0.751115	-0.000303
H239	H	-0.622980	1.084448	0.333031
H240	H	-0.289647	1.417781	0.666364
H241	H	-0.773191	-0.173617	0.515139
H242	H	-0.439858	0.159716	0.848473
H243	H	-0.106525	0.493050	1.181806
O244	O	-0.939487	0.026316	0.610230
O245	O	-0.606153	0.359649	0.943564
O246	O	-0.272820	0.692983	1.276897
H247	H	-0.909587	0.066312	0.568978
H248	H	-0.576254	0.399646	0.902311
H249	H	-0.242920	0.732979	1.235644
O250	O	-0.931569	0.016795	0.798503
O251	O	-0.598236	0.350128	1.131837
O252	O	-0.264903	0.683461	1.465170
H253	H	-0.987308	0.007861	0.781091
H254	H	-0.653975	0.341194	1.114424
H255	H	-0.320642	0.674527	1.447758
H256	H	-0.727087	0.641268	-0.000225
H257	H	-0.393753	0.974602	0.333109
H258	H	-0.060420	1.307935	0.666442
H259	H	-0.706097	0.115826	-0.000221
H260	H	-0.372764	0.449160	0.333112
H261	H	-0.039431	0.782493	0.666446
H262	H	-0.738228	0.493365	-0.000246
H263	H	-0.404894	0.826699	0.333087
H264	H	-0.071561	1.160032	0.666420
O265	O	-0.677481	0.271986	-0.000208
O266	O	-0.344148	0.605320	0.333125
O267	O	-0.010814	0.938653	0.666459
H268	H	-0.683283	0.337130	-0.000198
H269	H	-0.349949	0.670463	0.333135
H270	H	-0.016616	1.003796	0.666468
O271	O	-0.906670	-0.013099	0.389190
O272	O	-0.573337	0.320235	0.722523
O273	O	-0.240003	0.653568	1.055856
H274	H	-0.940806	-0.048007	0.430435
H275	H	-0.607473	0.285326	0.763769
H276	H	-0.274139	0.618659	1.097102
H277	H	-0.759562	-0.190038	0.786595
H278	H	-0.426229	0.143295	1.119929
H279	H	-0.092896	0.476628	1.453262
O280	O	-0.930749	0.386073	-0.000295
O281	O	-0.597416	0.719406	0.333038
O282	O	-0.264083	1.052739	0.666371
H283	H	-0.971422	0.434746	-0.000312
H284	H	-0.638089	0.768079	0.333021
H285	H	-0.304755	1.101412	0.666354
O286	O	-0.755260	-0.195191	0.610316
O287	O	-0.421927	0.138143	0.943649
O288	O	-0.088594	0.471476	1.276982
H289	H	-0.722492	-0.234615	0.657038
H290	H	-0.389159	0.098719	0.990371
H291	H	-0.055826	0.432052	1.323705
H292	H	-0.734666	-0.219918	0.377283
H293	H	-0.401332	0.113416	0.710616
H294	H	-0.067999	0.446749	1.043949
