data_functionalizedCrystal
_audit_creation_method	'MofGen! by Chris Wilmer'
_symmetry_space_group_name_H-M	'P1'
_symmetry_Int_Tables_number	1
_symmetry_cell_setting	triclinic
loop_
_symmetry_equiv_pos_as_xyz
  x,y,z
_cell_length_a	27.732048
_cell_length_b	23.532407
_cell_length_c	22.010155
_cell_angle_alpha	90.011379
_cell_angle_beta	90.002908
_cell_angle_gamma	97.254300
loop_
_atom_site_label
_atom_site_type_symbol
_atom_site_fract_x
_atom_site_fract_y
_atom_site_fract_z
O1	O	-0.641035	0.067758	-0.050439
O2	O	-0.141035	0.567758	0.449561
O3	O	-0.500257	0.078062	-0.050456
O4	O	-0.000257	0.578062	0.449544
O5	O	-0.574891	-0.010031	-0.050453
O6	O	-0.074891	0.489969	0.449547
O7	O	-0.566401	0.155850	-0.050441
O8	O	-0.066401	0.655850	0.449559
O9	O	-0.574878	-0.010017	0.050597
O10	O	-0.074878	0.489983	0.550597
O11	O	-0.500244	0.078075	0.050595
O12	O	-0.000244	0.578075	0.550595
O13	O	-0.641021	0.067772	0.050612
O14	O	-0.141021	0.567772	0.550612
Cu15	Cu	-0.570631	0.072925	0.059830
Cu16	Cu	-0.070631	0.572925	0.559830
Cu17	Cu	-0.570647	0.072908	-0.059674
Cu18	Cu	-0.070647	0.572908	0.440326
O19	O	-0.566387	0.155864	0.050609
O20	O	-0.066387	0.655864	0.550609
C21	C	-0.482243	0.077852	0.000067
C22	C	0.017757	0.577852	0.500067
C23	C	-0.428587	0.077201	0.000060
C24	C	0.071413	0.577201	0.500060
C25	C	-0.574668	-0.031240	0.000069
C26	C	-0.074668	0.468760	0.500069
C27	C	-0.574018	-0.094455	0.000060
C28	C	-0.074018	0.405545	0.500060
C29	C	-0.659035	0.067981	0.000088
C30	C	-0.159035	0.567981	0.500088
C31	C	-0.712691	0.068632	0.000091
C32	C	-0.212691	0.568632	0.500091
C33	C	-0.089846	0.125158	0.000090
C34	C	0.410154	0.625158	0.500090
C35	C	0.111817	0.122741	0.000095
C36	C	0.611817	0.622741	0.500095
O37	O	0.143005	0.166594	0.000125
O38	O	0.643005	0.666594	0.500125
N39	N	0.131021	0.070506	0.000090
N40	N	0.631021	0.570506	0.500090
C41	C	0.099806	0.018871	0.000088
C42	C	0.599806	0.518871	0.500088
O43	O	0.120768	-0.025614	0.000091
O44	O	0.620768	0.474386	0.500091
C45	C	-0.101856	0.021288	0.000087
C46	C	0.398144	0.521288	0.500087
C47	C	-0.121057	0.073527	0.000086
C48	C	0.378943	0.573527	0.500086
C49	C	-0.109048	0.177392	0.000089
C50	C	0.390952	0.677392	0.500089
C51	C	-0.159461	0.177996	0.000085
C52	C	0.340539	0.677996	0.500085
C53	C	-0.190672	0.126365	0.000081
C54	C	0.309328	0.626365	0.500081
C55	C	-0.171470	0.074130	0.000081
C56	C	0.328530	0.574130	0.500081
C57	C	-0.133070	-0.030346	0.000090
C58	C	0.366930	0.469654	0.500090
C59	C	-0.183489	-0.029737	0.000091
C60	C	0.316511	0.470263	0.500091
C61	C	-0.202690	0.022501	0.000090
C62	C	0.297310	0.522501	0.500090
C63	C	-0.253094	0.023103	0.000073
C64	C	0.246906	0.523103	0.500073
N65	N	-0.272298	0.075338	0.000078
N66	N	0.227702	0.575338	0.500078
C67	C	-0.241087	0.126969	0.000082
C68	C	0.258913	0.626969	0.500082
C69	C	0.205682	0.017606	0.000088
C70	C	0.705682	0.517606	0.500088
C71	C	0.256097	0.017001	0.000087
C72	C	0.756097	0.517001	0.500087
C73	C	0.268105	0.120872	0.000095
C74	C	0.768105	0.620872	0.500095
C75	C	0.217689	0.121476	0.000091
C76	C	0.717689	0.621476	0.500091
C77	C	0.186478	0.069841	0.000092
C78	C	0.686478	0.569841	0.500092
C79	C	-0.346958	0.128233	0.000071
C80	C	0.153042	0.628233	0.500071
C81	C	-0.397376	0.128832	0.000064
C82	C	0.102624	0.628832	0.500064
C83	C	-0.409379	0.024962	0.000059
C84	C	0.090621	0.524962	0.500059
C85	C	-0.358966	0.024362	0.000063
C86	C	0.141034	0.524362	0.500063
C87	C	-0.327756	0.076003	0.000071
C88	C	0.172244	0.576003	0.500071
O89	O	-0.284311	-0.020727	0.000050
O90	O	0.215689	0.479273	0.500050
O91	O	-0.262058	0.171448	0.000093
O92	O	0.237942	0.671448	0.500093
C93	C	-0.039433	0.124554	0.000095
C94	C	0.460567	0.624554	0.500095
C95	C	-0.020232	0.072320	0.000095
C96	C	0.479768	0.572320	0.500095
C97	C	-0.051443	0.020689	0.000091
C98	C	0.448557	0.520689	0.500091
C99	C	0.030184	0.071715	0.000094
C100	C	0.530184	0.571715	0.500094
C101	C	0.061395	0.123346	0.000098
C102	C	0.561395	0.623346	0.500098
C103	C	0.042191	0.175581	0.000103
C104	C	0.542191	0.675581	0.500103
C105	C	-0.008222	0.176185	0.000099
C106	C	0.491778	0.676185	0.500099
C107	C	-0.032239	-0.031547	0.000087
C108	C	0.467761	0.468453	0.500087
C109	C	0.018175	-0.032146	0.000090
C110	C	0.518175	0.467854	0.500090
C111	C	0.049386	0.019485	0.000094
C112	C	0.549386	0.519485	0.500094
C113	C	-0.566611	0.177073	0.000086
C114	C	-0.066611	0.677073	0.500086
C115	C	-0.567261	0.240289	0.000091
C116	C	-0.067261	0.740289	0.500091
C117	C	-0.614108	0.506356	0.000072
C118	C	-0.114108	1.006356	0.500072
C119	C	-0.613504	0.446957	0.000074
C120	C	-0.113504	0.946957	0.500074
O121	O	-0.650668	0.410133	0.000058
O122	O	-0.150668	0.910133	0.500058
N123	N	-0.569134	0.424426	0.000074
N124	N	-0.069134	0.924426	0.500074
C125	C	-0.525365	0.461297	0.000065
C126	C	-0.025365	0.961297	0.500065
O127	O	-0.487570	0.436678	0.000065
O128	O	0.012430	0.936678	0.500065
C129	C	-0.525970	0.520694	0.000059
C130	C	-0.025970	1.020694	0.500059
C131	C	-0.570343	0.543222	0.000066
C132	C	-0.070343	1.043222	0.500066
C133	C	-0.658477	0.528884	0.000078
C134	C	-0.158477	1.028884	0.500078
C135	C	-0.659081	0.588279	0.000078
C136	C	-0.159081	1.088279	0.500078
C137	C	-0.615315	0.625146	0.000071
C138	C	-0.115315	1.125146	0.500071
C139	C	-0.570946	0.602617	0.000065
C140	C	-0.070946	1.102617	0.500065
C141	C	-0.482201	0.557564	0.000047
C142	C	0.017799	1.057564	0.500047
C143	C	-0.482810	0.616965	0.000040
C144	C	0.017190	1.116965	0.500040
C145	C	-0.527182	0.639493	0.000047
C146	C	-0.027182	1.139493	0.500047
C147	C	-0.527784	0.698878	0.000059
C148	C	-0.027784	1.198878	0.500059
N149	N	-0.572154	0.721410	0.000059
N150	N	-0.072154	1.221410	0.500059
C151	C	-0.615920	0.684543	0.000065
C152	C	-0.115920	1.184543	0.500065
C153	C	-0.524100	0.336557	0.000077
C154	C	-0.024100	0.836557	0.500077
C155	C	-0.523495	0.277160	0.000087
C156	C	-0.023495	0.777160	0.500087
C157	C	-0.611634	0.262825	0.000095
C158	C	-0.111634	0.762825	0.500095
C159	C	-0.612238	0.322222	0.000089
C160	C	-0.112238	0.822222	0.500089
C161	C	-0.568470	0.359088	0.000077
C162	C	-0.068470	0.859088	0.500077
C163	C	-0.617184	0.809278	0.000065
C164	C	-0.117184	1.309278	0.500065
C165	C	-0.617784	0.868678	0.000067
C166	C	-0.117784	1.368678	0.500067
C167	C	-0.529645	0.883009	0.000056
C168	C	-0.029645	1.383009	0.500056
C169	C	-0.529045	0.823613	0.000057
C170	C	-0.029045	1.323613	0.500057
C171	C	-0.572818	0.786748	0.000060
C172	C	-0.072818	1.286748	0.500060
O173	O	-0.490640	0.735737	0.000072
O174	O	0.009360	1.235737	0.500072
O175	O	-0.653709	0.709171	0.000058
O176	O	-0.153709	1.209171	0.500058
N177	N	-0.570624	0.072936	0.143882
N178	N	-0.070624	0.572936	0.643882
C179	C	-0.603697	0.033911	0.563663
C180	C	-0.103697	0.533911	1.063663
C181	C	-0.603699	0.033907	0.627271
C182	C	-0.103699	0.533907	1.127271
O183	O	-0.631800	0.000732	0.660163
O184	O	-0.131800	0.500732	1.160163
N185	N	-0.570647	0.072901	0.659090
N186	N	-0.070647	0.572901	1.159090
C187	C	-0.537587	0.111898	0.627298
C188	C	-0.037587	0.611898	1.127298
O189	O	-0.509473	0.145065	0.660203
O190	O	-0.009473	0.645065	1.160203
C191	C	-0.537583	0.111898	0.563691
C192	C	-0.037583	0.611898	1.063691
C193	C	-0.570640	0.072905	0.531876
C194	C	-0.070640	0.572905	1.031876
C195	C	-0.636751	-0.005079	0.531847
C196	C	-0.136751	0.494921	1.031847
C197	C	-0.636750	-0.005075	0.468244
C198	C	-0.136750	0.494925	0.968244
C199	C	-0.603693	0.033919	0.436457
C200	C	-0.103693	0.533919	0.936457
C201	C	-0.570639	0.072910	0.468272
C202	C	-0.070639	0.572910	0.968272
C203	C	-0.504521	0.150891	0.531900
C204	C	-0.004521	0.650891	1.031900
C205	C	-0.504519	0.150888	0.468290
C206	C	-0.004519	0.650888	0.968290
C207	C	-0.537577	0.111895	0.436474
C208	C	-0.037577	0.611895	0.936474
C209	C	-0.537580	0.111908	0.372882
C210	C	-0.037580	0.611908	0.872882
N211	N	-0.570633	0.072914	0.341063
N212	N	-0.070633	0.572914	0.841063
C213	C	-0.603689	0.033920	0.372850
C214	C	-0.103689	0.533920	0.872850
C215	C	-0.537597	0.111893	0.760875
C216	C	-0.037597	0.611893	1.260875
C217	C	-0.537603	0.111896	0.824481
C218	C	-0.037603	0.611896	1.324481
C219	C	-0.603715	0.033905	0.824449
C220	C	-0.103715	0.533905	1.324449
C221	C	-0.603711	0.033905	0.760843
C222	C	-0.103711	0.533905	1.260843
C223	C	-0.570650	0.072899	0.729056
C224	C	-0.070650	0.572899	1.229056
C225	C	-0.603683	0.033932	0.239279
C226	C	-0.103683	0.533932	0.739279
C227	C	-0.603680	0.033941	0.175670
C228	C	-0.103680	0.533941	0.675670
C229	C	-0.537567	0.111931	0.175707
C230	C	-0.037567	0.611931	0.675707
C231	C	-0.537571	0.111924	0.239310
C232	C	-0.037571	0.611924	0.739310
C233	C	-0.570632	0.072919	0.271095
C234	C	-0.070632	0.572919	0.771095
O235	O	-0.509493	0.145065	0.339949
O236	O	-0.009493	0.645065	0.839949
O237	O	-0.631794	0.000753	0.339937
O238	O	-0.131794	0.500753	0.839937
N239	N	-0.570658	0.072900	0.856274
N240	N	-0.070658	0.572900	1.356274
H241	H	-0.321553	0.170283	0.000080
H242	H	0.178447	0.670283	0.500080
H243	H	-0.695214	0.606616	0.000081
H244	H	-0.195214	1.106616	0.500081
C245	C	-0.640075	-0.008994	0.859424
C246	C	-0.140075	0.491006	1.359424
C247	C	-0.676436	-0.051891	0.824437
C248	C	-0.176436	0.448109	1.324437
C249	C	-0.712793	-0.094787	0.859414
C250	C	-0.212793	0.405213	1.359414
C251	C	-0.712790	-0.094785	0.929379
C252	C	-0.212790	0.405215	1.429379
C253	C	-0.676428	-0.051887	0.964370
C254	C	-0.176428	0.448113	1.464370
C255	C	-0.640070	-0.008991	0.929393
C256	C	-0.140070	0.491009	1.429393
H257	H	-0.676439	-0.051894	0.772642
H258	H	-0.176439	0.448106	1.272642
H259	H	-0.739711	-0.126544	0.833511
H260	H	-0.239711	0.373456	1.333511
H261	H	-0.739704	-0.126539	0.955271
H262	H	-0.239704	0.373461	1.455271
H263	H	-0.676424	-0.051884	1.016166
H264	H	-0.176424	0.448116	1.516166
H265	H	-0.613153	0.022766	0.955296
H266	H	-0.113153	0.522766	1.455296
C267	C	-0.468154	0.193780	0.566889
C268	C	0.031846	0.693780	1.066889
C269	C	-0.413118	0.193260	0.558141
C270	C	0.086882	0.693260	1.058141
C271	C	-0.376748	0.236150	0.593130
C272	C	0.123252	0.736150	1.093130
C273	C	-0.395413	0.279561	0.636865
C274	C	0.104587	0.779561	1.136865
C275	C	-0.450451	0.280084	0.645615
C276	C	0.049549	0.780084	1.145615
C277	C	-0.486821	0.237193	0.610626
C278	C	0.013179	0.737193	1.110626
H279	H	-0.399299	0.161123	0.525764
H280	H	0.100701	0.661123	1.025764
H281	H	-0.336005	0.235763	0.586653
H282	H	0.163995	0.735763	1.086653
H283	H	-0.368489	0.311311	0.662766
H284	H	0.131511	0.811311	1.162766
H285	H	-0.464270	0.312221	0.677992
H286	H	0.035730	0.812221	1.177992
H287	H	-0.527564	0.237580	0.617103
H288	H	-0.027564	0.737580	1.117103
H289	H	-0.413007	0.171373	0.000063
H290	H	0.086993	0.671373	0.500063
H291	H	0.202059	0.164013	0.000094
H292	H	0.702059	0.664013	0.500094
H293	H	-0.175089	0.220534	0.000083
H294	H	0.324911	0.720534	0.500083
H295	H	-0.510690	0.143654	0.850381
H296	H	-0.010690	0.643654	1.350381
H297	H	0.271726	-0.025537	0.000078
H298	H	0.771726	0.474463	0.500078
H299	H	-0.663670	-0.036836	0.557723
H300	H	-0.163670	0.463164	1.057723
H301	H	-0.510654	0.143681	0.149816
H302	H	-0.010654	0.643681	0.649816
C303	C	-0.673109	-0.047973	0.433250
C304	C	-0.173109	0.452027	0.933250
C305	C	-0.672607	-0.112821	0.441988
C306	C	-0.172607	0.387179	0.941988
C307	C	-0.708966	-0.155723	0.406998
C308	C	-0.208966	0.344277	0.906998
C309	C	-0.745827	-0.133777	0.363270
C310	C	-0.245827	0.366223	0.863270
C311	C	-0.746330	-0.068927	0.354530
C312	C	-0.246330	0.431073	0.854530
C313	C	-0.709971	-0.026025	0.389520
C314	C	-0.209971	0.473975	0.889520
H315	H	-0.645319	-0.129069	0.474359
H316	H	-0.145319	0.370931	0.974359
H317	H	-0.708593	-0.203730	0.413468
H318	H	-0.208593	0.296270	0.913468
H319	H	-0.772742	-0.165536	0.337368
H320	H	-0.272742	0.334464	0.837368
H321	H	-0.773618	-0.052679	0.322159
H322	H	-0.273618	0.447321	0.822159
H323	H	-0.710344	0.021982	0.383050
H324	H	-0.210344	0.521982	0.883050
C325	C	0.171355	-0.039198	0.000082
C326	C	0.671355	0.460802	0.500082
C327	C	0.173342	-0.082123	0.052547
C328	C	0.673342	0.417877	0.552547
C329	C	0.139018	-0.138927	0.052537
C330	C	0.639018	0.361073	0.552537
C331	C	0.102706	-0.152806	0.000062
C332	C	0.602706	0.347194	0.500062
C333	C	0.100717	-0.109880	-0.052407
C334	C	0.600717	0.390120	0.447593
C335	C	0.135042	-0.053076	-0.052397
C336	C	0.635042	0.446924	0.447603
H337	H	0.200224	-0.071849	0.091396
H338	H	0.700224	0.428151	0.591396
H339	H	0.140491	-0.170703	0.091378
H340	H	0.640491	0.329297	0.591378
H341	H	0.077297	-0.194856	0.000054
H342	H	0.577297	0.305144	0.500054
H343	H	0.073836	-0.120154	-0.091256
H344	H	0.573836	0.379846	0.408744
H345	H	0.133569	-0.021300	-0.091239
H346	H	0.633569	0.478700	0.408761
H347	H	-0.630629	0.002154	0.734942
H348	H	-0.130629	0.502154	1.234942
C349	C	-0.475950	0.377107	0.000076
C350	C	0.024050	0.877107	0.500076
C351	C	-0.439514	0.374834	-0.052396
C352	C	0.060486	0.874834	0.447604
C353	C	-0.391365	0.415381	-0.052398
C354	C	0.108635	0.915381	0.447602
C355	C	-0.379652	0.458199	0.000072
C356	C	0.120348	0.958199	0.500072
C357	C	-0.416088	0.460473	0.052547
C358	C	0.083912	0.960473	0.552547
C359	C	-0.464237	0.419927	0.052549
C360	C	0.035763	0.919927	0.552549
H361	H	-0.448185	0.343136	-0.091241
H362	H	0.051815	0.843136	0.408759
H363	H	-0.364393	0.413697	-0.091244
H364	H	0.135607	0.913697	0.408756
H365	H	-0.344009	0.488214	0.000070
H366	H	0.155991	0.988214	0.500070
H367	H	-0.407418	0.492172	0.091392
H368	H	0.092582	0.992172	0.591392
H369	H	-0.491210	0.421611	0.091395
H370	H	0.008790	0.921611	0.591395
H371	H	-0.510658	0.143681	0.265215
H372	H	-0.010658	0.643681	0.765215
C373	C	-0.706625	0.488338	0.000088
C374	C	-0.206625	0.988338	0.500088
C375	C	-0.743051	0.490618	0.052569
C376	C	-0.243051	0.990618	0.552569
C377	C	-0.791203	0.450076	0.052585
C378	C	-0.291203	0.950076	0.552585
C379	C	-0.802928	0.407254	0.000121
C380	C	-0.302928	0.907254	0.500121
C381	C	-0.766500	0.404972	-0.052364
C382	C	-0.266500	0.904972	0.447636
C383	C	-0.718349	0.445514	-0.052380
C384	C	-0.218349	0.945514	0.447620
H385	H	-0.734373	0.522319	0.091410
H386	H	-0.234373	1.022319	0.591410
H387	H	-0.818169	0.451766	0.091437
H388	H	-0.318169	0.951766	0.591437
H389	H	-0.838573	0.377243	0.000132
H390	H	-0.338573	0.877243	0.500132
H391	H	-0.775179	0.373271	-0.091204
H392	H	-0.275179	0.873271	0.408796
H393	H	-0.691383	0.443825	-0.091232
H394	H	-0.191383	0.943825	0.408768
H395	H	-0.446069	0.539233	0.000038
H396	H	0.053931	1.039233	0.500038
H397	H	-0.083640	0.219439	0.000095
H398	H	0.416360	0.719439	0.500095
H399	H	0.293526	0.162912	0.000098
H400	H	0.793526	0.662912	0.500098
H401	H	-0.117446	-0.072884	0.000091
H402	H	0.382554	0.427116	0.500091
H403	H	-0.447167	0.646979	0.000030
H404	H	0.052833	1.146979	0.500030
C405	C	-0.217820	-0.086538	0.000090
C406	C	0.282180	0.413462	0.500090
C407	C	-0.215839	-0.129456	0.052562
C408	C	0.284161	0.370544	0.552562
C409	C	-0.250170	-0.186256	0.052559
C410	C	0.249830	0.313744	0.552559
C411	C	-0.286482	-0.200136	0.000084
C412	C	0.213518	0.299864	0.500084
C413	C	-0.288464	-0.157216	-0.052392
C414	C	0.211536	0.342784	0.447608
C415	C	-0.254134	-0.100417	-0.052389
C416	C	0.245866	0.399583	0.447611
H417	H	-0.188958	-0.119182	0.091410
H418	H	0.311042	0.380818	0.591410
H419	H	-0.248702	-0.218028	0.091406
H420	H	0.251298	0.281972	0.591406
H421	H	-0.311895	-0.242182	0.000082
H422	H	0.188105	0.257818	0.500082
H423	H	-0.315346	-0.167490	-0.091240
H424	H	0.184654	0.332510	0.408760
H425	H	-0.255602	-0.068645	-0.091235
H426	H	0.244398	0.431355	0.408765
H427	H	-0.477595	0.182641	0.442412
H428	H	0.022405	0.682641	0.942412
C429	C	-0.029338	0.233650	0.000103
C430	C	0.470662	0.733650	0.500103
C431	C	-0.017443	0.276415	0.052581
C432	C	0.482557	0.776415	0.552581
C433	C	-0.038554	0.333883	0.052587
C434	C	0.461446	0.833883	0.552587
C435	C	-0.071560	0.348586	0.000115
C436	C	0.428440	0.848586	0.500115
C437	C	-0.083456	0.305820	-0.052367
C438	C	0.416544	0.805820	0.447633
C439	C	-0.062345	0.248352	-0.052373
C440	C	0.437655	0.748352	0.447627
H441	H	0.006991	0.265532	0.091427
H442	H	0.506991	0.765532	0.591427
H443	H	-0.029747	0.365541	0.091438
H444	H	0.470253	0.865541	0.591438
H445	H	-0.087187	0.391128	0.000119
H446	H	0.412813	0.891128	0.500119
H447	H	-0.107890	0.316703	-0.091213
H448	H	0.392110	0.816703	0.408787
H449	H	-0.071152	0.216694	-0.091224
H450	H	0.428848	0.716694	0.408776
H451	H	-0.510676	0.143652	0.734998
H452	H	-0.010676	0.643652	1.234998
C453	C	-0.665334	0.768732	0.000072
C454	C	-0.165334	1.268732	0.500072
C455	C	-0.701761	0.771005	0.052553
C456	C	-0.201761	1.271005	0.552553
C457	C	-0.749911	0.730460	0.052565
C458	C	-0.249911	1.230460	0.552565
C459	C	-0.761633	0.687641	0.000097
C460	C	-0.261633	1.187641	0.500097
C461	C	-0.725205	0.685367	-0.052388
C462	C	-0.225205	1.185367	0.447612
C463	C	-0.677056	0.725912	-0.052400
C464	C	-0.177056	1.225912	0.447600
H465	H	-0.693085	0.802703	0.091397
H466	H	-0.193085	1.302703	0.591397
H467	H	-0.776878	0.732144	0.091418
H468	H	-0.276878	1.232144	0.591418
H469	H	-0.797277	0.657627	0.000106
H470	H	-0.297277	1.157627	0.500106
H471	H	-0.733882	0.653669	-0.091231
H472	H	-0.233882	1.153669	0.408769
H473	H	-0.650089	0.724228	-0.091253
H474	H	-0.150089	1.224228	0.408747
H475	H	-0.343332	-0.018175	0.000055
H476	H	0.156668	0.481825	0.500055
H477	H	-0.648370	0.340560	0.000094
H478	H	-0.148370	0.840560	0.500094
C479	C	-0.480238	0.798824	0.000053
C480	C	0.019762	1.298824	0.500053
C481	C	-0.443954	0.812910	0.052520
C482	C	0.056046	1.312910	0.552520
C483	C	-0.395147	0.788124	0.052508
C484	C	0.104853	1.288124	0.552508
C485	C	-0.382623	0.749253	0.000029
C486	C	0.117377	1.249253	0.500029
C487	C	-0.418907	0.735165	-0.052441
C488	C	0.081093	1.235165	0.447559
C489	C	-0.467715	0.759951	-0.052429
C490	C	0.032285	1.259951	0.447571
H491	H	-0.453225	0.841687	0.091371
H492	H	0.046775	1.341687	0.591371
H493	H	-0.368287	0.798553	0.091350
H494	H	0.131713	1.298553	0.591350
H495	H	-0.346493	0.730905	0.000021
H496	H	0.153507	1.230905	0.500021
H497	H	-0.409637	0.706389	-0.091292
H498	H	0.090363	1.206389	0.408708
H499	H	-0.494574	0.749522	-0.091272
H500	H	0.005426	1.249522	0.408728
H501	H	-0.434801	-0.017075	0.000054
H502	H	0.065199	0.482925	0.500054
H503	H	0.067612	0.217621	0.000104
H504	H	0.567612	0.717621	0.500104
H505	H	0.033803	-0.074688	0.000087
H506	H	0.533803	0.425312	0.500087
H507	H	-0.057647	-0.073592	0.000085
H508	H	0.442353	0.426408	0.500085
H509	H	-0.653919	0.887017	0.000074
H510	H	-0.153919	1.387017	0.500074
H511	H	-0.647270	0.232797	0.000098
H512	H	-0.147270	0.732797	0.500098
H513	H	-0.487362	0.258824	0.000093
H514	H	0.012638	0.758824	0.500093
H515	H	-0.494012	0.913036	0.000053
H516	H	0.005988	1.413036	0.500053
H517	H	-0.630601	0.002189	0.149768
H518	H	-0.130601	0.502189	0.649768
H519	H	-0.630603	0.002171	0.265150
H520	H	-0.130603	0.502171	0.765150
