data_functionalizedCrystal
_audit_creation_method	'MofGen! by Chris Wilmer'
_symmetry_space_group_name_H-M	'P1'
_symmetry_Int_Tables_number	1
_symmetry_cell_setting	triclinic
loop_
_symmetry_equiv_pos_as_xyz
  x,y,z
_cell_length_a	16.625545
_cell_length_b	16.625548
_cell_length_c	13.897441
_cell_angle_alpha	89.976353
_cell_angle_beta	90.031157
_cell_angle_gamma	89.974583
loop_
_atom_site_label
_atom_site_type_symbol
_atom_site_fract_x
_atom_site_fract_y
_atom_site_fract_z
Zn1	Zn	-0.320979	-1.232674	0.545452
Zn2	Zn	0.012354	-0.899340	0.878786
Zn3	Zn	0.345688	-0.566007	1.212119
Zn4	Zn	-0.455829	-1.232566	0.384152
Zn5	Zn	-0.122496	-0.899233	0.717486
Zn6	Zn	0.210837	-0.565900	1.050819
Zn7	Zn	-0.321014	-1.097832	0.384163
Zn8	Zn	0.012319	-0.764499	0.717496
Zn9	Zn	0.345653	-0.431166	1.050829
Zn10	Zn	-0.455773	-1.097798	0.545397
Zn11	Zn	-0.122440	-0.764465	0.878730
Zn12	Zn	0.210894	-0.431132	1.212063
O13	O	-0.388399	-1.165218	0.464791
O14	O	-0.055065	-0.831884	0.798124
O15	O	0.278268	-0.498551	1.131458
O16	O	-0.338876	-1.345492	0.524075
O17	O	-0.005543	-1.012158	0.857408
O18	O	0.327791	-0.678825	1.190741
O19	O	-0.437984	-1.214663	0.249172
O20	O	-0.104651	-0.881330	0.582505
O21	O	0.228683	-0.547996	0.915839
O22	O	-0.208177	-1.115778	0.405586
O23	O	0.125156	-0.782445	0.738919
O24	O	0.458490	-0.449112	1.072252
O25	O	-0.437950	-1.345413	0.405568
O26	O	-0.104617	-1.012080	0.738901
O27	O	0.228717	-0.678746	1.072235
O28	O	-0.208151	-1.214846	0.524085
O29	O	0.125182	-0.881512	0.857418
O30	O	0.458515	-0.548179	1.190751
O31	O	-0.338936	-1.115674	0.249179
O32	O	-0.005602	-0.782341	0.582513
O33	O	0.327731	-0.449008	0.915846
O34	O	-0.338881	-0.984995	0.405532
O35	O	-0.005548	-0.651662	0.738865
O36	O	0.327786	-0.318329	1.072198
O37	O	-0.437854	-1.115721	0.680386
O38	O	-0.104521	-0.782387	1.013719
O39	O	0.228813	-0.449054	1.347052
O40	O	-0.437888	-0.984971	0.523990
O41	O	-0.104555	-0.651637	0.857323
O42	O	0.228779	-0.318304	1.190656
O43	O	-0.338821	-1.214813	0.680427
O44	O	-0.005488	-0.881479	1.013760
O45	O	0.327845	-0.548146	1.347093
O46	O	-0.568654	-1.214630	0.405514
O47	O	-0.235321	-0.881297	0.738847
O48	O	0.098012	-0.547964	1.072181
O49	O	-0.568613	-1.115617	0.523980
O50	O	-0.235279	-0.782283	0.857313
O51	O	0.098054	-0.448950	1.190646
C52	C	-0.388383	-0.955727	0.464756
C53	C	-0.055049	-0.622393	0.798090
C54	C	0.278284	-0.289060	1.131423
C55	C	-0.388395	-0.866106	0.464764
C56	C	-0.055062	-0.532772	0.798098
C57	C	0.278271	-0.199439	1.131431
C58	C	-0.388394	-0.537930	0.464793
C59	C	-0.055060	-0.204597	0.798127
C60	C	0.278273	0.128737	1.131460
C61	C	-0.388392	-0.629239	0.464782
C62	C	-0.055059	-0.295905	0.798115
C63	C	0.278275	0.037428	1.131449
C64	C	-0.388395	-0.702015	0.464778
C65	C	-0.055062	-0.368682	0.798111
C66	C	0.278272	-0.035348	1.131445
C67	C	-0.388392	-0.793329	0.464768
C68	C	-0.055059	-0.459996	0.798102
C69	C	0.278274	-0.126663	1.131435
C70	C	-0.597890	-1.165130	0.464761
C71	C	-0.264556	-0.831797	0.798094
C72	C	0.068777	-0.498463	1.131427
C73	C	-0.687511	-1.165166	0.464780
C74	C	-0.354177	-0.831833	0.798113
C75	C	-0.020844	-0.498500	1.131446
C76	C	-0.760293	-1.165198	0.464799
C77	C	-0.426960	-0.831864	0.798132
C78	C	-0.093626	-0.498531	1.131466
C79	C	-0.851602	-1.165245	0.464820
C80	C	-0.518268	-0.831911	0.798154
C81	C	-0.184935	-0.498578	1.131487
C82	C	-0.924378	-1.165286	0.464833
C83	C	-0.591045	-0.831953	0.798166
C84	C	-0.257711	-0.498620	1.131499
C85	C	-1.015692	-1.165333	0.464852
C86	C	-0.682359	-0.831999	0.798186
C87	C	-0.349026	-0.498666	1.131519
C88	C	-0.178090	-1.165328	0.464843
C89	C	0.155243	-0.831994	0.798176
C90	C	0.488577	-0.498661	1.131509
C91	C	-0.088469	-1.165374	0.464865
C92	C	0.244865	-0.832041	0.798198
C93	C	0.578198	-0.498708	1.131531
C94	C	-0.388327	-1.165275	0.716384
C95	C	-0.054994	-0.831942	1.049717
C96	C	0.278339	-0.498608	1.383051
C97	C	-0.388297	-1.165299	0.823598
C98	C	-0.054964	-0.831966	1.156931
C99	C	0.278370	-0.498633	1.490265
C100	C	-0.388410	-0.375527	0.464817
C101	C	-0.055077	-0.042193	0.798150
C102	C	0.278257	0.291140	1.131484
C103	C	-0.388401	-0.465148	0.464804
C104	C	-0.055068	-0.131814	0.798138
C105	C	0.278265	0.201519	1.131471
C106	C	-0.388412	-1.165207	0.214177
C107	C	-0.055078	-0.831874	0.547510
C108	C	0.278255	-0.498540	0.880843
C109	C	-0.388215	-1.165339	0.106963
C110	C	-0.054881	-0.832006	0.440297
C111	C	0.278452	-0.498672	0.773630
C112	C	-0.388243	-1.165321	1.019893
C113	C	-0.054909	-0.831988	1.353227
C114	C	0.278424	-0.498654	1.686560
C115	C	-0.388275	-1.165307	0.910661
C116	C	-0.054942	-0.831973	1.243994
C117	C	0.278391	-0.498640	1.577327
