data_functionalizedCrystal
_audit_creation_method	'MofGen! by Chris Wilmer'
_symmetry_space_group_name_H-M	'P1'
_symmetry_Int_Tables_number	1
_symmetry_cell_setting	triclinic
loop_
_symmetry_equiv_pos_as_xyz
  x,y,z
_cell_length_a	11.026607
_cell_length_b	10.654550
_cell_length_c	9.130313
_cell_angle_alpha	90.003780
_cell_angle_beta	90.000037
_cell_angle_gamma	83.464540
loop_
_atom_site_label
_atom_site_type_symbol
_atom_site_fract_x
_atom_site_fract_y
_atom_site_fract_z
O1	O	0.170762	-1.704901	-0.121918
O2	O	0.187032	-1.342954	-0.121895
O3	O	0.001991	-1.493930	-0.121899
O4	O	0.355802	-1.553926	-0.121914
O5	O	0.001996	-1.493929	0.121700
O6	O	0.187037	-1.342953	0.121704
O7	O	0.170767	-1.704900	0.121681
Cu8	Cu	0.178902	-1.523927	0.143935
Cu9	Cu	0.178896	-1.523928	-0.144149
O10	O	0.355807	-1.553924	0.121685
C11	C	0.185839	-1.295897	-0.000092
C12	C	0.182265	-1.155677	-0.000083
C13	C	-0.043310	-1.482861	-0.000101
C14	C	-0.178302	-1.449867	-0.000104
C15	C	0.171959	-1.751958	-0.000125
C16	C	0.175533	-1.892177	-0.000144
C17	C	-0.251341	-1.540970	-0.000112
C18	C	-0.390862	-1.506871	-0.000115
C19	C	0.401109	-1.564993	-0.000116
C20	C	0.536100	-1.597988	-0.000123
N21	N	0.178906	-1.523934	0.346558
C22	C	0.291214	-1.099841	-0.000109
C23	C	0.287849	-0.968090	-0.000134
C24	C	0.066576	-0.948022	-0.000114
C25	C	0.069943	-1.079771	-0.000078
C26	C	0.418964	-1.111426	-0.000127
C27	C	0.415599	-0.979675	-0.000152
N28	N	0.178883	-1.523928	-0.346771
C29	C	0.096998	-1.590814	0.423208
C30	C	0.096983	-1.590808	0.576544
C31	C	0.260795	-1.457040	0.576568
C32	C	0.260803	-1.457040	0.423234
C33	C	0.002426	-1.668049	0.423195
C34	C	0.002411	-1.668043	0.576532
H35	H	-0.431617	-1.403623	-0.000118
O36	O	-0.409936	-1.734757	-0.000124
H37	H	-0.308820	-1.740082	-0.000109
O38	O	0.030030	-1.801861	0.631669
H39	H	-0.047469	-1.826736	0.699177
H40	H	0.459640	-1.155912	-0.105300
H41	H	0.032038	-1.765661	0.375630
H42	H	0.327488	-1.402568	0.360827
O43	O	-0.114561	-1.602233	0.639531
H44	H	-0.109743	-1.604931	0.760935
O45	O	0.479356	-0.938231	-0.135198
H46	H	0.414164	-0.874436	-0.201313
O47	O	-0.197369	-1.677732	-0.000119
H48	H	-0.096253	-1.683053	-0.000107
O49	O	0.485125	-1.164600	0.134950
H50	H	0.566188	-1.229832	0.101835
O51	O	0.349135	-1.384902	0.659266
H52	H	0.335376	-1.396143	0.778767
H53	H	-0.219062	-1.346625	-0.000107
O54	O	-0.121349	-1.612766	0.368050
H55	H	-0.181950	-1.585687	0.462656
H56	H	-0.018774	-1.125227	-0.000036
H57	H	0.454209	-0.942384	0.105015
O58	O	-0.054570	-0.866153	-0.000115
H59	H	-0.038610	-0.765158	-0.000149
