data_functionalizedCrystal
_audit_creation_method	'MofGen! by Chris Wilmer'
_symmetry_space_group_name_H-M	'P1'
_symmetry_Int_Tables_number	1
_symmetry_cell_setting	triclinic
loop_
_symmetry_equiv_pos_as_xyz
  x,y,z
_cell_length_a	12.759401
_cell_length_b	17.640280
_cell_length_c	12.759393
_cell_angle_alpha	78.769382
_cell_angle_beta	89.981287
_cell_angle_gamma	78.802151
loop_
_atom_site_label
_atom_site_type_symbol
_atom_site_fract_x
_atom_site_fract_y
_atom_site_fract_z
Zn1	Zn	1.690798	-0.314597	-0.509562
Zn2	Zn	1.726226	-0.446790	-0.298393
Zn3	Zn	1.515115	-0.314639	-0.333886
Zn4	Zn	1.550604	-0.446735	-0.474045
O5	O	1.620686	-0.380690	-0.403972
O6	O	1.842521	-0.332138	-0.481560
O7	O	1.698197	-0.429301	-0.156069
O8	O	1.508741	-0.204028	-0.386908
O9	O	1.868549	-0.429260	-0.326415
O10	O	1.637815	-0.203997	-0.515976
O11	O	1.543094	-0.332210	-0.182146
O12	O	1.372801	-0.332156	-0.352468
O13	O	1.569227	-0.429166	-0.625789
O14	O	1.398874	-0.429207	-0.455443
O15	O	1.672227	-0.332085	-0.651883
O16	O	1.732609	-0.557389	-0.291976
O17	O	1.603580	-0.557348	-0.421027
C18	C	1.347716	-0.380681	-0.403953
C19	C	1.230944	-0.380696	-0.403965
C20	C	1.189706	-0.431307	-0.457458
C21	C	1.079983	-0.431310	-0.457478
C22	C	1.052743	-0.330088	-0.350505
C23	C	1.162464	-0.330082	-0.350492
C24	C	0.937705	-0.459671	-0.573724
C25	C	0.896467	-0.510294	-0.627204
C26	C	0.952796	-0.587429	-0.622444
C27	C	1.050365	-0.613957	-0.564184
C28	C	1.091599	-0.563338	-0.510695
C29	C	1.035268	-0.486192	-0.515479
C30	C	1.304746	-0.301729	-0.234241
C31	C	1.345982	-0.251113	-0.180746
C32	C	1.289655	-0.173977	-0.185496
C33	C	1.192083	-0.147452	-0.243736
C34	C	1.150847	-0.198067	-0.297232
C35	C	1.207181	-0.275203	-0.292484
C36	C	1.675818	-0.586048	-0.348819
C37	C	1.699500	-0.673900	-0.325259
C38	C	1.441209	-0.962868	-0.583333
C39	C	1.463464	-1.045419	-0.561162
C40	C	1.597905	-1.045396	-0.426917
C41	C	1.575665	-0.962844	-0.449081
C42	C	1.497315	-0.921586	-0.527289
C43	C	1.631771	-0.921561	-0.393037
C44	C	1.609529	-0.839016	-0.415195
C45	C	1.531180	-0.797753	-0.493397
C46	C	1.475073	-0.839041	-0.549447
C47	C	1.710115	-0.962820	-0.314823
C48	C	1.766221	-0.921538	-0.258779
C49	C	1.743985	-0.838991	-0.280942
C50	C	1.665636	-0.797728	-0.359145
C51	C	1.800092	-0.797703	-0.224892
C52	C	1.777850	-0.715158	-0.247051
C53	C	1.643394	-0.715182	-0.381303
C54	C	1.894722	-0.380701	-0.403990
C55	C	2.011500	-0.380705	-0.403998
C56	C	1.620734	-0.380614	-0.678025
C57	C	1.620754	-0.380582	-0.794811
C58	C	1.565367	-0.174531	-0.459363
C59	C	1.541794	-0.086679	-0.482967
C60	C	1.567138	-0.431109	-0.836094
C61	C	1.567168	-0.431079	-0.945826
C62	C	1.674430	-0.329990	-0.972984
C63	C	1.674406	-0.330024	-0.863253
C64	C	1.554672	-0.524247	-1.070748
C65	C	1.501038	-0.574766	-1.112036
C66	C	1.401770	-0.586907	-1.073161
C67	C	1.356113	-0.548517	-0.993003
C68	C	1.409740	-0.497991	-0.951722
C69	C	1.509026	-0.485866	-0.990591
C70	C	1.686891	-0.236855	-0.738329
C71	C	1.740512	-0.186325	-0.697047
C72	C	1.839779	-0.174176	-0.735922
C73	C	1.885429	-0.212553	-0.816088
C74	C	1.831808	-0.263083	-0.857370
C75	C	1.732542	-0.275233	-0.818487
C76	C	1.620684	-0.380709	-0.130999
C77	C	1.620807	-0.380519	-0.014274
H78	H	1.096218	-0.676772	-0.560302
O79	O	1.509566	-0.717568	-0.514734
C80	C	1.475200	-0.690044	-0.421414
H81	H	1.506008	-0.737625	-0.348138
H82	H	1.507709	-0.634797	-0.417617
H83	H	1.384095	-0.675454	-0.423026
H84	H	1.425432	-0.272717	-0.133321
H85	H	1.523443	-0.472272	-0.780372
H86	H	1.411280	-0.805447	-0.613140
H87	H	1.635511	-0.514375	-1.102398
H88	H	1.377416	-0.929275	-0.647026
H89	H	1.883428	-0.133021	-0.702312
H90	H	1.071402	-0.176462	-0.344663
O91	O	1.259594	-0.560267	-0.955440
C92	C	1.181870	-0.536435	-1.040059
H93	H	1.222633	-0.538001	-1.119341
H94	H	1.122997	-0.578140	-1.029445
H95	H	1.137129	-0.473896	-1.039815
H96	H	0.996975	-0.288882	-0.306966
O97	O	1.832479	-0.675173	-0.192544
C98	C	1.906382	-0.729288	-0.118746
H99	H	1.925854	-0.788109	-0.145992
H100	H	1.982722	-0.705387	-0.114024
H101	H	1.870332	-0.738125	-0.036548
H102	H	1.417782	-1.079028	-0.606818
O103	O	1.673997	-1.085599	-0.351002
C104	C	1.681570	-1.167309	-0.343431
H105	H	1.650164	-1.178574	-0.421460
H106	H	1.768707	-1.198643	-0.327945
H107	H	1.631967	-1.190782	-0.274768
H108	H	1.579601	-0.681589	-0.444996
H109	H	1.703330	-0.155071	-0.631779
H110	H	1.863877	-0.831307	-0.161208
H111	H	0.891838	-0.396858	-0.577619
O112	O	1.876186	-0.300239	-0.935343
C113	C	1.890949	-0.243628	-1.025763
H114	H	1.895156	-0.185798	-1.000297
H115	H	1.968596	-0.265648	-1.064355
H116	H	1.821034	-0.233662	-1.085753
H117	H	1.372564	-0.466732	-0.886461
H118	H	1.830011	-0.955141	-0.195099
O119	O	1.349833	-0.636033	-1.113351
C120	C	1.411398	-0.667292	-1.192457
H121	H	1.498827	-0.664707	-1.178864
H122	H	1.403677	-0.731175	-1.187657
H123	H	1.381474	-0.631273	-1.274814
H124	H	1.146208	-0.084646	-0.247587
H125	H	0.919213	-0.628647	-0.665990
H126	H	1.728225	-1.030034	-0.296788
H127	H	1.606060	-0.246746	-0.706665
H128	H	1.245460	-0.472518	-0.501003
H129	H	1.538221	-0.606024	-1.177302
O130	O	1.726446	-0.280902	-1.039627
C131	C	1.714992	-0.291717	-1.145329
H132	H	1.640859	-0.317594	-1.153362
H133	H	1.706243	-0.232500	-1.202936
H134	H	1.788610	-0.333802	-1.165164
O135	O	1.981890	-0.200695	-0.853703
C136	C	2.019417	-0.147854	-0.800095
H137	H	1.979963	-0.148780	-0.719803
H138	H	2.109833	-0.166312	-0.786381
H139	H	1.998802	-0.085744	-0.850750
H140	H	1.171037	-0.584937	-0.463261
H141	H	1.350624	-0.364538	-0.230377
H142	H	1.323235	-0.132768	-0.141924
O143	O	0.801705	-0.484388	-0.683793
C144	C	0.760819	-0.405450	-0.676522
H145	H	0.829065	-0.376779	-0.656640
H146	H	0.720083	-0.371897	-0.756161
H147	H	0.700249	-0.403842	-0.610889
