data_functionalizedCrystal
_audit_creation_method	'MofGen! by Chris Wilmer'
_symmetry_space_group_name_H-M	'P1'
_symmetry_Int_Tables_number	1
_symmetry_cell_setting	triclinic
loop_
_symmetry_equiv_pos_as_xyz
  x,y,z
_cell_length_a	19.077212
_cell_length_b	16.120484
_cell_length_c	16.120256
_cell_angle_alpha	84.383827
_cell_angle_beta	89.541074
_cell_angle_gamma	95.329300
loop_
_atom_site_label
_atom_site_type_symbol
_atom_site_fract_x
_atom_site_fract_y
_atom_site_fract_z
Zn1	Zn	1.039772	-0.309798	0.536695
Zn2	Zn	1.373106	0.023535	0.870028
Zn3	Zn	1.706439	0.356868	1.203361
Zn4	Zn	1.039684	-0.442488	0.404000
Zn5	Zn	1.373017	-0.109155	0.737334
Zn6	Zn	1.706351	0.224179	1.070667
Zn7	Zn	0.928358	-0.307763	0.391878
Zn8	Zn	1.261691	0.025571	0.725212
Zn9	Zn	1.595025	0.358904	1.058545
Zn10	Zn	0.915756	-0.455131	0.538093
Zn11	Zn	1.249089	-0.121798	0.871427
Zn12	Zn	1.582423	0.211536	1.204760
O13	O	0.980893	-0.378795	0.467667
O14	O	1.314226	-0.045462	0.801000
O15	O	1.647559	0.287872	1.134333
O16	O	1.138252	-0.322961	0.523580
O17	O	1.471586	0.010372	0.856914
O18	O	1.804919	0.343706	1.190247
O19	O	1.030153	-0.418473	0.285668
O20	O	1.363487	-0.085140	0.619001
O21	O	1.696820	0.248193	0.952334
O22	O	0.948448	-0.190827	0.405430
O23	O	1.281782	0.142506	0.738763
O24	O	1.615115	0.475839	1.072097
O25	O	1.138187	-0.420447	0.426090
O26	O	1.471521	-0.087114	0.759424
O27	O	1.804854	0.246219	1.092757
O28	O	1.030304	-0.192323	0.511826
O29	O	1.363637	0.141010	0.845159
O30	O	1.696971	0.474344	1.178493
O31	O	0.948363	-0.319491	0.276762
O32	O	1.281696	0.013842	0.610095
O33	O	1.615029	0.347176	0.943428
O34	O	0.828195	-0.331750	0.406786
O35	O	1.161528	0.001583	0.740120
O36	O	1.494862	0.334916	1.073453
O37	O	0.926970	-0.441996	0.654633
O38	O	1.260303	-0.108662	0.987966
O39	O	1.593637	0.224671	1.321299
O40	O	0.818936	-0.440021	0.514210
O41	O	1.152270	-0.106688	0.847543
O42	O	1.485603	0.226645	1.180877
O43	O	1.018084	-0.335220	0.653605
O44	O	1.351418	-0.001887	0.986938
O45	O	1.684751	0.331446	1.320271
O46	O	1.017934	-0.561371	0.427447
O47	O	1.351267	-0.228037	0.760780
O48	O	1.684600	0.105296	1.094113
O49	O	0.926884	-0.570659	0.525964
O50	O	1.260218	-0.237326	0.859298
O51	O	1.593551	0.096007	1.192631
C52	C	0.798028	-0.387038	0.459335
C53	C	1.131361	-0.053704	0.792668
C54	C	1.464694	0.279629	1.126002
C55	C	0.719795	-0.390585	0.455791
C56	C	1.053129	-0.057252	0.789125
C57	C	1.386462	0.276082	1.122458
C58	C	0.971050	-0.596405	0.478192
C59	C	1.304384	-0.263072	0.811525
C60	C	1.637717	0.070262	1.144858
C61	C	0.966903	-0.689498	0.482725
C62	C	1.300236	-0.356165	0.816059
C63	C	1.633569	-0.022831	1.149392
C64	C	0.279426	-0.415994	0.430413
C65	C	0.612760	-0.082661	0.763747
C66	C	0.946093	0.250673	1.097080
C67	C	0.352934	-0.412656	0.433736
C68	C	0.686268	-0.079323	0.767070
C69	C	1.019601	0.254011	1.100403
C70	C	0.389716	-0.360323	0.486247
C71	C	0.723050	-0.026990	0.819580
C72	C	1.056383	0.306344	1.152913
C73	C	0.352987	-0.311319	0.535431
C74	C	0.686320	0.022015	0.868765
C75	C	1.019654	0.355348	1.202098
C76	C	0.279481	-0.314653	0.532103
C77	C	0.612814	0.018680	0.865437
C78	C	0.946147	0.352014	1.198770
C79	C	0.609560	-0.344915	0.501648
C80	C	0.942893	-0.011581	0.834981
C81	C	1.276227	0.321752	1.168315
C82	C	0.683071	-0.341586	0.504974
C83	C	1.016405	-0.008253	0.838307
C84	C	1.349738	0.325080	1.171641
C85	C	0.683013	-0.442923	0.403278
C86	C	1.016347	-0.109589	0.736611
C87	C	1.349680	0.223744	1.069944
C88	C	0.609505	-0.446256	0.399958
C89	C	0.942839	-0.112922	0.733291
C90	C	1.276172	0.220411	1.066625
C91	C	0.572783	-0.397248	0.449139
C92	C	0.906116	-0.063915	0.782472
C93	C	1.239450	0.269418	1.115806
N94	N	0.464853	-0.356912	0.489647
N95	N	0.798186	-0.023579	0.822980
N96	N	1.131520	0.309755	1.156313
N97	N	0.497648	-0.400656	0.445734
N98	N	0.830981	-0.067322	0.779068
N99	N	1.164315	0.266011	1.112401
C100	C	0.959334	-0.859940	0.491019
C101	C	1.292667	-0.526607	0.824353
C102	C	1.626000	-0.193274	1.157686
C103	C	1.002577	-0.896804	0.444333
C104	C	1.335910	-0.563471	0.777667
C105	C	1.669244	-0.230138	1.111000
C106	C	0.998366	-0.991644	0.448948
C107	C	1.331699	-0.658311	0.782282
C108	C	1.665032	-0.324978	1.115615
C109	C	0.963544	-0.765092	0.486406
C110	C	1.296878	-0.431759	0.819739
C111	C	1.630211	-0.098425	1.153072
C112	C	1.164472	-0.370521	0.476031
C113	C	1.497805	-0.037188	0.809365
C114	C	1.831138	0.296146	1.142698
C115	C	1.242702	-0.366995	0.479596
C116	C	1.576035	-0.033662	0.812929
C117	C	1.909369	0.299672	1.146263
C118	C	0.971131	-0.390245	0.685230
C119	C	1.304465	-0.056912	1.018564
C120	C	1.637798	0.276421	1.351897
C121	C	0.966972	-0.395125	0.777943
C122	C	1.300305	-0.061792	1.111276
C123	C	1.633638	0.271542	1.444610
C124	C	0.990792	-0.160335	0.457120
C125	C	1.324125	0.172998	0.790453
C126	C	1.657459	0.506331	1.123786
C127	C	0.995010	-0.067241	0.452625
C128	C	1.328344	0.266092	0.785958
C129	C	1.661677	0.599426	1.119292
C130	C	0.990659	-0.367327	0.250948
C131	C	1.323992	-0.033994	0.584282
C132	C	1.657326	0.299340	0.917615
C133	C	0.994966	-0.362205	0.158231
C134	C	1.328299	-0.028872	0.491564
C135	C	1.661632	0.304461	0.824898
C136	C	1.002584	-0.353328	0.988487
C137	C	1.335918	-0.019995	1.321820
C138	C	1.669251	0.313339	1.655153
C139	C	0.959355	-0.404000	0.947682
C140	C	1.292689	-0.070666	1.281015
C141	C	1.626022	0.262667	1.614349
C142	C	0.963594	-0.399060	0.853230
C143	C	1.296928	-0.065727	1.186564
C144	C	1.630261	0.267606	1.519897
C145	C	0.998346	-0.358266	1.082947
C146	C	1.331680	-0.024933	1.416280
C147	C	1.665013	0.308400	1.749613
H148	H	0.249483	-0.458613	0.387658
H149	H	0.582817	-0.125280	0.720991
H150	H	0.916150	0.208053	1.054325
H151	H	0.919158	-0.451087	0.983683
H152	H	1.252491	-0.117753	1.317016
H153	H	1.585825	0.215580	1.650349
H154	H	0.713017	-0.298965	0.547733
H155	H	1.046351	0.034369	0.881066
H156	H	1.379684	0.367702	1.214400
H157	H	1.042775	-0.306241	0.952488
H158	H	1.376108	0.027092	1.285821
H159	H	1.709442	0.360426	1.619154
H160	H	0.382832	-0.452555	0.393685
H161	H	0.716165	-0.119221	0.727019
H162	H	1.049499	0.214112	1.060352
H163	H	0.579563	-0.488870	0.357197
H164	H	0.912896	-0.155536	0.690531
H165	H	1.246229	0.177797	1.023864
H166	H	0.919152	-0.899604	0.534451
H167	H	1.252485	-0.566271	0.867784
H168	H	1.585819	-0.232938	1.201117
O169	O	0.718798	-0.490438	0.355529
O170	O	1.052131	-0.157104	0.688862
O171	O	1.385464	0.176229	1.022195
C172	C	0.832009	-0.530250	0.315615
C173	C	1.165343	-0.196917	0.648948
C174	C	1.498676	0.136416	0.982281
C175	C	0.791573	-0.476382	0.369725
C176	C	1.124907	-0.143048	0.703059
C177	C	1.458240	0.190285	1.036392
H178	H	0.890854	-0.518919	0.327086
H179	H	1.224188	-0.185585	0.660420
H180	H	1.557521	0.147748	0.993753
H181	H	0.821280	-0.512544	0.246994
H182	H	1.154614	-0.179211	0.580327
H183	H	1.487947	0.154123	0.913660
H184	H	0.813817	-0.599222	0.332749
H185	H	1.147150	-0.265889	0.666082
H186	H	1.480483	0.067444	0.999416
H187	H	0.809742	-0.407395	0.352664
H188	H	1.143075	-0.074062	0.685997
H189	H	1.476409	0.259271	1.019331
H190	H	0.802303	-0.494159	0.438332
H191	H	1.135637	-0.160826	0.771665
H192	H	1.468970	0.172508	1.104999
H193	H	0.579669	-0.305014	0.541699
H194	H	0.913002	0.028320	0.875032
H195	H	1.246336	0.361653	1.208366
H196	H	0.382941	-0.268705	0.578183
H197	H	0.716274	0.064629	0.911516
H198	H	1.049608	0.397962	1.244849
H199	H	0.249581	-0.274750	0.572150
H200	H	0.582914	0.058583	0.905484
H201	H	0.916248	0.391917	1.238817
H202	H	1.042761	-0.857137	0.400898
H203	H	1.376094	-0.523804	0.734231
H204	H	1.709428	-0.190471	1.067564
