data_functionalizedCrystal
_audit_creation_method	'MofGen! by Chris Wilmer'
_symmetry_space_group_name_H-M	'P1'
_symmetry_Int_Tables_number	1
_symmetry_cell_setting	triclinic
loop_
_symmetry_equiv_pos_as_xyz
  x,y,z
_cell_length_a	20.875492
_cell_length_b	27.440280
_cell_length_c	20.875685
_cell_angle_alpha	92.972727
_cell_angle_beta	60.167326
_cell_angle_gamma	58.316170
loop_
_atom_site_label
_atom_site_type_symbol
_atom_site_fract_x
_atom_site_fract_y
_atom_site_fract_z
Zr1	Zr	0.740569	0.435452	-0.122676
O2	O	0.881746	0.347737	-0.232465
O3	O	0.599401	0.466404	-0.083921
O4	O	0.740567	0.455272	-0.225095
O5	O	0.740579	0.363030	0.014269
O6	O	0.740554	0.535475	-0.225081
O7	O	0.740581	0.358869	-0.091291
O8	O	0.488034	0.555389	0.027454
O9	O	0.993098	0.343116	-0.238265
O10	O	0.657452	0.534552	-0.073542
O11	O	0.657460	0.477801	0.005226
O12	O	0.823664	0.464694	-0.160988
O13	O	0.823673	0.407943	-0.082220
Zr14	Zr	0.740545	0.570003	0.045703
Zr15	Zr	0.740548	0.563368	-0.122654
Zr16	Zr	0.740566	0.442087	0.045681
Zr17	Zr	0.918162	0.428082	-0.131927
Zr18	Zr	0.562951	0.577373	0.054953
O19	O	0.881712	0.539051	0.006948
O20	O	0.881717	0.529617	-0.232434
O21	O	0.881742	0.357171	0.006916
O22	O	0.599367	0.657718	0.155492
O23	O	0.599371	0.648284	-0.083889
O24	O	0.599397	0.475838	0.155461
O25	O	0.740535	0.642425	-0.091242
O26	O	0.740547	0.550183	0.148122
O27	O	0.740560	0.469980	0.148108
O28	O	0.740533	0.646586	0.014318
O29	O	0.993082	0.444792	-0.238248
O30	O	0.488032	0.560663	0.161275
O31	O	0.488015	0.662339	0.161292
O32	O	0.488017	0.657065	0.027471
O33	O	0.993096	0.348390	-0.104444
O34	O	0.993079	0.450066	-0.104427
O35	O	0.657449	0.540761	0.084015
O36	O	0.657441	0.597512	0.005247
O37	O	0.823653	0.527654	-0.082199
O38	O	0.823662	0.470903	-0.003431
C39	C	0.518414	0.511947	-0.026915
C40	C	0.443021	0.515076	-0.022988
C41	C	0.468976	0.467520	-0.082514
C42	C	0.398149	0.470460	-0.078852
C43	C	0.301369	0.520954	-0.015661
C44	C	0.275414	0.568515	0.043868
C45	C	0.346240	0.565576	0.040202
C46	C	0.082964	0.535001	0.001878
C47	C	0.012138	0.537935	0.005541
C48	C	0.134878	0.439881	-0.117180
C49	C	0.205700	0.436945	-0.120838
C50	C	0.179739	0.484507	-0.061311
N51	N	0.228971	0.523960	-0.011915
N52	N	0.252136	0.481503	-0.065061
C53	C	0.740583	0.342724	-0.038514
C54	C	0.740592	0.288421	-0.038524
C55	C	0.653780	-0.011808	0.007182
C56	C	0.653774	-0.062826	0.007189
O57	O	0.579987	-0.058201	0.046033
N58	N	0.740535	-0.124807	-0.038458
C59	C	0.827306	-0.135771	-0.084108
O60	O	0.901102	-0.193175	-0.122933
C61	C	0.827310	-0.084753	-0.084110
C62	C	0.740544	-0.022772	-0.038467
C63	C	0.567021	0.050170	0.052822
C64	C	0.567026	0.101185	0.052813
C65	C	0.653791	0.090221	0.007165
C66	C	0.740550	0.028242	-0.038476
C67	C	0.914081	-0.095716	-0.129755
C68	C	0.914077	-0.044692	-0.129753
C69	C	0.827311	0.017289	-0.084110
C70	C	0.827320	0.068293	-0.084133
N71	N	0.740560	0.130274	-0.038486
C72	C	0.653795	0.141238	0.007163
C73	C	0.827290	-0.242908	-0.084099
C74	C	0.827287	-0.293926	-0.084102
C75	C	0.653755	-0.220977	0.007197
C76	C	0.653759	-0.169959	0.007194
C77	C	0.740530	-0.180927	-0.038452
C78	C	0.653814	0.248369	0.007140
C79	C	0.653827	0.299385	0.007125
C80	C	0.827358	0.226432	-0.084170
C81	C	0.827346	0.175421	-0.084158
C82	C	0.740565	0.186394	-0.038497
O83	O	0.901070	0.063716	-0.122955
O84	O	0.580012	0.198644	0.045989
C85	C	0.962699	0.493508	-0.050058
C86	C	1.038092	0.490379	-0.053985
C87	C	0.740561	0.494428	-0.249075
C88	C	0.740562	0.491611	-0.320547
C89	C	0.740531	0.662731	-0.038459
C90	C	0.740522	0.717034	-0.038449
C91	C	0.740556	0.470985	-0.722850
C92	C	0.740552	0.473640	-0.655693
C93	C	0.740550	0.519150	-0.622118
C94	C	0.740542	0.562013	-0.655697
C95	C	0.740540	0.559361	-0.722849
C96	C	0.740552	0.531822	-0.421278
C97	C	0.740557	0.534470	-0.354123
C98	C	0.740565	0.446097	-0.354123
C99	C	0.740568	0.443447	-0.421280
C100	C	0.740555	0.486311	-0.454850
N101	N	0.740549	0.521863	-0.553474
N102	N	0.740550	0.483601	-0.523489
C103	C	0.740553	0.511027	0.172102
C104	C	0.740552	0.513844	0.243574
C105	C	0.518388	0.671950	-0.026888
C106	C	0.442986	0.729383	-0.022951
C107	C	0.518410	0.520246	0.183673
C108	C	0.443016	0.526192	0.259072
C109	C	0.518384	0.680249	0.183701
C110	C	0.442981	0.740499	0.259109
C111	C	0.962729	0.325206	-0.260674
C112	C	1.038132	0.264956	-0.336082
C113	C	0.962725	0.333505	-0.050085
C114	C	1.038127	0.276072	-0.054022
C115	C	0.962703	0.485209	-0.260646
C116	C	1.038097	0.479263	-0.336045
C117	C	0.407582	0.723489	-0.062237
C118	C	0.336744	0.777447	-0.058554
C119	C	0.301306	0.837299	-0.015581
C120	C	0.336717	0.843191	0.023705
C121	C	0.407559	0.789233	0.020018
C122	C	0.407604	0.561849	0.335614
C123	C	0.336773	0.567433	0.406465
C124	C	0.301350	0.537364	0.400773
C125	C	0.336769	0.501702	0.324222
C126	C	0.407604	0.496115	0.253373
C127	C	0.407567	0.798421	0.253405
C128	C	0.336727	0.855036	0.324252
C129	C	0.301299	0.853727	0.400803
C130	C	0.336720	0.795799	0.406504
C131	C	0.407563	0.739185	0.335658
C132	C	1.073555	0.207034	-0.330379
C133	C	1.144417	0.150418	-0.401227
C134	C	1.179849	0.151726	-0.477778
C135	C	1.144423	0.209655	-0.483479
C136	C	1.073568	0.266269	-0.412632
C137	C	1.073538	0.281966	-0.014744
C138	C	1.144396	0.228006	-0.018446
C139	C	1.179837	0.168154	-0.061422
C140	C	1.144423	0.162262	-0.100705
C141	C	1.073571	0.216221	-0.097007
C142	C	1.073498	0.509341	-0.330326
C143	C	1.144330	0.503766	-0.401164
C144	C	1.179764	0.468111	-0.477721
C145	C	1.144357	0.438032	-0.483438
C146	C	1.073522	0.443611	-0.412600
H147	H	0.419291	0.431735	-0.127324
H148	H	-0.066670	0.579055	0.057003
C149	C	1.034601	0.410512	-0.418897
H150	H	0.987337	0.418937	-0.365749
H151	H	1.085480	0.366199	-0.449463
H152	H	1.006961	0.425988	-0.445360
C153	C	0.297716	0.909029	0.070989
H154	H	0.328943	0.904818	0.093861
H155	H	0.230832	0.934530	0.113379
H156	H	0.309323	0.928355	0.034893
H157	H	0.740555	0.438742	-0.628356
H158	H	1.044688	0.330695	0.020257
H159	H	0.436427	0.467082	0.191052
H160	H	0.740556	0.571532	-0.326789
C161	C	0.163432	0.387568	-0.182658
H162	H	0.231214	0.357073	-0.220813
H163	H	0.138362	0.405624	-0.210085
H164	H	0.138349	0.367722	-0.157471
H165	H	0.496372	0.151649	0.089977
H166	H	1.173219	0.409002	-0.545780
H167	H	1.237529	0.124223	-0.064426
H168	H	0.436388	0.692025	0.340313
C169	C	0.168960	0.624057	0.113381
H170	H	0.163648	0.651961	0.148304
H171	H	0.138776	0.608289	0.143665
H172	H	0.138784	0.646195	0.091056
C173	C	0.740541	0.578968	-0.458202
H174	H	0.740528	0.570879	-0.502999
H175	H	0.796044	0.574229	-0.476402
H176	H	0.685028	0.620888	-0.417987
H177	H	1.173289	0.113523	-0.135695
H178	H	1.237443	0.463573	-0.535395
H179	H	0.307921	0.772637	-0.090546
H180	H	0.740570	0.406389	-0.448616
C181	C	1.034598	0.329981	-0.418915
H182	H	1.065846	0.322646	-0.474653
H183	H	1.046192	0.351680	-0.395030
H184	H	0.967714	0.354918	-0.390950
C185	C	0.223374	0.916004	0.478729
H186	H	0.207347	0.906933	0.525140
H187	H	0.168104	0.941382	0.481611
H188	H	0.246610	0.938114	0.477514
C189	C	0.054402	0.587314	0.067360
H190	H	-0.013381	0.617802	0.105523
H191	H	0.079482	0.607160	0.042181
H192	H	0.079472	0.569252	0.094788
H193	H	0.897941	-0.344390	-0.121279
H194	H	0.740535	0.599071	-0.628352
C195	C	0.575430	0.411975	-0.152025
H196	H	0.580740	0.384078	-0.186955
H197	H	0.605606	0.389839	-0.129704
H198	H	0.605615	0.427745	-0.182313
C199	C	1.183330	0.234499	0.024777
H200	H	1.152059	0.277875	0.050911
H201	H	1.250211	0.211729	-0.014195
H202	H	1.171718	0.217909	0.064295
C203	C	0.740568	0.398955	-0.317189
H204	H	0.740562	0.407054	-0.272382
H205	H	0.796071	0.357035	-0.357395
H206	H	0.685055	0.403702	-0.298986
C207	C	0.223374	0.896649	-0.011521
H208	H	0.207337	0.933142	0.019695
H209	H	0.168111	0.899805	0.013370
H210	H	0.246606	0.893618	-0.065129
H211	H	0.307894	0.902198	0.319596
H212	H	0.284501	0.395835	-0.172306
H213	H	1.044741	0.211414	-0.128990
C214	C	0.446558	0.657658	-0.109512
H215	H	0.493816	0.626360	-0.106083
H216	H	0.474199	0.649904	-0.165053
H217	H	0.395698	0.656094	-0.086555
C218	C	0.446528	0.799873	0.169209
H219	H	0.415290	0.842482	0.175971
H220	H	0.434919	0.780654	0.141902
H221	H	0.513416	0.777390	0.137818
C222	C	0.446498	0.795721	0.063234
H223	H	0.493771	0.755017	0.054883
H224	H	0.395632	0.821169	0.119985
H225	H	0.474132	0.814973	0.041480
C226	C	0.297733	0.794368	0.490712
H227	H	0.250462	0.836384	0.532083
H228	H	0.348577	0.771291	0.493968
H229	H	0.270085	0.774555	0.498042
H230	H	0.307943	0.596474	0.468789
C231	C	0.317690	0.617886	0.105683
H232	H	0.249908	0.648376	0.143847
H233	H	0.342775	0.637729	0.080501
H234	H	0.342761	0.599823	0.133111
H235	H	1.044658	0.538375	-0.267996
C236	C	1.009525	-0.056755	-0.179925
H237	H	0.997109	-0.017496	-0.173379
H238	H	1.045217	-0.081579	-0.235892
H239	H	1.045127	-0.078624	-0.161433
H240	H	0.897998	0.124951	-0.121335
H241	H	0.243672	0.541918	0.458469
H242	H	1.044710	0.205956	-0.268054
C243	C	0.740535	0.606504	-0.759783
H244	H	0.740542	0.633986	-0.730174
H245	H	0.685028	0.630636	-0.756774
H246	H	0.796044	0.583975	-0.815185
H247	H	1.173249	0.103256	-0.396569
C248	C	1.183276	0.536846	-0.394862
H249	H	1.152036	0.558869	-0.339121
H250	H	1.171658	0.565938	-0.418727
H251	H	1.250164	0.506133	-0.422839
H252	H	0.583169	0.349853	0.044296
H253	H	0.307917	0.477221	0.319599
C254	C	0.558358	0.260445	0.057361
H255	H	0.506695	0.304667	0.084532
H256	H	0.554735	0.243534	0.096471
H257	H	0.554749	0.240592	0.022052
H258	H	0.436438	0.586336	0.340264
C259	C	1.009525	-0.163885	-0.179958
H260	H	1.061190	-0.163097	-0.207131
H261	H	1.013149	-0.186782	-0.219064
H262	H	1.013127	-0.183830	-0.144641
C263	C	1.257784	0.089450	-0.555705
H264	H	1.273822	0.098520	-0.602116
H265	H	1.234565	0.067332	-0.554495
H266	H	1.313056	0.064079	-0.558582
C267	C	0.471571	0.062242	0.103035
H268	H	0.419910	0.106464	0.130207
H269	H	0.467945	0.045329	0.142144
H270	H	0.467963	0.042391	0.067723
C271	C	1.183392	0.211090	-0.567684
H272	H	1.152155	0.253694	-0.560943
H273	H	1.171786	0.191858	-0.594980
H274	H	1.250280	0.188609	-0.599077
C275	C	0.922744	-0.254979	-0.134326
H276	H	0.974408	-0.299201	-0.161514
H277	H	0.926365	-0.235129	-0.099030
H278	H	0.926353	-0.238065	-0.173435
C279	C	0.558318	-0.101785	0.057411
H280	H	0.506648	-0.102568	0.084600
H281	H	0.554704	-0.081828	0.022111
H282	H	0.554712	-0.078902	0.096519
H283	H	0.583106	-0.212057	0.044364
C284	C	0.922792	0.214380	-0.134420
H285	H	0.910361	0.253643	-0.127889
H286	H	0.958411	0.189568	-0.190372
H287	H	0.958475	0.192501	-0.115994
H288	H	0.740564	0.433924	-0.750187
