data_functionalizedCrystal
_audit_creation_method	'MofGen! by Chris Wilmer'
_symmetry_space_group_name_H-M	'P1'
_symmetry_Int_Tables_number	1
_symmetry_cell_setting	triclinic
loop_
_symmetry_equiv_pos_as_xyz
  x,y,z
_cell_length_a	10.654550
_cell_length_b	17.038272
_cell_length_c	9.730223
_cell_angle_alpha	89.998176
_cell_angle_beta	89.996251
_cell_angle_gamma	87.798229
loop_
_atom_site_label
_atom_site_type_symbol
_atom_site_fract_x
_atom_site_fract_y
_atom_site_fract_z
O1	O	1.678036	0.109875	-0.114405
O2	O	1.313530	0.120343	-0.114384
O3	O	1.493617	0.001281	-0.114383
O4	O	1.497950	0.228936	-0.114406
O5	O	1.493615	0.001284	0.114196
O6	O	1.313528	0.120346	0.114196
O7	O	1.678034	0.109878	0.114175
Zn8	Zn	1.495781	0.115112	0.150477
Zn9	Zn	1.495783	0.115108	-0.150686
O10	O	1.497948	0.228939	0.114174
C11	C	1.266660	0.119576	-0.000091
C12	C	1.127003	0.117276	-0.000082
C13	C	1.489675	-0.027867	-0.000093
C14	C	1.477918	-0.114726	-0.000093
C15	C	1.054026	0.187378	-0.000109
C16	C	0.922804	0.185212	-0.000132
C17	C	0.937548	0.042837	-0.000108
C18	C	1.068767	0.045004	-0.000075
C19	C	1.045513	0.269577	-0.000129
C20	C	0.914292	0.267411	-0.000152
C21	C	1.585862	-0.164237	-0.000098
C22	C	1.574808	-0.245850	-0.000111
C23	C	1.455808	-0.277949	-0.000108
C24	C	1.347856	-0.228431	-0.000107
C25	C	1.358911	-0.146821	-0.000105
C26	C	1.416750	-0.523925	-0.000125
C27	C	1.405702	-0.605542	-0.000123
C28	C	1.632656	-0.622955	-0.000129
C29	C	1.643701	-0.541342	-0.000118
C30	C	1.535749	-0.491831	-0.000124
C31	C	1.444505	-0.361370	-0.000116
C32	C	1.547052	-0.408412	-0.000126
C33	C	1.724905	0.110645	-0.000121
C34	C	1.864562	0.112944	-0.000139
C35	C	1.501889	0.258088	-0.000119
C36	C	1.513646	0.344947	-0.000128
N37	N	1.495788	0.115115	0.356014
N38	N	1.495785	0.115100	-0.356223
C39	C	1.575554	0.062412	0.427940
C40	C	1.575550	0.062402	0.571823
C41	C	1.416010	0.167805	0.571841
C42	C	1.416009	0.167810	0.427961
C43	C	1.667667	0.001561	0.427931
C44	C	1.667663	0.001551	0.571814
H45	H	1.128180	-0.012080	-0.000033
C46	C	1.786791	0.026050	0.223943
C47	C	1.793123	0.027320	0.367660
H48	H	1.864232	0.041971	0.186737
H49	H	1.771043	-0.025669	0.193786
H50	H	1.720812	0.060999	0.193840
H51	H	1.859095	-0.007634	0.397764
H52	H	1.808885	0.079047	0.397830
H53	H	1.083600	0.295749	-0.098819
H54	H	1.740603	-0.515213	-0.000120
H55	H	1.347615	-0.387514	-0.000111
H56	H	1.643941	-0.382273	-0.000158
H57	H	1.765419	0.014955	0.610857
H58	H	1.250963	-0.254573	-0.000114
C59	C	1.239680	-0.044935	0.117402
C60	C	1.240257	-0.092393	-0.000097
H61	H	1.166429	-0.011332	0.117394
H62	H	1.240074	-0.077135	0.197099
H63	H	1.312141	-0.014144	0.117385
H64	H	1.167801	-0.123189	-0.000076
H65	H	1.239852	-0.060189	-0.079815
H66	H	1.351046	0.210718	0.369400
C67	C	1.246817	0.183777	0.733664
C68	C	1.328327	0.225728	0.650935
H69	H	1.192691	0.219538	0.782497
H70	H	1.198148	0.150961	0.677531
H71	H	1.294337	0.152389	0.797087
H72	H	1.280807	0.257111	0.587504
H73	H	1.377001	0.258557	0.707072
C74	C	0.965302	-0.097676	-0.000077
C75	C	0.873532	-0.036603	-0.000108
H76	H	0.925780	-0.146719	-0.000070
H77	H	1.016190	-0.093872	-0.079773
H78	H	1.016159	-0.093861	0.079649
H79	H	0.822680	-0.040414	-0.079840
H80	H	0.822622	-0.040408	0.079596
C81	C	1.800247	-0.254863	-0.000084
C82	C	1.693464	-0.300273	-0.000100
H83	H	1.873502	-0.288464	-0.000069
H84	H	1.799849	-0.222670	-0.079789
H85	H	1.799817	-0.222669	0.079633
H86	H	1.693889	-0.332463	-0.079823
H87	H	1.693862	-0.332479	0.079613
H88	H	1.640641	-0.058569	0.388884
H89	H	1.077829	0.301726	0.095534
H90	H	0.870926	0.292254	0.098529
C91	C	1.496081	-0.085339	0.587594
C92	C	1.619387	-0.075168	0.632043
H93	H	1.466290	-0.132707	0.624767
H94	H	1.443882	-0.042291	0.617775
H95	H	1.494451	-0.087929	0.490090
H96	H	1.621016	-0.072572	0.729547
H97	H	1.671599	-0.118227	0.601870
C98	C	0.961252	0.336733	-0.207609
C99	C	0.861825	0.309217	-0.129298
H100	H	0.928858	0.362538	-0.287336
H101	H	1.007069	0.372597	-0.154457
H102	H	1.015246	0.293720	-0.234162
H103	H	0.807835	0.352231	-0.102736
H104	H	0.815986	0.273351	-0.182460
H105	H	1.720544	-0.663275	-0.000126
C106	C	1.182467	-0.580137	-0.000160
C107	C	1.274888	-0.640827	-0.000142
H108	H	1.101714	-0.601923	-0.000181
H109	H	1.191480	-0.548671	0.079548
H110	H	1.191520	-0.548665	-0.079874
H111	H	1.265841	-0.672296	0.079578
H112	H	1.265871	-0.672306	-0.079858
C113	C	1.297500	-0.422060	-0.117634
C114	C	1.298085	-0.469514	-0.000125
H115	H	1.224232	-0.388472	-0.117635
H116	H	1.369937	-0.391260	-0.117627
H117	H	1.297915	-0.454268	-0.197333
H118	H	1.297679	-0.437306	0.079575
H119	H	1.225629	-0.500317	-0.000118
H120	H	1.682764	-0.138109	-0.000092
