data_functionalizedCrystal
_audit_creation_method	'MofGen! by Chris Wilmer'
_symmetry_space_group_name_H-M	'P1'
_symmetry_Int_Tables_number	1
_symmetry_cell_setting	triclinic
loop_
_symmetry_equiv_pos_as_xyz
  x,y,z
_cell_length_a	14.853567
_cell_length_b	15.455313
_cell_length_c	16.956995
_cell_angle_alpha	92.472562
_cell_angle_beta	79.844701
_cell_angle_gamma	87.315200
loop_
_atom_site_label
_atom_site_type_symbol
_atom_site_fract_x
_atom_site_fract_y
_atom_site_fract_z
O1	O	1.184245	0.072070	0.107579
O2	O	0.920843	0.072085	0.119981
O3	O	1.068368	0.072073	-0.002281
O4	O	1.036720	0.072081	0.229841
O5	O	1.076794	-0.072190	-0.009252
O6	O	0.929269	-0.072178	0.113010
O7	O	1.192671	-0.072193	0.100609
Cu8	Cu	1.061739	-0.085358	0.106173
Cu9	Cu	1.051775	0.085250	0.114416
O10	O	1.045146	-0.072181	0.222871
C11	C	0.891510	-0.000045	0.115934
C12	C	0.791554	-0.000039	0.114250
N13	N	1.044767	0.205246	0.120208
C14	C	1.074201	-0.000058	-0.035473
C15	C	1.079018	-0.000055	-0.123988
C16	C	0.385076	-0.000062	0.034505
C17	C	0.352766	-0.000056	0.179755
C18	C	0.446679	-0.000053	0.181338
C19	C	0.509796	-0.000053	0.109504
C20	C	0.478999	-0.000056	0.036087
C21	C	0.477483	-0.000041	0.254755
C22	C	0.571401	-0.000037	0.256341
C23	C	0.634520	-0.000044	0.184506
C24	C	0.603718	-0.000048	0.111086
C25	C	0.666834	-0.000048	0.039251
C26	C	0.636035	-0.000058	-0.034170
C27	C	0.542117	-0.000063	-0.035749
C28	C	0.728437	-0.000039	0.186084
C29	C	0.760757	-0.000043	0.040833
C30	C	1.222004	-0.000062	0.104656
C31	C	1.321960	-0.000061	0.106340
N32	N	1.068754	-0.205354	0.100375
C33	C	1.107545	0.250635	0.068368
C34	C	1.102244	0.341443	0.072746
C35	C	1.034160	0.386861	0.128963
C36	C	0.971379	0.341465	0.180809
C37	C	0.976685	0.250658	0.176433
C38	C	1.011279	0.658444	0.147846
C39	C	1.005976	0.749257	0.152215
C40	C	1.136843	0.749229	0.044154
C41	C	1.142140	0.658420	0.039780
C42	C	1.079361	0.613033	0.091629
N43	N	1.028738	0.479681	0.133438
N44	N	1.084788	0.520214	0.087157
C45	C	1.115058	-0.000054	-0.623248
C46	C	1.110524	-0.000059	-0.540078
C47	C	1.025428	-0.000050	-0.489084
C48	C	0.944859	-0.000045	-0.521263
C49	C	0.949394	-0.000046	-0.604432
C50	C	1.002985	-0.000051	-0.239336
C51	C	0.998456	-0.000047	-0.156162
C52	C	1.164122	-0.000063	-0.174983
C53	C	1.168648	-0.000059	-0.258152
C54	C	1.088081	-0.000058	-0.290325
N55	N	1.020792	-0.000052	-0.404070
N56	N	1.092718	-0.000062	-0.375337
C57	C	1.039313	-0.000049	0.256062
C58	C	1.034495	-0.000046	0.344578
H59	H	0.687436	-0.000053	-0.092657
H60	H	0.937380	-0.000040	-0.265520
H61	H	0.301371	-0.000048	0.238239
H62	H	0.950530	0.786231	0.197996
H63	H	0.517032	-0.000092	-0.095526
N64	N	1.251014	-0.000081	-0.140281
H65	H	1.305610	-0.000089	-0.185206
H66	H	1.249627	0.053398	-0.103598
H67	H	0.359995	-0.000074	-0.025273
H68	H	0.426087	-0.000032	0.313239
H69	H	0.929157	-0.000043	-0.114643
N70	N	0.604619	-0.000020	0.335527
H71	H	0.550382	-0.000017	0.380792
H72	H	0.646010	-0.053498	0.336767
H73	H	0.875572	-0.000043	-0.479737
N74	N	1.204537	0.798195	-0.011767
H75	H	1.239895	0.835881	0.020651
H76	H	1.248415	0.755597	-0.048038
N77	N	0.761660	-0.000018	0.265264
H78	H	0.707425	-0.000013	0.310531
H79	H	0.803051	-0.053496	0.266506
H80	H	0.915946	0.378449	0.226585
N81	N	0.908967	0.201705	0.232346
H82	H	0.873611	0.164023	0.199923
H83	H	0.942954	0.164088	0.265946
N84	N	1.180981	0.201652	0.007735
H85	H	1.219948	0.244189	-0.024438
H86	H	1.220671	0.163984	0.036589
H87	H	0.812142	-0.000046	-0.017665
N88	N	0.943553	0.609496	0.203748
H89	H	0.899611	0.652050	0.240015
H90	H	0.908270	0.571823	0.171254
N91	N	1.206846	-0.000068	-0.678239
H92	H	1.215539	-0.053547	-0.715749
H93	H	1.209249	0.053445	-0.710529
H94	H	1.176127	-0.000066	-0.513886
H95	H	1.153364	0.378399	0.030534
H96	H	1.237943	-0.000070	-0.299667
H97	H	1.197579	0.621443	-0.005996
N98	N	0.862503	-0.000045	-0.639139
H99	H	0.807906	-0.000039	-0.594216
H100	H	0.857652	0.053432	-0.670655
