data_functionalizedCrystal
_audit_creation_method	'MofGen! by Chris Wilmer'
_symmetry_space_group_name_H-M	'P1'
_symmetry_Int_Tables_number	1
_symmetry_cell_setting	triclinic
loop_
_symmetry_equiv_pos_as_xyz
  x,y,z
_cell_length_a	16.974829
_cell_length_b	16.992695
_cell_length_c	16.053802
_cell_angle_alpha	92.747646
_cell_angle_beta	96.228883
_cell_angle_gamma	92.973864
loop_
_atom_site_label
_atom_site_type_symbol
_atom_site_fract_x
_atom_site_fract_y
_atom_site_fract_z
O1	O	-1.061819	0.093240	-0.141161
O2	O	-0.561819	0.593240	0.358839
O3	O	-0.831717	0.106702	-0.125614
O4	O	-0.331717	0.606702	0.374386
O5	O	-0.945846	-0.014168	-0.133332
O6	O	-0.445846	0.485832	0.366668
O7	O	-0.947690	0.214110	-0.133442
O8	O	-0.447690	0.714110	0.366558
O9	O	-0.939562	-0.007542	0.005951
O10	O	-0.439562	0.492458	0.505951
O11	O	-0.825433	0.113328	0.013670
O12	O	-0.325433	0.613328	0.513670
O13	O	-1.055536	0.099866	-0.001877
O14	O	-0.555536	0.599866	0.498123
Zn15	Zn	-0.939487	0.107649	0.028011
Zn16	Zn	-0.439487	0.607649	0.528011
Zn17	Zn	-0.947766	0.098919	-0.155502
Zn18	Zn	-0.447766	0.598919	0.344498
O19	O	-0.941407	0.220736	0.005841
O20	O	-0.441407	0.720736	0.505841
C21	C	-0.798996	0.109625	-0.053974
C22	C	-0.298996	0.609625	0.446026
C23	C	-0.710859	0.108454	-0.048020
C24	C	-0.210859	0.608454	0.451980
C25	C	-0.940331	-0.040058	-0.063534
C26	C	-0.440331	0.459942	0.436466
C27	C	-0.933250	-0.127072	-0.063066
C28	C	-0.433250	0.372928	0.436934
C29	C	-1.088257	0.096943	-0.073519
C30	C	-0.588257	0.596943	0.426481
C31	C	-1.176394	0.098114	-0.079479
C32	C	-0.676394	0.598114	0.420521
C33	C	-0.214374	0.102276	-0.006353
C34	C	0.285626	0.602276	0.493647
C35	C	-0.297187	0.103376	-0.011949
C36	C	0.202813	0.603376	0.488051
C37	C	-0.342020	0.100308	-0.090672
C38	C	0.157980	0.600308	0.409328
C39	C	-0.304034	0.096148	-0.163804
C40	C	0.195966	0.596148	0.336196
C41	C	-0.221222	0.095054	-0.158207
C42	C	0.278778	0.595054	0.341793
C43	C	-0.590061	0.103199	-0.115554
C44	C	-0.090061	0.603199	0.384446
C45	C	-0.672879	0.104292	-0.121146
C46	C	-0.172879	0.604292	0.378854
C47	C	-0.666027	0.111521	0.030710
C48	C	-0.166027	0.611521	0.530710
C49	C	-0.583213	0.110421	0.036300
C50	C	-0.083213	0.610421	0.536300
C51	C	-0.545234	0.106266	-0.036831
C52	C	-0.045234	0.606266	0.463169
N53	N	-0.426669	0.101430	-0.096395
N54	N	0.073331	0.601430	0.403605
N55	N	-0.460586	0.105149	-0.031108
N56	N	0.039414	0.605149	0.468892
N57	N	-0.933842	0.113606	0.153253
N58	N	-0.433842	0.613606	0.653253
C59	C	-0.946922	0.246626	-0.063959
C60	C	-0.446922	0.746626	0.436041
C61	C	-0.954003	0.333640	-0.064432
C62	C	-0.454003	0.833640	0.435568
C63	C	-0.885679	0.384172	-0.059816
C64	C	-0.385679	0.884172	0.440184
C65	C	-0.892338	0.465929	-0.060277
C66	C	-0.392338	0.965929	0.439723
C67	C	-0.967320	0.497154	-0.065347
C68	C	-0.467320	0.997154	0.434653
C69	C	-1.035649	0.446616	-0.069966
C70	C	-0.535649	0.946616	0.430034
C71	C	-1.028990	0.364859	-0.069511
C72	C	-0.528990	0.864859	0.430489
C73	C	-0.994920	0.740633	-0.067231
C74	C	-0.494920	1.240633	0.432769
C75	C	-1.001574	0.822396	-0.067682
C76	C	-0.501574	1.322396	0.432318
C77	C	-0.858262	0.841704	-0.057995
C78	C	-0.358262	1.341704	0.442005
C79	C	-0.851609	0.759946	-0.057536
C80	C	-0.351609	1.259946	0.442464
C81	C	-0.919938	0.709414	-0.062159
C82	C	-0.419938	1.209414	0.437841
N83	N	-0.974128	0.580723	-0.065815
N84	N	-0.474128	1.080723	0.434185
N85	N	-0.913130	0.625846	-0.061697
N86	N	-0.413130	1.125846	0.438303
N87	N	-0.953416	0.092956	-0.280744
N88	N	-0.453416	0.592956	0.219256
C89	C	-0.982425	0.062194	0.193661
C90	C	-0.482425	0.562194	0.693661
C91	C	-0.978484	0.066369	0.281334
C92	C	-0.478484	0.566369	0.781334
C93	C	-0.925965	0.121960	0.328597
C94	C	-0.425965	0.621960	0.828597
C95	C	-0.877377	0.173374	0.288183
C96	C	-0.377377	0.673374	0.788183
C97	C	-0.881314	0.169195	0.200512
C98	C	-0.381314	0.669195	0.700512
C99	C	-0.908766	0.140191	0.591170
C100	C	-0.408766	0.640191	1.091170
C101	C	-0.904834	0.144368	0.678847
C102	C	-0.404834	0.644368	1.178847
C103	C	-1.005940	0.037361	0.671993
C104	C	-0.505940	0.537361	1.171993
C105	C	-1.009876	0.033190	0.584320
C106	C	-0.509876	0.533190	1.084320
C107	C	-0.961286	0.084602	0.543913
C108	C	-0.461286	0.584602	1.043913
N109	N	-0.921937	0.126230	0.418214
N110	N	-0.421937	0.626230	0.918214
N111	N	-0.965309	0.080327	0.454299
N112	N	-0.465309	0.580327	0.954299
H113	H	-0.328107	0.106763	0.047598
H114	H	0.171893	0.606763	0.547598
H115	H	-0.836701	0.507070	-0.056520
H116	H	-0.336701	1.007070	0.443480
N117	N	-0.804800	0.350505	-0.054348
N118	N	-0.304800	0.850505	0.445652
H119	H	-0.801171	0.314553	-0.105575
H120	H	-0.301171	0.814553	0.394425
H121	H	-0.796559	0.319519	-0.002279
H122	H	-0.296559	0.819519	0.497721
N123	N	-0.549108	0.098705	-0.194430
N124	N	-0.049108	0.598705	0.305570
H125	H	-0.518247	0.049501	-0.195715
H126	H	-0.018247	0.549501	0.304285
H127	H	-0.511598	0.146715	-0.195225
H128	H	-0.011598	0.646715	0.304775
H129	H	-1.045499	-0.004497	0.704900
H130	H	-0.545499	0.495503	1.204900
N131	N	-0.848182	0.204321	0.729835
N132	N	-0.348182	0.704321	1.229835
H133	H	-0.879056	0.240651	0.764001
H134	H	-0.379056	0.740651	1.264001
H135	H	-0.818005	0.236203	0.690888
H136	H	-0.318005	0.736203	1.190888
H137	H	-0.802633	0.882855	-0.054232
H138	H	-0.302633	1.382855	0.445768
H139	H	-0.696958	0.114906	0.090249
H140	H	-0.196958	0.614906	0.590249
N141	N	-1.116524	0.480290	-0.075425
N142	N	-0.616524	0.980290	0.424575
H143	H	-1.124815	0.511325	-0.127457
H144	H	-0.624815	1.011325	0.372543
H145	H	-1.120091	0.516200	-0.024153
H146	H	-0.620091	1.016200	0.475847
H147	H	-1.084627	0.323716	-0.073273
H148	H	-0.584627	0.823716	0.426727
H149	H	-1.062637	0.847815	-0.071811
H150	H	-0.562637	1.347815	0.428189
H151	H	-0.546716	0.112902	0.100405
H152	H	-0.046716	0.612902	0.600405
H153	H	-0.340544	0.093656	-0.227902
H154	H	0.159456	0.593656	0.272098
N155	N	-1.039076	0.002239	0.142687
N156	N	-0.539076	0.502239	0.642687
H157	H	-1.069253	-0.029697	0.181593
H158	H	-0.569253	0.470303	0.681593
H159	H	-1.008154	-0.034038	0.108520
H160	H	-0.508154	0.465962	0.608520
H161	H	-1.018043	0.024504	0.314234
H162	H	-0.518043	0.524504	0.814234
H163	H	-0.709380	0.101800	-0.185255
H164	H	-0.209380	0.601800	0.314745
N165	N	-0.166023	0.105577	0.078558
N166	N	0.333977	0.605577	0.578558
H167	H	-0.202690	0.107836	0.124027
H168	H	0.297310	0.607836	0.624027
H169	H	-0.128550	0.154161	0.084642
H170	H	0.371450	0.654161	0.584642
N171	N	-0.180253	0.090568	-0.237077
N172	N	0.319747	0.590568	0.262923
H173	H	-0.221219	0.088790	-0.287798
H174	H	0.278781	0.588790	0.212202
H175	H	-0.149387	0.041366	-0.238290
H176	H	0.350613	0.541366	0.261710
N177	N	-0.770740	0.726258	-0.052075
N178	N	-0.270740	1.226258	0.447925
H179	H	-0.762461	0.695230	-0.000038
H180	H	-0.262461	1.195230	0.499962
H181	H	-0.728510	0.770712	-0.049257
H182	H	-0.228510	1.270712	0.450743
H183	H	-1.050558	0.699500	-0.070990
H184	H	-0.550558	1.199500	0.429010
N185	N	-0.856356	0.195636	0.547595
N186	N	-0.356356	0.695636	1.047595
H187	H	-0.822490	0.231486	0.590842
H188	H	-0.322490	0.731486	1.090842
H189	H	-0.890537	0.228448	0.509006
H190	H	-0.390537	0.728448	1.009006
H191	H	-0.841752	0.211060	0.167613
H192	H	-0.341752	0.711060	0.667613
H193	H	-1.052641	-0.012077	0.545839
H194	H	-0.552641	0.487923	1.045839
H195	H	-0.834611	0.218635	0.326670
H196	H	-0.334611	0.718635	0.826670
