data_functionalizedCrystal
_audit_creation_method	'MofGen! by Chris Wilmer'
_symmetry_space_group_name_H-M	'P1'
_symmetry_Int_Tables_number	1
_symmetry_cell_setting	triclinic
loop_
_symmetry_equiv_pos_as_xyz
  x,y,z
_cell_length_a	10.654541
_cell_length_b	14.421503
_cell_length_c	10.654545
_cell_angle_alpha	90.003820
_cell_angle_beta	95.515322
_cell_angle_gamma	89.991612
loop_
_atom_site_label
_atom_site_type_symbol
_atom_site_fract_x
_atom_site_fract_y
_atom_site_fract_z
O1	O	1.667825	0.077078	-0.176375
O2	O	1.302346	0.077086	-0.193184
O3	O	1.493487	0.077081	-0.002040
O4	O	1.476683	0.077083	-0.367519
O5	O	1.493511	-0.077142	-0.002053
O6	O	1.302369	-0.077138	-0.193197
O7	O	1.667848	-0.077145	-0.176388
Cu8	Cu	1.485111	-0.091223	-0.184793
Cu9	Cu	1.485083	0.091164	-0.184778
O10	O	1.476706	-0.077141	-0.367532
C11	C	1.255559	-0.000025	-0.191957
C12	C	1.116116	-0.000022	-0.188266
N13	N	1.485139	-0.219505	-0.184803
C14	C	1.088146	-0.000009	-0.416831
C15	C	1.008652	0.000001	-0.529374
C16	C	0.877634	0.000002	-0.525898
C17	C	0.826108	-0.000010	-0.409867
C18	C	0.905602	-0.000020	-0.297324
C19	C	1.036622	-0.000019	-0.300812
C20	C	0.933572	-0.000040	-0.068763
C21	C	1.064590	-0.000034	-0.072235
C22	C	0.882046	-0.000052	0.047269
C23	C	0.961540	-0.000055	0.159814
C24	C	1.092565	-0.000055	0.156334
C25	C	1.144084	-0.000044	0.040308
C26	C	1.573542	-0.469136	-0.096399
C27	C	1.459846	-0.530930	-0.071020
C28	C	1.485111	-0.408666	-0.184788
C29	C	1.598780	-0.530965	-0.210093
C30	C	1.485094	-0.591388	-0.184770
C31	C	1.371357	-0.469100	-0.159353
C32	C	1.510367	-0.469130	-0.298475
C33	C	1.396589	-0.530896	-0.273144
C34	C	1.485123	-0.303405	-0.184795
C35	C	1.485070	-0.696646	-0.184764
C36	C	1.714634	-0.000033	-0.177615
C37	C	1.854078	-0.000030	-0.181306
C38	C	1.492265	-0.000029	0.044751
C39	C	1.488572	-0.000023	0.184195
N40	N	1.485064	0.219445	-0.184759
C41	C	1.477929	-0.000029	-0.414323
C42	C	1.481621	-0.000028	-0.553766
C43	C	1.488562	0.168116	0.184217
C44	C	1.486826	0.252185	0.249738
C45	C	1.483357	0.252186	0.380757
C46	C	1.481620	0.168109	0.446257
C47	C	1.483355	0.084040	0.380736
C48	C	1.486828	0.084048	0.249715
C49	C	1.483357	-0.084097	0.380712
C50	C	1.486835	-0.084101	0.249695
C51	C	1.481619	-0.168175	0.446213
C52	C	1.483363	-0.252246	0.380693
C53	C	1.486834	-0.252243	0.249666
C54	C	1.488570	-0.168170	0.184174
H55	H	1.194826	0.000010	-0.419672
Br56	Br	0.648297	-0.000030	-0.405153
H57	H	0.812909	0.000003	-0.617541
H58	H	1.050619	0.000008	-0.623844
H59	H	1.491402	-0.168160	0.077492
Br60	Br	1.424199	-0.576166	0.089235
H61	H	1.250764	-0.000033	0.037463
H62	H	1.531780	-0.441963	-0.394596
H63	H	1.275198	-0.442040	-0.137833
H64	H	0.775363	-0.000056	0.050090
Br65	Br	1.476894	-0.168175	0.624023
Br66	Br	1.480986	0.366280	0.469682
Br67	Br	1.271803	-0.575812	-0.397728
H68	H	1.481940	-0.320694	0.434032
H69	H	1.478780	0.168117	0.552937
H70	H	1.488228	-0.320703	0.196324
Br71	Br	0.891606	-0.000083	0.317268
Br72	Br	1.200440	-0.000080	0.309081
Br73	Br	1.698057	-0.423933	0.028248
H74	H	1.694916	-0.558140	-0.231504
H75	H	1.491401	0.168123	0.077536
Br76	Br	1.489218	0.366284	0.160845
