data_functionalizedCrystal
_audit_creation_method	'MofGen! by Chris Wilmer'
_symmetry_space_group_name_H-M	'P1'
_symmetry_Int_Tables_number	1
_symmetry_cell_setting	triclinic
loop_
_symmetry_equiv_pos_as_xyz
  x,y,z
_cell_length_a	18.101398
_cell_length_b	12.594516
_cell_length_c	18.101389
_cell_angle_alpha	90.014195
_cell_angle_beta	90.024327
_cell_angle_gamma	90.007083
loop_
_atom_site_label
_atom_site_type_symbol
_atom_site_fract_x
_atom_site_fract_y
_atom_site_fract_z
Zn1	Zn	1.132220	-0.423988	0.418861
Zn2	Zn	1.132158	-0.601956	0.295028
Zn3	Zn	1.008379	-0.423977	0.295022
Zn4	Zn	1.008372	-0.601910	0.418817
O5	O	1.070282	-0.512958	0.356932
O6	O	1.235845	-0.447620	0.402455
O7	O	1.115715	-0.578361	0.191394
O8	O	1.024836	-0.275033	0.311465
O9	O	1.235799	-0.578372	0.311476
O10	O	1.115822	-0.275041	0.402449
O11	O	1.024776	-0.447601	0.191390
O12	O	0.904745	-0.447557	0.311422
O13	O	1.024823	-0.578294	0.522455
O14	O	0.904740	-0.578283	0.402374
O15	O	1.115814	-0.447575	0.522488
O16	O	1.115708	-0.750896	0.311433
O17	O	1.024763	-0.750862	0.402380
C18	C	0.877872	-0.512915	0.356893
C19	C	0.795558	-0.512922	0.356894
C20	C	1.070248	-0.789499	0.356919
C21	C	1.070301	-0.907804	0.356938
C22	C	0.496467	-0.512988	0.356956
C23	C	0.527771	-0.430327	0.300011
C24	C	0.613389	-0.430549	0.299768
C25	C	0.644849	-0.512954	0.356925
C26	C	0.613757	-0.625071	0.335607
C27	C	0.528112	-0.624611	0.335211
C28	C	0.528075	-0.484507	0.435354
C29	C	0.613725	-0.482010	0.434926
C30	C	0.728709	-0.512942	0.356909
C31	C	0.412607	-0.513008	0.356971
C32	C	1.119824	-0.977037	0.307525
C33	C	1.137919	-1.047759	0.375121
C34	C	1.052298	-1.047881	0.289385
C35	C	1.088431	-0.976968	0.424569
C36	C	1.002779	-0.977084	0.338788
C37	C	1.020849	-1.047774	0.406431
C38	C	1.263444	-0.513002	0.356971
C39	C	1.345758	-0.513021	0.356988
C40	C	1.070325	-0.512931	0.550094
C41	C	1.070343	-0.512919	0.632408
C42	C	1.070337	-0.235337	0.356961
C43	C	1.070360	-0.117032	0.356973
C44	C	1.070282	-0.512908	0.164521
C45	C	1.070407	-0.512619	0.082208
C46	C	1.070386	-0.512720	0.931499
C47	C	1.012940	-0.594703	0.900153
C48	C	1.013095	-0.595083	0.814535
C49	C	1.070364	-0.512819	0.783116
C50	C	1.148397	-0.543275	0.814224
C51	C	1.148077	-0.543813	0.899869
C52	C	1.050479	-0.400099	0.899917
C53	C	1.048743	-0.400749	0.814267
C54	C	1.070357	-0.512873	0.699257
C55	C	1.070399	-0.512668	1.015359
H56	H	0.634410	-0.347409	0.313131
C57	C	0.934925	-0.569331	0.786118
N58	N	0.876042	-0.549939	0.764718
C59	C	1.170866	-0.655037	0.926873
N60	N	1.188029	-0.738814	0.947209
C61	C	1.176409	-0.935062	0.251128
N62	N	1.219032	-0.903441	0.208655
H63	H	0.634050	-0.399505	0.451002
H64	H	1.103625	-0.945951	0.481762
H65	H	1.037048	-1.079030	0.232242
C66	C	1.207872	-0.466666	0.927886
N67	N	1.252915	-0.408566	0.948985
H68	H	1.195046	-1.078805	0.390492
C69	C	0.641298	-0.710508	0.389877
N70	N	0.662046	-0.774860	0.430753
C71	C	0.500724	-0.565839	0.492676
N72	N	0.480119	-0.627101	0.535845
H73	H	0.954903	-0.575839	0.920738
C74	C	1.030528	-0.706795	0.929228
N75	N	1.043782	-0.791223	0.951123
H76	H	1.026241	-0.678562	0.794057
C77	C	0.499952	-0.317664	0.317860
N78	N	0.478993	-0.232803	0.331305
H79	H	0.978994	-1.078637	0.448281
H80	H	0.945668	-0.946015	0.323397
H81	H	1.192349	-0.485439	0.793875
C82	C	0.498914	-0.375977	0.461538
N83	N	0.476952	-0.294226	0.481250
C84	C	0.971179	-0.369695	0.786767
N85	N	0.912763	-0.346300	0.766040
C86	C	1.171585	-0.653318	0.785268
N87	N	1.189046	-0.736206	0.763460
C88	C	1.101130	-0.313842	0.785360
N89	N	1.140591	-0.248384	0.763582
C90	C	0.500136	-0.710635	0.388795
N91	N	0.479067	-0.775431	0.429151
C92	C	0.974937	-0.362621	0.929069
N93	N	0.918035	-0.334405	0.951025
C94	C	1.107005	-0.317581	0.927302
N95	N	1.149584	-0.255437	0.947931
H96	H	0.633847	-0.449376	0.241676
C97	C	0.498653	-0.455458	0.221989
N98	N	0.476719	-0.474388	0.163224
H99	H	0.508106	-0.648767	0.277898
H100	H	0.635178	-0.649646	0.278913
C101	C	0.642653	-0.557427	0.495317
N102	N	0.664440	-0.614242	0.540802
