data_functionalizedCrystal
_audit_creation_method	'MofGen! by Chris Wilmer'
_symmetry_space_group_name_H-M	'P1'
_symmetry_Int_Tables_number	1
_symmetry_cell_setting	triclinic
loop_
_symmetry_equiv_pos_as_xyz
  x,y,z
_cell_length_a	17.038272
_cell_length_b	7.681481
_cell_length_c	8.597249
_cell_angle_alpha	91.816884
_cell_angle_beta	88.192786
_cell_angle_gamma	96.145203
loop_
_atom_site_label
_atom_site_type_symbol
_atom_site_fract_x
_atom_site_fract_y
_atom_site_fract_z
O1	O	1.035385	-0.093099	0.349986
O2	O	0.807670	-0.093961	0.344651
O3	O	0.924313	-0.127607	0.122682
O4	O	0.918742	-0.059454	0.571955
O5	O	0.938669	0.161100	0.095295
O6	O	0.822025	0.194746	0.317264
O7	O	1.049741	0.195607	0.322599
Zn8	Zn	0.938163	0.241015	0.315583
Zn9	Zn	0.919248	-0.139369	0.351667
O10	O	0.933098	0.229253	0.544568
C11	C	0.785644	0.049649	0.326101
C12	C	0.698626	0.047430	0.311612
N13	N	0.951077	0.500616	0.290957
N14	N	0.906340	-0.398972	0.376282
C15	C	0.650565	0.067615	0.444658
C16	C	0.568806	0.065572	0.431031
C17	C	0.535108	0.043332	0.284356
C18	C	0.583176	0.023152	0.151299
C19	C	0.664934	0.025207	0.164927
C20	C	0.288610	0.036076	0.236211
C21	C	0.206845	0.034016	0.222594
C22	C	0.192480	0.076440	0.502326
C23	C	0.274241	0.078483	0.515942
C24	C	0.322302	0.058312	0.382884
C25	C	0.451537	0.041238	0.270424
C26	C	0.405872	0.060419	0.396817
C27	C	1.071767	0.051993	0.341150
C28	C	1.158784	0.054200	0.355640
C29	C	0.930093	0.007979	0.051220
C30	C	0.925916	-0.018146	-0.120912
C31	C	0.927318	0.093663	0.616030
C32	C	0.931494	0.119776	0.788164
H33	H	0.677995	0.085723	0.564096
H34	H	0.917953	-0.156212	-0.174765
H35	H	0.529677	0.082006	0.539372
F36	F	1.010780	0.581656	0.177132
F37	F	0.846648	0.519997	0.490116
F38	F	0.941912	0.300232	-0.141461
F39	F	0.547311	-0.000506	-0.004805
H40	H	0.153341	0.092866	0.610653
F41	F	0.170985	0.010375	0.066473
F42	F	0.339749	0.014607	0.094597
F43	F	0.310098	0.102144	0.672054
H44	H	0.704065	0.008770	0.056586
H45	H	0.433313	0.078536	0.516238
H46	H	0.424093	0.023179	0.150996
