data_functionalizedCrystal
_audit_creation_method	'MofGen! by Chris Wilmer'
_symmetry_space_group_name_H-M	'P1'
_symmetry_Int_Tables_number	1
_symmetry_cell_setting	triclinic
loop_
_symmetry_equiv_pos_as_xyz
  x,y,z
_cell_length_a	11.792254
_cell_length_b	11.792241
_cell_length_c	9.730223
_cell_angle_alpha	89.998500
_cell_angle_beta	89.999834
_cell_angle_gamma	84.196007
loop_
_atom_site_label
_atom_site_type_symbol
_atom_site_fract_x
_atom_site_fract_y
_atom_site_fract_z
O1	O	1.506894	0.155631	-0.114289
O2	O	2.006894	0.655631	0.385711
O3	O	1.176554	0.171649	-0.114292
O4	O	1.676554	0.671649	0.385708
O5	O	1.349740	-0.001530	-0.114281
O6	O	1.849740	0.498470	0.385719
O7	O	1.333708	0.328811	-0.114301
O8	O	1.833708	0.828811	0.385699
O9	O	1.349738	-0.001525	0.114299
O10	O	1.849738	0.498475	0.614299
O11	O	1.176552	0.171654	0.114288
O12	O	1.676552	0.671654	0.614288
O13	O	1.506892	0.155636	0.114291
O14	O	2.006892	0.655636	0.614291
Zn15	Zn	1.341722	0.163645	0.150581
Zn16	Zn	1.841722	0.663645	0.650581
Zn17	Zn	1.341724	0.163640	-0.150583
Zn18	Zn	1.841724	0.663640	0.349417
O19	O	1.333706	0.328815	0.114279
O20	O	1.833706	0.828815	0.614279
C21	C	1.134263	0.170642	-0.000003
C22	C	1.634263	0.670642	0.499997
C23	C	1.008250	0.167622	-0.000004
C24	C	1.508250	0.667622	0.499996
C25	C	1.348732	-0.043819	0.000008
C26	C	1.848732	0.456181	0.500008
C27	C	1.345718	-0.169832	0.000007
C28	C	1.845718	0.330168	0.500007
C29	C	0.905913	0.165168	-0.000009
C30	C	1.405913	0.665168	0.499991
C31	C	0.777527	0.162100	-0.000010
C32	C	1.277527	0.662100	0.499990
C33	C	1.340175	-0.400545	-0.000016
C34	C	1.840175	0.099455	0.499984
C35	C	1.343255	-0.272160	-0.000003
C36	C	1.843255	0.227840	0.499997
C37	C	1.549183	0.156643	-0.000002
C38	C	2.049183	0.656643	0.499998
C39	C	1.675196	0.159663	-0.000010
C40	C	2.175196	0.659663	0.499990
C41	C	1.334714	0.371104	-0.000013
C42	C	1.834714	0.871104	0.499987
C43	C	1.337728	0.497118	-0.000021
C44	C	1.837728	0.997118	0.499979
N45	N	1.341728	0.163649	0.356117
N46	N	1.841728	0.663649	0.856117
N47	N	1.341727	0.163627	-0.356119
N48	N	1.841727	0.663627	0.143881
C49	C	1.418435	0.086991	0.428048
C50	C	1.918435	0.586991	0.928048
C51	C	1.418432	0.086977	0.571931
C52	C	1.918432	0.586977	1.071931
C53	C	1.265012	0.240289	0.571940
C54	C	1.765012	0.740289	1.071940
C55	C	1.265010	0.240296	0.428059
C56	C	1.765010	0.740296	0.928059
C57	C	1.507014	-0.001519	0.428045
C58	C	2.007014	0.498481	0.928045
C59	C	1.507011	-0.001533	0.571928
C60	C	2.007011	0.498467	1.071928
H61	H	1.202540	0.302707	0.369494
H62	H	1.702540	0.802707	0.869494
H63	H	1.202550	0.302692	0.630530
H64	H	1.702550	0.802692	1.130530
H65	H	1.487858	-0.088712	0.388996
H66	H	1.987858	0.411288	0.888996
C67	C	1.624746	0.024530	0.624689
C68	C	2.124746	0.524530	1.124689
N69	N	1.713411	0.044194	0.664429
N70	N	2.213411	0.544194	1.164429
H71	H	1.589350	0.025918	0.383418
H72	H	2.089350	0.525918	0.883418
H73	H	1.479646	-0.083906	0.616548
H74	H	1.979646	0.416094	1.116548
