data_functionalizedCrystal
_audit_creation_method	'MofGen! by Chris Wilmer'
_symmetry_space_group_name_H-M	'P1'
_symmetry_Int_Tables_number	1
_symmetry_cell_setting	triclinic
loop_
_symmetry_equiv_pos_as_xyz
  x,y,z
_cell_length_a	6.817900
_cell_length_b	8.686055
_cell_length_c	9.464801
_cell_angle_alpha	89.965592
_cell_angle_beta	90.028046
_cell_angle_gamma	92.597928
loop_
_atom_site_label
_atom_site_type_symbol
_atom_site_fract_x
_atom_site_fract_y
_atom_site_fract_z
V1	V	3.840269	0.451937	-0.186169
O2	O	3.890114	0.300382	-0.335151
O3	O	3.736527	0.586333	-0.038203
O4	O	3.736325	0.586317	-0.334290
O5	O	3.890318	0.300397	-0.037014
V6	V	4.338265	0.417110	-0.186149
O7	O	4.069779	0.528333	-0.186213
O8	O	4.558952	0.340714	-0.186106
O9	O	4.218801	0.282715	-0.334116
O10	O	4.405817	0.568666	-0.037168
O11	O	4.405613	0.568650	-0.335305
O12	O	4.219003	0.282730	-0.038029
C13	C	3.569876	0.614685	0.002582
C14	C	3.565897	0.727550	0.124827
C15	C	3.569618	0.614654	-0.375106
C16	C	3.565473	0.727493	-0.497491
C17	C	4.049052	0.254386	0.002791
C18	C	4.032049	0.141543	0.125173
V19	V	3.823825	0.920294	0.313892
O20	O	3.862867	1.076888	0.462935
O21	O	3.729911	0.774679	0.165804
O22	O	3.729433	0.774630	0.461891
O23	O	3.863348	1.076938	0.164799
V24	V	4.317460	1.011475	0.314435
O25	O	4.057711	0.870232	0.314192
O26	O	4.532003	1.112605	0.314643
O27	O	4.189043	1.131770	0.462271
O28	O	4.395354	0.868198	0.165525
O29	O	4.394873	0.868148	0.463661
O30	O	4.189521	1.131820	0.166185
C31	C	4.048821	0.254371	-0.374897
C32	C	4.031646	0.141534	-0.497164
