data_functionalizedCrystal
_audit_creation_method	'MofGen! by Chris Wilmer'
_symmetry_space_group_name_H-M	'P1'
_symmetry_Int_Tables_number	1
_symmetry_cell_setting	triclinic
loop_
_symmetry_equiv_pos_as_xyz
  x,y,z
_cell_length_a	6.817900
_cell_length_b	12.000032
_cell_length_c	10.773894
_cell_angle_alpha	94.306023
_cell_angle_beta	96.645922
_cell_angle_gamma	119.142083
loop_
_atom_site_label
_atom_site_type_symbol
_atom_site_fract_x
_atom_site_fract_y
_atom_site_fract_z
V1	V	-4.033352	-0.172143	-0.390991
O2	O	-3.931513	0.013105	-0.381384
O3	O	-4.070638	-0.345980	-0.390399
O4	O	-3.948674	-0.167375	-0.560567
O5	O	-4.054322	-0.166736	-0.210038
V6	V	-4.510577	-0.150236	-0.369095
O7	O	-4.308424	-0.220199	-0.439023
O8	O	-4.685702	-0.102181	-0.321064
O9	O	-4.250084	0.023600	-0.369688
O10	O	-4.729813	-0.335485	-0.378702
O11	O	-4.607004	-0.155643	-0.550048
O12	O	-4.372048	-0.155005	-0.199520
C13	C	-3.937658	-0.388424	-0.384768
C14	C	-4.049189	-0.530523	-0.385413
C15	C	-3.924030	-0.587762	-0.379712
C16	C	-4.039299	-0.734629	-0.380380
C17	C	-3.782079	-0.160594	-0.601832
C18	C	-3.794696	-0.157845	-0.740475
C19	C	-3.975119	-0.162609	-0.808393
C20	C	-3.988164	-0.159768	-0.951688
C21	C	-4.046411	0.066037	-0.375315
C22	C	-3.914117	0.208136	-0.374678
C23	C	-4.201989	-0.161790	-0.158248
C24	C	-4.168607	-0.164532	-0.019604
H25	H	-4.241676	-0.590247	-0.390775
C26	C	-3.667342	-0.507949	-0.372354
C27	C	-3.572364	-0.414974	-0.263649
C28	C	-3.335911	-0.341418	-0.256838
H29	H	-3.603462	-0.562741	-0.368793
H30	H	-3.635252	-0.466308	-0.445031
H31	H	-3.604435	-0.456612	-0.190990
H32	H	-3.636178	-0.360153	-0.267185
H33	H	-3.303822	-0.299777	-0.329515
H34	H	-3.272054	-0.396221	-0.253281
H35	H	-3.271442	-0.278319	-0.183089
H36	H	-4.119921	-0.168781	-0.760455
H37	H	-4.231795	-0.794349	-0.385742
H38	H	-3.843334	-0.153578	-0.999618
H39	H	-3.649880	-0.151655	-0.788410
H40	H	-4.313435	-0.170719	-0.971675
H41	H	-3.721617	-0.732144	-0.369299
