data_functionalizedCrystal
_audit_creation_method	'MofGen! by Chris Wilmer'
_symmetry_space_group_name_H-M	'P1'
_symmetry_Int_Tables_number	1
_symmetry_cell_setting	triclinic
loop_
_symmetry_equiv_pos_as_xyz
  x,y,z
_cell_length_a	6.817900
_cell_length_b	10.773894
_cell_length_c	11.102294
_cell_angle_alpha	95.422333
_cell_angle_beta	108.605785
_cell_angle_gamma	96.645922
loop_
_atom_site_label
_atom_site_type_symbol
_atom_site_fract_x
_atom_site_fract_y
_atom_site_fract_z
V1	V	-3.974361	-0.388943	-0.171169
O2	O	-3.936004	-0.381540	0.013031
O3	O	-3.952076	-0.386281	-0.344021
O4	O	-3.891317	-0.558575	-0.166427
O5	O	-3.997184	-0.208054	-0.165792
V6	V	-4.459094	-0.367307	-0.149385
O7	O	-4.232965	-0.436402	-0.218952
O8	O	-4.650687	-0.319848	-0.101602
O9	O	-4.258172	-0.369969	0.023467
O10	O	-4.614847	-0.374710	-0.333585
O11	O	-4.553667	-0.548196	-0.154762
O12	O	-4.318930	-0.197675	-0.154127
C13	C	-3.804551	-0.380145	-0.386224
C14	C	-3.867386	-0.379100	-0.527519
C15	C	-4.137752	-0.383867	-0.733071
C16	C	-4.078724	-0.384835	-0.600308
C17	C	-3.715065	-0.372383	-0.587499
C18	C	-3.774093	-0.371406	-0.720259
C19	C	-3.727046	-0.599921	-0.159684
C20	C	-3.740605	-0.738596	-0.156951
C21	C	-3.919396	-0.806458	-0.161688
C22	C	-3.933414	-0.949786	-0.158863
C23	C	-4.069041	-0.376101	0.065663
C24	C	-3.985442	-0.377155	0.206957
C25	C	-4.146546	-0.156322	-0.160874
C26	C	-4.112224	-0.017646	-0.163601
H27	H	-3.650051	-0.365938	-0.769088
O28	O	-4.089682	-0.749170	-0.169246
C29	C	-4.144195	-0.691064	-0.281459
H30	H	-4.080758	-0.738643	-0.354279
H31	H	-4.321993	-0.700752	-0.324083
H32	H	-4.073920	-0.586813	-0.256756
H33	H	-4.254932	-0.969643	-0.169752
O34	O	-3.570426	-0.795975	-0.149448
C35	C	-3.515844	-0.854022	-0.037198
H36	H	-3.658538	-0.873286	-0.005459
H37	H	-3.459582	-0.946835	-0.057567
H38	H	-3.385280	-0.788885	0.042198
O39	O	-4.343035	-0.389217	-0.803683
C40	C	-4.420337	-0.284716	-0.759177
H41	H	-4.284513	-0.205482	-0.707800
H42	H	-4.535294	-0.250461	-0.844039
H43	H	-4.503713	-0.313699	-0.689708
O44	O	-4.226564	-0.391135	-0.541962
C45	C	-4.184396	-0.283546	-0.449599
H46	H	-4.085804	-0.203855	-0.474836
H47	H	-4.338206	-0.252634	-0.448413
H48	H	-4.095082	-0.307148	-0.350862
O49	O	-3.763221	-1.007160	-0.151360
C50	C	-3.708640	-1.065207	-0.039110
H51	H	-3.851333	-1.084471	-0.007370
H52	H	-3.652377	-1.158020	-0.059479
H53	H	-3.578075	-1.000070	0.040287
H54	H	-3.542985	-0.367705	-0.528223
