data_functionalizedCrystal
_audit_creation_method	'MofGen! by Chris Wilmer'
_symmetry_space_group_name_H-M	'P1'
_symmetry_Int_Tables_number	1
_symmetry_cell_setting	triclinic
loop_
_symmetry_equiv_pos_as_xyz
  x,y,z
_cell_length_a	14.044220
_cell_length_b	17.699104
_cell_length_c	16.176319
_cell_angle_alpha	90.008304
_cell_angle_beta	89.992517
_cell_angle_gamma	91.759803
loop_
_atom_site_label
_atom_site_type_symbol
_atom_site_fract_x
_atom_site_fract_y
_atom_site_fract_z
O1	O	0.119945	-1.012343	-0.068766
O2	O	0.135517	-0.793041	-0.068764
O3	O	-0.010246	-0.899400	-0.068757
O4	O	0.265708	-0.905984	-0.068773
O5	O	-0.010255	-0.899383	0.068737
O6	O	0.135508	-0.793024	0.068729
O7	O	0.119936	-1.012326	0.068727
Cu8	Cu	0.127721	-0.902674	0.081283
Cu9	Cu	0.127732	-0.902693	-0.081319
O10	O	0.265699	-0.905967	0.068720
C11	C	-0.045559	-0.896510	-0.000010
C12	C	-0.150766	-0.887914	-0.000009
C13	C	0.134951	-0.764797	-0.000017
C14	C	0.133267	-0.680664	-0.000016
C15	C	0.120502	-1.040570	-0.000021
C16	C	0.122186	-1.124703	-0.000028
C17	C	-0.343392	-0.872199	-0.000020
C18	C	-0.401160	-0.933165	-0.000023
C19	C	-0.508344	-0.924421	-0.000030
C20	C	-0.236198	-0.880942	-0.000014
C21	C	0.301012	-0.908857	-0.000029
C22	C	0.406219	-0.917453	-0.000035
C23	C	0.209330	-0.161040	-0.000029
C24	C	0.210907	-0.240092	-0.000032
C25	C	0.125338	-0.282807	-0.000027
C26	C	0.038187	-0.246465	-0.000027
C27	C	0.036611	-0.167414	-0.000031
C28	C	0.044540	-0.565270	-0.000014
C29	C	0.046122	-0.644326	-0.000008
C30	C	0.218835	-0.637947	-0.000016
C31	C	0.217259	-0.558896	-0.000019
C32	C	0.130109	-0.522562	-0.000024
C33	C	0.128400	-0.436844	-0.000023
C34	C	0.127046	-0.368523	-0.000022
N35	N	0.127713	-0.902665	0.195648
N36	N	0.127733	-0.902707	-0.195684
C37	C	0.063195	-0.949779	0.238915
C38	C	0.063194	-0.949782	0.325462
C39	C	0.127716	-0.902676	0.368740
C40	C	0.192237	-0.855558	0.325467
C41	C	0.192233	-0.855551	0.238921
C42	C	0.192255	-0.855585	0.674495
C43	C	0.192256	-0.855597	0.761047
C44	C	0.063216	-0.949817	0.761036
C45	C	0.063212	-0.949809	0.674491
C46	C	0.127729	-0.902688	0.631225
C47	C	0.127728	-0.902684	0.537380
C48	C	0.127722	-0.902684	0.462583
H49	H	-0.374432	-0.813442	-0.000022
C50	C	0.303459	-0.114056	-0.000036
C51	C	0.374922	-0.122308	-0.071439
C52	C	0.469053	-0.075327	-0.071449
C53	C	0.491721	-0.020094	-0.000056
C54	C	0.420256	-0.011840	0.071352
C55	C	0.326125	-0.058821	0.071362
H56	H	0.358143	-0.163197	-0.124293
H57	H	0.521956	-0.081438	-0.124310
H58	H	0.561403	0.014684	-0.000063
H59	H	0.437035	0.029049	0.124206
H60	H	0.273222	-0.052710	0.124224
H61	H	0.010658	-0.988141	0.203684
C62	C	-0.051323	-0.525308	-0.000020
C63	C	-0.145444	-0.572295	-0.000014
C64	C	-0.241312	-0.532330	-0.000022
C65	C	-0.243059	-0.445377	-0.000037
C66	C	-0.148935	-0.398385	-0.000043
C67	C	-0.053067	-0.438350	-0.000035
H68	H	-0.144154	-0.636667	-0.000003
H69	H	-0.310989	-0.567117	-0.000017
H70	H	-0.314026	-0.415793	-0.000043
H71	H	-0.150225	-0.334013	-0.000054
H72	H	0.016610	-0.403563	-0.000039
C73	C	-0.359234	-1.012550	-0.000015
C74	C	-0.426057	-1.083180	-0.000015
C75	C	-0.384126	-1.162561	-0.000005
C76	C	-0.275372	-1.171314	0.000005
C77	C	-0.208542	-1.100682	0.000005
C78	C	-0.250473	-1.021300	-0.000005
H79	H	-0.506570	-1.076703	-0.000023
H80	H	-0.433599	-1.214848	-0.000005
H81	H	-0.244332	-1.230077	0.000013
H82	H	-0.128030	-1.107159	0.000012
H83	H	-0.201001	-0.969014	-0.000005
H84	H	0.281868	-0.269673	-0.000041
H85	H	0.010680	-0.988183	0.796272
H86	H	0.244799	-0.817235	0.796282
H87	H	0.244768	-0.817185	0.203694
H88	H	0.286938	-0.524121	-0.000019
H89	H	-0.023563	-0.679103	-0.000006
H90	H	0.289797	-0.667540	-0.000015
H91	H	-0.031484	-0.281250	-0.000028
H92	H	-0.034350	-0.137831	-0.000031
H93	H	0.010658	-0.988145	0.360690
H94	H	0.010675	-0.988170	0.639256
C95	C	0.263227	-0.803761	0.626905
C96	C	0.334231	-0.751971	0.674506
C97	C	0.405207	-0.700146	0.626909
C98	C	0.405178	-0.700112	0.531713
C99	C	0.334172	-0.751904	0.484107
C100	C	0.263196	-0.803729	0.531703
H101	H	0.334254	-0.751994	0.744981
H102	H	0.457770	-0.661806	0.662151
H103	H	0.457719	-0.661749	0.496479
H104	H	0.334149	-0.751881	0.413632
H105	H	0.210632	-0.842069	0.496462
H106	H	0.244769	-0.817199	0.360709
