data_functionalizedCrystal
_audit_creation_method	'MofGen! by Chris Wilmer'
_symmetry_space_group_name_H-M	'P1'
_symmetry_Int_Tables_number	1
_symmetry_cell_setting	triclinic
loop_
_symmetry_equiv_pos_as_xyz
  x,y,z
_cell_length_a	19.188929
_cell_length_b	10.723024
_cell_length_c	9.198806
_cell_angle_alpha	89.996352
_cell_angle_beta	90.024964
_cell_angle_gamma	96.193674
loop_
_atom_site_label
_atom_site_type_symbol
_atom_site_fract_x
_atom_site_fract_y
_atom_site_fract_z
O1	O	-0.097922	1.655155	-0.120961
O2	O	-0.107295	1.291808	-0.120973
O3	O	-0.001021	1.483967	-0.120877
O4	O	-0.204196	1.462996	-0.121057
O5	O	-0.001021	1.483952	0.120908
O6	O	-0.107295	1.291793	0.120812
O7	O	-0.097922	1.655140	0.120824
Cu8	Cu	-0.102608	1.473465	0.142895
Cu9	Cu	-0.102609	1.473483	-0.143044
O10	O	-0.204196	1.462981	0.120728
C11	C	-0.106613	1.245315	-0.000081
C12	C	-0.104572	1.106803	-0.000081
C13	C	-0.041179	0.916362	-0.000027
C14	C	-0.043287	1.059522	-0.000027
C15	C	-0.230211	1.463668	-0.000188
C16	C	-0.307729	1.465706	-0.000257
C17	C	-0.351920	1.352954	-0.000231
C18	C	-0.424757	1.354869	-0.000198
C19	C	-0.453398	1.469543	-0.000162
C20	C	-0.409197	1.582311	-0.000196
C21	C	-0.336363	1.580392	-0.000243
N22	N	-0.561936	1.557192	0.082218
N23	N	-0.631127	1.559007	0.082266
C24	C	-0.672845	1.475330	-0.000022
N25	N	-0.642760	1.389752	-0.082341
N26	N	-0.573563	1.387933	-0.082383
C27	C	-0.532374	1.471636	-0.000111
C28	C	-0.796014	1.364647	0.000037
C29	C	-0.868851	1.366567	0.000061
C30	C	-0.853290	1.594011	0.000079
C31	C	-0.780454	1.592088	0.000040
C32	C	-0.751821	1.477402	0.000026
C33	C	0.024995	1.483280	0.000036
C34	C	0.102512	1.481242	0.000095
C35	C	-0.098604	1.701633	-0.000071
C36	C	-0.100645	1.840145	-0.000081
N37	N	-0.102608	1.473462	0.344009
N38	N	-0.102604	1.473496	-0.344158
C39	C	-0.057789	1.554148	0.416247
C40	C	-0.057787	1.554167	0.583659
H41	H	0.007620	1.125011	0.000010
C42	C	-0.884792	1.720155	0.000115
N43	N	-0.908522	1.815170	0.000139
H44	H	0.011292	0.875629	0.000041
H45	H	-0.460744	1.263050	-0.000175
H46	H	-0.140979	1.404419	0.593730
C47	C	-0.731842	1.716127	0.000041
N48	N	-0.695227	1.809558	0.000044
C49	C	-0.320428	1.226796	-0.000262
N50	N	-0.296707	1.131772	-0.000289
C51	C	-0.005941	1.647432	0.332366
N52	N	0.033116	1.717691	0.269190
C53	C	-0.173351	1.018341	-0.000142
N54	N	-0.225155	0.951701	-0.000185
C55	C	-0.005948	1.647492	0.667579
N56	N	0.033100	1.717785	0.730792
H57	H	-0.772699	1.271263	0.000034
H58	H	-0.904831	1.274746	0.000072
C59	C	-0.154441	1.380151	0.427889
N60	N	-0.193484	1.309867	0.491066
C61	C	-0.440705	1.708453	-0.000147
N62	N	-0.464436	1.803467	-0.000113
H63	H	-0.153116	0.880878	-0.000118
H64	H	-0.300382	1.672212	-0.000265
