data_functionalizedCrystal
_audit_creation_method	'MofGen! by Chris Wilmer'
_symmetry_space_group_name_H-M	'P1'
_symmetry_Int_Tables_number	1
_symmetry_cell_setting	triclinic
loop_
_symmetry_equiv_pos_as_xyz
  x,y,z
_cell_length_a	11.792241
_cell_length_b	10.723024
_cell_length_c	9.798715
_cell_angle_alpha	90.001978
_cell_angle_beta	89.999488
_cell_angle_gamma	84.330643
loop_
_atom_site_label
_atom_site_type_symbol
_atom_site_fract_x
_atom_site_fract_y
_atom_site_fract_z
O1	O	-1.507282	-0.171036	-0.113355
O2	O	-1.007282	0.328964	0.386645
O3	O	-1.176980	-0.188663	-0.113386
O4	O	-0.676980	0.311337	0.386614
O5	O	-1.349750	0.001747	-0.113365
O6	O	-0.849750	0.501747	0.386635
O7	O	-1.334512	-0.361446	-0.113376
O8	O	-0.834512	0.138554	0.386624
O9	O	-1.349737	0.001747	0.113618
O10	O	-0.849737	0.501747	0.613618
O11	O	-1.176967	-0.188663	0.113596
O12	O	-0.676967	0.311337	0.613596
O13	O	-1.507269	-0.171035	0.113627
O14	O	-1.007269	0.328965	0.613627
Zn15	Zn	-1.342116	-0.179849	0.149650
Zn16	Zn	-0.842116	0.320151	0.649650
Zn17	Zn	-1.342133	-0.179850	-0.149409
Zn18	Zn	-0.842133	0.320150	0.350591
O19	O	-1.334499	-0.361445	0.113606
O20	O	-0.834499	0.138555	0.613606
C21	C	-1.134680	-0.187556	0.000101
C22	C	-0.634680	0.312444	0.500101
C23	C	-1.008659	-0.184242	0.000089
C24	C	-0.508659	0.315758	0.500089
C25	C	-1.348634	0.048244	0.000125
C26	C	-0.848634	0.548244	0.500125
C27	C	-1.345317	0.186789	0.000120
C28	C	-0.845317	0.686789	0.500120
C29	C	-1.549569	-0.172143	0.000137
C30	C	-1.049569	0.327857	0.500137
C31	C	-1.675590	-0.175457	0.000140
C32	C	-1.175590	0.324543	0.500140
C33	C	-0.777933	-0.178147	0.000128
C34	C	-0.277933	0.321853	0.500128
C35	C	-0.906326	-0.181533	0.000107
C36	C	-0.406326	0.318467	0.500107
C37	C	-1.335614	-0.407942	0.000114
C38	C	-0.835614	0.092058	0.500114
C39	C	-1.338932	-0.546488	0.000110
C40	C	-0.838932	-0.046488	0.500110
N41	N	-1.342112	-0.179848	0.353750
N42	N	-0.842112	0.320152	0.853750
C43	C	-1.441990	0.262028	0.000127
C44	C	-0.941990	0.762028	0.500127
C45	C	-1.438563	0.405222	0.000122
C46	C	-0.938563	0.905222	0.500122
N47	N	-1.342145	-0.179841	-0.353508
N48	N	-0.842145	0.320159	0.146492
C49	C	-1.414654	-0.099549	0.421536
C50	C	-0.914654	0.400451	0.921536
C51	C	-1.414672	-0.099544	0.578698
C52	C	-0.914672	0.400456	1.078698
H53	H	-1.527292	0.220431	0.000143
H54	H	-1.027292	0.720431	0.500143
H55	H	-1.280040	-0.248597	0.588207
H56	H	-0.780040	0.251403	1.088207
F57	F	-1.230750	0.369019	0.000111
F58	F	-0.730750	0.869019	0.500111
H59	H	-1.260014	0.228386	0.000103
H60	H	-0.760014	0.728386	0.500103
H61	H	-1.521323	0.469873	0.000134
H62	H	-1.021323	0.969873	0.500134
H63	H	-1.476743	-0.030799	0.363221
H64	H	-0.976743	0.469201	0.863221
H65	H	-1.476782	-0.030801	0.636991
H66	H	-0.976782	0.469199	1.136991
H67	H	-1.280016	-0.248588	0.412066
H68	H	-0.780016	0.251412	0.912066
