data_functionalizedCrystal
_audit_creation_method	'MofGen! by Chris Wilmer'
_symmetry_space_group_name_H-M	'P1'
_symmetry_Int_Tables_number	1
_symmetry_cell_setting	triclinic
loop_
_symmetry_equiv_pos_as_xyz
  x,y,z
_cell_length_a	15.698487
_cell_length_b	12.970454
_cell_length_c	12.970454
_cell_angle_alpha	59.999644
_cell_angle_beta	89.999919
_cell_angle_gamma	60.000777
loop_
_atom_site_label
_atom_site_type_symbol
_atom_site_fract_x
_atom_site_fract_y
_atom_site_fract_z
Zr1	Zr	0.820610	1.128545	-0.135321
O2	O	0.684595	1.343633	-0.299944
O3	O	0.862306	0.913456	-0.084854
O4	O	0.862305	1.128547	-0.299946
O5	O	0.684596	1.128540	0.084815
O6	O	1.002486	1.128552	-0.299949
O7	O	0.684596	1.128541	-0.084852
O8	O	1.002488	0.743791	0.084811
O9	O	0.684595	1.513301	-0.299945
O10	O	0.984704	1.001929	-0.063334
O11	O	0.880089	1.001925	0.063289
O12	O	0.880088	1.255168	-0.189954
O13	O	0.775473	1.255165	-0.063331
Zr14	Zr	1.044184	1.128551	0.135275
Zr15	Zr	1.044183	1.128552	-0.135325
Zr16	Zr	0.820611	1.128544	0.135279
Zr17	Zr	0.820610	1.399145	-0.135322
Zr18	Zr	1.044184	0.857951	0.135276
O19	O	1.002488	1.343641	0.084808
O20	O	1.002486	1.343642	-0.299950
O21	O	0.684596	1.343631	0.084814
O22	O	1.180199	0.913463	0.299898
O23	O	1.180198	0.913465	-0.084860
O24	O	0.862307	0.913454	0.299904
O25	O	1.180198	1.128556	-0.084861
O26	O	1.002489	1.128549	0.299900
O27	O	0.862307	1.128545	0.299903
O28	O	1.180198	1.128555	0.084806
O29	O	0.862305	1.513306	-0.299948
O30	O	1.002488	0.743790	0.299902
O31	O	1.180199	0.743796	0.299899
O32	O	1.180198	0.743797	0.084808
O33	O	0.684596	1.513299	-0.084854
O34	O	0.862306	1.513305	-0.084857
O35	O	0.984705	1.001928	0.189908
O36	O	1.089320	1.001931	0.063285
O37	O	0.984704	1.255171	-0.063335
O38	O	0.880089	1.255167	0.063288
C39	C	0.932397	0.790069	-0.000021
C40	C	0.932397	0.675192	-0.000021
C41	C	0.652742	1.128540	-0.000018
C42	C	0.557829	1.128537	-0.000016
C43	C	0.384044	1.128563	-0.000028
C44	C	0.480748	1.128554	-0.000024
C45	C	1.212052	1.128556	-0.000028
C46	C	1.306965	1.128559	-0.000030
C47	C	0.932396	1.128550	-0.338502
C48	C	0.932395	1.128550	-0.453379
C49	C	0.932397	1.467027	-0.000025
C50	C	0.932397	1.581904	-0.000025
C51	C	0.932398	1.128546	0.338456
C52	C	0.932399	1.128546	0.453333
C53	C	1.212052	0.790077	-0.000027
C54	C	1.306965	0.675203	-0.000028
C55	C	0.932398	0.790067	0.338458
C56	C	0.932398	0.675190	0.453335
C57	C	1.212053	0.790075	0.338453
C58	C	1.306966	0.675201	0.453328
C59	C	0.652740	1.467021	-0.338499
C60	C	0.557827	1.581895	-0.453374
C61	C	0.652742	1.467019	-0.000020
C62	C	0.557829	1.581893	-0.000018
C63	C	0.932396	1.467029	-0.338504
C64	C	0.932395	1.581906	-0.453381
C65	C	1.296928	0.621256	-0.066133
C66	C	1.386100	0.513334	-0.066160
C67	C	1.485307	0.459355	-0.000072
C68	C	1.495342	0.513313	0.066035
C69	C	1.406171	0.621240	0.066053
C70	C	1.406156	0.621256	0.441179
C71	C	1.495345	0.513335	0.549107
C72	C	1.485343	0.459352	0.669182
C73	C	1.386143	0.513307	0.681328
C74	C	1.296956	0.621234	0.573402
C75	C	0.458638	1.635853	-0.441225
C76	C	0.369449	1.743808	-0.549153
C77	C	0.379451	1.797797	-0.669228
C78	C	0.478651	1.743835	-0.681375
C79	C	0.567838	1.635889	-0.573448
C80	C	0.567866	1.635852	0.066076
C81	C	0.478694	1.743803	0.066073
C82	C	0.379487	1.797786	-0.000019
C83	C	0.369452	1.743823	-0.066121
C84	C	0.458623	1.635881	-0.066124
H85	H	1.377909	0.469415	-0.119992
H86	H	1.576110	0.469415	0.539194
H87	H	1.216156	0.665205	-0.119965
C88	C	1.187848	0.680549	0.586779
C89	C	1.176859	0.621148	0.718864
C90	C	1.067753	0.680455	0.732252
C91	C	0.969637	0.799163	0.613554
C92	C	0.980623	0.858571	0.481459
C93	C	1.089729	0.799264	0.468072
H94	H	1.249493	0.533267	0.806740
H95	H	1.059621	0.636477	0.830037
H96	H	0.888870	0.843065	0.623464
H97	H	0.907989	0.946451	0.393584
H98	H	1.097861	0.843242	0.370286
H99	H	0.486885	1.787721	0.119906
H100	H	0.288685	1.787726	-0.539238
H101	H	1.576128	0.469347	0.119841
H102	H	1.557907	0.371473	-0.000096
C103	C	0.676946	1.576534	-0.586825
C104	C	0.687935	1.635926	-0.718910
C105	C	0.797041	1.576580	-0.732298
C106	C	0.895157	1.457842	-0.613600
C107	C	0.884171	1.398444	-0.481505
C108	C	0.775065	1.457789	-0.468118
H109	H	0.615301	1.723829	-0.806786
H110	H	0.805173	1.620552	-0.830084
H111	H	0.975924	1.413911	-0.623510
H112	H	0.956805	1.310541	-0.393630
H113	H	0.766933	1.413818	-0.370332
H114	H	1.414358	0.665150	0.119892
H115	H	1.414320	0.665193	0.343417
H116	H	1.557973	0.371470	0.757052
H117	H	1.378014	0.469338	0.779108
H118	H	0.306821	1.885693	-0.757098
H119	H	0.450474	1.591901	-0.343464
H120	H	0.486783	1.787806	-0.779153
H121	H	0.648637	1.591907	0.119904
H122	H	0.306886	1.885679	-0.000006
H123	H	0.288665	1.787793	-0.119931
H124	H	0.450436	1.591951	-0.119943
