data_functionalizedCrystal
_audit_creation_method	'MofGen! by Chris Wilmer'
_symmetry_space_group_name_H-M	'P1'
_symmetry_Int_Tables_number	1
_symmetry_cell_setting	triclinic
loop_
_symmetry_equiv_pos_as_xyz
  x,y,z
_cell_length_a	6.817900
_cell_length_b	11.168138
_cell_length_c	16.015572
_cell_angle_alpha	76.765890
_cell_angle_beta	104.485554
_cell_angle_gamma	108.508793
loop_
_atom_site_label
_atom_site_type_symbol
_atom_site_fract_x
_atom_site_fract_y
_atom_site_fract_z
V1	V	-3.999073	-0.050929	-0.269395
O2	O	-3.960768	0.129811	-0.264259
O3	O	-3.976117	-0.223478	-0.267560
O4	O	-3.927036	0.005739	-0.386884
O5	O	-4.010188	-0.100993	-0.144109
V6	V	-4.482466	-0.035914	-0.254409
O7	O	-4.260615	-0.083867	-0.302268
O8	O	-4.671122	-0.002977	-0.221536
O9	O	-4.282216	0.136635	-0.256244
O10	O	-4.638168	-0.216654	-0.259545
O11	O	-4.588747	0.014149	-0.379695
O12	O	-4.331296	-0.092583	-0.136920
C13	C	-3.828072	-0.267288	-0.263312
C14	C	-3.890432	-0.407989	-0.262594
C15	C	-3.745081	-0.466490	-0.258177
C16	C	-3.809529	-0.611912	-0.257435
C17	C	-3.765464	0.025102	-0.415521
C18	C	-3.788018	0.070293	-0.511569
C19	C	-4.135801	-0.330821	-0.889219
C20	C	-4.156992	-0.288316	-0.979466
C21	C	-4.047577	-0.068411	-0.954750
C22	C	-4.026365	-0.110897	-0.864498
C23	C	-4.070484	-0.242103	-0.831740
C24	C	-3.961048	-0.022180	-0.807020
C25	C	-3.939850	-0.064663	-0.716776
C26	C	-3.983968	-0.195864	-0.684011
C27	C	-4.049285	-0.284587	-0.741497
C28	C	-3.916946	0.109026	-0.839780
C29	C	-3.851629	0.197743	-0.782302
C30	C	-3.830415	0.155261	-0.692056
C31	C	-3.874533	0.024060	-0.659291
C32	C	-3.765098	0.243983	-0.634571
C33	C	-3.743900	0.201500	-0.544327
C34	C	-3.853335	-0.018424	-0.569047
C35	C	-4.093604	0.180437	-0.260490
C36	C	-4.010481	0.321139	-0.261213
C37	C	-4.156212	-0.111952	-0.108278
C38	C	-4.112896	-0.157137	-0.012230
H39	H	-4.134828	-0.628543	-0.265001
H40	H	-3.889233	-0.125265	-0.542374
C41	C	-3.512499	-0.388717	-0.253796
N42	N	-3.337313	-0.330141	-0.250494
H43	H	-3.966711	-0.230453	-0.610529
C44	C	-4.123011	-0.485763	-0.266967
N45	N	-4.298195	-0.544341	-0.270263
C46	C	-4.097802	-0.428921	-0.705458
N47	N	-4.134346	-0.537629	-0.678313
C48	C	-3.641549	-0.679896	-0.252321
N49	N	-3.515020	-0.731106	-0.248467
H50	H	-4.171699	-0.437661	-0.862545
H51	H	-4.210174	-0.360571	-1.026264
C52	C	-3.803087	0.342068	-0.818347
N53	N	-3.766512	0.450776	-0.845494
H54	H	-4.011668	0.038418	-0.981435
H55	H	-3.729203	0.350812	-0.661257
H56	H	-3.934178	0.143613	-0.913262
C57	C	-3.672042	0.299094	-0.481097
N58	N	-3.617922	0.372604	-0.433472
