data_functionalizedCrystal
_audit_creation_method	'MofGen! by Chris Wilmer'
_symmetry_space_group_name_H-M	'P1'
_symmetry_Int_Tables_number	1
_symmetry_cell_setting	triclinic
loop_
_symmetry_equiv_pos_as_xyz
  x,y,z
_cell_length_a	10.685594
_cell_length_b	16.625548
_cell_length_c	10.686551
_cell_angle_alpha	94.398840
_cell_angle_beta	90.301037
_cell_angle_gamma	85.614884
loop_
_atom_site_label
_atom_site_type_symbol
_atom_site_fract_x
_atom_site_fract_y
_atom_site_fract_z
Zn1	Zn	-0.444906	-1.247625	-0.747692
Zn2	Zn	-0.670816	-1.226983	-0.554011
Zn3	Zn	-0.461069	-1.101704	-0.537933
Zn4	Zn	-0.654625	-1.103294	-0.763708
O5	O	-0.557854	-1.169902	-0.650836
O6	O	-0.474885	-1.357720	-0.722026
O7	O	-0.656533	-1.201061	-0.376334
O8	O	-0.283376	-1.129035	-0.552326
O9	O	-0.640861	-1.342555	-0.579729
O10	O	-0.271502	-1.236242	-0.706435
O11	O	-0.502432	-1.109019	-0.364522
O12	O	-0.486732	-0.989082	-0.567857
O13	O	-0.613265	-1.131744	-0.937128
O14	O	-0.628937	-0.990250	-0.733733
O15	O	-0.459185	-1.237783	-0.925361
O16	O	-0.844216	-1.202602	-0.595260
O17	O	-0.832321	-1.111728	-0.749323
C18	C	-0.883784	-1.155121	-0.675801
C19	C	-1.023215	-1.148874	-0.686524
C20	C	-0.557832	-0.960410	-0.650789
C21	C	-0.557851	-0.870788	-0.650801
C22	C	-0.557846	-0.542615	-0.650839
C23	C	-0.557844	-0.633923	-0.650824
C24	C	-0.557849	-0.706698	-0.650819
C25	C	-0.557846	-0.798012	-0.650806
C26	C	-0.230649	-1.184764	-0.625801
C27	C	-0.091213	-1.191097	-0.615132
C28	C	-0.532616	-1.187243	-0.978033
C29	C	-0.521861	-1.194633	-1.117465
C30	C	-0.557869	-0.380212	-0.650871
C31	C	-0.557856	-0.469832	-0.650854
C32	C	-0.582903	-1.152678	-0.324905
C33	C	-0.593304	-1.145460	-0.185447
H34	H	-1.042761	-1.232030	-0.545814
O35	O	-0.676277	-1.088571	-1.127695
C36	C	-0.798869	-1.102179	-1.169221
H37	H	-0.802449	-1.168196	-1.205826
H38	H	-0.867420	-1.087908	-1.087734
H39	H	-0.825868	-1.061437	-1.247677
H40	H	-1.071674	-1.107945	-0.755856
H41	H	-0.452472	-1.242389	-1.165934
