data_functionalizedCrystal
_audit_creation_method	'MofGen! by Chris Wilmer'
_symmetry_space_group_name_H-M	'P1'
_symmetry_Int_Tables_number	1
_symmetry_cell_setting	triclinic
loop_
_symmetry_equiv_pos_as_xyz
  x,y,z
_cell_length_a	12.759401
_cell_length_b	29.839131
_cell_length_c	12.759393
_cell_angle_alpha	90.037890
_cell_angle_beta	90.018496
_cell_angle_gamma	90.041581
loop_
_atom_site_label
_atom_site_type_symbol
_atom_site_fract_x
_atom_site_fract_y
_atom_site_fract_z
Zn1	Zn	1.606060	-0.178825	0.593935
Zn2	Zn	1.605873	-0.253963	0.418236
Zn3	Zn	1.430362	-0.178848	0.418275
Zn4	Zn	1.430269	-0.253929	0.593877
O5	O	1.518141	-0.216391	0.506081
O6	O	1.753056	-0.188797	0.570636
O7	O	1.582551	-0.244024	0.271220
O8	O	1.453787	-0.115978	0.441617
O9	O	1.752919	-0.244001	0.441551
O10	O	1.582871	-0.115961	0.570674
O11	O	1.453605	-0.188837	0.271248
O12	O	1.283329	-0.188803	0.441561
O13	O	1.453628	-0.243942	0.740906
O14	O	1.283260	-0.243965	0.570575
O15	O	1.582781	-0.188763	0.740949
O16	O	1.582461	-0.316826	0.441495
O17	O	1.453446	-0.316801	0.570538
C18	C	1.245174	-0.216383	0.506066
C19	C	1.128397	-0.216390	0.506085
C20	C	1.073527	-0.245159	0.573152
C21	C	0.963803	-0.245165	0.573163
C22	C	0.963829	-0.187632	0.439032
C23	C	1.073551	-0.187624	0.439027
C24	C	1.073511	-0.278376	0.650588
C25	C	0.963787	-0.278382	0.650600
C26	C	1.517951	-0.333114	0.506029
C27	C	1.517966	-0.383048	0.506041
C28	C	1.585441	-0.692692	0.438986
C29	C	1.585571	-0.880365	0.439027
O30	O	1.642790	-0.904631	0.381974
N31	N	1.518359	-0.903833	0.506160
C32	C	1.451114	-0.880380	0.573292
O33	O	1.393957	-0.904648	0.630402
C34	C	1.450991	-0.692708	0.573256
C35	C	1.518200	-0.669243	0.506111
C36	C	1.652646	-0.669227	0.371848
C37	C	1.652609	-0.622311	0.371834
C38	C	1.585367	-0.598861	0.438959
C39	C	1.518163	-0.622327	0.506098
C40	C	1.383752	-0.669256	0.640393
C41	C	1.383729	-0.622335	0.640380
C42	C	1.450938	-0.598869	0.573235
C43	C	1.450884	-0.551962	0.573209
N44	N	1.518096	-0.528494	0.506076
C45	C	1.585338	-0.551944	0.438951
C46	C	1.451183	-0.978911	0.573305
C47	C	1.451212	-1.025829	0.573313
C48	C	1.585670	-1.025811	0.439049
C49	C	1.585635	-0.978892	0.439036
C50	C	1.518395	-0.955443	0.506172
C51	C	1.585254	-0.453418	0.438927
C52	C	1.585208	-0.406498	0.438916
C53	C	1.450754	-0.406521	0.573184
C54	C	1.450796	-0.453436	0.573191
C55	C	1.518054	-0.476884	0.506059
O56	O	1.393703	-0.527668	0.630240
O57	O	1.642503	-0.527668	0.381867
C58	C	1.585479	-0.739608	0.439000
C59	C	1.518274	-0.763073	0.506138
C60	C	1.451033	-0.739624	0.573263
C61	C	1.518304	-0.809991	0.506146
C62	C	1.585545	-0.833441	0.439021
C63	C	1.652757	-0.809973	0.371888
C64	C	1.652720	-0.763058	0.371875
C65	C	1.383820	-0.763092	0.640396
C66	C	1.383862	-0.810007	0.640404
C67	C	1.451104	-0.833457	0.573279
C68	C	1.792174	-0.216400	0.506096
C69	C	1.908951	-0.216404	0.506102
C70	C	1.518215	-0.216346	0.780114
C71	C	1.518246	-0.216327	0.896891
C72	C	1.518360	-0.099213	0.506156
C73	C	1.518454	-0.049279	0.506188
C74	C	1.518128	-0.216404	0.233113
C75	C	1.518301	-0.216297	0.116337
C76	C	1.585505	-0.187593	0.951777
C77	C	1.585530	-0.187576	1.061501
C78	C	1.451034	-0.245032	1.061444
C79	C	1.451004	-0.245046	0.951722
C80	C	1.663159	-0.154422	0.951811
C81	C	1.663184	-0.154406	1.061535
H82	H	0.933953	-0.313167	0.628659
C83	C	1.181162	-0.342164	0.689840
C84	C	1.119392	-0.322970	0.611054
H85	H	1.209491	-0.369693	0.665427
H86	H	1.139270	-0.347536	0.750062
H87	H	1.236629	-0.322283	0.707447
H88	H	1.063920	-0.342850	0.593452
H89	H	1.161287	-0.317600	0.550813
C90	C	1.174808	-0.226929	0.754106
C91	C	1.113783	-0.265852	0.760481
H92	H	1.199676	-0.219200	0.821947
H93	H	1.133468	-0.203107	0.727193
H94	H	1.232677	-0.232086	0.708867
H95	H	1.055909	-0.260694	0.805714
H96	H	1.155124	-0.289679	0.787408
C97	C	0.951789	-0.289437	0.836592
C98	C	0.917900	-0.261617	0.755022
H99	H	0.923453	-0.279086	0.901053
H100	H	1.026135	-0.288859	0.840136
H101	H	0.928744	-0.319231	0.823913
H102	H	0.940951	-0.231824	0.767697
H103	H	0.843537	-0.262190	0.751480
C104	C	1.718125	-0.411200	0.306203
C105	C	1.659094	-0.380706	0.365110
H106	H	1.763742	-0.395277	0.260647
H107	H	1.672385	-0.429533	0.265984
H108	H	1.758295	-0.429467	0.352033
H109	H	1.618917	-0.362441	0.319280
H110	H	1.704840	-0.362365	0.405333
H111	H	1.328975	-0.603245	0.695053
H112	H	1.640025	-0.472503	0.384264
C113	C	1.785530	-0.627021	0.239141
C114	C	1.726504	-0.596522	0.298041
H115	H	1.831159	-0.611101	0.193591
H116	H	1.739788	-0.645349	0.198915
H117	H	1.825688	-0.645291	0.284976
H118	H	1.686340	-0.578254	0.252206
H119	H	1.772251	-0.578185	0.338270
C120	C	1.436350	-0.305447	1.184780
C121	C	1.377131	-0.276604	1.121714
H122	H	1.390723	-0.324940	1.221980
H123	H	1.476397	-0.288331	1.233170
H124	H	1.482079	-0.322637	1.141954
H125	H	1.331407	-0.259411	1.164541
H126	H	1.337066	-0.293721	1.073318
C127	C	1.785630	-0.767767	0.239171
C128	C	1.726608	-0.737268	0.298074
H129	H	1.831253	-0.751847	0.193614
H130	H	1.739886	-0.786098	0.198952
H131	H	1.825795	-0.786035	0.285003
H132	H	1.686437	-0.719002	0.252242
H133	H	1.772358	-0.718930	0.338296
C134	C	1.718539	-0.983597	0.306324
C135	C	1.659519	-0.953101	0.365236
H136	H	1.764158	-0.967676	0.260767
H137	H	1.672792	-1.001927	0.266104
H138	H	1.758707	-1.001867	0.352150
H139	H	1.619345	-0.934833	0.319410
H140	H	1.705271	-0.934764	0.405458
C141	C	1.197011	-0.127177	0.424706
C142	C	1.133867	-0.155998	0.365315
H143	H	1.234243	-0.107650	0.379196
H144	H	1.245374	-0.144307	0.464630
H145	H	1.154234	-0.110023	0.470557
H146	H	1.176645	-0.173155	0.319469
H147	H	1.085499	-0.138866	0.325373
H148	H	1.396003	-0.387420	0.627834
C149	C	0.840400	-0.181328	0.297738
C150	C	0.903544	-0.156017	0.365311
H151	H	0.803192	-0.161809	0.252219
H152	H	0.792017	-0.198455	0.337683
H153	H	0.883174	-0.200878	0.257472
H154	H	0.860769	-0.136469	0.405582
H155	H	0.951932	-0.138882	0.325362
H156	H	1.396232	-0.268443	0.907038
C157	C	1.712550	-0.881891	0.312355
C158	C	1.726706	-0.835755	0.298137
H159	H	1.758217	-0.897808	0.266842
H160	H	1.641992	-0.889619	0.296885
H161	H	1.727858	-0.889534	0.382978
H162	H	1.711390	-0.828111	0.227515
H163	H	1.797280	-0.828024	0.313600
H164	H	1.707408	-0.688315	0.317186
H165	H	1.640422	-1.044911	0.384393
H166	H	1.396474	-1.044931	0.627979
C167	C	1.812304	-0.137540	0.844104
C168	C	1.767451	-0.171255	0.905842
H169	H	1.876685	-0.147935	0.815720
H170	H	1.824856	-0.111775	0.886035
H171	H	1.765795	-0.130050	0.788677
H172	H	1.813958	-0.178743	0.961274
H173	H	1.754904	-0.197028	0.863909
C174	C	1.318266	-0.983652	0.706007
C175	C	1.377252	-0.953140	0.647096
H176	H	1.272618	-0.967742	0.751553
H177	H	1.364032	-1.001916	0.746238
H178	H	1.278131	-1.001985	0.660179
H179	H	1.417393	-0.934808	0.692923
H180	H	1.331481	-0.934867	0.606861
H181	H	1.329018	-0.688354	0.695065
C182	C	1.317892	-0.448739	0.705911
C183	C	1.376920	-0.479232	0.646997
H184	H	1.272296	-0.464663	0.751486
H185	H	1.277710	-0.430478	0.660094
H186	H	1.363643	-0.430400	0.746121
H187	H	1.331169	-0.497569	0.606781
H188	H	1.417105	-0.497501	0.692819
C189	C	1.598158	-0.080485	1.025813
C190	C	1.623951	-0.109778	1.107521
H191	H	1.573943	-0.052934	1.054206
H192	H	1.544625	-0.093488	0.983904
H193	H	1.658424	-0.075160	0.983923
H194	H	1.563684	-0.115106	1.149406
H195	H	1.677489	-0.096772	1.149447
H196	H	1.329123	-0.829109	0.695080
H197	H	1.329065	-0.744003	0.695059
C198	C	1.799689	-0.209732	1.065152
C199	C	1.773007	-0.166988	1.101753
H200	H	1.867482	-0.217499	1.089990
H201	H	1.799680	-0.209741	0.990711
H202	H	1.750007	-0.230944	1.089949
H203	H	1.822685	-0.145775	1.076949
H204	H	1.773024	-0.166975	1.176209
H205	H	1.641428	-0.119630	0.922064
