data_functionalizedCrystal
_audit_creation_method	'MofGen! by Chris Wilmer'
_symmetry_space_group_name_H-M	'P1'
_symmetry_Int_Tables_number	1
_symmetry_cell_setting	triclinic
loop_
_symmetry_equiv_pos_as_xyz
  x,y,z
_cell_length_a	10.686220
_cell_length_b	12.827892
_cell_length_c	10.685997
_cell_angle_alpha	85.632977
_cell_angle_beta	90.341283
_cell_angle_gamma	94.396976
loop_
_atom_site_label
_atom_site_type_symbol
_atom_site_fract_x
_atom_site_fract_y
_atom_site_fract_z
Zn1	Zn	1.972063	-0.326443	0.562390
Zn2	Zn	1.955915	-0.488855	0.352633
Zn3	Zn	1.746258	-0.328492	0.368707
Zn4	Zn	1.762256	-0.515511	0.578411
O5	O	1.859123	-0.414825	0.465535
O6	O	2.145468	-0.335974	0.521133
O7	O	1.914651	-0.457285	0.179220
O8	O	1.776274	-0.181981	0.394422
O9	O	2.133605	-0.455298	0.367026
O10	O	1.942172	-0.180476	0.536719
O11	O	1.760616	-0.339466	0.191030
O12	O	1.572833	-0.365314	0.409957
O13	O	1.803541	-0.500729	0.751831
O14	O	1.584587	-0.502716	0.564026
O15	O	1.957685	-0.361821	0.740060
O16	O	1.930163	-0.638630	0.382561
O17	O	1.787883	-0.658214	0.548439
C18	C	1.533193	-0.437130	0.490475
C19	C	1.393760	-0.446700	0.501174
C20	C	1.859043	-0.686339	0.465519
C21	C	1.859127	-0.802489	0.465546
C22	C	1.929629	-0.844547	0.383542
C23	C	1.929717	-0.964593	0.383567
C24	C	2.186327	-0.392434	0.440499
C25	C	2.325761	-0.382892	0.429830
C26	C	1.884199	-0.434020	0.792736
C27	C	1.894885	-0.442199	0.932169
C28	C	1.859240	-0.142250	0.465576
C29	C	1.859290	-0.026095	0.465594
C30	C	1.834133	-0.395730	1.139609
C31	C	1.823437	-0.387551	1.000176
H32	H	1.374214	-0.320944	0.360564
O33	O	2.001372	-0.781443	0.299639
C34	C	1.923693	-0.718506	0.224104
H35	H	1.824356	-0.757841	0.223802
H36	H	1.922168	-0.638407	0.263303
C37	C	2.097099	-0.656512	0.089418
C38	C	1.975093	-0.704828	0.089039
H39	H	2.128806	-0.648070	0.006105
H40	H	2.149434	-0.698911	0.140310
H41	H	2.095812	-0.589768	0.122090
H42	H	1.976384	-0.771576	0.056382
H43	H	1.922759	-0.662440	0.038138
H44	H	1.964238	-0.495249	0.980621
H45	H	1.345301	-0.508658	0.570437
O46	O	1.787352	-0.983038	0.549530
C47	C	1.824268	-1.015019	0.672525
H48	H	1.872670	-1.091119	0.671584
H49	H	1.891991	-0.951613	0.709809
C50	C	1.648282	-0.939340	0.758944
C51	C	1.707720	-1.032812	0.757789
H52	H	1.576391	-0.950312	0.811541
H53	H	1.623412	-0.917790	0.676080
H54	H	1.704730	-0.886511	0.790010
H55	H	1.651277	-1.085635	0.726709
H56	H	1.732577	-1.054372	0.840650
O57	O	2.001738	-1.007948	0.299962
C58	C	1.985807	-1.118156	0.318611
H59	H	1.952001	-1.141448	0.418543
H60	H	1.913398	-1.149430	0.249263
C61	C	2.153404	-1.136222	0.174934
C62	C	2.111894	-1.164830	0.297675
H63	H	2.231178	-1.165014	0.162014
H64	H	2.164135	-1.061973	0.162365
H65	H	2.093052	-1.162286	0.117158
H66	H	2.172238	-1.138755	0.355448
H67	H	2.101176	-1.239076	0.310253
H68	H	1.798838	-0.855355	0.535775
O69	O	1.740627	-0.324408	0.942257
C70	C	1.653813	-0.385061	0.872685
H71	H	1.696544	-0.460099	0.849783
H72	H	1.564666	-0.405828	0.930226
C73	C	1.569200	-0.229737	0.778025
C74	C	1.621687	-0.321896	0.749887
H75	H	1.549377	-0.190773	0.702280
H76	H	1.627684	-0.188873	0.824900
H77	H	1.494917	-0.247056	0.825978
H78	H	1.695976	-0.304576	0.701948
H79	H	1.563214	-0.362755	0.703001
