data_functionalizedCrystal
_audit_creation_method	'MofGen! by Chris Wilmer'
_symmetry_space_group_name_H-M	'P1'
_symmetry_Int_Tables_number	1
_symmetry_cell_setting	triclinic
loop_
_symmetry_equiv_pos_as_xyz
  x,y,z
_cell_length_a	14.971482
_cell_length_b	14.044220
_cell_length_c	13.448316
_cell_angle_alpha	90.004789
_cell_angle_beta	89.993258
_cell_angle_gamma	91.599257
loop_
_atom_site_label
_atom_site_type_symbol
_atom_site_fract_x
_atom_site_fract_y
_atom_site_fract_z
O1	O	1.196681	-0.123521	-0.082677
O2	O	0.937446	-0.138318	-0.082681
O3	O	1.063172	0.007070	-0.082675
O4	O	1.070955	-0.268908	-0.082684
O5	O	1.063153	0.007078	0.082709
O6	O	0.937427	-0.138310	0.082702
O7	O	1.196662	-0.123513	0.082707
Cu8	Cu	1.067042	-0.130911	0.097805
Cu9	Cu	1.067065	-0.130920	-0.097780
O10	O	1.070935	-0.268900	0.082700
C11	C	0.904059	-0.137653	0.000010
C12	C	0.804606	-0.135672	0.000008
C13	C	0.757877	-0.134734	0.090160
C14	C	0.664431	-0.132858	0.090161
C15	C	0.617715	-0.131925	0.000009
C16	C	0.664450	-0.132860	-0.090149
C17	C	0.757895	-0.134730	-0.090150
C18	C	0.469682	-0.128965	-0.090143
C19	C	0.376230	-0.127096	-0.090143
C20	C	0.376217	-0.127093	0.090168
C21	C	0.469662	-0.128962	0.090168
C22	C	0.516391	-0.129899	0.000008
C23	C	1.074351	-0.304223	0.000007
C24	C	1.084513	-0.409460	0.000004
C25	C	1.103089	-0.602142	0.000009
C26	C	1.031022	-0.659694	0.000008
C27	C	1.041359	-0.766909	0.000011
C28	C	1.092754	-0.494917	0.000006
C29	C	1.230048	-0.124178	0.000013
C30	C	1.329501	-0.126159	0.000009
C31	C	1.059756	0.042392	0.000016
C32	C	1.049595	0.147629	0.000013
N33	N	1.067033	-0.130904	0.235370
C34	C	1.122725	-0.066553	0.287413
C35	C	1.122729	-0.066553	0.391516
C36	C	1.067046	-0.130909	0.443574
C37	C	1.011348	-0.195263	0.391524
C38	C	1.011339	-0.195257	0.287422
C39	C	1.011371	-0.195271	0.608504
C40	C	1.011381	-0.195277	0.712612
C41	C	1.122762	-0.066566	0.712598
C42	C	1.122753	-0.066561	0.608496
C43	C	1.067056	-0.130916	0.556453
N44	N	1.067073	-0.130926	0.764656
H45	H	0.795907	-0.135501	0.163572
Br46	Br	0.915247	-0.607617	0.000012
Br47	Br	1.218857	-0.654222	0.000014
H48	H	0.966036	-0.247682	0.754993
H49	H	1.168073	-0.014151	0.245034
Br50	Br	0.935775	-0.282608	0.537877
Br51	Br	1.198309	0.020785	0.462150
Br52	Br	0.821315	-0.135993	-0.212503
Br53	Br	0.601016	-0.131601	0.212515
H54	H	1.168112	-0.014166	0.754978
Br55	Br	1.198331	0.020771	0.537843
H56	H	0.966004	-0.247660	0.433915
Br57	Br	0.935747	-0.282589	0.216792
H58	H	0.626407	-0.132094	-0.163553
Br59	Br	0.312801	-0.125826	0.212527
Br60	Br	0.533062	-0.130243	0.212518
Br61	Br	0.312829	-0.125831	-0.212493
H62	H	0.507725	-0.129727	-0.163560
