data_functionalizedCrystal
_audit_creation_method	'MofGen! by Chris Wilmer'
_symmetry_space_group_name_H-M	'P1'
_symmetry_Int_Tables_number	1
_symmetry_cell_setting	triclinic
loop_
_symmetry_equiv_pos_as_xyz
  x,y,z
_cell_length_a	14.853569
_cell_length_b	15.625429
_cell_length_c	14.750779
_cell_angle_alpha	120.092833
_cell_angle_beta	77.338027
_cell_angle_gamma	83.949481
loop_
_atom_site_label
_atom_site_type_symbol
_atom_site_fract_x
_atom_site_fract_y
_atom_site_fract_z
O1	O	1.164044	0.150011	0.131993
O2	O	0.900275	0.165339	0.137339
O3	O	1.051398	0.014227	0.084734
O4	O	1.012921	0.301123	0.184598
O5	O	1.094118	-0.028486	-0.089786
O6	O	0.942995	0.122626	-0.037181
O7	O	1.206764	0.107298	-0.042527
Zn8	Zn	1.081662	0.108181	-0.067563
Zn9	Zn	1.025377	0.164456	0.162375
O10	O	1.055641	0.258410	0.010078
C11	C	0.888105	0.143288	0.049839
C12	C	0.788198	0.141208	0.049119
C13	C	1.075251	-0.043845	-0.015304
C14	C	1.082671	-0.153245	-0.053378
C15	C	0.759555	0.050469	0.017538
C16	C	0.722966	0.229990	0.080015
C17	C	0.629099	0.228037	0.079335
C18	C	0.600456	0.137298	0.047753
C19	C	0.665680	0.048512	0.016853
C20	C	0.563870	0.316818	0.110224
C21	C	0.469996	0.314868	0.109543
C22	C	0.441350	0.224130	0.077969
C23	C	0.506581	0.135341	0.047068
C24	C	0.477938	0.044603	0.015487
C25	C	0.543165	-0.044185	-0.015407
C26	C	0.637034	-0.042225	-0.014722
C27	C	0.347482	0.222170	0.077283
C28	C	0.384063	0.042646	0.014802
C29	C	0.990624	-0.396645	0.297015
C30	C	0.997600	-0.499450	0.261206
C31	C	1.044171	-0.545999	0.070957
C32	C	1.037203	-0.443196	0.106750
C33	C	1.010429	-0.368526	0.219780
C34	C	1.057008	-0.415077	0.029515
C35	C	1.050036	-0.312283	0.065306
C36	C	1.023260	-0.237607	0.178331
C37	C	1.003457	-0.265731	0.255571
C38	C	1.083776	-0.489748	-0.083515
C39	C	1.103580	-0.461630	-0.160749
C40	C	1.096615	-0.358834	-0.124960
C41	C	1.069839	-0.284158	-0.011934
C42	C	1.116418	-0.330710	-0.202199
C43	C	1.109446	-0.227915	-0.166408
C44	C	1.062867	-0.181363	0.023857
C45	C	1.218933	0.129349	0.044975
C46	C	1.318839	0.131431	0.045702
C47	C	1.031787	0.316482	0.110118
C48	C	1.024366	0.425884	0.148199
N49	N	1.120082	0.069773	-0.224489
C50	C	0.879667	0.310079	-0.492651
C51	C	0.906595	0.283172	-0.602517
C52	C	1.040435	0.149412	-0.649045
C53	C	1.013515	0.176304	-0.539182
C54	C	0.933131	0.256639	-0.460992
C55	C	1.066979	0.122865	-0.507523
C56	C	1.040064	0.149759	-0.397668
C57	C	0.959685	0.230093	-0.319472
C58	C	0.906216	0.283534	-0.351137
C59	C	1.147367	0.042535	-0.585712
C60	C	1.200831	-0.010904	-0.554053
C61	C	1.173912	0.015985	-0.444198
C62	C	1.093533	0.096318	-0.366002
C63	C	1.227382	-0.037456	-0.412533
C64	C	1.200466	-0.010562	-0.302678
C65	C	1.066618	0.123213	-0.256148
N66	N	0.986965	0.202856	0.319298
H67	H	0.519831	-0.118063	-0.041114
C68	C	1.128849	0.061046	-0.735057
H69	H	1.137219	0.052676	-0.805019
H70	H	1.183691	0.076271	-0.713275
H71	H	1.120169	-0.000339	-0.739954
C72	C	0.831292	-0.047191	-0.016437
H73	H	0.800784	-0.101507	-0.035334
H74	H	0.883581	-0.065065	-0.078325
H75	H	0.853757	-0.035253	0.043407
C76	C	0.708779	-0.139883	-0.048701
H77	H	0.678276	-0.194202	-0.067596
H78	H	0.761062	-0.157752	-0.110592
H79	H	0.731250	-0.127943	0.011139
C80	C	0.791237	0.398435	-0.406636
H81	H	0.782863	0.406789	-0.336680
H82	H	0.799888	0.459825	-0.401732
H83	H	0.736397	0.383184	-0.428427
C84	C	0.754472	0.329793	0.114751
H85	H	0.819718	0.318243	0.110738
H86	H	0.746472	0.351460	0.066619
H87	H	0.716672	0.381250	0.188344
C88	C	1.133030	-0.543765	-0.285076
H89	H	1.143820	-0.512293	-0.325947
H90	H	1.189881	-0.592281	-0.305586
H91	H	1.083542	-0.577382	-0.300398
C92	C	1.145858	-0.412846	-0.326524
H93	H	1.156648	-0.381375	-0.367398
H94	H	1.202708	-0.461367	-0.347040
H95	H	1.096365	-0.446456	-0.341837
C96	C	0.847742	0.341916	-0.637353
H97	H	0.796001	0.393594	-0.575056
H98	H	0.887177	0.372524	-0.665920
H99	H	0.823714	0.295856	-0.692570
C100	C	0.275735	0.319820	0.111257
H101	H	0.215729	0.305659	0.106321
H102	H	0.268702	0.371926	0.185062
H103	H	0.298509	0.342111	0.063328
C104	C	0.595379	0.416619	0.144956
H105	H	0.660623	0.405069	0.140951
H106	H	0.587387	0.438280	0.096818
H107	H	0.557575	0.468081	0.218546
C108	C	1.289245	-0.099271	-0.640066
H109	H	1.297615	-0.107640	-0.710028
H110	H	1.344088	-0.084045	-0.618283
H111	H	1.280566	-0.160655	-0.644962
H112	H	0.416895	0.387165	0.134700
C113	C	0.352557	-0.057165	-0.019933
H114	H	0.287309	-0.045616	-0.015911
H115	H	0.390361	-0.108628	-0.093513
H116	H	0.360550	-0.078815	0.028220
H117	H	1.244004	-0.054078	-0.276903
H118	H	1.041072	-0.120563	0.115897
C119	C	1.315800	-0.125816	-0.498545
H120	H	1.324171	-0.134180	-0.568505
H121	H	1.370640	-0.110584	-0.476758
H122	H	1.307129	-0.187205	-0.503449
H123	H	1.169281	0.020644	-0.675160
H124	H	1.017574	-0.153904	0.207470
H125	H	0.981662	-0.204930	0.347611
H126	H	0.968830	-0.335844	0.389055
H127	H	1.125553	-0.205019	-0.229300
H128	H	0.981463	-0.522335	0.324109
C129	C	0.930073	0.259683	-0.198631
H130	H	0.874547	0.315185	-0.156600
H131	H	0.916946	0.202759	-0.195707
H132	H	0.980456	0.279382	-0.169030
C133	C	1.073627	-0.628140	-0.053368
H134	H	1.074950	-0.693390	-0.063624
H135	H	1.028894	-0.613414	-0.084006
H136	H	1.135228	-0.628300	-0.089174
H137	H	1.001155	0.188622	-0.192483
C138	C	0.817786	0.371890	-0.265123
H139	H	0.809412	0.380244	-0.195167
H140	H	0.826437	0.433280	-0.260218
H141	H	0.762946	0.356639	-0.286913
H142	H	1.089441	-0.573448	-0.112651
