data_functionalizedCrystal
_audit_creation_method	'MofGen! by Chris Wilmer'
_symmetry_space_group_name_H-M	'P1'
_symmetry_Int_Tables_number	1
_symmetry_cell_setting	triclinic
loop_
_symmetry_equiv_pos_as_xyz
  x,y,z
_cell_length_a	6.394989
_cell_length_b	10.723024
_cell_length_c	9.198806
_cell_angle_alpha	90.002012
_cell_angle_beta	90.003440
_cell_angle_gamma	85.482790
loop_
_atom_site_label
_atom_site_type_symbol
_atom_site_fract_x
_atom_site_fract_y
_atom_site_fract_z
O1	O	-2.774424	-0.204469	-0.120873
O2	O	-2.166443	-0.214770	-0.120879
O3	O	-2.484457	-0.028192	-0.120870
O4	O	-2.456409	-0.391047	-0.120881
O5	O	-2.484432	-0.028192	0.120915
O6	O	-2.166417	-0.214769	0.120906
O7	O	-2.774398	-0.204469	0.120912
Cu8	Cu	-2.470405	-0.209619	0.142986
Cu9	Cu	-2.470435	-0.209620	-0.142953
O10	O	-2.456384	-0.391046	0.120904
C11	C	-2.482403	0.018329	0.000020
C12	C	-2.476296	0.156948	0.000015
C13	C	-2.458438	-0.437568	0.000010
C14	C	-2.464544	-0.576187	0.000005
N15	N	-2.470400	-0.209618	0.344100
C16	C	-2.088579	-0.212733	0.000021
C17	C	-1.852255	-0.206509	0.000027
N18	N	-2.470458	-0.209611	-0.344067
C19	C	-2.654241	0.230042	0.000015
C20	C	-2.647933	0.373313	0.000010
C21	C	-2.603925	-0.130927	0.416300
C22	C	-2.603957	-0.130923	0.583713
H23	H	-2.811255	0.186554	0.000025
H24	H	-2.800267	0.436129	0.000016
H25	H	-2.319282	0.200437	0.000004
O26	O	-2.333838	-0.290033	0.417977
C27	C	-2.209717	-0.363222	0.318341
H28	H	-2.206224	-0.312121	0.209803
H29	H	-2.043257	-0.379816	0.362452
H30	H	-2.279299	-0.456910	0.302200
O31	O	-2.740247	-0.050373	0.657616
C32	C	-2.703936	0.073668	0.620566
H33	H	-2.623520	0.074759	0.510026
H34	H	-2.859853	0.132867	0.615498
H35	H	-2.599077	0.113682	0.706212
H36	H	-2.312202	0.361005	0.000015
H37	H	-2.718211	-0.063555	0.354177
O38	O	-2.334355	-0.290049	0.581722
C39	C	-2.447834	-0.368596	0.493693
H40	H	-2.610443	-0.321235	0.471019
H41	H	-2.361111	-0.387000	0.386611
H42	H	-2.463710	-0.461067	0.552264
