data_functionalizedCrystal
_audit_creation_method	'MofGen! by Chris Wilmer'
_symmetry_space_group_name_H-M	'P1'
_symmetry_Int_Tables_number	1
_symmetry_cell_setting	triclinic
loop_
_symmetry_equiv_pos_as_xyz
  x,y,z
_cell_length_a	10.540510
_cell_length_b	10.654562
_cell_length_c	9.730223
_cell_angle_alpha	89.996961
_cell_angle_beta	90.001116
_cell_angle_gamma	84.501707
loop_
_atom_site_label
_atom_site_type_symbol
_atom_site_fract_x
_atom_site_fract_y
_atom_site_fract_z
O1	O	0.178374	1.667869	-0.114372
O2	O	0.195345	1.302396	-0.114354
O3	O	0.002148	1.493490	-0.114363
O4	O	0.371571	1.476775	-0.114363
O5	O	0.002153	1.493488	0.114217
O6	O	0.195350	1.302394	0.114226
O7	O	0.178379	1.667866	0.114208
Zn8	Zn	0.186865	1.485130	0.150509
Zn9	Zn	0.186859	1.485133	-0.150655
O10	O	0.371576	1.476773	0.114217
C11	C	0.194098	1.255597	-0.000062
C12	C	0.190360	1.116154	-0.000056
C13	C	0.188619	1.050622	0.124533
C14	C	0.185116	0.919598	0.124510
C15	C	0.185102	0.919651	-0.124701
C16	C	0.188595	1.050673	-0.124676
C17	C	0.188633	1.050589	0.268412
C18	C	0.185131	0.919566	0.268390
C19	C	-0.045153	1.492243	-0.000076
C20	C	-0.186101	1.488517	-0.000084
C21	C	-0.403599	1.621269	0.000433
C22	C	-0.257004	1.625244	-0.000089
C23	C	-0.230841	1.418527	-0.130608
C24	C	-0.377601	1.415520	-0.130710
C25	C	-0.377403	1.412670	0.129228
C26	C	-0.231064	1.419155	0.130946
C27	C	0.418877	1.478019	-0.000074
C28	C	0.559825	1.481746	-0.000075
C29	C	0.179626	1.714666	-0.000087
C30	C	0.183364	1.854109	-0.000103
N31	N	0.186869	1.485137	0.356045
N32	N	0.186845	1.485136	-0.356192
C33	C	0.101351	1.569775	0.427967
C34	C	0.101335	1.569772	0.571850
C35	C	0.272368	1.400488	0.571876
C36	C	0.272376	1.400486	0.427996
C37	C	0.002610	1.667514	0.427953
C38	C	0.002594	1.667510	0.571836
H39	H	0.272865	0.873301	0.323625
H40	H	-0.089614	1.636975	0.616453
O41	O	0.072433	1.111847	0.341603
H42	H	0.016461	1.176507	0.269864
O43	O	-0.166012	1.286935	0.141390
H44	H	-0.238884	1.218333	0.140115
H45	H	-0.183421	1.317871	-0.135457
H46	H	-0.400564	1.313256	-0.136619
O47	O	-0.218141	1.697808	0.123822
H48	H	-0.304125	1.730372	0.184658
H49	H	0.092549	0.889955	0.313035
O50	O	0.190461	1.121362	-0.259051
H51	H	0.188658	1.053812	-0.345707
O52	O	0.043545	1.788315	0.368829
H53	H	0.141605	1.801135	0.404121
H54	H	-0.445568	1.674535	0.094039
O55	O	0.311248	1.089816	0.327588
H56	H	0.373429	1.004654	0.358942
H57	H	0.024350	1.764027	0.610882
H58	H	-0.094966	1.646047	0.388901
O59	O	-0.461233	1.691434	-0.122865
H60	H	-0.515812	1.627366	-0.184509
H61	H	0.183665	0.866320	-0.226163
H62	H	-0.228618	1.680326	-0.093821
O63	O	0.364606	1.309193	0.350416
H64	H	0.424067	1.250343	0.424623
O65	O	-0.430982	1.479495	-0.259584
H66	H	-0.351931	1.512221	-0.321284
O67	O	-0.190465	1.483215	-0.259291
H68	H	-0.138490	1.565161	-0.230615
H69	H	-0.419596	1.456120	0.228166
O70	O	-0.193174	1.486593	0.258864
H71	H	-0.142524	1.569164	0.229259
O72	O	0.364602	1.309198	0.649478
H73	H	0.350236	1.323422	0.761611
H74	H	-0.399521	1.310014	0.130112
