data_functionalizedCrystal
_audit_creation_method	'MofGen! by Chris Wilmer'
_symmetry_space_group_name_H-M	'P1'
_symmetry_Int_Tables_number	1
_symmetry_cell_setting	triclinic
loop_
_symmetry_equiv_pos_as_xyz
  x,y,z
_cell_length_a	8.497374
_cell_length_b	8.497374
_cell_length_c	13.897449
_cell_angle_alpha	89.997628
_cell_angle_beta	90.002403
_cell_angle_gamma	90.005237
loop_
_atom_site_label
_atom_site_type_symbol
_atom_site_fract_x
_atom_site_fract_y
_atom_site_fract_z
Zn1	Zn	0.892135	0.628276	1.474639
Zn2	Zn	1.392135	1.128276	1.974639
Zn3	Zn	0.628400	0.892021	1.474632
Zn4	Zn	1.128400	1.392021	1.974632
Zn5	Zn	0.628359	0.628255	1.313380
Zn6	Zn	1.128359	1.128255	1.813380
Zn7	Zn	0.892129	0.892013	1.313357
Zn8	Zn	1.392129	1.392013	1.813357
O9	O	0.760256	0.760141	1.394002
O10	O	1.260256	1.260141	1.894002
O11	O	0.857170	0.663274	1.609620
O12	O	1.357170	1.163274	2.109620
O13	O	0.407633	0.857027	1.453248
O14	O	0.907633	1.357027	1.953248
O15	O	0.663335	0.407495	1.334784
O16	O	1.163335	0.907495	1.834784
O17	O	0.663405	0.857047	1.609614
O18	O	1.163405	1.357047	2.109614
O19	O	0.857130	0.407511	1.453261
O20	O	1.357130	0.907511	1.953261
O21	O	0.407602	0.663239	1.334777
O22	O	0.907602	1.163239	1.834777
O23	O	0.663329	0.663231	1.178395
O24	O	1.163329	1.163231	1.678395
O25	O	1.112892	0.857033	1.334745
O26	O	1.612892	1.357033	1.834745
O27	O	0.857119	0.857013	1.178378
O28	O	1.357119	1.357013	1.678378
O29	O	1.112896	0.663266	1.453238
O30	O	1.612896	1.163266	1.953238
O31	O	0.663399	1.112783	1.453225
O32	O	1.163399	1.612783	1.953225
O33	O	0.857160	1.112777	1.334737
O34	O	1.357160	1.612777	1.834737
C35	C	0.760220	0.760120	1.143388
C36	C	1.260220	1.260120	1.643388
C37	C	0.760242	0.760149	1.036174
C38	C	1.260242	1.260149	1.536174
C39	C	1.171736	0.760144	1.393995
C40	C	1.671736	1.260144	1.893995
C41	C	1.350380	0.760160	1.393997
C42	C	1.850380	1.260160	1.893997
C43	C	0.760279	1.170021	1.393990
C44	C	1.260279	1.670021	1.893990
C45	C	0.760253	1.348665	1.394016
C46	C	1.260253	1.848665	1.894016
C47	C	0.760283	0.760155	0.839879
C48	C	1.260283	1.260155	1.339879
C49	C	0.760256	0.760147	0.949111
C50	C	1.260256	1.260147	1.449111
C51	C	0.760293	0.760164	1.645595
C52	C	1.260293	1.260164	2.145595
C53	C	0.760309	0.760173	1.752809
C54	C	1.260309	1.260173	2.252809
