data_functionalizedCrystal
_audit_creation_method	'MofGen! by Chris Wilmer'
_symmetry_space_group_name_H-M	'P1'
_symmetry_Int_Tables_number	1
_symmetry_cell_setting	triclinic
loop_
_symmetry_equiv_pos_as_xyz
  x,y,z
_cell_length_a	11.026607
_cell_length_b	15.944551
_cell_length_c	9.482900
_cell_angle_alpha	99.334197
_cell_angle_beta	78.636152
_cell_angle_gamma	96.042377
loop_
_atom_site_label
_atom_site_type_symbol
_atom_site_fract_x
_atom_site_fract_y
_atom_site_fract_z
O1	O	1.629108	0.341447	-0.120915
O2	O	1.275798	0.301394	-0.120914
O3	O	1.462099	0.200605	-0.120901
O4	O	1.442807	0.442235	-0.120927
O5	O	1.424257	0.221183	0.120889
O6	O	1.237956	0.321972	0.120876
O7	O	1.591266	0.362024	0.120875
Cu8	Cu	1.411156	0.343877	0.142953
Cu9	Cu	1.455908	0.319541	-0.142992
O10	O	1.404965	0.462813	0.120862
C11	C	1.211666	0.304294	-0.000019
C12	C	1.076950	0.282267	-0.000019
C13	C	1.003151	0.343086	-0.000026
C14	C	0.863914	0.320322	-0.000026
C15	C	1.442377	0.179479	-0.000006
C16	C	1.439975	0.085870	-0.000005
C17	C	1.318759	-0.147313	-0.000025
C18	C	1.356391	-0.189675	0.119192
C19	C	1.435632	-0.085514	-0.000016
C20	C	1.393728	-0.209942	-0.119194
C21	C	1.431430	-0.251064	-0.000034
C22	C	1.473281	-0.126634	0.119299
C23	C	1.510618	-0.146907	-0.119194
C24	C	1.548331	-0.189236	0.000052
C25	C	1.438050	0.009855	-0.000005
C26	C	1.429020	-0.346429	-0.000034
C27	C	1.655399	0.359124	-0.000023
C28	C	1.790116	0.381150	-0.000033
C29	C	1.424688	0.483939	-0.000036
C30	C	1.427091	0.577547	-0.000046
N31	N	1.379688	0.360994	0.344071
N32	N	1.487386	0.302419	-0.344110
C33	C	1.446618	0.324584	0.416275
C34	C	1.420446	0.338834	0.583690
H35	H	1.221729	-0.128660	0.000094
C36	C	1.597688	-0.121462	-0.253411
C37	C	1.692764	-0.063401	-0.210836
C38	C	1.772995	-0.039951	-0.334448
H39	H	1.552814	-0.095727	-0.308655
H40	H	1.632513	-0.170680	-0.310890
H41	H	1.657942	-0.014191	-0.153380
H42	H	1.737670	-0.089117	-0.155608
H43	H	1.807821	-0.089169	-0.391927
H44	H	1.728110	-0.014219	-0.389684
H45	H	1.837520	-0.000560	-0.305579
C46	C	0.843047	0.473115	0.000031
C47	C	0.747970	0.524814	0.000059
C48	C	0.796679	0.609537	0.000138
H49	H	0.905014	0.477181	-0.084262
H50	H	0.878599	0.491457	0.084384
H51	H	0.712436	0.506479	-0.084284
H52	H	0.685995	0.520775	0.084347
H53	H	0.832231	0.627878	0.084490
H54	H	0.858646	0.613594	-0.084157
H55	H	0.732175	0.644626	0.000171
C56	C	1.589309	0.246513	0.573068
C57	C	1.537798	0.178018	0.485890
C58	C	1.631579	0.126424	0.409639
H59	H	1.627805	0.225431	0.640057
H60	H	1.649364	0.279061	0.513464
H61	H	1.477765	0.145475	0.545489
H62	H	1.499311	0.199075	0.418874
H63	H	1.691634	0.158972	0.350036
H64	H	1.670069	0.105348	0.476639
H65	H	1.596644	0.079948	0.350471
C66	C	1.348629	-0.258022	-0.253535
C67	C	1.228422	-0.236939	-0.252972
C68	C	1.186834	-0.281200	-0.376706
H69	H	1.348034	-0.317602	-0.253164
H70	H	1.402549	-0.242752	-0.338230
H71	H	1.174515	-0.252215	-0.168300
H72	H	1.228984	-0.177366	-0.253365
H73	H	1.240755	-0.265931	-0.461401
H74	H	1.186246	-0.340779	-0.376324
H75	H	1.105275	-0.266896	-0.376347
C76	C	1.277346	0.416619	0.426631
C77	C	1.220650	0.447430	0.327573
C78	C	1.126354	0.498665	0.403569
H79	H	1.311774	0.463216	0.486004
H80	H	1.217395	0.383866	0.485990
H81	H	1.280591	0.480182	0.268239
H82	H	1.186196	0.400851	0.268196
H83	H	1.066403	0.465912	0.462928
H84	H	1.160792	0.545258	0.462940
H85	H	1.087867	0.519571	0.336371
C86	C	1.269342	-0.215161	0.253403
C87	C	1.175586	-0.274428	0.210767
C88	C	1.095376	-0.297931	0.334355
H89	H	1.233285	-0.166146	0.310021
H90	H	1.314591	-0.239933	0.309533
H91	H	1.130342	-0.249655	0.154660
H92	H	1.211605	-0.323456	0.154166
H93	H	1.140625	-0.322702	0.390485
H94	H	1.059329	-0.248911	0.390964
H95	H	1.031760	-0.338151	0.305443
C96	C	1.056581	0.434935	-0.000102
C97	C	1.184068	0.439249	-0.000132
C98	C	1.233328	0.523846	-0.000219
H99	H	1.016891	0.469369	0.084190
H100	H	1.043225	0.454954	-0.084456
H101	H	1.197415	0.419240	0.084213
H102	H	1.223792	0.404833	-0.084418
H103	H	1.219972	0.543866	-0.084573
H104	H	1.193629	0.558274	0.084075
H105	H	1.319835	0.526783	-0.000253
C106	C	0.810511	0.228457	-0.000092
C107	C	0.683035	0.224137	-0.000130
C108	C	0.633801	0.139526	-0.000212
H109	H	0.823814	0.208366	0.084203
H110	H	0.850274	0.194083	-0.084443
H111	H	0.643285	0.258498	0.084212
H112	H	0.669698	0.244211	-0.084419
H113	H	0.673564	0.105152	-0.084563
H114	H	0.647113	0.119442	0.084085
H115	H	0.547307	0.136582	-0.000251
H116	H	1.645417	-0.207711	0.000119
H117	H	1.037058	0.213341	-0.000048
C118	C	1.518329	-0.078626	0.253720
C119	C	1.638100	-0.100293	0.253849
C120	C	1.679638	-0.056075	0.377642
H121	H	1.463990	-0.093522	0.338381
H122	H	1.519619	-0.019030	0.252929
H123	H	1.636801	-0.159876	0.254653
H124	H	1.692467	-0.085395	0.169215
H125	H	1.680929	0.003521	0.376852
H126	H	1.625291	-0.070975	0.462295
H127	H	1.760910	-0.070764	0.377740
H128	H	1.523292	0.282860	0.354152
H129	H	1.343758	0.380554	0.645809
