data_functionalizedCrystal
_audit_creation_method	'MofGen! by Chris Wilmer'
_symmetry_space_group_name_H-M	'P1'
_symmetry_Int_Tables_number	1
_symmetry_cell_setting	triclinic
loop_
_symmetry_equiv_pos_as_xyz
  x,y,z
_cell_length_a	14.971486
_cell_length_b	14.971494
_cell_length_c	14.048226
_cell_angle_alpha	89.995286
_cell_angle_beta	89.998499
_cell_angle_gamma	83.615843
loop_
_atom_site_label
_atom_site_type_symbol
_atom_site_fract_x
_atom_site_fract_y
_atom_site_fract_z
O1	O	1.186951	0.116564	-0.079047
O2	O	1.520284	0.449897	0.254286
O3	O	1.853617	0.783231	0.587619
O4	O	0.926551	0.130523	-0.079073
O5	O	1.259884	0.463856	0.254260
O6	O	1.593217	0.797190	0.587594
O7	O	1.063726	-0.006656	-0.079057
O8	O	1.397059	0.326677	0.254276
O9	O	1.730393	0.660011	0.587609
O10	O	1.049775	0.253743	-0.079063
O11	O	1.383109	0.587076	0.254270
O12	O	1.716442	0.920410	0.587604
O13	O	1.063710	-0.006664	0.079264
O14	O	1.397043	0.326669	0.412597
O15	O	1.730376	0.660003	0.745931
O16	O	0.926534	0.130515	0.079248
O17	O	1.259868	0.463848	0.412582
O18	O	1.593201	0.797181	0.745915
O19	O	1.186934	0.116556	0.079274
O20	O	1.520267	0.449889	0.412607
O21	O	1.853601	0.783223	0.745941
Zn22	Zn	1.056732	0.123534	0.104398
Zn23	Zn	1.390065	0.456867	0.437731
Zn24	Zn	1.723398	0.790201	0.771065
Zn25	Zn	1.056753	0.123545	-0.104197
Zn26	Zn	1.390087	0.456878	0.229136
Zn27	Zn	1.723420	0.790211	0.562470
O28	O	1.049759	0.253735	0.079258
O29	O	1.383092	0.587068	0.412592
O30	O	1.716425	0.920402	0.745925
C31	C	0.893218	0.129895	0.000084
C32	C	1.226551	0.463228	0.333418
C33	C	1.559884	0.796561	0.666751
C34	C	0.793921	0.128024	0.000075
C35	C	1.127254	0.461357	0.333408
C36	C	1.460587	0.794691	0.666741
C37	C	1.063093	-0.039985	0.000102
C38	C	1.396426	0.293349	0.333435
C39	C	1.729759	0.626682	0.666768
C40	C	1.061219	-0.139281	0.000097
C41	C	1.394552	0.194052	0.333431
C42	C	1.727886	0.527385	0.666764
C43	C	0.736698	0.208613	0.000074
C44	C	1.070031	0.541946	0.333408
C45	C	1.403364	0.875279	0.666741
C46	C	0.643398	0.206850	0.000088
C47	C	0.976732	0.540183	0.333422
C48	C	1.310065	0.873516	0.666755
C49	C	0.607323	0.124497	0.000096
C50	C	0.940657	0.457830	0.333430
C51	C	1.273990	0.791163	0.666763
C52	C	0.664554	0.043902	0.000100
C53	C	0.997887	0.377235	0.333433
C54	C	1.331220	0.710568	0.666766
C55	C	0.757851	0.045666	0.000092
C56	C	1.091185	0.378999	0.333425
C57	C	1.424518	0.712332	0.666759
C58	C	0.470091	0.040231	0.000113
C59	C	0.803424	0.373564	0.333446
C60	C	1.136758	0.706897	0.666779
C61	C	0.376787	0.038466	0.000118
C62	C	0.710120	0.371799	0.333452
C63	C	1.043454	0.705133	0.666785
C64	C	0.355638	0.201415	0.000109
C65	C	0.688971	0.534748	0.333442
C66	C	1.022305	0.868081	0.666776
C67	C	0.448936	0.203179	0.000102
C68	C	0.782269	0.536512	0.333435
C69	C	1.115602	0.869845	0.666768
C70	C	0.506160	0.122583	0.000103
C71	C	0.839493	0.455916	0.333436
C72	C	1.172826	0.789250	0.666770
C73	C	1.060350	-0.185922	-0.086205
C74	C	1.393683	0.147412	0.247128
C75	C	1.727016	0.480745	0.580462
C76	C	1.058583	-0.279221	-0.086206
C77	C	1.391917	0.054113	0.247127
C78	C	1.725250	0.387446	0.580460
C79	C	1.057693	-0.325879	0.000096
C80	C	1.391026	0.007455	0.333429
C81	C	1.724359	0.340788	0.666762
C82	C	1.058559	-0.279231	0.086404
C83	C	1.391893	0.054102	0.419738
C84	C	1.725226	0.387435	0.753071
C85	C	1.060319	-0.185933	0.086405
C86	C	1.393653	0.147400	0.419738
C87	C	1.726986	0.480733	0.753071
C88	C	1.054893	-0.473695	0.086398
C89	C	1.388227	-0.140361	0.419731
C90	C	1.721560	0.192972	0.753064
C91	C	1.053135	-0.566999	0.086398
C92	C	1.386468	-0.233666	0.419731
C93	C	1.719802	0.099667	0.753064
C94	C	1.053158	-0.566982	-0.086213
C95	C	1.386491	-0.233649	0.247120
C96	C	1.719824	0.099685	0.580453
C97	C	1.054917	-0.473684	-0.086213
C98	C	1.388251	-0.140351	0.247120
C99	C	1.721584	0.192983	0.580454
C100	C	1.055786	-0.427043	0.000096
C101	C	1.389119	-0.093710	0.333429
C102	C	1.722452	0.239623	0.666763
C103	C	1.220267	0.117184	0.000114
C104	C	1.553600	0.450518	0.333448
C105	C	1.886934	0.783851	0.666781
C106	C	1.319564	0.119055	0.000118
C107	C	1.652897	0.452388	0.333451
C108	C	1.986231	0.785722	0.666785
C109	C	1.050392	0.287064	0.000097
C110	C	1.383725	0.620397	0.333430
C111	C	1.717059	0.953730	0.666764
C112	C	1.052266	0.386360	0.000095
C113	C	1.385599	0.719694	0.333429
C114	C	1.718933	1.053027	0.666762
N115	N	1.056723	0.123526	0.246759
N116	N	1.390057	0.456860	0.580092
N117	N	1.723390	0.790193	0.913425
N118	N	1.056769	0.123546	-0.246558
N119	N	1.390102	0.456879	0.086776
N120	N	1.723435	0.790212	0.420109
C121	C	1.117484	0.062809	0.296584
C122	C	1.450817	0.396142	0.629917
C123	C	1.784150	0.729475	0.963250
C124	C	1.117490	0.062808	0.396241
C125	C	1.450823	0.396141	0.729575
C126	C	1.784156	0.729475	1.062908
C127	C	1.056739	0.123530	0.446072
C128	C	1.390072	0.456864	0.779406
C129	C	1.723406	0.790197	1.112739
C130	C	0.995972	0.184251	0.396240
C131	C	1.329305	0.517584	0.729574
C132	C	1.662639	0.850918	1.062907
C133	C	0.995962	0.184246	0.296584
C134	C	1.329296	0.517580	0.629918
C135	C	1.662629	0.850913	0.963251
C136	C	0.995998	0.184257	0.603955
C137	C	1.329331	0.517591	0.937288
C138	C	1.662665	0.850924	1.270621
C139	C	0.996008	0.184263	0.703617
C140	C	1.329342	0.517597	1.036951
C141	C	1.662675	0.850930	1.370284
C142	C	1.117525	0.062819	0.703611
C143	C	1.450858	0.396152	1.036945
C144	C	1.784192	0.729486	1.370278
C145	C	1.117515	0.062815	0.603956
C146	C	1.450849	0.396148	0.937289
C147	C	1.784182	0.729481	1.270622
C148	C	1.056749	0.123537	0.554131
C149	C	1.390083	0.456870	0.887464
C150	C	1.723416	0.790203	1.220797
H151	H	0.766062	0.275674	0.000067
H152	H	1.099395	0.609007	0.333401
H153	H	1.432729	0.942341	0.666734
F154	F	0.818752	-0.040108	0.000096
F155	F	1.152086	0.293225	0.333429
F156	F	1.485419	0.626559	0.666763
F157	F	1.061304	-0.136274	-0.178061
F158	F	1.394637	0.197059	0.155272
F159	F	1.727970	0.530393	0.488606
H160	H	1.057879	-0.317192	-0.156482
H161	H	1.391213	0.016142	0.176851
H162	H	1.724546	0.349475	0.510185
F163	F	1.061243	-0.136295	0.178259
F164	F	1.394577	0.197038	0.511593
F165	F	1.727910	0.530371	0.844926
H166	H	1.052449	-0.604961	-0.156489
H167	H	1.385782	-0.271628	0.176844
H168	H	1.719115	0.061706	0.510177
F169	F	1.182148	-0.001817	0.243559
F170	F	1.515482	0.331516	0.576893
F171	F	1.848815	0.664849	0.910226
F172	F	1.055819	-0.424059	0.178258
F173	F	1.389152	-0.090725	0.511591
F174	F	1.722485	0.242608	0.844925
H175	H	0.596810	0.272473	0.000087
H176	H	0.930144	0.605807	0.333420
H177	H	1.263477	0.939140	0.666754
H178	H	1.057829	-0.317227	0.156673
H179	H	1.391162	0.016106	0.490006
H180	H	1.724495	0.349440	0.823339
F181	F	0.530991	-0.045549	0.000117
F182	F	0.864325	0.287784	0.333451
F183	F	1.197658	0.621118	0.666784
H184	H	1.166965	0.013367	0.436808
H185	H	1.500298	0.346700	0.770142
H186	H	1.833631	0.680033	1.103475
H187	H	1.055649	-0.435698	-0.156488
H188	H	1.388983	-0.102365	0.176846
H189	H	1.722316	0.230968	0.510179
F190	F	0.931290	0.248868	0.243558
F191	F	1.264623	0.582202	0.576892
F192	F	1.597957	0.915535	0.910225
F193	F	1.052188	-0.616655	0.178249
F194	F	1.385522	-0.283321	0.511583
F195	F	1.718855	0.050012	0.844916
F196	F	0.931347	0.248891	0.756644
F197	F	1.264681	0.582225	1.089977
F198	F	1.598014	0.915558	1.423311
H199	H	1.166987	0.013375	0.563383
H200	H	1.500321	0.346708	0.896717
H201	H	1.833654	0.680041	1.230050
H202	H	0.946513	0.233701	0.563390
H203	H	1.279846	0.567034	0.896724
H204	H	1.613179	0.900368	1.230057
H205	H	0.946503	0.233689	0.436818
H206	H	1.279836	0.567022	0.770152
H207	H	1.613170	0.900356	1.103485
F208	F	0.487327	0.290828	0.000084
F209	F	0.820660	0.624161	0.333417
F210	F	1.153994	0.957494	0.666750
F211	F	0.294735	0.287191	0.000109
F212	F	0.628069	0.620524	0.333443
F213	F	0.961402	0.953858	0.666776
F214	F	0.626158	-0.043745	0.000114
F215	F	0.959491	0.289588	0.333447
F216	F	1.292824	0.622922	0.666781
F217	F	1.182197	-0.001804	0.756643
F218	F	1.515530	0.331529	1.089976
F219	F	1.848864	0.664863	1.423309
F220	F	0.338396	-0.049183	0.000151
F221	F	0.671729	0.284151	0.333485
F222	F	1.005062	0.617484	0.666818
