data_functionalizedCrystal
_audit_creation_method	'MofGen! by Chris Wilmer'
_symmetry_space_group_name_H-M	'P1'
_symmetry_Int_Tables_number	1
_symmetry_cell_setting	triclinic
loop_
_symmetry_equiv_pos_as_xyz
  x,y,z
_cell_length_a	16.992694
_cell_length_b	12.837942
_cell_length_c	16.053802
_cell_angle_alpha	92.838962
_cell_angle_beta	87.249047
_cell_angle_gamma	92.748582
loop_
_atom_site_label
_atom_site_type_symbol
_atom_site_fract_x
_atom_site_fract_y
_atom_site_fract_z
O1	O	1.059913	0.217066	-0.069322
O2	O	0.831447	0.214638	-0.069347
O3	O	0.940614	0.064530	-0.069330
O4	O	0.950746	0.367174	-0.069339
O5	O	0.934602	0.072756	0.069528
O6	O	0.825435	0.222864	0.069511
O7	O	1.053901	0.225292	0.069536
Zn8	Zn	0.938714	0.225384	0.091570
Zn9	Zn	0.946634	0.214546	-0.091381
O10	O	0.944734	0.375400	0.069519
C11	C	0.798996	0.215629	0.000079
C12	C	0.711256	0.206315	0.000070
C13	C	0.667730	0.296178	0.000068
C14	C	0.585288	0.287422	0.000079
C15	C	0.546375	0.188801	0.000087
C16	C	0.589907	0.098931	0.000092
C17	C	0.672346	0.107689	0.000086
C18	C	0.300064	0.152502	0.000111
C19	C	0.217618	0.143751	0.000114
C20	C	0.213006	0.332243	0.000103
C21	C	0.295447	0.340992	0.000092
C22	C	0.338972	0.251122	0.000101
N23	N	0.462107	0.179847	0.000097
N24	N	0.423238	0.260077	0.000098
C25	C	0.934185	0.029738	0.000098
C26	C	0.923977	-0.086184	0.000096
C27	C	1.046699	-0.316977	0.000092
C28	C	1.037111	-0.425897	0.000089
C29	C	0.895215	-0.412948	0.000082
C30	C	0.904802	-0.304027	0.000085
C31	C	0.980547	-0.256046	0.000091
C32	C	0.990134	-0.147123	0.000099
C33	C	0.848238	-0.134176	0.000086
C34	C	0.838650	-0.243097	0.000084
C35	C	1.086353	0.224300	0.000108
C36	C	1.174092	0.233614	0.000112
C37	C	0.951163	0.410191	0.000089
C38	C	0.961371	0.526114	0.000086
N39	N	0.933314	0.232780	0.216430
N40	N	0.952040	0.207141	-0.216241
C41	C	0.979785	0.168935	0.260131
C42	C	0.976016	0.174120	0.347537
C43	C	0.925779	0.243156	0.391240
C44	C	0.879303	0.307004	0.347533
C45	C	0.883068	0.301813	0.260129
C46	C	0.909329	0.265799	0.652647
C47	C	0.905569	0.270987	0.740058
C48	C	1.002281	0.138101	0.740056
C49	C	1.006046	0.132921	0.652650
C50	C	0.959566	0.196765	0.608950
N51	N	0.921927	0.248459	0.480584
N52	N	0.963414	0.191455	0.519608
H53	H	0.335492	0.079324	0.000119
H54	H	0.776981	-0.282179	0.000076
C55	C	0.894801	0.417361	0.838329
C56	C	0.850339	0.346876	0.788093
H57	H	0.860706	0.464213	0.867978
H58	H	0.921934	0.380084	0.876864
H59	H	0.931908	0.455601	0.804211
H60	H	0.813236	0.308631	0.822213
H61	H	0.823194	0.384157	0.749555
C62	C	0.754689	0.419605	0.071430
C63	C	0.710504	0.404584	0.000055
H64	H	0.781097	0.486530	0.071419
H65	H	0.720536	0.415147	0.119847
H66	H	0.792408	0.367333	0.071420
H67	H	0.672780	0.456852	0.000068
H68	H	0.744659	0.409052	-0.048374
H69	H	0.549853	0.360598	0.000077
H70	H	0.558216	0.018632	0.000110
H71	H	0.185938	0.063438	0.000120
H72	H	0.327125	0.421299	0.000076
C73	C	0.774415	-0.439687	-0.071323
C74	C	0.811964	-0.465709	0.000064
H75	H	0.723022	-0.472268	-0.071337
H76	H	0.770648	-0.366108	-0.071309
H77	H	0.804105	-0.463055	-0.119737
H78	H	0.782277	-0.442335	0.048479
H79	H	0.815727	-0.539304	0.000058
H80	H	1.013856	0.122131	0.383118
C81	C	0.799925	0.038538	0.000082
C82	C	0.775517	-0.067198	0.000079
H83	H	0.755030	0.079885	0.000074
H84	H	0.828545	0.056587	0.048505
H85	H	0.832742	0.050854	-0.048341
H86	H	0.742704	-0.079516	0.048506
H87	H	0.746884	-0.085253	-0.048349
H88	H	0.871485	0.317785	0.617074
C89	C	1.074995	0.038097	0.268917
C90	C	1.035006	0.093045	0.212096
H91	H	1.109081	-0.008761	0.239262
H92	H	1.105149	0.085913	0.302996
H93	H	1.037872	-0.000140	0.303019
H94	H	1.072129	0.131288	0.177998
H95	H	1.004850	0.045223	0.178003
H96	H	1.040121	0.086121	0.775644
H97	H	0.177559	0.405409	0.000097
C98	C	1.101255	0.002078	0.661430
C99	C	1.061263	0.057028	0.604613
H100	H	1.135341	-0.044777	0.631773
H101	H	1.131409	0.049893	0.695510
H102	H	1.064134	-0.036162	0.695533
H103	H	1.098384	0.095274	0.570515
H104	H	1.031106	0.009206	0.570520
C105	C	0.830595	0.373973	0.481517
C106	C	0.824083	0.382893	0.395570
H107	H	0.796508	0.420833	0.511170
H108	H	0.816208	0.304502	0.495849
H109	H	0.883484	0.390555	0.495822
H110	H	0.771195	0.366303	0.381264
H111	H	0.838465	0.452380	0.381233
H112	H	1.051809	-0.108058	0.000107
C113	C	0.668631	-0.079506	0.000083
C114	C	0.720194	0.008908	0.000080
H115	H	0.698172	-0.140489	0.000076
H116	H	0.634295	-0.076134	0.048505
H117	H	0.638467	-0.081862	-0.048341
H118	H	0.750354	0.011268	0.048508
H119	H	0.754544	0.005536	-0.048347
H120	H	0.845226	0.353801	0.224548
C121	C	1.185995	-0.340712	0.000097
C122	C	1.129954	-0.264228	0.000096
H123	H	1.237394	-0.308146	0.000093
H124	H	1.177212	-0.380055	0.048517
H125	H	1.181393	-0.385795	-0.048329
H126	H	1.134552	-0.219149	0.048525
H127	H	1.138740	-0.224867	-0.048330
H128	H	1.090979	-0.475503	0.000087
