data_functionalizedCrystal
_audit_creation_method	'MofGen! by Chris Wilmer'
_symmetry_space_group_name_H-M	'P1'
_symmetry_Int_Tables_number	1
_symmetry_cell_setting	triclinic
loop_
_symmetry_equiv_pos_as_xyz
  x,y,z
_cell_length_a	12.759395
_cell_length_b	12.759393
_cell_length_c	12.759387
_cell_angle_alpha	90.027685
_cell_angle_beta	90.018994
_cell_angle_gamma	90.015390
loop_
_atom_site_label
_atom_site_type_symbol
_atom_site_fract_x
_atom_site_fract_y
_atom_site_fract_z
Zn1	Zn	-1.606234	0.418198	-0.594075
Zn2	Zn	-1.606134	0.593914	-0.418405
Zn3	Zn	-1.430542	0.418251	-0.418407
Zn4	Zn	-1.430524	0.593837	-0.594038
O5	O	-1.518358	0.506050	-0.506231
O6	O	-1.753242	0.441517	-0.570787
O7	O	-1.582807	0.570667	-0.271384
O8	O	-1.453897	0.271223	-0.441726
O9	O	-1.753168	0.570615	-0.441722
O10	O	-1.582977	0.271184	-0.570789
O11	O	-1.453801	0.441608	-0.271385
O12	O	-1.283519	0.441533	-0.441690
O13	O	-1.453866	0.570484	-0.741064
O14	O	-1.283505	0.570536	-0.570726
O15	O	-1.582960	0.441442	-0.741092
O16	O	-1.582790	0.740925	-0.441686
O17	O	-1.453770	0.740869	-0.570724
C18	C	-1.245391	0.506033	-0.506205
C19	C	-1.128614	0.506051	-0.506218
C20	C	-1.518295	0.779018	-0.506224
C21	C	-1.518365	0.895794	-0.506256
C22	C	-1.128639	0.640598	-0.640366
C23	C	-1.073791	0.707879	-0.707441
C24	C	-0.964069	0.707890	-0.707450
C25	C	-0.909193	0.640610	-0.640380
C26	C	-0.964042	0.573329	-0.573305
C27	C	-1.073766	0.573328	-0.573300
C28	C	-0.964017	0.438778	-0.439164
C29	C	-1.073739	0.438771	-0.439148
C30	C	-0.909141	0.371499	-0.372094
C31	C	-0.963990	0.304222	-0.305012
C32	C	-1.073718	0.304214	-0.305004
C33	C	-1.128587	0.371490	-0.372073
C34	C	-0.792392	0.506064	-0.506251
C35	C	-0.909169	0.506059	-0.506239
C36	C	-1.652814	0.895800	-0.371990
C37	C	-1.720066	0.950663	-0.304873
C38	C	-1.720128	1.060385	-0.304908
C39	C	-1.652932	1.115245	-0.372070
C40	C	-1.585680	1.060382	-0.439187
C41	C	-1.585624	0.950658	-0.439142
C42	C	-1.451238	1.060377	-0.573457
C43	C	-1.451169	0.950655	-0.573418
C44	C	-1.384042	1.115237	-0.640619
C45	C	-1.316783	1.060374	-0.707732
C46	C	-1.316724	0.950645	-0.707693
C47	C	-1.383917	0.895791	-0.640535
C48	C	-1.518422	0.505948	-0.780265
C49	C	-1.518449	0.505905	-0.897042
C50	C	-1.518450	1.232017	-0.506278
C51	C	-1.518490	1.115240	-0.506340
C52	C	-1.652858	0.640221	-1.116465
C53	C	-1.720005	0.707437	-1.061593
C54	C	-1.719970	0.707477	-0.951871
C55	C	-1.652779	0.640296	-0.897019
C56	C	-1.585631	0.573081	-0.951891
C57	C	-1.585676	0.573046	-1.061616
C58	C	-1.451302	0.438690	-0.951914
C59	C	-1.451340	0.438643	-1.061635
C60	C	-1.384110	0.371509	-0.897062
C61	C	-1.316967	0.304286	-0.951934
C62	C	-1.317005	0.304248	-1.061662
C63	C	-1.384193	0.371427	-1.116508
C64	C	-1.518355	0.506076	-0.233264
C65	C	-1.518532	0.505823	-0.116488
H66	H	-1.217980	0.640603	-0.640357
H67	H	-1.384083	0.371550	-0.807720
N68	N	-1.384100	1.233579	-0.640666
H69	H	-1.456176	1.259939	-0.660043
H70	H	-1.364787	1.259999	-0.568573
H71	H	-1.774708	0.762137	-1.106266
N72	N	-1.132976	0.780445	-0.779776
H73	H	-1.210807	0.770237	-0.769592
H74	H	-1.113770	0.855457	-0.763284
H75	H	-0.819852	0.640616	-0.640403
H76	H	-0.919412	0.762670	-0.762074
H77	H	-0.819800	0.371508	-0.372111
N78	N	-0.904806	0.231676	-0.232665
H79	H	-0.826976	0.241894	-0.242848
H80	H	-0.923954	0.247954	-0.157606
H81	H	-1.118369	0.249418	-0.250391
H82	H	-1.774778	0.905986	-0.250192
N83	N	-1.244496	0.231841	-0.892776
H84	H	-1.254658	0.242072	-0.814942
H85	H	-1.260885	0.156800	-0.911955
N86	N	-1.652739	0.777458	-0.371944
H87	H	-1.580659	0.751113	-0.352564
H88	H	-1.705553	0.751115	-0.319222
N89	N	-1.244310	1.119545	-0.780156
H90	H	-1.201690	1.068143	-0.822665
H91	H	-1.287078	1.164989	-0.828831
N92	N	-1.792385	0.779979	-0.892684
H93	H	-1.834952	0.822532	-0.944079
H94	H	-1.841006	0.737233	-0.847164
N95	N	-1.246929	0.371493	-0.372065
H96	H	-1.273389	0.352275	-0.444171
H97	H	-1.273270	0.318673	-0.319352
N98	N	-1.792667	1.119567	-0.232527
H99	H	-1.835228	1.068169	-0.189977
H100	H	-1.749947	1.165167	-0.183889
N101	N	-1.244571	0.231760	-1.120843
H102	H	-1.260901	0.156699	-1.101761
H103	H	-1.254823	0.242019	-1.198656
H104	H	-1.652747	0.640344	-0.807678
N105	N	-1.653007	1.233587	-0.372123
H106	H	-1.705811	1.260018	-0.319418
H107	H	-1.580925	1.260013	-0.352793
N108	N	-1.244192	0.891473	-0.780090
H109	H	-1.201639	0.942880	-0.822638
H110	H	-1.195563	0.846027	-0.737271
H111	H	-1.383868	0.806450	-0.640489
H112	H	-1.652903	0.640185	-1.205806
H113	H	-1.384235	0.371398	-1.205849
