data_functionalizedCrystal
_audit_creation_method	'MofGen! by Chris Wilmer'
_symmetry_space_group_name_H-M	'P1'
_symmetry_Int_Tables_number	1
_symmetry_cell_setting	triclinic
loop_
_symmetry_equiv_pos_as_xyz
  x,y,z
_cell_length_a	14.044220
_cell_length_b	10.868271
_cell_length_c	14.044220
_cell_angle_alpha	90.006070
_cell_angle_beta	93.188878
_cell_angle_gamma	89.999310
loop_
_atom_site_label
_atom_site_type_symbol
_atom_site_fract_x
_atom_site_fract_y
_atom_site_fract_z
O1	O	1.277168	0.102196	0.230168
O2	O	1.777168	0.602196	0.730168
O3	O	1.000496	0.102227	0.221862
O4	O	1.500496	0.602227	0.721862
O5	O	1.134679	0.102200	0.087679
O6	O	1.634679	0.602200	0.587679
O7	O	1.142985	0.102223	0.364351
O8	O	1.642985	0.602223	0.864351
O9	O	1.134667	-0.102445	0.087673
O10	O	1.634667	0.397555	0.587673
O11	O	1.000484	-0.102417	0.221856
O12	O	1.500484	0.397583	0.721856
O13	O	1.277155	-0.102448	0.230161
O14	O	1.777155	0.397552	0.730161
Zn15	Zn	1.138817	-0.134925	0.226007
Zn16	Zn	1.638817	0.365075	0.726007
Zn17	Zn	1.138834	0.134704	0.226016
Zn18	Zn	1.638834	0.634704	0.726016
O19	O	1.142972	-0.102421	0.364344
O20	O	1.642972	0.397579	0.864344
C21	C	0.964868	-0.000091	0.218223
C22	C	1.464868	0.499909	0.718223
C23	C	0.858725	-0.000080	0.207379
C24	C	1.358725	0.499920	0.707379
C25	C	0.664388	-0.000106	0.187553
C26	C	1.164388	0.499894	0.687553
C27	C	0.613258	-0.000105	0.264467
C28	C	1.113258	0.499895	0.764467
C29	C	0.505122	-0.000119	0.253435
C30	C	1.005122	0.499881	0.753435
C31	C	0.772534	-0.000091	0.198583
C32	C	1.272534	0.499909	0.698583
C33	C	1.131037	-0.000122	0.052054
C34	C	1.631037	0.499878	0.552054
C35	C	1.120193	-0.000123	-0.054088
C36	C	1.620193	0.499877	0.445912
C37	C	1.312783	-0.000127	0.233800
C38	C	1.812783	0.499873	0.733800
C39	C	1.418926	-0.000131	0.244645
C40	C	1.918926	0.499869	0.744645
N41	N	1.138813	-0.318939	0.226001
N42	N	1.638813	0.181061	0.726001
C43	C	1.138829	-0.569945	0.226014
C44	C	1.638829	-0.069945	0.726014
C45	C	1.138817	-0.430267	0.226010
C46	C	1.638817	0.069733	0.726010
N47	N	1.138845	0.318718	0.226015
N48	N	1.638845	0.818718	0.726015
C49	C	1.100366	-0.000103	-0.248426
C50	C	1.600366	0.499897	0.251574
C51	C	1.177281	-0.000108	-0.299556
C52	C	1.677281	0.499892	0.200444
C53	C	1.166249	-0.000097	-0.407692
C54	C	1.666249	0.499903	0.092308
C55	C	1.111397	-0.000114	-0.140280
C56	C	1.611397	0.499886	0.359720
C57	C	1.146614	-0.000096	0.399969
C58	C	1.646614	0.499904	0.899969
C59	C	1.157459	-0.000088	0.506112
C60	C	1.657459	0.499912	1.006112
H61	H	0.650697	-0.000092	0.338600
H62	H	1.150697	0.499908	0.838600
H63	H	1.251414	-0.000033	-0.262117
H64	H	1.751414	0.499967	0.237883
O65	O	1.011860	-0.000040	-0.292930
O66	O	1.511860	0.499960	0.207070
C67	C	0.842264	-0.000115	-0.274700
C68	C	1.342264	0.499885	0.225300
C69	C	0.942439	-0.000152	-0.224163
C70	C	1.442439	0.499848	0.275837
H71	H	0.786110	-0.000231	-0.219125
H72	H	1.286110	0.499769	0.280875
H73	H	0.833207	0.085552	-0.321161
H74	H	1.333207	0.585552	0.178839
H75	H	0.833319	-0.085735	-0.321240
H76	H	1.333319	0.414265	0.178760
H77	H	0.951453	0.085410	-0.177574
H78	H	1.451453	0.585410	0.322426
H79	H	0.951450	-0.085875	-0.177761
H80	H	1.451450	0.414125	0.322239
H81	H	0.626951	-0.000119	0.113425
H82	H	1.126951	0.499881	0.613425
