data_functionalizedCrystal
_audit_creation_method	'MofGen! by Chris Wilmer'
_symmetry_space_group_name_H-M	'P1'
_symmetry_Int_Tables_number	1
_symmetry_cell_setting	triclinic
loop_
_symmetry_equiv_pos_as_xyz
  x,y,z
_cell_length_a	23.532407
_cell_length_b	23.532407
_cell_length_c	9.130307
_cell_angle_alpha	89.992076
_cell_angle_beta	90.001167
_cell_angle_gamma	82.848712
loop_
_atom_site_label
_atom_site_type_symbol
_atom_site_fract_x
_atom_site_fract_y
_atom_site_fract_z
O1	O	0.755257	0.069134	-0.121722
O2	O	1.255257	0.569134	0.378278
O3	O	0.589394	0.079137	-0.121747
O4	O	1.089394	0.579137	0.378253
O5	O	0.677327	-0.008796	-0.121707
O6	O	1.177327	0.491204	0.378293
O7	O	0.667324	0.157068	-0.121762
O8	O	1.167324	0.657068	0.378238
O9	O	0.677324	-0.008797	0.121892
O10	O	1.177324	0.491203	0.621892
O11	O	0.589391	0.079137	0.121852
O12	O	1.089391	0.579137	0.621852
O13	O	0.755254	0.069134	0.121877
O14	O	1.255254	0.569134	0.621877
Cu15	Cu	0.672322	0.074135	0.144107
Cu16	Cu	1.172322	0.574135	0.644107
Cu17	Cu	0.672326	0.074136	-0.143977
Cu18	Cu	1.172326	0.574136	0.356023
O19	O	0.667321	0.157067	0.121837
O20	O	1.167321	0.657067	0.621837
C21	C	0.568176	0.078882	0.000050
C22	C	1.068176	0.578882	0.500050
C23	C	0.504959	0.078116	0.000041
C24	C	1.004959	0.578116	0.500041
C25	C	0.238792	0.022921	0.000099
C26	C	0.738792	0.522921	0.500099
C27	C	0.298192	0.023632	0.000099
C28	C	0.798192	0.523632	0.500099
O29	O	0.334937	-0.020153	0.000164
O30	O	0.834937	0.479847	0.500164
N31	N	0.320818	0.075909	0.000071
N32	N	0.820818	0.575909	0.500071
C33	C	0.284041	0.127477	0.000060
C34	C	0.784041	0.627477	0.500060
O35	O	0.308740	0.172007	0.000038
O36	O	0.808740	0.672007	0.500038
C37	C	0.224642	0.126765	0.000071
C38	C	0.724642	0.626765	0.500071
C39	C	0.202019	0.074485	0.000083
C40	C	0.702019	0.574485	0.500083
C41	C	0.216169	-0.029354	0.000114
C42	C	0.716169	0.470646	0.500114
C43	C	0.156772	-0.030066	0.000111
C44	C	0.656772	0.469934	0.500111
C45	C	0.119999	0.021499	0.000095
C46	C	0.619999	0.521499	0.500095
C47	C	0.142623	0.073774	0.000081
C48	C	0.642623	0.573774	0.500081
C49	C	0.187865	0.178333	0.000069
C50	C	0.687865	0.678333	0.500069
C51	C	0.128463	0.177616	0.000082
C52	C	0.628463	0.677616	0.500082
C53	C	0.105840	0.125336	0.000094
C54	C	0.605840	0.625336	0.500094
C55	C	0.046454	0.124627	0.000063
C56	C	0.546454	0.624627	0.500063
N57	N	0.023828	0.072351	0.000090
N58	N	0.523828	0.572351	0.500090
C59	C	0.060600	0.020787	0.000106
C60	C	0.560600	0.520787	0.500106
C61	C	0.408783	0.128968	0.000039
C62	C	0.908783	0.628968	0.500039
C63	C	0.468181	0.129681	0.000017
C64	C	0.968181	0.629681	0.500017
C65	C	0.482328	0.025836	0.000059
C66	C	0.982328	0.525836	0.500059
C67	C	0.422929	0.025124	0.000070
C68	C	0.922929	0.525124	0.500070
C69	C	0.386157	0.076692	0.000066
C70	C	0.886157	0.576692	0.500066
C71	C	-0.064136	0.019297	0.000101
C72	C	0.435864	0.519297	0.500101
C73	C	-0.123538	0.018590	0.000092
C74	C	0.376462	0.518590	0.500092
C75	C	-0.137680	0.122435	0.000058
C76	C	0.362320	0.622435	0.500058
C77	C	-0.078284	0.123142	0.000059
C78	C	0.421716	0.623142	0.500059
C79	C	-0.041512	0.071568	0.000085
C80	C	0.458488	0.571568	0.500085
O81	O	0.009675	0.168390	0.000003
O82	O	0.509675	0.668390	0.500003
O83	O	0.035892	-0.023737	0.000148
O84	O	0.535892	0.476263	0.500148
C85	C	0.677071	-0.030012	0.000096
C86	C	1.177071	0.469988	0.500096
C87	C	0.676305	-0.093229	0.000108
C88	C	1.176305	0.406771	0.500108
C89	C	0.723538	-0.492332	0.000034
C90	C	1.223538	0.007668	0.500034
C91	C	0.722827	-0.551733	0.000023
C92	C	1.222827	-0.051733	0.500023
O93	O	0.766613	-0.588477	-0.000024
O94	O	1.266613	-0.088477	0.499976
N95	N	0.670551	-0.574359	0.000016
N96	N	1.170551	-0.074359	0.500016
C97	C	0.618982	-0.537581	0.000006
C98	C	1.118982	-0.037581	0.500006
O99	O	0.574452	-0.562281	-0.000002
O100	O	1.074452	-0.062281	0.499998
C101	C	0.619695	-0.478182	0.000007
C102	C	1.119695	0.021818	0.500007
C103	C	0.671974	-0.455559	0.000028
C104	C	1.171974	0.044441	0.500028
C105	C	0.775814	-0.469709	0.000055
C106	C	1.275814	0.030291	0.500055
C107	C	0.776525	-0.410313	0.000069
C108	C	1.276525	0.089687	0.500069
C109	C	0.724961	-0.373540	0.000062
C110	C	1.224961	0.126460	0.500062
C111	C	0.672685	-0.396163	0.000042
C112	C	1.172685	0.103837	0.500042
C113	C	0.568127	-0.441406	-0.000014
C114	C	1.068127	0.058594	0.499986
C115	C	0.568843	-0.382003	-0.000015
C116	C	1.068843	0.117997	0.499985
C117	C	0.621123	-0.359381	0.000007
C118	C	1.121123	0.140619	0.500007
C119	C	0.621832	-0.299994	0.000050
C120	C	1.121832	0.200006	0.500050
N121	N	0.674109	-0.277368	0.000057
N122	N	1.174109	0.222632	0.500057
C123	C	0.725673	-0.314141	0.000063
C124	C	1.225673	0.185859	0.500063
C125	C	0.617491	-0.662324	0.000002
C126	C	1.117491	-0.162324	0.500002
C127	C	0.616778	-0.721722	0.000011
C128	C	1.116778	-0.221722	0.500011
C129	C	0.720623	-0.735869	0.000026
C130	C	1.220623	-0.235869	0.500026
C131	C	0.721335	-0.676470	0.000027
C132	C	1.221335	-0.176470	0.500027
C133	C	0.669767	-0.639698	0.000009
C134	C	1.169767	-0.139698	0.500009
C135	C	0.727163	-0.189404	0.000094
C136	C	1.227163	0.310596	0.500094
C137	C	0.727869	-0.130002	0.000114
C138	C	1.227869	0.369998	0.500114
C139	C	0.624025	-0.115860	0.000091
C140	C	1.124025	0.384140	0.500091
C141	C	0.623318	-0.175257	0.000079
C142	C	1.123318	0.324743	0.500079
C143	C	0.674891	-0.212028	0.000075
C144	C	1.174891	0.287972	0.500075
O145	O	0.578069	-0.263215	0.000091
O146	O	1.078069	0.236785	0.500091
O147	O	0.770196	-0.289433	0.000052
O148	O	1.270196	0.210567	0.500052
C149	C	0.776472	0.069389	0.000077
C150	C	1.276472	0.569389	0.500077
C151	C	0.839689	0.070155	0.000076
C152	C	1.339689	0.570155	0.500076
C153	C	0.667577	0.178283	0.000031
C154	C	1.167577	0.678283	0.500031
C155	C	0.668343	0.241500	0.000010
C156	C	1.168343	0.741500	0.500010
N157	N	0.672324	0.074134	0.346730
N158	N	1.172324	0.574134	0.846730
N159	N	0.672328	0.074132	-0.346600
N160	N	1.172328	0.574132	0.153400
C161	C	0.750220	-0.003709	0.346756
C162	C	1.250220	0.496291	0.846756
C163	C	0.789172	-0.042629	0.423435
C164	C	1.289172	0.457371	0.923435
C165	C	0.789178	-0.042629	0.576769
C166	C	1.289178	0.457371	1.076769
C167	C	0.750226	-0.003707	0.653426
C168	C	1.250226	0.496293	1.153426
C169	C	0.711275	0.035213	0.576746
C170	C	1.211275	0.535213	1.076746
C171	C	0.711274	0.035210	0.423410
C172	C	1.211274	0.535210	0.923410
C173	C	0.633377	0.113052	0.576721
C174	C	1.133377	0.613052	1.076721
C175	C	0.633373	0.113056	0.423387
C176	C	1.133373	0.613056	0.923387
C177	C	0.594425	0.151975	0.653378
C178	C	1.094425	0.651975	1.153378
C179	C	0.555475	0.190898	0.576699
C180	C	1.055475	0.690898	1.076699
C181	C	0.555471	0.190897	0.423356
C182	C	1.055471	0.690897	0.923356
C183	C	0.594421	0.151976	0.346708
C184	C	1.094421	0.651976	0.846708
H185	H	0.512280	-0.016150	0.000073
H186	H	1.012280	0.483850	0.500073
N187	N	-0.146636	-0.034820	0.000095
N188	N	0.353364	0.465180	0.500095
N189	N	-0.113792	-0.080854	0.000110
N190	N	0.386208	0.419146	0.500110
H191	H	-0.130103	-0.118574	0.000113
H192	H	0.369897	0.381426	0.500113
N193	N	-0.055180	0.176547	0.000054
N194	N	0.444820	0.676547	0.500054
N195	N	-0.066556	0.211229	0.102730
N196	N	0.433444	0.711229	0.602730
H197	H	-0.050243	0.248948	0.102742
H198	H	0.449757	0.748948	0.602742
N199	N	0.564812	-0.624763	-0.000026
N200	N	1.064812	-0.124763	0.499974
N201	N	0.529970	-0.626658	-0.102716
N202	N	1.029970	-0.126658	0.397284
H203	H	0.492765	-0.600133	-0.102741
H204	H	0.992765	-0.100133	0.397259
H205	H	0.098525	0.219610	0.000085
H206	H	0.598525	0.719610	0.500085
H207	H	-0.167631	0.164417	0.000038
H208	H	0.332369	0.664417	0.500038
H209	H	0.750224	-0.003708	0.221903
H210	H	1.250224	0.496292	0.721903
N211	N	0.253726	-0.082031	0.000094
N212	N	0.753726	0.417969	0.500094
N213	N	0.288440	-0.093222	-0.102602
N214	N	0.788440	0.406778	0.397398
H215	H	0.314962	-0.130428	-0.102628
H216	H	0.814962	0.369572	0.397372
N217	N	0.828895	-0.082425	0.345061
N218	N	1.328895	0.417575	0.845061
N219	N	0.828347	-0.135053	0.362213
N220	N	1.328347	0.364947	0.862213
H221	H	0.856376	-0.163174	0.306832
H222	H	1.356376	0.336826	0.806832
H223	H	0.750229	-0.003714	0.778278
H224	H	1.250229	0.496286	1.278278
N225	N	0.594437	0.151979	0.190083
N226	N	1.094437	0.651979	0.690083
N227	N	0.629222	0.117232	0.121664
N228	N	1.129222	0.617232	0.621664
H229	H	0.629238	0.117234	0.011044
H230	H	1.129238	0.617234	0.511044
H231	H	0.582043	-0.085909	0.000091
H232	H	1.082043	0.414091	0.500091
H233	H	0.770443	-0.111587	0.000135
H234	H	1.270443	0.388413	0.500135
H235	H	0.523761	0.222584	0.639123
H236	H	1.023761	0.722584	1.139123
H237	H	0.769159	-0.219337	0.000085
H238	H	1.269159	0.280663	0.500085
H239	H	0.820894	-0.074323	0.639201
H240	H	1.320894	0.425677	1.139201
N241	N	0.371231	0.181653	0.000028
N242	N	0.871231	0.681653	0.500028
N243	N	0.391447	0.228321	0.000005
N244	N	0.891447	0.728321	0.500005
H245	H	0.364929	0.265530	-0.000000
H246	H	0.864929	0.765530	0.500000
N247	N	0.210952	0.231742	0.000081
N248	N	0.710952	0.731742	0.500081
N249	N	0.199571	0.266420	0.102765
N250	N	0.699571	0.766420	0.602765
H251	H	0.215873	0.304144	0.102778
H252	H	0.715873	0.804144	0.602778
N253	N	0.829933	-0.387219	0.000085
N254	N	1.329933	0.112781	0.500085
N255	N	0.875964	-0.420067	0.000085
N256	N	1.375964	0.079933	0.500085
H257	H	0.913687	-0.403761	0.000091
H258	H	1.413687	0.096239	0.500091
N259	N	0.828496	-0.507258	0.000051
N260	N	1.328496	-0.007258	0.500051
N261	N	0.875162	-0.487039	0.000064
N262	N	1.375162	0.012961	0.500064
H263	H	0.912372	-0.513555	0.000069
H264	H	1.412372	-0.013555	0.500069
H265	H	0.580747	-0.193677	0.000102
H266	H	1.080747	0.306323	0.500102
N267	N	0.515674	0.230654	0.345057
N268	N	1.015674	0.730654	0.845057
N269	N	0.480902	0.265398	0.413525
N270	N	0.980902	0.765398	0.913525
H271	H	0.452793	0.293477	0.358233
H272	H	0.952793	0.793477	0.858233
N273	N	0.594418	0.151980	0.810004
N274	N	1.094418	0.651980	1.310004
N275	N	0.559636	0.186730	0.878425
N276	N	1.059636	0.686730	1.378425
H277	H	0.559628	0.186735	0.989044
H278	H	1.059628	0.686735	1.489044
N279	N	0.774737	-0.653363	0.000070
N280	N	1.274737	-0.153363	0.500070
N281	N	0.809418	-0.664742	0.102766
N282	N	1.309418	-0.164742	0.602766
H283	H	0.847135	-0.648425	0.102798
H284	H	1.347135	-0.148425	0.602798
N285	N	-0.026581	-0.033383	0.000151
N286	N	0.473419	0.466617	0.500151
N287	N	-0.028481	-0.068227	0.102847
N288	N	0.471519	0.431773	0.602847
H289	H	-0.001957	-0.105432	0.102879
H290	H	0.498043	0.394568	0.602879
N291	N	0.133678	-0.083474	0.000124
N292	N	0.633678	0.416526	0.500124
N293	N	0.166527	-0.129505	0.000141
N294	N	0.666527	0.370495	0.500141
H295	H	0.150221	-0.167228	0.000153
H296	H	0.650221	0.332772	0.500153
N297	N	0.773303	-0.773429	0.000034
N298	N	1.273303	-0.273429	0.500034
N299	N	0.808149	-0.771543	0.102720
N300	N	1.308149	-0.271543	0.602720
H301	H	0.845352	-0.798069	0.102727
H302	H	1.345352	-0.298069	0.602727
N303	N	0.563376	-0.744827	0.000038
N304	N	1.063376	-0.244827	0.500038
N305	N	0.528693	-0.733461	0.102723
N306	N	1.028693	-0.233461	0.602723
H307	H	0.490975	-0.749777	0.102738
H308	H	0.990975	-0.249777	0.602738
N309	N	0.399833	-0.028283	0.000080
N310	N	0.899833	0.471717	0.500080
N311	N	0.432679	-0.074316	0.000086
N312	N	0.932679	0.425684	0.500086
H313	H	0.416371	-0.112037	0.000095
H314	H	0.916371	0.387963	0.500095
H315	H	0.486595	0.172252	-0.000013
H316	H	0.986595	0.672252	0.499987
N317	N	0.514719	-0.464495	-0.000040
N318	N	1.014719	0.035505	0.499960
N319	N	0.468688	-0.431644	-0.000062
N320	N	0.968688	0.068356	0.499938
H321	H	0.430965	-0.447949	-0.000085
H322	H	0.930965	0.052051	0.499915
N323	N	0.516161	-0.344450	-0.000051
N324	N	1.016161	0.155550	0.499949
N325	N	0.469491	-0.364662	-0.000079
N326	N	0.969491	0.135338	0.499921
H327	H	0.432284	-0.338142	-0.000106
H328	H	0.932284	0.161858	0.499894
