data_functionalizedCrystal
_audit_creation_method	'MofGen! by Chris Wilmer'
_symmetry_space_group_name_H-M	'P1'
_symmetry_Int_Tables_number	1
_symmetry_cell_setting	triclinic
loop_
_symmetry_equiv_pos_as_xyz
  x,y,z
_cell_length_a	12.759401
_cell_length_b	12.759400
_cell_length_c	12.759393
_cell_angle_alpha	90.030447
_cell_angle_beta	90.019437
_cell_angle_gamma	90.013177
loop_
_atom_site_label
_atom_site_type_symbol
_atom_site_fract_x
_atom_site_fract_y
_atom_site_fract_z
Zn1	Zn	1.606267	-0.418204	0.594016
Zn2	Zn	1.606166	-0.593923	0.418339
Zn3	Zn	1.430569	-0.418259	0.418352
Zn4	Zn	1.430562	-0.593841	0.593978
O5	O	1.518391	-0.506057	0.506171
O6	O	1.753274	-0.441525	0.570722
O7	O	1.582833	-0.570677	0.271320
O8	O	1.453920	-0.271230	0.441676
O9	O	1.753200	-0.570625	0.441654
O10	O	1.583005	-0.271190	0.570735
O11	O	1.453822	-0.441618	0.271330
O12	O	1.283547	-0.441539	0.441639
O13	O	1.453909	-0.570486	0.741004
O14	O	1.283542	-0.570539	0.570670
O15	O	1.582998	-0.441446	0.741032
O16	O	1.582826	-0.740933	0.441617
O17	O	1.453811	-0.740873	0.570658
C18	C	1.245423	-0.506037	0.506153
C19	C	1.128647	-0.506053	0.506170
C20	C	0.964085	-0.573343	0.573269
C21	C	1.073809	-0.573329	0.573252
C22	C	1.073755	-0.438794	0.439093
C23	C	0.964033	-0.438814	0.439105
C24	C	0.909253	-0.640615	0.640363
C25	C	0.964137	-0.707876	0.707438
C26	C	1.073861	-0.707863	0.707421
C27	C	1.128701	-0.640588	0.640329
C28	C	1.518336	-0.779024	0.506155
C29	C	1.518408	-0.895801	0.506183
C30	C	1.585589	-0.950562	0.573439
C31	C	1.585638	-1.060286	0.573465
C32	C	1.451322	-1.060478	0.438969
C33	C	1.451269	-0.950756	0.438949
C34	C	1.652728	-0.895607	0.640673
C35	C	1.719915	-0.950369	0.707933
C36	C	1.719964	-1.060093	0.707959
C37	C	1.652826	-1.115055	0.640724
C38	C	1.792424	-0.506078	0.506191
C39	C	1.909201	-0.506087	0.506199
C40	C	1.518464	-0.505951	0.780205
C41	C	1.518496	-0.505906	0.896982
C42	C	1.518475	-0.232023	0.506211
C43	C	1.518510	-0.115247	0.506228
C44	C	1.518378	-0.506086	0.233204
C45	C	1.518550	-0.505836	0.116428
C46	C	1.585722	-0.438708	0.951860
C47	C	1.585747	-0.438670	1.061584
C48	C	1.451316	-0.573036	1.061542
C49	C	1.451287	-0.573068	0.951820
C50	C	1.652930	-0.371545	0.897022
C51	C	1.720163	-0.304343	0.951900
C52	C	1.720188	-0.304305	1.061624
C53	C	1.652980	-0.371469	1.116470
H54	H	1.218046	-0.640589	0.640314
H55	H	1.774662	-1.104677	0.762734
C56	C	1.793760	-0.889916	0.781892
C57	C	1.793713	-0.769226	0.781868
C58	C	1.867559	-0.708775	0.855830
C59	C	1.941453	-0.769015	0.929817
C60	C	1.941503	-0.889712	0.929844
C61	C	1.867656	-0.950162	0.855881
H62	H	1.739011	-0.724627	0.727097
H63	H	1.867522	-0.619427	0.855810
H64	H	1.996118	-0.724266	0.984568
H65	H	1.996205	-0.934311	0.984615
H66	H	1.867694	-1.039510	0.855902
C67	C	1.377352	-0.647008	0.891457
C68	C	1.422849	-0.729519	0.816020
C69	C	1.348915	-0.803466	0.755662
C70	C	1.229483	-0.794903	0.770740
C71	C	1.183980	-0.712388	0.846179
C72	C	1.257915	-0.638441	0.906538
H73	H	1.511265	-0.735861	0.804856
H74	H	1.382600	-0.864549	0.699816
H75	H	1.174753	-0.849643	0.726059
H76	H	1.095565	-0.706046	0.857344
H77	H	1.224230	-0.577359	0.962383
C78	C	1.134077	-0.364789	0.365304
C79	C	1.209530	-0.282345	0.410968
C80	C	1.269852	-0.208335	0.337182
C81	C	1.254721	-0.216768	0.217732
C82	C	1.179265	-0.299215	0.172061
C83	C	1.118943	-0.373226	0.245848
H84	H	1.220734	-0.276099	0.499398
H85	H	1.325709	-0.147302	0.370991
H86	H	1.299374	-0.161982	0.163111
H87	H	1.168061	-0.305461	0.083632
H88	H	1.063085	-0.434258	0.212039
H89	H	1.652859	-1.204400	0.640762
H90	H	0.919345	-0.384042	0.384497
H91	H	1.118545	-0.762637	0.762031
H92	H	0.819910	-0.640632	0.640386
C93	C	1.377374	-0.890510	0.364964
C94	C	1.303534	-0.950953	0.290999
C95	C	1.229635	-0.890706	0.217016
C96	C	1.229575	-0.770016	0.216998
C97	C	1.303418	-0.709566	0.290966
C98	C	1.377317	-0.769813	0.364949
H99	H	1.303576	-1.040301	0.291010
H100	H	1.174971	-0.935456	0.162260
H101	H	1.174870	-0.725418	0.162232
H102	H	1.303376	-0.620218	0.290956
H103	H	1.431981	-0.725063	0.419705
C104	C	1.794084	-0.230462	0.891575
C105	C	1.868027	-0.156540	0.951943
C106	C	1.941950	-0.082656	0.891621
C107	C	1.941929	-0.082693	0.770931
C108	C	1.867983	-0.156618	0.710556
C109	C	1.794060	-0.230502	0.770878
H110	H	1.868045	-0.156510	1.041291
H111	H	1.996689	-0.027932	0.936315
H112	H	1.996650	-0.028000	0.726277
H113	H	1.867965	-0.156649	0.621208
H114	H	1.739321	-0.285226	0.726184
H115	H	0.919479	-0.762654	0.762057
C116	C	1.794136	-0.230384	1.121993
C117	C	1.748662	-0.147866	1.197436
C118	C	1.822617	-0.073947	1.257803
C119	C	1.942046	-0.082545	1.242728
C120	C	1.987527	-0.165067	1.167283
C121	C	1.913572	-0.238986	1.106915
H122	H	1.660248	-0.141498	1.208598
H123	H	1.788949	-0.012859	1.313653
H124	H	1.996792	-0.027826	1.287416
H125	H	2.075941	-0.171435	1.156121
H126	H	1.947240	-0.300074	1.051065
H127	H	1.396599	-0.627718	1.106206
H128	H	1.396662	-1.105237	0.384229
H129	H	1.652698	-0.806264	0.640657
H130	H	1.652920	-0.371571	0.807679
H131	H	1.652994	-0.371421	1.205815
