data_functionalizedCrystal
_audit_creation_method	'MofGen! by Chris Wilmer'
_symmetry_space_group_name_H-M	'P1'
_symmetry_Int_Tables_number	1
_symmetry_cell_setting	triclinic
loop_
_symmetry_equiv_pos_as_xyz
  x,y,z
_cell_length_a	23.096457
_cell_length_b	23.096457
_cell_length_c	19.851628
_cell_angle_alpha	60.005174
_cell_angle_beta	89.999732
_cell_angle_gamma	59.999106
loop_
_atom_site_label
_atom_site_type_symbol
_atom_site_fract_x
_atom_site_fract_y
_atom_site_fract_z
Zr1	Zr	0.557794	0.633716	-0.088398
O2	O	0.465350	0.754494	-0.195948
O3	O	0.586131	0.512931	-0.055430
O4	O	0.586138	0.633704	-0.195953
O5	O	0.465340	0.633732	0.055424
O6	O	0.681420	0.633702	-0.195955
O7	O	0.465343	0.633721	-0.055425
O8	O	0.681408	0.417660	0.055415
O9	O	0.465352	0.849774	-0.195946
O10	O	0.669327	0.562612	-0.041369
O11	O	0.598217	0.562622	0.041358
O12	O	0.598225	0.704817	-0.124090
O13	O	0.527115	0.704827	-0.041363
Zr14	Zr	0.709754	0.633730	0.088389
Zr15	Zr	0.709758	0.633712	-0.088402
Zr16	Zr	0.557790	0.633733	0.088393
Zr17	Zr	0.557798	0.785675	-0.088395
Zr18	Zr	0.709750	0.481770	0.088387
O19	O	0.681417	0.754515	0.055421
O20	O	0.681423	0.754489	-0.195953
O21	O	0.465343	0.754520	0.055426
O22	O	0.802198	0.512951	0.195939
O23	O	0.802205	0.512926	-0.055435
O24	O	0.586125	0.512956	0.195944
O25	O	0.802208	0.633713	-0.055433
O26	O	0.681410	0.633741	0.195944
O27	O	0.586128	0.633744	0.195947
O28	O	0.802205	0.633724	0.055416
O29	O	0.586143	0.849771	-0.195949
O30	O	0.681405	0.417675	0.195940
O31	O	0.802196	0.417672	0.195937
O32	O	0.802200	0.417658	0.055412
O33	O	0.465348	0.849788	-0.055421
O34	O	0.586140	0.849785	-0.055424
O35	O	0.669323	0.562629	0.124081
O36	O	0.740433	0.562619	0.041354
O37	O	0.669331	0.704824	-0.041367
O38	O	0.598221	0.704834	0.041360
C39	C	0.633769	0.443645	-0.000008
C40	C	0.633768	0.379134	-0.000009
C41	C	0.581296	-0.028902	-0.061070
C42	C	0.581290	0.031717	-0.061070
C43	C	0.633779	0.009544	-0.000005
C44	C	0.686268	-0.073257	0.061077
C45	C	0.686269	-0.133873	0.061079
N46	N	0.696027	0.065646	0.018483
N47	N	0.696024	0.123233	0.018476
C48	C	0.633780	0.192174	-0.000008
N49	N	0.571536	0.201362	-0.018499
N50	N	0.571539	0.143772	-0.018496
C51	C	0.633784	0.075266	-0.000000
C52	C	0.581285	0.340694	-0.061081
C53	C	0.581278	0.401312	-0.061075
C54	C	0.686262	0.296335	0.061068
C55	C	0.686263	0.235720	0.061065
C56	C	0.633775	0.257905	-0.000014
C57	C	0.443690	0.633727	0.000000
C58	C	0.379177	0.633729	0.000002
C59	C	0.348876	0.633729	-0.061069
C60	C	0.288263	0.633721	-0.061069
C61	C	0.257947	0.633730	-0.000004
C62	C	0.288257	0.633726	0.061078
C63	C	0.348873	0.633725	0.061081
N64	N	0.139595	0.680088	0.018484
N65	N	0.082012	0.680090	0.018476
C66	C	0.075317	0.633731	-0.000008
N67	N	0.128375	0.587379	-0.018500
N68	N	0.185961	0.587380	-0.018497
C69	C	0.192220	0.633731	-0.000000
C70	C	-0.020706	0.633721	-0.061083
C71	C	-0.081317	0.633709	-0.061077
C72	C	-0.081326	0.633722	0.061067
C73	C	-0.020712	0.633726	0.061065
C74	C	0.009592	0.633730	-0.000015
C75	C	0.823858	0.633718	-0.000009
C76	C	0.888371	0.633717	-0.000011
C77	C	0.633780	0.633700	-0.221143
C78	C	0.633782	0.633693	-0.296195
C79	C	0.633779	0.823801	-0.000001
C80	C	0.633780	0.888312	0.000000
C81	C	0.672547	0.556175	-0.432458
C82	C	0.605687	0.594934	-0.499909
C83	C	0.633775	0.633714	-0.433627
C84	C	0.700621	0.594950	-0.499911
C85	C	0.633774	0.633729	-0.566376
C86	C	0.566875	0.672473	-0.500089
C87	C	0.661858	0.672478	-0.500080
C88	C	0.594957	0.711294	-0.567544
C89	C	0.633776	0.633703	-0.357152
C90	C	0.633765	0.633746	-0.642853
C91	C	0.633768	0.633745	0.221134
C92	C	0.633766	0.633753	0.296187
C93	C	0.823853	0.443640	-0.000012
C94	C	0.888365	0.379128	-0.000015
C95	C	0.633763	0.443667	0.221131
C96	C	0.633760	0.379164	0.296182
C97	C	0.823848	0.443662	0.221126
C98	C	0.888357	0.379158	0.296176
C99	C	0.443700	0.823783	-0.221135
C100	C	0.379191	0.888288	-0.296184
C101	C	0.443695	0.823805	0.000004
C102	C	0.379183	0.888318	0.000007
C103	C	0.633784	0.823778	-0.221139
C104	C	0.633788	0.888282	-0.296191
C105	C	0.881543	0.348829	-0.043205
C106	C	0.942152	0.288221	-0.043224
C107	C	1.009583	0.257909	-0.000048
C108	C	1.016403	0.288214	0.043143
C109	C	0.955794	0.348825	0.043157
C110	C	0.670875	0.348876	0.374615
C111	C	0.670869	0.288277	0.445141
C112	C	0.633752	0.257963	0.437231
C113	C	0.596632	0.288256	0.358790
C114	C	0.596634	0.348859	0.288266
C115	C	0.955776	0.348860	0.288237
C116	C	1.016395	0.288260	0.358748
C117	C	1.009594	0.257954	0.437196
C118	C	0.942167	0.288257	0.445133
C119	C	0.881549	0.348860	0.374623
C120	C	0.311772	0.918592	-0.288246
C121	C	0.251153	0.979212	-0.358756
C122	C	0.257954	1.009521	-0.437204
C123	C	0.325381	0.979214	-0.445141
C124	C	0.385999	0.918600	-0.374632
C125	C	0.386005	0.918623	0.043189
C126	C	0.325395	0.979248	0.043188
C127	C	0.257965	1.009561	0.000010
C128	C	0.251145	0.979253	-0.043177
C129	C	0.311754	0.918634	-0.043181
C130	C	0.670913	0.918577	-0.288255
C131	C	0.670930	0.979176	-0.358767
C132	C	0.633818	1.009484	-0.437214
C133	C	0.596692	0.979183	-0.445148
C134	C	0.596680	0.918580	-0.374637
H135	H	0.538541	0.099134	-0.110793
H136	H	1.071292	0.263593	0.352271
H137	H	0.701100	0.373551	0.381071
H138	H	0.330911	1.003900	-0.509022
Br139	Br	0.790038	0.389955	-0.101810
Br140	Br	0.757499	-0.103351	0.143957
H141	H	0.208620	1.058921	0.000020
Br142	Br	1.091831	0.175651	-0.000075
Br143	Br	0.546323	1.020330	-0.551619
H144	H	0.685630	0.705220	-0.499373
H145	H	0.936639	0.263573	0.509015
H146	H	1.058958	0.208606	0.494603
Br147	Br	0.721250	0.247176	0.551586
H148	H	0.705280	0.490614	-0.374624
H149	H	0.701133	0.893910	-0.224386
H150	H	0.538554	-0.010832	-0.110804
Br151	Br	0.757502	-0.246235	0.143969
Br152	Br	0.794843	0.540305	-0.501013
Br153	Br	0.790054	0.389967	0.385412
H154	H	0.196236	1.003944	-0.078332
H155	H	0.306220	0.893918	-0.224376
Br156	Br	0.159655	1.020329	-0.347965
H157	H	1.071312	0.263526	0.078295
H158	H	0.701161	1.003841	-0.352290
Br159	Br	0.932880	0.247104	-0.101842
H160	H	0.208590	1.058877	-0.494611
Br161	Br	0.965065	0.389934	0.101782
H162	H	0.566412	0.263566	0.352362
H163	H	0.581931	0.562164	-0.500585
Br164	Br	0.302483	0.877509	-0.101787
Br165	Br	0.633755	0.175716	0.532952
H166	H	0.566413	0.373511	0.224405
H167	H	0.373545	0.633725	0.110814
Br168	Br	0.334668	1.020365	0.101806
Br169	Br	0.965027	0.389981	0.181781
H170	H	0.566445	0.893921	-0.381110
Br171	Br	0.477494	0.877475	-0.385420
H172	H	0.633834	1.058831	-0.494622
Br173	Br	0.510053	0.370796	-0.143971
Br174	Br	0.757494	0.266235	0.143950
Br175	Br	0.510036	0.513673	-0.143957
Br176	Br	0.757496	0.123360	0.143951
H177	H	0.440904	0.893946	0.078355
H178	H	0.003970	0.633721	-0.110815
Br179	Br	0.390006	0.633729	-0.143958
H180	H	0.510317	0.705222	-0.499491
Br181	Br	0.247134	0.633719	-0.143958
H182	H	0.263571	0.633731	0.110800
H183	H	-0.106007	0.633725	0.110790
Br184	Br	0.020414	0.633730	0.143949
Br185	Br	-0.122438	0.633698	-0.143960
H186	H	0.562123	0.776911	-0.625282
