data_functionalizedCrystal
_audit_creation_method	'MofGen! by Chris Wilmer'
_symmetry_space_group_name_H-M	'P1'
_symmetry_Int_Tables_number	1
_symmetry_cell_setting	triclinic
loop_
_symmetry_equiv_pos_as_xyz
  x,y,z
_cell_length_a	27.732048
_cell_length_b	16.109298
_cell_length_c	15.186229
_cell_angle_alpha	90.001652
_cell_angle_beta	90.002148
_cell_angle_gamma	83.051421
loop_
_atom_site_label
_atom_site_type_symbol
_atom_site_fract_x
_atom_site_fract_y
_atom_site_fract_z
O1	O	0.641340	0.098925	-0.073106
O2	O	1.141340	0.598925	0.426894
O3	O	0.500609	0.113967	-0.073131
O4	O	1.000609	0.613967	0.426869
O5	O	0.574841	-0.014633	-0.073124
O6	O	1.074841	0.485367	0.426876
O7	O	0.567108	0.227525	-0.073113
O8	O	1.067108	0.727525	0.426887
O9	O	0.574836	-0.014634	0.073334
O10	O	1.074836	0.485366	0.573334
O11	O	0.500604	0.113965	0.073327
O12	O	1.000604	0.613965	0.573327
O13	O	0.641335	0.098924	0.073352
O14	O	1.141335	0.598924	0.573352
Zn15	Zn	0.570969	0.106444	0.096592
Zn16	Zn	1.070969	0.606444	0.596592
Zn17	Zn	0.570975	0.106447	-0.096371
Zn18	Zn	1.070975	0.606447	0.403629
O19	O	0.567103	0.227524	0.073345
O20	O	1.067103	0.727524	0.573345
C21	C	0.482598	0.113651	0.000095
C22	C	0.982598	0.613651	0.500095
C23	C	0.428940	0.112700	0.000084
C24	C	0.928940	0.612700	0.500084
C25	C	0.574526	-0.045605	0.000101
C26	C	1.074526	0.454395	0.500101
C27	C	0.573587	-0.137888	0.000091
C28	C	1.073587	0.362112	0.500091
C29	C	0.570528	-0.436918	-0.079725
C30	C	1.070528	0.063082	0.420275
C31	C	0.571416	-0.350210	-0.079731
C32	C	1.071416	0.149790	0.420269
C33	C	0.571418	-0.350197	0.079945
C34	C	1.071418	0.149803	0.579945
C35	C	0.570533	-0.436905	0.079950
C36	C	1.070533	0.063095	0.579950
C37	C	0.570085	-0.480263	0.000112
C38	C	1.070085	0.019737	0.500112
C39	C	0.571859	-0.306846	0.000101
C40	C	1.071859	0.193154	0.500101
C41	C	0.572822	-0.212832	0.000095
C42	C	1.072822	0.287168	0.500095
C43	C	0.569123	-0.574283	0.000118
C44	C	1.069123	-0.074283	0.500118
C45	C	0.090417	0.182708	0.000126
C46	C	0.590417	0.682708	0.500126
C47	C	-0.111257	0.179181	0.000134
C48	C	0.388743	0.679181	0.500134
O49	O	-0.142245	0.243199	0.000175
O50	O	0.357755	0.743199	0.500175
N51	N	-0.130700	0.102926	0.000128
N52	N	0.369300	0.602926	0.500128
C53	C	-0.099720	0.027548	0.000127
C54	C	0.400280	0.527548	0.500127
O55	O	-0.120884	-0.037392	0.000132
O56	O	0.379116	0.462608	0.500132
C57	C	0.101953	0.031077	0.000126
C58	C	0.601953	0.531077	0.500126
C59	C	0.121393	0.107336	0.000122
C60	C	0.621393	0.607336	0.500122
C61	C	0.109857	0.258962	0.000123
C62	C	0.609857	0.758962	0.500123
C63	C	0.160273	0.259843	0.000116
C64	C	0.660273	0.759843	0.500116
C65	C	0.191248	0.184471	0.000112
C66	C	0.691248	0.684471	0.500112
C67	C	0.171808	0.108217	0.000115
C68	C	0.671808	0.608217	0.500115
C69	C	0.132932	-0.044300	0.000131
C70	C	0.632932	0.455700	0.500131
C71	C	0.183353	-0.043411	0.000133
C72	C	0.683353	0.456589	0.500133
C73	C	0.202793	0.032848	0.000129
C74	C	0.702793	0.532848	0.500129
C75	C	0.253200	0.033726	0.000105
C76	C	0.753200	0.533726	0.500105
N77	N	0.272642	0.109981	0.000110
N78	N	0.772642	0.609981	0.500110
C79	C	0.241666	0.185353	0.000114
C80	C	0.741666	0.685353	0.500114
C81	C	-0.205602	0.025701	0.000126
C82	C	0.294398	0.525701	0.500126
C83	C	-0.256020	0.024819	0.000125
C84	C	0.243980	0.524819	0.500125
C85	C	-0.267554	0.176452	0.000133
C86	C	0.232446	0.676452	0.500133
C87	C	-0.217135	0.177333	0.000128
C88	C	0.282865	0.677333	0.500128
C89	C	-0.186159	0.101956	0.000131
C90	C	0.313841	0.601956	0.500131
C91	C	0.347543	0.187198	0.000099
C92	C	0.847543	0.687198	0.500099
C93	C	0.397964	0.188072	0.000088
C94	C	0.897964	0.688072	0.500088
C95	C	0.409493	0.036440	0.000085
C96	C	0.909493	0.536440	0.500085
C97	C	0.359077	0.035565	0.000091
C98	C	0.859077	0.535565	0.500091
C99	C	0.328103	0.110951	0.000101
C100	C	0.828103	0.610951	0.500101
O101	O	0.284216	-0.030257	0.000074
O102	O	0.784216	0.469743	0.500074
O103	O	0.262840	0.250284	0.000128
O104	O	0.762840	0.750284	0.500128
C105	C	0.040001	0.181827	0.000133
C106	C	0.540001	0.681827	0.500133
C107	C	0.020562	0.105574	0.000135
C108	C	0.520562	0.605574	0.500135
C109	C	0.051537	0.030202	0.000132
C110	C	0.551537	0.530202	0.500132
C111	C	-0.029857	0.104692	0.000134
C112	C	0.470143	0.604692	0.500134
C113	C	-0.060832	0.180064	0.000138
C114	C	0.439168	0.680064	0.500138
C115	C	-0.041390	0.256318	0.000143
C116	C	0.458610	0.756318	0.500143
C117	C	0.009026	0.257199	0.000136
C118	C	0.509026	0.757199	0.500136
C119	C	0.032095	-0.046052	0.000127
C120	C	0.532095	0.453948	0.500127
C121	C	-0.018321	-0.046927	0.000132
C122	C	0.481679	0.453073	0.500132
C123	C	-0.049297	0.028445	0.000136
C124	C	0.450703	0.528445	0.500136
C125	C	0.659346	0.099240	0.000125
C126	C	1.159346	0.599240	0.500125
C127	C	0.713004	0.100191	0.000129
C128	C	1.213004	0.600191	0.500129
C129	C	0.567418	0.258496	0.000118
C130	C	1.067418	0.758496	0.500118
C131	C	0.568357	0.350779	0.000122
C132	C	1.068357	0.850779	0.500122
N133	N	0.570968	0.106442	0.228285
N134	N	1.070968	0.606442	0.728285
N135	N	0.570980	0.106442	-0.228064
N136	N	1.070980	0.606442	0.271936
C137	C	0.603849	0.049517	0.454011
C138	C	1.103849	0.549517	0.954011
C139	C	0.603850	0.049515	0.546201
C140	C	1.103850	0.549515	1.046201
C141	C	0.538095	0.163370	0.546204
C142	C	1.038095	0.663370	1.046204
C143	C	0.538092	0.163367	0.454016
C144	C	1.038092	0.663367	0.954016
C145	C	0.570971	0.106442	0.407922
C146	C	1.070971	0.606442	0.907922
C147	C	0.570976	0.106442	0.592299
C148	C	1.070976	0.606442	1.092299
C149	C	0.570978	0.106441	0.692255
C150	C	1.070978	0.606441	1.192255
C151	C	0.570970	0.106442	0.307959
C152	C	1.070970	0.606442	0.807959
H153	H	0.570163	-0.472218	-0.144734
H154	H	1.070163	0.027782	0.355266
N155	N	0.502637	0.224765	0.595926
N156	N	1.002637	0.724765	1.095926
H157	H	0.521103	0.261359	0.634172
H158	H	1.021103	0.761359	1.134172
H159	H	0.481815	0.260769	0.552685
H160	H	0.981815	0.760769	1.052685
H161	H	0.571781	-0.314884	0.144945
H162	H	1.071781	0.185116	0.644945
H163	H	0.511317	0.209723	0.416487
H164	H	1.011317	0.709723	0.916487
N165	N	0.570060	-0.483664	0.166064
N166	N	1.070060	0.016336	0.666064
H167	H	0.570475	-0.443041	0.216640
H168	H	1.070475	0.056959	0.716640
H169	H	0.539747	-0.512515	0.169543
H170	H	1.039747	-0.012515	0.669543
N171	N	0.571889	-0.303445	-0.165833
N172	N	1.071889	0.196555	0.334167
H173	H	0.601679	-0.325660	-0.200743
H174	H	1.101679	0.174340	0.299257
H175	H	0.541767	-0.311417	-0.200664
H176	H	1.041767	0.188583	0.299336
N177	N	0.418930	0.270326	0.000075
N178	N	0.918930	0.770326	0.500075
H179	H	0.391654	0.317938	0.000080
H180	H	0.891654	0.817938	0.500080
H181	H	0.439602	0.274000	0.054364
H182	H	0.939602	0.774000	0.554364
H183	H	-0.034144	-0.109031	0.000128
H184	H	0.465856	0.390969	0.500128
H185	H	0.024848	0.319298	0.000135
H186	H	0.524848	0.819298	0.500135
H187	H	0.630622	0.003161	0.583724
H188	H	1.130622	0.503161	1.083724
H189	H	0.343249	-0.026532	0.000081
H190	H	0.843249	0.473468	0.500081
H191	H	-0.066619	0.317689	0.000143
H192	H	0.433381	0.817689	0.500143
N193	N	0.639298	-0.011900	0.404297
N194	N	1.139298	0.488100	0.904297
H195	H	0.634307	-0.003269	0.338902
H196	H	1.134307	0.496731	0.838902
H197	H	0.673589	-0.002719	0.420402
H198	H	1.173589	0.497281	0.920402
H199	H	0.322329	0.248584	0.000110
H200	H	0.822329	0.748584	0.500110
H201	H	0.176095	0.321941	0.000113
H202	H	0.676095	0.821941	0.500113
H203	H	0.084641	0.320342	0.000129
H204	H	0.584641	0.820342	0.500129
H205	H	-0.292783	0.237823	0.000136
H206	H	0.207217	0.737823	0.500136
N207	N	-0.196170	0.259583	0.000121
N208	N	0.303830	0.759583	0.500121
H209	H	-0.223447	0.307192	0.000120
H210	H	0.276553	0.807192	0.500120
H211	H	-0.175502	0.263258	0.054415
H212	H	0.324498	0.763258	0.554415
N213	N	-0.276984	-0.057432	0.000113
N214	N	0.223016	0.442568	0.500113
H215	H	-0.249706	-0.105041	0.000113
H216	H	0.250294	0.394959	0.500113
H217	H	-0.297650	-0.061104	0.054407
H218	H	0.202350	0.438896	0.554407
H219	H	0.057311	-0.107431	0.000126
H220	H	0.557311	0.392569	0.500126
H221	H	0.117114	-0.106399	0.000135
H222	H	0.617114	0.393601	0.500135
H223	H	-0.180385	-0.035684	0.000129
H224	H	0.319615	0.464316	0.500129
H225	H	0.208571	-0.104794	0.000136
H226	H	0.708571	0.395206	0.500136
H227	H	0.434723	-0.024926	0.000079
H228	H	0.934723	0.475074	0.500079
