data_functionalizedCrystal
_audit_creation_method	'MofGen! by Chris Wilmer'
_symmetry_space_group_name_H-M	'P1'
_symmetry_Int_Tables_number	1
_symmetry_cell_setting	triclinic
loop_
_symmetry_equiv_pos_as_xyz
  x,y,z
_cell_length_a	19.288859
_cell_length_b	27.731996
_cell_length_c	18.366186
_cell_angle_alpha	89.987769
_cell_angle_beta	89.990083
_cell_angle_gamma	82.877556
loop_
_atom_site_label
_atom_site_type_symbol
_atom_site_fract_x
_atom_site_fract_y
_atom_site_fract_z
O1	O	0.920963	0.060287	-0.060573
O2	O	1.254297	0.393620	0.272760
O3	O	1.587630	0.726954	0.606093
O4	O	0.718649	0.068425	-0.060573
O5	O	1.051982	0.401758	0.272760
O6	O	1.385316	0.735091	0.606094
O7	O	0.826108	-0.006024	-0.060557
O8	O	1.159442	0.327310	0.272776
O9	O	1.492775	0.660643	0.606109
O10	O	0.813504	0.134736	-0.060589
O11	O	1.146837	0.468069	0.272744
O12	O	1.480170	0.801402	0.606078
O13	O	0.826090	-0.006027	0.060542
O14	O	1.159424	0.327306	0.393875
O15	O	1.492757	0.660639	0.727209
O16	O	0.718631	0.068421	0.060526
O17	O	1.051964	0.401754	0.393860
O18	O	1.385298	0.735088	0.727193
O19	O	0.920945	0.060283	0.060526
O20	O	1.254278	0.393617	0.393859
O21	O	1.587612	0.726950	0.727193
Zn22	Zn	0.819785	0.064352	0.079753
Zn23	Zn	1.153118	0.397685	0.413087
Zn24	Zn	1.486452	0.731018	0.746420
Zn25	Zn	0.819809	0.064356	-0.079800
Zn26	Zn	1.153142	0.397690	0.253533
Zn27	Zn	1.486476	0.731023	0.586866
O28	O	0.813486	0.134732	0.060510
O29	O	1.146819	0.468065	0.393844
O30	O	1.480152	0.801399	0.727177
C31	C	0.692765	0.068162	-0.000023
C32	C	1.026098	0.401495	0.333310
C33	C	1.359432	0.734828	0.666644
C34	C	0.615666	0.067377	-0.000022
C35	C	0.949000	0.400710	0.333311
C36	C	1.282333	0.734044	0.666645
C37	C	0.051376	0.105753	-0.000032
C38	C	0.384709	0.439086	0.333302
C39	C	0.718043	0.772420	0.666635
C40	C	0.123818	0.106494	-0.000036
C41	C	0.457151	0.439828	0.333298
C42	C	0.790484	0.773161	0.666631
C43	C	0.168809	0.062811	-0.000025
C44	C	0.502142	0.396145	0.333309
C45	C	0.835475	0.729478	0.666642
C46	C	0.141353	0.018384	-0.000028
C47	C	0.474686	0.351717	0.333305
C48	C	0.808019	0.685050	0.666638
C49	C	0.068912	0.017644	-0.000032
C50	C	0.402246	0.350977	0.333302
C51	C	0.735579	0.684310	0.666635
C52	C	0.290285	0.030232	0.042412
C53	C	0.623618	0.363565	0.375745
C54	C	0.956951	0.696898	0.709078
C55	C	0.362723	0.030973	0.042420
C56	C	0.696057	0.364307	0.375753
C57	C	1.029390	0.697640	0.709086
C58	C	0.392240	0.065092	-0.000018
C59	C	0.725573	0.398426	0.333316
C60	C	1.058906	0.731759	0.666649
C61	C	0.349307	0.098477	-0.042453
C62	C	0.682640	0.431811	0.290880
C63	C	1.015973	0.765144	0.624213
C64	C	0.276866	0.097737	-0.042457
C65	C	0.610199	0.431070	0.290877
C66	C	0.943533	0.764404	0.624210
C67	C	0.247359	0.063609	-0.000021
C68	C	0.580693	0.396942	0.333312
C69	C	0.914026	0.730276	0.666645
C70	C	0.498237	0.110321	-0.000024
C71	C	0.831570	0.443654	0.333310
C72	C	1.164904	0.776988	0.666643
C73	C	0.570680	0.111060	-0.000032
C74	C	0.904014	0.444394	0.333301
C75	C	1.237347	0.777727	0.666635
C76	C	0.588214	0.022949	-0.000017
C77	C	0.921548	0.356282	0.333316
C78	C	1.254881	0.689615	0.666649
C79	C	0.515772	0.022210	-0.000016
C80	C	0.849105	0.355544	0.333317
C81	C	1.182439	0.688877	0.666651
C82	C	0.470787	0.065898	-0.000016
C83	C	0.804121	0.399231	0.333318
C84	C	1.137454	0.732565	0.666651
C85	C	0.825840	-0.024034	-0.000005
C86	C	1.159174	0.309300	0.333328
C87	C	1.492507	0.642633	0.666661
C88	C	0.825061	-0.077692	0.000002
C89	C	1.158394	0.255641	0.333335
C90	C	1.491727	0.588974	0.666669
C91	C	0.820164	-0.410421	-0.066045
C92	C	1.153497	-0.077088	0.267289
C93	C	1.486830	0.256245	0.600622
C94	C	0.817202	-0.612088	-0.066057
C95	C	1.150535	-0.278755	0.267276
C96	C	1.483869	0.054578	0.600609
O97	O	0.816798	-0.638159	-0.122198
O98	O	1.150131	-0.304825	0.211135
O99	O	1.483464	0.028508	0.544469
N100	N	0.816824	-0.637309	-0.000047
N101	N	1.150158	-0.303975	0.333286
N102	N	1.483491	0.029358	0.666620
C103	C	0.817183	-0.612109	0.065972
C104	C	1.150516	-0.278775	0.399305
C105	C	1.483849	0.054558	0.732638
O106	O	0.816786	-0.638187	0.122118
O107	O	1.150119	-0.304853	0.455451
O108	O	1.483453	0.028480	0.788784
C109	C	0.820139	-0.410442	0.065984
C110	C	1.153472	-0.077109	0.399317
C111	C	1.486806	0.256225	0.732650
C112	C	0.820524	-0.385225	-0.000031
C113	C	1.153857	-0.051892	0.333302
C114	C	1.487190	0.281442	0.666635
C115	C	0.820548	-0.385204	-0.132054
C116	C	1.153881	-0.051871	0.201279
C117	C	1.487214	0.281462	0.534612
C118	C	0.821292	-0.334791	-0.132050
C119	C	1.154625	-0.001458	0.201283
C120	C	1.487958	0.331876	0.534616
C121	C	0.821652	-0.309594	-0.066037
C122	C	1.154985	0.023739	0.267296
C123	C	1.488319	0.357072	0.600630
C124	C	0.821268	-0.334812	-0.000027
C125	C	1.154601	-0.001478	0.333306
C126	C	1.487935	0.331855	0.666639
C127	C	0.820492	-0.385242	0.132002
C128	C	1.153826	-0.051909	0.465335
C129	C	1.487159	0.281424	0.798668
C130	C	0.821230	-0.334822	0.131999
C131	C	1.154563	-0.001489	0.465332
C132	C	1.487896	0.331844	0.798665
C133	C	0.821614	-0.309605	0.065984
C134	C	1.154948	0.023728	0.399317
C135	C	1.488281	0.357061	0.732650
C136	C	0.822372	-0.259202	0.065990
C137	C	1.155706	0.074132	0.399323
C138	C	1.489039	0.407465	0.732657
N139	N	0.822750	-0.233982	-0.000021
N140	N	1.156083	0.099352	0.333313
N141	N	1.489417	0.432685	0.666646
C142	C	0.822390	-0.259178	-0.066034
C143	C	1.155723	0.074155	0.267299
C144	C	1.489056	0.407489	0.600633
C145	C	0.815632	-0.717987	0.065961
C146	C	1.148965	-0.384653	0.399294
C147	C	1.482298	-0.051320	0.732627
C148	C	0.814894	-0.768403	0.065958
C149	C	1.148227	-0.435070	0.399291
C150	C	1.481560	-0.101737	0.732625
C151	C	0.814912	-0.768379	-0.066072
C152	C	1.148245	-0.435046	0.267262
C153	C	1.481579	-0.101713	0.600595
C154	C	0.815655	-0.717962	-0.066068
C155	C	1.148988	-0.384629	0.267265
C156	C	1.482322	-0.051296	0.600599
C157	C	0.816009	-0.692766	-0.000050
C158	C	1.149343	-0.359433	0.333283
C159	C	1.482676	-0.026100	0.666617
C160	C	0.823953	-0.153306	-0.066021
C161	C	1.157287	0.180027	0.267312
C162	C	1.490620	0.513360	0.600646
C163	C	0.824700	-0.102889	-0.066011
C164	C	1.158034	0.230445	0.267322
C165	C	1.491367	0.563778	0.600655
C166	C	0.824678	-0.102916	0.066018
C167	C	1.158012	0.230417	0.399351
C168	C	1.491345	0.563750	0.732684
C169	C	0.823935	-0.153330	0.066008
C170	C	1.157268	0.180003	0.399342
C171	C	1.490602	0.513337	0.732675
C172	C	0.823570	-0.178523	-0.000017
C173	C	1.156903	0.154810	0.333316
C174	C	1.490237	0.488143	0.666650
O175	O	0.822769	-0.233100	0.122101
O176	O	1.156103	0.100234	0.455434
O177	O	1.489436	0.433567	0.788768
O178	O	0.822771	-0.233090	-0.122172
O179	O	1.156104	0.100244	0.211162
O180	O	1.489438	0.433577	0.544495
C181	C	0.819419	-0.460835	-0.066049
C182	C	1.152753	-0.127501	0.267285
C183	C	1.486086	0.205832	0.600618
C184	C	0.819035	-0.486052	-0.000039
C185	C	1.152369	-0.152718	0.333294
C186	C	1.485702	0.180615	0.666628
C187	C	0.819396	-0.460855	0.065974
C188	C	1.152729	-0.127522	0.399308
C189	C	1.486062	0.205811	0.732641
C190	C	0.818298	-0.536468	-0.000042
C191	C	1.151631	-0.203135	0.333292
C192	C	1.484964	0.130198	0.666625
C193	C	0.817937	-0.561665	-0.066055
C194	C	1.151271	-0.228331	0.267278
C195	C	1.484604	0.105002	0.600611
C196	C	0.818315	-0.536444	-0.132066
C197	C	1.151648	-0.203111	0.201267
C198	C	1.484982	0.130222	0.534601
C199	C	0.819059	-0.486031	-0.132062
C200	C	1.152393	-0.152698	0.201271
C201	C	1.485726	0.180636	0.534605
C202	C	0.819018	-0.486076	0.131985
C203	C	1.152351	-0.152742	0.465318
C204	C	1.485685	0.180591	0.798652
C205	C	0.818275	-0.536489	0.131976
C206	C	1.151608	-0.203156	0.465309
C207	C	1.484941	0.130177	0.798643
C208	C	0.817914	-0.561686	0.065962
C209	C	1.151248	-0.228352	0.399296
C210	C	1.484581	0.104981	0.732629
C211	C	0.946829	0.060547	-0.000026
C212	C	1.280162	0.393880	0.333308
C213	C	1.613496	0.727213	0.666641
C214	C	1.023928	0.061331	-0.000031
C215	C	1.357261	0.394664	0.333302
C216	C	1.690594	0.727998	0.666635
C217	C	0.813754	0.152742	-0.000043
C218	C	1.147087	0.486075	0.333290
C219	C	1.480420	0.819409	0.666623
C220	C	0.814534	0.206400	-0.000056
C221	C	1.147867	0.539734	0.333278
C222	C	1.481200	0.873067	0.666611
N223	N	0.819774	0.064348	0.188644
N224	N	1.153107	0.397681	0.521978
N225	N	1.486441	0.731015	0.855311
N226	N	0.819826	0.064356	-0.188691
N227	N	1.153159	0.397690	0.144642
N228	N	1.486492	0.731023	0.477975
C229	C	0.867372	0.031399	0.226752
C230	C	1.200706	0.364732	0.560085
C231	C	1.534039	0.698065	0.893418
C232	C	0.867377	0.031396	0.302980
C233	C	1.200710	0.364730	0.636313
C234	C	1.534043	0.698063	0.969646
C235	C	0.819789	0.064352	0.341097
C236	C	1.153123	0.397685	0.674431
C237	C	1.486456	0.731019	1.007764
C238	C	0.772182	0.097304	0.302981
C239	C	1.105515	0.430638	0.636314
C240	C	1.438849	0.763971	0.969647
C241	C	0.772174	0.097302	0.226754
C242	C	1.105508	0.430636	0.560088
C243	C	1.438841	0.763969	0.893421
C244	C	0.810205	0.108396	0.461848
C245	C	1.143538	0.441729	0.795181
C246	C	1.476871	0.775063	1.128514
C247	C	0.810217	0.108399	0.538073
C248	C	1.143550	0.441732	0.871406
C249	C	1.476884	0.775065	1.204739
C250	C	0.819809	0.064358	0.576205
C251	C	1.153142	0.397691	0.909538
C252	C	1.486476	0.731025	1.242871
C253	C	0.829403	0.020313	0.538102
C254	C	1.162737	0.353646	0.871436
C255	C	1.496070	0.686980	1.204769
C256	C	0.829396	0.020311	0.461876
C257	C	1.162729	0.353644	0.795209
C258	C	1.496062	0.686978	1.128543
C259	C	0.819792	0.064358	0.423752
C260	C	1.153125	0.397691	0.757085
C261	C	1.486459	0.731024	1.090419
C262	C	0.867415	0.031403	0.696967
C263	C	1.200748	0.364737	1.030300
C264	C	1.534081	0.698070	1.363634
C265	C	0.867414	0.031401	0.773196
C266	C	1.200748	0.364734	1.106529
C267	C	1.534081	0.698067	1.439863
C268	C	0.772223	0.097313	0.773196
C269	C	1.105556	0.430646	1.106529
C270	C	1.438890	0.763979	1.439863
C271	C	0.772220	0.097311	0.696968
C272	C	1.105553	0.430645	1.030301
C273	C	1.438887	0.763978	1.363635
C274	C	0.819820	0.064357	0.658858
C275	C	1.153153	0.397691	0.992192
C276	C	1.486486	0.731024	1.325525
H277	H	0.373336	0.126261	-0.077008
H278	H	0.706670	0.459594	0.256325
H279	H	1.040003	0.792928	0.589659
C280	C	0.814477	-0.796137	0.138579
C281	C	1.147811	-0.462803	0.471913
C282	C	1.481144	-0.129470	0.805246
N283	N	0.814159	-0.817024	0.193281
N284	N	1.147492	-0.483690	0.526614
N285	N	1.480825	-0.150357	0.859947
H286	H	0.733435	0.124137	0.334020
H287	H	1.066768	0.457470	0.667353
H288	H	1.400101	0.790803	1.000687
H289	H	0.817967	-0.557017	0.185737
H290	H	1.151300	-0.223684	0.519071
H291	H	1.484633	0.109650	0.852404
H292	H	0.820180	-0.405765	0.185758
H293	H	1.153513	-0.072432	0.519091
H294	H	1.486847	0.260901	0.852425
C295	C	0.448751	0.158378	-0.000037
C296	C	0.782085	0.491711	0.333296
C297	C	1.115418	0.825044	0.666630
N298	N	0.411481	0.194574	-0.000050
N299	N	0.744814	0.527908	0.333283
N300	N	1.078148	0.861241	0.666617
C301	C	0.799657	0.156849	0.579978
C302	C	1.132990	0.490182	0.913311
C303	C	1.466323	0.823515	1.246644
N304	N	0.791698	0.193343	0.611539
N305	N	1.125031	0.526676	0.944872
N306	N	1.458365	0.860009	1.278206
C307	C	0.719877	0.133565	0.815121
C308	C	1.053210	0.466898	1.148454
C309	C	1.386543	0.800232	1.481788
N310	N	0.680447	0.160871	0.846703
N311	N	1.013781	0.494204	1.180036
N312	N	1.347114	0.827538	1.513369
H313	H	0.823628	-0.173863	0.119763
H314	H	1.156961	0.159470	0.453096
H315	H	1.490295	0.492803	0.786430
H316	H	0.493424	-0.013963	-0.000011
H317	H	0.826757	0.319371	0.333322
H318	H	1.160091	0.652704	0.666655
C319	C	0.038719	-0.031226	-0.000022
C320	C	0.372052	0.302107	0.333311
C321	C	0.705386	0.635441	0.666645
N322	N	0.015976	-0.068035	-0.000011
N323	N	0.349310	0.265298	0.333323
N324	N	0.682643	0.598631	0.666656
H325	H	0.397674	0.003792	0.076977
H326	H	0.731007	0.337125	0.410311
H327	H	1.064341	0.670458	0.743644
H328	H	0.906173	0.004567	0.804224
H329	H	1.239506	0.337900	1.137557
H330	H	1.572839	0.671233	1.470890
C331	C	0.819417	-0.458367	0.204609
C332	C	1.152750	-0.125034	0.537943
C333	C	1.486084	0.208300	0.871276
N334	N	0.819721	-0.437499	0.259315
N335	N	1.153055	-0.104166	0.592648
N336	N	1.486388	0.229168	0.925981
C337	C	0.821622	-0.307110	0.204626
C338	C	1.154956	0.026223	0.537959
C339	C	1.488289	0.359557	0.871293
N340	N	0.821921	-0.286239	0.259328
N341	N	1.155254	0.047095	0.592662
N342	N	1.488588	0.380428	0.925995
C343	C	0.229644	0.134455	-0.089143
C344	C	0.562977	0.467789	0.244190
C345	C	0.896310	0.801122	0.577524
N346	N	0.194076	0.162110	-0.124311
N347	N	0.527409	0.495443	0.209022
N348	N	0.860743	0.828777	0.542355
C349	C	0.257825	-0.007305	0.089097
C350	C	0.591159	0.326028	0.422431
C351	C	0.924492	0.659361	0.755764
N352	N	0.233378	-0.035578	0.124259
N353	N	0.566711	0.297756	0.457592
N354	N	0.900044	0.631089	0.790926
C355	C	0.839940	-0.028138	0.419966
C356	C	1.173273	0.305196	0.753300
C357	C	1.506606	0.638529	1.086633
N358	N	0.847877	-0.064630	0.388400
N359	N	1.181211	0.268703	0.721734
N360	N	1.514544	0.602037	1.055067
C361	C	0.825068	-0.075190	0.138629
C362	C	1.158401	0.258143	0.471962
C363	C	1.491734	0.591476	0.805296
N364	N	0.825354	-0.054305	0.193320
N365	N	1.158687	0.279029	0.526654
N366	N	1.492020	0.612362	0.859987
H367	H	0.593026	0.147235	-0.000039
H368	H	0.926360	0.480569	0.333295
H369	H	1.259693	0.813902	0.666628
C370	C	0.001897	0.153811	-0.000027
C371	C	0.335230	0.487144	0.333306
C372	C	0.668564	0.820477	0.666639
N373	N	-0.035372	0.190008	-0.000022
N374	N	0.297961	0.523342	0.333311
N375	N	0.631295	0.856675	0.666645
H376	H	0.146171	0.142669	-0.000029
H377	H	0.479504	0.476002	0.333304
H378	H	0.812837	0.809336	0.666637
H379	H	0.819372	-0.465504	-0.185818
H380	H	1.152705	-0.132171	0.147515
H381	H	1.486039	0.201163	0.480848
C382	C	0.817917	-0.564170	-0.204681
C383	C	1.151250	-0.230837	0.128652
C384	C	1.484583	0.102497	0.461986
N385	N	0.817612	-0.585055	-0.259371
N386	N	1.150945	-0.251722	0.073962
N387	N	1.484279	0.081612	0.407295
C388	C	0.799652	0.156847	0.419910
C389	C	1.132986	0.490181	0.753243
C390	C	1.466319	0.823514	1.086577
N391	N	0.791705	0.193340	0.388324
N392	N	1.125038	0.526673	0.721657
N393	N	1.458371	0.860006	1.054990
C394	C	0.839953	-0.028136	0.580042
C395	C	1.173287	0.305198	0.913375
C396	C	1.506620	0.638531	1.246709
N397	N	0.847900	-0.064626	0.611634
N398	N	1.181233	0.268707	0.944967
N399	N	1.514567	0.602041	1.278301
C400	C	0.719907	0.133594	0.655048
C401	C	1.053241	0.466927	0.988382
C402	C	1.386574	0.800261	1.321715
N403	N	0.680518	0.160934	0.623475
N404	N	1.013852	0.494268	0.956808
N405	N	1.347185	0.827601	1.290142
C406	C	0.820181	-0.412915	-0.204681
C407	C	1.153515	-0.079582	0.128652
C408	C	1.486848	0.253752	0.461986
N409	N	0.819921	-0.433785	-0.259388
N410	N	1.153254	-0.100452	0.073945
N411	N	1.486588	0.232882	0.407279
H412	H	0.177989	-0.017183	-0.000021
H413	H	0.511322	0.316150	0.333312
H414	H	0.844656	0.649483	0.666645
H415	H	0.624845	-0.012619	-0.000014
H416	H	0.958179	0.320714	0.333320
H417	H	1.291512	0.654048	0.666653
C418	C	0.825121	-0.075153	-0.138636
C419	C	1.158455	0.258181	0.194697
C420	C	1.491788	0.591514	0.528031
N421	N	0.825436	-0.054264	-0.193335
N422	N	1.158770	0.279070	0.139998
N423	N	1.492103	0.612403	0.473331
C424	C	0.823564	-0.181013	-0.138652
C425	C	1.156897	0.152321	0.194681
C426	C	1.490230	0.485654	0.528014
N427	N	0.823278	-0.201882	-0.193358
N428	N	1.156612	0.131452	0.139975
N429	N	1.489945	0.464785	0.473309
H430	H	0.821602	-0.314263	-0.185807
H431	H	1.154936	0.019070	0.147527
H432	H	1.488269	0.352403	0.480860
C433	C	0.919727	-0.004857	0.184835
C434	C	1.253060	0.328477	0.518169
C435	C	1.586393	0.661810	0.851502
N436	N	0.959158	-0.032166	0.153263
N437	N	1.292492	0.301167	0.486596
N438	N	1.625825	0.634501	0.819929
H439	H	0.815967	-0.697434	-0.119823
H440	H	1.149301	-0.364101	0.213510
H441	H	1.482634	-0.030767	0.546843
C442	C	0.719840	0.133572	0.184835
C443	C	1.053173	0.466905	0.518168
C444	C	1.386507	0.800239	0.851502
N445	N	0.680432	0.160899	0.153260
N446	N	1.013766	0.494232	0.486594
N447	N	1.347099	0.827566	0.819927
H448	H	0.906138	0.004564	0.334012
H449	H	1.239472	0.337897	0.667346
H450	H	1.572805	0.671230	1.000679
H451	H	0.814619	-0.788903	-0.119822
H452	H	1.147953	-0.455570	0.213511
H453	H	1.481286	-0.122236	0.546844
H454	H	0.815924	-0.697477	0.119724
H455	H	1.149257	-0.364144	0.453057
H456	H	1.482590	-0.030810	0.786390
C457	C	0.919768	-0.004851	0.655043
C458	C	1.253102	0.328483	0.988377
C459	C	1.586435	0.661816	1.321710
N460	N	0.959200	-0.032159	0.623469
N461	N	1.292534	0.301175	0.956802
N462	N	1.625867	0.634508	1.290135
