data_functionalizedCrystal
_audit_creation_method	'MofGen! by Chris Wilmer'
_symmetry_space_group_name_H-M	'P1'
_symmetry_Int_Tables_number	1
_symmetry_cell_setting	triclinic
loop_
_symmetry_equiv_pos_as_xyz
  x,y,z
_cell_length_a	11.026607
_cell_length_b	11.792241
_cell_length_c	10.065875
_cell_angle_alpha	98.849501
_cell_angle_beta	79.302338
_cell_angle_gamma	96.389716
loop_
_atom_site_label
_atom_site_type_symbol
_atom_site_fract_x
_atom_site_fract_y
_atom_site_fract_z
O1	O	1.630965	0.462836	-0.113504
O2	O	1.277303	0.408644	-0.113505
O3	O	1.462715	0.272275	-0.113495
O4	O	1.445553	0.599205	-0.113514
O5	O	1.427360	0.298412	0.113492
O6	O	1.241948	0.434781	0.113482
O7	O	1.595611	0.488973	0.113483
Zn8	Zn	1.413166	0.466027	0.149522
Zn9	Zn	1.459747	0.431590	-0.149543
O10	O	1.410198	0.625342	0.113473
C11	C	1.214349	0.411715	-0.000011
C12	C	1.079439	0.381912	-0.000011
C13	C	1.006175	0.464202	-0.000017
C14	C	0.866738	0.433401	-0.000017
C15	C	1.443960	0.242838	-0.000002
C16	C	1.440732	0.116183	-0.000003
C17	C	1.434802	-0.115710	-0.000026
C18	C	1.438097	0.013332	-0.000013
C19	C	1.658565	0.485901	-0.000014
C20	C	1.793477	0.515703	-0.000023
C21	C	1.428954	0.654778	-0.000023
C22	C	1.432183	0.781432	-0.000031
N23	N	1.381384	0.489530	0.353626
N24	N	1.491539	0.408079	-0.353647
C25	C	1.448682	0.439759	0.421408
C26	C	1.424231	0.457858	0.578574
H27	H	0.833974	0.608964	-0.000019
C28	C	1.060056	0.588603	0.000258
C29	C	1.002806	0.655965	0.117051
C30	C	1.052415	0.770568	0.117360
H31	H	1.046016	0.616415	-0.078807
H32	H	1.146591	0.592837	0.000334
H33	H	0.916291	0.651736	0.116963
H34	H	1.016842	0.628189	0.196135
H35	H	1.138949	0.774802	0.117435
H36	H	1.038372	0.798368	0.038289
H37	H	1.013586	0.816285	0.196608
C38	C	1.025468	0.257577	0.000274
C39	C	1.046331	0.217109	0.117073
C40	C	0.996621	0.102579	0.117390
H41	H	1.064137	0.211557	-0.078787
H42	H	0.938910	0.253362	0.000347
H43	H	1.132872	0.221315	0.116987
H44	H	1.007660	0.263096	0.196153
H45	H	0.910063	0.098364	0.117463
H46	H	1.035294	0.056570	0.038323
H47	H	1.010759	0.075110	0.196642
H48	H	1.524395	0.383742	0.363088
C49	C	1.280517	0.564222	0.431625
C50	C	1.276346	0.567355	0.572004
C51	C	1.183452	0.636163	0.643895
H52	H	1.202811	0.532882	0.408458
H53	H	1.298052	0.640125	0.408348
H54	H	1.258803	0.491467	0.595271
H55	H	1.354028	0.598705	0.595212
H56	H	1.200987	0.712066	0.620619
H57	H	1.105753	0.604817	0.620717
H58	H	1.180617	0.638307	0.739149
H59	H	0.826244	0.340138	-0.000046
H60	H	1.348504	0.513868	0.636891
H61	H	1.567257	0.352060	0.588036
