data_functionalizedCrystal
_audit_creation_method	'MofGen! by Chris Wilmer'
_symmetry_space_group_name_H-M	'P1'
_symmetry_Int_Tables_number	1
_symmetry_cell_setting	triclinic
loop_
_symmetry_equiv_pos_as_xyz
  x,y,z
_cell_length_a	17.639617
_cell_length_b	18.050590
_cell_length_c	17.639306
_cell_angle_alpha	101.183132
_cell_angle_beta	65.670249
_cell_angle_gamma	101.203438
loop_
_atom_site_label
_atom_site_type_symbol
_atom_site_fract_x
_atom_site_fract_y
_atom_site_fract_z
Zn1	Zn	1.354249	-0.175790	-0.721140
Zn2	Zn	1.854249	0.324210	-0.221140
Zn3	Zn	1.326314	-0.279104	-0.583309
Zn4	Zn	1.826314	0.220896	-0.083309
Zn5	Zn	1.188572	-0.175762	-0.555433
Zn6	Zn	1.688572	0.324238	-0.055433
Zn7	Zn	1.216384	-0.320779	-0.693175
Zn8	Zn	1.716384	0.179221	-0.193175
O9	O	1.271380	-0.237858	-0.638264
O10	O	1.771380	0.262142	-0.138264
O11	O	1.465886	-0.172065	-0.726226
O12	O	1.965886	0.327935	-0.226226
O13	O	1.284713	-0.247942	-0.464283
O14	O	1.784713	0.252058	0.035717
O15	O	1.210602	-0.071838	-0.577451
O16	O	1.710602	0.428162	-0.077451
O17	O	1.445363	-0.247970	-0.624963
O18	O	1.945363	0.252030	-0.124963
O19	O	1.332324	-0.071858	-0.699195
O20	O	1.832324	0.428142	-0.199195
O21	O	1.183514	-0.172017	-0.443802
O22	O	1.683514	0.327983	0.056198
O23	O	1.076919	-0.212428	-0.550335
O24	O	1.576919	0.287572	-0.050335
O25	O	1.258002	-0.318998	-0.812213
O26	O	1.758002	0.181002	-0.312213
O27	O	1.097352	-0.318971	-0.651534
O28	O	1.597352	0.181029	-0.151534
O29	O	1.359291	-0.212475	-0.832759
O30	O	1.859291	0.287525	-0.332759
O31	O	1.311680	-0.388559	-0.597847
O32	O	1.811680	0.111441	-0.097847
O33	O	1.230915	-0.419178	-0.678565
O34	O	1.730915	0.080822	-0.178565
C35	C	1.057228	-0.270219	-0.594875
C36	C	1.557228	0.229781	-0.094875
C37	C	0.965617	-0.284084	-0.576333
C38	C	1.465617	0.215916	-0.076333
C39	C	0.717795	-0.132543	-0.779334
C40	C	1.217795	0.367457	-0.279334
C41	C	0.631709	-0.145587	-0.761894
C42	C	1.131709	0.354413	-0.261894
C43	C	0.610329	-0.224446	-0.656296
C44	C	1.110329	0.275554	-0.156296
C45	C	0.696415	-0.211411	-0.673730
C46	C	1.196415	0.288589	-0.173730
C47	C	0.750142	-0.165459	-0.735250
C48	C	1.250142	0.334541	-0.235250
C49	C	0.728762	-0.244327	-0.629646
C50	C	1.228762	0.255673	-0.129646
C51	C	0.814840	-0.231290	-0.647076
C52	C	1.314840	0.268710	-0.147076
C53	C	0.868572	-0.185337	-0.708591
C54	C	1.368572	0.314663	-0.208591
C55	C	0.836220	-0.152421	-0.752680
C56	C	1.336220	0.347579	-0.252680
C57	C	0.675033	-0.290275	-0.568123
C58	C	1.175033	0.209725	-0.068123
C59	C	0.707380	-0.323191	-0.524039
C60	C	1.207380	0.176809	-0.024039
C61	C	0.793461	-0.310158	-0.541473
C62	C	1.293461	0.189842	-0.041473
C63	C	0.847192	-0.264206	-0.602987
C64	C	1.347192	0.235794	-0.102987
C65	C	0.825812	-0.343074	-0.497383
C66	C	1.325812	0.156926	0.002617
C67	C	0.911891	-0.330037	-0.514813
C68	C	1.411891	0.169963	-0.014813
C69	C	0.933270	-0.251169	-0.620417
C70	C	1.433270	0.248831	-0.120417
C71	C	1.271310	-0.430815	-0.638219
C72	C	1.771310	0.069185	-0.138219
C73	C	1.271361	-0.513356	-0.638242
C74	C	1.771361	-0.013356	-0.138242
C75	C	1.315411	-0.696123	-0.594447
C76	C	1.815411	-0.196123	-0.094447
C77	C	1.350744	-0.753815	-0.673739
C78	C	1.850744	-0.253815	-0.173739
C79	C	1.271414	-0.664484	-0.638284
C80	C	1.771414	-0.164484	-0.138284
C81	C	1.236173	-0.753867	-0.559044
C82	C	1.736173	-0.253867	-0.059044
C83	C	1.271466	-0.810466	-0.638319
C84	C	1.771466	-0.310466	-0.138319
C85	C	1.306793	-0.721088	-0.717623
C86	C	1.806793	-0.221088	-0.217623
C87	C	1.192177	-0.721133	-0.602870
C88	C	1.692177	-0.221133	-0.102870
C89	C	1.227492	-0.778814	-0.682207
C90	C	1.727492	-0.278814	-0.182207
C91	C	1.271386	-0.580387	-0.638264
C92	C	1.771386	-0.080387	-0.138264
C93	C	1.271496	-0.894562	-0.638348
C94	C	1.771496	-0.394562	-0.138348
C95	C	1.486368	-0.205372	-0.681823
C96	C	1.986368	0.294628	-0.181823
C97	C	1.577983	-0.191528	-0.700386
C98	C	2.077983	0.308472	-0.200386
C99	C	1.314865	-0.270389	-0.853225
C100	C	1.814865	0.229611	-0.353225
C101	C	1.333396	-0.284251	-0.944829
C102	C	1.833396	0.215749	-0.444829
C103	C	1.271476	-0.044147	-0.638333
C104	C	1.771476	0.455853	-0.138333
C105	C	1.271517	0.038401	-0.638362
C106	C	1.771517	0.538401	-0.138362
C107	C	1.130924	-0.132221	-1.192814
C108	C	1.630924	0.367779	-0.692814
C109	C	1.148355	-0.145260	-1.278894
C110	C	1.648355	0.354740	-0.778894
C111	C	1.253722	-0.224313	-1.300198
C112	C	1.753722	0.275687	-0.800198
C113	C	1.236303	-0.211277	-1.214120
C114	C	1.736303	0.288723	-0.714120
C115	C	1.174902	-0.165232	-1.160434
C116	C	1.674902	0.334768	-0.660434
C117	C	1.280281	-0.244288	-1.181739
C118	C	1.780281	0.255712	-0.681739
C119	C	1.262860	-0.231257	-1.095667
C120	C	1.762860	0.268743	-0.595667
C121	C	1.201460	-0.185215	-1.041976
C122	C	1.701460	0.314785	-0.541976
C123	C	1.157481	-0.152201	-1.074362
C124	C	1.657481	0.347799	-0.574362
C125	C	1.341677	-0.290338	-1.235426
C126	C	1.841677	0.209662	-0.735426
C127	C	1.385655	-0.323348	-1.203045
C128	C	1.885655	0.176652	-0.703045
C129	C	1.368238	-0.310313	-1.116973
C130	C	1.868238	0.189687	-0.616973
C131	C	1.306839	-0.264272	-1.063281
C132	C	1.806839	0.235728	-0.563281
C133	C	1.412218	-0.343328	-1.084587
C134	C	1.912218	0.156672	-0.584587
C135	C	1.394796	-0.330297	-0.998515
C136	C	1.894796	0.169703	-0.498515
C137	C	1.289418	-0.251241	-0.977210
C138	C	1.789418	0.248759	-0.477210
C139	C	1.228112	-0.205394	-0.424149
C140	C	1.728112	0.294606	0.075851
C141	C	1.209741	-0.191298	-0.332578
C142	C	1.709741	0.308702	0.167422
H143	H	0.761543	-0.095127	-0.829432
H144	H	1.261543	0.404873	-0.329432
H145	H	1.336568	-0.706528	-0.784692
H146	H	1.836568	-0.206528	-0.284692
C147	C	1.360843	-0.304667	-1.330108
C148	C	1.860843	0.195333	-0.830108
N149	N	1.375280	-0.315458	-1.401424
N150	N	1.875280	0.184542	-0.901424
H151	H	1.206346	-0.768537	-0.492016
H152	H	1.706346	-0.268537	0.007984
C153	C	1.089940	-0.101545	-1.015303
C154	C	1.589940	0.398455	-0.515303
N155	N	1.039069	-0.063394	-0.970820
N156	N	1.539069	0.436606	-0.470820
H157	H	0.879969	-0.115005	-0.802778
H158	H	1.379969	0.384995	-0.302778
C159	C	1.063383	-0.081565	-1.133755
C160	C	1.563383	0.418435	-0.633755
N161	N	1.012513	-0.043414	-1.089272
N162	N	1.512513	0.456586	-0.589272
H163	H	0.605376	-0.118776	-0.797793
H164	H	1.105376	0.381224	-0.297793
C165	C	1.365711	-0.647803	-0.544440
C166	C	1.865711	-0.147803	-0.044440
N167	N	1.403599	-0.611404	-0.506781
N168	N	1.903599	-0.111404	-0.006781
H169	H	0.663624	-0.360603	-0.473947
H170	H	1.163624	0.139397	0.026053
H171	H	0.782055	-0.380482	-0.447289
H172	H	1.282055	0.119518	0.052711
C173	C	0.551221	-0.274994	-0.588628
C174	C	1.051221	0.225006	-0.088628
N175	N	0.506702	-0.313069	-0.537661
N176	N	1.006702	0.186931	-0.037661
H177	H	1.125158	-0.706477	-0.572879
H178	H	1.625158	-0.206477	-0.072879
C179	C	1.441300	-0.773590	-0.714227
C180	C	1.941300	-0.273590	-0.214227
N181	N	1.509507	-0.788483	-0.744716
N182	N	2.009507	-0.288483	-0.244716
H183	H	1.303712	-0.261806	-1.343920
H184	H	1.803712	0.238194	-0.843920
H185	H	1.190318	-0.814450	-0.719347
H186	H	1.690318	-0.314450	-0.219347
H187	H	1.239428	-0.213737	-0.933497
H188	H	1.739428	0.286263	-0.433497
H189	H	0.604940	-0.300869	-0.553916
H190	H	1.104940	0.199131	-0.053916
H191	H	1.112541	-0.118372	-1.305253
H192	H	1.612541	0.381628	-0.805253
H193	H	0.938228	-0.356840	-0.478916
H194	H	1.438228	0.143160	0.021084
H195	H	1.187271	-0.174613	-0.971890
H196	H	1.687271	0.325387	-0.471890
H197	H	1.435645	-0.360842	-1.246767
H198	H	1.935645	0.139158	-0.746767
C199	C	1.479581	-0.394160	-1.143616
C200	C	1.979581	0.105840	-0.643616
N201	N	1.530259	-0.432511	-1.188065
N202	N	2.030259	0.067489	-0.688065
H203	H	1.430619	-0.357166	-0.972153
H204	H	1.930619	0.142834	-0.472153
H205	H	0.977019	-0.213752	-0.670515
H206	H	1.477019	0.286248	-0.170515
H207	H	0.938661	-0.174720	-0.722778
H208	H	1.438661	0.325280	-0.222778
