data_functionalizedCrystal
_audit_creation_method	'MofGen! by Chris Wilmer'
_symmetry_space_group_name_H-M	'P1'
_symmetry_Int_Tables_number	1
_symmetry_cell_setting	triclinic
loop_
_symmetry_equiv_pos_as_xyz
  x,y,z
_cell_length_a	17.038272
_cell_length_b	19.188925
_cell_length_c	15.500227
_cell_angle_alpha	92.818783
_cell_angle_beta	86.956295
_cell_angle_gamma	87.127053
loop_
_atom_site_label
_atom_site_type_symbol
_atom_site_fract_x
_atom_site_fract_y
_atom_site_fract_z
O1	O	1.040531	0.148565	-0.071835
O2	O	1.373865	0.481899	0.261499
O3	O	1.707198	0.815232	0.594832
O4	O	0.812910	0.146157	-0.071860
O5	O	1.146243	0.479491	0.261473
O6	O	1.479576	0.812824	0.594807
O7	O	0.933291	0.046114	-0.071842
O8	O	1.266624	0.379447	0.261492
O9	O	1.599958	0.712781	0.594825
O10	O	0.920150	0.248609	-0.071853
O11	O	1.253483	0.581942	0.261480
O12	O	1.586816	0.915275	0.594814
O13	O	0.925986	0.052159	0.072046
O14	O	1.259319	0.385493	0.405379
O15	O	1.592653	0.718826	0.738712
O16	O	0.805605	0.152203	0.072027
O17	O	1.138938	0.485536	0.405361
O18	O	1.472271	0.818869	0.738694
O19	O	1.033226	0.154611	0.072053
O20	O	1.366560	0.487944	0.405386
O21	O	1.699893	0.821277	0.738720
Cu22	Cu	0.918748	0.153959	0.085178
Cu23	Cu	1.252082	0.487292	0.418512
Cu24	Cu	1.585415	0.820625	0.751845
Cu25	Cu	0.927387	0.146809	-0.084985
Cu26	Cu	1.260721	0.480143	0.248348
Cu27	Cu	1.594054	0.813476	0.581681
O28	O	0.912845	0.254654	0.072035
O29	O	1.246178	0.587987	0.405368
O30	O	1.579512	0.921321	0.738701
C31	C	0.780136	0.146991	0.000080
C32	C	1.113469	0.480324	0.333414
C33	C	1.446803	0.813657	0.666747
C34	C	0.693364	0.140459	0.000071
C35	C	1.026697	0.473792	0.333404
C36	C	1.360031	0.807125	0.666737
C37	C	0.643061	0.200425	0.000068
C38	C	0.976395	0.533759	0.333402
C39	C	1.309728	0.867092	0.666735
C40	C	0.561529	0.194285	0.000080
C41	C	0.894863	0.527618	0.333414
C42	C	1.228196	0.860951	0.666747
C43	C	0.530302	0.128177	0.000089
C44	C	0.863636	0.461510	0.333423
C45	C	1.196969	0.794843	0.666756
C46	C	0.580611	0.068206	0.000094
C47	C	0.913945	0.401539	0.333428
C48	C	1.247278	0.734872	0.666761
C49	C	0.662141	0.074347	0.000088
C50	C	0.995475	0.407681	0.333422
C51	C	1.328808	0.741014	0.666755
C52	C	0.284611	0.106480	0.000114
C53	C	0.617945	0.439813	0.333447
C54	C	0.951278	0.773146	0.666780
C55	C	0.203075	0.100342	0.000117
C56	C	0.536408	0.433676	0.333450
C57	C	0.869742	0.767009	0.666784
C58	C	0.183999	0.226422	0.000105
C59	C	0.517332	0.559755	0.333438
C60	C	0.850665	0.893089	0.666771
C61	C	0.265531	0.232558	0.000093
C62	C	0.598865	0.565891	0.333427
C63	C	0.932198	0.899224	0.666760
C64	C	0.315833	0.172587	0.000103
C65	C	0.649166	0.505920	0.333437
C66	C	0.982500	0.839254	0.666770
C67	C	0.446964	0.121898	0.000099
C68	C	0.780297	0.455232	0.333432
C69	C	1.113631	0.788565	0.666766
C70	C	0.399169	0.178866	0.000100
C71	C	0.732503	0.512200	0.333433
C72	C	1.065836	0.845533	0.666766
C73	C	0.929214	0.023099	0.000101
C74	C	1.262547	0.356432	0.333435
C75	C	1.595880	0.689766	0.666768
C76	C	0.927939	-0.054485	0.000099
C77	C	1.261272	0.278848	0.333433
C78	C	1.594605	0.612182	0.666766
C79	C	0.990036	-0.612398	0.000085
C80	C	1.323369	-0.279065	0.333418
C81	C	1.656702	0.054269	0.666751
C82	C	0.991240	-0.539500	0.000093
C83	C	1.324574	-0.206166	0.333426
C84	C	1.657907	0.127167	0.666759
C85	C	0.920604	-0.498954	0.000084
C86	C	1.253938	-0.165621	0.333418
C87	C	1.587271	0.167713	0.666751
C88	C	0.848757	-0.531311	0.000090
C89	C	1.182090	-0.197978	0.333424
C90	C	1.515423	0.135355	0.666757
C91	C	0.847554	-0.604208	0.000091
C92	C	1.180887	-0.270875	0.333424
C93	C	1.514220	0.062459	0.666758
N94	N	0.871953	-0.383508	-0.048897
N95	N	1.205286	-0.050175	0.284436
N96	N	1.538620	0.283158	0.617770
N97	N	0.873101	-0.314260	-0.048899
N98	N	1.206434	0.019074	0.284434
N99	N	1.539768	0.352407	0.617767
C100	C	0.924225	-0.279320	0.000084
C101	C	1.257558	0.054014	0.333418
C102	C	1.590892	0.387347	0.666751
N103	N	0.974170	-0.316245	0.049060
N104	N	1.307504	0.017088	0.382393
N105	N	1.640837	0.350421	0.715726
N106	N	0.973025	-0.385501	0.049058
N107	N	1.306358	-0.052167	0.382391
N108	N	1.639691	0.281166	0.715725
C109	C	0.921901	-0.419909	0.000084
C110	C	1.255234	-0.086576	0.333417
C111	C	1.588568	0.246758	0.666751
C112	C	0.997374	-0.167926	0.000093
C113	C	1.330707	0.165407	0.333426
C114	C	1.664041	0.498741	0.666760
C115	C	0.998575	-0.095026	0.000106
C116	C	1.331909	0.238308	0.333440
C117	C	1.665242	0.571641	0.666773
C118	C	0.856090	-0.086839	0.000095
C119	C	1.189424	0.246494	0.333429
C120	C	1.522757	0.579828	0.666762
C121	C	0.854890	-0.159738	0.000091
C122	C	1.188224	0.173596	0.333424
C123	C	1.521557	0.506929	0.666757
C124	C	0.925535	-0.200277	0.000085
C125	C	1.258868	0.133056	0.333419
C126	C	1.592201	0.466390	0.666752
C127	C	1.066000	0.153777	0.000110
C128	C	1.399334	0.487111	0.333444
C129	C	1.732667	0.820444	0.666777
C130	C	1.152772	0.160309	0.000114
C131	C	1.486106	0.493642	0.333448
C132	C	1.819439	0.826976	0.666781
C133	C	0.916922	0.277669	0.000090
C134	C	1.250256	0.611002	0.333423
C135	C	1.583589	0.944336	0.666756
C136	C	0.918198	0.355253	0.000086
C137	C	1.251531	0.688586	0.333419
C138	C	1.584865	1.021919	0.666752
N139	N	0.912678	0.158987	0.204862
N140	N	1.246011	0.492320	0.538196
N141	N	1.579345	0.825654	0.871529
N142	N	0.933464	0.141776	-0.204669
N143	N	1.266798	0.475109	0.128664
N144	N	1.600131	0.808442	0.461997
C145	C	0.963706	0.116613	0.250147
C146	C	1.297039	0.449946	0.583480
C147	C	1.630372	0.783280	0.916813
C148	C	0.959122	0.120423	0.340719
C149	C	1.292455	0.453756	0.674052
C150	C	1.625788	0.787089	1.007385
C151	C	0.903513	0.166611	0.386005
C152	C	1.236847	0.499944	0.719338
C153	C	1.570180	0.833277	1.052672
C154	C	0.852481	0.208986	0.340714
C155	C	1.185814	0.542320	0.674047
C156	C	1.519147	0.875653	1.007381
C157	C	0.857061	0.205173	0.250144
C158	C	1.190395	0.538506	0.583477
C159	C	1.523728	0.871839	0.916810
C160	C	0.887012	0.180338	0.659469
C161	C	1.220345	0.513671	0.992803
C162	C	1.553679	0.847004	1.326136
C163	C	0.882437	0.184150	0.750046
C164	C	1.215770	0.517483	1.083379
C165	C	1.549103	0.850817	1.416713
C166	C	0.989077	0.095585	0.750045
C167	C	1.322411	0.428918	1.083378
C168	C	1.655744	0.762251	1.416711
C169	C	0.993656	0.091778	0.659472
C170	C	1.326990	0.425111	0.992806
C171	C	1.660323	0.758445	1.326139
C172	C	0.942621	0.134151	0.614189
C173	C	1.275954	0.467485	0.947523
C174	C	1.609287	0.800818	1.280856
C175	C	0.898828	0.170507	0.478584
C176	C	1.232162	0.503841	0.811918
C177	C	1.565495	0.837174	1.145251
C178	C	0.947303	0.130250	0.521612
C179	C	1.280636	0.463584	0.854945
C180	C	1.613969	0.796917	1.188279
H181	H	0.520575	0.243116	0.000077
H182	H	0.853909	0.576449	0.333411
H183	H	1.187242	0.909782	0.666744
O184	O	0.831976	0.226049	0.610638
O185	O	1.165309	0.559382	0.943971
O186	O	1.498643	0.892715	1.277305
H187	H	0.796166	0.192654	0.569391
H188	H	1.129499	0.525987	0.902725
H189	H	1.462833	0.859321	1.236058
H190	H	0.791244	-0.498294	0.000086
H191	H	1.124578	-0.164961	0.333420
H192	H	1.457911	0.168373	0.666753
H193	H	0.421528	0.068074	0.000131
H194	H	0.754862	0.401407	0.333464
H195	H	1.088195	0.734740	0.666797
O196	O	0.779905	-0.043112	0.000091
O197	O	1.113238	0.290222	0.333425
O198	O	1.446572	0.623555	0.666758
H199	H	0.742544	-0.052675	0.058741
H200	H	1.075878	0.280659	0.392074
H201	H	1.409211	0.613992	0.725407
O202	O	0.777408	-0.194637	0.000083
O203	O	1.110742	0.138697	0.333416
O204	O	1.444075	0.472030	0.666750
H205	H	0.728492	-0.154198	0.000073
H206	H	1.061825	0.179135	0.333406
H207	H	1.395158	0.512468	0.666740
H208	H	1.008991	0.079005	0.213281
H209	H	1.342324	0.412338	0.546614
H210	H	1.675657	0.745672	0.879947
H211	H	0.789053	-0.630546	0.000094
H212	H	1.122386	-0.297212	0.333427
H213	H	1.455719	0.036121	0.666761
H214	H	1.000672	0.085918	0.377589
H215	H	1.334005	0.419251	0.710922
H216	H	1.667338	0.752585	1.044256
O217	O	1.068725	-0.504595	0.000079
O218	O	1.402059	-0.171262	0.333412
O219	O	1.735392	0.162072	0.666745
H220	H	1.117646	-0.545032	0.000068
H221	H	1.450979	-0.211699	0.333401
H222	H	1.784313	0.121635	0.666735
O223	O	1.073562	-0.211658	0.000104
O224	O	1.406895	0.121675	0.333437
O225	O	1.740229	0.455009	0.666770
H226	H	1.123719	-0.176912	0.000121
H227	H	1.457052	0.156421	0.333454
H228	H	1.790386	0.489754	0.666787
H229	H	1.047560	-0.645401	0.000085
H230	H	1.380893	-0.312067	0.333418
H231	H	1.714226	0.021266	0.666752
H232	H	0.807199	0.246591	0.377591
H233	H	1.140533	0.579924	0.710925
H234	H	1.473866	0.913258	1.044258
O235	O	0.838858	0.220327	0.527435
O236	O	1.172191	0.553661	0.860768
O237	O	1.505525	0.886994	1.194101
H238	H	0.804140	0.249155	0.480733
H239	H	1.137473	0.582489	0.814067
H240	H	1.470806	0.915822	1.147400
H241	H	0.290950	0.286389	0.000076
H242	H	0.624284	0.619722	0.333410
H243	H	0.957617	0.953056	0.666743
H244	H	0.815508	0.239677	0.213274
H245	H	1.148842	0.573011	0.546607
H246	H	1.482175	0.906344	0.879941
H247	H	0.668479	0.254257	0.000060
H248	H	1.001813	0.587591	0.333394
H249	H	1.335146	0.920924	0.666727
H250	H	0.837151	0.221764	0.786914
H251	H	1.170485	0.555098	1.120247
H252	H	1.503818	0.888431	1.453581
O253	O	0.169396	0.029035	0.000133
O254	O	0.502729	0.362368	0.333467
O255	O	0.836062	0.695702	0.666800
H256	H	0.129731	0.025696	0.058779
H257	H	0.463065	0.359030	0.392112
H258	H	0.796398	0.692363	0.725446
O259	O	1.076062	-0.060129	0.000094
O260	O	1.409395	0.273204	0.333428
O261	O	1.742728	0.606537	0.666761
H262	H	1.124979	-0.100569	0.000078
H263	H	1.458313	0.232764	0.333412
H264	H	1.791646	0.566097	0.666745
O265	O	1.053627	0.041955	0.610627
O266	O	1.386960	0.375288	0.943960
O267	O	1.720294	0.708622	1.277294
H268	H	1.088335	0.013123	0.657333
H269	H	1.421668	0.346457	0.990667
H270	H	1.755002	0.679790	1.324000
O271	O	1.044115	0.049877	0.798883
O272	O	1.377448	0.383211	1.132216
O273	O	1.710782	0.716544	1.465549
H274	H	1.031586	0.060282	0.869470
H275	H	1.364919	0.393615	1.202803
H276	H	1.698253	0.726949	1.536137
H277	H	0.992576	0.092641	0.484737
H278	H	1.325909	0.425975	0.818071
H279	H	1.659243	0.759308	1.151404
H280	H	0.325558	0.057647	0.000122
H281	H	0.658891	0.390980	0.333456
H282	H	0.992224	0.724314	0.666789
O283	O	0.129742	0.291101	0.000113
O284	O	0.463075	0.624434	0.333447
O285	O	0.796408	0.957768	0.666780
H286	H	0.095100	0.288857	-0.058524
H287	H	0.428433	0.622190	0.274809
H288	H	0.761767	0.955524	0.608143
O289	O	0.546936	-0.003098	0.000111
O290	O	0.880269	0.330235	0.333445
O291	O	1.213603	0.663568	0.666778
H292	H	0.513222	-0.011383	-0.058535
H293	H	0.846555	0.321950	0.274798
H294	H	1.179889	0.655283	0.608131
O295	O	0.716403	0.009670	0.000089
O296	O	1.049736	0.343004	0.333422
O297	O	1.383070	0.676337	0.666755
H298	H	0.680994	-0.037331	0.000088
H299	H	1.014327	0.296002	0.333421
H300	H	1.347660	0.629335	0.666755
H301	H	0.424598	0.232691	0.000097
H302	H	0.757931	0.566025	0.333431
H303	H	1.091264	0.899358	0.666764
