data_functionalizedCrystal
_audit_creation_method	'MofGen! by Chris Wilmer'
_symmetry_space_group_name_H-M	'P1'
_symmetry_Int_Tables_number	1
_symmetry_cell_setting	triclinic
loop_
_symmetry_equiv_pos_as_xyz
  x,y,z
_cell_length_a	14.853567
_cell_length_b	13.330367
_cell_length_c	14.853579
_cell_angle_alpha	90.003684
_cell_angle_beta	96.362633
_cell_angle_gamma	89.994774
loop_
_atom_site_label
_atom_site_type_symbol
_atom_site_fract_x
_atom_site_fract_y
_atom_site_fract_z
O1	O	1.196375	-0.083353	-0.117703
O2	O	0.933916	-0.083370	-0.131724
O3	O	1.072150	-0.083356	0.006516
O4	O	1.058140	-0.083366	-0.255942
O5	O	1.072129	0.083491	0.006518
O6	O	0.933894	0.083477	-0.131722
O7	O	1.196353	0.083494	-0.117700
Cu8	Cu	1.065121	0.098720	-0.124711
Cu9	Cu	1.065147	-0.098596	-0.124713
O10	O	1.058118	0.083481	-0.255940
C11	C	0.900316	0.000052	-0.131087
C12	C	0.800232	0.000045	-0.129184
N13	N	1.065110	0.237502	-0.124708
C14	C	1.003926	0.710119	-0.185905
C15	C	1.126376	0.710099	-0.063522
C16	C	1.126367	0.605081	-0.063518
C17	C	1.065137	0.552576	-0.124710
C18	C	1.003917	0.605091	-0.185906
C19	C	1.187592	0.552558	-0.002330
C20	C	1.187586	0.447534	-0.002325
C21	C	1.126352	0.395028	-0.063514
C22	C	1.065128	0.447548	-0.124711
C23	C	1.003898	0.395044	-0.185903
C24	C	0.942670	0.447563	-0.247097
C25	C	0.942682	0.552585	-0.247095
C26	C	1.126339	0.290006	-0.063516
C27	C	1.003889	0.290016	-0.185904
C28	C	0.387695	0.000071	-0.039018
C29	C	0.366421	0.000064	-0.203250
C30	C	0.460455	0.000061	-0.205040
C31	C	0.518113	0.000061	-0.123818
C32	C	0.481738	0.000065	-0.040806
C33	C	0.496837	0.000047	-0.288051
C34	C	0.590876	0.000042	-0.289845
C35	C	0.648537	0.000050	-0.208621
C36	C	0.612156	0.000055	-0.125606
C37	C	0.669814	0.000055	-0.044384
C38	C	0.633435	0.000068	0.038633
C39	C	0.539398	0.000073	0.040417
C40	C	0.742574	0.000045	-0.210406
C41	C	0.763857	0.000049	-0.046171
C42	C	1.229953	0.000071	-0.118337
C43	C	1.330036	0.000071	-0.120241
C44	C	1.071503	0.000067	0.040106
C45	C	1.069595	0.000064	0.140189
N46	N	1.065155	0.762623	-0.124713
C47	C	1.068709	-0.090889	0.187202
C48	C	1.068695	0.091014	0.187218
C49	C	1.066907	0.091015	0.281252
C50	C	1.066021	0.000062	0.328266
C51	C	1.066923	-0.090891	0.281245
C52	C	1.066014	0.181966	0.328281
C53	C	1.064227	0.181971	0.422321
C54	C	1.063335	0.091017	0.469335
C55	C	1.064236	0.000060	0.422309
C56	C	1.063350	-0.090893	0.469322
C57	C	1.064244	-0.181851	0.422297
C58	C	1.066031	-0.181845	0.328260
C59	C	1.061549	0.091011	0.563372
C60	C	1.061564	-0.090895	0.563365
C61	C	1.058763	0.000058	0.710470
C62	C	1.060663	0.000058	0.610386
H63	H	0.954025	0.247274	-0.235731
C64	C	0.433415	0.000050	-0.377386
H65	H	0.372200	0.000069	-0.364430
H66	H	0.444449	-0.058135	-0.411424
H67	H	0.444457	0.058239	-0.411416
C68	C	1.066993	0.282004	0.276567
H69	H	1.068175	0.268976	0.213826
H70	H	1.119231	0.319373	0.298781
H71	H	1.014162	0.319377	0.285176
H72	H	0.358071	0.000085	0.028572
H73	H	1.176195	0.247250	-0.013697
C74	C	0.499383	0.000074	0.131727
H75	H	0.547188	0.000082	0.179845
H76	H	0.463145	-0.058110	0.135832
H77	H	0.463137	0.058264	0.135839
H78	H	0.892833	0.595352	-0.296917
C79	C	0.827274	0.000045	0.043175
H80	H	0.792138	0.000044	0.092867
H81	H	0.864406	0.058221	0.045895
H82	H	0.864396	-0.058153	0.045889
C83	C	0.875323	0.389802	-0.314405
H84	H	0.884090	0.319734	-0.305636
H85	H	0.885184	0.407007	-0.374594
H86	H	0.815142	0.407017	-0.304496
H87	H	1.069433	-0.164945	0.148909
C88	C	0.303001	0.000065	-0.292587
H89	H	0.241785	0.000075	-0.279633
H90	H	0.314042	-0.058117	-0.326626
H91	H	0.314037	0.058257	-0.326613
H92	H	1.066762	-0.255898	0.289964
H93	H	1.176232	0.752851	-0.013705
H94	H	1.237448	0.595311	0.047487
H95	H	0.620487	0.000032	-0.357441
H96	H	0.772190	0.000037	-0.277996
C97	C	0.696861	0.000060	0.127974
H98	H	0.661732	0.000060	0.177672
H99	H	0.733994	0.058234	0.130690
H100	H	0.733979	-0.058140	0.130681
C101	C	1.060568	0.191048	0.615101
H102	H	1.059382	0.178022	0.677840
H103	H	1.008332	0.228427	0.592887
H104	H	1.113400	0.228410	0.606499
C105	C	0.936582	0.767883	-0.253216
H106	H	0.945356	0.837950	-0.244458
H107	H	0.876404	0.750680	-0.243317
H108	H	0.946454	0.750664	-0.313406
C109	C	1.060603	-0.190945	0.615075
H110	H	1.061401	-0.245110	0.573600
H111	H	1.007382	-0.194736	0.644964
H112	H	1.112451	-0.194719	0.658555
C113	C	1.063291	-0.281895	0.474016
H114	H	1.064090	-0.336067	0.432548
H115	H	1.010073	-0.285685	0.503910
H116	H	1.115142	-0.285658	0.517494
H117	H	1.063498	0.256034	0.460601
C118	C	1.254926	0.389772	0.064991
H119	H	1.291388	0.436084	0.101439
H120	H	1.292489	0.348786	0.032498
H121	H	1.222436	0.348820	0.102584
C122	C	1.069671	0.191053	0.135506
H123	H	1.070859	0.178028	0.072766
H124	H	1.121904	0.228427	0.157726
H125	H	1.016835	0.228420	0.144111
