data_functionalizedCrystal
_audit_creation_method	'MofGen! by Chris Wilmer'
_symmetry_space_group_name_H-M	'P1'
_symmetry_Int_Tables_number	1
_symmetry_cell_setting	triclinic
loop_
_symmetry_equiv_pos_as_xyz
  x,y,z
_cell_length_a	17.019383
_cell_length_b	9.065215
_cell_length_c	8.140239
_cell_angle_alpha	90.000105
_cell_angle_beta	86.121305
_cell_angle_gamma	95.794236
loop_
_atom_site_label
_atom_site_type_symbol
_atom_site_fract_x
_atom_site_fract_y
_atom_site_fract_z
O1	O	1.048005	-0.188055	-0.284715
O2	O	0.818514	-0.211998	-0.252283
O3	O	0.938004	0.014744	-0.269173
O4	O	0.928515	-0.414797	-0.267825
O5	O	0.937997	0.014747	0.004055
O6	O	0.818507	-0.211996	0.020945
O7	O	1.047998	-0.188052	-0.011487
Zn8	Zn	0.933252	-0.200024	0.048110
Zn9	Zn	0.933261	-0.200027	-0.311880
O10	O	0.928508	-0.414795	0.005403
C11	C	0.789116	-0.211085	-0.111515
C12	C	0.701527	-0.208351	-0.099137
C13	C	0.937089	0.069708	-0.132434
C14	C	0.934364	0.233477	-0.132062
C15	C	0.660374	-0.207071	-0.242247
C16	C	0.578074	-0.204525	-0.230592
C17	C	0.536929	-0.203249	-0.075827
C18	C	0.578087	-0.204533	0.067293
C19	C	0.660385	-0.207089	0.055637
C20	C	0.288442	-0.195540	-0.033183
C21	C	0.206138	-0.192979	-0.021538
C22	C	0.206130	-0.192974	-0.319424
C23	C	0.288431	-0.195522	-0.331067
C24	C	0.329581	-0.196814	-0.187947
C25	C	0.452805	-0.200642	-0.063911
C26	C	0.413703	-0.199431	-0.199864
C27	C	1.077397	-0.188965	-0.152259
C28	C	1.164985	-0.191700	-0.164647
N29	N	0.933252	-0.200020	0.293793
C30	C	0.929423	0.530242	-0.131351
C31	C	0.932148	0.366472	-0.131770
N32	N	0.933267	-0.200018	-0.557563
H33	H	0.693869	-0.208106	-0.368273
H34	H	0.447206	-0.200479	-0.325873
H35	H	0.693891	-0.208138	0.172172
H36	H	0.172637	-0.191982	0.104498
H37	H	0.321937	-0.196582	0.083356
H38	H	0.419296	-0.199598	0.062100
F39	F	0.332215	-0.196873	-0.495789
F40	F	0.534295	-0.203186	0.232007
H41	H	0.544571	-0.203483	-0.347127
H42	H	0.172616	-0.191926	-0.435944
