data_functionalizedCrystal
_audit_creation_method	'MofGen! by Chris Wilmer'
_symmetry_space_group_name_H-M	'P1'
_symmetry_Int_Tables_number	1
_symmetry_cell_setting	triclinic
loop_
_symmetry_equiv_pos_as_xyz
  x,y,z
_cell_length_a	14.908795
_cell_length_b	14.908520
_cell_length_c	14.908791
_cell_angle_alpha	83.236714
_cell_angle_beta	96.783856
_cell_angle_gamma	96.791092
loop_
_atom_site_label
_atom_site_type_symbol
_atom_site_fract_x
_atom_site_fract_y
_atom_site_fract_z
Zn1	Zn	1.396097	-0.314043	0.608884
Zn2	Zn	1.729430	0.019290	0.942217
Zn3	Zn	2.062764	0.352623	1.275551
Zn4	Zn	1.379464	-0.457546	0.465341
Zn5	Zn	1.712797	-0.124213	0.798674
Zn6	Zn	2.046131	0.209121	1.132008
Zn7	Zn	1.236034	-0.314009	0.448789
Zn8	Zn	1.569367	0.019324	0.782123
Zn9	Zn	1.902700	0.352657	1.115456
Zn10	Zn	1.235954	-0.474083	0.608811
Zn11	Zn	1.569287	-0.140750	0.942145
Zn12	Zn	1.902620	0.192583	1.275478
O13	O	1.311887	-0.389920	0.532956
O14	O	1.645220	-0.056587	0.866290
O15	O	1.978554	0.276746	1.199623
O16	O	1.520937	-0.326172	0.596800
O17	O	1.854271	0.007161	0.930133
O18	O	2.187604	0.340494	1.263467
O19	O	1.353510	-0.431570	0.336102
O20	O	1.686844	-0.098237	0.669436
O21	O	2.020177	0.235097	1.002769
O22	O	1.264261	-0.186966	0.463130
O23	O	1.597594	0.146368	0.796463
O24	O	1.930928	0.479701	1.129796
O25	O	1.508717	-0.431603	0.491340
O26	O	1.842050	-0.098270	0.824673
O27	O	2.175384	0.235064	1.158006
O28	O	1.381859	-0.186991	0.580751
O29	O	1.715192	0.146343	0.914084
O30	O	2.048525	0.479676	1.247417
O31	O	1.248133	-0.326114	0.323942
O32	O	1.581466	0.007219	0.657275
O33	O	1.914799	0.340552	0.990609
O34	O	1.108976	-0.342150	0.463059
O35	O	1.442310	-0.008817	0.796393
O36	O	1.775643	0.324516	1.129726
O37	O	1.264124	-0.459789	0.735864
O38	O	1.597458	-0.126456	1.069197
O39	O	1.930791	0.206878	1.402531
O40	O	1.108917	-0.459756	0.580627
O41	O	1.442251	-0.126423	0.913960
O42	O	1.775584	0.206911	1.247294
O43	O	1.381781	-0.342208	0.735918
O44	O	1.715114	-0.008875	1.069251
O45	O	2.048448	0.324459	1.402584
O46	O	1.353433	-0.586788	0.491269
O47	O	1.686766	-0.253454	0.824602
O48	O	2.020099	0.079879	1.157936
O49	O	1.247996	-0.598938	0.596676
O50	O	1.581329	-0.265604	0.930010
O51	O	1.914663	0.067729	1.263343
C52	C	1.076005	-0.402745	0.520040
C53	C	1.409338	-0.069411	0.853373
C54	C	1.742672	0.263922	1.186706
C55	C	0.975094	-0.408254	0.514537
C56	C	1.308427	-0.074921	0.847870
C57	C	1.641760	0.258413	1.181203
C58	C	1.298926	-0.625804	0.545782
C59	C	1.632260	-0.292471	0.879115
C60	C	1.965593	0.040862	1.212449
C61	C	1.293466	-0.726714	0.551304
C62	C	1.626800	-0.393380	0.884637
C63	C	1.960133	-0.060047	1.217970
C64	C	0.826503	-0.470809	0.451778
C65	C	1.159837	-0.137476	0.785111
C66	C	1.493170	0.195857	1.118444
C67	C	0.921318	-0.465637	0.456948
C68	C	1.254652	-0.132303	0.790282
C69	C	1.587985	0.201030	1.123615
C70	C	0.934048	-0.356038	0.566956
C71	C	1.267381	-0.022705	0.900290
C72	C	1.600715	0.310628	1.233623
C73	C	0.839233	-0.361211	0.561786
C74	C	1.172566	-0.027878	0.895119
C75	C	1.505900	0.305456	1.228453
C76	C	0.785464	-0.418599	0.504196
C77	C	1.118797	-0.085266	0.837529
C78	C	1.452130	0.248067	1.170862
C79	C	0.690647	-0.423777	0.499031
C80	C	1.023980	-0.090443	0.832364
C81	C	1.357314	0.242890	1.165697
C82	C	0.703378	-0.314174	0.609033
C83	C	1.036712	0.019159	0.942367
C84	C	1.370045	0.352493	1.275700
C85	C	0.798193	-0.309001	0.614204
C86	C	1.131527	0.024332	0.947537
C87	C	1.464860	0.357665	1.280870
C88	C	1.393122	-0.903619	0.452019
C89	C	1.726455	-0.570286	0.785353
C90	C	2.059789	-0.236952	1.118686
C91	C	1.387995	-0.998432	0.457205
C92	C	1.721328	-0.665098	0.790538
C93	C	2.054662	-0.331765	1.123871
C94	C	1.278090	-1.011154	0.566864
C95	C	1.611424	-0.677821	0.900198
C96	C	1.944757	-0.344488	1.233531
C97	C	1.283217	-0.916341	0.561679
C98	C	1.616551	-0.583008	0.895012
C99	C	1.949884	-0.249675	1.228345
C100	C	1.340734	-0.862577	0.504253
C101	C	1.674068	-0.529243	0.837587
C102	C	2.007401	-0.195910	1.170920
C103	C	1.345856	-0.767762	0.499064
C104	C	1.679189	-0.434429	0.832397
C105	C	2.012523	-0.101095	1.165730
C106	C	1.235957	-0.780486	0.608727
C107	C	1.569290	-0.447153	0.942061
C108	C	1.902623	-0.113820	1.275394
C109	C	1.230830	-0.875299	0.613913
C110	C	1.564163	-0.541966	0.947246
C111	C	1.897496	-0.208633	1.280580
C112	C	1.548690	-0.377047	0.545924
C113	C	1.882023	-0.043714	0.879258
C114	C	2.215357	0.289620	1.212591
C115	C	1.649601	-0.371561	0.551450
C116	C	1.982935	-0.038228	0.884784
C117	C	2.316268	0.295106	1.218117
C118	C	1.324799	-0.402847	0.769753
C119	C	1.658132	-0.069514	1.103086
C120	C	1.991466	0.263820	1.436419
C121	C	1.330301	-0.408356	0.870661
C122	C	1.663635	-0.075022	1.203995
C123	C	1.996968	0.258311	1.537328
C124	C	1.324924	-0.153115	0.520102
C125	C	1.658258	0.180218	0.853435
C126	C	1.991591	0.513552	1.186769
C127	C	1.330480	-0.052203	0.514624
C128	C	1.663813	0.281131	0.847958
C129	C	1.997147	0.614464	1.181291
C130	C	1.230890	-0.308899	1.047617
C131	C	1.564223	0.024434	1.380950
C132	C	1.897556	0.357767	1.714283
C133	C	1.236057	-0.314072	1.142429
C134	C	1.569390	0.019261	1.475762
C135	C	1.902723	0.352594	1.809096
C136	C	1.345797	-0.423879	1.155099
C137	C	1.679130	-0.090546	1.488433
C138	C	2.012463	0.242788	1.821766
C139	C	1.340630	-0.418706	1.060287
C140	C	1.673963	-0.085373	1.393621
C141	C	2.007297	0.247961	1.726954
C142	C	1.283175	-0.361213	1.006549
C143	C	1.616509	-0.027880	1.339882
C144	C	1.949842	0.305454	1.673216
C145	C	1.278014	-0.356036	0.911735
C146	C	1.611347	-0.022703	1.245069
C147	C	1.944681	0.310631	1.578402
C148	C	1.387749	-0.465847	0.924407
C149	C	1.721082	-0.132513	1.257741
C150	C	2.054415	0.200820	1.591074
C151	C	1.392916	-0.471020	1.019219
C152	C	1.726249	-0.137686	1.352553
C153	C	2.059582	0.195647	1.685886
C154	C	1.299016	-0.377065	1.297082
C155	C	1.632349	-0.043732	1.630415
C156	C	1.965683	0.289601	1.963749
C157	C	1.293509	-0.371559	1.196173
C158	C	1.626843	-0.038226	1.529507
C159	C	1.960176	0.295108	1.862840
H160	H	0.646869	-0.470508	0.452141
H161	H	0.980203	-0.137175	0.785474
H162	H	1.313536	0.196158	1.118807
H163	H	1.193296	-0.747060	0.651257
H164	H	1.526629	-0.413726	0.984591
H165	H	1.859963	-0.080393	1.317924
Cl166	Cl	1.158530	-0.942897	0.686103
Cl167	Cl	1.491863	-0.609564	1.019437
Cl168	Cl	1.825196	-0.276231	1.352770
Cl169	Cl	0.758905	-0.542971	0.379400
Cl170	Cl	1.092238	-0.209637	0.712733
Cl171	Cl	1.425571	0.123696	1.046066
Cl172	Cl	0.865797	-0.236860	0.686599
Cl173	Cl	1.199130	0.096473	1.019932
Cl174	Cl	1.532464	0.429806	1.353265
H175	H	1.193480	-0.271473	1.175862
H176	H	1.526814	0.061861	1.509196
H177	H	1.860147	0.395194	1.842529
Cl178	Cl	1.205789	-0.283758	0.844180
Cl179	Cl	1.539122	0.049575	1.177513
Cl180	Cl	1.872455	0.382908	1.510846
Cl181	Cl	1.453485	-0.531615	0.872774
Cl182	Cl	1.786818	-0.198282	1.206108
Cl183	Cl	2.120151	0.135052	1.539441
Cl184	Cl	0.972908	-0.531272	0.391046
Cl185	Cl	1.306241	-0.197939	0.724379
Cl186	Cl	1.639575	0.135395	1.057713
Cl187	Cl	1.158674	-0.236615	0.980057
Cl188	Cl	1.492007	0.096718	1.313391
Cl189	Cl	1.825341	0.430052	1.646724
H190	H	1.392560	-0.470699	1.198869
H191	H	1.725894	-0.137366	1.532202
H192	H	2.059227	0.195967	1.865536
H193	H	0.977843	-0.309310	0.613838
H194	H	1.311176	0.024023	0.947171
H195	H	1.644510	0.357357	1.280505
Cl196	Cl	1.465412	-0.836026	0.379816
Cl197	Cl	1.798745	-0.502693	0.713149
Cl198	Cl	2.132079	-0.169359	1.046482
H199	H	1.439690	-0.517832	1.062986
H200	H	1.773023	-0.184498	1.396319
H201	H	2.106357	0.148835	1.729652
H202	H	1.392687	-0.723987	0.452303
H203	H	1.726020	-0.390654	0.785636
H204	H	2.059353	-0.057321	1.118969
Cl205	Cl	0.651781	-0.248537	0.674937
Cl206	Cl	0.985114	0.084796	1.008270
Cl207	Cl	1.318448	0.418129	1.341603
H208	H	1.430656	-1.031844	0.414672
H209	H	1.763990	-0.698511	0.748006
H210	H	2.097323	-0.365177	1.081339
H211	H	1.231269	-1.054946	0.613623
H212	H	1.564602	-0.721612	0.946957
H213	H	1.897936	-0.388279	1.280290
