data_functionalizedCrystal
_audit_creation_method	'MofGen! by Chris Wilmer'
_symmetry_space_group_name_H-M	'P1'
_symmetry_Int_Tables_number	1
_symmetry_cell_setting	triclinic
loop_
_symmetry_equiv_pos_as_xyz
  x,y,z
_cell_length_a	17.699083
_cell_length_b	17.699104
_cell_length_c	16.776229
_cell_angle_alpha	89.992410
_cell_angle_beta	89.998886
_cell_angle_gamma	83.287266
loop_
_atom_site_label
_atom_site_type_symbol
_atom_site_fract_x
_atom_site_fract_y
_atom_site_fract_z
O1	O	1.004086	0.095712	-0.066178
O2	O	0.783708	0.108164	-0.066204
O3	O	0.900115	-0.008250	-0.066183
O4	O	0.887679	0.212126	-0.066199
O5	O	0.900099	-0.008257	0.066393
O6	O	0.783693	0.108157	0.066372
O7	O	1.004070	0.095705	0.066398
Zn8	Zn	0.893879	0.101930	0.087435
Zn9	Zn	0.893899	0.101939	-0.087241
O10	O	0.887664	0.212119	0.066377
C11	C	0.755503	0.107715	0.000081
C12	C	0.671485	0.106376	0.000071
C13	C	0.622869	0.174709	0.000066
C14	C	0.543926	0.173446	0.000076
C15	C	0.513600	0.103851	0.000086
C16	C	0.562222	0.035513	0.000093
C17	C	0.641164	0.036776	0.000088
C18	C	0.243859	0.030418	0.000113
C19	C	0.164911	0.029160	0.000115
C20	C	0.146621	0.167088	0.000101
C21	C	0.225563	0.168351	0.000097
C22	C	0.274178	0.100014	0.000108
C23	C	0.359777	0.101383	0.000098
C24	C	0.428002	0.102480	0.000090
C25	C	0.899659	-0.036450	0.000105
C26	C	0.898314	-0.120467	0.000105
C27	C	1.032275	0.096155	0.000112
C28	C	1.116293	0.097493	0.000116
C29	C	0.959058	-0.645338	0.000090
C30	C	0.960317	-0.566395	0.000097
C31	C	0.891982	-0.517777	0.000091
C32	C	0.822383	-0.548107	0.000085
C33	C	0.821125	-0.627049	0.000084
C34	C	0.827456	-0.229741	0.000092
C35	C	0.828720	-0.150794	0.000092
C36	C	0.966648	-0.169086	0.000106
C37	C	0.965390	-0.248029	0.000104
C38	C	0.895792	-0.278352	0.000103
C39	C	0.894427	-0.363951	0.000097
C40	C	0.893345	-0.432179	0.000091
C41	C	0.888120	0.240319	0.000087
C42	C	0.889464	0.324337	0.000082
N43	N	0.893871	0.101923	0.206646
N44	N	0.893914	0.101940	-0.206452
C45	C	0.945431	0.050396	0.248372
C46	C	0.945435	0.050395	0.331824
C47	C	0.893882	0.101926	0.373549
C48	C	0.842316	0.153456	0.331816
C49	C	0.842309	0.153452	0.248366
C50	C	0.842343	0.153470	0.668364
C51	C	0.842356	0.153472	0.751820
C52	C	0.945470	0.050414	0.751822
C53	C	0.945463	0.050410	0.668372
C54	C	0.893894	0.101937	0.626647
C55	C	0.893890	0.101936	0.536158
C56	C	0.893890	0.101931	0.464036
H57	H	0.250249	0.225023	0.000085
O58	O	1.001058	-0.005175	0.623366
H59	H	1.060045	0.004383	0.639371
O60	O	0.746064	-0.659763	0.000072
H61	H	0.698757	-0.612695	0.000060
O62	O	1.039097	-0.300462	0.000112
H63	H	1.026530	-0.360451	0.000104
H64	H	0.800322	0.195410	0.214393
H65	H	0.987415	0.008437	0.214406
O66	O	1.001092	-0.005169	0.796822
H67	H	0.969309	-0.041925	0.834846
H68	H	0.800356	0.195426	0.634398
H69	H	0.987419	0.008438	0.365798
O70	O	0.094187	0.240800	0.000106
H71	H	0.034198	0.228235	0.000123
H72	H	1.014705	-0.684918	0.000088
H73	H	1.016987	-0.541708	0.000104
O74	O	0.786762	0.209065	0.796828
H75	H	0.750902	0.244895	0.753795
H76	H	0.680747	-0.018868	0.000091
O77	O	0.786713	0.209041	0.376813
H78	H	0.795385	0.200394	0.441852
O79	O	1.041720	-0.136383	0.000117
H80	H	1.031119	-0.073322	0.000127
H81	H	0.647554	0.231382	0.000058
O82	O	0.132197	-0.045907	0.000139
H83	H	0.179264	-0.093215	0.000157
O84	O	0.755013	-0.098351	0.000099
H85	H	0.706404	-0.132698	0.000109
O86	O	0.491493	0.247151	0.000070
H87	H	0.431505	0.234584	0.000086
O88	O	0.296289	-0.043285	0.000125
H89	H	0.261937	-0.091889	0.000125
O90	O	0.529520	-0.039555	0.000106
H91	H	0.466458	-0.028955	0.000101
H92	H	0.770785	-0.254420	0.000082
H93	H	0.766743	-0.508516	0.000085
