data_functionalizedCrystal
_audit_creation_method	'MofGen! by Chris Wilmer'
_symmetry_space_group_name_H-M	'P1'
_symmetry_Int_Tables_number	1
_symmetry_cell_setting	triclinic
loop_
_symmetry_equiv_pos_as_xyz
  x,y,z
_cell_length_a	12.759399
_cell_length_b	12.759401
_cell_length_c	25.639234
_cell_angle_alpha	90.015863
_cell_angle_beta	89.981271
_cell_angle_gamma	89.986680
loop_
_atom_site_label
_atom_site_type_symbol
_atom_site_fract_x
_atom_site_fract_y
_atom_site_fract_z
Zn1	Zn	-0.418392	-1.606214	-0.295608
Zn2	Zn	-0.594073	-1.606117	-0.208182
Zn3	Zn	-0.418402	-1.430527	-0.208189
Zn4	Zn	-0.594023	-1.430503	-0.295588
O5	O	-0.506223	-1.518340	-0.251892
O6	O	-0.441713	-1.753222	-0.284016
O7	O	-0.570794	-1.582794	-0.135017
O8	O	-0.271380	-1.453883	-0.219797
O9	O	-0.570785	-1.753151	-0.219784
O10	O	-0.271372	-1.582960	-0.284024
O11	O	-0.441730	-1.453789	-0.135023
O12	O	-0.441682	-1.283503	-0.219778
O13	O	-0.570700	-1.453842	-0.368756
O14	O	-0.570710	-1.283485	-0.283990
O15	O	-0.441665	-1.582936	-0.368771
O16	O	-0.741087	-1.582771	-0.219765
O17	O	-0.741051	-1.453748	-0.283982
C18	C	-0.506192	-1.245373	-0.251883
C19	C	-0.506205	-1.128596	-0.251891
C20	C	-0.573495	-1.073753	-0.285271
C21	C	-0.573504	-0.964028	-0.285276
C22	C	-0.438930	-0.964002	-0.218517
C23	C	-0.438916	-1.073724	-0.218515
C24	C	-0.640784	-1.128625	-0.318647
C25	C	-0.708081	-1.073781	-0.352028
C26	C	-0.708090	-0.964057	-0.352033
C27	C	-0.640802	-0.909177	-0.318656
C28	C	-0.779190	-1.518275	-0.251882
C29	C	-0.895967	-1.518342	-0.251895
C30	C	-1.060537	-1.585674	-0.218510
C31	C	-0.950813	-1.585605	-0.218495
C32	C	-0.950849	-1.451137	-0.285309
C33	C	-1.060571	-1.451201	-0.285321
C34	C	-1.115379	-1.652948	-0.185111
C35	C	-1.060503	-1.720153	-0.151696
C36	C	-0.950779	-1.720084	-0.151681
C37	C	-0.895931	-1.652811	-0.185080
C38	C	-0.232189	-1.518435	-0.251913
C39	C	-0.115413	-1.518475	-0.251923
C40	C	-0.506176	-1.518397	-0.388265
C41	C	-0.506156	-1.518422	-0.446379
C42	C	-0.506244	-0.792374	-0.251899
C43	C	-0.506227	-0.909150	-0.251898
C44	C	-0.573274	-1.585622	-0.697562
C45	C	-0.573296	-1.585611	-0.642958
O46	O	-0.630478	-1.642699	-0.614712
N47	N	-0.506105	-1.518444	-0.615653
C48	C	-0.438896	-1.451277	-0.642955
O49	O	-0.381748	-1.394144	-0.614717
C50	C	-0.438880	-1.451283	-0.697559
C51	C	-0.506068	-1.518462	-0.724861
C52	C	-0.640457	-1.652795	-0.724864
C53	C	-0.640433	-1.652807	-0.779465
C54	C	-0.573227	-1.585647	-0.806763
C55	C	-0.506044	-1.518474	-0.779461
C56	C	-0.371677	-1.384111	-0.724860
C57	C	-0.371668	-1.384123	-0.779467
C58	C	-0.438855	-1.451301	-0.806769
C59	C	-0.438814	-1.451326	-0.861360
N60	N	-0.506005	-1.518493	-0.888665
C61	C	-0.573211	-1.585653	-0.861366
C62	C	-0.438936	-1.451267	-0.528285
C63	C	-0.438946	-1.451265	-0.473682
C64	C	-0.573347	-1.585598	-0.473688
C65	C	-0.573331	-1.585605	-0.528292
C66	C	-0.506126	-1.518434	-0.555589
C67	C	-0.573156	-1.585674	-0.976032
C68	C	-0.573123	-1.585683	-1.030637
C69	C	-0.438726	-1.451347	-1.030626
C70	C	-0.438754	-1.451341	-0.976026
C71	C	-0.505978	-1.518508	-0.948730
O72	O	-0.381664	-1.394265	-0.889641
O73	O	-0.630359	-1.642766	-0.889612
C74	C	-0.506193	-1.518344	-0.116049
C75	C	-0.505917	-1.518523	-0.057936
H76	H	-0.640806	-0.819832	-0.318668
C77	C	-1.120839	-1.794142	-0.114955
N78	N	-1.166282	-1.849872	-0.087280
C79	C	-0.364897	-1.134055	-0.181795
N80	N	-0.309142	-1.179497	-0.154136
C81	C	-0.890420	-1.793997	-0.114918
N82	N	-0.844959	-1.849671	-0.087227
C83	C	-0.364925	-0.903629	-0.181802
N84	N	-0.309186	-0.858156	-0.154146
C85	C	-1.236077	-1.653027	-0.185123
N86	N	-1.326987	-1.653084	-0.185132
C87	C	-0.640806	-1.249324	-0.318631
N88	N	-0.640832	-1.340234	-0.318615
H89	H	-0.316968	-1.329405	-0.702640
H90	H	-0.762878	-0.919406	-0.379218
C91	C	-0.782091	-1.134151	-0.388742
N92	N	-0.837838	-1.179621	-0.416394
H93	H	-0.806586	-1.652748	-0.185059
C94	C	-0.647284	-1.659469	-0.443649
N95	N	-0.702970	-1.715103	-0.421022
H96	H	-0.316940	-1.329423	-0.801690
C97	C	-0.890511	-1.377149	-0.322050
N98	N	-0.845065	-1.321425	-0.349726
C99	C	-0.364840	-1.377446	-0.945993
N100	N	-0.309174	-1.321780	-0.923375
C101	C	-1.120937	-1.377283	-0.322079
N102	N	-1.166405	-1.321605	-0.349766
C103	C	-0.647041	-1.659585	-1.060666
N104	N	-0.702717	-1.715243	-1.083282
H105	H	-0.384005	-1.396669	-1.052863
H106	H	-0.627889	-1.640375	-0.953814
C107	C	-0.364985	-1.377383	-0.558307
N108	N	-0.309284	-1.321736	-0.580918
C109	C	-0.365025	-1.377372	-0.443656
N110	N	-0.309351	-1.321708	-0.421043
H111	H	-0.695147	-1.707507	-0.801689
H112	H	-0.695189	-1.707486	-0.702643
C113	C	-0.647249	-1.659499	-0.558319
N114	N	-0.702930	-1.715156	-0.580932
