data_functionalizedCrystal
_audit_creation_method	'MofGen! by Chris Wilmer'
_symmetry_space_group_name_H-M	'P1'
_symmetry_Int_Tables_number	1
_symmetry_cell_setting	triclinic
loop_
_symmetry_equiv_pos_as_xyz
  x,y,z
_cell_length_a	10.654554
_cell_length_b	12.811415
_cell_length_c	9.730223
_cell_angle_alpha	84.567795
_cell_angle_beta	89.999646
_cell_angle_gamma	84.264032
loop_
_atom_site_label
_atom_site_type_symbol
_atom_site_fract_x
_atom_site_fract_y
_atom_site_fract_z
O1	O	1.667064	0.147444	-0.132669
O2	O	1.301513	0.161485	-0.134420
O3	O	1.493486	0.001739	-0.114503
O4	O	1.475091	0.307189	-0.152585
O5	O	1.493484	0.001743	0.114076
O6	O	1.301511	0.161489	0.094159
O7	O	1.667062	0.147448	0.095911
Zn8	Zn	1.484286	0.154469	0.131327
Zn9	Zn	1.484289	0.154464	-0.169836
O10	O	1.475089	0.307193	0.075994
C11	C	1.254720	0.160455	-0.020002
C12	C	1.115293	0.157367	-0.019617
C13	C	1.492454	-0.037370	0.004660
C14	C	1.489368	-0.153911	0.019181
C15	C	0.904310	0.248525	-0.030986
C16	C	1.035317	0.251427	-0.031348
C17	C	1.064257	0.060399	-0.007539
C18	C	0.933253	0.057499	-0.007187
C19	C	0.887603	0.358814	-0.044726
C20	C	1.018609	0.361716	-0.045087
C21	C	1.483549	-0.372895	-0.202759
C22	C	1.480649	-0.482395	-0.189122
C23	C	1.480660	-0.482411	0.060090
C24	C	1.483560	-0.372911	0.046453
C25	C	1.485006	-0.318157	-0.084976
C26	C	1.487915	-0.208656	-0.098611
C27	C	1.487917	-0.208674	0.150600
C28	C	1.485017	-0.318174	0.164237
C29	C	1.713855	0.148478	-0.018510
C30	C	1.853282	0.151565	-0.018904
C31	C	1.476121	0.346303	-0.043172
C32	C	1.479207	0.462843	-0.057702
N33	N	1.484293	0.154472	0.336863
N34	N	1.484292	0.154452	-0.375371
C35	C	1.569320	0.083761	0.417605
C36	C	1.569317	0.083748	0.561490
C37	C	1.399255	0.225167	0.543876
C38	C	1.399254	0.225173	0.399995
C39	C	1.667508	0.002117	0.427775
C40	C	1.667505	0.002104	0.571660
H41	H	0.891712	-0.021455	0.002634
H42	H	1.129384	-0.016186	0.001999
H43	H	1.330018	0.282729	0.595294
C44	C	1.639097	-0.106863	0.388592
H45	H	1.627401	-0.151685	0.470116
H46	H	1.707748	-0.136688	0.338069
H47	H	1.564592	-0.099445	0.333433
H48	H	0.845642	0.400374	-0.145564
C49	C	1.489501	-0.148427	-0.243175
H50	H	1.488205	-0.196713	-0.311368
H51	H	1.563778	-0.113180	-0.252756
H52	H	1.417473	-0.098242	-0.254596
H53	H	1.484738	-0.328314	-0.309774
H54	H	1.479458	-0.526958	-0.285034
C55	C	1.483435	-0.378409	0.308796
H56	H	1.481508	-0.451465	0.300051
H57	H	1.410770	-0.352998	0.356843
H58	H	1.557075	-0.367939	0.358674
H59	H	1.054061	0.396837	-0.148163
C60	C	0.825687	0.403833	0.082976
H61	H	0.888767	0.425893	0.139598
H62	H	0.783482	0.351026	0.133853
H63	H	0.766625	0.462370	0.054257
C64	C	1.057970	0.420027	0.076830
H65	H	0.985260	0.442023	0.127229
H66	H	1.098427	0.479912	0.042739
H67	H	1.114493	0.374119	0.135737
H68	H	1.763923	0.020089	0.608468
C69	C	1.479075	-0.542653	0.204646
H70	H	1.477147	-0.615707	0.195892
H71	H	1.406411	-0.517244	0.252693
H72	H	1.552715	-0.532187	0.254528
H73	H	1.330007	0.282743	0.334257
H74	H	1.489108	-0.164095	0.246508
H75	H	1.758559	0.027682	0.379962
H76	H	1.637388	-0.074136	0.625780
