data_functionalizedCrystal
_audit_creation_method	'MofGen! by Chris Wilmer'
_symmetry_space_group_name_H-M	'P1'
_symmetry_Int_Tables_number	1
_symmetry_cell_setting	triclinic
loop_
_symmetry_equiv_pos_as_xyz
  x,y,z
_cell_length_a	11.792241
_cell_length_b	12.996460
_cell_length_c	11.792241
_cell_angle_alpha	90.006284
_cell_angle_beta	84.193416
_cell_angle_gamma	90.001369
loop_
_atom_site_label
_atom_site_type_symbol
_atom_site_fract_x
_atom_site_fract_y
_atom_site_fract_z
O1	O	1.506910	0.085467	0.155570
O2	O	1.840244	0.418801	0.488903
O3	O	2.173577	0.752134	0.822237
O4	O	1.176569	0.085491	0.171603
O5	O	1.509903	0.418825	0.504936
O6	O	1.843236	0.752158	0.838270
O7	O	1.349756	0.085472	-0.001584
O8	O	1.683090	0.418805	0.331749
O9	O	2.016423	0.752138	0.665083
O10	O	1.333723	0.085487	0.328757
O11	O	1.667057	0.418820	0.662090
O12	O	2.000390	0.752154	0.995424
O13	O	1.349738	-0.085662	-0.001594
O14	O	1.683071	0.247671	0.331739
O15	O	2.016405	0.581004	0.665073
O16	O	1.176551	-0.085642	0.171593
O17	O	1.509884	0.247691	0.504926
O18	O	1.843218	0.581024	0.838260
O19	O	1.506892	-0.085666	0.155560
O20	O	1.840225	0.247667	0.488894
O21	O	2.173559	0.581000	0.822227
Cu22	Cu	1.341720	-0.101280	0.163576
Cu23	Cu	1.675053	0.232053	0.496909
Cu24	Cu	2.008387	0.565386	0.830242
Cu25	Cu	1.341741	0.101105	0.163587
Cu26	Cu	1.675075	0.434439	0.496921
Cu27	Cu	2.008408	0.767772	0.830254
O28	O	1.333705	-0.085647	0.328747
O29	O	1.667038	0.247687	0.662081
O30	O	2.000372	0.581020	0.995414
C31	C	1.134269	-0.000073	0.170591
C32	C	1.467603	0.333261	0.503924
C33	C	1.800936	0.666594	0.837258
C34	C	1.008255	-0.000064	0.167576
C35	C	1.341589	0.333270	0.500910
C36	C	1.674922	0.666603	0.834243
N37	N	1.341713	-0.243627	0.163567
N38	N	1.675046	0.089706	0.496900
N39	N	2.008380	0.423039	0.830234
C40	C	0.777543	-0.000093	0.162034
C41	C	1.110877	0.333240	0.495367
C42	C	1.444210	0.666573	0.828700
C43	C	0.905928	-0.000077	0.165113
C44	C	1.239262	0.333256	0.498447
C45	C	1.572595	0.666590	0.831780
C46	C	1.341740	-0.663442	0.163588
C47	C	1.675073	-0.330108	0.496922
C48	C	2.008407	0.003225	0.830255
C49	C	1.341729	-0.546637	0.163586
C50	C	1.675062	-0.213303	0.496920
C51	C	2.008396	0.120030	0.830253
C52	C	1.341727	-0.453538	0.163579
C53	C	1.675060	-0.120205	0.496912
C54	C	2.008394	0.213128	0.830245
C55	C	1.341715	-0.336726	0.163575
C56	C	1.675048	-0.003392	0.496908
C57	C	2.008382	0.329941	0.830241
C58	C	1.549192	-0.000100	0.156572
C59	C	1.882525	0.333233	0.489905
C60	C	2.215859	0.666566	0.823239
C61	C	1.675206	-0.000103	0.159587
C62	C	2.008539	0.333231	0.492920
C63	C	2.341873	0.666564	0.826253
C64	C	1.348740	-0.000095	-0.043880
C65	C	1.682073	0.333238	0.289453
C66	C	2.015407	0.666572	0.622787
C67	C	1.345726	-0.000094	-0.169894
C68	C	1.679059	0.333240	0.163440
C69	C	2.012392	0.666573	0.496773
N70	N	1.341757	0.243452	0.163587
N71	N	1.675091	0.576786	0.496920
N72	N	2.008424	0.910119	0.830254
C73	C	1.340183	-0.000076	-0.400606
C74	C	1.673516	0.333257	-0.067272
C75	C	2.006849	0.666591	0.266061
C76	C	1.343262	-0.000086	-0.272221
C77	C	1.676596	0.333248	0.061113
C78	C	2.009929	0.666581	0.394446
C79	C	1.334721	-0.000078	0.371043
C80	C	1.668055	0.333255	0.704376
C81	C	2.001388	0.666589	1.037710
C82	C	1.337736	-0.000072	0.497057
C83	C	1.671069	0.333261	0.830390
C84	C	2.004402	0.666594	1.163723
