data_functionalizedCrystal
_audit_creation_method	'MofGen! by Chris Wilmer'
_symmetry_space_group_name_H-M	'P1'
_symmetry_Int_Tables_number	1
_symmetry_cell_setting	triclinic
loop_
_symmetry_equiv_pos_as_xyz
  x,y,z
_cell_length_a	12.827893
_cell_length_b	13.897448
_cell_length_c	12.827885
_cell_angle_alpha	89.967724
_cell_angle_beta	89.980728
_cell_angle_gamma	90.017663
loop_
_atom_site_label
_atom_site_type_symbol
_atom_site_fract_x
_atom_site_fract_y
_atom_site_fract_z
Zn1	Zn	1.597653	-0.383969	-0.590831
Zn2	Zn	1.930986	-0.050636	-0.257497
Zn3	Zn	2.264320	0.282698	0.075836
Zn4	Zn	1.597540	-0.545295	-0.416083
Zn5	Zn	1.930873	-0.211962	-0.082750
Zn6	Zn	2.264207	0.121371	0.250583
Zn7	Zn	1.422894	-0.384016	-0.416104
Zn8	Zn	1.756228	-0.050683	-0.082771
Zn9	Zn	2.089561	0.282651	0.250562
Zn10	Zn	1.422873	-0.545224	-0.590783
Zn11	Zn	1.756206	-0.211890	-0.257450
Zn12	Zn	2.089539	0.121443	0.075883
O13	O	1.510240	-0.464626	-0.503450
O14	O	1.843573	-0.131293	-0.170117
O15	O	2.176907	0.202041	0.163216
O16	O	1.743874	-0.405380	-0.567661
O17	O	2.077207	-0.072046	-0.234328
O18	O	2.410541	0.261287	0.099006
O19	O	1.574335	-0.523951	-0.269850
O20	O	1.907668	-0.190618	0.063483
O21	O	2.241001	0.142716	0.396817
O22	O	1.446133	-0.249028	-0.439311
O23	O	1.779466	0.084305	-0.105977
O24	O	2.112799	0.417639	0.227356
O25	O	1.743791	-0.523905	-0.439275
O26	O	2.077124	-0.190572	-0.105942
O27	O	2.410458	0.142761	0.227392
O28	O	1.574527	-0.248994	-0.567681
O29	O	1.907860	0.084340	-0.234348
O30	O	2.241194	0.417673	0.098985
O31	O	1.446023	-0.405460	-0.269865
O32	O	1.779357	-0.072126	0.063468
O33	O	2.112690	0.261207	0.396801
O34	O	1.276655	-0.405390	-0.439265
O35	O	1.609989	-0.072057	-0.105931
O36	O	1.943322	0.261277	0.227402
O37	O	1.446096	-0.523783	-0.737026
O38	O	1.779429	-0.190450	-0.403692
O39	O	2.112762	0.142884	-0.070359
O40	O	1.276639	-0.523829	-0.567601
O41	O	1.609973	-0.190495	-0.234267
O42	O	1.943306	0.142838	0.099066
O43	O	1.574506	-0.405310	-0.737060
O44	O	1.907839	-0.071977	-0.403727
O45	O	2.241173	0.261357	-0.070394
O46	O	1.574314	-0.680267	-0.439229
O47	O	1.907647	-0.346934	-0.105896
O48	O	2.240980	-0.013601	0.227438
O49	O	1.445986	-0.680215	-0.567580
O50	O	1.779320	-0.346881	-0.234247
O51	O	2.112653	-0.013548	0.099086
C52	C	1.238730	-0.464607	-0.503430
C53	C	1.572063	-0.131274	-0.170097
C54	C	1.905397	0.202059	0.163236
C55	C	1.122577	-0.464623	-0.503447
C56	C	1.455910	-0.131289	-0.170113
C57	C	1.789244	0.202044	0.163220
C58	C	1.070812	-0.523321	-0.566853
C59	C	1.404145	-0.189988	-0.233520
C60	C	1.737479	0.143345	0.099813
C61	C	0.950762	-0.523338	-0.566872
C62	C	1.284095	-0.190005	-0.233538
C63	C	1.617428	0.143328	0.099795
C64	C	1.510164	-0.715240	-0.503420
C65	C	1.843497	-0.381907	-0.170087
C66	C	2.176830	-0.048574	0.163247
C67	C	1.510227	-0.822454	-0.503442
C68	C	1.843560	-0.489121	-0.170109
C69	C	2.176893	-0.155788	0.163225
C70	C	1.510336	-1.018749	-0.503508
C71	C	1.843670	-0.685416	-0.170174
C72	C	2.177003	-0.352083	0.163159
C73	C	1.510272	-0.909517	-0.503474
C74	C	1.843606	-0.576183	-0.170141
C75	C	2.176939	-0.242850	0.163192
C76	C	1.782810	-0.464645	-0.503471
C77	C	2.116143	-0.131312	-0.170138
C78	C	2.449477	0.202021	0.163196
C79	C	1.898963	-0.464654	-0.503480
C80	C	2.232296	-0.131320	-0.170146
C81	C	2.565630	0.202013	0.163187
C82	C	1.510311	-0.464533	-0.776021
C83	C	1.843644	-0.131200	-0.442687
C84	C	2.176978	0.202133	-0.109354
C85	C	1.510341	-0.464494	-0.892174
C86	C	1.843675	-0.131161	-0.558841
C87	C	2.177008	0.202173	-0.225507
C88	C	1.510345	-0.213033	-0.503504
C89	C	1.843678	0.120300	-0.170170
C90	C	2.177012	0.453634	0.163163
C91	C	1.510390	-0.105819	-0.503526
C92	C	1.843723	0.227514	-0.170193
C93	C	2.177056	0.560848	0.163140
C94	C	1.446853	-0.523052	-1.063986
C95	C	1.780186	-0.189719	-0.730653
C96	C	2.113520	0.143615	-0.397319
C97	C	1.446820	-0.523094	-0.943935
C98	C	1.780153	-0.189761	-0.610602
C99	C	2.113487	0.143572	-0.277269
C100	C	1.510229	-0.464649	-0.231940
C101	C	1.843563	-0.131315	0.101393
C102	C	2.176896	0.202018	0.434726
C103	C	1.510401	-0.464416	-0.115788
C104	C	1.843735	-0.131083	0.217546
C105	C	2.177068	0.202250	0.550879
H106	H	0.906245	-0.573595	-0.621154
H107	H	1.239578	-0.240262	-0.287820
H108	H	1.572911	0.093071	0.045513
H109	H	1.392418	-0.573298	-0.899387
H110	H	1.725751	-0.239965	-0.566054
H111	H	2.059085	0.093369	-0.232720
O112	O	0.952171	-0.404830	-0.438660
O113	O	1.285505	-0.071496	-0.105326
O114	O	1.618838	0.261837	0.228007
C115	C	1.015243	-0.459720	-0.371090
C116	C	1.348576	-0.126387	-0.037757
C117	C	1.681910	0.206947	0.295576
H118	H	1.031491	-0.532871	-0.407821
H119	H	1.364825	-0.199538	-0.074487
H120	H	1.698158	0.133795	0.258846
H121	H	1.092040	-0.420470	-0.357217
H122	H	1.425373	-0.087137	-0.023884
H123	H	1.758707	0.246196	0.309449
H124	H	0.973202	-0.470203	-0.293597
H125	H	1.306535	-0.136870	0.039737
H126	H	1.639869	0.196464	0.373070
O127	O	1.575103	-0.404494	-0.945349
O128	O	1.908436	-0.071160	-0.612016
O129	O	2.241770	0.262173	-0.278682
C130	C	1.515592	-0.342237	-1.008513
C131	C	1.848925	-0.008904	-0.675180
C132	C	2.182259	0.324430	-0.341846
H133	H	1.433310	-0.336261	-0.975553
H134	H	1.766643	-0.002928	-0.642219
H135	H	2.099976	0.330405	-0.308886
H136	H	1.553414	-0.268006	-1.009873
H137	H	1.886748	0.065327	-0.676540
H138	H	2.220081	0.398661	-0.343207
H139	H	1.511931	-0.372099	-1.091187
H140	H	1.845264	-0.038766	-0.757854
H141	H	2.178598	0.294567	-0.424521
O142	O	1.382068	-0.582874	-1.117258
O143	O	1.715402	-0.249540	-0.783924
O144	O	2.048735	0.083793	-0.450591
C145	C	1.396509	-0.569500	-1.225263
C146	C	1.729842	-0.236167	-0.891930
C147	C	2.063176	0.097167	-0.558596
H148	H	1.477187	-0.537899	-1.240077
H149	H	1.810520	-0.204566	-0.906744
H150	H	2.143854	0.128768	-0.573411
H151	H	1.389436	-0.641700	-1.266806
H152	H	1.722769	-0.308367	-0.933472
H153	H	2.056103	0.024966	-0.600139
H154	H	1.334582	-0.518089	-1.256242
H155	H	1.667916	-0.184756	-0.922908
H156	H	2.001249	0.148577	-0.589575
O157	O	1.069590	-0.404591	-0.438664
O158	O	1.402924	-0.071257	-0.105330
O159	O	1.736257	0.262076	0.228003
C160	C	1.141030	-0.350028	-0.379684
C161	C	1.474363	-0.016695	-0.046351
C162	C	1.807697	0.316639	0.286983
H163	H	1.218884	-0.346658	-0.422410
H164	H	1.552217	-0.013325	-0.089077
H165	H	1.885550	0.320008	0.244257
H166	H	1.109420	-0.274048	-0.368712
H167	H	1.442754	0.059285	-0.035379
H168	H	1.776087	0.392619	0.297954
H169	H	1.152553	-0.385255	-0.300239
H170	H	1.485887	-0.051922	0.033094
H171	H	1.819220	0.281412	0.366428
O172	O	1.575424	-0.404608	-1.062788
O173	O	1.908757	-0.071275	-0.729455
O174	O	2.242091	0.262058	-0.396122
C175	C	1.679603	-0.425678	-1.089358
C176	C	2.012937	-0.092344	-0.756025
C177	C	2.346270	0.240989	-0.422691
H178	H	1.681855	-0.462663	-1.168626
H179	H	2.015188	-0.129329	-0.835293
H180	H	2.348522	0.204004	-0.501959
H181	H	1.726493	-0.356060	-1.092993
H182	H	2.059827	-0.022727	-0.759660
H183	H	2.393160	0.310606	-0.426326
H184	H	1.714704	-0.475345	-1.027942
H185	H	2.048038	-0.142012	-0.694609
H186	H	2.381371	0.191322	-0.361275
H187	H	1.115371	-0.573559	-0.621128
H188	H	1.448704	-0.240226	-0.287795
H189	H	1.782037	0.093107	0.045538
