data_functionalizedCrystal
_audit_creation_method	'MofGen! by Chris Wilmer'
_symmetry_space_group_name_H-M	'P1'
_symmetry_Int_Tables_number	1
_symmetry_cell_setting	triclinic
loop_
_symmetry_equiv_pos_as_xyz
  x,y,z
_cell_length_a	12.594517
_cell_length_b	12.594516
_cell_length_c	12.759393
_cell_angle_alpha	90.028050
_cell_angle_beta	90.023943
_cell_angle_gamma	90.015485
loop_
_atom_site_label
_atom_site_type_symbol
_atom_site_fract_x
_atom_site_fract_y
_atom_site_fract_z
Zn1	Zn	1.627285	-0.423707	0.594122
Zn2	Zn	1.627171	-0.601723	0.418450
Zn3	Zn	1.449284	-0.423757	0.418448
Zn4	Zn	1.449271	-0.601642	0.594078
O5	O	1.538253	-0.512707	0.506274
O6	O	1.776216	-0.447334	0.570838
O7	O	1.603531	-0.578170	0.271428
O8	O	1.472949	-0.274804	0.441770
O9	O	1.776132	-0.578121	0.441772
O10	O	1.603726	-0.274768	0.570837
O11	O	1.472838	-0.447419	0.271427
O12	O	1.300336	-0.447341	0.441727
O13	O	1.472928	-0.577984	0.741105
O14	O	1.300327	-0.578032	0.570761
O15	O	1.603714	-0.447255	0.741137
O16	O	1.603519	-0.750658	0.441729
O17	O	1.472817	-0.750598	0.570762
C18	C	1.261712	-0.512684	0.506239
C19	C	1.143406	-0.512700	0.506249
C20	C	1.538183	-0.789248	0.506264
C21	C	1.538250	-0.907553	0.506295
C22	C	1.003364	-0.441539	0.436228
C23	C	1.074225	-0.415602	0.532098
C24	C	1.074116	-0.538588	0.410390
C25	C	1.003482	-0.486755	0.602247
C26	C	1.003367	-0.609786	0.480474
C27	C	1.074197	-0.583887	0.576410
C28	C	1.467155	-0.976813	0.576427
C29	C	1.441218	-1.047681	0.480558
C30	C	1.564284	-1.047484	0.602180
C31	C	1.512263	-0.976863	0.410376
C32	C	1.635373	-0.976660	0.532062
C33	C	1.609474	-1.047496	0.436127
C34	C	1.815873	-0.512731	0.506310
C35	C	1.934179	-0.512741	0.506326
C36	C	1.538332	-0.512605	0.780308
C37	C	1.538366	-0.512561	0.897085
C38	C	1.538352	-0.235086	0.506308
C39	C	1.538394	-0.116781	0.506322
C40	C	1.538235	-0.512732	0.233307
C41	C	1.538407	-0.512476	0.116531
C42	C	1.606472	-0.444480	0.951965
C43	C	1.606490	-0.444434	1.061689
C44	C	1.470294	-0.580560	1.061643
C45	C	1.470271	-0.580599	0.951921
C46	C	1.644597	-0.318856	1.211664
C47	C	1.712719	-0.250785	1.266549
C48	C	1.816574	-0.234467	1.230962
C49	C	1.852329	-0.286237	1.140493
C50	C	1.784212	-0.354316	1.085614
C51	C	1.680342	-0.370614	1.121199
C52	C	1.432175	-0.706179	0.801944
C53	C	1.364063	-0.774265	0.747063
C54	C	1.260206	-0.790593	0.782648
C55	C	1.224456	-0.738842	0.873120
C56	C	1.292567	-0.670757	0.928001
C57	C	1.396423	-0.654426	0.892409
H58	H	0.972266	-0.381297	0.377054
H59	H	1.105331	-0.333512	0.553950
H60	H	1.105100	-0.644083	0.635725
F61	F	0.963100	-0.458031	0.708282
F62	F	0.962650	-0.717048	0.451890
H63	H	1.872040	-0.179041	1.275656
F64	F	1.742619	-0.935855	0.560579
F65	F	1.534056	-0.336205	1.249537
H66	H	1.105147	-0.560467	0.329290
F67	F	1.187725	-0.863076	0.724246
F68	F	1.402119	-0.829352	0.650779
H69	H	1.414856	-0.635956	1.106303
F70	F	1.674664	-0.195690	1.362830
H71	H	1.406924	-0.945776	0.635649
F72	F	1.333944	-1.088454	0.452076
H73	H	1.669659	-1.078337	0.376762
F74	F	1.962873	-0.268879	1.102634
H75	H	1.490207	-0.945970	0.329276
F76	F	1.592988	-1.088036	0.708152
F77	F	1.678941	-0.372065	0.893609
F78	F	1.822259	-0.409412	0.989337
F79	F	1.254515	-0.615677	1.024291
H80	H	1.139888	-0.752141	0.902097
H81	H	1.516742	-0.692881	0.772956
