data_functionalizedCrystal
_audit_creation_method	'MofGen! by Chris Wilmer'
_symmetry_space_group_name_H-M	'P1'
_symmetry_Int_Tables_number	1
_symmetry_cell_setting	triclinic
loop_
_symmetry_equiv_pos_as_xyz
  x,y,z
_cell_length_a	11.169417
_cell_length_b	11.169416
_cell_length_c	11.169409
_cell_angle_alpha	89.970483
_cell_angle_beta	90.019824
_cell_angle_gamma	89.994884
loop_
_atom_site_label
_atom_site_type_symbol
_atom_site_fract_x
_atom_site_fract_y
_atom_site_fract_z
Zn1	Zn	-1.835013	-0.477682	-0.678566
Zn2	Zn	-1.585013	-0.227682	-0.428566
Zn3	Zn	-1.335013	0.022318	-0.178566
Zn4	Zn	-1.085013	0.272318	0.071434
Zn5	Zn	-1.834924	-0.678422	-0.477893
Zn6	Zn	-1.584924	-0.428422	-0.227893
Zn7	Zn	-1.334924	-0.178422	0.022107
Zn8	Zn	-1.084924	0.071578	0.272107
Zn9	Zn	-1.634299	-0.477755	-0.477901
Zn10	Zn	-1.384299	-0.227755	-0.227901
Zn11	Zn	-1.134299	0.022245	0.022099
Zn12	Zn	-0.884299	0.272245	0.272099
Zn13	Zn	-1.634328	-0.678325	-0.678538
Zn14	Zn	-1.384328	-0.428325	-0.428538
Zn15	Zn	-1.134328	-0.178325	-0.178538
Zn16	Zn	-0.884328	0.071675	0.071462
O17	O	-1.734641	-0.578046	-0.578224
O18	O	-1.484641	-0.328046	-0.328224
O19	O	-1.234641	-0.078046	-0.078224
O20	O	-0.984641	0.171954	0.171776
O21	O	-2.002951	-0.504321	-0.651955
O22	O	-1.752951	-0.254321	-0.401955
O23	O	-1.502951	-0.004321	-0.151955
O24	O	-1.252951	0.245679	0.098045
O25	O	-1.808261	-0.651875	-0.309944
O26	O	-1.558261	-0.401875	-0.059944
O27	O	-1.308261	-0.151875	0.190056
O28	O	-1.058261	0.098125	0.440056
O29	O	-1.660950	-0.309796	-0.504534
O30	O	-1.410950	-0.059796	-0.254534
O31	O	-1.160950	0.190204	-0.004534
O32	O	-0.910950	0.440204	0.245466
O33	O	-2.002885	-0.651804	-0.504522
O34	O	-1.752885	-0.401804	-0.254522
O35	O	-1.502885	-0.151804	-0.004522
O36	O	-1.252885	0.098196	0.245478
O37	O	-1.808413	-0.309742	-0.651963
O38	O	-1.558413	-0.059742	-0.401963
O39	O	-1.308413	0.190258	-0.151963
O40	O	-1.058413	0.440258	0.098037
O41	O	-1.660863	-0.504445	-0.309950
O42	O	-1.410863	-0.254445	-0.059950
O43	O	-1.160863	-0.004445	0.190050
O44	O	-0.910863	0.245555	0.440050
O45	O	-1.466353	-0.504351	-0.504507
O46	O	-1.216353	-0.254351	-0.254507
O47	O	-0.966353	-0.004351	-0.004507
O48	O	-0.716353	0.245649	0.245493
O49	O	-1.660999	-0.651637	-0.846492
O50	O	-1.410999	-0.401637	-0.596492
O51	O	-1.160999	-0.151637	-0.346492
O52	O	-0.910999	0.098363	-0.096492
O53	O	-1.466374	-0.651708	-0.651914
O54	O	-1.216374	-0.401708	-0.401914
O55	O	-0.966374	-0.151708	-0.151914
O56	O	-0.716374	0.098292	0.098086
O57	O	-1.808441	-0.504226	-0.846512
O58	O	-1.558441	-0.254226	-0.596512
O59	O	-1.308441	-0.004226	-0.346512
O60	O	-1.058441	0.245774	-0.096512
O61	O	-1.808289	-0.846359	-0.504494
O62	O	-1.558289	-0.596359	-0.254494
O63	O	-1.308289	-0.346359	-0.004494
O64	O	-1.058289	-0.096359	0.245506
O65	O	-1.660912	-0.846287	-0.651907
O66	O	-1.410912	-0.596287	-0.401907
O67	O	-1.160912	-0.346287	-0.151907
O68	O	-0.910912	-0.096287	0.098093
C69	C	-1.734627	-0.889871	-0.578223
C70	C	-1.484627	-0.639871	-0.328223
C71	C	-1.234627	-0.389871	-0.078223
C72	C	-0.984627	-0.139871	0.171777
C73	C	-1.734730	-1.023271	-0.578262
C74	C	-1.484730	-0.773271	-0.328262
C75	C	-1.234730	-0.523271	-0.078262
C76	C	-0.984730	-0.273271	0.171738
C77	C	-1.422816	-0.578028	-0.578209
C78	C	-1.172816	-0.328028	-0.328209
C79	C	-0.922816	-0.078028	-0.078209
C80	C	-0.672816	0.171972	0.171791
C81	C	-1.289416	-0.578049	-0.578231
C82	C	-1.039416	-0.328049	-0.328231
C83	C	-0.789416	-0.078049	-0.078231
C84	C	-0.539416	0.171951	0.171769
C85	C	-1.734733	-0.577913	-0.891267
C86	C	-1.484733	-0.327913	-0.641267
C87	C	-1.234733	-0.077913	-0.391267
C88	C	-0.984733	0.172087	-0.141267
C89	C	-1.734772	-0.577856	-1.024667
C90	C	-1.484772	-0.327856	-0.774667
C91	C	-1.234772	-0.077856	-0.524667
C92	C	-0.984772	0.172144	-0.274667
C93	C	-2.047683	-0.578065	-0.578241
C94	C	-1.797683	-0.328065	-0.328241
C95	C	-1.547683	-0.078065	-0.078241
C96	C	-1.297683	0.171935	0.171759
C97	C	-2.181083	-0.578073	-0.578248
C98	C	-1.931083	-0.328073	-0.328248
C99	C	-1.681083	-0.078073	-0.078248
C100	C	-1.431083	0.171927	0.171752
C101	C	-1.734688	-0.265004	-0.578252
C102	C	-1.484688	-0.015004	-0.328252
C103	C	-1.234688	0.234996	-0.078252
C104	C	-0.984688	0.484996	0.171748
C105	C	-1.734708	-0.131604	-0.578264
C106	C	-1.484708	0.118396	-0.328264
C107	C	-1.234708	0.368396	-0.078264
C108	C	-0.984708	0.618396	0.171736
C109	C	-1.734618	-0.578092	-0.266400
C110	C	-1.484618	-0.328092	-0.016400
C111	C	-1.234618	-0.078092	0.233600
C112	C	-0.984618	0.171908	0.483600
C113	C	-1.734811	-0.577811	-0.133000
C114	C	-1.484811	-0.327811	0.117000
C115	C	-1.234811	-0.077811	0.367000
C116	C	-0.984811	0.172189	0.617000
