data_functionalizedCrystal
_audit_creation_method	'MofGen! by Chris Wilmer'
_symmetry_space_group_name_H-M	'P1'
_symmetry_Int_Tables_number	1
_symmetry_cell_setting	triclinic
loop_
_symmetry_equiv_pos_as_xyz
  x,y,z
_cell_length_a	9.065218
_cell_length_b	9.065218
_cell_length_c	8.140239
_cell_angle_alpha	89.998670
_cell_angle_beta	89.998449
_cell_angle_gamma	85.015885
loop_
_atom_site_label
_atom_site_type_symbol
_atom_site_fract_x
_atom_site_fract_y
_atom_site_fract_z
O1	O	-1.960395	-0.216354	0.136610
O2	O	-1.627062	0.116979	0.469944
O3	O	-1.293729	0.450313	0.803277
O4	O	-1.531111	-0.234100	0.136612
O5	O	-1.197777	0.099233	0.469945
O6	O	-0.864444	0.432566	0.803279
O7	O	-1.754626	-0.010585	0.136608
O8	O	-1.421293	0.322748	0.469941
O9	O	-1.087959	0.656082	0.803274
O10	O	-1.736880	-0.439870	0.136615
O11	O	-1.403546	-0.106536	0.469948
O12	O	-1.070213	0.226797	0.803281
O13	O	-1.754619	-0.010583	-0.136619
O14	O	-1.421286	0.322750	0.196714
O15	O	-1.087952	0.656083	0.530047
O16	O	-1.531103	-0.234099	-0.136615
O17	O	-1.197770	0.099234	0.196718
O18	O	-0.864437	0.432568	0.530052
O19	O	-1.960388	-0.216352	-0.136617
O20	O	-1.627055	0.116981	0.196717
O21	O	-1.293721	0.450314	0.530050
Zn22	Zn	-1.745745	-0.225225	-0.179997
Zn23	Zn	-1.412411	0.108108	0.153337
Zn24	Zn	-1.079078	0.441441	0.486670
Zn25	Zn	-1.745754	-0.225228	0.179992
Zn26	Zn	-1.412421	0.108106	0.513325
Zn27	Zn	-1.079087	0.441439	0.846659
O28	O	-1.736872	-0.439868	-0.136613
O29	O	-1.403539	-0.106535	0.196721
O30	O	-1.070206	0.226799	0.530054
C31	C	-1.752917	0.044403	-0.000003
C32	C	-1.419584	0.377736	0.333330
C33	C	-1.086250	0.711069	0.666664
C34	C	-1.747817	0.208245	0.000005
C35	C	-1.414484	0.541579	0.333338
C36	C	-1.081151	0.874912	0.666671
C37	C	-1.476120	-0.232394	-0.000001
C38	C	-1.142787	0.100939	0.333332
C39	C	-0.809454	0.434273	0.666665
C40	C	-1.312277	-0.227294	-0.000000
C41	C	-0.978944	0.106039	0.333333
C42	C	-0.645611	0.439372	0.666666
C43	C	-1.738582	-0.494855	0.000002
C44	C	-1.405248	-0.161522	0.333335
C45	C	-1.071915	0.171811	0.666669
C46	C	-1.743681	-0.658698	0.000005
C47	C	-1.410348	-0.325365	0.333338
C48	C	-1.077015	0.007968	0.666672
C49	C	-2.015378	-0.218059	0.000000
C50	C	-1.682045	0.115275	0.333333
C51	C	-1.348712	0.448608	0.666667
C52	C	-2.179221	-0.223158	0.000010
C53	C	-1.845888	0.110175	0.333343
C54	C	-1.512555	0.443508	0.666677
N55	N	-1.745749	-0.225223	-0.425679
N56	N	-1.412415	0.108110	-0.092346
N57	N	-1.079082	0.441444	0.240988
N58	N	-1.745761	-0.225218	0.425674
N59	N	-1.412428	0.108115	0.759008
N60	N	-1.079095	0.441448	1.092341
