data_functionalizedCrystal
_audit_creation_method	'MofGen! by Chris Wilmer'
_symmetry_space_group_name_H-M	'P1'
_symmetry_Int_Tables_number	1
_symmetry_cell_setting	triclinic
loop_
_symmetry_equiv_pos_as_xyz
  x,y,z
_cell_length_a	12.594517
_cell_length_b	12.594516
_cell_length_c	12.827893
_cell_angle_alpha	90.005531
_cell_angle_beta	89.999251
_cell_angle_gamma	90.016010
loop_
_atom_site_label
_atom_site_type_symbol
_atom_site_fract_x
_atom_site_fract_y
_atom_site_fract_z
Zn1	Zn	1.627109	-0.423928	0.590729
Zn2	Zn	1.627046	-0.601874	0.415995
Zn3	Zn	1.449159	-0.423910	0.416017
Zn4	Zn	1.449095	-0.601865	0.590709
O5	O	1.538102	-0.512895	0.503362
O6	O	1.776046	-0.447545	0.567549
O7	O	1.603450	-0.578263	0.269762
O8	O	1.472818	-0.274967	0.439211
O9	O	1.776000	-0.578281	0.439173
O10	O	1.603556	-0.274980	0.567571
O11	O	1.472757	-0.447514	0.269778
O12	O	1.300205	-0.447505	0.439191
O13	O	1.472708	-0.578265	0.736948
O14	O	1.300158	-0.578248	0.567537
O15	O	1.603494	-0.447536	0.736962
O16	O	1.603388	-0.750819	0.439153
O17	O	1.472647	-0.750812	0.567515
C18	C	1.261561	-0.512874	0.503365
C19	C	1.143256	-0.512891	0.503391
C20	C	1.003244	-0.584131	0.573068
C21	C	1.074040	-0.610003	0.477695
C22	C	1.074031	-0.487065	0.598754
C23	C	1.003266	-0.538848	0.407936
C24	C	1.003251	-0.415865	0.529059
C25	C	1.074015	-0.441701	0.433620
C26	C	1.538033	-0.789436	0.503352
C27	C	1.538100	-0.907741	0.503383
C28	C	1.466984	-0.977029	0.573150
C29	C	1.441076	-1.047859	0.477797
C30	C	1.564105	-1.047710	0.598752
C31	C	1.512141	-0.977013	0.407979
C32	C	1.635215	-0.976857	0.528999
C33	C	1.609344	-1.047655	0.433580
C34	C	1.815723	-0.512916	0.503361
C35	C	1.934029	-0.512925	0.503360
C36	C	1.538101	-0.512902	0.775933
C37	C	1.538100	-0.512904	0.892086
C38	C	1.538201	-0.235274	0.503396
C39	C	1.538244	-0.116968	0.503410
C40	C	1.602761	-0.577599	1.063907
C41	C	1.602764	-0.577598	0.943856
C42	C	1.538096	-0.512911	1.231853
C43	C	1.538097	-0.512908	1.115699
H44	H	0.972171	-0.644407	0.631932
F45	F	1.742452	-0.936063	0.557349
F46	F	1.592777	-1.088303	0.704155
F47	F	1.675134	-0.649987	0.885642
H48	H	1.482740	-0.457513	0.936620
H49	H	1.406735	-0.946016	0.632063
F50	F	1.114688	-0.717268	0.449292
F51	F	1.465729	-0.440518	1.057495
H52	H	0.972312	-0.560805	0.327254
H53	H	1.658116	-0.632990	1.108442
F54	F	1.483346	-0.936596	0.302544
F55	F	0.962574	-0.308629	0.557498
F56	F	1.114368	-0.362967	0.356500
H57	H	1.359014	-1.079070	0.456152
F58	F	1.688036	-1.087935	0.356393
F59	F	1.114664	-0.458495	0.704181
