data_functionalizedCrystal
_audit_creation_method	'MofGen! by Chris Wilmer'
_symmetry_space_group_name_H-M	'P1'
_symmetry_Int_Tables_number	1
_symmetry_cell_setting	triclinic
loop_
_symmetry_equiv_pos_as_xyz
  x,y,z
_cell_length_a	16.959455
_cell_length_b	19.121111
_cell_length_c	16.959447
_cell_angle_alpha	87.591305
_cell_angle_beta	89.980656
_cell_angle_gamma	87.530667
loop_
_atom_site_label
_atom_site_type_symbol
_atom_site_fract_x
_atom_site_fract_y
_atom_site_fract_z
Zn1	Zn	1.194930	0.279618	-0.460371
Zn2	Zn	1.189187	0.397079	-0.333827
Zn3	Zn	1.062752	0.279645	-0.328204
Zn4	Zn	1.057066	0.397031	-0.465957
O5	O	1.125984	0.338343	-0.397090
O6	O	1.304779	0.295209	-0.443600
O7	O	1.172391	0.381533	-0.222471
O8	O	1.085069	0.181357	-0.341046
O9	O	1.300559	0.381507	-0.350628
O10	O	1.182180	0.181338	-0.438148
O11	O	1.079499	0.295254	-0.218341
O12	O	0.951387	0.295207	-0.346463
O13	O	1.075378	0.381425	-0.575826
O14	O	0.947210	0.381450	-0.447669
O15	O	1.176667	0.295162	-0.571722
O16	O	1.166878	0.495357	-0.356045
O17	O	1.069809	0.495322	-0.453121
C18	C	0.920618	0.338327	-0.397062
C19	C	0.832761	0.338336	-0.397070
C20	C	0.793642	0.293369	-0.344455
C21	C	0.789327	0.383308	-0.449698
C22	C	0.706781	0.383317	-0.449710
C23	C	0.667661	0.338350	-0.397094
C24	C	0.711088	0.293375	-0.344467
C25	C	0.663348	0.428286	-0.502342
C26	C	0.580796	0.428295	-0.502357
C27	C	0.541675	0.383331	-0.449736
C28	C	0.585107	0.338355	-0.397106
C29	C	0.545988	0.293388	-0.344490
C30	C	0.589418	0.248415	-0.291856
C31	C	0.671967	0.248411	-0.291846
C32	C	0.459127	0.383335	-0.449746
C33	C	0.463434	0.293393	-0.344502
C34	C	1.117124	0.520824	-0.405816
C35	C	1.113407	0.598889	-0.409576
C36	C	1.162238	0.635560	-0.360842
C37	C	1.158746	0.708911	-0.364382
C38	C	1.106419	0.745590	-0.416654
C39	C	1.057585	0.708914	-0.465393
C40	C	1.061082	0.635565	-0.461856
C41	C	1.093335	0.967059	-0.429864
C42	C	1.089841	1.040414	-0.433395
C43	C	1.191003	1.040406	-0.332385
C44	C	1.194491	0.967055	-0.328850
C45	C	1.145661	0.930385	-0.377592
C46	C	1.102846	0.820567	-0.420272
C47	C	1.149238	0.855410	-0.373977
C48	C	1.332151	0.338361	-0.397118
C49	C	1.420007	0.338368	-0.397130
C50	C	1.126029	0.338285	-0.603255
C51	C	1.126048	0.338260	-0.691111
C52	C	1.134892	1.155151	-0.388357
C53	C	1.138672	1.077085	-0.384661
C54	C	1.077757	0.293265	-1.060439
C55	C	1.174485	0.383108	-1.064728
C56	C	1.174471	0.383124	-0.982182
C57	C	1.126098	0.338211	-0.938762
C58	C	1.077739	0.293281	-0.977886
C59	C	1.222823	0.428058	-0.943052
C60	C	1.222810	0.428077	-0.860502
C61	C	1.174440	0.383159	-0.817080
C62	C	1.126080	0.338227	-0.856209
C63	C	1.077707	0.293314	-0.812788
C64	C	1.029351	0.248378	-0.851916
C65	C	1.029370	0.248364	-0.934464
C66	C	1.174421	0.383173	-0.734532
C67	C	1.077689	0.293331	-0.730235
C68	C	1.125987	0.338351	-0.191724
C69	C	1.126130	0.338178	-0.103860
H70	H	0.557557	0.211799	-0.249020
H71	H	1.014983	0.738784	-0.507957
H72	H	0.707335	0.211796	-0.248995
O73	O	0.840475	0.244861	-0.287687
H74	H	0.904450	0.252406	-0.296517
O75	O	0.977232	0.199887	-0.976662
H76	H	0.985373	0.207422	-1.041357
H77	H	0.821183	0.419915	-0.492538
H78	H	0.695205	0.464893	-0.545181
O79	O	0.533950	0.476894	-0.559019
H80	H	0.575020	0.508197	-0.595564
H81	H	0.423770	0.419947	-0.492605
O82	O	1.218680	0.596000	-0.304467
H83	H	1.252055	0.633825	-0.271181
H84	H	1.060240	0.850439	-0.462830
H85	H	1.213862	0.419679	-1.100086
O86	O	1.211409	0.748466	-0.311815
H87	H	1.248374	0.710638	-0.274866
O88	O	1.250937	0.927493	-0.272479
H89	H	1.284313	0.965316	-0.239191
O90	O	0.421233	0.244899	-0.287751
H91	H	0.439747	0.189786	-0.298765
H92	H	1.021319	0.605708	-0.501541
H93	H	1.262196	0.464632	-0.978412
H94	H	1.038389	0.256677	-1.092300
O95	O	1.274978	0.476526	-0.818300
H96	H	1.308624	0.507747	-0.862362
H97	H	1.230759	1.070270	-0.292703
H98	H	1.047239	1.070276	-0.475975
H99	H	1.053574	0.937209	-0.469550
O100	O	1.025516	0.244882	-0.683409
H101	H	1.033629	0.252438	-0.619434
H102	H	1.191846	0.825544	-0.331420
O103	O	1.226570	0.431637	-0.692333
H104	H	1.218430	0.424106	-0.627638
H105	H	0.989962	0.211813	-0.816552
