data_functionalizedCrystal
_audit_creation_method	'MofGen! by Chris Wilmer'
_symmetry_space_group_name_H-M	'P1'
_symmetry_Int_Tables_number	1
_symmetry_cell_setting	triclinic
loop_
_symmetry_equiv_pos_as_xyz
  x,y,z
_cell_length_a	10.654545
_cell_length_b	11.792254
_cell_length_c	9.730223
_cell_angle_alpha	89.995422
_cell_angle_beta	89.997167
_cell_angle_gamma	84.340838
loop_
_atom_site_label
_atom_site_type_symbol
_atom_site_fract_x
_atom_site_fract_y
_atom_site_fract_z
O1	O	1.667399	0.159394	-0.114277
O2	O	2.167399	0.659394	0.385723
O3	O	1.301878	0.174588	-0.114283
O4	O	1.801878	0.674588	0.385717
O5	O	1.493501	0.001842	-0.114270
O6	O	1.993501	0.501842	0.385730
O7	O	1.475777	0.332140	-0.114290
O8	O	1.975777	0.832140	0.385710
O9	O	1.493488	0.001837	0.114310
O10	O	1.993488	0.501837	0.614310
O11	O	1.301866	0.174583	0.114297
O12	O	1.801866	0.674583	0.614297
O13	O	1.667387	0.159390	0.114303
O14	O	2.167387	0.659390	0.614303
Zn15	Zn	1.484624	0.166986	0.150592
Zn16	Zn	1.984624	0.666986	0.650592
Zn17	Zn	1.484641	0.166992	-0.150572
Zn18	Zn	1.984641	0.666992	0.349428
O19	O	1.475765	0.332136	0.114290
O20	O	1.975765	0.832136	0.614290
C21	C	1.255077	0.173471	0.000007
C22	C	1.755077	0.673471	0.500007
C23	C	1.115643	0.170137	0.000005
C24	C	1.615643	0.670137	0.500005
C25	C	1.050136	0.168564	0.124604
C26	C	1.550136	0.668564	0.624604
C27	C	0.919125	0.165412	0.124605
C28	C	1.419125	0.665412	0.624605
C29	C	0.919139	0.165410	-0.124606
C30	C	1.419139	0.665410	0.375394
C31	C	1.050149	0.168554	-0.124605
C32	C	1.550149	0.668554	0.375395
C33	C	1.492378	-0.040454	0.000020
C34	C	1.992378	0.459546	0.500020
C35	C	1.489036	-0.166474	0.000018
C36	C	1.989036	0.333526	0.500018
C37	C	1.486321	-0.268817	0.000013
C38	C	1.986321	0.231183	0.500013
C39	C	1.482926	-0.397212	0.000001
C40	C	1.982926	0.102788	0.500001
C41	C	1.714188	0.160506	0.000011
C42	C	2.214188	0.660506	0.500011
C43	C	1.853623	0.163841	0.000004
C44	C	2.353623	0.663841	0.500004
C45	C	1.476887	0.374431	-0.000002
C46	C	1.976887	0.874431	0.499998
C47	C	1.480229	0.500452	-0.000010
C48	C	1.980229	1.000452	0.499990
N49	N	1.484622	0.166981	0.356128
N50	N	1.984622	0.666981	0.856128
N51	N	1.484653	0.166988	-0.356108
N52	N	1.984653	0.666988	0.143892
C53	C	1.569502	0.090521	0.428060
C54	C	2.069502	0.590521	0.928060
C55	C	1.569515	0.090522	0.571943
C56	C	2.069515	0.590522	1.071943
C57	C	1.399764	0.243451	0.571950
C58	C	1.899764	0.743451	1.071950
C59	C	1.399746	0.243444	0.428070
C60	C	1.899746	0.743444	0.928070
H61	H	1.638612	0.028259	0.369489
H62	H	2.138612	0.528259	0.869489
C63	C	1.662879	0.006419	0.651068
C64	C	2.162879	0.506419	1.151068
H65	H	1.650728	0.017361	0.747063
H66	H	2.150728	0.517361	1.247063
H67	H	1.746774	0.019448	0.627473
H68	H	2.246774	0.519448	1.127473
H69	H	1.648717	-0.069453	0.627498
H70	H	2.148717	0.430547	1.127498
C71	C	0.847093	0.163700	-0.261668
C72	C	1.347093	0.663700	0.238332
H73	H	0.904875	0.165082	-0.335875
H74	H	1.404875	0.665082	0.164125
H75	H	0.786865	0.228551	-0.266840
H76	H	1.286865	0.728551	0.233160
H77	H	0.805109	0.096399	-0.266857
H78	H	1.305109	0.596399	0.233143
H79	H	1.103486	0.169831	-0.226075
H80	H	1.603486	0.669831	0.273925
C81	C	1.306420	0.327564	0.651090
C82	C	1.806420	0.827564	1.151090
H83	H	1.318595	0.316627	0.747083
H84	H	1.818595	0.816627	1.247083
H85	H	1.222518	0.314536	0.627534
H86	H	1.722518	0.814536	1.127534
H87	H	1.320581	0.403433	0.627489
H88	H	1.820581	0.903433	1.127489
C89	C	1.122183	0.170295	0.261664
C90	C	1.622183	0.670295	0.761664
H91	H	1.209589	0.172403	0.243824
H92	H	1.709589	0.672403	0.743824
H93	H	1.109839	0.103708	0.312867
H94	H	1.609839	0.603708	0.812867
H95	H	1.091577	0.235859	0.312853
H96	H	1.591577	0.735859	0.812853
C97	C	1.306377	0.327557	0.348940
C98	C	1.806377	0.827557	0.848940
H99	H	1.255843	0.373107	0.412390
H100	H	1.755843	0.873107	0.912390
H101	H	1.253820	0.286283	0.292829
H102	H	1.753820	0.786283	0.792829
H103	H	1.351877	0.375185	0.292796
H104	H	1.851877	0.875185	0.792796
H105	H	0.865795	0.164133	0.226066
H106	H	1.365795	0.664133	0.726066
