data_functionalizedCrystal
_audit_creation_method	'MofGen! by Chris Wilmer'
_symmetry_space_group_name_H-M	'P1'
_symmetry_Int_Tables_number	1
_symmetry_cell_setting	triclinic
loop_
_symmetry_equiv_pos_as_xyz
  x,y,z
_cell_length_a	13.032831
_cell_length_b	21.295417
_cell_length_c	13.032268
_cell_angle_alpha	82.859352
_cell_angle_beta	89.113023
_cell_angle_gamma	82.834379
loop_
_atom_site_label
_atom_site_type_symbol
_atom_site_fract_x
_atom_site_fract_y
_atom_site_fract_z
Zn1	Zn	1.498336	-0.425102	0.780728
Zn2	Zn	1.998336	0.074898	1.280728
Zn3	Zn	1.520047	-0.518887	0.608724
Zn4	Zn	2.020047	-0.018887	1.108724
Zn5	Zn	1.348204	-0.398806	0.586976
Zn6	Zn	1.848204	0.101194	1.086976
Zn7	Zn	1.326296	-0.515483	0.758850
Zn8	Zn	1.826296	-0.015483	1.258850
O9	O	1.423221	-0.464570	0.683820
O10	O	1.923221	0.035430	1.183820
O11	O	1.645133	-0.449972	0.776169
O12	O	2.145133	0.050028	1.276169
O13	O	1.515506	-0.493377	0.461925
O14	O	2.015506	0.006623	0.961925
O15	O	1.368201	-0.314216	0.612731
O16	O	1.868201	0.185784	1.112731
O17	O	1.661084	-0.518875	0.649799
O18	O	2.161084	-0.018875	1.149799
O19	O	1.478503	-0.333535	0.755080
O20	O	1.978503	0.166465	1.255080
O21	O	1.389253	-0.405155	0.445946
O22	O	1.889253	0.094845	0.945946
O23	O	1.201381	-0.401855	0.591517
O24	O	1.701381	0.098145	1.091517
O25	O	1.330864	-0.513075	0.905667
O26	O	1.830864	-0.013075	1.405667
O27	O	1.185286	-0.487577	0.717793
O28	O	1.685286	0.012423	1.217793
O29	O	1.457261	-0.446672	0.921740
O30	O	1.957261	0.053328	1.421740
O31	O	1.494263	-0.606514	0.628585
O32	O	1.994263	-0.106514	1.128585
O33	O	1.351916	-0.604014	0.738882
O34	O	1.851916	-0.104014	1.238882
C35	C	1.156018	-0.441494	0.649922
C36	C	1.656018	0.058506	1.149922
C37	C	1.041704	-0.431638	0.635445
C38	C	1.541704	0.068362	1.135445
C39	C	0.982815	-0.469713	0.691375
C40	C	1.482815	0.030287	1.191375
C41	C	0.864665	-0.459528	0.676414
C42	C	1.364665	0.040472	1.176414
C43	C	1.423093	-0.628106	0.683746
C44	C	1.923093	-0.128106	1.183746
C45	C	1.423128	-0.698078	0.683760
C46	C	1.923128	-0.198078	1.183760
C47	C	1.497299	-0.732235	0.626403
C48	C	1.997299	-0.232235	1.126403
C49	C	1.497344	-0.797983	0.626433
C50	C	1.997344	-0.297983	1.126433
C51	C	1.423202	-0.829569	0.683806
C52	C	1.923202	-0.329569	1.183806
C53	C	1.349025	-0.795405	0.741175
C54	C	1.849025	-0.295405	1.241175
C55	C	1.348989	-0.729659	0.741152
C56	C	1.848989	-0.229659	1.241152
N57	N	1.332239	-0.925592	0.680232
N58	N	1.832239	-0.425592	1.180232
N59	N	1.332278	-0.988048	0.680248
N60	N	1.832278	-0.488048	1.180248
C61	C	1.423310	-1.027658	0.683879
C62	C	1.923310	-0.527658	1.183879
N63	N	1.514306	-1.002451	0.687474
N64	N	2.014306	-0.502451	1.187474
N65	N	1.514267	-0.939990	0.687452
N66	N	2.014267	-0.439990	1.187452
C67	C	1.423234	-0.900860	0.683837
C68	C	1.923234	-0.400860	1.183837
C69	C	1.497535	-1.133107	0.626551
C70	C	1.997535	-0.633107	1.126551
C71	C	1.497581	-1.198857	0.626588
C72	C	1.997581	-0.698857	1.126588
C73	C	1.349254	-1.196276	0.741323
C74	C	1.849254	-0.696276	1.241323
C75	C	1.349216	-1.130528	0.741293
C76	C	1.849216	-0.630528	1.241293
C77	C	1.423356	-1.098947	0.683901
C78	C	1.923356	-0.598947	1.183901
C79	C	1.691467	-0.487736	0.717850
C80	C	2.191467	0.012264	1.217850
C81	C	1.805778	-0.497609	0.732352
C82	C	2.305778	0.002391	1.232352
C83	C	1.389197	-0.482427	0.952062
C84	C	1.889197	0.017573	1.452062
C85	C	1.374697	-0.490036	1.066371
C86	C	1.874697	0.009964	1.566371
C87	C	1.423374	-0.300399	0.683920
C88	C	1.923374	0.199601	1.183920
C89	C	1.423439	-0.230439	0.683963
C90	C	1.923439	0.269561	1.183963
C91	C	1.457172	-0.446742	0.416628
C92	C	1.957172	0.053258	0.916628
C93	C	1.471870	-0.438972	0.302345
C94	C	1.971870	0.061028	0.802345
C95	C	1.430772	-0.460574	1.125287
C96	C	1.930772	0.039426	1.625287
C97	C	1.415788	-0.468438	1.243431
C98	C	1.915788	0.031562	1.743431
H99	H	1.557670	-0.706524	0.579675
H100	H	2.057670	-0.206524	1.079675
H101	H	1.288660	-0.821126	0.787890
H102	H	1.788660	-0.321126	1.287890
N103	N	1.273217	-0.694775	0.799753
N104	N	1.773217	-0.194775	1.299753
N105	N	1.207028	-0.722981	0.850984
N106	N	1.707028	-0.222981	1.350984
H107	H	1.153512	-0.698344	0.892372
H108	H	1.653512	-0.198344	1.392372
N109	N	1.573270	-1.100853	0.567925
N110	N	2.073270	-0.600853	1.067925
N111	N	1.639497	-1.131363	0.516723
N112	N	2.139497	-0.631363	1.016723
H113	H	1.692986	-1.108586	0.475316
H114	H	2.192986	-0.608586	0.975316
N115	N	1.573112	-0.832873	0.567828
N116	N	2.073112	-0.332873	1.067828
N117	N	1.639297	-0.804667	0.516588
N118	N	2.139297	-0.304667	1.016588
H119	H	1.692805	-0.829305	0.475193
H120	H	2.192805	-0.329305	0.975193
N121	N	1.300537	-0.528972	1.112810
N122	N	1.800537	-0.028972	1.612810
N123	N	1.227474	-0.505123	1.164471
N124	N	1.727474	-0.005123	1.664471
H125	H	1.175093	-0.532620	1.197268
H126	H	1.675093	-0.032620	1.697268
N127	N	0.818200	-0.409179	0.602427
N128	N	1.318200	0.090821	1.102427
N129	N	0.842128	-0.407966	0.509012
N130	N	1.342128	0.092034	1.009012
H131	H	0.809311	-0.372409	0.456758
H132	H	1.309311	0.127591	0.956758
H133	H	1.530970	-0.407920	1.265324
H134	H	2.030970	0.092080	1.765324
N135	N	1.029301	-0.520059	0.765350
N136	N	1.529301	-0.020059	1.265350
N137	N	1.125212	-0.528258	0.777403
N138	N	1.625212	-0.028258	1.277403
H139	H	1.158042	-0.563815	0.829651
H140	H	1.658042	-0.063815	1.329651
H141	H	1.557986	-1.226668	0.579884
H142	H	2.057986	-0.726668	1.079884
N143	N	1.273531	-1.228543	0.799931
N144	N	1.773531	-0.728543	1.299931
N145	N	1.273575	-1.287244	0.799948
N146	N	1.773575	-0.787244	1.299948
H147	H	1.220095	-1.310037	0.841343
H148	H	1.720095	-0.810037	1.341343
N149	N	0.852259	-0.547962	0.806323
N150	N	1.352259	-0.047962	1.306323
N151	N	0.948170	-0.556166	0.818373
N152	N	1.448170	-0.056166	1.318373
H153	H	0.980999	-0.591728	0.870613
H154	H	1.480999	-0.091728	1.370613
H155	H	1.004651	-0.391498	0.576488
H156	H	1.504651	0.108502	1.076488
N157	N	1.341636	-0.507391	1.289848
N158	N	1.841636	-0.007391	1.789848
N159	N	1.288907	-0.535093	1.234518
N160	N	1.788907	-0.035093	1.734518
H161	H	1.236535	-0.562602	1.267299
H162	H	1.736535	-0.062602	1.767299
N163	N	1.273443	-1.095643	0.799887
N164	N	1.773443	-0.595643	1.299887
N165	N	1.207252	-1.123850	0.851113
N166	N	1.707252	-0.623850	1.351113
H167	H	1.153735	-1.099214	0.892501
H168	H	1.653735	-0.599214	1.392501
N169	N	1.504904	-0.421623	1.078831
N170	N	2.004904	0.078377	1.578831
N171	N	1.516968	-0.415287	0.982924
N172	N	2.016968	0.084713	1.482924
H173	H	1.569324	-0.387777	0.950115
H174	H	2.069324	0.112223	1.450115
