data_functionalizedCrystal
_audit_creation_method	'MofGen! by Chris Wilmer'
_symmetry_space_group_name_H-M	'P1'
_symmetry_Int_Tables_number	1
_symmetry_cell_setting	triclinic
loop_
_symmetry_equiv_pos_as_xyz
  x,y,z
_cell_length_a	6.817900
_cell_length_b	10.773890
_cell_length_c	13.561464
_cell_angle_alpha	111.359916
_cell_angle_beta	104.692446
_cell_angle_gamma	96.645716
loop_
_atom_site_label
_atom_site_type_symbol
_atom_site_fract_x
_atom_site_fract_y
_atom_site_fract_z
V1	V	-4.040623	-0.290810	-0.343198
O2	O	-4.063585	-0.108310	-0.338519
O3	O	-3.957697	-0.459018	-0.339067
O4	O	-4.013938	-0.339993	-0.493692
O5	O	-4.006956	-0.228159	-0.182824
V6	V	-4.525911	-0.262641	-0.324232
O7	O	-4.298010	-0.352601	-0.384800
O8	O	-4.718721	-0.200850	-0.282630
O9	O	-4.385629	-0.094433	-0.328364
O10	O	-4.620345	-0.445141	-0.328911
O11	O	-4.676975	-0.325292	-0.484606
O12	O	-4.329389	-0.213458	-0.173738
C13	C	-3.793596	-0.498348	-0.333192
C14	C	-3.807227	-0.636205	-0.330818
C15	C	-3.985897	-0.705490	-0.334944
C16	C	-3.999989	-0.847973	-0.332490
C17	C	-3.865336	-0.346517	-0.530431
C18	C	-3.924573	-0.387843	-0.653449
C19	C	-4.013970	-0.026931	-0.941516
C20	C	-3.958214	0.011825	-0.825940
C21	C	-3.949800	-0.088089	-0.782811
C22	C	-3.997150	-0.226764	-0.855270
C23	C	-4.052927	-0.265524	-0.970857
C24	C	-3.988757	-0.326682	-0.812153
C25	C	-4.036107	-0.465358	-0.884612
C26	C	-4.091877	-0.504110	-1.000187
C27	C	-4.100291	-0.404197	-1.043316
C28	C	-3.932980	-0.287923	-0.696566
C29	C	-3.971937	-0.526516	-0.725908
C30	C	-4.027693	-0.565271	-0.841483
C31	C	-4.213071	-0.055109	-0.334235
C32	C	-4.178679	0.082745	-0.336617
C33	C	-4.141331	-0.206936	-0.136993
C34	C	-4.061334	-0.165604	-0.013974
H35	H	-4.321230	-0.871096	-0.341971
H36	H	-3.904399	-0.056526	-0.688704
Br37	Br	-3.762399	-0.924911	-0.323587
Br38	Br	-3.569651	-0.713148	-0.321915
H39	H	-3.894432	-0.175012	-0.637581
H40	H	-3.919670	0.124734	-0.766952
H41	H	-4.020843	0.054403	-0.976643
H42	H	-4.145683	-0.435744	-1.137426
Br43	Br	-4.156181	-0.692314	-1.098524
Br44	Br	-3.960542	-0.662123	-0.667387
Br45	Br	-4.223486	-0.628560	-0.343872
Br46	Br	-4.091999	-0.753470	-0.939832
