data_functionalizedCrystal
_audit_creation_method	'MofGen! by Chris Wilmer'
_symmetry_space_group_name_H-M	'P1'
_symmetry_Int_Tables_number	1
_symmetry_cell_setting	triclinic
loop_
_symmetry_equiv_pos_as_xyz
  x,y,z
_cell_length_a	14.519709
_cell_length_b	14.971486
_cell_length_c	13.448316
_cell_angle_alpha	89.993189
_cell_angle_beta	89.998858
_cell_angle_gamma	83.647137
loop_
_atom_site_label
_atom_site_type_symbol
_atom_site_fract_x
_atom_site_fract_y
_atom_site_fract_z
O1	O	1.223800	0.117253	-0.082563
O2	O	0.955315	0.131061	-0.082593
O3	O	1.096754	-0.006039	-0.082570
O4	O	1.082362	0.254353	-0.082586
O5	O	1.096736	-0.006048	0.082814
O6	O	0.955297	0.131052	0.082790
O7	O	1.223782	0.117244	0.082821
Cu8	Cu	1.089538	0.124147	0.097907
Cu9	Cu	1.089559	0.124157	-0.097679
O10	O	1.082344	0.254344	0.082798
C11	C	1.096101	-0.039369	0.000121
C12	C	1.094172	-0.138667	0.000120
C13	C	0.920947	0.130413	0.000095
C14	C	0.818567	0.128485	0.000083
C15	C	1.177264	-0.195845	0.000130
C16	C	1.175446	-0.289146	0.000120
C17	C	1.090536	-0.325266	0.000107
C18	C	1.007438	-0.268080	0.000094
C19	C	1.009257	-0.174781	0.000097
C20	C	1.003653	-0.462545	0.000090
C21	C	1.001834	-0.555850	0.000089
C22	C	1.169842	-0.576909	0.000113
C23	C	1.171661	-0.483610	0.000116
C24	C	1.088563	-0.426431	0.000105
C25	C	0.443675	0.121386	0.000129
C26	C	0.547982	0.123357	0.000116
C27	C	0.631118	0.124935	0.000105
C28	C	0.735431	0.126907	0.000094
C29	C	1.258151	0.117892	0.000131
C30	C	1.360531	0.119820	0.000136
C31	C	1.082996	0.287674	0.000104
C32	C	1.084925	0.386972	0.000099
N33	N	1.089530	0.124140	0.235471
N34	N	1.089575	0.124158	-0.235243
C35	C	1.152179	0.063457	0.287521
C36	C	1.152184	0.063456	0.391625
C37	C	1.089545	0.124143	0.443675
C38	C	1.026890	0.184829	0.391618
C39	C	1.026881	0.184825	0.287516
C40	C	1.026916	0.184835	0.608598
C41	C	1.026926	0.184841	0.712706
C42	C	1.152219	0.063467	0.712706
C43	C	1.152210	0.063462	0.608605
C44	C	1.089556	0.124149	0.556554
H45	H	1.246407	-0.166444	0.000147
H46	H	1.237504	-0.623470	0.000119
H47	H	1.203220	0.014051	0.566225
H48	H	0.938303	-0.297496	0.000077
H49	H	1.203190	0.014042	0.245149
H50	H	0.975865	0.234238	0.245138
N51	N	0.915094	-0.592733	0.000092
N52	N	0.840907	-0.541673	0.000085
H53	H	0.779645	-0.567721	0.000093
H54	H	1.203234	0.014053	0.755092
N55	N	1.216181	0.001461	0.444777
N56	N	1.272106	-0.052717	0.398292
H57	H	1.317306	-0.096506	0.435830
H58	H	0.975918	0.234258	0.755081
N59	N	0.962920	0.246839	0.555442
N60	N	0.964277	0.329518	0.567057
H61	H	0.919084	0.373312	0.529516
N62	N	1.260331	-0.347539	0.000121
N63	N	1.336137	-0.315278	0.000134
H64	H	1.396091	-0.356518	0.000131
N65	N	0.962890	0.246815	0.444770
N66	N	0.877651	0.245397	0.433154
H67	H	0.832448	0.289176	0.470691
N68	N	1.258401	-0.446728	0.000141
N69	N	1.332588	-0.497787	0.000152
H70	H	1.393850	-0.471740	0.000168
H71	H	0.941595	-0.128227	0.000088
N72	N	0.918763	-0.404149	0.000063
N73	N	0.842955	-0.436407	0.000048
H74	H	0.783002	-0.395166	0.000030
