data_functionalizedCrystal
_audit_creation_method	'MofGen! by Chris Wilmer'
_symmetry_space_group_name_H-M	'P1'
_symmetry_Int_Tables_number	1
_symmetry_cell_setting	triclinic
loop_
_symmetry_equiv_pos_as_xyz
  x,y,z
_cell_length_a	12.759401
_cell_length_b	13.032721
_cell_length_c	12.759393
_cell_angle_alpha	97.149226
_cell_angle_beta	89.979062
_cell_angle_gamma	97.205831
loop_
_atom_site_label
_atom_site_type_symbol
_atom_site_fract_x
_atom_site_fract_y
_atom_site_fract_z
Zn1	Zn	1.553113	-0.415945	-0.647098
Zn2	Zn	2.053113	0.084055	-0.147098
Zn3	Zn	1.530669	-0.590725	-0.493722
Zn4	Zn	2.030669	-0.090725	0.006278
Zn5	Zn	1.377404	-0.416001	-0.471441
Zn6	Zn	1.877404	0.083999	0.028559
Zn7	Zn	1.355078	-0.590652	-0.669350
Zn8	Zn	1.855078	-0.090652	-0.169350
O9	O	1.454066	-0.503331	-0.570403
O10	O	1.954066	-0.003331	-0.070403
O11	O	1.697156	-0.439137	-0.626765
O12	O	2.197156	0.060863	-0.126765
O13	O	1.510289	-0.567601	-0.343752
O14	O	2.010289	-0.067601	0.156248
O15	O	1.419449	-0.269756	-0.476105
O16	O	1.919449	0.230244	0.023895
O17	O	1.680666	-0.567547	-0.514080
O18	O	2.180666	-0.067547	-0.014080
O19	O	1.548541	-0.269715	-0.605160
O20	O	2.048541	0.230285	-0.105160
O21	O	1.397686	-0.439232	-0.327382
O22	O	1.897686	0.060768	0.172618
O23	O	1.227423	-0.439161	-0.497681
O24	O	1.727423	0.060839	0.002319
O25	O	1.381397	-0.567423	-0.813412
O26	O	1.881397	-0.067423	-0.313412
O27	O	1.211019	-0.567477	-0.643084
O28	O	1.711019	-0.067477	-0.143084
O29	O	1.526892	-0.439067	-0.797064
O30	O	2.026892	0.060933	-0.297064
O31	O	1.488640	-0.736953	-0.535656
O32	O	1.988640	-0.236953	-0.035656
O33	O	1.359634	-0.736899	-0.664689
O34	O	1.859634	-0.236899	-0.164689
C35	C	1.181100	-0.503318	-0.570380
C36	C	1.681100	-0.003318	-0.070380
C37	C	1.064321	-0.503338	-0.570399
C38	C	1.564321	-0.003338	-0.070399
C39	C	1.419307	-0.774844	-0.605028
C40	C	1.919307	-0.274844	-0.105028
C41	C	1.404533	-0.890999	-0.619876
C42	C	1.904533	-0.390999	-0.119876
C43	C	1.000932	-0.570253	-0.646017
C44	C	1.500932	-0.070253	-0.146017
C45	C	0.891208	-0.570257	-0.646038
C46	C	1.391208	-0.070257	-0.146038
C47	C	0.908271	-0.436427	-0.494813
C48	C	1.408271	0.063573	0.005187
C49	C	1.017994	-0.436419	-0.494797
C50	C	1.517994	0.063581	0.005203
C51	C	1.461832	-0.942776	-0.562700
C52	C	1.961832	-0.442776	-0.062700
C53	C	1.446564	-1.062828	-0.578045
C54	C	1.946564	-0.562828	-0.078045
C55	C	1.728097	-0.503344	-0.570426
C56	C	2.228097	-0.003344	-0.070426
C57	C	1.844873	-0.503350	-0.570436
C58	C	2.344873	-0.003350	-0.070436
C59	C	1.454157	-0.503230	-0.844423
C60	C	1.954157	-0.003230	-0.344423
C61	C	1.454196	-0.503188	-0.961194
C62	C	1.954196	-0.003188	-0.461194
C63	C	1.488989	-0.230757	-0.535665
C64	C	1.988989	0.269243	-0.035665
C65	C	1.503872	-0.114602	-0.520862
C66	C	2.003872	0.385398	-0.020862
C67	C	1.529962	-0.436342	-1.007544
C68	C	2.029962	0.063658	-0.507544
C69	C	1.529986	-0.436297	-1.117263
C70	C	2.029986	0.063703	-0.617263
C71	C	1.378473	-0.569952	-1.134273
C72	C	1.878473	-0.069952	-0.634273
C73	C	1.378446	-0.569991	-1.024556
C74	C	1.878446	-0.069991	-0.524556
C75	C	1.454045	-0.503355	-0.297438
C76	C	1.954045	-0.003355	0.202562
C77	C	1.454247	-0.503104	-0.180630
C78	C	1.954247	-0.003104	0.319370
H79	H	1.038649	-0.624740	-0.707579
H80	H	1.538649	-0.124740	-0.207579
H81	H	0.839601	-0.624745	-0.707616
H82	H	1.339601	-0.124745	-0.207616
H83	H	0.870537	-0.381946	-0.433260
H84	H	1.370537	0.118054	0.066740
H85	H	1.564240	-1.070058	-0.460551
H86	H	2.064240	-0.570058	0.039449
O87	O	1.079674	-0.371560	-0.421302
O88	O	1.579674	0.128440	0.078698
C89	C	1.135485	-0.430972	-0.360899
C90	C	1.635485	0.069028	0.139101
H91	H	1.141794	-0.510212	-0.407924
H92	H	1.641794	-0.010212	0.092076
H93	H	1.218088	-0.388385	-0.341454
H94	H	1.718088	0.111615	0.158546
H95	H	1.091706	-0.442362	-0.284477
H96	H	1.591706	0.057638	0.215523
O97	O	1.603626	-0.371592	-0.945964
O98	O	2.103626	0.128408	-0.445964
C99	C	1.663830	-0.431107	-0.890068
C100	C	2.163830	0.068893	-0.390068
H101	H	1.659791	-0.513401	-0.933620
H102	H	2.159791	-0.013401	-0.433620
H103	H	1.749523	-0.393308	-0.884018
H104	H	2.249523	0.106692	-0.384018
H105	H	1.630862	-0.434735	-0.807370
H106	H	2.130862	0.065265	-0.307370
H107	H	1.316802	-0.624344	-1.185875
H108	H	1.816802	-0.124344	-0.685875
O109	O	1.374667	-1.115914	-0.650147
O110	O	1.874667	-0.615914	-0.150147
C111	C	1.400928	-1.089199	-0.751487
C112	C	1.900928	-0.589199	-0.251487
H113	H	1.488664	-1.059047	-0.753040
H114	H	1.988664	-0.559047	-0.253040
H115	H	1.382786	-1.160996	-0.812497
H116	H	1.882786	-0.660996	-0.312497
H117	H	1.352570	-1.025956	-0.770872
H118	H	1.852570	-0.525956	-0.270872
O119	O	1.533698	-0.889591	-0.490630
O120	O	2.033698	-0.389591	0.009370
C121	C	1.481879	-0.826535	-0.414738
C122	C	1.981879	-0.326535	0.085262
H123	H	1.394964	-0.859573	-0.412368
H124	H	1.894964	-0.359573	0.087632
H125	H	1.520086	-0.825212	-0.333750
H126	H	2.020086	-0.325212	0.166250
H127	H	1.488685	-0.743835	-0.436727
H128	H	1.988685	-0.243835	0.063273
O129	O	1.332640	-0.944089	-0.691974
O130	O	1.832640	-0.444089	-0.191974
C131	C	1.358901	-0.917374	-0.793314
C132	C	1.858901	-0.417374	-0.293314
H133	H	1.446637	-0.887221	-0.794867
H134	H	1.946637	-0.387221	-0.294867
H135	H	1.340759	-0.989171	-0.854324
H136	H	1.840759	-0.489171	-0.354324
H137	H	1.310543	-0.854130	-0.812699
H138	H	1.810543	-0.354130	-0.312699
H139	H	1.591680	-0.381863	-1.154995
H140	H	2.091680	0.118137	-0.654995
O141	O	1.304798	-0.635030	-0.979700
O142	O	1.804798	-0.135030	-0.479700
C143	C	1.237935	-0.693973	-1.059147
C144	C	1.737935	-0.193973	-0.559147
H145	H	1.280520	-0.697571	-1.137828
H146	H	1.780520	-0.197571	-0.637828
H147	H	1.216170	-0.776318	-1.037932
H148	H	1.716170	-0.276318	-0.537932
H149	H	1.163050	-0.655694	-1.065925
H150	H	1.663050	-0.155694	-0.565925
