data_functionalizedCrystal
_audit_creation_method	'MofGen! by Chris Wilmer'
_symmetry_space_group_name_H-M	'P1'
_symmetry_Int_Tables_number	1
_symmetry_cell_setting	triclinic
loop_
_symmetry_equiv_pos_as_xyz
  x,y,z
_cell_length_a	16.625548
_cell_length_b	21.295417
_cell_length_c	21.295411
_cell_angle_alpha	89.978356
_cell_angle_beta	89.975478
_cell_angle_gamma	90.031575
loop_
_atom_site_label
_atom_site_type_symbol
_atom_site_fract_x
_atom_site_fract_y
_atom_site_fract_z
Zn1	Zn	1.232667	-0.250663	-0.355911
Zn2	Zn	1.732667	0.249337	0.144089
Zn3	Zn	1.232542	-0.355915	-0.250636
Zn4	Zn	1.732542	0.144085	0.249364
Zn5	Zn	1.097819	-0.250665	-0.250656
Zn6	Zn	1.597819	0.249335	0.249344
Zn7	Zn	1.097780	-0.355900	-0.355868
Zn8	Zn	1.597780	0.144100	0.144132
O9	O	1.165202	-0.303286	-0.303268
O10	O	1.665202	0.196714	0.196732
O11	O	1.345483	-0.264630	-0.341956
O12	O	1.845483	0.235370	0.158044
O13	O	1.214635	-0.341960	-0.162549
O14	O	1.714635	0.158040	0.337451
O15	O	1.115776	-0.162576	-0.264644
O16	O	1.615776	0.337424	0.235356
O17	O	1.345391	-0.341958	-0.264611
O18	O	1.845391	0.158042	0.235389
O19	O	1.214848	-0.162574	-0.341975
O20	O	1.714848	0.337426	0.158025
O21	O	1.115655	-0.264634	-0.162564
O22	O	1.615655	0.235366	0.337436
O23	O	0.984982	-0.264620	-0.264603
O24	O	1.484982	0.235380	0.235397
O25	O	1.115709	-0.341933	-0.443963
O26	O	1.615709	0.158067	0.056037
O27	O	0.984953	-0.341936	-0.341902
O28	O	1.484953	0.158064	0.158098
O29	O	1.214810	-0.264616	-0.443995
O30	O	1.714810	0.235384	0.056005
O31	O	1.214597	-0.444002	-0.264569
O32	O	1.714597	0.055998	0.235431
O33	O	1.115588	-0.443992	-0.341883
O34	O	1.615588	0.056008	0.158117
C35	C	0.955711	-0.303277	-0.303250
C36	C	1.455711	0.196723	0.196750
C37	C	0.866090	-0.303288	-0.303257
C38	C	1.366090	0.196712	0.196743
C39	C	0.537914	-0.303292	-0.303284
C40	C	1.037914	0.196708	0.196716
C41	C	0.629223	-0.303289	-0.303275
C42	C	1.129223	0.196711	0.196725
C43	C	0.701999	-0.303291	-0.303270
C44	C	1.201999	0.196709	0.196730
C45	C	0.793314	-0.303287	-0.303262
C46	C	1.293314	0.196713	0.196738
C47	C	1.165096	-0.466838	-0.303233
C48	C	1.665096	0.033162	0.196767
C49	C	1.165125	-0.536806	-0.303239
C50	C	1.665125	-0.036806	0.196761
C51	C	1.216725	-0.569657	-0.263023
C52	C	1.716725	-0.069657	0.236977
C53	C	1.216762	-0.635399	-0.263037
C54	C	1.716762	-0.135399	0.236963
C55	C	1.165186	-0.668288	-0.303261
C56	C	1.665186	-0.168288	0.196739
C57	C	1.113583	-0.635429	-0.343484
C58	C	1.613583	-0.135429	0.156516
C59	C	1.113552	-0.569688	-0.343473
C60	C	1.613552	-0.069688	0.156527
N61	N	1.094652	-0.771556	-0.308054
N62	N	1.594652	-0.271556	0.191946
N63	N	1.094683	-0.834007	-0.308060
N64	N	1.594683	-0.334007	0.191940
C65	C	1.165276	-0.866363	-0.303297
C66	C	1.665276	-0.366363	0.196703
N67	N	1.235839	-0.833908	-0.298514
N68	N	1.735839	-0.333908	0.201486
N69	N	1.235807	-0.771451	-0.298504
N70	N	1.735807	-0.271451	0.201496
C71	C	1.165214	-0.739573	-0.303277
C72	C	1.665214	-0.239573	0.196723
C73	C	1.216921	-0.970500	-0.263094
C74	C	1.716921	-0.470500	0.236906
C75	C	1.216961	-1.036243	-0.263113
C76	C	1.716961	-0.536243	0.236887
C77	C	1.113774	-1.036271	-0.343556
C78	C	1.613774	-0.536271	0.156444
C79	C	1.113742	-0.970529	-0.343541
C80	C	1.613742	-0.470529	0.156459
C81	C	1.165315	-0.937647	-0.303307
C82	C	1.665315	-0.437647	0.196693
C83	C	1.375511	-0.303295	-0.303286
C84	C	1.875511	0.196705	0.196714
C85	C	1.465132	-0.303299	-0.303293
C86	C	1.965132	0.196701	0.196707
C87	C	1.165269	-0.303273	-0.467458
C88	C	1.665269	0.196727	0.032542
C89	C	1.165297	-0.303267	-0.537426
C90	C	1.665297	0.196733	-0.037426
C91	C	1.165330	-0.139096	-0.303316
C92	C	1.665330	0.360904	0.196684
C93	C	1.165385	-0.069127	-0.303337
C94	C	1.665385	0.430873	0.196663
C95	C	1.216897	-0.263006	-0.570310
C96	C	1.716897	0.236994	-0.070310
C97	C	1.216896	-0.262979	-0.636053
C98	C	1.716896	0.237021	-0.136053
C99	C	1.165304	-0.303224	-0.668909
C100	C	1.665304	0.196776	-0.168909
C101	C	1.113694	-0.343487	-0.636017
C102	C	1.613694	0.156513	-0.136017
C103	C	1.113691	-0.343509	-0.570275
C104	C	1.613691	0.156491	-0.070275
N105	N	1.159083	-0.358291	-0.772124
N106	N	1.659083	0.141709	-0.272124
N107	N	1.159091	-0.358269	-0.834576
N108	N	1.659091	0.141731	-0.334576
C109	C	1.165309	-0.303160	-0.866984
C110	C	1.665309	0.196840	-0.366984
N111	N	1.171535	-0.248072	-0.834581
N112	N	1.671535	0.251928	-0.334581
N113	N	1.171531	-0.248096	-0.772124
N114	N	1.671531	0.251904	-0.272124
C115	C	1.165301	-0.303204	-0.740194
C116	C	1.665301	0.196796	-0.240194
C117	C	1.216910	-0.262866	-0.971153
C118	C	1.716910	0.237134	-0.471153
C119	C	1.216903	-0.262837	-1.036897
C120	C	1.716903	0.237163	-0.536897
C121	C	1.113706	-0.343352	-1.036860
C122	C	1.613706	0.156648	-0.536860
C123	C	1.113708	-0.343374	-0.971117
C124	C	1.613708	0.156626	-0.471117
C125	C	1.165315	-0.303132	-0.938268
C126	C	1.665315	0.196868	-0.438268
C127	C	1.165182	-0.303254	-0.139716
C128	C	1.665182	0.196746	0.360284
C129	C	1.165310	-0.303082	-0.069748
C130	C	1.665310	0.196918	0.430252
H131	H	1.258784	-0.662152	-0.230289
H132	H	1.758784	-0.162152	0.269711
C133	C	1.056849	-0.671603	-0.387727
C134	C	1.556849	-0.171603	0.112273
H135	H	1.064251	-0.715462	-0.381970
H136	H	1.564251	-0.215462	0.118030
H137	H	1.068617	-0.660800	-0.430030
H138	H	1.568617	-0.160800	0.069970
H139	H	1.002672	-0.660872	-0.378470
H140	H	1.502672	-0.160872	0.121530
H141	H	1.071690	-0.376114	-1.063610
H142	H	1.571690	0.123886	-0.563610
C143	C	1.056786	-0.533550	-0.387709
C144	C	1.556786	-0.033550	0.112291
H145	H	1.026070	-0.562550	-0.411666
H146	H	1.526070	-0.062550	0.088334
H147	H	1.087598	-0.507864	-0.415153
H148	H	1.587598	-0.007864	0.084847
H149	H	1.021653	-0.507946	-0.363594
H150	H	1.521653	-0.007946	0.136406
H151	H	1.071685	-0.376253	-0.662772
H152	H	1.571685	0.123747	-0.162772
C153	C	1.056941	-0.387807	-0.534102
C154	C	1.556941	0.112193	-0.034102
H155	H	1.026217	-0.411776	-0.563083
H156	H	1.526217	0.088224	-0.063083
H157	H	1.021827	-0.363740	-0.508440
H158	H	1.521827	0.136260	-0.008440
H159	H	1.087776	-0.415246	-0.508470
H160	H	1.587776	0.084754	-0.008470
C161	C	1.056957	-0.387666	-0.934940
C162	C	1.556957	0.112334	-0.434940
H163	H	1.064339	-0.381912	-0.891082
H164	H	1.564339	0.118088	-0.391082
H165	H	1.068723	-0.429959	-0.945715
H166	H	1.568723	0.070041	-0.445715
H167	H	1.002786	-0.378443	-0.945697
H168	H	1.502786	0.121557	-0.445697
H169	H	1.258918	-0.230237	-0.543568
H170	H	1.758918	0.269763	-0.043568
C171	C	1.273660	-0.218592	-0.935016
C172	C	1.773660	0.281408	-0.435016
H173	H	1.304381	-0.194601	-0.964019
H174	H	1.804381	0.305399	-0.464019
H175	H	1.308775	-0.242677	-0.909379
H176	H	1.808775	0.257323	-0.409379
H177	H	1.242825	-0.191172	-0.909364
H178	H	1.742825	0.308828	-0.409364
H179	H	1.258720	-0.542886	-0.230263
H180	H	1.758720	-0.042886	0.269737
C181	C	1.057041	-1.072438	-0.387805
C182	C	1.557041	-0.572438	0.112195
H183	H	1.026307	-1.043454	-0.411757
H184	H	1.526307	-0.543454	0.088243
H185	H	1.021937	-1.098125	-0.363706
H186	H	1.521937	-0.598125	0.136294
H187	H	1.087887	-1.098044	-0.415262
H188	H	1.587887	-0.598044	0.084738
H189	H	1.258920	-0.230048	-1.063670
H190	H	1.758920	0.269952	-0.563670
C191	C	1.273656	-0.934324	-0.218848
C192	C	1.773656	-0.434324	0.281152
H193	H	1.266242	-0.890465	-0.224596
H194	H	1.766242	-0.390465	0.275404
H195	H	1.327830	-0.945053	-0.228105
H196	H	1.827830	-0.445053	0.271895
H197	H	1.261887	-0.945130	-0.176544
H198	H	1.761887	-0.445130	0.323456
C199	C	1.273723	-1.072380	-0.218873
C200	C	1.773723	-0.572380	0.281127
H201	H	1.304425	-1.043379	-0.194907
H202	H	1.804425	-0.543379	0.305093
H203	H	1.308856	-1.097987	-0.242979
H204	H	1.808856	-0.597987	0.257021
H205	H	1.242900	-1.098063	-0.191428
H206	H	1.742900	-0.598063	0.308572
C207	C	1.056971	-0.934391	-0.387771
C208	C	1.556971	-0.434391	0.112229
H209	H	1.026254	-0.963392	-0.411725
H210	H	1.526254	-0.463392	0.088275
H211	H	1.087781	-0.908706	-0.415217
H212	H	1.587781	-0.408706	0.084783
H213	H	1.021841	-0.908786	-0.363655
H214	H	1.521841	-0.408786	0.136345
H215	H	1.258913	-0.230190	-0.662832
H216	H	1.758913	0.269810	-0.162832
