data_functionalizedCrystal
_audit_creation_method	'MofGen! by Chris Wilmer'
_symmetry_space_group_name_H-M	'P1'
_symmetry_Int_Tables_number	1
_symmetry_cell_setting	triclinic
loop_
_symmetry_equiv_pos_as_xyz
  x,y,z
_cell_length_a	16.992694
_cell_length_b	12.837942
_cell_length_c	15.455313
_cell_angle_alpha	92.949088
_cell_angle_beta	87.142206
_cell_angle_gamma	92.748582
loop_
_atom_site_label
_atom_site_type_symbol
_atom_site_fract_x
_atom_site_fract_y
_atom_site_fract_z
O1	O	1.060029	0.216906	-0.072020
O2	O	0.831564	0.214478	-0.072045
O3	O	0.940730	0.064370	-0.072028
O4	O	0.950863	0.367014	-0.072037
O5	O	0.934485	0.072916	0.072233
O6	O	0.825318	0.223024	0.072216
O7	O	1.053784	0.225452	0.072241
Cu8	Cu	0.938981	0.225018	0.085401
Cu9	Cu	0.946367	0.214912	-0.085205
O10	O	0.944617	0.375560	0.072224
C11	C	0.798995	0.215629	0.000082
C12	C	0.711256	0.206315	0.000072
C13	C	0.667730	0.296178	0.000070
C14	C	0.585288	0.287422	0.000082
C15	C	0.546375	0.188801	0.000091
C16	C	0.589907	0.098931	0.000095
C17	C	0.672346	0.107689	0.000089
C18	C	0.300064	0.152503	0.000115
C19	C	0.217618	0.143751	0.000118
C20	C	0.213006	0.332243	0.000107
C21	C	0.295447	0.340992	0.000096
C22	C	0.338972	0.251123	0.000105
N23	N	0.462107	0.179848	0.000100
N24	N	0.423238	0.260077	0.000102
C25	C	0.934185	0.029739	0.000102
C26	C	0.923977	-0.086184	0.000099
C27	C	1.046699	-0.316976	0.000095
C28	C	1.037111	-0.425897	0.000093
C29	C	0.895215	-0.412947	0.000086
C30	C	0.904802	-0.304027	0.000088
C31	C	0.980547	-0.256046	0.000094
C32	C	0.990134	-0.147123	0.000103
C33	C	0.848238	-0.134176	0.000090
C34	C	0.838650	-0.243096	0.000087
C35	C	1.086352	0.224301	0.000112
C36	C	1.174092	0.233614	0.000116
C37	C	0.951163	0.410191	0.000092
C38	C	0.961371	0.526114	0.000089
N39	N	0.933792	0.232127	0.205396
N40	N	0.951562	0.207795	-0.205199
C41	C	0.980189	0.168382	0.250797
C42	C	0.976273	0.173768	0.341604
C43	C	0.925963	0.242905	0.387008
C44	C	0.879560	0.306652	0.341600
C45	C	0.883473	0.301260	0.250795
C46	C	0.909072	0.266151	0.658587
C47	C	0.905164	0.271540	0.749399
C48	C	1.001877	0.138654	0.749397
C49	C	1.005788	0.133273	0.658589
C50	C	0.959383	0.197016	0.613189
N51	N	0.921960	0.248414	0.479828
N52	N	0.963381	0.191501	0.520371
H53	H	0.549853	0.360598	0.000080
H54	H	1.051808	-0.108058	0.000111
H55	H	0.327125	0.421299	0.000079
O56	O	0.863971	0.328180	0.614628
C57	C	0.818718	0.390340	0.674178
H58	H	0.848369	0.398064	0.738900
H59	H	0.814030	0.471079	0.647935
H60	H	0.757161	0.352144	0.683852
H61	H	0.177559	0.405409	0.000101
O62	O	1.021385	0.112005	0.385807
C63	C	1.071975	0.175065	0.438304
H64	H	1.046053	0.254864	0.451898
H65	H	1.078453	0.136366	0.502165
H66	H	1.132325	0.184955	0.403303
O67	O	0.830755	0.373787	0.385838
C68	C	0.837237	0.364863	0.475721
H69	H	0.896519	0.331859	0.488119
H70	H	0.832872	0.445172	0.510221
H71	H	0.787562	0.310344	0.501505
H72	H	1.021161	0.112088	0.213835
O73	O	0.821597	-0.459437	0.000186
C74	C	0.777545	-0.424493	0.074907
H75	H	0.803598	-0.345780	0.099830
H76	H	0.713698	-0.415837	0.058093
H77	H	0.779717	-0.483605	0.127219
O78	O	0.179939	0.047867	0.000164
C79	C	0.236033	-0.029579	0.000148
H80	H	0.292943	0.005905	0.027461
H81	H	0.212013	-0.095539	0.042033
H82	H	0.248500	-0.061727	-0.069060
H83	H	0.558216	0.018632	0.000114
H84	H	0.776981	-0.282178	0.000079
O85	O	1.046903	0.076577	0.793406
C86	C	1.027300	-0.029067	0.771245
H87	H	0.999741	-0.035388	0.705317
H88	H	1.082900	-0.075671	0.768139
H89	H	0.983410	-0.061568	0.822358
O90	O	1.120250	-0.270305	0.000258
C91	C	1.126800	-0.203247	0.074963
H92	H	1.081389	-0.229306	0.127178
H93	H	1.188572	-0.206253	0.100049
H94	H	1.115738	-0.119959	0.058069
O95	O	0.714512	0.020288	0.000048
C96	C	0.662490	-0.068636	0.000076
H97	H	0.604225	-0.048869	-0.027233
H98	H	0.689732	-0.134500	-0.041806
H99	H	0.651446	-0.094444	0.069287
O100	O	0.705653	0.391898	0.000021
C101	C	0.787750	0.380364	0.000035
H102	H	0.802173	0.298947	-0.027273
H103	H	0.819411	0.441399	-0.041855
H104	H	0.808051	0.391421	0.069242
H105	H	0.335492	0.079324	0.000123
H106	H	1.090979	-0.475503	0.000090
O107	O	1.054350	0.065637	0.614586
C108	C	1.009251	-0.005341	0.562370
H109	H	0.951394	0.030612	0.548583
H110	H	1.043634	-0.023537	0.498589
H111	H	0.996258	-0.080492	0.597713
H112	H	0.845690	0.353166	0.213830
O113	O	0.784059	-0.074835	0.000047
C114	C	0.808758	0.031593	0.000076
H115	H	0.872222	0.039291	-0.027231
H116	H	0.768903	0.074646	-0.041808
H117	H	0.805122	0.066901	0.069287
H118	H	0.864193	0.327844	0.786363
