data_functionalizedCrystal
_audit_creation_method	'MofGen! by Chris Wilmer'
_symmetry_space_group_name_H-M	'P1'
_symmetry_Int_Tables_number	1
_symmetry_cell_setting	triclinic
loop_
_symmetry_equiv_pos_as_xyz
  x,y,z
_cell_length_a	19.288864
_cell_length_b	15.995350
_cell_length_c	17.766277
_cell_angle_alpha	89.995869
_cell_angle_beta	89.976791
_cell_angle_gamma	83.314311
loop_
_atom_site_label
_atom_site_type_symbol
_atom_site_fract_x
_atom_site_fract_y
_atom_site_fract_z
O1	O	0.921624	0.104452	-0.062832
O2	O	1.421624	0.604452	0.437168
O3	O	0.719400	0.118542	-0.062780
O4	O	1.219400	0.618542	0.437220
O5	O	0.826040	-0.010412	-0.062807
O6	O	1.326040	0.489588	0.437193
O7	O	0.814984	0.233405	-0.062805
O8	O	1.314984	0.733405	0.437195
O9	O	0.826021	-0.010418	0.062382
O10	O	1.326021	0.489582	0.562382
O11	O	0.719381	0.118535	0.062408
O12	O	1.219381	0.618535	0.562408
O13	O	0.921605	0.104445	0.062357
O14	O	1.421605	0.604445	0.562357
Cu15	Cu	0.820492	0.111490	0.073813
Cu16	Cu	1.320492	0.611490	0.573813
Cu17	Cu	0.820514	0.111497	-0.074237
Cu18	Cu	1.320514	0.611497	0.425763
O19	O	0.814965	0.233399	0.062383
O20	O	1.314965	0.733399	0.562383
C21	C	0.693513	0.118085	-0.000179
C22	C	1.193513	0.618085	0.499821
C23	C	0.616406	0.116724	-0.000159
C24	C	1.116406	0.616724	0.499841
C25	C	0.571906	0.192388	-0.000171
C26	C	1.071906	0.692388	0.499829
C27	C	0.499456	0.191110	-0.000179
C28	C	0.999456	0.691110	0.499821
C29	C	0.471508	0.114163	-0.000191
C30	C	0.971508	0.614163	0.499809
C31	C	0.516018	0.038489	-0.000176
C32	C	1.016018	0.538489	0.499824
C33	C	0.588467	0.039769	-0.000160
C34	C	1.088467	0.539769	0.499840
C35	C	0.363096	0.053676	-0.044076
C36	C	0.863096	0.553676	0.455924
C37	C	0.290648	0.052398	-0.044097
C38	C	0.790648	0.552398	0.455903
C39	C	0.248053	0.110209	-0.000237
C40	C	0.748053	0.610209	0.499763
C41	C	0.277912	0.169312	0.043634
C42	C	0.777912	0.669312	0.543634
C43	C	0.350361	0.170593	0.043650
C44	C	0.850361	0.670593	0.543650
C45	C	0.392951	0.112765	-0.000208
C46	C	0.892951	0.612765	0.499792
C47	C	0.124993	0.184492	-0.000256
C48	C	0.624993	0.684492	0.499744
C49	C	0.052542	0.183210	-0.000260
C50	C	0.552542	0.683210	0.499740
C51	C	0.069106	0.030587	-0.000264
C52	C	0.569106	0.530587	0.499736
C53	C	0.141556	0.031871	-0.000253
C54	C	0.641556	0.531871	0.499747
C55	C	0.169495	0.108826	-0.000252
C56	C	0.669495	0.608826	0.499748
C57	C	0.825574	-0.041608	-0.000214
C58	C	1.325574	0.458392	0.499786
C59	C	0.824203	-0.134553	-0.000218
C60	C	1.324203	0.365447	0.499782
C61	C	0.819282	-0.472282	-0.000214
C62	C	1.319282	0.027718	0.499786
C63	C	0.743335	-0.424562	-0.000475
C64	C	1.243335	0.075438	0.499525
C65	C	0.744706	-0.327877	-0.000193
C66	C	1.244706	0.172123	0.499807
C67	C	0.821723	-0.304731	-0.000216
C68	C	1.321723	0.195269	0.499784
C69	C	0.859172	-0.345953	0.071262
C70	C	1.359172	0.154047	0.571262
C71	C	0.857264	-0.442582	0.071322
C72	C	1.357264	0.057418	0.571322
C73	C	0.858855	-0.442939	-0.071041
C74	C	1.358855	0.057061	0.428959
C75	C	0.858837	-0.345993	-0.071986
C76	C	1.358837	0.154007	0.428014
C77	C	0.823107	-0.210039	-0.000215
C78	C	1.323107	0.289961	0.499785
C79	C	0.817901	-0.566975	-0.000210
C80	C	1.317901	-0.066975	0.499790
C81	C	0.947492	0.104902	-0.000246
C82	C	1.447492	0.604902	0.499754
C83	C	1.024600	0.106263	-0.000271
C84	C	1.524600	0.606263	0.499729
C85	C	0.815432	0.264595	-0.000211
C86	C	1.315432	0.764595	0.499789
C87	C	0.816802	0.357540	-0.000212
C88	C	1.316802	0.857540	0.499788
N89	N	0.820481	0.111484	0.177944
N90	N	1.320481	0.611484	0.677944
N91	N	0.820530	0.111497	-0.178367
N92	N	1.320530	0.611497	0.321633
C93	C	0.867717	0.054411	0.217319
C94	C	1.367717	0.554411	0.717319
C95	C	0.867721	0.054407	0.296120
C96	C	1.367721	0.554407	0.796120
C97	C	0.820496	0.111490	0.335544
C98	C	1.320496	0.611490	0.835544
C99	C	0.773251	0.168567	0.296160
C100	C	1.273251	0.668567	0.796160
C101	C	0.773244	0.168564	0.217359
C102	C	1.273244	0.668564	0.717359
C103	C	0.811395	0.187781	0.460384
C104	C	1.311395	0.687781	0.960384
C105	C	0.811407	0.187785	0.539183
C106	C	1.311407	0.687785	1.039183
C107	C	0.820514	0.111500	0.578590
C108	C	1.320514	0.611500	1.078590
C109	C	0.829624	0.035208	0.539190
C110	C	1.329624	0.535208	1.039190
C111	C	0.829617	0.035204	0.460389
C112	C	1.329617	0.535204	0.960389
C113	C	0.820498	0.111500	0.420990
C114	C	1.320498	0.611500	0.920990
C115	C	0.867757	0.054419	0.703411
C116	C	1.367757	0.554419	1.203411
C117	C	0.867756	0.054414	0.782215
C118	C	1.367756	0.554414	1.282215
C119	C	0.773290	0.168581	0.782252
C120	C	1.273290	0.668581	1.282252
C121	C	0.773288	0.168579	0.703451
C122	C	1.273288	0.668579	1.203451
C123	C	0.820525	0.111499	0.664035
C124	C	1.320525	0.611499	1.164035
H125	H	0.624700	-0.021848	-0.000151
H126	H	1.124700	0.478152	0.499849
H127	H	0.734827	0.215056	0.671389
H128	H	1.234827	0.715056	1.171389
H129	H	0.594649	0.255051	-0.000172
H130	H	1.094649	0.755051	0.499828
C131	C	0.038373	-0.054053	-0.000282
C132	C	0.538373	0.445947	0.499718
H133	H	-0.011149	-0.043981	-0.000298
H134	H	0.488851	0.456019	0.499702
H135	H	0.053624	-0.085205	0.043374
H136	H	0.553624	0.414795	0.543374
H137	H	0.053673	-0.085189	-0.043944
H138	H	0.553673	0.414811	0.456056
C139	C	0.155730	0.269137	-0.000248
C140	C	0.655730	0.769137	0.499752
H141	H	0.118847	0.314018	-0.000245
H142	H	0.618847	0.814018	0.499755
H143	H	0.183669	0.272812	-0.043900
H144	H	0.683669	0.772812	0.456100
H145	H	0.183625	0.272805	0.043418
H146	H	0.683625	0.772805	0.543418
C147	C	0.801388	0.271700	0.582520
C148	C	1.301388	0.771700	1.082520
H149	H	0.802705	0.260778	0.635094
H150	H	1.302705	0.760778	1.135094
H151	H	0.757579	0.301687	0.569629
H152	H	1.257579	0.801687	1.069629
H153	H	0.837711	0.304401	0.569580
H154	H	1.337711	0.804401	1.069580
H155	H	0.463217	0.252727	-0.000186
H156	H	0.963217	0.752727	0.499814
H157	H	0.712988	-0.442976	-0.051732
H158	H	1.212988	0.057024	0.448268
H159	H	0.713107	-0.444044	0.050512
H160	H	1.213107	0.055956	0.550512
C161	C	0.825321	-0.470548	-0.144230
C162	C	1.325321	0.029452	0.355770
H163	H	0.786867	-0.500231	-0.132274
H164	H	1.286867	-0.000231	0.367726
H165	H	0.858836	-0.506147	-0.172154
H166	H	1.358836	-0.006147	0.327846
H167	H	0.809552	-0.422288	-0.173408
H168	H	1.309552	0.077712	0.326592
C169	C	0.721342	0.231374	0.825605
C170	C	1.221342	0.731374	1.325605
H171	H	0.693207	0.265364	0.790865
H172	H	1.193207	0.765364	1.290865
H173	H	0.746327	0.266153	0.856330
H174	H	1.246327	0.766153	1.356330
H175	H	0.692431	0.201337	0.856362
H176	H	1.192431	0.701337	1.356362
H177	H	0.016310	0.244828	-0.000265
H178	H	0.516310	0.744828	0.499735
H179	H	0.177789	-0.029743	-0.000247
H180	H	0.677789	0.470257	0.499753
C181	C	0.801382	0.271700	0.417043
C182	C	1.301382	0.771700	0.917043
H183	H	0.795969	0.317136	0.451793
H184	H	1.295969	0.817136	0.951793
H185	H	0.760938	0.273524	0.386322
H186	H	1.260938	0.773524	0.886322
H187	H	0.841072	0.276217	0.386284
H188	H	1.341072	0.776217	0.886284
H189	H	0.831457	-0.318638	-0.124863
H190	H	1.331457	0.181362	0.375137
H191	H	0.715054	-0.299903	0.051147
H192	H	1.215054	0.200097	0.551147
C193	C	0.704929	-0.289321	-0.069402
C194	C	1.204929	0.210679	0.430598
H195	H	0.687782	-0.332743	-0.097942
H196	H	1.187782	0.167257	0.402058
H197	H	0.735538	-0.261144	-0.099659
H198	H	1.235538	0.238856	0.400341
H199	H	0.666910	-0.250300	-0.053297
H200	H	1.166910	0.249700	0.446703
C201	C	0.257809	-0.012613	-0.092348
C202	C	0.757809	0.487387	0.407652
H203	H	0.293553	-0.046871	-0.118455
H204	H	0.793553	0.453129	0.381545
H205	H	0.226425	0.015828	-0.127625
H206	H	0.726425	0.515828	0.372375
H207	H	0.233199	-0.046920	-0.060725
H208	H	0.733199	0.453080	0.439275
H209	H	0.829941	-0.460783	0.124769
H210	H	1.329941	0.039217	0.624769
C211	C	0.721288	0.231353	0.174045
C212	C	1.221288	0.731353	0.674045
H213	H	0.693164	0.265353	0.208807
H214	H	1.193164	0.765353	0.708807
H215	H	0.692376	0.201322	0.143319
H216	H	1.192376	0.701322	0.643319
H217	H	0.746276	0.266134	0.143292
H218	H	1.246276	0.766134	0.643292
C219	C	0.409944	-0.009914	-0.092332
C220	C	0.909944	0.490086	0.407668
H221	H	0.381785	-0.045284	-0.118471
H222	H	0.881785	0.454716	0.381529
H223	H	0.441862	-0.043228	-0.060714
H224	H	0.941862	0.456772	0.439286
H225	H	0.435079	0.019549	-0.127593
H226	H	0.935079	0.519549	0.372407
H227	H	0.493259	-0.024162	-0.000196
H228	H	0.993259	0.475838	0.499804
C229	C	0.839626	-0.048709	0.417049
C230	C	1.339626	0.451291	0.917049
H231	H	0.845146	-0.094143	0.451797
H232	H	1.345146	0.405857	0.951797
H233	H	0.880007	-0.050478	0.386201
H234	H	1.380007	0.449522	0.886201
H235	H	0.799886	-0.053279	0.386416
H236	H	1.299886	0.446721	0.886416
H237	H	0.734799	0.215044	0.328262
H238	H	1.234799	0.715044	0.828262
C239	C	0.934496	-0.486135	-0.071721
C240	C	1.434496	0.013865	0.428279
H241	H	0.941952	-0.521884	-0.029076
H242	H	1.441952	-0.021884	0.470924
H243	H	0.965876	-0.444592	-0.070162
H244	H	1.465876	0.055408	0.429838
H245	H	0.942317	-0.518598	-0.116340
H246	H	1.442317	-0.018598	0.383660
C247	C	0.383206	0.235592	0.091910
C248	C	0.883206	0.735592	0.591910
H249	H	0.347466	0.269838	0.118035
H250	H	0.847466	0.769838	0.618035
H251	H	0.407819	0.269901	0.060299
H252	H	0.907819	0.769901	0.560299
H253	H	0.414588	0.207131	0.127184
H254	H	0.914588	0.707131	0.627184
H255	H	0.243232	0.216387	0.079349
H256	H	0.743232	0.716387	0.579349
C257	C	0.919668	-0.008384	0.173965
C258	C	1.419668	0.491616	0.673965
H259	H	0.947796	-0.042380	0.208707
H260	H	1.447796	0.457620	0.708707
H261	H	0.948576	0.021643	0.143203
H262	H	1.448576	0.521643	0.643203
H263	H	0.894676	-0.043168	0.143247
H264	H	1.394676	0.456832	0.643247
H265	H	0.913023	-0.475041	0.074549
H266	H	1.413023	0.024959	0.574549
C267	C	0.935608	-0.327157	0.074839
C268	C	1.435608	0.172843	0.574839
H269	H	0.945382	-0.293919	0.032673
H270	H	1.445382	0.206081	0.532673
H271	H	0.965725	-0.378557	0.074168
H272	H	1.465725	0.121443	0.574168
H273	H	0.942867	-0.297380	0.119881
H274	H	1.442867	0.202620	0.619881
H275	H	0.833147	-0.317477	0.124469
H276	H	1.333147	0.182523	0.624469
H277	H	0.915002	-0.330843	-0.076319
H278	H	1.415002	0.169157	0.423681
C279	C	0.919683	-0.008370	0.339446
C280	C	1.419683	0.491630	0.839446
H281	H	0.912918	-0.000195	0.392021
H282	H	1.412918	0.499805	0.892021
H283	H	0.966034	0.000585	0.326505
H284	H	1.466034	0.500585	0.826505
H285	H	0.912143	-0.064236	0.326545
H286	H	1.412143	0.435764	0.826545
H287	H	0.837040	-0.026911	0.571273
H288	H	1.337040	0.473089	1.071273
H289	H	0.906219	0.007934	0.814274
H290	H	1.406219	0.507934	1.314274
C291	C	0.919707	-0.008374	0.660051
C292	C	1.419707	0.491626	1.160051
H293	H	0.947833	-0.042376	0.694791
H294	H	1.447833	0.457624	1.194791
H295	H	0.948617	0.021654	0.629293
H296	H	1.448617	0.521654	1.129293
H297	H	0.894715	-0.043154	0.629328
H298	H	1.394715	0.456846	1.129328
