data_functionalizedCrystal
_audit_creation_method	'MofGen! by Chris Wilmer'
_symmetry_space_group_name_H-M	'P1'
_symmetry_Int_Tables_number	1
_symmetry_cell_setting	triclinic
loop_
_symmetry_equiv_pos_as_xyz
  x,y,z
_cell_length_a	23.532407
_cell_length_b	26.809956
_cell_length_c	23.532407
_cell_angle_alpha	90.000335
_cell_angle_beta	82.848678
_cell_angle_gamma	90.003435
loop_
_atom_site_label
_atom_site_type_symbol
_atom_site_fract_x
_atom_site_fract_y
_atom_site_fract_z
O1	O	0.755264	0.041422	0.069127
O2	O	1.088597	0.374756	0.402460
O3	O	1.421931	0.708089	0.735793
O4	O	0.589401	0.041438	0.079130
O5	O	0.922734	0.374771	0.412463
O6	O	1.256067	0.708104	0.745797
O7	O	0.677334	0.041420	-0.008803
O8	O	1.010667	0.374754	0.324530
O9	O	1.344001	0.708087	0.657863
O10	O	0.667331	0.041440	0.157060
O11	O	1.000664	0.374773	0.490393
O12	O	1.333997	0.708106	0.823727
O13	O	0.677317	-0.041539	-0.008790
O14	O	1.010651	0.291795	0.324543
O15	O	1.343984	0.625128	0.657877
O16	O	0.589384	-0.041522	0.079143
O17	O	0.922717	0.291812	0.412477
O18	O	1.256051	0.625145	0.745810
O19	O	0.755247	-0.041537	0.069140
O20	O	1.088581	0.291796	0.402474
O21	O	1.421914	0.625130	0.735807
Zn22	Zn	0.672313	-0.054701	0.074144
Zn23	Zn	1.005646	0.278633	0.407477
Zn24	Zn	1.338980	0.611966	0.740811
Zn25	Zn	0.672335	0.054602	0.074126
Zn26	Zn	1.005668	0.387935	0.407460
Zn27	Zn	1.339002	0.721268	0.740793
O28	O	0.667314	-0.041520	0.157073
O29	O	1.000647	0.291814	0.490407
O30	O	1.333981	0.625147	0.823740
C31	C	0.568176	-0.000040	0.078882
C32	C	0.901510	0.333293	0.412215
C33	C	1.234843	0.666627	0.745549
C34	C	0.504959	-0.000035	0.078116
C35	C	0.838293	0.333299	0.411449
C36	C	1.171626	0.666632	0.744783
N37	N	0.672302	-0.129297	0.074156
N38	N	1.005636	0.204037	0.407489
N39	N	1.338969	0.537370	0.740822
C40	C	0.105856	-0.000052	0.125350
C41	C	0.439190	0.333282	0.458683
C42	C	0.772523	0.666615	0.792016
C43	C	0.046456	-0.000055	0.124638
C44	C	0.379789	0.333278	0.457971
C45	C	0.713123	0.666612	0.791305
O46	O	0.009711	-0.000068	0.168424
O47	O	0.343045	0.333265	0.501757
O48	O	0.676378	0.666599	0.835091
N49	N	0.023830	-0.000060	0.072362
N50	N	0.357163	0.333273	0.405695
N51	N	0.690496	0.666607	0.739028
C52	C	0.060607	-0.000067	0.020794
C53	C	0.393941	0.333266	0.354127
C54	C	0.727274	0.666599	0.687460
O55	O	0.035908	-0.000072	-0.023737
O56	O	0.369241	0.333261	0.309596
O57	O	0.702574	0.666594	0.642930
C58	C	0.120006	-0.000068	0.021506
C59	C	0.453340	0.333266	0.354839
C60	C	0.786673	0.666599	0.688172
C61	C	0.142629	-0.000057	0.073785
C62	C	0.475962	0.333276	0.407119
C63	C	0.809296	0.666609	0.740452
C64	C	0.128479	-0.000042	0.177625
C65	C	0.461813	0.333291	0.510958
C66	C	0.795146	0.666625	0.844292
C67	C	0.187876	-0.000038	0.178336
C68	C	0.521209	0.333295	0.511670
C69	C	0.854542	0.666629	0.845003
C70	C	0.224649	-0.000044	0.126772
C71	C	0.557982	0.333290	0.460105
C72	C	0.891315	0.666623	0.793439
C73	C	0.202025	-0.000053	0.074497
C74	C	0.535359	0.333280	0.407830
C75	C	0.868692	0.666613	0.741163
C76	C	0.156783	-0.000078	-0.030062
C77	C	0.490116	0.333255	0.303271
C78	C	0.823450	0.666588	0.636605
C79	C	0.216185	-0.000079	-0.029345
C80	C	0.549519	0.333254	0.303988
C81	C	0.882852	0.666587	0.637321
C82	C	0.238808	-0.000069	0.022934
C83	C	0.572141	0.333264	0.356268
C84	C	0.905475	0.666598	0.689601
C85	C	0.298194	-0.000055	0.023643
C86	C	0.631528	0.333278	0.356977
C87	C	0.964861	0.666612	0.690310
N88	N	0.320820	-0.000050	0.075920
N89	N	0.654154	0.333284	0.409253
N90	N	0.987487	0.666617	0.742586
C91	C	0.284048	-0.000044	0.127484
C92	C	0.617381	0.333289	0.460817
C93	C	0.950714	0.666623	0.794151
C94	C	-0.064135	-0.000067	0.019302
C95	C	0.269198	0.333266	0.352635
C96	C	0.602532	0.666599	0.685969
C97	C	-0.123533	-0.000063	0.018589
C98	C	0.209800	0.333270	0.351923
C99	C	0.543134	0.666603	0.685256
C100	C	-0.137680	-0.000052	0.122434
C101	C	0.195653	0.333282	0.455768
C102	C	0.528986	0.666615	0.789101
C103	C	-0.078281	-0.000052	0.123146
C104	C	0.255052	0.333281	0.456480
C105	C	0.588385	0.666614	0.789813
C106	C	-0.041509	-0.000062	0.071578
C107	C	0.291824	0.333271	0.404912
C108	C	0.625158	0.666605	0.738245
C109	C	0.408784	-0.000035	0.128974
C110	C	0.742118	0.333298	0.462307
C111	C	1.075451	0.666632	0.795640
C112	C	0.468186	-0.000029	0.129680
C113	C	0.801520	0.333304	0.463014
C114	C	1.134853	0.666638	0.796347
C115	C	0.482329	-0.000043	0.025836
C116	C	0.815662	0.333290	0.359169
C117	C	1.148995	0.666624	0.692503
C118	C	0.422932	-0.000047	0.025129
C119	C	0.756265	0.333287	0.358462
C120	C	1.089598	0.666620	0.691796
C121	C	0.386160	-0.000044	0.076702
C122	C	0.719494	0.333289	0.410036
C123	C	1.052827	0.666622	0.743369
O124	O	0.334974	-0.000044	-0.020119
O125	O	0.668307	0.333289	0.313214
O126	O	1.001640	0.666623	0.646547
O127	O	0.308755	-0.000045	0.172007
O128	O	0.642089	0.333288	0.505340
O129	O	0.975422	0.666621	0.838674
C130	C	0.711267	-0.473930	0.035199
C131	C	1.044600	-0.140597	0.368532
C132	C	1.377933	0.192736	0.701866
C133	C	0.711280	-0.682808	0.035190
C134	C	1.044614	-0.349475	0.368524
C135	C	1.377947	-0.016141	0.701857
O136	O	0.744386	-0.709818	0.002071
O137	O	1.077720	-0.376485	0.335405
O138	O	1.411053	-0.043152	0.668738
N139	N	0.672338	-0.708924	0.074114
N140	N	1.005671	-0.375591	0.407447
N141	N	1.339005	-0.042257	0.740780
C142	C	0.633387	-0.682817	0.113040
C143	C	0.966721	-0.349484	0.446373
C144	C	1.300054	-0.016150	0.779706
O145	O	0.600261	-0.709823	0.146142
O146	O	0.933594	-0.376489	0.479476
O147	O	1.266928	-0.043156	0.812809
C148	C	0.633371	-0.473940	0.113045
C149	C	0.966705	-0.140607	0.446378
C150	C	1.300038	0.192726	0.779712
C151	C	0.672320	-0.447827	0.074123
C152	C	1.005653	-0.114494	0.407456
C153	C	1.338987	0.218839	0.740790
C154	C	0.750212	-0.447817	-0.003720
C155	C	1.083545	-0.114484	0.329613
C156	C	1.416879	0.218849	0.662946
C157	C	0.750210	-0.395601	-0.003716
C158	C	1.083543	-0.062268	0.329618
C159	C	1.416877	0.271066	0.662951
C160	C	0.711263	-0.369498	0.035208
C161	C	1.044597	-0.036165	0.368542
C162	C	1.377930	0.297169	0.701875
C163	C	0.672318	-0.395611	0.074128
C164	C	1.005652	-0.062278	0.407461
C165	C	1.338985	0.271056	0.740794
C166	C	0.594418	-0.447834	0.151968
C167	C	0.927752	-0.114501	0.485301
C168	C	1.261085	0.218832	0.818635
C169	C	0.594417	-0.395612	0.151965
C170	C	0.927750	-0.062278	0.485298
C171	C	1.261084	0.271055	0.818632
C172	C	0.633365	-0.369499	0.113043
C173	C	0.966699	-0.036165	0.446376
C174	C	1.300032	0.297168	0.779709
C175	C	0.633370	-0.317291	0.113056
C176	C	0.966703	0.016042	0.446390
C177	C	1.300037	0.349375	0.779723
N178	N	0.672312	-0.291176	0.074133
N179	N	1.005645	0.042158	0.407466
N180	N	1.338979	0.375491	0.740800
C181	C	0.711259	-0.317279	0.035209
C182	C	1.044592	0.016054	0.368542
C183	C	1.377926	0.349388	0.701876
C184	C	0.633399	-0.792480	0.113035
C185	C	0.966732	-0.459147	0.446368
C186	C	1.300066	-0.125814	0.779701
C187	C	0.633404	-0.844699	0.113034
C188	C	0.966737	-0.511366	0.446367
C189	C	1.300070	-0.178032	0.779701
C190	C	0.711296	-0.844687	0.035184
C191	C	1.044629	-0.511353	0.368517
C192	C	1.377963	-0.178020	0.701850
C193	C	0.711294	-0.792467	0.035188
C194	C	1.044627	-0.459134	0.368521
C195	C	1.377961	-0.125800	0.701854
C196	C	0.672341	-0.766365	0.074111
C197	C	1.005675	-0.433031	0.407445
C198	C	1.339008	-0.099698	0.740778
C199	C	0.711253	-0.207621	0.035222
C200	C	1.044586	0.125712	0.368555
C201	C	1.377919	0.459046	0.701889
C202	C	0.711249	-0.155400	0.035232
C203	C	1.044582	0.177933	0.368565
C204	C	1.377916	0.511267	0.701898
C205	C	0.633355	-0.155417	0.113080
C206	C	0.966688	0.177916	0.446413
C207	C	1.300021	0.511250	0.779746
C208	C	0.633360	-0.207633	0.113072
C209	C	0.966693	0.125700	0.446405
C210	C	1.300027	0.459033	0.779739
C211	C	0.672311	-0.233734	0.074139
C212	C	1.005645	0.099599	0.407472
C213	C	1.338978	0.432933	0.740805
O214	O	0.600277	-0.290249	0.146154
O215	O	0.933611	0.043085	0.479487
O216	O	1.266944	0.376418	0.812820
O217	O	0.744372	-0.290264	0.002103
O218	O	1.077705	0.043069	0.335436
O219	O	1.411039	0.376403	0.668769
C220	C	0.711269	-0.526147	0.035194
C221	C	1.044602	-0.192813	0.368528
C222	C	1.377935	0.140520	0.701861
C223	C	0.672324	-0.552260	0.074114
C224	C	1.005657	-0.218926	0.407447
C225	C	1.338990	0.114407	0.740780
C226	C	0.633377	-0.526157	0.113038
C227	C	0.966710	-0.192823	0.446371
C228	C	1.300043	0.140510	0.779704
C229	C	0.672328	-0.604479	0.074113
C230	C	1.005661	-0.271145	0.407446
C231	C	1.338995	0.062188	0.740780
C232	C	0.711275	-0.630582	0.035189
C233	C	1.044608	-0.297249	0.368522
C234	C	1.377941	0.036085	0.701856
C235	C	0.750217	-0.604466	-0.003734
C236	C	1.083550	-0.271133	0.329599
C237	C	1.416884	0.062200	0.662932
C238	C	0.750215	-0.552250	-0.003730
C239	C	1.083549	-0.218917	0.329604
C240	C	1.416882	0.114417	0.662937
C241	C	0.594435	-0.552272	0.151961
C242	C	0.927768	-0.218939	0.485295
C243	C	1.261101	0.114394	0.818628
C244	C	0.594440	-0.604489	0.151954
C245	C	0.927773	-0.271155	0.485287
C246	C	1.261107	0.062178	0.818620
C247	C	0.633387	-0.630592	0.113030
C248	C	0.966720	-0.297258	0.446363
C249	C	1.300053	0.036075	0.779696
C250	C	0.776472	-0.000058	0.069388
C251	C	1.109805	0.333275	0.402722
C252	C	1.443138	0.666609	0.736055
C253	C	0.839689	-0.000060	0.070154
C254	C	1.173022	0.333273	0.403487
C255	C	1.506355	0.666606	0.736821
C256	C	0.677071	-0.000060	-0.030013
C257	C	1.010404	0.333273	0.303321
C258	C	1.343738	0.666606	0.636654
C259	C	0.676305	-0.000064	-0.093230
C260	C	1.009638	0.333269	0.240104
C261	C	1.342972	0.666602	0.573437
N262	N	0.672350	0.129198	0.074110
N263	N	1.005684	0.462531	0.407443
N264	N	1.339017	0.795864	0.740777
C265	C	0.723539	-0.000041	-0.492333
C266	C	1.056872	0.333292	-0.158999
C267	C	1.390205	0.666625	0.174334
C268	C	0.722827	-0.000037	-0.551733
C269	C	1.056160	0.333296	-0.218400
C270	C	1.389494	0.666629	0.114934
O271	O	0.766613	-0.000023	-0.588478
O272	O	1.099946	0.333310	-0.255144
O273	O	1.433280	0.666644	0.078189
N274	N	0.670551	-0.000033	-0.574359
N275	N	1.003884	0.333300	-0.241026
N276	N	1.337217	0.666634	0.092307
C277	C	0.618983	-0.000027	-0.537582
C278	C	0.952316	0.333306	-0.204248
C279	C	1.285649	0.666639	0.129085
O280	O	0.574452	-0.000023	-0.562281
O281	O	0.907785	0.333311	-0.228948
O282	O	1.241119	0.666644	0.104385
C283	C	0.619695	-0.000027	-0.478182
C284	C	0.953028	0.333306	-0.144849
C285	C	1.286361	0.666639	0.188484
C286	C	0.671974	-0.000037	-0.455560
C287	C	1.005308	0.333296	-0.122227
C288	C	1.338641	0.666630	0.211107
C289	C	0.775814	-0.000050	-0.469710
C290	C	1.109147	0.333283	-0.136376
C291	C	1.442481	0.666616	0.196957
C292	C	0.776525	-0.000055	-0.410313
C293	C	1.109859	0.333278	-0.076980
C294	C	1.443192	0.666612	0.256353
C295	C	0.724961	-0.000051	-0.373540
C296	C	1.058294	0.333283	-0.040207
C297	C	1.391628	0.666616	0.293126
C298	C	0.672685	-0.000042	-0.396164
C299	C	1.006019	0.333292	-0.062830
C300	C	1.339352	0.666625	0.270503
C301	C	0.568127	-0.000018	-0.441406
C302	C	0.901460	0.333315	-0.108073
C303	C	1.234794	0.666648	0.225261
C304	C	0.568844	-0.000018	-0.382004
C305	C	0.902177	0.333315	-0.048670
C306	C	1.235510	0.666649	0.284663
C307	C	0.621123	-0.000028	-0.359381
C308	C	0.954457	0.333306	-0.026048
C309	C	1.287790	0.666639	0.307286
C310	C	0.621832	-0.000042	-0.299995
C311	C	0.955166	0.333291	0.033339
C312	C	1.288499	0.666624	0.366672
N313	N	0.674109	-0.000047	-0.277368
N314	N	1.007442	0.333286	0.055965
N315	N	1.340775	0.666620	0.389298
C316	C	0.725673	-0.000051	-0.314141
C317	C	1.059006	0.333282	0.019192
C318	C	1.392340	0.666616	0.352525
C319	C	0.617491	-0.000026	-0.662324
C320	C	0.950824	0.333308	-0.328991
C321	C	1.284158	0.666641	0.004343
C322	C	0.616778	-0.000029	-0.721722
C323	C	0.950112	0.333304	-0.388389
C324	C	1.283445	0.666638	-0.055055
C325	C	0.720623	-0.000038	-0.735869
C326	C	1.053957	0.333295	-0.402536
C327	C	1.387290	0.666628	-0.069203
C328	C	0.721335	-0.000039	-0.676470
C329	C	1.054669	0.333295	-0.343137
C330	C	1.388002	0.666628	-0.009804
C331	C	0.669767	-0.000030	-0.639698
C332	C	1.003101	0.333303	-0.306365
C333	C	1.336434	0.666636	0.026969
C334	C	0.727163	-0.000062	-0.189405
C335	C	1.060496	0.333272	0.143929
C336	C	1.393829	0.666605	0.477262
C337	C	0.727869	-0.000068	-0.130003
C338	C	1.061203	0.333265	0.203331
C339	C	1.394536	0.666598	0.536664
C340	C	0.624025	-0.000057	-0.115860
C341	C	0.957358	0.333277	0.217473
C342	C	1.290692	0.666610	0.550806
C343	C	0.623318	-0.000052	-0.175257
C344	C	0.956651	0.333281	0.158076
C345	C	1.289985	0.666614	0.491409
C346	C	0.674891	-0.000053	-0.212029
C347	C	1.008225	0.333280	0.121305
C348	C	1.341558	0.666614	0.454638
O349	O	0.578070	-0.000055	-0.263215
O350	O	0.911403	0.333279	0.070118
O351	O	1.244736	0.666612	0.403451
O352	O	0.770196	-0.000049	-0.289433
O353	O	1.103529	0.333284	0.043900
O354	O	1.436863	0.666618	0.377233
C355	C	0.667577	-0.000038	0.178283
C356	C	1.000910	0.333296	0.511616
C357	C	1.334244	0.666629	0.844949
C358	C	0.668343	-0.000031	0.241500
C359	C	1.001676	0.333303	0.574833
C360	C	1.335010	0.666636	0.908167
H361	H	0.486602	-0.000020	0.172255
H362	H	0.819935	0.333313	0.505588
H363	H	1.153269	0.666646	0.838921
Br364	Br	0.797156	-0.000062	-0.239299
Br365	Br	1.130489	0.333271	0.094034
Br366	Br	1.463823	0.666605	0.427367
Br367	Br	0.358890	-0.000033	0.198967
Br368	Br	0.692223	0.333301	0.532300
Br369	Br	1.025556	0.666634	0.865634
Br370	Br	-0.154227	-0.000062	-0.052364
Br371	Br	0.179106	0.333271	0.280969
Br372	Br	0.512439	0.666605	0.614302
Br373	Br	0.790604	-0.000042	-0.785787
Br374	Br	1.123937	0.333291	-0.452454
Br375	Br	1.457271	0.666625	-0.119120
H376	H	-0.167632	-0.000050	0.164421
H377	H	0.165701	0.333284	0.497754
H378	H	0.499035	0.666617	0.831087
Br379	Br	0.764154	-0.757034	-0.017637
Br380	Br	1.097488	-0.423700	0.315696
Br381	Br	1.430821	-0.090367	0.649029
H382	H	0.781924	-0.374343	-0.035411
H383	H	1.115257	-0.041010	0.297922
H384	H	1.448590	0.292324	0.631256
H385	H	0.743009	-0.865949	0.003491
H386	H	1.076342	-0.532615	0.336824
H387	H	1.409676	-0.199282	0.670158
Br388	Br	-0.014235	-0.000076	-0.050690
Br389	Br	0.319099	0.333257	0.282643
Br390	Br	0.652432	0.666591	0.615977
H391	H	0.525555	-0.000007	-0.459814
H392	H	0.858889	0.333326	-0.126481
H393	H	1.192222	0.666659	0.206852
Br394	Br	0.580531	-0.757061	0.165865
Br395	Br	0.913864	-0.423728	0.499198
Br396	Br	1.247198	-0.090395	0.832532
Br397	Br	-0.047586	-0.000038	0.194099
Br398	Br	0.285748	0.333295	0.527433
Br399	Br	0.619081	0.666628	0.860766
Br400	Br	0.552367	-0.000051	-0.205961
Br401	Br	0.885700	0.333282	0.127373
Br402	Br	1.219033	0.666616	0.460706
H403	H	0.601650	-0.228895	0.144772
H404	H	0.934983	0.104438	0.478105
H405	H	1.268317	0.437772	0.811438
H406	H	0.582043	-0.000055	-0.085909
H407	H	0.915376	0.333278	0.247424
H408	H	1.248709	0.666612	0.580757
Br409	Br	0.126097	-0.000081	-0.101018
Br410	Br	0.459430	0.333252	0.232316
Br411	Br	0.792763	0.666585	0.565649
H412	H	0.781927	-0.469066	-0.035420
H413	H	1.115260	-0.135733	0.297914
H414	H	1.448594	0.197601	0.631247
H415	H	0.206289	-0.000029	0.220908
H416	H	0.539622	0.333304	0.554241
H417	H	0.872956	0.666637	0.887574
H418	H	0.601646	-0.134156	0.144773
H419	H	0.934980	0.199178	0.478106
H420	H	1.268313	0.532511	0.811439
H421	H	0.817806	-0.000052	-0.499645
H422	H	1.151140	0.333282	-0.166312
H423	H	1.484473	0.666615	0.167022
Br424	Br	0.847480	-0.000054	-0.379621
Br425	Br	1.180813	0.333279	-0.046288
Br426	Br	1.514147	0.666613	0.287046
H427	H	0.098544	-0.000039	0.219617
H428	H	0.431877	0.333294	0.552951
H429	H	0.765211	0.666627	0.886284
Br430	Br	0.792288	-0.000053	-0.645775
Br431	Br	1.125622	0.333281	-0.312441
Br432	Br	1.458955	0.666614	0.020892
Br433	Br	0.580552	-0.880132	0.165868
Br434	Br	0.913886	-0.546799	0.499201
Br435	Br	1.247219	-0.213466	0.832535
Br436	Br	0.532246	-0.000052	-0.044141
Br437	Br	0.865579	0.333281	0.289193
Br438	Br	1.198912	0.666615	0.622526
H439	H	0.562703	-0.469088	0.183661
H440	H	0.896036	-0.135755	0.516995
H441	H	1.229369	0.197578	0.850328
H442	H	0.770443	-0.000077	-0.111587
H443	H	1.103777	0.333256	0.221746
H444	H	1.437110	0.666589	0.555080
H445	H	0.246123	-0.000088	-0.071339
H446	H	0.579457	0.333246	0.261994
H447	H	0.912790	0.666579	0.595327
H448	H	0.526850	-0.000011	-0.352066
H449	H	0.860183	0.333323	-0.018732
H450	H	1.193516	0.666656	0.314601
H451	H	0.404512	-0.000048	-0.017441
H452	H	0.737845	0.333286	0.315892
H453	H	1.071178	0.666619	0.649225
Br454	Br	0.545825	-0.000028	-0.752416
Br455	Br	0.879158	0.333305	-0.419083
Br456	Br	1.212491	0.666639	-0.085750
H457	H	0.562695	-0.374362	0.183661
H458	H	0.896028	-0.041028	0.516994
H459	H	1.229362	0.292305	0.850327
H460	H	0.742968	-0.134140	0.003536
H461	H	1.076301	0.199193	0.336870
H462	H	1.409634	0.532526	0.670203
Br463	Br	0.764115	-0.243035	-0.017617
Br464	Br	1.097449	0.090299	0.315716
Br465	Br	1.430782	0.423632	0.649049
H466	H	0.781931	-0.530993	-0.035424
H467	H	1.115264	-0.197659	0.297909
H468	H	1.448597	0.135674	0.631243
H469	H	0.781931	-0.625728	-0.035426
H470	H	1.115264	-0.292395	0.297907
H471	H	1.448598	0.040939	0.631241
H472	H	0.562724	-0.625746	0.183654
H473	H	0.896058	-0.292413	0.516987
H474	H	1.229391	0.040920	0.850321
Br475	Br	0.541573	-0.516853	0.204791
Br476	Br	0.874906	-0.183520	0.538124
Br477	Br	1.208240	0.149814	0.871458
Br478	Br	0.547499	-0.000019	-0.612424
Br479	Br	0.880832	0.333315	-0.279090
Br480	Br	1.214166	0.666648	0.054243
