data_functionalizedCrystal
_audit_creation_method	'MofGen! by Chris Wilmer'
_symmetry_space_group_name_H-M	'P1'
_symmetry_Int_Tables_number	1
_symmetry_cell_setting	triclinic
loop_
_symmetry_equiv_pos_as_xyz
  x,y,z
_cell_length_a	16.109301
_cell_length_b	19.188930
_cell_length_c	14.586319
_cell_angle_alpha	89.991095
_cell_angle_beta	89.998857
_cell_angle_gamma	83.303183
loop_
_atom_site_label
_atom_site_type_symbol
_atom_site_fract_x
_atom_site_fract_y
_atom_site_fract_z
O1	O	1.102833	0.089745	-0.076200
O2	O	0.860734	0.100913	-0.076215
O3	O	0.988770	-0.006310	-0.076189
O4	O	0.974797	0.196968	-0.076226
O5	O	0.988761	-0.006312	0.076292
O6	O	0.860725	0.100912	0.076266
O7	O	1.102824	0.089743	0.076280
Cu8	Cu	0.981774	0.095327	0.090196
Cu9	Cu	0.981785	0.095329	-0.090130
O10	O	0.974788	0.196967	0.076255
C11	C	0.829757	0.100460	0.000024
C12	C	0.737466	0.099103	0.000020
C13	C	0.988313	-0.032323	0.000054
C14	C	0.986955	-0.109831	0.000062
C15	C	0.428271	0.158294	0.000025
C16	C	0.514987	0.159575	0.000019
C17	C	0.535282	0.032358	0.000030
C18	C	0.448568	0.031077	0.000029
C19	C	0.395064	0.094048	0.000031
C20	C	0.568495	0.096609	0.000027
C21	C	0.662516	0.097997	0.000021
C22	C	0.301037	0.092659	0.000035
C23	C	1.062082	-0.154579	0.000070
C24	C	1.060806	-0.227406	0.000056
C25	C	0.984398	-0.255481	0.000050
C26	C	0.909261	-0.210723	0.000036
C27	C	0.910540	-0.137898	0.000042
N28	N	0.925991	-0.363623	0.051939
N29	N	0.924782	-0.432805	0.051936
C30	C	0.980543	-0.474899	0.000032
N31	N	1.037571	-0.445200	-0.051858
N32	N	1.038783	-0.376012	-0.051850
C33	C	0.983004	-0.334447	0.000044
C34	C	1.054291	-0.598615	0.000023
C35	C	1.053012	-0.671443	0.000003
C36	C	0.901465	-0.654758	-0.000007
C37	C	0.902747	-0.581932	0.000004
C38	C	0.979162	-0.553865	0.000024
C39	C	1.133802	0.090196	0.000039
C40	C	1.226093	0.091553	0.000038
C41	C	0.975245	0.222980	0.000010
C42	C	0.976604	0.300487	-0.000004
N43	N	0.981773	0.095325	0.217028
N44	N	0.981793	0.095325	-0.216962
C45	C	1.038486	0.047863	0.452045
C46	C	1.038488	0.047861	0.548027
C47	C	0.925074	0.142790	0.548014
C48	C	0.925068	0.142788	0.452034
C49	C	0.981779	0.095325	0.404052
C50	C	0.981787	0.095326	0.596013
C51	C	0.981789	0.095324	0.700080
C52	C	0.981776	0.095326	0.299979
H53	H	0.542020	0.211890	0.000013
O54	O	0.416266	-0.031318	-0.000128
C55	C	0.366701	-0.035849	-0.079090
H56	H	0.387079	0.000637	-0.134286
H57	H	0.298255	-0.019729	-0.061239
C58	C	0.352460	-0.156670	-0.047101
C59	C	0.377494	-0.111862	-0.114897
H60	H	0.359114	-0.203559	-0.069187
H61	H	0.385851	-0.153618	0.006100
H62	H	0.295424	-0.143229	-0.032232
H63	H	0.434532	-0.125299	-0.129757
H64	H	0.344114	-0.114919	-0.168101
H65	H	0.841570	-0.545497	0.000002
O66	O	0.870014	0.188832	0.405266
C67	C	0.882185	0.178662	0.310264
H68	H	0.913457	0.123157	0.297170
H69	H	0.923740	0.218187	0.283014
C70	C	0.758693	0.257308	0.277069
C71	C	0.797095	0.189135	0.260986
H72	H	0.706207	0.263772	0.246670
H73	H	0.750494	0.264163	0.341073
H74	H	0.793331	0.290239	0.254360
H75	H	0.762462	0.156206	0.283705
H76	H	0.805286	0.182275	0.196984
H77	H	0.849360	-0.101463	0.000035
O78	O	0.827169	-0.681905	-0.000053
C79	C	0.761131	-0.626788	-0.000029
H80	H	0.784257	-0.577315	-0.028889
H81	H	0.737965	-0.616491	0.073123
C82	C	0.660644	-0.708080	-0.024388
C83	C	0.689047	-0.647319	-0.059842
H84	H	0.616177	-0.720746	-0.061280
H85	H	0.705134	-0.745215	-0.024401
H86	H	0.641345	-0.699492	0.036571
H87	H	0.708355	-0.655911	-0.120796
H88	H	0.644558	-0.610187	-0.059841
O89	O	1.093656	0.001731	0.594504
C90	C	1.143690	-0.040171	0.531569
H91	H	1.144520	-0.011543	0.463146
H92	H	1.116887	-0.092045	0.521373
C93	C	1.232410	-0.089700	0.653062
C94	C	1.233435	-0.054536	0.569026
H95	H	1.287769	-0.098564	0.676167
H96	H	1.198700	-0.061472	0.695463
H97	H	1.210070	-0.132924	0.644553
H98	H	1.255765	-0.011309	0.577537
H99	H	1.267152	-0.082757	0.526626
O100	O	1.093436	0.001698	0.405355
C101	C	1.049035	-0.041396	0.349898
H102	H	0.983896	-0.013576	0.335497
H103	H	1.043535	-0.092976	0.386939
C104	C	1.175963	-0.090541	0.276427
C105	C	1.095960	-0.056369	0.258733
H106	H	1.204909	-0.099781	0.220193
H107	H	1.205878	-0.061510	0.313791
H108	H	1.171368	-0.133521	0.307296
H109	H	1.100556	-0.013387	0.227875
H110	H	1.066047	-0.085394	0.221361
H111	H	0.384711	0.209568	0.000026
H112	H	0.578855	-0.018910	0.000030
O113	O	0.869959	0.188801	0.594728
C114	C	0.818798	0.151398	0.650246
H115	H	0.852110	0.096770	0.664633
H116	H	0.757368	0.146640	0.613267
C117	C	0.759981	0.257855	0.723740
C118	C	0.800899	0.190763	0.741416
H119	H	0.748936	0.282138	0.779976
H120	H	0.794446	0.283055	0.686334
H121	H	0.708794	0.253881	0.692921
H122	H	0.852089	0.194738	0.772224
H123	H	0.766441	0.165564	0.778830
O124	O	1.133865	-0.270785	0.000108
C125	C	1.201583	-0.230396	0.000099
H126	H	1.180281	-0.176041	0.028965
H127	H	1.225029	-0.225208	-0.073049
C128	C	1.298823	-0.333469	0.024455
C129	C	1.272661	-0.266712	0.059916
H130	H	1.342669	-0.355871	0.061349
H131	H	1.253200	-0.360681	0.024457
H132	H	1.318355	-0.329137	-0.036502
H133	H	1.253120	-0.271046	0.120866
H134	H	1.318283	-0.239501	0.059925
H135	H	1.124306	-0.131732	0.000083
H136	H	1.116513	-0.575762	0.000035
O137	O	0.835091	-0.238075	-0.000089
C138	C	0.829816	-0.279677	-0.079074
H139	H	0.895414	-0.297824	-0.105396
H140	H	0.792921	-0.247488	-0.134375
C141	C	0.704712	-0.321799	-0.022762
C142	C	0.785281	-0.344093	-0.055087
H143	H	0.677238	-0.361533	-0.007969
H144	H	0.708264	-0.293769	0.030450
H145	H	0.673977	-0.294974	-0.068852
H146	H	0.816018	-0.370910	-0.008993
H147	H	0.781734	-0.372129	-0.108291
H148	H	1.114192	-0.707877	0.000005
