data_functionalizedCrystal
_audit_creation_method	'MofGen! by Chris Wilmer'
_symmetry_space_group_name_H-M	'P1'
_symmetry_Int_Tables_number	1
_symmetry_cell_setting	triclinic
loop_
_symmetry_equiv_pos_as_xyz
  x,y,z
_cell_length_a	13.897448
_cell_length_b	13.033748
_cell_length_c	13.032268
_cell_angle_alpha	103.297929
_cell_angle_beta	97.148041
_cell_angle_gamma	97.212326
loop_
_atom_site_label
_atom_site_type_symbol
_atom_site_fract_x
_atom_site_fract_y
_atom_site_fract_z
Zn1	Zn	-0.248571	1.547444	-0.394585
Zn2	Zn	0.251429	2.047444	0.105415
Zn3	Zn	-0.386441	1.569898	-0.216997
Zn4	Zn	0.113559	2.069898	0.283003
Zn5	Zn	-0.248640	1.392397	-0.239526
Zn6	Zn	0.251360	1.892397	0.260474
Zn7	Zn	-0.433314	1.369815	-0.417062
Zn8	Zn	0.066686	1.869815	0.082938
O9	O	-0.329241	1.469888	-0.317042
O10	O	0.170759	1.969888	0.182958
O11	O	-0.247214	1.699046	-0.352192
O12	O	0.252786	2.199046	0.147808
O13	O	-0.348574	1.565199	-0.071365
O14	O	0.151426	2.065199	0.428635
O15	O	-0.113646	1.413018	-0.260116
O16	O	0.386354	1.913018	0.239884
O17	O	-0.348507	1.715542	-0.221719
O18	O	0.151493	2.215542	0.278281
O19	O	-0.113595	1.526930	-0.374038
O20	O	0.386405	2.026930	0.125962
O21	O	-0.247332	1.434790	-0.087917
O22	O	0.252668	1.934790	0.412083
O23	O	-0.292783	1.240778	-0.281911
O24	O	0.207217	1.740778	0.218089
O25	O	-0.428395	1.374531	-0.562701
O26	O	0.071605	1.874531	-0.062701
O27	O	-0.428462	1.224187	-0.412346
O28	O	0.071538	1.724187	0.087654
O29	O	-0.292665	1.505034	-0.546187
O30	O	0.207335	2.005034	-0.046187
O31	O	-0.527644	1.543303	-0.243514
O32	O	-0.027644	2.043303	0.256486
O33	O	-0.562081	1.396303	-0.390501
O34	O	-0.062081	1.896303	0.109499
C35	C	-0.365717	1.193946	-0.352013
C36	C	0.134283	1.693946	0.147987
C37	C	-0.381348	1.075894	-0.366999
C38	C	0.118652	1.575894	0.133001
C39	C	-0.579862	1.469815	-0.317021
C40	C	-0.079862	1.969815	0.182979
C41	C	-0.687070	1.469876	-0.317036
C42	C	-0.187070	1.969876	0.182964
C43	C	-0.321111	1.031430	-0.309247
C44	C	0.178889	1.531430	0.190753
C45	C	-0.337265	0.909417	-0.324735
C46	C	0.162735	1.409417	0.175265
C47	C	-0.883359	1.469979	-0.317088
C48	C	-0.383359	1.969979	0.182912
C49	C	-0.774131	1.469918	-0.317062
C50	C	-0.274131	1.969918	0.182938
C51	C	-0.077641	1.469988	-0.317083
C52	C	0.422359	1.969988	0.182917
C53	C	0.029576	1.470031	-0.317100
C54	C	0.529576	1.970031	0.182900
C55	C	-0.365751	1.434759	-0.594057
C56	C	0.134249	1.934759	-0.094057
C57	C	-0.381309	1.419789	-0.712104
C58	C	0.118691	1.919789	-0.212104
C59	C	-0.292624	1.746908	-0.281935
C60	C	0.207376	2.246908	0.218065
C61	C	-0.277020	1.864957	-0.266975
C62	C	0.222980	2.364957	0.233025
C63	C	-0.321089	1.477685	-0.756562
C64	C	0.178911	1.977685	-0.256562
C65	C	-0.337168	1.462214	-0.878570
C66	C	0.162832	1.962214	-0.378570
C67	C	-0.292796	1.504943	-0.041098
C68	C	0.207204	2.004943	0.458902
C69	C	-0.276939	1.520118	0.076975
C70	C	0.223061	2.020118	0.576975
H71	H	-0.257585	1.083694	-0.248334
H72	H	0.242415	1.583694	0.251666
H73	H	-0.213488	0.917216	-0.206058
H74	H	0.286512	1.417216	0.293942
H75	H	-0.444763	1.358761	-0.764368
H76	H	0.055237	1.858761	-0.264368
H77	H	-0.400627	1.401182	-0.930831
H78	H	0.099373	1.901182	-0.430831
H79	H	-0.444880	1.023631	-0.427905
H80	H	0.055120	1.523631	0.072095
H81	H	-0.400801	0.857158	-0.385645
H82	H	0.099199	1.357158	0.114355
H83	H	-0.257626	1.538702	-0.704300
H84	H	0.242374	2.038702	-0.204300
H85	H	-0.213470	1.581138	-0.870767
H86	H	0.286530	2.081138	-0.370767
