data_functionalizedCrystal
_audit_creation_method	'MofGen! by Chris Wilmer'
_symmetry_space_group_name_H-M	'P1'
_symmetry_Int_Tables_number	1
_symmetry_cell_setting	triclinic
loop_
_symmetry_equiv_pos_as_xyz
  x,y,z
_cell_length_a	18.101398
_cell_length_b	18.101395
_cell_length_c	13.032268
_cell_angle_alpha	97.146252
_cell_angle_beta	97.172052
_cell_angle_gamma	90.026661
loop_
_atom_site_label
_atom_site_type_symbol
_atom_site_fract_x
_atom_site_fract_y
_atom_site_fract_z
Zn1	Zn	1.078937	-0.348041	-0.590614
Zn2	Zn	1.578937	0.151959	-0.090614
Zn3	Zn	1.094568	-0.456172	-0.415870
Zn4	Zn	1.594568	0.043828	0.084130
Zn5	Zn	0.970827	-0.332343	-0.415914
Zn6	Zn	1.470827	0.167657	0.084086
Zn7	Zn	0.955049	-0.471833	-0.590589
Zn8	Zn	1.455049	0.028167	-0.090589
O9	O	1.024845	-0.402097	-0.503247
O10	O	1.524845	0.097903	-0.003247
O11	O	1.184644	-0.362400	-0.567426
O12	O	1.684644	0.137600	-0.067426
O13	O	1.091299	-0.426622	-0.269643
O14	O	1.591299	0.073378	0.230357
O15	O	0.985230	-0.230795	-0.439117
O16	O	1.485230	0.269205	0.060883
O17	O	1.196128	-0.441844	-0.439043
O18	O	1.696128	0.058156	0.060957
O19	O	1.064657	-0.242328	-0.567469
O20	O	1.564657	0.257672	-0.067469
O21	O	1.000387	-0.335646	-0.269675
O22	O	1.500387	0.164354	0.230325
O23	O	0.865101	-0.350832	-0.439092
O24	O	1.365101	0.149168	0.060908
O25	O	0.958338	-0.468536	-0.736825
O26	O	1.458338	0.031464	-0.236825
O27	O	0.853508	-0.453314	-0.567425
O28	O	1.353508	0.046686	-0.067425
O29	O	1.049358	-0.377586	-0.736844
O30	O	1.549358	0.122414	-0.236844
O31	O	1.075999	-0.561880	-0.439018
O32	O	1.575999	-0.061880	0.060982
O33	O	0.973495	-0.573386	-0.567383
O34	O	1.473495	-0.073386	-0.067383
C35	C	0.832433	-0.402070	-0.503261
C36	C	1.332433	0.097930	-0.003261
C37	C	0.750117	-0.402078	-0.503292
C38	C	1.250117	0.097922	-0.003292
C39	C	0.451030	-0.402118	-0.503249
C40	C	0.951030	0.097882	-0.003249
C41	C	0.475122	-0.466838	-0.583594
C42	C	0.975122	0.033162	-0.083594
C43	C	0.560710	-0.466687	-0.583924
C44	C	1.060710	0.033313	-0.083924
C45	C	0.599410	-0.402098	-0.503270
C46	C	1.099410	0.097902	-0.003270
C47	C	0.565646	-0.326803	-0.533362
C48	C	1.065646	0.173197	-0.033362
C49	C	0.479949	-0.327199	-0.533933
C50	C	0.979949	0.172801	-0.033933
C51	C	0.492539	-0.411988	-0.392618
C52	C	0.992539	0.088012	0.107382
C53	C	0.578136	-0.413753	-0.393209
C54	C	1.078136	0.086247	0.106791
C55	C	0.683269	-0.402083	-0.503281
C56	C	1.183269	0.097917	-0.003281
C57	C	0.367171	-0.402128	-0.503241
C58	C	0.867171	0.097872	-0.003241
C59	C	1.024749	-0.594505	-0.503216
C60	C	1.524749	-0.094505	-0.003216
C61	C	1.024772	-0.676821	-0.503238
C62	C	1.524772	-0.176821	-0.003238
C63	C	1.024930	-0.975917	-0.503294
C64	C	1.524930	-0.475917	-0.003294
C65	C	0.960552	-0.951880	-0.584258
C66	C	1.460552	-0.451880	-0.084258
C67	C	0.960303	-0.866240	-0.584005
C68	C	1.460303	-0.366240	-0.084005
C69	C	1.024852	-0.827532	-0.503267
C70	C	1.524852	-0.327532	-0.003267
C71	C	1.013639	-0.848777	-0.393139
C72	C	1.513639	-0.348777	0.106861
C73	C	1.013228	-0.934465	-0.393623
C74	C	1.513228	-0.434465	0.106377
C75	C	1.100733	-0.946803	-0.531489
C76	C	1.600733	-0.446803	-0.031489
C77	C	1.100054	-0.861369	-0.533904
C78	C	1.600054	-0.361369	-0.033904
C79	C	1.024809	-0.743671	-0.503245
C80	C	1.524809	-0.243671	-0.003245
C81	C	1.024971	-1.059778	-0.503309
C82	C	1.524971	-0.559778	-0.003309
C83	C	1.218008	-0.402126	-0.503233
C84	C	1.718008	0.097874	-0.003233
C85	C	1.300323	-0.402138	-0.503227
C86	C	1.800323	0.097862	-0.003227
C87	C	1.000344	-0.426559	-0.775811
C88	C	1.500344	0.073441	-0.275811
C89	C	0.989903	-0.436983	-0.891962
C90	C	1.489903	0.063017	-0.391962
C91	C	1.024960	-0.208940	-0.503300
C92	C	1.524960	0.291060	-0.003300
C93	C	1.025009	-0.126628	-0.503323
C94	C	1.525009	0.373372	-0.003323
C95	C	1.030283	-0.396630	-0.943755
C96	C	1.530283	0.103370	-0.443755
C97	C	1.019493	-0.407403	-1.063802
C98	C	1.519493	0.092597	-0.563802
C99	C	1.049294	-0.377678	-0.231743
C100	C	1.549294	0.122322	0.268257
C101	C	1.059878	-0.367045	-0.115593
C102	C	1.559878	0.132955	0.384407
H103	H	0.456186	-0.523192	-0.564945
H104	H	0.956186	-0.023192	-0.064945
Cl105	Cl	0.430566	-0.458180	-0.709415
Cl106	Cl	0.930566	0.041820	-0.209415
Cl107	Cl	0.595746	-0.553385	-0.554851
Cl108	Cl	1.095746	-0.053385	-0.054851
Cl109	Cl	0.953775	-0.473057	-1.132545
Cl110	Cl	1.453775	0.026943	-0.632545
Cl111	Cl	1.095975	-0.330958	-0.875008
Cl112	Cl	1.595975	0.169042	-0.375008
Cl113	Cl	0.462962	-0.494498	-0.350386
Cl114	Cl	0.962962	0.005502	0.149614
Cl115	Cl	1.125603	-0.301397	-1.046853
Cl116	Cl	1.625603	0.198603	-0.546853
Cl117	Cl	0.924189	-0.502634	-0.960708
Cl118	Cl	1.424189	-0.002634	-0.460708
Cl119	Cl	0.455733	-0.251049	-0.447529
Cl120	Cl	0.955733	0.248951	0.052471
Cl121	Cl	0.580974	-0.457821	-0.710480
Cl122	Cl	1.080974	0.042179	-0.210480
H123	H	1.059491	-0.822836	-0.331170
H124	H	1.559491	-0.322836	0.168830
H125	H	0.904496	-0.971804	-0.565819
H126	H	1.404496	-0.471804	-0.065819
Cl127	Cl	1.176801	-0.820720	-0.449500
Cl128	Cl	1.676801	-0.320720	0.050500
Cl129	Cl	1.119500	-0.991033	-0.653361
Cl130	Cl	1.619500	-0.491033	-0.153361
H131	H	0.452705	-0.317662	-0.614809
H132	H	0.952705	0.182338	-0.114809
H133	H	0.591115	-0.277705	-0.476668
H134	H	1.091115	0.222295	0.023332
H135	H	0.579907	-0.316883	-0.613359
H136	H	1.079907	0.183117	-0.113359
Cl137	Cl	0.969363	-0.994986	-0.710747
Cl138	Cl	1.469363	-0.494986	-0.210747
H139	H	0.958111	-0.952356	-0.369738
H140	H	1.458111	-0.452356	0.130262
H141	H	0.600484	-0.469110	-0.370514
H142	H	1.100484	0.030890	0.129486
H143	H	0.605216	-0.369244	-0.330131
H144	H	1.105216	0.130756	0.169869
Cl145	Cl	1.174600	-0.969900	-0.440462
Cl146	Cl	1.674600	-0.469900	0.059538
Cl147	Cl	0.469583	-0.339022	-0.300190
Cl148	Cl	0.969583	0.160978	0.199810
H149	H	0.966169	-0.852521	-0.665664
H150	H	1.466169	-0.352521	-0.165664
Cl151	Cl	0.873244	-0.832102	-0.555177
Cl152	Cl	1.373244	-0.332102	-0.055177
H153	H	0.959168	-0.825201	-0.368825
H154	H	1.459168	-0.325201	0.131175
H155	H	1.058621	-0.949575	-0.331243
H156	H	1.558621	-0.449575	0.168757
Cl157	Cl	1.113390	-0.841188	-0.659037
Cl158	Cl	1.613390	-0.341188	-0.159037
