data_functionalizedCrystal
_audit_creation_method	'MofGen! by Chris Wilmer'
_symmetry_space_group_name_H-M	'P1'
_symmetry_Int_Tables_number	1
_symmetry_cell_setting	triclinic
loop_
_symmetry_equiv_pos_as_xyz
  x,y,z
_cell_length_a	19.805407
_cell_length_b	19.805405
_cell_length_c	19.805398
_cell_angle_alpha	89.972363
_cell_angle_beta	90.017356
_cell_angle_gamma	89.974605
loop_
_atom_site_label
_atom_site_type_symbol
_atom_site_fract_x
_atom_site_fract_y
_atom_site_fract_z
Zn1	Zn	-1.034711	-0.269508	-0.382738
Zn2	Zn	-0.534711	0.230492	0.117262
Zn3	Zn	-1.034633	-0.382693	-0.269547
Zn4	Zn	-0.534633	0.117307	0.230453
Zn5	Zn	-0.921533	-0.269522	-0.269560
Zn6	Zn	-0.421533	0.230478	0.230440
Zn7	Zn	-0.921489	-0.382659	-0.382691
Zn8	Zn	-0.421489	0.117341	0.117309
O9	O	-0.978091	-0.326096	-0.326134
O10	O	-0.478091	0.173904	0.173866
O11	O	-1.129417	-0.284531	-0.367738
O12	O	-0.629417	0.215469	0.132262
O13	O	-1.019616	-0.367701	-0.174832
O14	O	-0.519616	0.132299	0.325168
O15	O	-0.936597	-0.174803	-0.284599
O16	O	-0.436597	0.325197	0.215401
O17	O	-1.129360	-0.367688	-0.284576
O18	O	-0.629360	0.132312	0.215424
O19	O	-1.019748	-0.174793	-0.367751
O20	O	-0.519748	0.325207	0.132249
O21	O	-0.936522	-0.284554	-0.174842
O22	O	-0.436522	0.215446	0.325158
O23	O	-0.826810	-0.284521	-0.284553
O24	O	-0.326810	0.215479	0.215447
O25	O	-0.936522	-0.367629	-0.477414
O26	O	-0.436522	0.132371	0.022586
O27	O	-0.826778	-0.367642	-0.367669
O28	O	-0.326778	0.132358	0.132331
O29	O	-1.019706	-0.284498	-0.477449
O30	O	-0.519706	0.215502	0.022551
O31	O	-1.019573	-0.477405	-0.284530
O32	O	-0.519573	0.022595	0.215470
O33	O	-0.936447	-0.477380	-0.367656
O34	O	-0.436447	0.022620	0.132344
C35	C	-0.802235	-0.326079	-0.326108
C36	C	-0.302235	0.173921	0.173892
C37	C	-0.727003	-0.326089	-0.326112
C38	C	-0.227003	0.173911	0.173888
C39	C	-0.691660	-0.369435	-0.369320
C40	C	-0.191660	0.130565	0.130680
C41	C	-0.620972	-0.369435	-0.369328
C42	C	-0.120972	0.130565	0.130672
C43	C	-0.585628	-0.326092	-0.326124
C44	C	-0.085628	0.173908	0.173876
C45	C	-0.620976	-0.282741	-0.282914
C46	C	-0.120976	0.217259	0.217086
C47	C	-0.691663	-0.282738	-0.282910
C48	C	-0.191663	0.217262	0.217090
C49	C	-0.335903	-0.282751	-0.282929
C50	C	0.164097	0.217249	0.217071
C51	C	-0.265211	-0.282759	-0.282935
C52	C	0.234789	0.217241	0.217065
C53	C	-0.265211	-0.369447	-0.369346
C54	C	0.234789	0.130553	0.130654
C55	C	-0.335899	-0.369445	-0.369343
C56	C	0.164101	0.130555	0.130657
C57	C	-0.371241	-0.326092	-0.326136
C58	C	0.128759	0.173908	0.173864
C59	C	-0.447889	-0.326091	-0.326129
C60	C	0.052111	0.173909	0.173871
C61	C	-0.508981	-0.326095	-0.326127
C62	C	-0.008981	0.173905	0.173873
C63	C	-0.978015	-0.501952	-0.326101
C64	C	-0.478015	-0.001952	0.173899
C65	C	-0.978045	-0.577184	-0.326110
C66	C	-0.478045	-0.077184	0.173890
C67	C	-0.154634	-0.326108	-0.326154
C68	C	0.345366	0.173892	0.173846
C69	C	-0.229866	-0.326102	-0.326146
C70	C	0.270134	0.173898	0.173854
C71	C	-1.021371	-0.612518	-0.282871
C72	C	-0.521371	-0.112518	0.217129
C73	C	-1.021399	-0.683207	-0.282886
C74	C	-0.521399	-0.183207	0.217114
C75	C	-0.978098	-0.718559	-0.326137
C76	C	-0.478098	-0.218559	0.173863
C77	C	-0.934770	-0.683219	-0.369380
C78	C	-0.434770	-0.183219	0.130620
C79	C	-0.934746	-0.612532	-0.369368
C80	C	-0.434746	-0.112532	0.130632
C81	C	-0.934870	-0.968292	-0.369430
C82	C	-0.434870	-0.468292	0.130570
C83	C	-0.934897	-1.038985	-0.369438
C84	C	-0.434897	-0.538985	0.130562
C85	C	-1.021524	-1.038967	-0.282949
C86	C	-0.521524	-0.538967	0.217051
C87	C	-1.021499	-0.968280	-0.282936
C88	C	-0.521499	-0.468280	0.217064
C89	C	-0.978174	-0.932946	-0.326182
C90	C	-0.478174	-0.432946	0.173818
C91	C	-0.978144	-0.856298	-0.326166
C92	C	-0.478144	-0.356298	0.173834
C93	C	-0.978124	-0.795206	-0.326150
C94	C	-0.478124	-0.295206	0.173850
C95	C	-0.978118	-0.326058	-0.502677
C96	C	-0.478118	0.173942	-0.002677
C97	C	-0.978129	-0.326042	-0.577909
C98	C	-0.478129	0.173958	-0.077909
C99	C	-0.978186	-0.149553	-0.326182
C100	C	-0.478186	0.350447	0.173818
C101	C	-0.978227	-0.074321	-0.326202
C102	C	-0.478227	0.425679	0.173798
C103	C	-1.021525	-0.282636	-1.039719
C104	C	-0.521525	0.217364	-0.539719
C105	C	-1.021514	-0.282657	-0.969031
C106	C	-0.521514	0.217343	-0.469031
C107	C	-0.978199	-0.325948	-0.933671
C108	C	-0.478199	0.174052	-0.433671
C109	C	-0.934896	-0.369226	-0.969003
C110	C	-0.434896	0.130774	-0.469003
C111	C	-0.934911	-0.369208	-1.039690
C112	C	-0.434911	0.130792	-0.539690
C113	C	-0.934837	-0.369300	-0.683929
C114	C	-0.434837	0.130700	-0.183929
C115	C	-0.934825	-0.369313	-0.613237
C116	C	-0.434825	0.130687	-0.113237
C117	C	-1.021441	-0.282748	-0.613270
C118	C	-0.521441	0.217252	-0.113270
C119	C	-1.021455	-0.282730	-0.683958
C120	C	-0.521455	0.217270	-0.183958
C121	C	-0.978155	-0.326010	-0.719283
C122	C	-0.478155	0.173990	-0.219283
C123	C	-0.978168	-0.325988	-0.795932
C124	C	-0.478168	0.174012	-0.295932
C125	C	-0.978182	-0.325967	-0.857024
C126	C	-0.478182	0.174033	-0.357024
C127	C	-0.978104	-0.326084	-0.150278
C128	C	-0.478104	0.173916	0.349722
C129	C	-0.978224	-0.325909	-0.075046
C130	C	-0.478224	0.174091	0.424954
H131	H	-0.364670	-0.247456	-0.247742
H132	H	0.135330	0.252544	0.252258
H133	H	-0.899466	-0.583763	-0.404578
H134	H	-0.399466	-0.083763	0.095422
H135	H	-1.056793	-0.247379	-1.068505
H136	H	-0.556793	0.252621	-0.568505
C137	C	-0.887267	-1.077874	-0.417020
C138	C	-0.387267	-0.577874	0.082980
C139	C	-0.916585	-1.126417	-0.470188
C140	C	-0.416585	-0.626417	0.029812
C141	C	-0.868957	-1.165307	-0.517766
C142	C	-0.368957	-0.665307	-0.017766
C143	C	-0.792011	-1.155654	-0.512178
C144	C	-0.292011	-0.655654	-0.012178
C145	C	-0.762689	-1.107109	-0.459008
C146	C	-0.262689	-0.607109	0.040992
C147	C	-0.810317	-1.068219	-0.411429
C148	C	-0.310317	-0.568219	0.088571
H149	H	-0.973548	-1.133564	-0.474327
H150	H	-0.473548	-0.633564	0.025673
H151	H	-0.890664	-1.201243	-0.557126
H152	H	-0.390664	-0.701243	-0.057126
H153	H	-0.756754	-1.184442	-0.547398
H154	H	-0.256754	-0.684442	-0.047398
H155	H	-0.705725	-1.099961	-0.454869
H156	H	-0.205725	-0.599961	0.045131
H157	H	-0.788610	-1.032283	-0.372069
H158	H	-0.288610	-0.532283	0.127931
H159	H	-0.899592	-0.939529	-0.404641
H160	H	-0.399592	-0.439529	0.095359
C161	C	-0.887140	-0.722106	-0.416958
C162	C	-0.387140	-0.222106	0.083042
C163	C	-0.834036	-0.770762	-0.387587
C164	C	-0.334036	-0.270762	0.112413
C165	C	-0.786404	-0.809648	-0.435165
C166	C	-0.286404	-0.309648	0.064835
C167	C	-0.791877	-0.799878	-0.512114
C168	C	-0.291877	-0.299878	-0.012114
C169	C	-0.844984	-0.751220	-0.541489
C170	C	-0.344984	-0.251220	-0.041489
C171	C	-0.892616	-0.712334	-0.493911
C172	C	-0.392616	-0.212334	0.006089
H173	H	-0.829983	-0.777996	-0.330621
H174	H	-0.329983	-0.277996	0.169379
H175	H	-0.747091	-0.845668	-0.413419
H176	H	-0.247091	-0.345668	0.086581
H177	H	-0.756617	-0.828664	-0.547335
H178	H	-0.256617	-0.328664	-0.047335
H179	H	-0.849037	-0.743985	-0.598455
H180	H	-0.349037	-0.243985	-0.098455
H181	H	-0.931929	-0.676314	-0.515657
H182	H	-0.431929	-0.176314	-0.015657
C183	C	-1.069145	-0.235054	-0.930171
C184	C	-0.569145	0.264946	-0.430171
C185	C	-1.116787	-0.187431	-0.969065
C186	C	-0.616787	0.312569	-0.469065
C187	C	-1.164421	-0.139827	-0.930206
C188	C	-0.664421	0.360173	-0.430206
C189	C	-1.164414	-0.139847	-0.852452
C190	C	-0.664414	0.360153	-0.352452
C191	C	-1.116770	-0.187472	-0.813554
C192	C	-0.616770	0.312528	-0.313554
C193	C	-1.069136	-0.235076	-0.852414
C194	C	-0.569136	0.264924	-0.352414
H195	H	-1.116794	-0.187414	-1.026626
H196	H	-0.616794	0.312586	-0.526626
H197	H	-1.199690	-0.104572	-0.959001
H198	H	-0.699690	0.395428	-0.459001
H199	H	-1.199676	-0.104608	-0.823686
H200	H	-0.699676	0.395392	-0.323686
H201	H	-1.116763	-0.187488	-0.755993
H202	H	-0.616763	0.312512	-0.255993
H203	H	-1.033866	-0.270331	-0.823618
H204	H	-0.533866	0.229669	-0.323618
C205	C	-0.887191	-0.416901	-0.722767
C206	C	-0.387191	0.083099	-0.222767
C207	C	-0.916474	-0.470049	-0.771349
C208	C	-0.416474	0.029951	-0.271349
C209	C	-0.868818	-0.517651	-0.810184
C210	C	-0.368818	-0.017651	-0.310184
C211	C	-0.791878	-0.512105	-0.800435
C212	C	-0.291878	-0.012105	-0.300435
C213	C	-0.762590	-0.458955	-0.751850
C214	C	-0.262590	0.041045	-0.251850
C215	C	-0.810247	-0.411353	-0.713016
C216	C	-0.310247	0.088647	-0.213016
H217	H	-0.973434	-0.474156	-0.778568
H218	H	-0.473434	0.025844	-0.278568
H219	H	-0.890499	-0.556997	-0.846149
H220	H	-0.390499	-0.056997	-0.346149
H221	H	-0.756600	-0.547344	-0.829182
H222	H	-0.256600	-0.047344	-0.329182
H223	H	-0.705631	-0.454848	-0.744632
H224	H	-0.205631	0.045152	-0.244632
H225	H	-0.788565	-0.372007	-0.677051
H226	H	-0.288565	0.127993	-0.177051
C227	C	-0.887283	-0.416814	-1.078552
C228	C	-0.387283	0.083186	-0.578552
C229	C	-0.839638	-0.464436	-1.039661
C230	C	-0.339638	0.035564	-0.539661
C231	C	-0.792014	-0.512048	-1.078523
C232	C	-0.292014	-0.012048	-0.578523
C233	C	-0.792034	-0.512037	-1.156276
C234	C	-0.292034	-0.012037	-0.656276
C235	C	-0.839680	-0.464413	-1.195172
C236	C	-0.339680	0.035587	-0.695172
C237	C	-0.887305	-0.416801	-1.156310
C238	C	-0.387305	0.083199	-0.656310
H239	H	-0.839622	-0.464446	-0.982099
H240	H	-0.339622	0.035554	-0.482099
H241	H	-0.756743	-0.547303	-1.049729
H242	H	-0.256743	-0.047303	-0.549729
H243	H	-0.756780	-0.547282	-1.185043
H244	H	-0.256780	-0.047282	-0.685043
H245	H	-0.839697	-0.464403	-1.252733
H246	H	-0.339697	0.035597	-0.752733
H247	H	-0.922575	-0.381546	-1.185104
H248	H	-0.422575	0.118454	-0.685104
H249	H	-0.720432	-0.404732	-0.404500
H250	H	-0.220432	0.095268	0.095500
C251	C	-1.069003	-0.573634	-0.235295
C252	C	-0.569003	-0.073634	0.264705
C253	C	-1.063538	-0.583409	-0.158346
C254	C	-0.563538	-0.083409	0.341654
C255	C	-1.111174	-0.544527	-0.110769
C256	C	-0.611174	-0.044527	0.389231
C257	C	-1.164276	-0.495868	-0.140142
C258	C	-0.664276	0.004132	0.359858
C259	C	-1.169744	-0.486091	-0.217095
C260	C	-0.669744	0.013909	0.282905
C261	C	-1.122107	-0.524974	-0.264671
C262	C	-0.622107	-0.024974	0.235329
H263	H	-1.024227	-0.619431	-0.136599
H264	H	-0.524227	-0.119431	0.363401
H265	H	-1.107126	-0.551765	-0.053803
H266	H	-0.607126	-0.051765	0.446197
H267	H	-1.199539	-0.467085	-0.104923
H268	H	-0.699539	0.032915	0.395077
H269	H	-1.209055	-0.450069	-0.238842
H270	H	-0.709055	0.049931	0.261158
H271	H	-1.126155	-0.517735	-0.321637
H272	H	-0.626155	-0.017735	0.178363
H273	H	-0.592199	-0.404732	-0.404511
H274	H	-0.092199	0.095268	0.095489
H275	H	-1.056724	-0.247475	-0.712744
H276	H	-0.556724	0.252525	-0.212744
C277	C	-1.069055	-0.722080	-0.235323
C278	C	-0.569055	-0.222080	0.264677
C279	C	-1.122195	-0.770611	-0.264712
C280	C	-0.622195	-0.270611	0.235288
C281	C	-1.169853	-0.809486	-0.217148
C282	C	-0.669853	-0.309486	0.282852
C283	C	-1.164372	-0.799829	-0.140195
C284	C	-0.664372	-0.299829	0.359805
C285	C	-1.111230	-0.751295	-0.110802
C286	C	-0.611230	-0.251295	0.389198
C287	C	-1.063572	-0.712420	-0.158366
C288	C	-0.563572	-0.212420	0.341634
H289	H	-1.126254	-0.777762	-0.321680
H290	H	-0.626254	-0.277762	0.178320
H291	H	-1.209192	-0.845414	-0.238907
H292	H	-0.709192	-0.345414	0.261093
H293	H	-1.199651	-0.828606	-0.104985
H294	H	-0.699651	-0.328606	0.395015
H295	H	-1.107170	-0.744144	-0.053834
H296	H	-0.607170	-0.244144	0.446166
H297	H	-1.024233	-0.676492	-0.136607
H298	H	-0.524233	-0.176492	0.363393
H299	H	-1.056757	-0.939499	-0.247716
H300	H	-0.556757	-0.439499	0.252284
H301	H	-0.364672	-0.404741	-0.404522
H302	H	0.135328	0.095259	0.095478
H303	H	-0.236436	-0.247459	-0.247753
H304	H	0.263564	0.252541	0.252247
C305	C	-0.582100	-0.235063	-0.235388
C306	C	-0.082100	0.264937	0.264612
C307	C	-0.504347	-0.235067	-0.235386
C308	C	-0.004347	0.264933	0.264614
C309	C	-0.465473	-0.187389	-0.187857
C310	C	0.034527	0.312611	0.312143
C311	C	-0.504351	-0.139708	-0.140330
C312	C	-0.004351	0.360292	0.359670
C313	C	-0.582109	-0.139703	-0.140330
C314	C	-0.082109	0.360297	0.359670
C315	C	-0.620983	-0.187380	-0.187859
C316	C	-0.120983	0.312620	0.312141
H317	H	-0.475563	-0.270365	-0.270570
H318	H	0.024437	0.229635	0.229430
H319	H	-0.407911	-0.187393	-0.187857
H320	H	0.092089	0.312607	0.312143
H321	H	-0.475574	-0.104414	-0.105146
H322	H	0.024426	0.395586	0.394854
H323	H	-0.610893	-0.104405	-0.105146
H324	H	-0.110893	0.395595	0.394854
H325	H	-0.678545	-0.187376	-0.187859
H326	H	-0.178545	0.312624	0.312141
H327	H	-1.056699	-0.247509	-0.584500
H328	H	-0.556699	0.252491	-0.084500
C329	C	-0.887178	-0.416940	-0.574340
C330	C	-0.387178	0.083060	-0.074340
C331	C	-0.810237	-0.411418	-0.584052
C332	C	-0.310237	0.088582	-0.084052
C333	C	-0.762593	-0.459042	-0.545155
C334	C	-0.262593	0.040958	-0.045155
C335	C	-0.791891	-0.512188	-0.496545
C336	C	-0.291891	-0.012188	0.003455
C337	C	-0.868836	-0.517713	-0.486830
C338	C	-0.368836	-0.017713	0.013170
C339	C	-0.916480	-0.470089	-0.525728
C340	C	-0.416480	0.029911	-0.025728
H341	H	-0.788546	-0.372074	-0.620038
H342	H	-0.288546	0.127926	-0.120038
H343	H	-0.705633	-0.454952	-0.552346
H344	H	-0.205633	0.045048	-0.052346
H345	H	-0.756622	-0.547442	-0.467751
H346	H	-0.256622	-0.047442	0.032249
H347	H	-0.890527	-0.557057	-0.450844
H348	H	-0.390527	-0.057057	0.049156
H349	H	-0.973440	-0.474179	-0.518536
H350	H	-0.473440	0.025821	-0.018536
C351	C	-0.730545	-0.235057	-0.235382
C352	C	-0.230545	0.264943	0.264618
C353	C	-0.720857	-0.158120	-0.241050
C354	C	-0.220857	0.341880	0.258950
C355	C	-0.759738	-0.110434	-0.193524
C356	C	-0.259738	0.389566	0.306476
C357	C	-0.808308	-0.139685	-0.140331
C358	C	-0.308308	0.360315	0.359669
C359	C	-0.817999	-0.216626	-0.134661
C360	C	-0.317999	0.283374	0.365339
C361	C	-0.779117	-0.264312	-0.182186
C362	C	-0.279117	0.235688	0.317814
H363	H	-0.684900	-0.136463	-0.280429
H364	H	-0.184900	0.363537	0.219571
H365	H	-0.752565	-0.053478	-0.197722
H366	H	-0.252565	0.446522	0.302278
H367	H	-0.837091	-0.104386	-0.105149
H368	H	-0.337091	0.395614	0.394851
H369	H	-0.853955	-0.238283	-0.095282
H370	H	-0.353955	0.261717	0.404718
H371	H	-0.786291	-0.321269	-0.177989
H372	H	-0.286291	0.178731	0.322011
H373	H	-0.236427	-0.404745	-0.404530
H374	H	0.263573	0.095255	0.095470
H375	H	-0.899631	-0.404478	-0.940207
H376	H	-0.399631	0.095522	-0.440207
C377	C	-1.069189	-1.077835	-0.235381
C378	C	-0.569189	-0.577835	0.264619
C379	C	-1.146127	-1.068045	-0.240972
C380	C	-0.646127	-0.568045	0.259028
C381	C	-1.193788	-1.106911	-0.193404
C382	C	-0.693788	-0.606911	0.306596
C383	C	-1.164512	-1.155566	-0.140245
C384	C	-0.664512	-0.655566	0.359755
C385	C	-1.087570	-1.165358	-0.134653
C386	C	-0.587570	-0.665358	0.365347
C387	C	-1.039909	-1.126493	-0.182221
C388	C	-0.539909	-0.626493	0.317779
H389	H	-1.167803	-1.032026	-0.280324
H390	H	-0.667803	-0.532026	0.219676
H391	H	-1.250746	-1.099662	-0.197544
H392	H	-0.750746	-0.599662	0.302456
H393	H	-1.199794	-1.184337	-0.105033
H394	H	-0.699794	-0.684337	0.394967
H395	H	-1.065895	-1.201378	-0.095300
H396	H	-0.565895	-0.701378	0.404700
H397	H	-0.982951	-1.133742	-0.178081
H398	H	-0.482951	-0.633742	0.321919
