data_functionalizedCrystal
_audit_creation_method	'MofGen! by Chris Wilmer'
_symmetry_space_group_name_H-M	'P1'
_symmetry_Int_Tables_number	1
_symmetry_cell_setting	triclinic
loop_
_symmetry_equiv_pos_as_xyz
  x,y,z
_cell_length_a	15.995350
_cell_length_b	9.065218
_cell_length_c	7.540329
_cell_angle_alpha	90.001757
_cell_angle_beta	89.999312
_cell_angle_gamma	84.254130
loop_
_atom_site_label
_atom_site_type_symbol
_atom_site_fract_x
_atom_site_fract_y
_atom_site_fract_z
O1	O	-1.112426	-0.190160	-0.147325
O2	O	-0.868829	-0.213643	-0.147360
O3	O	-0.995662	0.012860	-0.147338
O4	O	-0.985592	-0.416662	-0.147347
O5	O	-0.995655	0.012862	0.147627
O6	O	-0.868821	-0.213640	0.147605
O7	O	-1.112418	-0.190157	0.147640
Cu8	Cu	-0.990619	-0.201898	0.174555
Cu9	Cu	-0.990628	-0.201902	-0.174275
O10	O	-0.985585	-0.416660	0.147618
C11	C	-0.837623	-0.212670	0.000117
C12	C	-0.744650	-0.209760	0.000104
C13	C	-0.994691	0.067825	0.000141
C14	C	-0.991797	0.231600	0.000132
C15	C	-1.143624	-0.191129	0.000158
C16	C	-1.236597	-0.194040	0.000161
C17	C	-0.406824	-0.199308	0.000141
C18	C	-0.453034	-0.037997	0.000802
C19	C	-0.549747	-0.040908	0.000125
C20	C	-0.574423	-0.204492	0.000123
C21	C	-0.533944	-0.284058	-0.168311
C22	C	-0.437278	-0.280005	-0.168439
C23	C	-0.436955	-0.283335	0.166991
C24	C	-0.533900	-0.283297	0.169205
C25	C	-0.669143	-0.207431	0.000108
C26	C	-0.312103	-0.196374	0.000145
C27	C	-0.986556	-0.471625	0.000135
C28	C	-0.989450	-0.635400	0.000132
N29	N	-0.990619	-0.201895	0.419904
N30	N	-0.990635	-0.201893	-0.419624
H31	H	-0.434020	0.026484	0.121593
H32	H	-0.560773	-0.225215	0.293812
H33	H	-0.418532	-0.221985	-0.294347
C34	C	-0.395269	-0.444000	0.168548
H35	H	-0.413725	-0.494214	0.269661
H36	H	-0.335949	-0.443442	0.172881
H37	H	-0.410430	-0.493470	0.064053
H38	H	-0.405927	-0.398437	-0.176084
C39	C	-0.555866	-0.444455	0.182955
H40	H	-0.530577	-0.489299	0.286244
H41	H	-0.535457	-0.498256	0.081100
H42	H	-0.615119	-0.445233	0.190026
C43	C	-0.587511	0.043580	0.163230
H44	H	-0.543748	0.080003	0.230497
H45	H	-0.616293	-0.021439	0.234484
H46	H	-0.625780	0.124329	0.125327
C47	C	-0.586744	0.044131	-0.163274
H48	H	-0.542657	0.080580	-0.229508
H49	H	-0.625104	0.124866	-0.125723
H50	H	-0.615287	-0.020610	-0.235427
C51	C	-0.425911	0.048719	-0.161458
H52	H	-0.386549	-0.012959	-0.229608
H53	H	-0.400723	0.133640	-0.122722
H54	H	-0.473730	0.078947	-0.232172
C55	C	-0.571703	-0.209404	-0.337653
H56	H	-0.612125	-0.129759	-0.306069
H57	H	-0.597973	-0.279865	-0.405804
H58	H	-0.528299	-0.172498	-0.405545
C59	C	-0.554263	-0.446405	-0.176809
H60	H	-0.529186	-0.492420	-0.279639
H61	H	-0.613423	-0.449209	-0.181867
H62	H	-0.532701	-0.497751	-0.074166
C63	C	-0.408671	-0.212097	0.339463
H64	H	-0.378220	-0.130430	0.311321
H65	H	-0.373738	-0.283284	0.405223
H66	H	-0.456612	-0.178591	0.408230
