data_functionalizedCrystal
_audit_creation_method	'MofGen! by Chris Wilmer'
_symmetry_space_group_name_H-M	'P1'
_symmetry_Int_Tables_number	1
_symmetry_cell_setting	triclinic
loop_
_symmetry_equiv_pos_as_xyz
  x,y,z
_cell_length_a	18.101398
_cell_length_b	18.101395
_cell_length_c	12.759395
_cell_angle_alpha	90.011141
_cell_angle_beta	90.002853
_cell_angle_gamma	90.029256
loop_
_atom_site_label
_atom_site_type_symbol
_atom_site_fract_x
_atom_site_fract_y
_atom_site_fract_z
Zn1	Zn	1.132037	-0.294986	0.593926
Zn2	Zn	1.131958	-0.418799	0.418241
Zn3	Zn	1.008221	-0.294972	0.418270
Zn4	Zn	1.008147	-0.418786	0.593887
O5	O	1.070090	-0.356885	0.506081
O6	O	1.235659	-0.311421	0.570625
O7	O	1.115542	-0.402373	0.271224
O8	O	1.024709	-0.191341	0.441600
O9	O	1.235601	-0.402386	0.441550
O10	O	1.115677	-0.191351	0.570654
O11	O	1.024633	-0.311397	0.271245
O12	O	0.904578	-0.311385	0.441562
O13	O	1.024583	-0.402364	0.740913
O14	O	0.904524	-0.402350	0.570586
O15	O	1.115605	-0.311408	0.740942
O16	O	1.115470	-0.522430	0.441511
O17	O	1.024506	-0.522420	0.570558
C18	C	0.877680	-0.356865	0.506074
C19	C	0.795366	-0.356874	0.506095
C20	C	0.644657	-0.356888	0.506094
C21	C	0.613294	-0.414209	0.587147
C22	C	0.527676	-0.414441	0.586907
C23	C	0.496275	-0.356902	0.506094
C24	C	0.527343	-0.377707	0.395237
C25	C	0.612988	-0.378115	0.395706
C26	C	0.613132	-0.278619	0.534930
C27	C	0.527482	-0.279049	0.537371
C28	C	0.412415	-0.356908	0.506087
C29	C	0.728517	-0.356883	0.506093
C30	C	1.069991	-0.549296	0.506050
C31	C	1.070017	-0.631610	0.506072
C32	C	1.070179	-0.930701	0.506129
C33	C	1.013080	-0.899401	0.587522
C34	C	1.012809	-0.813783	0.587268
C35	C	1.070099	-0.782319	0.506101
C36	C	1.048985	-0.813447	0.395377
C37	C	1.048617	-0.899092	0.395864
C38	C	1.148517	-0.899053	0.534484
C39	C	1.148056	-0.813402	0.536912
C40	C	1.070054	-0.698459	0.506079
C41	C	1.070222	-1.014560	0.506143
C42	C	1.263252	-0.356906	0.506089
C43	C	1.345566	-0.356915	0.506092
C44	C	1.070095	-0.356886	0.780114
C45	C	1.070096	-0.356886	0.896891
C46	C	1.070210	-0.163724	0.506135
C47	C	1.070261	-0.081409	0.506158
C48	C	1.164884	-0.262180	0.896941
C49	C	1.212277	-0.214831	0.951827
C50	C	1.212274	-0.214833	1.061549
C51	C	1.164871	-0.262189	1.116387
C52	C	1.117478	-0.309538	1.061501
C53	C	1.117487	-0.309532	0.951777
C54	C	1.022688	-0.404239	1.061451
C55	C	1.022693	-0.404241	0.951729
C56	C	0.975285	-0.451594	1.116289
C57	C	0.927894	-0.498948	1.061403
C58	C	0.927899	-0.498944	0.951675
C59	C	0.975300	-0.451591	0.896843
C60	C	1.070081	-0.356899	1.233113
C61	C	1.070081	-0.356889	1.116337
H62	H	0.633736	-0.338148	0.333243
H63	H	0.632934	-0.435318	0.371334
H64	H	1.026017	-0.792735	0.669369
H65	H	1.164867	-0.262180	1.205728
Br66	Br	0.975316	-0.451587	0.747934
Br67	Br	1.034870	-0.933677	0.724813
Br68	Br	0.916026	-0.779726	0.555972
H69	H	1.167770	-0.920617	0.613848
Br70	Br	0.493450	-0.310254	0.291811
H71	H	0.991353	-0.919129	0.371843
Br72	Br	1.222717	-0.777692	0.445314
Br73	Br	0.492660	-0.392815	0.723888
H74	H	0.975283	-0.451589	1.205630
H75	H	1.163978	-0.793056	0.618399
H76	H	0.505867	-0.434286	0.370450
H77	H	1.088402	-0.919799	0.333152
H78	H	0.955367	-0.920982	0.568977
Br79	Br	0.647667	-0.392856	0.724553
Br80	Br	1.276580	-0.150559	1.136041
H81	H	0.889298	-0.537497	1.106061
Br82	Br	0.863569	-0.563202	0.877196
H83	H	0.634747	-0.259607	0.614404
H84	H	0.507178	-0.263353	0.618956
H85	H	0.506109	-0.234088	0.482687
Br86	Br	1.219425	-0.932801	0.435694
H87	H	0.634785	-0.471878	0.568247
Br88	Br	1.116121	-0.779482	0.291537
H89	H	0.633418	-0.235916	0.475901
H90	H	0.992328	-0.792056	0.370925
Br91	Br	0.493469	-0.511120	0.555056
H92	H	1.164897	-0.262181	0.807600
H93	H	1.250870	-0.176274	0.907166
