data_functionalizedCrystal
_audit_creation_method	'MofGen! by Chris Wilmer'
_symmetry_space_group_name_H-M	'P1'
_symmetry_Int_Tables_number	1
_symmetry_cell_setting	triclinic
loop_
_symmetry_equiv_pos_as_xyz
  x,y,z
_cell_length_a	18.101398
_cell_length_b	13.032868
_cell_length_c	13.032268
_cell_angle_alpha	76.714099
_cell_angle_beta	97.157621
_cell_angle_gamma	82.791775
loop_
_atom_site_label
_atom_site_type_symbol
_atom_site_fract_x
_atom_site_fract_y
_atom_site_fract_z
Zn1	Zn	1.028279	0.499221	-0.654349
Zn2	Zn	1.028184	0.654305	-0.499289
Zn3	Zn	0.922457	0.476702	-0.476752
Zn4	Zn	0.886392	0.676759	-0.676807
O5	O	0.966328	0.576747	-0.576799
O6	O	1.131894	0.519821	-0.633813
O7	O	1.029212	0.611924	-0.347683
O8	O	0.951627	0.331061	-0.481480
O9	O	1.131824	0.633760	-0.519892
O10	O	1.029375	0.347607	-0.611959
O11	O	0.951535	0.481439	-0.331125
O12	O	0.814045	0.503212	-0.503257
O13	O	0.890161	0.672030	-0.822444
O14	O	0.787549	0.650193	-0.650236
O15	O	0.994404	0.541594	-0.805944
O16	O	0.994242	0.805911	-0.541668
O17	O	0.890068	0.822408	-0.672090
C18	C	0.773927	0.576696	-0.576738
C19	C	0.691613	0.576704	-0.576741
C20	C	0.938249	0.852700	-0.611785
C21	C	0.926301	0.970758	-0.626787
C22	C	0.938270	0.611828	-0.853806
C23	C	0.926314	0.626778	-0.971850
C24	C	0.392506	0.576781	-0.576838
C25	C	0.440478	0.483945	-0.484711
C26	C	0.526109	0.484123	-0.484391
C27	C	0.540896	0.576742	-0.576790
C28	C	0.501535	0.684746	-0.560408
C29	C	0.415994	0.684216	-0.559782
C30	C	0.415596	0.562610	-0.685663
C31	C	0.501562	0.560041	-0.684733
C32	C	0.624759	0.576727	-0.576765
C33	C	0.308642	0.576804	-0.576862
C34	C	1.159480	0.576798	-0.576861
C35	C	1.241789	0.576820	-0.576887
C36	C	0.972552	1.015201	-0.568994
C37	C	0.960204	1.137221	-0.584498
C38	C	0.994511	1.299718	-0.541689
C39	C	1.006462	1.181660	-0.526697
C40	C	0.972561	0.568906	-1.016314
C41	C	0.960204	0.584356	-1.138319
C42	C	0.994327	0.541725	-0.300860
C43	C	1.006458	0.526476	-0.182779
H44	H	0.553618	0.403588	-0.493030
H45	H	0.911455	0.645338	-1.190571
H46	H	1.055200	0.465481	-1.130527
F47	F	0.862600	0.706486	-1.040147
F48	F	1.036263	0.946867	-0.489323
F49	F	0.896497	1.205553	-0.664185
F50	F	0.397540	0.702104	-0.456349
H51	H	0.426423	0.403130	-0.493107
H52	H	1.055207	1.129381	-0.465740
F53	F	0.513652	0.643470	-0.777762
F54	F	0.862597	1.039094	-0.706470
H55	H	0.383058	0.754964	-0.624729
F56	F	0.420822	0.494485	-0.379533
H57	H	1.021300	0.507918	-0.964058
H58	H	0.553110	0.492351	-0.403465
H59	H	0.509656	0.755153	-0.626032
H60	H	0.528712	0.698965	-0.482216
F61	F	0.394341	0.462437	-0.708706
H62	H	0.383074	0.630402	-0.754131
F63	F	0.536015	0.456256	-0.701227
