data_functionalizedCrystal
_audit_creation_method	'MofGen! by Chris Wilmer'
_symmetry_space_group_name_H-M	'P1'
_symmetry_Int_Tables_number	1
_symmetry_cell_setting	triclinic
loop_
_symmetry_equiv_pos_as_xyz
  x,y,z
_cell_length_a	16.109318
_cell_length_b	8.597304
_cell_length_c	15.186229
_cell_angle_alpha	82.296375
_cell_angle_beta	90.000224
_cell_angle_gamma	84.406681
loop_
_atom_site_label
_atom_site_type_symbol
_atom_site_fract_x
_atom_site_fract_y
_atom_site_fract_z
O1	O	1.104792	0.201860	-0.088467
O2	O	0.862939	0.226937	-0.090387
O3	O	0.988625	-0.014070	-0.072091
O4	O	0.979106	0.442867	-0.106763
O5	O	0.988616	-0.014074	0.074367
O6	O	0.862931	0.226933	0.056071
O7	O	1.104783	0.201857	0.057991
Zn8	Zn	0.983856	0.214394	0.080284
Zn9	Zn	0.983867	0.214399	-0.112680
O10	O	0.979097	0.442864	0.039695
C11	C	0.831952	0.225914	-0.017083
C12	C	0.739632	0.222855	-0.016857
C13	C	0.987598	-0.072543	0.005573
C14	C	0.984542	-0.246769	0.018787
C15	C	0.440481	0.212975	-0.095926
C16	C	0.527226	0.215839	-0.096149
C17	C	0.527235	0.215814	0.063529
C18	C	0.440493	0.212938	0.063752
C19	C	0.397117	0.211527	-0.015979
C20	C	0.570605	0.217267	-0.016425
C21	C	0.664658	0.220372	-0.016665
C22	C	0.303059	0.208418	-0.015738
C23	C	1.135770	0.202879	-0.015315
C24	C	1.228090	0.205939	-0.015546
C25	C	0.980124	0.501336	-0.037971
C26	C	0.983181	0.675562	-0.051190
N27	N	0.983854	0.214390	0.211977
N28	N	0.983875	0.214390	-0.244372
C29	C	1.039527	0.107708	0.445799
C30	C	1.039530	0.107705	0.537989
C31	C	0.928196	0.321077	0.521800
C32	C	0.928190	0.321072	0.429612
C33	C	0.983860	0.214390	0.391614
C34	C	0.983869	0.214391	0.575991
C35	C	0.983871	0.214388	0.675948
C36	C	0.983857	0.214390	0.291651
H37	H	0.405168	0.211823	-0.160848
Cl38	Cl	0.385974	0.211114	0.164265
Cl39	Cl	0.581737	0.217653	-0.196658
H40	H	1.084858	0.020833	0.582104
Cl41	Cl	0.581769	0.217606	0.163755
Cl42	Cl	0.984993	-0.221321	-0.159308
Cl43	Cl	0.982717	-0.349888	0.126909
Cl44	Cl	1.109509	-0.026413	0.398034
Cl45	Cl	0.858217	0.455193	0.569573
H46	H	0.882855	0.407946	0.385491
