data_functionalizedCrystal
_audit_creation_method	'MofGen! by Chris Wilmer'
_symmetry_space_group_name_H-M	'P1'
_symmetry_Int_Tables_number	1
_symmetry_cell_setting	triclinic
loop_
_symmetry_equiv_pos_as_xyz
  x,y,z
_cell_length_a	14.853567
_cell_length_b	14.044220
_cell_length_c	13.330367
_cell_angle_alpha	89.994700
_cell_angle_beta	89.995418
_cell_angle_gamma	88.411904
loop_
_atom_site_label
_atom_site_type_symbol
_atom_site_fract_x
_atom_site_fract_y
_atom_site_fract_z
O1	O	1.206175	0.123767	-0.083357
O2	O	0.944883	0.138510	-0.083374
O3	O	1.071607	-0.006851	-0.083356
O4	O	1.079451	0.269128	-0.083375
O5	O	1.071587	-0.006854	0.083491
O6	O	0.944863	0.138507	0.083473
O7	O	1.206154	0.123764	0.083490
Cu8	Cu	1.075507	0.131135	0.098716
Cu9	Cu	1.075531	0.131139	-0.098600
O10	O	1.079431	0.269125	0.083472
C11	C	0.911231	0.137841	0.000047
C12	C	0.810989	0.135839	0.000041
C13	C	0.390944	0.041029	0.000070
C14	C	0.383345	0.213721	0.000057
C15	C	0.477528	0.215604	0.000054
C16	C	0.528423	0.130197	0.000057
C17	C	0.485135	0.042908	0.000064
C18	C	0.520822	0.302891	0.000037
C19	C	0.615011	0.304777	0.000032
C20	C	0.665908	0.219369	0.000043
C21	C	0.622615	0.132077	0.000051
C22	C	0.673510	0.046670	0.000054
C23	C	0.630218	-0.040623	0.000069
C24	C	0.536032	-0.042499	0.000074
C25	C	0.760094	0.221246	0.000038
C26	C	0.767702	0.048550	0.000048
C27	C	1.068163	-0.042172	0.000068
C28	C	1.057921	-0.147411	0.000069
C29	C	1.039197	-0.340097	0.000053
C30	C	1.111836	-0.397635	0.000055
C31	C	1.101418	-0.504852	0.000046
C32	C	1.049614	-0.232870	0.000062
C33	C	1.239806	0.124433	0.000067
C34	C	1.340048	0.126435	0.000067
C35	C	1.082874	0.304446	0.000046
C36	C	1.093116	0.409685	0.000039
N37	N	1.075496	0.131132	0.237498
N38	N	1.075548	0.131135	-0.237381
C39	C	1.019413	0.195480	0.710112
C40	C	1.131672	0.066791	0.710097
C41	C	1.131662	0.066788	0.605078
C42	C	1.075527	0.131133	0.552572
C43	C	1.019403	0.195481	0.605084
C44	C	1.187792	0.002448	0.552558
C45	C	1.187785	0.002443	0.447534
C46	C	1.131644	0.066784	0.395025
C47	C	1.075517	0.131134	0.447544
C48	C	1.019382	0.195479	0.395038
C49	C	0.963249	0.259825	0.447555
C50	C	0.963262	0.259822	0.552576
C51	C	1.131631	0.066787	0.290004
C52	C	1.019372	0.195480	0.290010
H53	H	0.500776	-0.113569	0.000110
H54	H	0.809134	-0.021000	0.000054
H55	H	0.355691	-0.030044	0.000086
C56	C	0.327363	0.307660	0.000055
H57	H	0.265069	0.294039	0.000066
H58	H	0.341238	0.343454	-0.058128
H59	H	0.341234	0.343440	0.058246
C60	C	0.901493	0.330567	0.610341
H61	H	0.868042	0.368874	0.564032
H62	H	0.937073	0.370105	0.651317
H63	H	0.861233	0.296352	0.651303
H64	H	0.479377	0.372424	0.000024
C65	C	1.193414	-0.003987	0.767846
H66	H	1.226840	-0.042307	0.721528
H67	H	1.157809	-0.043507	0.808828
H68	H	1.233698	0.030190	0.808801
C69	C	0.662628	0.400791	0.000020
H70	H	0.726011	0.389681	0.000012
H71	H	0.645626	0.435962	0.058199
H72	H	0.645633	0.435958	-0.058175
C73	C	1.249518	-0.068341	0.389774
H74	H	1.282946	-0.106667	0.436088
H75	H	1.289787	-0.034174	0.348787
H76	H	1.213898	-0.107871	0.348824
H77	H	1.233500	-0.049936	0.595312
H78	H	0.969191	-0.371358	0.000046
C79	C	1.206419	-0.355412	0.000073
H80	H	1.250625	-0.405614	0.000069
H81	H	1.213481	-0.317299	0.058260
H82	H	1.213505	-0.317283	-0.058113
H83	H	0.973656	0.247874	0.247266
C84	C	0.807715	0.317253	0.000018
H85	H	0.871099	0.306142	0.000010
H86	H	0.790715	0.352429	0.058194
H87	H	0.790721	0.352416	-0.058180
C88	C	0.901506	0.330601	0.389791
H89	H	0.909542	0.321380	0.319724
H90	H	0.916379	0.393890	0.406994
H91	H	0.840500	0.320182	0.407006
C92	C	0.957645	0.266233	0.767869
H93	H	0.924202	0.304541	0.721554
H94	H	0.993227	0.305768	0.808847
H95	H	0.917378	0.232026	0.808830
C96	C	0.686209	-0.134564	0.000073
H97	H	0.748502	-0.120936	0.000070
H98	H	0.672337	-0.170356	-0.058103
H99	H	0.672342	-0.170349	0.058271
C100	C	1.193368	-0.003984	0.232240
H101	H	1.226800	-0.042307	0.278552
H102	H	1.233633	0.030191	0.191255
H103	H	1.157754	-0.043517	0.191287
