data_functionalizedCrystal
_audit_creation_method	'MofGen! by Chris Wilmer'
_symmetry_space_group_name_H-M	'P1'
_symmetry_Int_Tables_number	1
_symmetry_cell_setting	triclinic
loop_
_symmetry_equiv_pos_as_xyz
  x,y,z
_cell_length_a	13.033808
_cell_length_b	13.032721
_cell_length_c	13.033109
_cell_angle_alpha	74.856674
_cell_angle_beta	90.924480
_cell_angle_gamma	103.361820
loop_
_atom_site_label
_atom_site_type_symbol
_atom_site_fract_x
_atom_site_fract_y
_atom_site_fract_z
Zn1	Zn	1.617320	-0.263549	0.419206
Zn2	Zn	2.117320	0.236451	0.919206
Zn3	Zn	1.577813	-0.424384	0.269891
Zn4	Zn	2.077813	0.075616	0.769891
Zn5	Zn	1.422870	-0.269360	0.269877
Zn6	Zn	1.922870	0.230640	0.769877
Zn7	Zn	1.422834	-0.469433	0.469958
Zn8	Zn	1.922834	0.030567	0.969958
O9	O	1.510209	-0.356682	0.357233
O10	O	2.010209	0.143318	0.857233
O11	O	1.758316	-0.263600	0.378166
O12	O	2.258316	0.236400	0.878166
O13	O	1.540741	-0.387398	0.123665
O14	O	2.040741	0.112602	0.623665
O15	O	1.465213	-0.117548	0.268440
O16	O	1.965213	0.382452	0.768440
O17	O	1.729291	-0.381764	0.268464
O18	O	2.229291	0.118236	0.768464
O19	O	1.608074	-0.113279	0.378152
O20	O	2.108074	0.386721	0.878152
O21	O	1.426905	-0.273503	0.123655
O22	O	1.926905	0.226497	0.623655
O23	O	1.276628	-0.317185	0.317652
O24	O	1.776628	0.182815	0.817652
O25	O	1.465152	-0.458544	0.609449
O26	O	1.965152	0.041456	1.109449
O27	O	1.276602	-0.464178	0.464650
O28	O	1.776602	0.035822	0.964650
O29	O	1.608040	-0.307282	0.572162
O30	O	2.108040	0.192718	1.072162
O31	O	1.540706	-0.581401	0.317675
O32	O	2.040706	-0.081401	0.817675
O33	O	1.426844	-0.614498	0.464664
O34	O	1.926844	-0.114498	0.964664
C35	C	1.238697	-0.396201	0.396657
C36	C	1.738697	0.103799	0.896657
C37	C	1.122543	-0.413137	0.413552
C38	C	1.622543	0.086863	0.913552
C39	C	0.950715	-0.365367	0.365898
C40	C	1.450715	0.134633	0.865898
C41	C	1.070766	-0.347863	0.348434
C42	C	1.570766	0.152137	0.848434
C43	C	1.479515	-0.637111	0.396697
C44	C	1.979515	-0.137111	0.896697
C45	C	1.466483	-0.757070	0.413601
C46	C	1.966483	-0.257070	0.913601
C47	C	1.517071	-0.794139	0.348449
C48	C	2.017071	-0.294139	0.848449
C49	C	1.503604	-0.918122	0.365919
C50	C	2.003604	-0.418122	0.865919
C51	C	1.782781	-0.317009	0.317655
C52	C	2.282781	0.182991	0.817655
C53	C	1.898935	-0.300102	0.300789
C54	C	2.398935	0.199898	0.800789
C55	C	1.540999	-0.387290	0.629780
C56	C	2.040999	0.112710	1.129780
C57	C	1.554119	-0.400333	0.745923
C58	C	2.054119	0.099667	1.245923
C59	C	1.541055	-0.075155	0.317633
C60	C	2.041055	0.424845	0.817633
C61	C	1.554199	0.044814	0.300758
C62	C	2.054199	0.544814	0.800758
C63	C	1.479608	-0.326106	0.085726
C64	C	1.979608	0.173894	0.585726
C65	C	1.466723	-0.312729	-0.030489
C66	C	1.966723	0.187271	0.469511
C67	C	1.503645	-0.349795	0.797699
C68	C	2.003645	0.150205	1.297699
C69	C	1.517205	-0.363274	0.917739
C70	C	2.017205	0.136726	1.417739
H71	H	1.078002	-0.481977	0.482227
H72	H	1.578002	0.018023	0.982227
Br73	Br	1.144995	-0.233135	0.233959
Br74	Br	1.644995	0.266865	0.733959
Br75	Br	0.973168	-0.185379	0.186319
Br76	Br	1.473168	0.314621	0.686319
H77	H	1.450389	-0.296553	0.753157
H78	H	1.950389	0.203447	1.253157
H79	H	1.607369	-0.453581	0.790466
H80	H	2.107369	0.046419	1.290466
H81	H	0.906168	-0.434204	0.434567
H82	H	1.406168	0.065796	0.934567
Br83	Br	1.605891	-0.694056	0.233929
Br84	Br	2.105891	-0.194056	0.733929
H85	H	1.450324	-0.978172	0.434639
H86	H	1.950324	-0.478172	0.934639
Br87	Br	1.643021	-0.855108	0.186231
Br88	Br	2.143021	-0.355108	0.686231
H89	H	1.570458	-0.416526	0.962278
H90	H	2.070458	0.083474	1.462278
H91	H	1.413466	-0.259481	0.924975
H92	H	1.913466	0.240519	1.424975
H93	H	1.413207	-0.817123	0.482316
H94	H	1.913207	-0.317123	0.982316
