data_functionalizedCrystal
_audit_creation_method	'MofGen! by Chris Wilmer'
_symmetry_space_group_name_H-M	'P1'
_symmetry_Int_Tables_number	1
_symmetry_cell_setting	triclinic
loop_
_symmetry_equiv_pos_as_xyz
  x,y,z
_cell_length_a	12.811445
_cell_length_b	11.792254
_cell_length_c	11.295483
_cell_angle_alpha	85.876761
_cell_angle_beta	99.539261
_cell_angle_gamma	84.121730
loop_
_atom_site_label
_atom_site_type_symbol
_atom_site_fract_x
_atom_site_fract_y
_atom_site_fract_z
O1	O	1.411391	0.133589	0.251431
O2	O	1.103543	0.152758	0.218191
O3	O	1.264930	-0.022072	0.235608
O4	O	1.250004	0.308418	0.234014
O5	O	1.250755	-0.006740	0.036028
O6	O	1.089368	0.168090	0.018611
O7	O	1.397216	0.148921	0.051850
Cu8	Cu	1.241998	0.159905	0.017007
Cu9	Cu	1.258761	0.141773	0.253034
O10	O	1.235829	0.323750	0.034433
C11	C	1.057045	0.159819	0.114145
C12	C	0.939611	0.158001	0.101465
C13	C	0.734391	0.137890	0.295243
C14	C	0.624052	0.136182	0.283334
C15	C	0.608591	0.152885	0.065740
C16	C	0.718930	0.154593	0.077649
C17	C	0.781827	0.147093	0.192404
C18	C	0.892169	0.148793	0.204312
C19	C	0.876705	0.165504	-0.013282
C20	C	0.766366	0.163796	-0.025190
C21	C	1.256902	-0.056687	0.135717
C22	C	1.254088	-0.182671	0.135414
C23	C	1.251801	-0.284985	0.135171
C24	C	1.248943	-0.413343	0.134874
C25	C	1.443715	0.141860	0.155899
C26	C	1.561149	0.143677	0.168586
C27	C	1.243857	0.358365	0.134327
C28	C	1.246672	0.484349	0.134638
N29	N	1.230215	0.172658	-0.149001
C30	C	1.355373	0.037150	-0.384783
C31	C	1.346476	0.046795	-0.510407
C32	C	1.203520	0.201587	-0.525875
C33	C	1.212417	0.191942	-0.400251
C34	C	1.288347	0.109722	-0.329709
C35	C	1.297248	0.100083	-0.204083
C36	C	1.154287	0.254868	-0.219554
C37	C	1.145391	0.264513	-0.345177
N38	N	1.270553	0.129012	0.419043
H39	H	1.359077	0.033139	-0.146648
H40	H	0.715140	0.169906	-0.118621
O41	O	1.437239	-0.051542	-0.308681
H42	H	1.492981	-0.008333	-0.245840
H43	H	1.401054	-0.012301	-0.555244
H44	H	0.943378	0.142686	0.297752
O45	O	0.572888	0.126222	0.394251
H46	H	0.635167	0.121277	0.476044
H47	H	0.557361	0.159001	-0.027689
H48	H	1.141692	0.268521	-0.583327
O49	O	1.063503	0.353198	-0.421261
H50	H	1.068581	0.347721	-0.517869
O51	O	1.081980	0.333145	-0.160158
H52	H	1.100915	0.312623	-0.060952
O53	O	0.927868	0.175469	-0.124208
H54	H	0.865591	0.180401	-0.206000
O55	O	0.802241	0.129799	0.419005
H56	H	0.750718	0.123115	0.488518
