data_functionalizedCrystal
_audit_creation_method	'MofGen! by Chris Wilmer'
_symmetry_space_group_name_H-M	'P1'
_symmetry_Int_Tables_number	1
_symmetry_cell_setting	triclinic
loop_
_symmetry_equiv_pos_as_xyz
  x,y,z
_cell_length_a	15.944551
_cell_length_b	27.732048
_cell_length_c	14.421503
_cell_angle_alpha	89.999321
_cell_angle_beta	89.996859
_cell_angle_gamma	83.070697
loop_
_atom_site_label
_atom_site_type_symbol
_atom_site_fract_x
_atom_site_fract_y
_atom_site_fract_z
O1	O	1.113714	0.062334	-0.077025
O2	O	0.869064	0.070020	-0.077050
O3	O	0.998987	-0.004187	-0.077019
O4	O	0.983791	0.136540	-0.077056
O5	O	0.998966	-0.004176	0.077204
O6	O	0.869042	0.070031	0.077174
O7	O	1.113693	0.062345	0.077198
Cu8	Cu	0.991366	0.066189	0.091268
Cu9	Cu	0.991391	0.066176	-0.091119
O10	O	0.983769	0.136552	0.077168
C11	C	0.837763	0.069706	0.000059
C12	C	0.744530	0.068749	0.000051
C13	C	0.530305	0.020466	0.000081
C14	C	0.469002	0.042882	-0.075965
C15	C	0.573827	0.067019	0.000062
C16	C	0.469003	0.042904	0.076087
C17	C	0.408936	0.065344	0.000077
C18	C	0.513752	0.089447	-0.076047
C19	C	0.513759	0.089463	0.076074
C20	C	0.452474	0.111912	0.000009
C21	C	0.668816	0.067983	0.000053
C22	C	0.313947	0.064384	0.000080
C23	C	0.998658	-0.022190	0.000095
C24	C	0.997697	-0.075849	0.000103
C25	C	1.068426	-0.414358	0.000062
C26	C	1.064862	-0.616033	0.000049
O27	O	1.129539	-0.647008	0.000015
N28	N	0.987823	-0.635490	0.000042
C29	C	0.911669	-0.604525	0.000032
O30	O	0.846061	-0.625703	0.000017
C31	C	0.915234	-0.402851	0.000039
C32	C	0.992278	-0.383397	0.000055
C33	C	1.145464	-0.394903	0.000077
C34	C	1.146354	-0.344487	0.000086
C35	C	1.070206	-0.313526	0.000079
C36	C	0.993168	-0.332981	0.000064
C37	C	0.839081	-0.371887	0.000023
C38	C	0.839979	-0.321466	0.000022
C39	C	0.917024	-0.302012	0.000038
C40	C	0.917911	-0.251604	0.000065
N41	N	0.994950	-0.232147	0.000072
C42	C	1.071098	-0.263108	0.000079
C43	C	0.909803	-0.710408	0.000031
C44	C	0.908912	-0.760826	0.000031
C45	C	1.062105	-0.772330	0.000045
C46	C	1.062995	-0.721911	0.000052
C47	C	0.986842	-0.690950	0.000038
C48	C	1.072961	-0.157231	0.000097
C49	C	1.073845	-0.106810	0.000109
C50	C	0.920652	-0.095310	0.000090
C51	C	0.919768	-0.145727	0.000083
C52	C	0.995930	-0.176686	0.000083
O53	O	0.853269	-0.220600	0.000089
O54	O	1.136697	-0.241921	0.000074
C55	C	1.067536	-0.464774	0.000054
C56	C	0.990498	-0.484228	0.000039
C57	C	0.914350	-0.453268	0.000032
C58	C	0.989607	-0.534647	0.000039
C59	C	1.065754	-0.565608	0.000045
C60	C	1.142794	-0.546150	0.000052
C61	C	1.143684	-0.495734	0.000061
C62	C	0.837311	-0.472725	0.000025
C63	C	0.836427	-0.523141	0.000018
C64	C	0.912575	-0.554102	0.000024
C65	C	1.144993	0.062658	0.000087
C66	C	1.238227	0.063615	0.000090
C67	C	0.984099	0.154554	0.000051
C68	C	0.985059	0.208213	0.000038
N69	N	0.991354	0.066198	0.219549
N70	N	0.991409	0.066163	-0.219401
C71	C	0.931267	0.100495	0.469189
C72	C	1.007044	0.109880	0.530996
C73	C	0.991374	0.066186	0.408710
C74	C	0.915616	0.056813	0.530997
C75	C	0.991387	0.066176	0.591432
C76	C	1.067190	0.075592	0.469157
C77	C	0.975712	0.022507	0.469153
C78	C	1.051545	0.031872	0.530932
C79	C	0.991366	0.066193	0.303449
C80	C	0.991405	0.066169	0.696691
H81	H	0.533624	0.109141	0.140358
C82	C	0.862669	0.139720	0.432552
C83	C	0.887355	0.180801	0.370129
C84	C	0.818762	0.220026	0.333491
C85	C	0.725483	0.218170	0.359277
C86	C	0.700792	0.177088	0.421703
C87	C	0.769385	0.137863	0.458341
H88	H	0.956410	0.182176	0.351039
H89	H	0.837040	0.250438	0.287279
H90	H	0.674706	0.247207	0.332155
H91	H	0.631737	0.175713	0.440793
H92	H	0.751106	0.107451	0.504553
H93	H	0.962429	-0.014416	0.441967
C94	C	0.575990	-0.031733	-0.000002
C95	C	0.635459	-0.049293	0.080459
C96	C	0.681145	-0.101491	0.080372
C97	C	0.667362	-0.136129	-0.000177
C98	C	0.607890	-0.118569	-0.080644
C99	C	0.562204	-0.066372	-0.080556
H100	H	0.645665	-0.023651	0.140092
H101	H	0.725170	-0.114489	0.139939
H102	H	0.701182	-0.174768	-0.000242
H103	H	0.597685	-0.144211	-0.140276
H104	H	0.518179	-0.053373	-0.140124
C105	C	0.442146	0.016238	-0.162736
C106	C	0.509146	-0.005030	-0.233260
C107	C	0.482275	-0.031696	-0.319996
C108	C	0.388403	-0.037094	-0.336207
C109	C	0.321397	-0.015825	-0.265682
C110	C	0.348268	0.010841	-0.178946
H111	H	0.578640	-0.001035	-0.221261
H112	H	0.531878	-0.047441	-0.372203
H113	H	0.368511	-0.056833	-0.400414
H114	H	0.251902	-0.019820	-0.277681
H115	H	0.298665	0.026586	-0.126739
H116	H	0.773684	-0.538976	0.000013
H117	H	0.851544	0.048890	0.558163
H118	H	0.775301	-0.447521	0.000017
H119	H	0.449165	0.023210	0.140376
H120	H	0.418809	0.150587	-0.000044
C121	C	1.153765	0.086360	0.432622
C122	C	1.187262	0.134493	0.457843
C123	C	1.273833	0.145263	0.421305
C124	C	1.326908	0.107900	0.359547
C125	C	1.293412	0.059763	0.334323
C126	C	1.206841	0.048993	0.370860
H127	H	1.147972	0.162154	0.503563
H128	H	1.298629	0.180897	0.439978
H129	H	1.390993	0.115872	0.332499
H130	H	1.332702	0.032102	0.288602
H131	H	1.182045	0.013359	0.352187
H132	H	0.533491	0.109118	-0.140408
H133	H	1.124107	-0.797547	0.000051
C134	C	1.158599	-0.085411	0.000122
C135	C	1.221658	-0.097097	0.080209
C136	C	1.306408	-0.075700	0.080219
C137	C	1.328100	-0.042619	0.000142
C138	C	1.265040	-0.030932	-0.079950
C139	C	1.180289	-0.052328	-0.079960
H140	H	1.205601	-0.121587	0.139491
H141	H	1.353090	-0.084352	0.139509
H142	H	1.390838	-0.026780	0.000150
H143	H	1.281096	-0.006442	-0.139233
H144	H	1.133608	-0.043677	-0.139251
C145	C	1.024959	0.159773	0.567703
C146	C	0.964769	0.205695	0.543345
C147	C	0.982677	0.255589	0.580047
C148	C	1.060775	0.259561	0.641108
C149	C	1.120970	0.213637	0.665469
C150	C	1.103062	0.163743	0.628767
H151	H	0.906952	0.202756	0.498141
H152	H	0.938117	0.289585	0.562013
H153	H	1.074032	0.296496	0.668277
H154	H	1.178787	0.216576	0.710673
H155	H	1.147622	0.129747	0.646801
H156	H	1.102436	0.002852	0.557872
H157	H	1.204796	-0.571368	0.000062
C158	C	1.156738	-0.191281	0.000105
C159	C	1.220030	-0.189091	0.080204
C160	C	1.303806	-0.223141	0.080220
C161	C	1.324289	-0.259382	0.000137
C162	C	1.260996	-0.261574	-0.079968
C163	C	1.177220	-0.227524	-0.079984
H164	H	1.204869	-0.162262	0.139492
H165	H	1.350660	-0.221518	0.139519
H166	H	1.386305	-0.284588	0.000149
H167	H	1.276157	-0.288403	-0.139256
H168	H	1.130366	-0.229146	-0.139283
H169	H	1.209091	-0.328652	0.000095
H170	H	1.207476	-0.420107	0.000079
C171	C	0.835018	-0.167126	0.000061
C172	C	0.813354	-0.200194	-0.080045
C173	C	0.728601	-0.221588	-0.080082
C174	C	0.665511	-0.209913	-0.000014
C175	C	0.687173	-0.176843	0.080098
C176	C	0.771926	-0.155450	0.080136
H177	H	0.860059	-0.208838	-0.139322
H178	H	0.712566	-0.246069	-0.139387
H179	H	0.602771	-0.225750	-0.000042
H180	H	0.640468	-0.168199	0.139375
H181	H	0.787961	-0.130969	0.139440
H182	H	1.125732	-0.706075	0.000065
C183	C	0.824161	-0.782221	0.000024
C184	C	0.761081	-0.770537	0.080099
C185	C	0.676327	-0.791930	0.080087
C186	C	0.654653	-0.825007	-0.000000
C187	C	0.717734	-0.836693	-0.080081
C188	C	0.802488	-0.815300	-0.080069
H189	H	0.777125	-0.746050	0.139390
H190	H	0.629631	-0.783279	0.139368
H191	H	0.591913	-0.840843	-0.000009
H192	H	0.701691	-0.861180	-0.139372
H193	H	0.849185	-0.823951	-0.139350
H194	H	0.776344	-0.387718	0.000004
H195	H	0.847786	-0.685203	0.000019
H196	H	0.777965	-0.296260	0.000009
H197	H	1.206421	-0.479900	0.000073
C198	C	0.836894	-0.061246	0.000075
C199	C	0.773601	-0.063428	-0.080025
C200	C	0.689842	-0.029362	-0.080050
C201	C	0.669377	0.006886	0.000026
C202	C	0.732672	0.009069	0.080133
C203	C	0.816430	-0.024997	0.080158
H204	H	0.788749	-0.090262	-0.139308
H205	H	0.642988	-0.030978	-0.139351
H206	H	0.607374	0.032103	0.000008
H207	H	0.717523	0.035902	0.139416
H208	H	0.863285	-0.023381	0.139458
