data_functionalizedCrystal
_audit_creation_method	'MofGen! by Chris Wilmer'
_symmetry_space_group_name_H-M	'P1'
_symmetry_Int_Tables_number	1
_symmetry_cell_setting	triclinic
loop_
_symmetry_equiv_pos_as_xyz
  x,y,z
_cell_length_a	12.594517
_cell_length_b	12.594516
_cell_length_c	12.594509
_cell_angle_alpha	90.024652
_cell_angle_beta	90.014600
_cell_angle_gamma	90.016010
loop_
_atom_site_label
_atom_site_type_symbol
_atom_site_fract_x
_atom_site_fract_y
_atom_site_fract_z
Zn1	Zn	1.627270	-0.423728	0.601676
Zn2	Zn	1.627160	-0.601733	0.423703
Zn3	Zn	1.449273	-0.423769	0.423726
Zn4	Zn	1.449256	-0.601664	0.601655
O5	O	1.538240	-0.512723	0.512690
O6	O	1.776201	-0.447352	0.578066
O7	O	1.603524	-0.578172	0.274761
O8	O	1.472938	-0.274818	0.447350
O9	O	1.776120	-0.578132	0.447311
O10	O	1.603711	-0.274787	0.578088
O11	O	1.472831	-0.447422	0.274777
O12	O	1.300325	-0.447355	0.447330
O13	O	1.472909	-0.578015	0.750604
O14	O	1.300313	-0.578055	0.578054
O15	O	1.603695	-0.447285	0.750619
O16	O	1.603507	-0.750670	0.447291
O17	O	1.472802	-0.750619	0.578031
C18	C	1.261699	-0.512703	0.512693
C19	C	1.143393	-0.512720	0.512719
C20	C	1.003401	-0.583936	0.583688
C21	C	1.074171	-0.609841	0.486547
C22	C	1.074195	-0.486862	0.609849
C23	C	1.003378	-0.538709	0.415495
C24	C	1.003396	-0.415686	0.538863
C25	C	1.074134	-0.441554	0.441655
C26	C	1.538170	-0.789264	0.512680
C27	C	1.538238	-0.907570	0.512711
C28	C	1.467140	-0.976834	0.583771
C29	C	1.441206	-1.047697	0.486651
C30	C	1.564268	-1.047506	0.609847
C31	C	1.512252	-0.976874	0.415539
C32	C	1.635360	-0.976677	0.538802
C33	C	1.609463	-1.047508	0.441615
C34	C	1.815861	-0.512745	0.512688
C35	C	1.934166	-0.512754	0.512687
C36	C	1.538312	-0.512638	0.790311
C37	C	1.538343	-0.512601	0.908617
C38	C	1.538339	-0.235103	0.512724
C39	C	1.538381	-0.116797	0.512738
C40	C	1.538229	-0.512732	0.236149
C41	C	1.538404	-0.512469	0.117844
C42	C	1.467254	-0.583616	1.048625
C43	C	1.441231	-0.486551	0.977823
C44	C	1.564318	-0.609656	0.977847
C45	C	1.512331	-0.415351	1.048600
C46	C	1.635464	-0.538522	1.048630
C47	C	1.609478	-0.441390	0.977860
H48	H	0.972402	-0.560694	0.333318
O49	O	1.343272	-0.460174	0.940838
C50	C	1.315369	-0.358472	0.978412
H51	H	1.362509	-0.340017	1.053469
H52	H	1.334199	-0.296677	0.915031
C53	C	1.137878	-0.378453	0.911497
C54	C	1.195769	-0.355789	1.003689
H55	H	1.064103	-0.376794	0.927084
H56	H	1.156678	-0.446970	0.886178
H57	H	1.153582	-0.326953	0.858688
H58	H	1.180076	-0.407295	1.056490
H59	H	1.176965	-0.287280	1.029016
H60	H	1.586264	-0.691792	0.946769
H61	H	0.972284	-0.333635	0.561024
O62	O	1.110784	-0.369712	0.369884
C63	C	1.024180	-0.320129	0.319175
H64	H	0.951339	-0.373596	0.324652
H65	H	1.006737	-0.241080	0.359701
C66	C	1.141003	-0.234854	0.194916
C67	C	1.051540	-0.300528	0.201635
H68	H	1.157880	-0.222759	0.122413
H69	H	1.199351	-0.268256	0.229081
H70	H	1.126455	-0.168988	0.228693
H71	H	1.066094	-0.366397	0.167870
H72	H	0.993195	-0.267137	0.167461
H73	H	1.105302	-0.464977	0.692004
H74	H	1.406908	-0.945801	0.643776
H75	H	1.359139	-1.078915	0.464605
O76	O	1.681382	-1.084360	0.370008
C77	C	1.758515	-1.145882	0.422872
H78	H	1.761655	-1.121891	0.510104
H79	H	1.736799	-1.233528	0.416403
C80	C	1.864010	-1.156563	0.264380
C81	C	1.867872	-1.127091	0.371518
H82	H	1.931466	-1.144977	0.232701
H83	H	1.812042	-1.115118	0.228763
H84	H	1.845909	-1.229600	0.259004
H85	H	1.885960	-1.054053	0.376892
H86	H	1.919846	-1.168523	0.407135
O87	O	0.966518	-0.655894	0.655224
C88	C	1.052960	-0.706934	0.704749
H89	H	1.125860	-0.701402	0.651403
H90	H	1.070430	-0.666720	0.783965
C91	C	0.935772	-0.831281	0.789422
C92	C	1.025307	-0.824494	0.723897
H93	H	0.918714	-0.903796	0.801239
H94	H	0.877533	-0.796893	0.756060
H95	H	0.950342	-0.797763	0.855428
H96	H	1.010731	-0.858000	0.657889
H97	H	1.083543	-0.858891	0.757249
H98	H	1.490198	-0.945977	0.333381
O99	O	1.733274	-0.939381	0.564964
C100	C	1.773530	-0.877814	0.480605
H101	H	1.732828	-0.902082	0.403462
H102	H	1.757601	-0.790209	0.496903
C103	C	1.943996	-0.866313	0.565393
C104	C	1.894011	-0.896126	0.470643
H105	H	2.018315	-0.877604	0.559250
H106	H	1.916874	-0.907788	0.622230
H107	H	1.930711	-0.793310	0.578965
H108	H	1.907286	-0.969130	0.457080
H109	H	1.921138	-0.854663	0.413803
O110	O	1.111392	-0.707742	0.460287
C111	C	1.174516	-0.747271	0.543856
H112	H	1.205571	-0.678227	0.593517
H113	H	1.124701	-0.801952	0.596009
C114	C	1.230668	-0.894656	0.436613
C115	C	1.268817	-0.809854	0.497602
H116	H	1.288835	-0.933264	0.408083
H117	H	1.188137	-0.868027	0.380312
H118	H	1.189155	-0.940212	0.480083
H119	H	1.310317	-0.764294	0.454128
H120	H	1.311357	-0.836477	0.553895
O121	O	1.590348	-1.084395	0.707913
C122	C	1.515087	-1.048407	0.782552
H123	H	1.474508	-0.973937	0.750972
H124	H	1.453135	-1.112937	0.796432
C125	C	1.621215	-1.113992	0.926780
C126	C	1.571383	-1.022520	0.887997
H127	H	1.655939	-1.098027	0.991825
H128	H	1.671919	-1.138241	0.876495
H129	H	1.569580	-1.167757	0.938338
H130	H	1.623019	-0.968761	0.876427
H131	H	1.520689	-0.998261	0.938283
H132	H	1.717548	-0.560538	1.079756
H133	H	1.407064	-0.643650	1.079697
O134	O	1.485850	-0.317403	1.085561
C135	C	1.393160	-0.324849	1.147871
H136	H	1.346878	-0.399024	1.124358
H137	H	1.415931	-0.329906	1.235336
C138	C	1.380512	-0.134850	1.158426
C139	C	1.323663	-0.225949	1.129540
H140	H	1.337644	-0.073843	1.147123
H141	H	1.442961	-0.129833	1.116450
H142	H	1.399485	-0.139079	1.231312
H143	H	1.304702	-0.221725	1.056653
H144	H	1.261208	-0.230963	1.171504
O145	O	1.681347	-0.369749	0.940963
C146	C	1.758432	-0.422587	0.879346
H147	H	1.761611	-0.509804	0.903301
H148	H	1.736630	-0.416177	0.791723
C149	C	1.863885	-0.264023	0.868619
C150	C	1.867797	-0.371144	0.898048
H151	H	1.931346	-0.232288	0.880151
H152	H	1.811950	-0.228423	0.910128
H153	H	1.845712	-0.258696	0.795602
H154	H	1.885956	-0.376469	0.971067
H155	H	1.919737	-0.406743	0.856551
