data_functionalizedCrystal
_audit_creation_method	'MofGen! by Chris Wilmer'
_symmetry_space_group_name_H-M	'P1'
_symmetry_Int_Tables_number	1
_symmetry_cell_setting	triclinic
loop_
_symmetry_equiv_pos_as_xyz
  x,y,z
_cell_length_a	19.805407
_cell_length_b	19.121063
_cell_length_c	19.805399
_cell_angle_alpha	92.411105
_cell_angle_beta	89.982197
_cell_angle_gamma	92.466276
loop_
_atom_site_label
_atom_site_type_symbol
_atom_site_fract_x
_atom_site_fract_y
_atom_site_fract_z
Zn1	Zn	1.023232	-0.279680	-0.394173
Zn2	Zn	1.356565	0.053653	-0.060840
Zn3	Zn	1.689898	0.386986	0.272493
Zn4	Zn	1.018315	-0.397133	-0.285808
Zn5	Zn	1.351649	-0.063799	0.047525
Zn6	Zn	1.684982	0.269534	0.380858
Zn7	Zn	0.910046	-0.279694	-0.281002
Zn8	Zn	1.243379	0.053639	0.052331
Zn9	Zn	1.576712	0.386972	0.385665
Zn10	Zn	0.905180	-0.397090	-0.398957
Zn11	Zn	1.238514	-0.063756	-0.065624
Zn12	Zn	1.571847	0.269577	0.267710
O13	O	0.964193	-0.338399	-0.339985
O14	O	1.297527	-0.005066	-0.006652
O15	O	1.630860	0.328267	0.326682
O16	O	1.117296	-0.295273	-0.379808
O17	O	1.450629	0.038061	-0.046475
O18	O	1.783962	0.371394	0.286859
O19	O	1.003932	-0.381578	-0.190455
O20	O	1.337265	-0.048245	0.142878
O21	O	1.670598	0.285089	0.476212
O22	O	0.929154	-0.181408	-0.292001
O23	O	1.262487	0.151925	0.041333
O24	O	1.595820	0.485259	0.374666
O25	O	1.113684	-0.381564	-0.300193
O26	O	1.447017	-0.048231	0.033141
O27	O	1.780350	0.285102	0.366474
O28	O	1.012311	-0.181398	-0.375147
O29	O	1.345644	0.151936	-0.041814
O30	O	1.678978	0.485269	0.291519
O31	O	0.924387	-0.295296	-0.186924
O32	O	1.257720	0.038037	0.146409
O33	O	1.591053	0.371370	0.479743
O34	O	0.814684	-0.295255	-0.296639
O35	O	1.148018	0.038078	0.036694
O36	O	1.481351	0.371412	0.370027
O37	O	0.920862	-0.381491	-0.493038
O38	O	1.254195	-0.048158	-0.159705
O39	O	1.587528	0.285175	0.173629
O40	O	0.811110	-0.381505	-0.383300
O41	O	1.144443	-0.048172	-0.049967
O42	O	1.477776	0.285162	0.283366
O43	O	1.007593	-0.295231	-0.489523
O44	O	1.340927	0.038102	-0.156190
O45	O	1.674260	0.371435	0.177143
O46	O	0.999214	-0.495411	-0.304831
O47	O	1.332548	-0.162078	0.028502
O48	O	1.665881	0.171255	0.361835
O49	O	0.916094	-0.495380	-0.387961
O50	O	1.249428	-0.162047	-0.054628
O51	O	1.582761	0.171287	0.278706
C52	C	0.788338	-0.338377	-0.339968
C53	C	1.121672	-0.005044	-0.006634
C54	C	1.455005	0.328289	0.326699
C55	C	0.713106	-0.338385	-0.339977
C56	C	1.046439	-0.005051	-0.006644
C57	C	1.379773	0.328282	0.326690
C58	C	0.679640	-0.293532	-0.381502
C59	C	1.012973	0.039801	-0.048168
C60	C	1.346307	0.373134	0.285165
C61	C	0.608951	-0.293536	-0.381505
C62	C	0.942285	0.039797	-0.048171
C63	C	1.275618	0.373131	0.285162
C64	C	0.571730	-0.338396	-0.339986
C65	C	0.905063	-0.005063	-0.006652
C66	C	1.238397	0.328270	0.326681
C67	C	0.605201	-0.383251	-0.298456
C68	C	0.938534	-0.049917	0.034877
C69	C	1.271867	0.283416	0.368210
C70	C	0.675888	-0.383243	-0.298450
C71	C	1.009222	-0.049910	0.034883
C72	C	1.342555	0.283424	0.368216
C73	C	0.320126	-0.383282	-0.298478
C74	C	0.653459	-0.049949	0.034855
C75	C	0.986793	0.283384	0.368188
C76	C	0.249434	-0.383288	-0.298489
C77	C	0.582767	-0.049955	0.034844
C78	C	0.916100	0.283379	0.368178
C79	C	0.253189	-0.293575	-0.381532
C80	C	0.586523	0.039758	-0.048199
C81	C	0.919856	0.373091	0.285134
C82	C	0.323877	-0.293567	-0.381527
C83	C	0.657210	0.039766	-0.048193
C84	C	0.990543	0.373099	0.285140
C85	C	0.357342	-0.338419	-0.339995
C86	C	0.690675	-0.005086	-0.006662
C87	C	1.024008	0.328248	0.326672
C88	C	0.433990	-0.338414	-0.339991
C89	C	0.767324	-0.005080	-0.006658
C90	C	1.100657	0.328253	0.326675
C91	C	0.495082	-0.338406	-0.339992
C92	C	0.828416	-0.005072	-0.006659
C93	C	1.161749	0.328261	0.326674
C94	C	0.956611	-0.520880	-0.347452
C95	C	1.289945	-0.187546	-0.014118
C96	C	1.623278	0.145787	0.319215
C97	C	0.953430	-0.598946	-0.350668
C98	C	1.286763	-0.265612	-0.017335
C99	C	1.620096	0.067721	0.315998
C100	C	0.995244	-0.635614	-0.308934
C101	C	1.328578	-0.302281	0.024399
C102	C	1.661911	0.031052	0.357732
C103	C	0.992256	-0.708966	-0.311964
C104	C	1.325589	-0.375632	0.021370
C105	C	1.658923	-0.042299	0.354703
C106	C	0.947449	-0.745647	-0.356724
C107	C	1.280782	-0.412314	-0.023391
C108	C	1.614116	-0.078980	0.309943
C109	C	0.905632	-0.708973	-0.398463
C110	C	1.238966	-0.375640	-0.065129
C111	C	1.572299	-0.042306	0.268204
C112	C	0.908625	-0.635623	-0.395436
C113	C	1.241958	-0.302290	-0.062103
C114	C	1.575291	0.031043	0.271230
C115	C	0.936251	-0.967116	-0.368029
C116	C	1.269584	-0.633783	-0.034695
C117	C	1.602917	-0.300450	0.298638
C118	C	0.933260	-1.040472	-0.371051
C119	C	1.266593	-0.707138	-0.037717
C120	C	1.599927	-0.373805	0.295616
C121	C	1.019885	-1.040459	-0.284552
C122	C	1.353218	-0.707126	0.048781
C123	C	1.686552	-0.373792	0.382115
C124	C	1.022870	-0.967108	-0.281527
C125	C	1.356204	-0.633774	0.051807
C126	C	1.689537	-0.300441	0.385140
C127	C	0.981056	-0.930440	-0.323268
C128	C	1.314390	-0.597107	0.010066
C129	C	1.647723	-0.263774	0.343399
C130	C	0.944392	-0.820624	-0.359820
C131	C	1.277725	-0.487290	-0.026487
C132	C	1.611058	-0.153957	0.306846
C133	C	0.984117	-0.855465	-0.320175
C134	C	1.317451	-0.522132	0.013159
C135	C	1.650784	-0.188798	0.346492
C136	C	1.140735	-0.338422	-0.340003
C137	C	1.474068	-0.005088	-0.006670
C138	C	1.807402	0.328245	0.326664
C139	C	1.215967	-0.338431	-0.340011
C140	C	1.549300	-0.005098	-0.006677
C141	C	1.882633	0.328235	0.326656
C142	C	0.964233	-0.338355	-0.516526
C143	C	1.297566	-0.005022	-0.183193
C144	C	1.630900	0.328312	0.150141
C145	C	0.964250	-0.338336	-0.591757
C146	C	1.297583	-0.005003	-0.258424
C147	C	1.630917	0.328331	0.074909
C148	C	0.971823	-0.155206	-0.332504
C149	C	1.305157	0.178127	0.000829
C150	C	1.638490	0.511461	0.334162
C151	C	0.975075	-0.077140	-0.329316
C152	C	1.308408	0.256193	0.004017
C153	C	1.641742	0.589527	0.337350
C154	C	1.009412	-0.293418	-0.625272
C155	C	1.342746	0.039915	-0.291939
C156	C	1.676079	0.373248	0.041394
C157	C	1.009420	-0.293398	-0.695960
C158	C	1.342753	0.039935	-0.362627
C159	C	1.676087	0.373269	-0.029293
C160	C	0.964268	-0.338299	-0.733131
C161	C	1.297602	-0.004966	-0.399798
C162	C	1.630935	0.328367	-0.066465
C163	C	0.919101	-0.383219	-0.699611
C164	C	1.252435	-0.049886	-0.366278
C165	C	1.585768	0.283447	-0.032945
C166	C	0.919091	-0.383236	-0.628925
C167	C	1.252424	-0.049902	-0.295592
C168	C	1.585757	0.283431	0.037742
C169	C	0.919142	-0.383154	-0.984682
C170	C	1.252475	-0.049821	-0.651349
C171	C	1.585809	0.283513	-0.318016
C172	C	0.919158	-0.383136	-1.055374
C173	C	1.252491	-0.049802	-0.722040
C174	C	1.585824	0.283531	-0.388707
C175	C	1.009472	-0.293316	-1.051717
C176	C	1.342805	0.040017	-0.718384
C177	C	1.676138	0.373351	-0.385051
C178	C	1.009461	-0.293332	-0.981031
C179	C	1.342794	0.040001	-0.647698
C180	C	1.676128	0.373334	-0.314364
C181	C	0.964292	-0.338249	-0.947517
C182	C	1.297625	-0.004916	-0.614184
C183	C	1.630958	0.328417	-0.280850
C184	C	0.964283	-0.338270	-0.870869
C185	C	1.297616	-0.004937	-0.537536
C186	C	1.630950	0.328397	-0.204203
C187	C	0.964280	-0.338283	-0.809778
C188	C	1.297613	-0.004950	-0.476445
C189	C	1.630947	0.328384	-0.143111
C190	C	0.964195	-0.338393	-0.164129
C191	C	1.297528	-0.005059	0.169204
C192	C	1.630861	0.328274	0.502538
C193	C	0.964317	-0.338214	-0.088890
C194	C	1.297650	-0.004880	0.244443
C195	C	1.630984	0.328453	0.577777
H196	H	0.581706	-0.257014	-0.415320
H197	H	0.915040	0.076320	-0.081986
H198	H	1.248373	0.409653	0.251347
C199	C	0.869453	-0.432562	-0.947826
C200	C	1.202786	-0.099228	-0.614493
C201	C	1.536119	0.234105	-0.281159
N202	N	0.832023	-0.469777	-0.920064
N203	N	1.165356	-0.136444	-0.586730
N204	N	1.498690	0.196890	-0.253397
H205	H	1.059356	-0.937243	-0.245079
H206	H	1.392689	-0.603910	0.088254
H207	H	1.726023	-0.270577	0.421588
C208	C	0.895097	-0.860980	-0.409048
C209	C	1.228431	-0.527647	-0.075715
C210	C	1.561764	-0.194314	0.257619
N211	N	0.857968	-0.891380	-0.446125
N212	N	1.191301	-0.558046	-0.112792
N213	N	1.524634	-0.224713	0.220541
H214	H	0.882336	-0.419776	-0.729882
H215	H	1.215669	-0.086443	-0.396549
H216	H	1.549002	0.246890	-0.063215
C217	C	0.208492	-0.432634	-0.252807
C218	C	0.541825	-0.099301	0.080527
C219	C	0.875158	0.234032	0.413860
N220	N	0.177654	-0.469799	-0.218400
N221	N	0.510987	-0.136466	0.114934
N222	N	0.844321	0.196867	0.448267
C223	C	0.364817	-0.244215	-0.427198
C224	C	0.698150	0.089118	-0.093865
C225	C	1.031483	0.422451	0.239469
N226	N	0.395652	-0.207039	-0.461596
N227	N	0.728985	0.126295	-0.128262
N228	N	1.062318	0.459628	0.205071
H229	H	1.046230	-0.256771	-0.950769
H230	H	1.379564	0.076562	-0.617436
H231	H	1.712897	0.409895	-0.284103
H232	H	0.874575	-0.605768	-0.429421
H233	H	1.207909	-0.272435	-0.096088
H234	H	1.541242	0.060898	0.237245
C235	C	1.033403	-0.815113	-0.270938
C236	C	1.366736	-0.481780	0.062395
C237	C	1.700069	-0.148447	0.395729
N238	N	1.070522	-0.784714	-0.233850
N239	N	1.403855	-0.451381	0.099483
N240	N	1.737188	-0.118047	0.432816
C241	C	0.216372	-0.244226	-0.427207
C242	C	0.549705	0.089108	-0.093874
C243	C	0.883039	0.422441	0.239459
N244	N	0.188643	-0.207055	-0.461607
N245	N	0.521976	0.126278	-0.128274
N246	N	0.855309	0.459612	0.205059
H247	H	1.046182	-0.256856	-0.595012
H248	H	1.379516	0.076477	-0.261679
H249	H	1.712849	0.409810	0.071654
H250	H	0.347365	-0.419804	-0.264661
H251	H	0.680698	-0.086471	0.068672
H252	H	1.014031	0.246863	0.402005
H253	H	1.046248	-0.256740	-1.079013
H254	H	1.379582	0.076593	-0.745679
H255	H	1.712915	0.409927	-0.412346
H256	H	0.882387	-0.419701	-1.085637
H257	H	1.215720	-0.086368	-0.752304
H258	H	1.549053	0.246965	-0.418970
H259	H	0.882308	-0.419805	-0.601638
H260	H	1.215642	-0.086472	-0.268304
H261	H	1.548975	0.246861	0.065029
H262	H	1.053929	-1.070321	-0.250570
H263	H	1.387262	-0.736988	0.082764
H264	H	1.720595	-0.403655	0.416097
H265	H	0.574890	-0.419773	-0.264647
H266	H	0.908223	-0.086440	0.068686
H267	H	1.241556	0.246893	0.402019
C268	C	0.712700	-0.432586	-0.252771
C269	C	1.046034	-0.099252	0.080562
C270	C	1.379367	0.234081	0.413895
N271	N	0.740426	-0.469751	-0.218363
N272	N	1.073760	-0.136418	0.114970
N273	N	1.407093	0.196915	0.448303
H274	H	0.709941	-0.257003	-0.415313
H275	H	1.043274	0.076330	-0.081980
H276	H	1.376607	0.409663	0.251353
H277	H	1.026306	-0.738818	-0.277979
H278	H	1.359639	-0.405485	0.055355
H279	H	1.692972	-0.072151	0.388688
C280	C	1.044535	-0.595272	-0.259692
C281	C	1.377868	-0.261938	0.073641
C282	C	1.711201	0.071395	0.406975
N283	N	1.081663	-0.564888	-0.222603
N284	N	1.414996	-0.231554	0.110730
N285	N	1.748330	0.101779	0.444064
H286	H	1.046197	-0.256823	-0.723245
H287	H	1.379531	0.076510	-0.389912
H288	H	1.712864	0.409844	-0.056578
H289	H	0.896781	-1.070335	-0.407512
H290	H	1.230114	-0.737002	-0.074178
H291	H	1.563447	-0.403669	0.259155
C292	C	0.856342	-0.749325	-0.447698
C293	C	1.189675	-0.415992	-0.114364
C294	C	1.523008	-0.082658	0.218969
N295	N	0.819212	-0.779718	-0.484780
N296	N	1.152545	-0.446384	-0.151446
N297	N	1.485879	-0.113051	0.181887
H298	H	0.902203	-0.937268	-0.402015
H299	H	1.235536	-0.603934	-0.068681
H300	H	1.568869	-0.270601	0.264652
