data_functionalizedCrystal
_audit_creation_method	'MofGen! by Chris Wilmer'
_symmetry_space_group_name_H-M	'P1'
_symmetry_Int_Tables_number	1
_symmetry_cell_setting	triclinic
loop_
_symmetry_equiv_pos_as_xyz
  x,y,z
_cell_length_a	6.817900
_cell_length_b	12.850290
_cell_length_c	9.582880
_cell_angle_alpha	94.989240
_cell_angle_beta	111.207034
_cell_angle_gamma	93.900066
loop_
_atom_site_label
_atom_site_type_symbol
_atom_site_fract_x
_atom_site_fract_y
_atom_site_fract_z
V1	V	4.066717	0.143285	0.460330
O2	O	4.104942	-0.007336	0.458040
O3	O	3.968456	0.284543	0.450956
O4	O	4.058327	0.140883	0.663936
O5	O	4.014449	0.137318	0.243586
V6	V	4.551621	0.125292	0.435162
O7	O	4.324945	0.182753	0.515538
O8	O	4.743590	0.085824	0.379954
O9	O	4.426675	-0.015966	0.444536
O10	O	4.630793	0.275913	0.437451
O11	O	4.721286	0.131258	0.651906
O12	O	4.336804	0.127694	0.231556
C13	C	3.801293	0.436635	0.435687
C14	C	3.800029	0.318982	0.442086
V15	V	4.074107	0.627998	0.438897
O16	O	4.126636	0.781252	0.444765
O17	O	3.970540	0.480882	0.440270
O18	O	3.879957	0.624497	0.227227
O19	O	4.217846	0.636643	0.659283
V20	V	4.601835	0.675395	0.504357
O21	O	4.289093	0.602264	0.402527
O22	O	4.854312	0.727773	0.577244
O23	O	4.473635	0.809300	0.484879
O24	O	4.671205	0.529089	0.508011
O25	O	4.579995	0.673698	0.293493
O26	O	4.564218	0.665685	0.697922
C27	C	4.293340	0.833617	0.462147
C28	C	4.272628	0.950013	0.453979
C29	C	3.914672	0.135731	0.713763
C30	C	3.988766	0.134701	0.880171
C31	C	4.143799	0.132849	0.181721
C32	C	4.048945	0.133873	0.015311
C33	C	3.685737	0.619833	0.163952
C34	C	3.611046	0.620824	-0.002483
C35	C	4.408874	0.650417	0.733897
C36	C	4.462011	0.648188	0.898647
