data_functionalizedCrystal
_audit_creation_method	'MofGen! by Chris Wilmer'
_symmetry_space_group_name_H-M	'P1'
_symmetry_Int_Tables_number	1
_symmetry_cell_setting	triclinic
loop_
_symmetry_equiv_pos_as_xyz
  x,y,z
_cell_length_a	11.792241
_cell_length_b	27.731996
_cell_length_c	26.809956
_cell_angle_alpha	89.987824
_cell_angle_beta	89.980305
_cell_angle_gamma	83.407402
loop_
_atom_site_label
_atom_site_type_symbol
_atom_site_fract_x
_atom_site_fract_y
_atom_site_fract_z
O1	O	1.504792	0.066249	-0.041438
O2	O	2.004792	0.566249	0.458562
O3	O	1.174230	0.073077	-0.041451
O4	O	1.674230	0.573077	0.458549
O5	O	1.349809	-0.000676	-0.041433
O6	O	1.849809	0.499324	0.458567
O7	O	1.329214	0.140002	-0.041456
O8	O	1.829214	0.640002	0.458544
O9	O	1.349729	-0.000677	0.041526
O10	O	1.849729	0.499323	0.541526
O11	O	1.174151	0.073075	0.041509
O12	O	1.674151	0.573075	0.541509
O13	O	1.504713	0.066248	0.041521
O14	O	2.004713	0.566248	0.541521
Zn15	Zn	1.339420	0.069661	0.054686
Zn16	Zn	1.839420	0.569661	0.554686
Zn17	Zn	1.339524	0.069663	-0.054616
Zn18	Zn	1.839524	0.569663	0.445384
O19	O	1.329135	0.140000	0.041504
O20	O	1.829135	0.640000	0.541504
C21	C	1.131913	0.072647	0.000028
C22	C	1.631913	0.572647	0.500028
C23	C	1.005941	0.071363	0.000023
C24	C	1.505941	0.571363	0.500023
C25	C	1.349346	-0.018687	0.000048
C26	C	1.849346	0.481313	0.500048
C27	C	1.348072	-0.072350	0.000053
C28	C	1.848072	0.427650	0.500053
C29	C	0.775306	0.069003	0.000038
C30	C	1.275306	0.569003	0.500038
C31	C	0.903648	0.070314	0.000030
C32	C	1.403648	0.570314	0.500030
C33	C	1.340098	-0.405112	-0.045193
C34	C	1.840098	0.094888	0.454807
C35	C	1.335259	-0.606799	-0.045202
C36	C	1.835259	-0.106799	0.454798
O37	O	1.334621	-0.632873	-0.083661
O38	O	1.834621	-0.132873	0.416339
N39	N	1.334615	-0.632020	0.000019
N40	N	1.834615	-0.132020	0.500019
C41	C	1.335173	-0.606816	0.045245
C42	C	1.835173	-0.106816	0.545245
O43	O	1.334502	-0.632896	0.083708
O44	O	1.834502	-0.132896	0.583708
C45	C	1.340003	-0.405130	0.045253
C46	C	1.840003	0.094870	0.545253
C47	C	1.340659	-0.379912	0.000030
C48	C	1.840659	0.120088	0.500030
C49	C	1.340752	-0.379894	-0.090413
C50	C	1.840752	0.120106	0.409587
C51	C	1.341968	-0.329476	-0.090410
C52	C	1.841968	0.170524	0.409590
C53	C	1.342529	-0.304276	-0.045187
C54	C	1.842529	0.195724	0.454813
C55	C	1.341875	-0.329494	0.000033
C56	C	1.841875	0.170506	0.500033
C57	C	1.340553	-0.379927	0.090479
C58	C	1.840553	0.120073	0.590479
C59	C	1.341758	-0.329502	0.090477
C60	C	1.841758	0.170498	0.590477
C61	C	1.342414	-0.304284	0.045254
C62	C	1.842414	0.195716	0.545254
C63	C	1.343652	-0.253876	0.045258
C64	C	1.843652	0.246124	0.545258
N65	N	1.344297	-0.228654	0.000037
N66	N	1.844297	0.271346	0.500037
C67	C	1.343735	-0.253854	-0.045185
C68	C	1.843735	0.246146	0.454815
C69	C	1.332639	-0.712704	0.045237
C70	C	1.832639	-0.212704	0.545237
C71	C	1.331433	-0.763126	0.045235
C72	C	1.831433	-0.263126	0.545235
C73	C	1.331517	-0.763104	-0.045211
C74	C	1.831517	-0.263104	0.454789
C75	C	1.332731	-0.712683	-0.045209
C76	C	1.832731	-0.212683	0.454791
C77	C	1.333283	-0.687483	0.000017
C78	C	1.833283	-0.187483	0.500017
C79	C	1.346289	-0.147973	-0.045176
C80	C	1.846289	0.352027	0.454824
C81	C	1.347510	-0.097550	-0.045170
C82	C	1.847510	0.402450	0.454830
C83	C	1.347420	-0.097575	0.045277
C84	C	1.847420	0.402425	0.545277
C85	C	1.346206	-0.147994	0.045271
C86	C	1.846206	0.352006	0.545271
C87	C	1.345636	-0.173191	0.000040
C88	C	1.845636	0.326809	0.500040
O89	O	1.344278	-0.227770	0.083697
O90	O	1.844278	0.272230	0.583697
O91	O	1.344381	-0.227765	-0.083642
O92	O	1.844381	0.272235	0.416358
C93	C	1.338882	-0.455531	-0.045195
C94	C	1.838882	0.044469	0.454805
C95	C	1.338227	-0.480749	0.000024
C96	C	1.838227	0.019251	0.500024
C97	C	1.338789	-0.455549	0.045247
C98	C	1.838789	0.044451	0.545247
C99	C	1.337022	-0.531170	0.000023
C100	C	1.837022	-0.031170	0.500023
C101	C	1.336460	-0.556370	-0.045200
C102	C	1.836460	-0.056370	0.454800
C103	C	1.337104	-0.531149	-0.090421
C104	C	1.837104	-0.031149	0.409579
C105	C	1.338320	-0.480731	-0.090418
C106	C	1.838320	0.019269	0.409582
C107	C	1.338145	-0.480770	0.090468
C108	C	1.838145	0.019230	0.590468
C109	C	1.336930	-0.531188	0.090461
C110	C	1.836930	-0.031188	0.590461
C111	C	1.336369	-0.556388	0.045239
C112	C	1.836369	-0.056388	0.545239
C113	C	1.547030	0.066677	0.000042
C114	C	2.047030	0.566677	0.500042
C115	C	1.673002	0.067961	0.000043
C116	C	2.173002	0.567961	0.500043
C117	C	1.329597	0.158011	0.000021
C118	C	1.829597	0.658011	0.500021
C119	C	1.330872	0.211674	0.000013
C120	C	1.830872	0.711674	0.500013
N121	N	1.339357	0.069660	0.129282
N122	N	1.839357	0.569660	0.629282
N123	N	1.339596	0.069661	-0.129212
N124	N	1.839596	0.569661	0.370788
C125	C	1.261700	0.102305	0.526158
C126	C	1.761700	0.602305	1.026158
C127	C	1.261641	0.102304	0.317280
C128	C	1.761641	0.602304	0.817280
O129	O	1.195471	0.130055	0.290273
O130	O	1.695471	0.630055	0.790273
N131	N	1.339396	0.069659	0.291161
N132	N	1.839396	0.569659	0.791161
C133	C	1.417167	0.037008	0.317264
C134	C	1.917167	0.537008	0.817264
O135	O	1.483294	0.009237	0.290255
O136	O	1.983294	0.509237	0.790255
C137	C	1.417220	0.037006	0.526141
C138	C	1.917220	0.537006	1.026141
C139	C	1.339467	0.069658	0.552258
C140	C	1.839467	0.569658	1.052258
C141	C	1.183952	0.134953	0.552275
C142	C	1.683952	0.634953	1.052275
C143	C	1.183972	0.134954	0.604491
C144	C	1.683972	0.634954	1.104491
C145	C	1.261739	0.102308	0.630591
C146	C	1.761739	0.602308	1.130591
C147	C	1.339487	0.069659	0.604474
C148	C	1.839487	0.569659	1.104474
C149	C	1.494985	0.004354	0.552243
C150	C	1.994985	0.504354	1.052243
C151	C	1.494990	0.004356	0.604466
C152	C	1.994990	0.504356	1.104466
C153	C	1.417236	0.037007	0.630582
C154	C	1.917236	0.537007	1.130582
C155	C	1.417274	0.037014	0.682790
C156	C	1.917274	0.537014	1.182790
N157	N	1.339518	0.069660	0.708909
N158	N	1.839518	0.569660	1.208909
C159	C	1.261751	0.102307	0.682810
C160	C	1.761751	0.602307	1.182810
C161	C	1.417136	0.037012	0.207601
C162	C	1.917136	0.537012	0.707601
C163	C	1.417124	0.037013	0.155382
C164	C	1.917124	0.537013	0.655382
C165	C	1.261595	0.102309	0.155402
C166	C	1.761595	0.602309	0.655402
C167	C	1.261613	0.102310	0.207622
C168	C	1.761613	0.602310	0.707622
C169	C	1.339380	0.069658	0.233720
C170	C	1.839380	0.569658	0.733720
C171	C	1.261799	0.102307	0.792467
C172	C	1.761799	0.602307	1.292467
C173	C	1.261828	0.102307	0.844688
C174	C	1.761828	0.602307	1.344688
C175	C	1.417352	0.037010	0.844664
C176	C	1.917352	0.537010	1.344664
C177	C	1.417327	0.037012	0.792448
C178	C	1.917327	0.537012	1.292448
C179	C	1.339541	0.069662	0.766351
C180	C	1.839541	0.569662	1.266351
O181	O	1.483400	0.009275	0.709829
O182	O	1.983400	0.509275	1.209829
O183	O	1.195617	0.130066	0.709827
O184	O	1.695617	0.630066	1.209827
C185	C	1.261680	0.102303	0.473942
C186	C	1.761680	0.602303	0.973942
C187	C	1.339428	0.069655	0.447825
C188	C	1.839428	0.569655	0.947825
C189	C	1.417195	0.037008	0.473924
C190	C	1.917195	0.537008	0.973924
C191	C	1.339416	0.069656	0.395606
C192	C	1.839416	0.569656	0.895606
C193	C	1.261649	0.102303	0.369506
C194	C	1.761649	0.602303	0.869506
C195	C	1.183893	0.134948	0.395626
C196	C	1.683893	0.634948	0.895626
C197	C	1.183913	0.134950	0.447842
C198	C	1.683913	0.634950	0.947842
C199	C	1.494951	0.004362	0.447805
C200	C	1.994951	0.504362	0.947805
C201	C	1.494926	0.004364	0.395589
C202	C	1.994926	0.504364	0.895589
C203	C	1.417158	0.037010	0.369489
C204	C	1.917158	0.537010	0.869489
H205	H	1.345820	-0.168482	-0.082007
H206	H	1.845820	0.331518	0.417993
H207	H	1.558277	-0.022224	0.469051
H208	H	2.058277	0.477776	0.969051
N209	N	1.330915	-0.788851	-0.091405
N210	N	1.830915	-0.288851	0.408595
N211	N	1.251037	-0.778971	-0.121683
N212	N	1.751037	-0.278971	0.378317
H213	H	1.250602	-0.797157	-0.154305
H214	H	1.750602	-0.297157	0.345695
H215	H	1.120575	0.161533	0.374367
H216	H	1.620575	0.661533	0.874367
N217	N	1.574374	-0.028990	0.368922
N218	N	2.074374	0.471010	0.868922
N219	N	1.643799	-0.058135	0.392238
N220	N	2.143799	0.441865	0.892238
H221	H	1.699905	-0.081693	0.373407
H222	H	2.199905	0.418307	0.873407
H223	H	1.480673	0.010431	0.865922
H224	H	1.980673	0.510431	1.365922
H225	H	1.336405	-0.551717	0.127291
H226	H	1.836405	-0.051717	0.627291
H227	H	1.120619	0.161538	0.531029
H228	H	1.620619	0.661538	1.031029
H229	H	1.558298	-0.022234	0.530986
H230	H	2.058298	0.477766	1.030986
H231	H	1.348047	-0.077020	-0.081998
H232	H	1.848047	0.422980	0.418002
H233	H	1.347883	-0.077049	0.082096
H234	H	1.847883	0.422951	0.582096
H235	H	1.198512	0.128898	0.865951
H236	H	1.698512	0.628898	1.365951
H237	H	1.333094	-0.692192	0.082068
H238	H	1.833094	-0.192192	0.582068
N239	N	1.342633	-0.303727	-0.136610
N240	N	1.842633	0.196273	0.363390
N241	N	1.342127	-0.326242	-0.176980
N242	N	1.842127	0.173758	0.323020
H243	H	1.342593	-0.308060	-0.209612
H244	H	1.842593	0.191940	0.290388
N245	N	1.574431	-0.029004	0.631116
N246	N	2.074431	0.470996	1.131116
N247	N	1.643838	-0.058153	0.607787
N248	N	2.143838	0.441847	1.107787
H249	H	1.699944	-0.081713	0.626608
H250	H	2.199944	0.418287	1.126608
N251	N	1.496570	0.003615	0.765729
N252	N	1.996570	0.503615	1.265729
N253	N	1.495604	-0.041054	0.771580
N254	N	1.995604	0.458946	1.271580
H255	H	1.551494	-0.064659	0.752696
H256	H	2.051494	0.435341	1.252696
H257	H	1.120656	0.161540	0.625752
H258	H	1.620656	0.661540	1.125752
N259	N	1.496584	0.003653	0.234248
N260	N	1.996584	0.503653	0.734248
N261	N	1.565997	-0.025490	0.210915
N262	N	2.065997	0.474510	0.710915
H263	H	1.622111	-0.049050	0.229733
H264	H	2.122111	0.450950	0.729733
N265	N	1.340171	-0.405622	-0.136615
N266	N	1.840171	0.094378	0.363385
N267	N	1.340752	-0.383090	-0.176982
N268	N	1.840752	0.116910	0.323018
H269	H	1.340348	-0.401258	-0.209616
H270	H	1.840348	0.098742	0.290384
N271	N	1.330789	-0.788876	0.091435
N272	N	1.830789	-0.288876	0.591435
N273	N	1.331290	-0.766364	0.131806
N274	N	1.831290	-0.266364	0.631806
H275	H	1.330831	-0.784548	0.164437
H276	H	1.830831	-0.284548	0.664437
H277	H	1.333263	-0.692153	-0.082034
H278	H	1.833263	-0.192153	0.417966
N279	N	1.104484	0.168307	0.474508
N280	N	1.604484	0.668307	0.974508
N281	N	1.035062	0.197451	0.451190
N282	N	1.535062	0.697451	0.951190
H283	H	0.978959	0.221012	0.470019
H284	H	1.478959	0.721012	0.970019
H285	H	1.342191	-0.308986	0.127306
H286	H	1.842191	0.191014	0.627306
N287	N	1.339894	-0.405671	0.136679
N288	N	1.839894	0.094329	0.636679
N289	N	1.340392	-0.383155	0.177049
N290	N	1.840392	0.116845	0.677049
H291	H	1.339927	-0.401336	0.209681
H292	H	1.839927	0.098664	0.709681
N293	N	1.345525	-0.173750	0.091467
N294	N	1.845525	0.326250	0.591467
N295	N	1.265596	-0.163868	0.121740
N296	N	1.765596	0.336132	0.621740
H297	H	1.265102	-0.182055	0.154367
H298	H	1.765102	0.317945	0.654367
N299	N	1.339006	-0.454976	-0.136613
N300	N	1.839006	0.045024	0.363387
N301	N	1.418932	-0.464856	-0.166888
N302	N	1.918932	0.035144	0.333112
H303	H	1.419417	-0.446669	-0.199516
H304	H	1.919417	0.053331	0.300484
N305	N	1.336546	-0.556904	-0.136611
N306	N	1.836546	-0.056904	0.363389
N307	N	1.335467	-0.601922	-0.136599
N308	N	1.835467	-0.101922	0.363401
H309	H	1.335070	-0.620114	-0.169219
H310	H	1.835070	-0.120114	0.330781
N311	N	1.338713	-0.455040	0.136669
N312	N	1.838713	0.044960	0.636669
N313	N	1.338136	-0.477570	0.177037
N314	N	1.838136	0.022430	0.677037
H315	H	1.338542	-0.459401	0.209670
H316	H	1.838542	0.040599	0.709670
H317	H	1.198457	0.128894	0.771225
H318	H	1.698457	0.628894	1.271225
N319	N	1.182182	0.135665	0.234289
N320	N	1.682182	0.635665	0.734289
N321	N	1.112760	0.164811	0.210973
N322	N	1.612760	0.664811	0.710973
H323	H	1.056655	0.188369	0.229804
H324	H	1.556655	0.688369	0.729804
H325	H	1.198276	0.128892	0.134143
H326	H	1.698276	0.628892	0.634143
N327	N	1.496560	0.003659	0.128715
N328	N	1.996560	0.503659	0.628715
N329	N	1.565977	-0.025489	0.152031
N330	N	2.065977	0.474511	0.652031
H331	H	1.622076	-0.049049	0.133200
H332	H	2.122076	0.450951	0.633200
