data_functionalizedCrystal
_audit_creation_method	'MofGen! by Chris Wilmer'
_symmetry_space_group_name_H-M	'P1'
_symmetry_Int_Tables_number	1
_symmetry_cell_setting	triclinic
loop_
_symmetry_equiv_pos_as_xyz
  x,y,z
_cell_length_a	12.759401
_cell_length_b	18.050589
_cell_length_c	12.759393
_cell_angle_alpha	90.029827
_cell_angle_beta	90.018705
_cell_angle_gamma	90.028382
loop_
_atom_site_label
_atom_site_type_symbol
_atom_site_fract_x
_atom_site_fract_y
_atom_site_fract_z
Zn1	Zn	1.606159	-0.295618	0.593988
Zn2	Zn	1.606011	-0.419827	0.418311
Zn3	Zn	1.430460	-0.295655	0.418328
Zn4	Zn	1.430408	-0.419771	0.593953
O5	O	1.518260	-0.357718	0.506145
O6	O	1.753160	-0.312102	0.570692
O7	O	1.582684	-0.403394	0.271292
O8	O	1.453851	-0.191726	0.441651
O9	O	1.753052	-0.403358	0.441623
O10	O	1.582936	-0.191699	0.570708
O11	O	1.453707	-0.312166	0.271304
O12	O	1.283432	-0.312112	0.441617
O13	O	1.453762	-0.403263	0.740979
O14	O	1.283394	-0.403299	0.570648
O15	O	1.582885	-0.312049	0.741005
O16	O	1.582633	-0.523744	0.441589
O17	O	1.453618	-0.523703	0.570632
C18	C	1.245292	-0.357704	0.506131
C19	C	1.128516	-0.357716	0.506149
C20	C	1.073661	-0.405274	0.573225
C21	C	0.963937	-0.405283	0.573236
C22	C	0.963932	-0.310176	0.439088
C23	C	1.073654	-0.310163	0.439083
C24	C	1.128523	-0.452827	0.640292
C25	C	1.073668	-0.500389	0.707372
C26	C	0.963944	-0.500398	0.707383
C27	C	0.909075	-0.452846	0.640314
C28	C	1.518133	-0.550670	0.506127
C29	C	1.518175	-0.633216	0.506155
C30	C	1.448085	-0.832671	0.576304
C31	C	1.422471	-0.882119	0.480436
C32	C	1.518278	-0.784346	0.506169
C33	C	1.543944	-0.881980	0.602048
C34	C	1.518376	-0.930331	0.506191
C35	C	1.492613	-0.832707	0.410250
C36	C	1.614131	-0.832563	0.531927
C37	C	1.588552	-0.881989	0.435992
C38	C	1.518219	-0.700248	0.506158
C39	C	1.518435	-1.014428	0.506191
C40	C	1.792293	-0.357732	0.506160
C41	C	1.909069	-0.357738	0.506166
C42	C	1.518334	-0.357646	0.780178
C43	C	1.518366	-0.357615	0.896955
C44	C	1.518415	-0.164012	0.506185
C45	C	1.518482	-0.081467	0.506203
C46	C	1.518246	-0.357736	0.233178
C47	C	1.518418	-0.357558	0.116401
C48	C	1.451252	-0.310077	1.061548
C49	C	1.451228	-0.310103	0.951824
C50	C	1.585539	-0.405098	0.951816
C51	C	1.585567	-0.405068	1.061539
C52	C	1.384103	-0.262567	1.116411
C53	C	1.316931	-0.215083	1.061557
C54	C	1.316907	-0.215109	0.951833
C55	C	1.384056	-0.262620	0.896962
H56	H	0.919248	-0.271462	0.384483
H57	H	1.695126	-0.810782	0.553739
Br58	Br	1.148106	-0.245618	0.348053
Br59	Br	1.225760	-0.150659	0.877390
H60	H	0.919285	-0.539120	0.762010
H61	H	1.388638	-0.811016	0.635531
H62	H	1.640207	-0.443780	0.907132
Br63	Br	1.287436	-0.918396	0.444123
Br64	Br	1.456344	-0.796787	0.275078
H65	H	1.647954	-0.903507	0.376622
H66	H	0.819730	-0.452851	0.640338
H67	H	1.565614	-0.903624	0.683124
Br68	Br	1.676733	-0.469499	1.135990
H69	H	1.118350	-0.539099	0.761983
H70	H	1.262268	-0.176397	1.106240
Br71	Br	1.277434	-0.452821	0.640273
Br72	Br	1.384121	-0.262536	1.265321
Br73	Br	1.384033	-0.262646	0.748050
