data_functionalizedCrystal
_audit_creation_method	'MofGen! by Chris Wilmer'
_symmetry_space_group_name_H-M	'P1'
_symmetry_Int_Tables_number	1
_symmetry_cell_setting	triclinic
loop_
_symmetry_equiv_pos_as_xyz
  x,y,z
_cell_length_a	19.077105
_cell_length_b	12.645330
_cell_length_c	19.076919
_cell_angle_alpha	92.276250
_cell_angle_beta	90.076224
_cell_angle_gamma	87.714233
loop_
_atom_site_label
_atom_site_type_symbol
_atom_site_fract_x
_atom_site_fract_y
_atom_site_fract_z
Zn1	Zn	1.058309	-0.512860	-0.440444
Zn2	Zn	1.062962	-0.683311	-0.322946
Zn3	Zn	0.945526	-0.498659	-0.318237
Zn4	Zn	0.940784	-0.682672	-0.435699
O5	O	1.001896	-0.594376	-0.379332
O6	O	1.157259	-0.541682	-0.428815
O7	O	1.051316	-0.653141	-0.223990
O8	O	0.960524	-0.352199	-0.334463
O9	O	1.160677	-0.666911	-0.342490
O10	O	1.043386	-0.362632	-0.424248
O11	O	0.965036	-0.517478	-0.220530
O12	O	0.846565	-0.516858	-0.329862
O13	O	0.952442	-0.665822	-0.534660
O14	O	0.843081	-0.652051	-0.416161
O15	O	1.038788	-0.541062	-0.538146
O16	O	1.046718	-0.831570	-0.337888
O17	O	0.956954	-0.831101	-0.420727
C18	C	0.819326	-0.582845	-0.371986
C19	C	0.741222	-0.577939	-0.368860
C20	C	0.702735	-0.646120	-0.412251
C21	C	0.629348	-0.641496	-0.409318
C22	C	0.594448	-0.568695	-0.362988
C23	C	0.632940	-0.500507	-0.319594
C24	C	0.706326	-0.505126	-0.322532
C25	C	0.375159	-0.547316	-0.349394
C26	C	0.301768	-0.542704	-0.346458
C27	C	0.298181	-0.683692	-0.436183
C28	C	0.371569	-0.688309	-0.439113
C29	C	0.410054	-0.620117	-0.395722
N30	N	0.519434	-0.563970	-0.359986
N31	N	0.485066	-0.624839	-0.398728
C32	C	1.001845	-0.869801	-0.379320
C33	C	1.001886	-0.987635	-0.379341
C34	C	0.945633	-1.154972	-0.431631
C35	C	0.945363	-1.032385	-0.431445
C36	C	0.984820	-1.026659	-0.304483
C37	C	0.984477	-1.149256	-0.304800
C38	C	1.075561	-1.160522	-0.401321
C39	C	1.075039	-1.037980	-0.402922
C40	C	1.185178	-0.605952	-0.386707
C41	C	1.263281	-0.610885	-0.389850
C42	C	0.994567	-0.604955	-0.562612
C43	C	0.991444	-0.609463	-0.640716
C44	C	1.001965	-0.317876	-0.379360
C45	C	1.001995	-0.200049	-0.379372
C46	C	1.034930	-0.546628	-0.679225
C47	C	1.031987	-0.550859	-0.752611
C48	C	0.985561	-0.617932	-0.787487
C49	C	0.942070	-0.680769	-0.748972
C50	C	0.945010	-0.676531	-0.675587
C51	C	0.971944	-0.637565	-1.006769
C52	C	0.969009	-0.641800	-1.080159
C53	C	1.058925	-0.511889	-1.083793
C54	C	1.061864	-0.507662	-1.010407
C55	C	1.018371	-0.570495	-0.971898
N56	N	0.982553	-0.622261	-0.862499
N57	N	1.021376	-0.566159	-0.896887
C58	C	1.009236	-0.583764	-0.196766
C59	C	1.012495	-0.578966	-0.118668
H60	H	0.266839	-0.739209	-0.471510
C61	C	1.092518	-1.004124	-0.477354
N62	N	1.105687	-0.978603	-0.533413
H63	H	0.399979	-0.747594	-0.476839
H64	H	0.273354	-0.483409	-0.308735
H65	H	0.909592	-0.727687	-0.644233
H66	H	0.406485	-0.491797	-0.314057
H67	H	1.119004	-1.007870	-0.367868
C68	C	1.086002	-0.472841	-0.640869
N69	N	1.124468	-0.417259	-0.611981
H70	H	0.731145	-0.705405	-0.449976
H71	H	1.067399	-0.499695	-0.783962
C72	C	0.748661	-0.430124	-0.274796
N73	N	0.780546	-0.373628	-0.238840
C74	C	0.959420	-1.200100	-0.506731
N75	N	0.969805	-1.234101	-0.563297
C76	C	0.911944	-1.182130	-0.280153
N77	N	0.857310	-1.206885	-0.261590
C78	C	0.594547	-0.420423	-0.268632
N79	N	0.565631	-0.360104	-0.230245
H80	H	1.099671	-0.453047	-0.982016
C81	C	0.959319	-0.997027	-0.506307
N82	N	0.969828	-0.970401	-0.562697
H83	H	0.891372	-1.181699	-0.417028
H84	H	1.094334	-0.460732	-1.115154
H85	H	0.936539	-0.688744	-0.975424
H86	H	0.598015	-0.697017	-0.444651
C87	C	0.871589	-0.987207	-0.411533
N88	N	0.816014	-0.953181	-0.396551
H89	H	1.023908	-1.178854	-0.264375
H90	H	0.904267	-0.735377	-0.777373
H91	H	1.024702	-0.997486	-0.264350
C92	C	0.913066	-0.979452	-0.279471
N93	N	0.859019	-0.943899	-0.260636
C94	C	1.097377	-1.207911	-0.474027
N95	N	1.113801	-1.243603	-0.528792
H96	H	1.117515	-1.189748	-0.363295
C97	C	0.917933	-0.715585	-1.118520
N98	N	0.879464	-0.771157	-1.147414
