data_functionalizedCrystal
_audit_creation_method	'MofGen! by Chris Wilmer'
_symmetry_space_group_name_H-M	'P1'
_symmetry_Int_Tables_number	1
_symmetry_cell_setting	triclinic
loop_
_symmetry_equiv_pos_as_xyz
  x,y,z
_cell_length_a	6.394989
_cell_length_b	11.026607
_cell_length_c	9.482900
_cell_angle_alpha	101.363848
_cell_angle_beta	80.390180
_cell_angle_gamma	97.541864
loop_
_atom_site_label
_atom_site_type_symbol
_atom_site_fract_x
_atom_site_fract_y
_atom_site_fract_z
O1	O	-0.853991	-1.642135	-0.120875
O2	O	-0.753816	-1.287297	-0.120879
O3	O	-0.501733	-1.469753	-0.120878
O4	O	-1.106074	-1.459679	-0.120876
O5	O	-0.553199	-1.432696	0.120914
O6	O	-0.805282	-1.250240	0.120913
O7	O	-0.905458	-1.605078	0.120917
Cu8	Cu	-0.860069	-1.424275	0.142993
Cu9	Cu	-0.799204	-1.468099	-0.142955
O10	O	-1.157541	-1.422622	0.120916
C11	C	-0.761068	-1.223275	0.000016
C12	C	-0.705977	-1.087719	0.000014
C13	C	-0.898204	-1.669100	0.000019
C14	C	-0.953293	-1.804658	0.000011
N15	N	-0.902881	-1.393461	0.344113
C16	C	-0.448894	-1.449233	0.000013
C17	C	-0.210371	-1.443147	0.000011
N18	N	-0.756380	-1.498923	-0.344074
C19	C	-0.858092	-1.016240	0.000014
C20	C	-0.801156	-0.876135	0.000012
C21	C	-0.811817	-1.459002	0.416312
C22	C	-0.847457	-1.433373	0.583730
H23	H	-1.030475	-1.058766	0.000023
H24	H	-0.951802	-1.358277	0.645854
O25	O	-0.631745	-1.588517	0.582051
C26	C	-0.554045	-1.644501	0.681691
H27	H	-0.556035	-1.577877	0.790243
H28	H	-0.383812	-1.667010	0.637597
H29	H	-0.659450	-1.733885	0.697804
O30	O	-1.158877	-0.855464	-0.000264
C31	C	-1.173103	-0.947668	-0.125479
H32	H	-1.033396	-0.929210	-0.212989
H33	H	-1.329201	-0.945390	-0.167534
H34	H	-1.168219	-1.042960	-0.097168
O35	O	-0.687527	-1.548744	0.342396
C36	C	-0.774604	-1.664505	0.379471
H37	H	-0.878987	-1.648844	0.490014
H38	H	-0.640122	-1.721200	0.384553
H39	H	-0.875114	-1.717077	0.293829
O40	O	-0.595512	-0.825436	0.000265
C41	C	-0.521586	-0.844383	0.125470
H42	H	-0.663180	-0.859271	0.213000
H43	H	-0.412316	-0.759374	0.167501
H44	H	-0.429484	-0.929820	0.097156
O45	O	-1.027095	-1.303801	0.418382
C46	C	-0.905153	-1.213159	0.506414
H47	H	-0.763603	-1.255556	0.529053
H48	H	-1.008357	-1.179015	0.613518
H49	H	-0.844896	-1.131612	0.447861
H50	H	-0.533588	-1.045197	-0.000024
