data_functionalizedCrystal
_audit_creation_method	'MofGen! by Chris Wilmer'
_symmetry_space_group_name_H-M	'P1'
_symmetry_Int_Tables_number	1
_symmetry_cell_setting	triclinic
loop_
_symmetry_equiv_pos_as_xyz
  x,y,z
_cell_length_a	14.971482
_cell_length_b	27.731996
_cell_length_c	13.448316
_cell_angle_alpha	89.987422
_cell_angle_beta	89.993798
_cell_angle_gamma	83.116998
loop_
_atom_site_label
_atom_site_type_symbol
_atom_site_fract_x
_atom_site_fract_y
_atom_site_fract_z
O1	O	1.185932	0.062984	-0.082692
O2	O	0.925410	0.070529	-0.082699
O3	O	1.063787	-0.003605	-0.082674
O4	O	1.047556	0.137118	-0.082717
O5	O	1.063770	-0.003609	0.082710
O6	O	0.925393	0.070525	0.082685
O7	O	1.185915	0.062979	0.082691
Cu8	Cu	1.055652	0.066752	0.097789
Cu9	Cu	1.055673	0.066757	-0.097797
O10	O	1.047538	0.137113	0.082666
C11	C	0.892082	0.070190	-0.000007
C12	C	0.792801	0.069180	-0.000009
C13	C	0.746155	0.068701	0.090143
C14	C	0.652872	0.067744	0.090144
C15	C	0.606236	0.067269	-0.000007
C16	C	0.652889	0.067746	-0.090166
C17	C	0.746171	0.068700	-0.090166
C18	C	0.458459	0.065760	-0.090159
C19	C	0.365170	0.064807	-0.090159
C20	C	0.365160	0.064805	0.090152
C21	C	0.458442	0.065758	0.090151
C22	C	0.505088	0.066236	-0.000008
C23	C	1.063445	-0.021616	0.000021
C24	C	1.062440	-0.075277	0.000031
C25	C	1.056131	-0.408020	-0.090168
C26	C	1.052318	-0.609695	-0.090186
O27	O	1.051794	-0.635766	-0.166856
N28	N	1.051835	-0.634917	-0.000036
C29	C	1.052299	-0.609717	0.090125
O30	O	1.051792	-0.635796	0.166803
C31	C	1.056106	-0.408041	0.090141
C32	C	1.056598	-0.382823	-0.000014
C33	C	1.056622	-0.382801	-0.180316
C34	C	1.057581	-0.332385	-0.180311
C35	C	1.058048	-0.307188	-0.090157
C36	C	1.057557	-0.332407	-0.000009
C37	C	1.056564	-0.382841	0.180301
C38	C	1.057514	-0.332419	0.180297
C39	C	1.058006	-0.307200	0.090141
C40	C	1.058982	-0.256795	0.090150
N41	N	1.059465	-0.231573	0.000000
C42	C	1.058998	-0.256770	-0.090154
C43	C	1.050302	-0.715599	0.090110
C44	C	1.049352	-0.766018	0.090106
C45	C	1.049369	-0.765993	-0.090205
C46	C	1.050325	-0.715574	-0.090200
C47	C	1.050785	-0.690377	-0.000040
C48	C	1.061011	-0.150893	-0.090136
C49	C	1.061973	-0.100474	-0.090122
C50	C	1.061952	-0.100502	0.090188
C51	C	1.060994	-0.150918	0.090175
C52	C	1.060521	-0.176112	0.000005
O53	O	1.059496	-0.230692	0.166780
O54	O	1.059486	-0.230680	-0.166820
C55	C	1.055173	-0.458435	-0.090173
C56	C	1.054682	-0.483654	-0.000025
C57	C	1.055149	-0.458457	0.090129
C58	C	1.053732	-0.534073	-0.000029
C59	C	1.053265	-0.559269	-0.090182
C60	C	1.053748	-0.534048	-0.180332
C61	C	1.054706	-0.483632	-0.180327
C62	C	1.054666	-0.483679	0.180279
C63	C	1.053709	-0.534094	0.180266
C64	C	1.053242	-0.559291	0.090112
C65	C	1.219243	0.063319	-0.000002
C66	C	1.318524	0.064329	-0.000007
C67	C	1.047881	0.155124	-0.000031
C68	C	1.048885	0.208785	-0.000048
N69	N	1.055645	0.066747	0.235353
N70	N	1.055688	0.066757	-0.235361
C71	C	1.116937	0.033935	0.287405
C72	C	1.116942	0.033934	0.391508
C73	C	1.055659	0.066749	0.443558
C74	C	0.994361	0.099564	0.391499
C75	C	0.994352	0.099562	0.287398
C76	C	0.994386	0.099567	0.608479
C77	C	0.994396	0.099570	0.712588
C78	C	1.116976	0.033940	0.712589
C79	C	1.116967	0.033937	0.608488
C80	C	1.055669	0.066753	0.556437
H81	H	0.614899	0.067347	0.163555
H82	H	1.166872	0.007219	0.566109
H83	H	0.327202	0.064421	-0.163569
Br84	Br	1.048706	-0.800238	0.212465
H85	H	0.944459	0.126281	0.433884
H86	H	1.056165	-0.403365	0.253716
Br87	Br	0.521766	0.066406	-0.212519
Br88	Br	0.521732	0.066410	0.212501
H89	H	1.062336	-0.079978	0.163589
H90	H	0.327176	0.064416	0.163563
H91	H	0.784118	0.069092	0.163555
Br92	Br	0.589604	0.067080	-0.212517
H93	H	1.057875	-0.311905	0.253718
H94	H	1.062376	-0.079943	-0.163541
Br95	Br	0.809480	0.069344	-0.212520
H96	H	1.048989	-0.786517	-0.163612
Br97	Br	1.200118	-0.010600	0.216776
Br98	Br	0.911160	0.144092	0.216756
H99	H	1.060621	-0.171400	-0.163560
H100	H	1.057978	-0.311857	-0.253725
H101	H	1.166886	0.007220	0.754976
Br102	Br	1.050993	-0.681354	-0.212558
H103	H	1.056239	-0.403311	-0.253734
Br104	Br	1.050918	-0.681410	0.212482
Br105	Br	0.911222	0.144107	0.783220
H106	H	1.055106	-0.463104	-0.253741
Br107	Br	1.060347	-0.185146	0.212530
H108	H	1.053371	-0.554572	-0.253739
Br109	Br	1.053048	-0.568314	0.302632
H110	H	1.055048	-0.463169	0.253694
Br111	Br	1.200122	-0.010600	0.462153
Br112	Br	0.911190	0.144101	0.537841
