data_functionalizedCrystal
_audit_creation_method	'MofGen! by Chris Wilmer'
_symmetry_space_group_name_H-M	'P1'
_symmetry_Int_Tables_number	1
_symmetry_cell_setting	triclinic
loop_
_symmetry_equiv_pos_as_xyz
  x,y,z
_cell_length_a	12.759400
_cell_length_b	19.077236
_cell_length_c	19.076919
_cell_angle_alpha	90.112677
_cell_angle_beta	92.280823
_cell_angle_gamma	87.703753
loop_
_atom_site_label
_atom_site_type_symbol
_atom_site_fract_x
_atom_site_fract_y
_atom_site_fract_z
Zn1	Zn	0.381374	1.058385	0.440583
Zn2	Zn	0.549742	1.063066	0.323095
Zn3	Zn	0.380823	0.945600	0.318363
Zn4	Zn	0.563758	0.940889	0.435834
O5	O	0.468925	1.001985	0.379469
O6	O	0.398073	1.157338	0.428965
O7	O	0.521238	1.051415	0.224135
O8	O	0.233875	0.960574	0.334583
O9	O	0.521772	1.160778	0.342647
O10	O	0.234280	1.043436	0.424377
O11	O	0.397134	0.965113	0.220659
O12	O	0.410726	0.846643	0.329978
O13	O	0.545661	0.952544	0.534796
O14	O	0.545127	0.843182	0.416284
O15	O	0.411664	1.038868	0.538285
O16	O	0.698623	1.046847	0.338043
O17	O	0.708920	0.957083	0.420872
C18	C	0.479388	0.819416	0.372103
C19	C	0.483891	0.741311	0.368968
C20	C	0.421714	0.702825	0.412506
C21	C	0.425939	0.629437	0.409554
C22	C	0.492348	0.594538	0.363069
C23	C	0.554527	0.633030	0.319527
C24	C	0.550296	0.706416	0.322475
C25	C	0.511893	0.375249	0.349421
C26	C	0.516122	0.301858	0.346478
C27	C	0.387532	0.298271	0.436505
C28	C	0.383311	0.371658	0.439452
C29	C	0.445486	0.410144	0.395907
N30	N	0.496671	0.519524	0.360052
N31	N	0.441157	0.485156	0.398921
C32	C	0.194891	1.002009	0.379482
C33	C	0.078114	1.002019	0.379488
C34	C	0.028615	0.955288	0.422613
C35	C	-0.081109	0.955301	0.422620
C36	C	-0.091827	1.048777	0.336372
C37	C	0.017895	1.048767	0.336368
C38	C	-0.224487	0.926894	0.504483
C39	C	-0.273989	0.880153	0.547601
C40	C	-0.233781	0.811153	0.555621
C41	C	-0.144073	0.788881	0.520511
C42	C	-0.094576	0.835619	0.477387
C43	C	-0.134782	0.904627	0.469381
C44	C	0.161275	1.077167	0.254505
C45	C	0.210773	1.123902	0.211377
C46	C	0.170567	1.192903	0.203350
C47	C	0.080855	1.215173	0.238448
C48	C	0.031356	1.168438	0.281576
C49	C	0.071570	1.099438	0.289603
C50	C	0.741892	1.001980	0.379471
C51	C	0.858667	1.002041	0.379499
C52	C	0.480288	0.994658	0.562749
C53	C	0.485130	0.991536	0.640852
C54	C	0.458421	1.185267	0.386864
C55	C	0.453945	1.263371	0.390015
C56	C	0.457528	1.009324	0.196903
C57	C	0.452381	1.012582	0.118805
C58	C	0.417643	1.035011	0.679363
C59	C	0.422189	1.032069	0.752749
C60	C	0.494228	0.985655	0.787623
C61	C	0.561718	0.942175	0.749107
C62	C	0.557166	0.945114	0.675722
C63	C	0.515319	0.972042	1.006905
C64	C	0.519868	0.969107	1.080295
C65	C	0.380338	1.059001	1.083932
C66	C	0.375796	1.061939	1.010545
C67	C	0.443282	1.018456	0.972036
N68	N	0.498880	0.982648	0.862635
N69	N	0.438625	1.021460	0.897025
H70	H	0.608594	0.604609	0.281674
O71	O	-0.150374	1.094082	0.294404
C72	C	-0.214377	1.055894	0.247419
H73	H	-0.178404	1.000722	0.240845
H74	H	-0.220430	1.083470	0.194367
H75	H	-0.296048	1.052610	0.269049
H76	H	0.570286	0.936645	0.975559
O77	O	0.218792	1.238313	0.161546
C78	C	0.323015	1.246003	0.186892
H79	H	0.329725	1.231838	0.244968
H80	H	0.345607	1.302681	0.179721
H81	H	0.377988	1.209712	0.156486
O82	O	0.572352	0.412698	0.307229
C83	C	0.640350	0.453549	0.348866
H84	H	0.606085	0.462428	0.402597
H85	H	0.649623	0.506291	0.322296
H86	H	0.720326	0.424963	0.355372
O87	O	0.041945	1.282230	0.230592
C88	C	0.104849	1.318697	0.184983
H89	H	0.186469	1.292129	0.184721
H90	H	0.111331	1.375208	0.203681
H91	H	0.067616	1.318243	0.129668
H92	H	0.367237	1.067473	0.784101
H93	H	0.600926	0.737751	0.287022
H94	H	0.077643	0.917228	0.457729
O95	O	-0.007419	0.813888	0.443361
C96	C	0.017441	0.742955	0.459667
H97	H	-0.017868	0.729270	0.511624
H98	H	0.106349	0.734141	0.464197
H99	H	-0.016054	0.708099	0.416366
O100	O	0.327285	0.260806	0.478828
C101	C	0.392460	0.216569	0.522457
H102	H	0.471115	0.206569	0.497148
H103	H	0.353248	0.164585	0.529847
H104	H	0.405719	0.242781	0.575655
H105	H	0.283825	1.105764	0.182801
H106	H	0.578534	0.931309	1.108687
H107	H	-0.111339	0.732695	0.527047
H108	H	-0.274094	0.773096	0.590728
H109	H	-0.347030	0.898293	0.576188
O110	O	-0.055752	1.190193	0.315648
C111	C	-0.080647	1.261113	0.299303
H112	H	-0.007297	1.287309	0.281843
H113	H	-0.111205	1.289126	0.347688
H114	H	-0.143568	1.264251	0.255165
H115	H	0.620370	0.904381	0.777507
O116	O	-0.263397	0.993964	0.496758
C117	C	-0.186607	1.040858	0.519797
H118	H	-0.128291	1.012854	0.558106
H119	H	-0.226038	1.087502	0.547110
H120	H	-0.143400	1.060137	0.472806
H121	H	0.317137	1.099736	0.982156
H122	H	0.194026	1.020982	0.261042
O123	O	0.347570	1.080117	0.645599
C124	C	0.288997	1.117869	0.695330
H125	H	0.290256	1.086991	0.746478
H126	H	0.204474	1.126221	0.674436
H127	H	0.324896	1.170921	0.705291
H128	H	0.325393	1.094400	1.115294
H129	H	0.375310	0.598105	0.445008
O130	O	0.318699	0.405448	0.484620
C131	C	0.264740	0.355741	0.522426
H132	H	0.262274	0.304572	0.491550
H133	H	0.181226	0.376637	0.530856
H134	H	0.307085	0.345820	0.575442
O135	O	0.622878	0.902965	0.638342
C136	C	0.727821	0.917589	0.656900
H137	H	0.731151	0.972915	0.679349
H138	H	0.777077	0.913475	0.608390
H139	H	0.760093	0.878204	0.697967
O140	O	0.357268	0.736643	0.457758
C141	C	0.385782	0.715937	0.527048
H142	H	0.429332	0.662600	0.526319
H143	H	0.312135	0.712164	0.558538
H144	H	0.438935	0.756303	0.552317
O145	O	0.580658	0.268066	0.301257
C146	C	0.634650	0.317770	0.263468
H147	H	0.588446	0.370174	0.263177
H148	H	0.643519	0.298764	0.207243
H149	H	0.715642	0.324563	0.289427
