data_functionalizedCrystal
_audit_creation_method	'MofGen! by Chris Wilmer'
_symmetry_space_group_name_H-M	'P1'
_symmetry_Int_Tables_number	1
_symmetry_cell_setting	triclinic
loop_
_symmetry_equiv_pos_as_xyz
  x,y,z
_cell_length_a	27.732064
_cell_length_b	27.731996
_cell_length_c	12.996460
_cell_angle_alpha	89.987889
_cell_angle_beta	90.002042
_cell_angle_gamma	82.635407
loop_
_atom_site_label
_atom_site_type_symbol
_atom_site_fract_x
_atom_site_fract_y
_atom_site_fract_z
O1	O	0.640912	0.057558	-0.085396
O2	O	0.500118	0.066295	-0.085441
O3	O	0.574901	-0.008472	-0.085395
O4	O	0.566129	0.132324	-0.085442
O5	O	0.574893	-0.008476	0.085739
O6	O	0.500110	0.066291	0.085693
O7	O	0.640904	0.057553	0.085737
Cu8	Cu	0.570506	0.061922	0.101341
Cu9	Cu	0.570515	0.061927	-0.101044
O10	O	0.566121	0.132320	0.085692
C11	C	0.482107	0.066108	0.000121
C12	C	0.428453	0.065552	0.000105
C13	C	0.051389	0.017584	0.000180
C14	C	0.253049	0.019630	0.000152
O15	O	0.284309	-0.017592	0.000203
N16	N	0.272168	0.063966	0.000133
C17	C	0.240869	0.107792	0.000127
O18	O	0.261758	0.145549	0.000120
C19	C	0.039210	0.105746	0.000162
C20	C	0.020094	0.061407	0.000171
C21	C	0.032272	-0.026751	0.000190
C22	C	-0.018140	-0.027262	0.000191
C23	C	-0.049435	0.016562	0.000182
C24	C	-0.030318	0.060896	0.000172
C25	C	0.007912	0.149572	0.000163
C26	C	-0.042506	0.149057	0.000175
C27	C	-0.061622	0.104718	0.000184
C28	C	-0.112026	0.104209	0.000164
N29	N	-0.131145	0.059873	0.000184
C30	C	-0.099849	0.016050	0.000193
C31	C	0.346743	0.108864	0.000107
C32	C	0.397158	0.109376	0.000096
C33	C	0.409334	0.021213	0.000123
C34	C	0.358919	0.020702	0.000127
C35	C	0.327624	0.064529	0.000126
C36	C	-0.205719	0.014980	0.000195
C37	C	-0.256136	0.014473	0.000192
C38	C	-0.268308	0.102635	0.000170
C39	C	-0.217895	0.103142	0.000167
C40	C	-0.186601	0.059311	0.000183
O41	O	-0.143313	0.141411	0.000125
O42	O	-0.120748	-0.021702	0.000222
C43	C	0.101801	0.018095	0.000179
C44	C	0.120918	0.062430	0.000168
C45	C	0.089623	0.106253	0.000159
C46	C	0.171332	0.062941	0.000158
C47	C	0.202628	0.019118	0.000167
C48	C	0.183508	-0.025218	0.000186
C49	C	0.133096	-0.025729	0.000187
C50	C	0.108742	0.150589	0.000140
C51	C	0.159154	0.151096	0.000138
C52	C	0.190450	0.107273	0.000146
C53	C	0.574717	-0.026482	0.000175
C54	C	0.574174	-0.080138	0.000186
C55	C	0.570763	-0.412852	-0.093151
C56	C	0.568702	-0.614510	-0.093169
O57	O	0.568419	-0.640579	-0.172505
N58	N	0.568442	-0.639730	0.000115
C59	C	0.568694	-0.614531	0.093410
O60	O	0.568421	-0.640608	0.172754
C61	C	0.570752	-0.412873	0.093428
C62	C	0.571017	-0.387657	0.000138
C63	C	0.571028	-0.387636	-0.186433
C64	C	0.571546	-0.337225	-0.186428
C65	C	0.571799	-0.312030	-0.093139
C66	C	0.571535	-0.337246	0.000143
C67	C	0.571000	-0.387675	0.186722
C68	C	0.571513	-0.337257	0.186718
C69	C	0.571778	-0.312041	0.093428
C70	C	0.572306	-0.261640	0.093437
N71	N	0.572566	-0.236420	0.000153
C72	C	0.572313	-0.261615	-0.093135
C73	C	0.567615	-0.720404	0.093394
C74	C	0.567101	-0.770819	0.093390
C75	C	0.567109	-0.770795	-0.093190
C76	C	0.567626	-0.720380	-0.093185
C77	C	0.567875	-0.695185	0.000110
C78	C	0.573401	-0.155748	-0.093116
C79	C	0.573921	-0.105333	-0.093102
C80	C	0.573911	-0.105361	0.093477
C81	C	0.573393	-0.155772	0.093464
C82	C	0.573137	-0.180965	0.000159
O83	O	0.572584	-0.235539	0.172732
O84	O	0.572575	-0.235528	-0.172467
C85	C	0.570245	-0.463263	-0.093156
C86	C	0.569981	-0.488479	0.000126
C87	C	0.570234	-0.463284	0.093415
C88	C	0.569467	-0.538894	0.000122
C89	C	0.569214	-0.564089	-0.093166
C90	C	0.569474	-0.538870	-0.186450
C91	C	0.569992	-0.488458	-0.186444
C92	C	0.569974	-0.488504	0.186699
C93	C	0.569457	-0.538915	0.186685
C94	C	0.569203	-0.564110	0.093397
C95	C	0.658915	0.057740	0.000174
C96	C	0.712569	0.058296	0.000183
C97	C	0.566305	0.150330	0.000119
C98	C	0.566848	0.203986	0.000102
N99	N	0.570504	0.061918	0.243688
N100	N	0.570522	0.061926	-0.243391
C101	C	0.570515	0.061927	0.663503
C102	C	0.570510	0.061926	0.546697
C103	C	0.570509	0.061923	0.453599
C104	C	0.570504	0.061921	0.336787
H105	H	0.083265	0.186276	0.000134
H106	H	-0.180245	-0.020712	0.000207
H107	H	0.057749	-0.062439	0.000201
O108	O	0.573216	-0.180273	-0.183691
C109	C	0.614545	-0.242935	-0.292032
C110	C	0.614806	-0.215210	-0.189409
H111	H	0.648172	-0.271180	-0.296698
H112	H	0.580484	-0.261893	-0.296743
H113	H	0.614799	-0.216229	-0.358668
H114	H	0.614569	-0.241884	-0.122714
H115	H	0.648864	-0.196244	-0.184787
H116	H	0.321266	0.144555	0.000105
O117	O	0.571687	-0.312825	0.277411
C118	C	0.529916	-0.291602	0.436823
C119	C	0.529666	-0.319302	0.334167
H120	H	0.495941	-0.296820	0.482731
H121	H	0.563628	-0.306202	0.482921
H122	H	0.530353	-0.251244	0.420779
H123	H	0.529212	-0.359664	0.350118
H124	H	0.495958	-0.304662	0.288101
H125	H	0.174713	0.187204	0.000123
H126	H	0.574137	-0.084804	-0.169074
H127	H	0.570785	-0.408197	0.262689
O128	O	0.570138	-0.464002	0.277298
C129	C	0.528848	-0.401292	0.385580
C130	C	0.528592	-0.429006	0.282942
H131	H	0.495268	-0.372985	0.390167
H132	H	0.528542	-0.427957	0.452282
H133	H	0.562948	-0.382395	0.390246
H134	H	0.494498	-0.447904	0.278175
H135	H	0.528924	-0.402319	0.216289
H136	H	0.573182	-0.176305	0.169428
O137	O	0.566929	-0.795347	0.183982
C138	C	0.608204	-0.858090	0.292266
C139	C	0.608474	-0.830344	0.189644
H140	H	0.641784	-0.886398	0.296867
H141	H	0.608501	-0.831446	0.358983
H142	H	0.574104	-0.876988	0.296888
H143	H	0.642568	-0.811444	0.184921
H144	H	0.608152	-0.857010	0.122975
O145	O	0.574082	-0.080920	0.184153
C146	C	0.532297	-0.059679	0.343542
C147	C	0.532058	-0.087394	0.240902
H148	H	0.498319	-0.064895	0.389443
H149	H	0.566006	-0.074269	0.389658
H150	H	0.532730	-0.019323	0.327473
H151	H	0.531607	-0.127755	0.256877
H152	H	0.498352	-0.072765	0.194818
H153	H	0.567820	-0.699896	0.169370
O154	O	0.026392	0.192686	0.000208
C155	C	0.008972	0.280075	0.000152
C156	C	-0.012020	0.231281	0.000121
H157	H	-0.022074	0.311292	0.000060
H158	H	0.032254	0.282549	0.071788
H159	H	0.032284	0.282506	-0.071450
H160	H	-0.035354	0.228817	0.071675
H161	H	-0.035274	0.228828	-0.071562
O162	O	-0.072954	0.191600	0.000033
C163	C	-0.136921	0.242210	-0.088667
C164	C	-0.102476	0.194009	-0.088618
H165	H	-0.160791	0.244179	-0.160344
H166	H	-0.160860	0.244179	-0.017096
H167	H	-0.114584	0.273976	-0.088625
H168	H	-0.124774	0.162216	-0.088696
H169	H	-0.078535	0.192082	-0.160183
H170	H	-0.033699	-0.063367	0.000203
O171	O	0.571685	-0.312688	-0.277014
C172	C	0.530243	-0.250058	-0.385336
C173	C	0.530065	-0.277784	-0.282675
H174	H	0.496592	-0.221839	-0.389956
H175	H	0.564280	-0.231068	-0.390158
H176	H	0.529973	-0.276769	-0.451936
H177	H	0.530318	-0.251105	-0.216018
H178	H	0.496031	-0.296781	-0.277943
O179	O	0.570806	-0.412034	-0.277153
C180	C	0.570847	-0.406670	-0.462211
C181	C	0.571106	-0.378985	-0.359538
H182	H	0.571080	-0.379960	-0.528846
H183	H	0.604458	-0.434934	-0.466942
H184	H	0.536775	-0.425611	-0.466851
H185	H	0.605156	-0.360014	-0.354829
H186	H	0.537472	-0.350747	-0.354851
H187	H	0.570208	-0.467932	-0.262411
H188	H	0.567841	-0.699852	-0.169150
H189	H	-0.202330	0.139246	0.000159
O190	O	0.340432	-0.022411	0.000187
C191	C	0.357844	-0.109801	0.000144
C192	C	0.378841	-0.061009	0.000097
H193	H	0.388888	-0.141020	0.000049
H194	H	0.334571	-0.112284	0.071786
H195	H	0.334524	-0.112217	-0.071452
H196	H	0.402184	-0.058560	0.071644
H197	H	0.402088	-0.058546	-0.071593
H198	H	-0.271697	-0.021635	0.000196
H199	H	0.566903	-0.791317	-0.169149
H200	H	0.569270	-0.559392	-0.262409
H201	H	0.434824	-0.014470	0.000127
O202	O	0.569112	-0.563370	0.277346
C203	C	0.527053	-0.572975	0.436818
C204	C	0.527385	-0.545256	0.334175
H205	H	0.493327	-0.558334	0.482803
H206	H	0.526606	-0.613338	0.420875
H207	H	0.561007	-0.567753	0.482798
H208	H	0.493438	-0.550439	0.288144
H209	H	0.527858	-0.504903	0.350191
O210	O	0.415643	0.152489	0.000121
C211	C	0.398231	0.239879	0.000039
C212	C	0.377234	0.191087	0.000028
H213	H	0.367187	0.271098	-0.000058
H214	H	0.421515	0.242355	0.071671
H215	H	0.421542	0.242302	-0.071568
H216	H	0.353902	0.188630	0.071586
H217	H	0.353978	0.188631	-0.071651
H218	H	-0.293798	0.138315	0.000157
H219	H	0.117537	-0.061833	0.000195
O220	O	0.213963	-0.067757	0.000058
C221	C	0.277935	-0.118347	-0.088615
C222	C	0.243479	-0.070152	-0.088593
H223	H	0.301801	-0.120304	-0.160293
H224	H	0.301878	-0.120315	-0.017044
H225	H	0.255607	-0.150119	-0.088552
H226	H	0.265769	-0.038353	-0.088692
H227	H	0.219535	-0.068227	-0.160157
