data_functionalizedCrystal
_audit_creation_method	'MofGen! by Chris Wilmer'
_symmetry_space_group_name_H-M	'P1'
_symmetry_Int_Tables_number	1
_symmetry_cell_setting	triclinic
loop_
_symmetry_equiv_pos_as_xyz
  x,y,z
_cell_length_a	14.971475
_cell_length_b	11.026607
_cell_length_c	14.048226
_cell_angle_alpha	89.998682
_cell_angle_beta	90.003971
_cell_angle_gamma	83.902152
loop_
_atom_site_label
_atom_site_type_symbol
_atom_site_fract_x
_atom_site_fract_y
_atom_site_fract_z
O1	O	-1.212285	0.158111	-0.079138
O2	O	-0.954921	0.177067	-0.079144
O3	O	-1.062273	-0.009093	-0.079138
O4	O	-1.104933	0.344272	-0.079144
O5	O	-1.062260	-0.009095	0.079183
O6	O	-0.954908	0.177066	0.079177
O7	O	-1.212272	0.158110	0.079183
Zn8	Zn	-1.083588	0.167588	0.104317
Zn9	Zn	-1.083605	0.167590	-0.104278
O10	O	-1.104920	0.344271	0.079177
C11	C	-0.921454	0.176221	0.000016
C12	C	-0.821751	0.173688	0.000014
C13	C	-0.774907	0.172494	0.086315
C14	C	-0.681224	0.170094	0.086316
C15	C	-0.634386	0.168897	0.000014
C16	C	-0.681236	0.170088	-0.086295
C17	C	-0.774917	0.172479	-0.086294
C18	C	-0.485975	0.165107	-0.086290
C19	C	-0.392288	0.162718	-0.086290
C20	C	-0.392282	0.162723	0.086321
C21	C	-0.485963	0.165114	0.086321
C22	C	-0.532807	0.166306	0.000012
C23	C	-1.054396	-0.054316	0.000021
C24	C	-1.030935	-0.189063	0.000017
C25	C	-1.095715	-0.262778	0.000018
C26	C	-1.071468	-0.402046	0.000013
C27	C	-0.245739	0.158965	0.000020
C28	C	-0.345445	0.161524	0.000011
C29	C	-1.112797	0.389493	0.000016
C30	C	-1.136257	0.524240	0.000014
N31	N	-1.083582	0.167585	0.246678
N32	N	-1.083616	0.167582	-0.246639
C33	C	-1.149700	0.241324	0.296492
C34	C	-1.149710	0.241319	0.396149
C35	C	-1.083599	0.167581	0.445991
C36	C	-1.017478	0.093834	0.396171
C37	C	-1.017471	0.093833	0.296515
C38	C	-1.017494	0.093842	0.603885
C39	C	-1.017499	0.093844	0.703548
C40	C	-1.149733	0.241327	0.703520
C41	C	-1.149727	0.241327	0.603864
C42	C	-1.083604	0.167581	0.554050
H43	H	-0.813056	0.173453	-0.156570
H44	H	-0.354155	0.161745	-0.156565
H45	H	-0.524112	0.166079	-0.156571
C46	C	-0.629711	0.168767	-0.181228
N47	N	-0.590903	0.167777	-0.252734
H48	H	-1.169125	-0.222784	0.000025
H49	H	-0.957525	-0.229057	0.000010
C50	C	-1.222429	0.322442	0.241675
N51	N	-1.277214	0.383539	0.200389
H52	H	-0.963631	0.033788	0.255958
C53	C	-0.340752	0.161402	0.181261
N54	N	-0.301936	0.160410	0.252768
C55	C	-0.972287	-0.456064	0.000013
N56	N	-0.897585	-0.496753	0.000015
C57	C	-1.235440	-0.421745	0.000017
N58	N	-1.310142	-0.381059	0.000021
H59	H	-1.203551	0.301362	0.436704
H60	H	-1.203557	0.301377	0.563285
H61	H	-1.203569	0.301379	0.744083
C62	C	-0.537483	0.166432	0.181258
N63	N	-0.576288	0.167420	0.252766
H64	H	-0.963664	0.033801	0.744126
H65	H	-0.963651	0.033789	0.563329
C66	C	-0.944752	0.012724	0.451000
N67	N	-0.889971	-0.048365	0.492297
H68	H	-0.813037	0.173479	0.156593
H69	H	-0.643087	0.169102	0.156592
