data_functionalizedCrystal
_audit_creation_method	'MofGen! by Chris Wilmer'
_symmetry_space_group_name_H-M	'P1'
_symmetry_Int_Tables_number	1
_symmetry_cell_setting	triclinic
loop_
_symmetry_equiv_pos_as_xyz
  x,y,z
_cell_length_a	12.759401
_cell_length_b	18.050590
_cell_length_c	12.759393
_cell_angle_alpha	89.965321
_cell_angle_beta	89.979062
_cell_angle_gamma	90.020077
loop_
_atom_site_label
_atom_site_type_symbol
_atom_site_fract_x
_atom_site_fract_y
_atom_site_fract_z
Zn1	Zn	1.606238	-0.295593	-0.593990
Zn2	Zn	1.606118	-0.419801	-0.418297
Zn3	Zn	1.430537	-0.295633	-0.418325
Zn4	Zn	1.430517	-0.419749	-0.593934
O5	O	1.518352	-0.357694	-0.506136
O6	O	1.753243	-0.312075	-0.570695
O7	O	1.582784	-0.403368	-0.271279
O8	O	1.453903	-0.191703	-0.441662
O9	O	1.753155	-0.403330	-0.441614
O10	O	1.582990	-0.191674	-0.570722
O11	O	1.453786	-0.312142	-0.271300
O12	O	1.283513	-0.312092	-0.441608
O13	O	1.453869	-0.403241	-0.740963
O14	O	1.283499	-0.403280	-0.570628
O15	O	1.582971	-0.312025	-0.741003
O16	O	1.582765	-0.523719	-0.441561
O17	O	1.453752	-0.523681	-0.570601
C18	C	1.245385	-0.357685	-0.506115
C19	C	1.128608	-0.357699	-0.506131
C20	C	1.518272	-0.550646	-0.506094
C21	C	1.518333	-0.633192	-0.506112
C22	C	1.073766	-0.405253	-0.573206
C23	C	0.964042	-0.405256	-0.573227
C24	C	0.964012	-0.310149	-0.439089
C25	C	1.073734	-0.310143	-0.439075
C26	C	1.588636	-0.832636	-0.436038
C27	C	1.614306	-0.881961	-0.531925
C28	C	1.518393	-0.784322	-0.506154
C29	C	1.492831	-0.882079	-0.410310
C30	C	1.518452	-0.930307	-0.506186
C31	C	1.544111	-0.832560	-0.602091
C32	C	1.422592	-0.832674	-0.480411
C33	C	1.448224	-0.881976	-0.576364
C34	C	1.518361	-0.700224	-0.506134
C35	C	1.518484	-1.014404	-0.506216
C36	C	1.792386	-0.357704	-0.506158
C37	C	1.909162	-0.357708	-0.506167
C38	C	1.518431	-0.357623	-0.780170
C39	C	1.518465	-0.357592	-0.896947
C40	C	1.518462	-0.163989	-0.506201
C41	C	1.518509	-0.081443	-0.506229
C42	C	1.585693	-0.310088	-0.951831
C43	C	1.585711	-0.310056	-1.061556
C44	C	1.451269	-0.405039	-1.061500
C45	C	1.451247	-0.405067	-0.951778
C46	C	1.518335	-0.357712	-0.233169
C47	C	1.518505	-0.357533	-0.116393
H48	H	1.118442	-0.443974	-0.627811
H49	H	1.640423	-0.271430	-0.907191
H50	H	1.341572	-0.811006	-0.458589
H51	H	1.640453	-0.271372	-1.106238
C52	C	0.903648	-0.257845	-0.365321
C53	C	0.782958	-0.257852	-0.365328
C54	C	0.722596	-0.205550	-0.291555
C55	C	0.782924	-0.153240	-0.217774
C56	C	0.903621	-0.153231	-0.217765
C57	C	0.963983	-0.205533	-0.291538
H58	H	0.738293	-0.296577	-0.419947
H59	H	0.633248	-0.205557	-0.291562
H60	H	0.738241	-0.114522	-0.163163
H61	H	0.948286	-0.114506	-0.163146
H62	H	1.053331	-0.205526	-0.291531
C63	C	1.723783	-0.911219	-0.561369
C64	C	1.737876	-0.959953	-0.659382
C65	C	1.847355	-0.989208	-0.688817
C66	C	1.942742	-0.969729	-0.620240
C67	C	1.928653	-0.920993	-0.522222
C68	C	1.819174	-0.891738	-0.492786
H69	H	1.667262	-0.974375	-0.710152
H70	H	1.857784	-1.025286	-0.761378
H71	H	2.023785	-0.991386	-0.642030
H72	H	1.999267	-0.906571	-0.471451
H73	H	1.808744	-0.855660	-0.420226
H74	H	0.919395	-0.443978	-0.627847
H75	H	1.396545	-0.443693	-1.106158
C76	C	1.134066	-0.257832	-0.365282
C77	C	1.119019	-0.173415	-0.374068
C78	C	1.179350	-0.121105	-0.300281
C79	C	1.254730	-0.153214	-0.217708
C80	C	1.269781	-0.237636	-0.208919
C81	C	1.209449	-0.289946	-0.282706
H82	H	1.063215	-0.149642	-0.435196
H83	H	1.168208	-0.058610	-0.306787
H84	H	1.299391	-0.114492	-0.163086
H85	H	1.325584	-0.261409	-0.147790
H86	H	1.220592	-0.352441	-0.276199
C87	C	1.463579	-0.911462	-0.300796
C88	C	1.365621	-0.960306	-0.286566
C89	C	1.336380	-0.989686	-0.177051
C90	C	1.405097	-0.970221	-0.081766
C91	C	1.503061	-0.921374	-0.095993
C92	C	1.532302	-0.891995	-0.205508
H93	H	1.314747	-0.974717	-0.357104
H94	H	1.263860	-1.025845	-0.166519
H95	H	1.383451	-0.991970	-0.000696
H96	H	1.553935	-0.906963	-0.025455
H97	H	1.604822	-0.855835	-0.216040
H98	H	1.396494	-0.443750	-0.907090
C99	C	1.668906	-0.803360	-0.356018
C100	C	1.682945	-0.719329	-0.340653
C101	C	1.763216	-0.690051	-0.260641
C102	C	1.829448	-0.744802	-0.195994
C103	C	1.815410	-0.828838	-0.211357
C104	C	1.735139	-0.858116	-0.291369
H105	H	1.633915	-0.678794	-0.388511
H106	H	1.773608	-0.627842	-0.249269
H107	H	1.888869	-0.723129	-0.136765
H108	H	1.864441	-0.869373	-0.163500
H109	H	1.724748	-0.920325	-0.302742
H110	H	1.565676	-0.810901	-0.683228
H111	H	1.388847	-0.903504	-0.635741
