data_functionalizedCrystal
_audit_creation_method	'MofGen! by Chris Wilmer'
_symmetry_space_group_name_H-M	'P1'
_symmetry_Int_Tables_number	1
_symmetry_cell_setting	triclinic
loop_
_symmetry_equiv_pos_as_xyz
  x,y,z
_cell_length_a	19.288864
_cell_length_b	14.971486
_cell_length_c	14.048226
_cell_angle_alpha	89.996181
_cell_angle_beta	89.981310
_cell_angle_gamma	83.375187
loop_
_atom_site_label
_atom_site_type_symbol
_atom_site_fract_x
_atom_site_fract_y
_atom_site_fract_z
O1	O	-0.921713	-0.111578	0.079466
O2	O	-0.421713	0.388422	0.579466
O3	O	-0.719501	-0.126630	0.079401
O4	O	-0.219501	0.373370	0.579401
O5	O	-0.826027	0.011125	0.079429
O6	O	-0.326027	0.511125	0.579429
O7	O	-0.815187	-0.249333	0.079439
O8	O	-0.315187	0.250667	0.579439
O9	O	-0.826016	0.011127	-0.078892
O10	O	-0.326016	0.511127	0.421108
O11	O	-0.719491	-0.126629	-0.078920
O12	O	-0.219491	0.373371	0.421080
O13	O	-0.921702	-0.111577	-0.078855
O14	O	-0.421702	0.388423	0.421145
Zn15	Zn	-0.820595	-0.119103	-0.104024
Zn16	Zn	-0.320595	0.380897	0.395976
Zn17	Zn	-0.820608	-0.119104	0.104571
Zn18	Zn	-0.320608	0.380896	0.604571
O19	O	-0.815177	-0.249332	-0.078882
O20	O	-0.315177	0.250668	0.421118
C21	C	-0.693618	-0.126145	0.000232
C22	C	-0.193618	0.373855	0.500232
C23	C	-0.616510	-0.124691	0.000207
C24	C	-0.116510	0.375309	0.500207
C25	C	-0.825537	0.044448	0.000268
C26	C	-0.325537	0.544448	0.500268
C27	C	-0.824084	0.143737	0.000269
C28	C	-0.324084	0.643737	0.500269
C29	C	-0.947585	-0.112062	0.000316
C30	C	-0.447585	0.387938	0.500316
C31	C	-1.024694	-0.113516	0.000347
C32	C	-0.524694	0.386484	0.500347
C33	C	-0.572077	-0.205520	0.000226
C34	C	-0.072077	0.294480	0.500226
C35	C	-0.499625	-0.204154	0.000236
C36	C	0.000375	0.295846	0.500236
C37	C	-0.471610	-0.121955	0.000247
C38	C	0.028390	0.378045	0.500247
C39	C	-0.516052	-0.041116	0.000224
C40	C	-0.016052	0.458884	0.500224
C41	C	-0.588502	-0.042484	0.000204
C42	C	-0.088502	0.457516	0.500204
C43	C	-0.363141	-0.057338	0.055744
C44	C	0.136859	0.442662	0.555744
C45	C	-0.290692	-0.055973	0.055770
C46	C	0.209308	0.444027	0.555770
C47	C	-0.248150	-0.117732	0.000305
C48	C	0.251850	0.382268	0.500305
C49	C	-0.278065	-0.180870	-0.055174
C50	C	0.221935	0.319130	0.444826
C51	C	-0.350515	-0.182239	-0.055194
C52	C	0.149485	0.317761	0.444806
C53	C	-0.393051	-0.120462	0.000269
C54	C	0.106949	0.379538	0.500269
C55	C	-0.125157	-0.197085	0.000333
C56	C	0.374843	0.302915	0.500333
C57	C	-0.052704	-0.195715	0.000338
C58	C	0.447296	0.304285	0.500338
C59	C	-0.069133	-0.032675	0.000335
C60	C	0.430867	0.467325	0.500335
C61	C	-0.141584	-0.034046	0.000321
C62	C	0.358416	0.465954	0.500321
C63	C	-0.169591	-0.116254	0.000324
C64	C	0.330409	0.383746	0.500324
C65	C	-0.815667	-0.282655	0.000280
C66	C	-0.315667	0.217345	0.500280
C67	C	-0.817119	-0.381944	0.000286
C68	C	-0.317119	0.118056	0.500286
C69	C	-0.886665	0.201301	0.000288
C70	C	-0.386665	0.701301	0.500288
C71	C	-0.885296	0.294593	0.000297
C72	C	-0.385296	0.794593	0.500297
C73	C	-0.821345	0.330320	0.000280
C74	C	-0.321345	0.830320	0.500280
C75	C	-0.758759	0.272749	0.000264
C76	C	-0.258759	0.772749	0.500264
C77	C	-0.760129	0.179458	0.000261
C78	C	-0.260129	0.679458	0.500261
C79	C	-0.755909	0.467196	0.000266
C80	C	-0.255909	0.967196	0.500266
C81	C	-0.754538	0.560492	0.000267
C82	C	-0.254538	1.060492	0.500267
C83	C	-0.881075	0.582330	0.000302
C84	C	-0.381075	1.082330	0.500302
C85	C	-0.882445	0.489040	0.000300
C86	C	-0.382445	0.989040	0.500300
C87	C	-0.819859	0.431475	0.000281
C88	C	-0.319859	0.931475	0.500281
N89	N	-0.820591	-0.119101	-0.246385
N90	N	-0.320591	0.380899	0.253615
C91	C	-0.862759	-0.173214	-0.296182
C92	C	-0.362759	0.326786	0.203818
C93	C	-0.862768	-0.173210	-0.395840
C94	C	-0.362768	0.326790	0.104160
C95	C	-0.820605	-0.119097	-0.445698
C96	C	-0.320605	0.380903	0.054302
C97	C	-0.778435	-0.064978	-0.395894
C98	C	-0.278435	0.435022	0.104106
C99	C	-0.778430	-0.064978	-0.296238
C100	C	-0.278430	0.435022	0.203762
C101	C	-0.778446	-0.064984	-0.603608
C102	C	-0.278446	0.435016	-0.103608
C103	C	-0.778450	-0.064985	-0.703271
C104	C	-0.278450	0.435015	-0.203271
C105	C	-0.862784	-0.173217	-0.703210
C106	C	-0.362784	0.326783	-0.203210
C107	C	-0.862780	-0.173216	-0.603554
C108	C	-0.362780	0.326784	-0.103554
C109	C	-0.820609	-0.119098	-0.553757
C110	C	-0.320609	0.380902	-0.053757
N111	N	-0.820618	-0.119099	0.246932
N112	N	-0.320618	0.380901	0.746932
H113	H	-0.594875	-0.272460	0.000230
H114	H	-0.094875	0.227540	0.500230
Br115	Br	-0.667747	0.608978	0.000239
Br116	Br	-0.167747	1.108978	0.500239
Br117	Br	-0.721210	0.008477	-0.228655
Br118	Br	-0.221210	0.508477	0.271345
Br119	Br	-0.969236	0.440554	0.000325
Br120	Br	-0.469236	0.940554	0.500325
H121	H	-0.624680	0.023339	0.000190
H122	H	-0.124680	0.523339	0.500190
Br123	Br	-0.439312	-0.313858	0.000255
Br124	Br	0.060688	0.186142	0.500255
Br125	Br	-0.721227	0.008481	-0.536026
Br126	Br	-0.221227	0.508481	-0.036026
Br127	Br	-0.973460	0.152825	0.000298
Br128	Br	-0.473460	0.652825	0.500298
H129	H	-0.374869	-0.233645	-0.100369
H130	H	0.125131	0.266355	0.399631
Br131	Br	0.007600	-0.305422	0.000354
Br132	Br	0.507600	0.194578	0.500354
H133	H	-0.897107	-0.217273	-0.436381
H134	H	-0.397107	0.282727	0.063619
Br135	Br	-0.250099	0.029703	0.131074
Br136	Br	0.249901	0.529703	0.631074
H137	H	-0.897119	-0.217285	-0.743760
H138	H	-0.397119	0.282715	-0.243760
H139	H	-0.744116	-0.020923	-0.743863
H140	H	-0.244116	0.479077	-0.243863
H141	H	-0.177762	0.031773	0.000311
H142	H	0.322238	0.531773	0.500311
Br143	Br	-0.420869	0.026488	0.131022
Br144	Br	0.079131	0.526488	0.631022
Br145	Br	-0.220340	-0.264695	-0.130450
Br146	Br	0.279660	0.235305	0.369550
Br147	Br	-0.721215	0.008466	-0.463558
Br148	Br	-0.221215	0.508466	0.036442
H149	H	-0.709169	0.132590	0.000246
H150	H	-0.209169	0.632590	0.500246
Br151	Br	-0.031120	0.078884	0.000335
Br152	Br	0.468880	0.578884	0.500335
Br153	Br	-0.478033	0.070441	0.000230
Br154	Br	0.021967	0.570441	0.500230
Br155	Br	-0.163171	-0.308649	0.000331
Br156	Br	0.336829	0.191351	0.500331
Br157	Br	-0.670970	0.389072	0.000245
Br158	Br	-0.170970	0.889072	0.500245
Br159	Br	-0.970231	0.372713	0.000324
Br160	Br	-0.470231	0.872713	0.500324
Br161	Br	-0.671968	0.321233	0.000256
Br162	Br	-0.171968	0.821233	0.500256
Br163	Br	-0.919982	-0.246661	-0.228527
Br164	Br	-0.419982	0.253339	0.271473
Br165	Br	-0.919982	-0.246682	-0.535889
Br166	Br	-0.419982	0.253318	-0.035889
H167	H	-0.932035	0.629204	0.000320
H168	H	-0.432035	1.129204	0.500320
