data_functionalizedCrystal
_audit_creation_method	'MofGen! by Chris Wilmer'
_symmetry_space_group_name_H-M	'P1'
_symmetry_Int_Tables_number	1
_symmetry_cell_setting	triclinic
loop_
_symmetry_equiv_pos_as_xyz
  x,y,z
_cell_length_a	16.120484
_cell_length_b	16.120566
_cell_length_c	11.169409
_cell_angle_alpha	87.076307
_cell_angle_beta	87.139270
_cell_angle_gamma	89.831930
loop_
_atom_site_label
_atom_site_type_symbol
_atom_site_fract_x
_atom_site_fract_y
_atom_site_fract_z
Zn1	Zn	-0.395513	-1.254511	0.799019
Zn2	Zn	0.104487	-0.754511	1.299019
Zn3	Zn	-0.534592	-1.247345	0.607939
Zn4	Zn	-0.034592	-0.747345	1.107939
Zn5	Zn	-0.388503	-1.115441	0.587680
Zn6	Zn	0.111497	-0.615441	1.087680
Zn7	Zn	-0.527468	-1.108363	0.797909
Zn8	Zn	-0.027468	-0.608363	1.297909
O9	O	-0.461519	-1.181415	0.698137
O10	O	0.038481	-0.681415	1.198137
O11	O	-0.419878	-1.369927	0.782615
O12	O	0.080122	-0.869927	1.282615
O13	O	-0.515261	-1.229811	0.437303
O14	O	-0.015261	-0.729811	0.937303
O15	O	-0.273071	-1.139850	0.607700
O16	O	0.226929	-0.639850	1.107700
O17	O	-0.522059	-1.364662	0.642230
O18	O	-0.022059	-0.864662	1.142230
O19	O	-0.278221	-1.242024	0.762970
O20	O	0.221779	-0.742024	1.262970
O21	O	-0.407930	-1.132901	0.422418
O22	O	0.092070	-0.632901	0.922418
O23	O	-0.401022	-0.998136	0.606624
O24	O	0.098978	-0.498136	1.106624
O25	O	-0.509916	-1.127787	0.966005
O26	O	-0.009916	-0.627787	1.466005
O27	O	-0.503119	-0.992936	0.761079
O28	O	-0.003119	-0.492936	1.261079
O29	O	-0.412970	-1.235161	0.966820
O30	O	0.087030	-0.735161	1.466820
O31	O	-0.650010	-1.222948	0.641154
O32	O	-0.150010	-0.722948	1.141154
O33	O	-0.644775	-1.120839	0.780724
O34	O	-0.144775	-0.620839	1.280724
C35	C	-0.450537	-0.965364	0.681533
C36	C	0.049463	-0.465364	1.181533
C37	C	-0.445859	-0.872935	0.674460
C38	C	0.054141	-0.372935	1.174460
C39	C	-0.677565	-1.170370	0.713045
C40	C	-0.177565	-0.670370	1.213045
C41	C	-0.769994	-1.165721	0.719468
C42	C	-0.269994	-0.665721	1.219468
C43	C	-0.939224	-1.157239	0.731221
C44	C	-0.439224	-0.657239	1.231221
C45	C	-0.982981	-1.205741	0.665083
C46	C	-0.482981	-0.705741	1.165083
C47	C	-1.077146	-1.201021	0.671623
C48	C	-0.577146	-0.701021	1.171623
C49	C	-0.845050	-1.161957	0.724683
C50	C	-0.345050	-0.661957	1.224683
C51	C	-0.437298	-0.703707	0.661555
C52	C	0.062702	-0.203707	1.161555
C53	C	-0.485812	-0.659960	0.734733
C54	C	0.014188	-0.159960	1.234733
C55	C	-0.481049	-0.565796	0.727552
C56	C	0.018951	-0.065796	1.227552
C57	C	-0.442060	-0.797880	0.668734
C58	C	0.057940	-0.297880	1.168734
C59	C	-0.244631	-1.192526	0.683199
C60	C	0.255369	-0.692526	1.183199
C61	C	-0.152206	-1.197260	0.676833
C62	C	0.347794	-0.697260	1.176833
C63	C	-0.461430	-1.181484	1.011178
C64	C	0.038570	-0.681484	1.511178
C65	C	-0.461392	-1.181513	1.144577
C66	C	0.038608	-0.681513	1.644577
C67	C	-0.472547	-0.398310	0.714786
C68	C	0.027453	0.101690	1.214786
C69	C	-0.477254	-0.490738	0.721832
C70	C	0.022746	0.009262	1.221832
C71	C	-0.461550	-1.181398	0.386313
C72	C	0.038450	-0.681398	0.886313
C73	C	-0.461362	-1.181542	0.252910
C74	C	0.038638	-0.681542	0.752910
H75	H	-0.949722	-1.250808	0.603549
H76	H	-0.449722	-0.750808	1.103549
Br77	Br	-0.994655	-1.082125	0.833775
Br78	Br	-0.494655	-0.582125	1.333775
H79	H	-0.530921	-0.693227	0.802776
H80	H	-0.030921	-0.193227	1.302776
H81	H	-0.392192	-0.670442	0.593519
H82	H	0.107808	-0.170442	1.093519
