data_functionalizedCrystal
_audit_creation_method	'MofGen! by Chris Wilmer'
_symmetry_space_group_name_H-M	'P1'
_symmetry_Int_Tables_number	1
_symmetry_cell_setting	triclinic
loop_
_symmetry_equiv_pos_as_xyz
  x,y,z
_cell_length_a	14.971491
_cell_length_b	15.625429
_cell_length_c	14.048226
_cell_angle_alpha	71.916421
_cell_angle_beta	89.991693
_cell_angle_gamma	83.939107
loop_
_atom_site_label
_atom_site_type_symbol
_atom_site_fract_x
_atom_site_fract_y
_atom_site_fract_z
O1	O	1.186966	0.117509	-0.119758
O2	O	0.926569	0.131574	-0.124605
O3	O	1.063723	-0.006689	-0.076883
O4	O	1.049812	0.255772	-0.167480
O5	O	1.063706	-0.006697	0.081441
O6	O	0.926552	0.131566	0.033719
O7	O	1.186949	0.117501	0.038566
Zn8	Zn	1.056748	0.124532	0.061280
Zn9	Zn	1.056770	0.124543	-0.147319
O10	O	1.049795	0.255764	-0.009156
C11	C	0.893236	0.130940	-0.045225
C12	C	0.793938	0.129053	-0.044570
C13	C	0.366240	0.120913	-0.128084
C14	C	0.459541	0.122683	-0.128691
C15	C	0.506178	0.123570	-0.042693
C16	C	0.459511	0.122677	0.043921
C17	C	0.366213	0.120900	0.044530
C18	C	0.653973	0.126383	0.042646
C19	C	0.747277	0.128162	0.042037
C20	C	0.747301	0.128167	-0.130576
C21	C	0.654003	0.126390	-0.129967
C22	C	0.607342	0.125498	-0.043353
C23	C	1.063084	-0.040282	0.013871
C24	C	1.061195	-0.140365	0.048412
C25	C	1.055002	-0.469504	-0.269465
C26	C	1.053223	-0.563547	-0.236979
C27	C	1.053205	-0.563542	-0.064385
C28	C	1.054989	-0.469498	-0.096856
C29	C	1.055886	-0.422486	-0.199397
C30	C	1.055873	-0.422480	-0.026789
C31	C	1.057651	-0.328444	-0.059258
C32	C	1.058546	-0.281425	-0.161795
C33	C	1.057665	-0.328450	-0.231866
C34	C	1.054969	-0.469493	0.075752
C35	C	1.055853	-0.422475	0.145819
C36	C	1.057638	-0.328438	0.113351
C37	C	1.058533	-0.281419	0.010814
C38	C	1.058519	-0.281413	0.183422
C39	C	1.060298	-0.187376	0.150953
C40	C	1.060311	-0.187382	-0.021655
C41	C	1.220282	0.118135	-0.040816
C42	C	1.319579	0.120023	-0.041477
C43	C	1.050434	0.289357	-0.099912
C44	C	1.052323	0.389440	-0.134459
N45	N	1.056740	0.124524	0.203643
N46	N	1.056785	0.124544	-0.289680
C47	C	1.117490	0.063327	0.274584
C48	C	1.117497	0.063326	0.374242
C49	C	1.056755	0.124528	0.402956
C50	C	0.995998	0.185729	0.332007
C51	C	0.995988	0.185724	0.232353
C52	C	0.996024	0.185735	0.539719
C53	C	0.996034	0.185741	0.639380
C54	C	1.117532	0.063337	0.681608
C55	C	1.117522	0.063333	0.581954
C56	C	1.056766	0.124535	0.511012
H57	H	0.615983	0.125669	0.113173
H58	H	1.052495	-0.601824	-0.294044
H59	H	0.946571	0.235577	0.662751
H60	H	1.166964	0.013494	0.432003
H61	H	1.167002	0.013505	0.739376
H62	H	1.166987	0.013502	0.558575
H63	H	0.328221	0.120184	0.115051
H64	H	1.166957	0.013493	0.251213
H65	H	0.497529	0.123403	-0.199214
H66	H	0.946537	0.235557	0.355392
C67	C	0.510816	0.123658	0.138515
C68	C	0.564885	0.203111	0.134811
C69	C	0.616191	0.204099	0.229403
C70	C	0.613428	0.125633	0.327698
C71	C	0.559357	0.046174	0.331405
C72	C	0.508051	0.045186	0.236814
H73	H	0.566932	0.261202	0.062044
H74	H	0.656218	0.262920	0.226658
H75	H	0.651408	0.126363	0.397720
H76	H	0.557310	-0.011917	0.404172
H77	H	0.468024	-0.013635	0.239559
H78	H	1.052472	-0.601832	0.019105
H79	H	1.057780	-0.319703	0.266911
H80	H	1.055741	-0.431226	-0.352963
C81	C	0.602702	0.125419	-0.224567
C82	C	0.625598	0.047441	-0.268849
C83	C	0.574298	0.046468	-0.363451
C84	C	0.500101	0.123474	-0.413770
C85	C	0.477202	0.201458	-0.369488
C86	C	0.528502	0.202430	-0.274887
H87	H	0.680526	-0.009569	-0.231600
H88	H	0.591250	-0.011261	-0.396231
H89	H	0.462126	0.122754	-0.483799
H90	H	0.422274	0.258468	-0.406737
H91	H	0.511550	0.260160	-0.242106
H92	H	0.946518	0.235556	0.174592
H93	H	0.785297	0.128894	-0.201101
H94	H	1.061050	-0.149104	-0.105154
C95	C	0.314945	0.119937	-0.222685
C96	C	0.240749	0.196941	-0.273015
C97	C	0.189457	0.195962	-0.367618
C98	C	0.212360	0.117979	-0.411892
C99	C	0.286560	0.040970	-0.361563
C100	C	0.337852	0.041949	-0.266959
H101	H	0.223791	0.254673	-0.240241
H102	H	0.134530	0.252969	-0.404875
H103	H	0.174391	0.117255	-0.481923
H104	H	0.303517	-0.016762	-0.394337
H105	H	0.392779	-0.015059	-0.229702
H106	H	1.059984	-0.204853	-0.188230
H107	H	0.785246	0.128889	0.112062
C108	C	1.058662	-0.276726	-0.344662
C109	C	1.136039	-0.299807	-0.407890
C110	C	1.137038	-0.248081	-0.520680
C111	C	1.060660	-0.173274	-0.570241
C112	C	0.983277	-0.150189	-0.507013
C113	C	0.982278	-0.201915	-0.394224
H114	H	1.192584	-0.355186	-0.371202
H115	H	1.194322	-0.265170	-0.567485
H116	H	1.061399	-0.134983	-0.653735
H117	H	0.926732	-0.094809	-0.543701
H118	H	0.924994	-0.184826	-0.347418
H119	H	0.946546	0.235569	0.481960
H120	H	1.053511	-0.546062	0.102184
H121	H	1.060998	-0.149091	0.208008
C122	C	1.054864	-0.474200	0.258609
C123	C	0.976029	-0.528692	0.301157
C124	C	0.975040	-0.580419	0.413947
C125	C	1.052887	-0.577654	0.484189
C126	C	1.131728	-0.523159	0.441642
C127	C	1.132716	-0.471432	0.328852
H128	H	0.918396	-0.530742	0.249158
H129	H	0.916676	-0.620760	0.445442
H130	H	1.052155	-0.615945	0.567683
H131	H	1.189360	-0.521110	0.493641
H132	H	1.191080	-0.431092	0.297356
