data_functionalizedCrystal
_audit_creation_method	'MofGen! by Chris Wilmer'
_symmetry_space_group_name_H-M	'P1'
_symmetry_Int_Tables_number	1
_symmetry_cell_setting	triclinic
loop_
_symmetry_equiv_pos_as_xyz
  x,y,z
_cell_length_a	12.759401
_cell_length_b	12.645330
_cell_length_c	12.759393
_cell_angle_alpha	90.030048
_cell_angle_beta	90.018496
_cell_angle_gamma	90.017853
loop_
_atom_site_label
_atom_site_type_symbol
_atom_site_fract_x
_atom_site_fract_y
_atom_site_fract_z
Zn1	Zn	1.606234	-0.421972	0.593992
Zn2	Zn	1.606119	-0.599276	0.418317
Zn3	Zn	1.430536	-0.422028	0.418332
Zn4	Zn	1.430515	-0.599195	0.593959
O5	O	1.518351	-0.510618	0.506150
O6	O	1.753239	-0.445503	0.570697
O7	O	1.582788	-0.575821	0.271298
O8	O	1.453899	-0.273673	0.441654
O9	O	1.753155	-0.575767	0.441629
O10	O	1.582983	-0.273632	0.570711
O11	O	1.453788	-0.445598	0.271309
O12	O	1.283512	-0.445518	0.441621
O13	O	1.453864	-0.575628	0.740984
O14	O	1.283497	-0.575682	0.570653
O15	O	1.582964	-0.445424	0.741009
O16	O	1.582768	-0.747613	0.441596
O17	O	1.453753	-0.747553	0.570639
C18	C	1.245383	-0.510598	0.506136
C19	C	1.128607	-0.510615	0.506155
C20	C	1.073764	-0.578500	0.573231
C21	C	0.964040	-0.578514	0.573242
C22	C	0.964011	-0.442755	0.439092
C23	C	1.073733	-0.442737	0.439087
C24	C	1.073781	-0.656883	0.650678
C25	C	0.964056	-0.656896	0.650689
C26	C	1.518274	-0.786048	0.506135
C27	C	1.518337	-0.903878	0.506164
C28	C	1.437509	-1.071448	0.587595
C29	C	1.437095	-0.948888	0.587334
C30	C	1.488364	-0.948482	0.395443
C31	C	1.487871	-1.071080	0.395937
C32	C	1.629634	-1.070964	0.534556
C33	C	1.628952	-0.948357	0.536977
C34	C	1.792384	-0.510638	0.506165
C35	C	1.909161	-0.510647	0.506171
C36	C	1.518424	-0.510511	0.780183
C37	C	1.518456	-0.510465	0.896960
C38	C	1.518456	-0.234112	0.506188
C39	C	1.518501	-0.116282	0.506204
C40	C	1.518338	-0.510648	0.233183
C41	C	1.518510	-0.510395	0.116407
C42	C	1.585687	-0.442661	0.951837
C43	C	1.585712	-0.442623	1.061561
C44	C	1.451271	-0.578202	1.061522
C45	C	1.451242	-0.578234	0.951800
C46	C	1.663309	-0.364389	0.951860
C47	C	1.663334	-0.364351	1.061584
H48	H	1.455848	-0.918727	0.669433
N49	N	1.765683	-0.403441	0.906884
H50	H	1.798159	-0.346152	0.862330
H51	H	1.752338	-0.468143	0.862393
N52	N	1.462109	-1.110403	0.696704
H53	H	1.400484	-1.151808	0.724698
H54	H	1.476353	-1.047961	0.744000
N55	N	1.562599	-1.110400	0.312866
H56	H	1.635550	-1.083620	0.328420
H57	H	1.539368	-1.083644	0.242005
N58	N	1.132898	-0.369518	0.366752
H59	H	1.178442	-0.320443	0.409542
H60	H	1.081427	-0.326589	0.324276
N61	N	1.564020	-0.909874	0.312911
H62	H	1.618582	-0.862984	0.346582
H63	H	1.524522	-0.868390	0.258021
H64	H	1.692473	-0.917711	0.482013
N65	N	1.624782	-0.261028	1.106695
H66	H	1.606139	-0.211130	1.047790
H67	H	1.681697	-0.228457	1.151285
N68	N	1.118840	-0.760137	0.611909
H69	H	1.197897	-0.756355	0.613322
H70	H	1.094313	-0.773487	0.537806
N71	N	1.709569	-1.109361	0.456037
H72	H	1.674027	-1.155883	0.402355
H73	H	1.765627	-1.151181	0.493497
N74	N	0.904825	-0.369561	0.366742
H75	H	0.826994	-0.379876	0.376919
H76	H	0.923980	-0.385985	0.291685
N77	N	0.919011	-0.617986	0.753107
H78	H	0.977949	-0.599191	0.802592
H79	H	0.874407	-0.675382	0.785339
H80	H	1.744703	-0.386340	1.091363
N81	N	1.378781	-0.651303	1.120660
H82	H	1.303720	-0.634832	1.101557
H83	H	1.389080	-0.640967	1.198480
H84	H	0.934257	-0.738980	0.628759
N85	N	1.113275	-0.627885	0.758505
H86	H	1.086936	-0.555178	0.777996
H87	H	1.192429	-0.627928	0.758468
H88	H	1.355635	-1.102351	0.569052
N89	N	1.380263	-1.109104	0.364134
H90	H	1.385952	-1.153638	0.298650
H91	H	1.333650	-1.046172	0.349980
H92	H	1.407972	-0.917873	0.370989
N93	N	1.327967	-0.910153	0.562446
H94	H	1.279945	-0.972720	0.551596
H95	H	1.329840	-0.865993	0.496541
H96	H	1.656976	-1.101800	0.613922
N97	N	1.658905	-0.909738	0.644911
H98	H	1.601073	-0.863619	0.673736
H99	H	1.725908	-0.867445	0.640391
N100	N	1.378689	-0.651324	0.892609
H101	H	1.336108	-0.694239	0.944002
H102	H	1.421387	-0.700416	0.847059
H103	H	1.641544	-0.282291	0.922102
