data_functionalizedCrystal
_audit_creation_method	'MofGen! by Chris Wilmer'
_symmetry_space_group_name_H-M	'P1'
_symmetry_Int_Tables_number	1
_symmetry_cell_setting	triclinic
loop_
_symmetry_equiv_pos_as_xyz
  x,y,z
_cell_length_a	15.298708
_cell_length_b	25.639242
_cell_length_c	15.296720
_cell_angle_alpha	99.656660
_cell_angle_beta	107.326883
_cell_angle_gamma	99.698976
loop_
_atom_site_label
_atom_site_type_symbol
_atom_site_fract_x
_atom_site_fract_y
_atom_site_fract_z
Zn1	Zn	1.330665	-0.102608	-0.280192
Zn2	Zn	1.830665	0.397392	0.219808
Zn3	Zn	1.357516	-0.171759	-0.124723
Zn4	Zn	1.857516	0.328241	0.375277
Zn5	Zn	1.202081	-0.102643	-0.151573
Zn6	Zn	1.702081	0.397357	0.348427
Zn7	Zn	1.175176	-0.208323	-0.307039
Zn8	Zn	1.675176	0.291677	0.192961
O9	O	1.266360	-0.146333	-0.215882
O10	O	1.766360	0.353667	0.284118
O11	O	1.464350	-0.096465	-0.237097
O12	O	1.964350	0.403535	0.262903
O13	O	1.359394	-0.147303	0.001843
O14	O	1.859394	0.352697	0.501843
O15	O	1.219161	-0.029471	-0.168636
O16	O	1.719161	0.470529	0.331364
O17	O	1.484077	-0.147270	-0.122874
O18	O	1.984077	0.352730	0.377126
O19	O	1.313632	-0.029446	-0.263132
O20	O	1.813632	0.470554	0.236868
O21	O	1.245197	-0.096523	-0.017884
O22	O	1.745197	0.403477	0.482116
O23	O	1.068390	-0.131977	-0.194669
O24	O	1.568390	0.368023	0.305331
O25	O	1.173305	-0.209587	-0.433605
O26	O	1.673305	0.290413	0.066395
O27	O	1.048622	-0.209620	-0.308889
O28	O	1.548622	0.290380	0.191111
O29	O	1.287543	-0.131919	-0.413881
O30	O	1.787543	0.368081	0.086119
O31	O	1.333305	-0.249777	-0.148906
O32	O	1.833305	0.250223	0.351094
O33	O	1.199341	-0.276640	-0.282853
O34	O	1.699341	0.223360	0.217147
C35	C	1.024766	-0.174770	-0.257606
C36	C	1.524766	0.325230	0.242394
C37	C	0.921408	-0.186951	-0.275478
C38	C	1.421408	0.313049	0.224522
C39	C	1.266403	-0.009956	-0.215885
C40	C	1.766403	0.490044	0.284115
C41	C	1.266421	0.048160	-0.215886
C42	C	1.766421	0.548160	0.284114
C43	C	0.671056	-0.059433	-0.088378
C44	C	1.171056	0.440567	0.411622
C45	C	0.768166	-0.047986	-0.071587
C46	C	1.268166	0.452014	0.428413
C47	C	0.806481	-0.082726	-0.122558
C48	C	1.306481	0.417274	0.377442
C49	C	0.747677	-0.128916	-0.190323
C50	C	1.247677	0.371084	0.309677
C51	C	0.650556	-0.140362	-0.207120
C52	C	1.150556	0.359638	0.292880
C53	C	0.785982	-0.163655	-0.241301
C54	C	1.285982	0.336345	0.258699
C55	C	0.727177	-0.209845	-0.309066
C56	C	1.227177	0.290155	0.190934
C57	C	0.630067	-0.221289	-0.325859
C58	C	1.130067	0.278711	0.174141
C59	C	0.591751	-0.186549	-0.274888
C60	C	1.091751	0.313451	0.225112
C61	C	0.883102	-0.152209	-0.224503
C62	C	1.383102	0.347791	0.275497
C63	C	0.862603	-0.233138	-0.343246
C64	C	1.362603	0.266862	0.156754
C65	C	0.765493	-0.244585	-0.360036
C66	C	1.265493	0.255415	0.139964
C67	C	1.266339	-0.282179	-0.215895
C68	C	1.766339	0.217821	0.284105
C69	C	1.266409	-0.340288	-0.215917
C70	C	1.766409	0.159712	0.284083
C71	C	1.508896	-0.117785	-0.173995
C72	C	2.008896	0.382215	0.326005
C73	C	1.612251	-0.105620	-0.156146
C74	C	2.112251	0.394380	0.343854
C75	C	1.224428	-0.174828	-0.458427
C76	C	1.724428	0.325172	0.041573
C77	C	1.206559	-0.186970	-0.561786
C78	C	1.706559	0.313030	-0.061786
C79	C	1.217211	0.408510	-0.166714
C80	C	1.717211	0.908510	0.333286
C81	C	1.217209	0.463114	-0.166719
C82	C	1.717209	0.963114	0.333281
O83	O	1.175354	0.491339	-0.124908
O84	O	1.675354	0.991339	0.375092
N85	N	1.266398	0.490437	-0.215916
N86	N	1.766398	0.990437	0.284084
C87	C	1.315584	0.463152	-0.265119
C88	C	1.815584	0.963152	0.234881
O89	O	1.357422	0.491406	-0.306966
O90	O	1.857422	0.991406	0.193034
C91	C	1.315580	0.408548	-0.265119
C92	C	1.815580	0.908548	0.234881
C93	C	1.266396	0.381229	-0.215911
C94	C	1.766396	0.881229	0.284089
C95	C	1.168030	0.381191	-0.117511
C96	C	1.668030	0.881191	0.382489
C97	C	1.168034	0.326592	-0.117505
C98	C	1.668034	0.826592	0.382495
C99	C	1.217218	0.299311	-0.166702
C100	C	1.717218	0.799311	0.333298
C101	C	1.266399	0.326630	-0.215905
C102	C	1.766399	0.826630	0.284095
C103	C	1.364760	0.381263	-0.314328
C104	C	1.864760	0.881263	0.185672
C105	C	1.364750	0.326655	-0.314324
C106	C	1.864750	0.826655	0.185676
C107	C	1.315566	0.299337	-0.265116
C108	C	1.815566	0.799337	0.234884
C109	C	1.315587	0.244749	-0.265097
C110	C	1.815587	0.744749	0.234903
N111	N	1.266398	0.217426	-0.215900
N112	N	1.766398	0.717426	0.284100
C113	C	1.217214	0.244707	-0.166703
C114	C	1.717214	0.744707	0.333297
C115	C	1.315588	0.577823	-0.265116
C116	C	1.815588	1.077823	0.234884
C117	C	1.315598	0.632427	-0.265111
C118	C	1.815598	1.132427	0.234889
C119	C	1.217222	0.632385	-0.166712
C120	C	1.717222	1.132385	0.333288
C121	C	1.217218	0.577781	-0.166712
C122	C	1.717218	1.077781	0.333288
C123	C	1.266399	0.550500	-0.215919
C124	C	1.766399	1.050500	0.284081
C125	C	1.217225	0.130044	-0.166693
C126	C	1.717225	0.630044	0.333307
C127	C	1.217236	0.075440	-0.166688
C128	C	1.717236	0.575440	0.333312
C129	C	1.315608	0.075486	-0.265091
C130	C	1.815608	0.575486	0.234909
C131	C	1.315602	0.130086	-0.265092
C132	C	1.815602	0.630086	0.234908
C133	C	1.266403	0.157363	-0.215891
C134	C	1.766403	0.657363	0.284109
O135	O	1.357417	0.216489	-0.306889
O136	O	1.857417	0.716489	0.193111
O137	O	1.175373	0.216444	-0.124873
O138	O	1.675373	0.716444	0.375127
C139	C	1.394106	-0.059452	-0.812057
C140	C	1.894106	0.440548	-0.312057
C141	C	1.410901	-0.048043	-0.714946
C142	C	1.910901	0.451957	-0.214946
C143	C	1.359817	-0.082774	-0.676651
C144	C	1.859817	0.417226	-0.176651
C145	C	1.291935	-0.128915	-0.735477
C146	C	1.791935	0.371085	-0.235477
C147	C	1.275144	-0.140327	-0.832597
C148	C	1.775144	0.359673	-0.332597
C149	C	1.240854	-0.163649	-0.697191
C150	C	1.740854	0.336351	-0.197191
C151	C	1.172973	-0.209791	-0.756017
C152	C	1.672973	0.290209	-0.256017
C153	C	1.156185	-0.221200	-0.853127
C154	C	1.656185	0.278800	-0.353127
C155	C	1.207269	-0.186470	-0.891422
C156	C	1.707269	0.313530	-0.391422
C157	C	1.257646	-0.152237	-0.600071
C158	C	1.757646	0.347763	-0.100071
C159	C	1.138683	-0.233113	-0.620611
C160	C	1.638683	0.266887	-0.120611
C161	C	1.121889	-0.244521	-0.717722
C162	C	1.621889	0.255479	-0.217722
C163	C	1.308182	-0.117905	0.025729
C164	C	1.808182	0.382095	0.525729
C165	C	1.326231	-0.105594	0.129118
C166	C	1.826231	0.394406	0.629118
H167	H	0.885553	-0.073403	-0.108884
H168	H	1.385553	0.426597	0.391116
H169	H	1.355663	0.152332	-0.305151
H170	H	1.855663	0.652332	0.194849
H171	H	1.177162	0.152247	-0.126631
H172	H	1.677162	0.652247	0.373369
H173	H	0.816038	-0.010380	-0.016411
H174	H	1.316038	0.489620	0.483589
H175	H	1.100919	-0.258775	-0.901020
H176	H	1.600919	0.241225	-0.401020
H177	H	1.404809	0.403498	-0.354398
H178	H	1.904809	0.903498	0.145602
N179	N	0.943164	-0.105038	-0.155270
N180	N	1.443164	0.394962	0.344730
N181	N	1.007590	-0.110028	-0.086587
N182	N	1.507590	0.389972	0.413413
H183	H	1.050009	-0.076712	-0.037685
H184	H	1.550009	0.423288	0.462315
H185	H	0.717600	-0.282193	-0.415212
H186	H	1.217600	0.217807	0.084788
N187	N	0.901745	-0.268621	-0.395311
N188	N	1.401745	0.231379	0.104689
N189	N	0.988455	-0.258397	-0.380304
N190	N	1.488455	0.241603	0.119696
H191	H	1.016106	-0.283454	-0.417071
H192	H	1.516106	0.216546	0.082929
N193	N	0.631920	-0.023955	-0.036309
N194	N	1.131920	0.476045	0.463691
N195	N	0.657574	-0.015989	0.051379
N196	N	1.157574	0.484011	0.551379
H197	H	0.629935	0.009070	0.088157
H198	H	1.129935	0.509070	0.588157
H199	H	1.466172	-0.010476	-0.667056
H200	H	1.966172	0.489524	-0.167056
N201	N	0.570016	-0.268473	-0.395080
N202	N	1.070016	0.231527	0.104920
N203	N	0.581960	-0.314692	-0.386893
N204	N	1.081960	0.185308	0.113107
H205	H	0.539552	-0.348017	-0.435781
H206	H	1.039552	0.151983	0.064219
H207	H	1.404792	0.304444	-0.354405
H208	H	1.904792	0.804444	0.145595
H209	H	1.177185	0.053200	-0.126614
H210	H	1.677185	0.553200	0.373386
H211	H	1.127980	0.304353	-0.077437
H212	H	1.627980	0.804353	0.422563
N213	N	1.166951	0.660249	-0.116481
N214	N	1.666951	1.160249	0.383519
N215	N	1.080080	0.643316	-0.137481
N216	N	1.580080	1.143316	0.362519
H217	H	1.044575	0.662994	-0.102010
H218	H	1.544575	1.162994	0.397990
H219	H	1.435697	-0.031182	-0.843246
H220	H	1.935697	0.468818	-0.343246
H221	H	1.127974	0.403398	-0.077450
H222	H	1.627974	0.903398	0.422550
H223	H	1.193598	-0.195756	-0.970497
H224	H	1.693598	0.304244	-0.470497
N225	N	0.492557	-0.198241	-0.292014
N226	N	0.992557	0.301759	0.207986
N227	N	0.458367	-0.167223	-0.246483
N228	N	0.958367	0.332777	0.253517
H229	H	0.388311	-0.175481	-0.258571
H230	H	0.888311	0.324519	0.241429
N231	N	1.365847	0.047607	-0.315333
N232	N	1.865847	0.547607	0.184667
N233	N	1.365833	-0.001145	-0.315318
N234	N	1.865833	0.498855	0.184682
H235	H	1.401310	-0.020838	-0.350806
H236	H	1.901310	0.479162	0.149194
H237	H	1.312915	-0.114668	-0.552184
H238	H	1.812915	0.385332	-0.052184
N239	N	1.376983	-0.071115	-0.577453
N240	N	1.876983	0.428885	-0.077453
N241	N	1.437591	-0.029916	-0.524941
N242	N	1.937591	0.470084	-0.024941
H243	H	1.449716	-0.021678	-0.454878
H244	H	1.949716	0.478322	0.045122
H245	H	1.066619	-0.282090	-0.765632
H246	H	1.566619	0.217910	-0.265632
N247	N	1.086507	-0.268588	-0.581489
N248	N	1.586507	0.231412	-0.081489
N249	N	1.101505	-0.258393	-0.494780
N250	N	1.601505	0.241607	0.005220
H251	H	1.064660	-0.283445	-0.467143
H252	H	1.564660	0.216555	0.032857
H253	H	1.177166	0.555542	-0.126644
H254	H	1.677166	1.055542	0.373356
H255	H	1.355643	0.555615	-0.305185
H256	H	1.855643	1.055615	0.194815
N257	N	1.365861	0.660324	-0.315363
N258	N	1.865861	1.160324	0.184637
N259	N	1.409774	0.635954	-0.359279
N260	N	1.909774	1.135954	0.140721
H261	H	1.445271	0.655654	-0.394774
H262	H	1.945271	1.155654	0.105226
