data_functionalizedCrystal
_audit_creation_method	'MofGen! by Chris Wilmer'
_symmetry_space_group_name_H-M	'P1'
_symmetry_Int_Tables_number	1
_symmetry_cell_setting	triclinic
loop_
_symmetry_equiv_pos_as_xyz
  x,y,z
_cell_length_a	11.026607
_cell_length_b	16.992695
_cell_length_c	15.455313
_cell_angle_alpha	87.152573
_cell_angle_beta	86.732703
_cell_angle_gamma	80.372880
loop_
_atom_site_label
_atom_site_type_symbol
_atom_site_fract_x
_atom_site_fract_y
_atom_site_fract_z
O1	O	1.647504	-0.330182	-0.072140
O2	O	2.147504	0.169818	0.427860
O3	O	1.290521	-0.292275	-0.072140
O4	O	1.790521	0.207725	0.427860
O5	O	1.467581	-0.196884	-0.072133
O6	O	1.967581	0.303116	0.427867
O7	O	1.470444	-0.425573	-0.072147
O8	O	1.970444	0.074427	0.427853
O9	O	1.457453	-0.202311	0.072129
O10	O	1.957453	0.297689	0.572129
O11	O	1.280393	-0.297701	0.072122
O12	O	1.780393	0.202299	0.572122
O13	O	1.637376	-0.335608	0.072122
O14	O	2.137376	0.164392	0.572122
Cu15	Cu	1.457960	-0.317150	0.085294
Cu16	Cu	1.957960	0.182850	0.585294
Cu17	Cu	1.469937	-0.310733	-0.085312
Cu18	Cu	1.969937	0.189267	0.414688
O19	O	1.460316	-0.430999	0.072115
O20	O	1.960316	0.069001	0.572115
C21	C	1.239568	-0.287995	-0.000009
C22	C	1.739568	0.212005	0.499991
C23	C	1.102833	-0.267148	-0.000009
C24	C	1.602833	0.232852	0.499991
C25	C	1.458835	-0.169865	-0.000002
C26	C	1.958835	0.330135	0.499998
C27	C	1.447849	-0.081270	-0.000002
C28	C	1.947849	0.418730	0.499998
N29	N	1.449545	-0.321665	0.205289
N30	N	1.949545	0.178335	0.705289
C31	C	1.034609	-0.324710	-0.000013
C32	C	1.534609	0.175290	0.499987
C33	C	0.893286	-0.303165	-0.000013
C34	C	1.393286	0.196835	0.499987
C35	C	1.688329	-0.339888	-0.000011
C36	C	2.188329	0.160112	0.499989
C37	C	1.825065	-0.360735	-0.000017
C38	C	2.325065	0.139265	0.499983
C39	C	1.469062	-0.458018	-0.000018
C40	C	1.969062	0.041982	0.499982
C41	C	1.480048	-0.546613	-0.000023
C42	C	1.980048	-0.046613	0.499977
C43	C	1.553847	-0.045991	-0.000002
C44	C	2.053847	0.454009	0.499998
C45	C	1.543518	0.037254	-0.000010
C46	C	2.043518	0.537254	0.499990
C47	C	1.427190	0.085218	-0.000013
C48	C	1.927190	0.585218	0.499987
C49	C	1.321185	0.049934	-0.000016
C50	C	1.821185	0.549934	0.499984
C51	C	1.331515	-0.033310	-0.000014
C52	C	1.831515	0.466690	0.499986
C53	C	1.384374	0.334860	-0.000025
C54	C	1.884374	0.834860	0.499975
C55	C	1.374051	0.418108	-0.000024
C56	C	1.874051	0.918108	0.499976
C57	C	1.596385	0.405422	-0.000019
C58	C	2.096385	0.905422	0.499981
C59	C	1.606705	0.322178	-0.000012
C60	C	2.106705	0.822178	0.499988
C61	C	1.500700	0.286901	-0.000020
C62	C	2.000700	0.786901	0.499980
N63	N	1.416629	0.170308	-0.000018
N64	N	1.916629	0.670308	0.499982
N65	N	1.511263	0.201813	-0.000021
N66	N	2.011263	0.701813	0.499979
N67	N	1.478362	-0.306214	-0.205307
N68	N	1.978362	0.193786	0.294693
C69	C	1.524795	-0.281162	0.250686
C70	C	2.024795	0.218838	0.750686
C71	C	1.518443	-0.284585	0.341494
C72	C	2.018443	0.215415	0.841494
C73	C	1.436846	-0.328515	0.386903
C74	C	1.936846	0.171485	0.886903
C75	C	1.361587	-0.369019	0.341499
C76	C	1.861587	0.130981	0.841499
C77	C	1.367933	-0.365591	0.250693
C78	C	1.867933	0.134409	0.750693
C79	C	1.409449	-0.343290	0.658483
C80	C	1.909449	0.156710	1.158483
C81	C	1.403111	-0.346717	0.749296
C82	C	1.903111	0.153283	1.249296
C83	C	1.559967	-0.262281	0.749284
C84	C	2.059967	0.237719	1.249284
C85	C	1.566311	-0.258861	0.658476
C86	C	2.066311	0.241139	1.158476
C87	C	1.491048	-0.299361	0.613081
C88	C	1.991048	0.200639	1.113081
N89	N	1.430354	-0.332017	0.479723
N90	N	1.930354	0.167983	0.979723
N91	N	1.497534	-0.295854	0.520262
N92	N	1.997534	0.204146	1.020262
H93	H	1.080827	-0.389941	-0.000012
H94	H	1.580827	0.110059	0.499988
H95	H	1.056616	-0.201916	-0.000027
H96	H	1.556616	0.298084	0.499973
O97	O	0.832090	-0.216751	-0.000007
O98	O	1.332090	0.283249	0.499993
H99	H	0.730693	-0.213388	-0.000013
H100	H	1.230693	0.286612	0.499987
O101	O	1.273584	-0.416410	0.390470
O102	O	1.773584	0.083590	0.890470
H103	H	1.207656	-0.376052	0.431867
H104	H	1.707656	0.123948	0.931867
H105	H	1.648573	-0.085039	0.000006
H106	H	2.148573	0.414961	0.500006
O107	O	1.270034	0.296826	-0.000022
O108	O	1.770034	0.796826	0.499978
H109	H	1.273531	0.261419	-0.058824
H110	H	1.773531	0.761419	0.441176
H111	H	1.348169	-0.376268	0.621529
H112	H	1.848169	0.123732	1.121529
H113	H	1.621241	-0.229307	0.786253
H114	H	2.121241	0.270693	1.286253
O115	O	1.599624	-0.240903	0.390447
O116	O	2.099624	0.259097	0.890447
H117	H	1.541210	-0.196485	0.431827
H118	H	2.041210	0.303515	0.931827
H119	H	1.336661	-0.382493	0.786263
H120	H	1.836661	0.117507	1.286263
H121	H	1.632754	-0.223090	0.621506
H122	H	2.132754	0.276910	1.121506
H123	H	1.629832	0.065973	-0.000007
H124	H	2.129832	0.565973	0.499993
O125	O	1.286778	-0.409279	0.201722
O126	O	1.786778	0.090721	0.701722
H127	H	1.228980	-0.440410	0.248552
H128	H	1.728980	0.059590	0.748552
O129	O	0.886259	-0.447150	-0.000025
O130	O	1.386259	0.052850	0.499975
H131	H	0.987657	-0.450514	-0.000031
H132	H	1.487657	0.049486	0.499969
H133	H	1.591246	-0.245394	0.213720
H134	H	2.091246	0.254606	0.713720
H135	H	1.682688	0.434154	-0.000014
H136	H	2.182688	0.934154	0.499986
O137	O	1.732174	0.270445	-0.000030
O138	O	2.232174	0.770445	0.499970
H139	H	1.804149	0.308963	-0.000044
H140	H	2.304149	0.808963	0.499956
H141	H	1.279317	0.457159	-0.000013
H142	H	1.779317	0.957159	0.499987
O143	O	1.195711	0.101660	-0.000010
O144	O	1.695711	0.601660	0.499990
H145	H	1.206332	0.165472	0.000001
H146	H	1.706332	0.665472	0.500001
H147	H	1.245201	-0.062032	-0.000015
H148	H	1.745201	0.437968	0.499985
