data_functionalizedCrystal
_audit_creation_method	'MofGen! by Chris Wilmer'
_symmetry_space_group_name_H-M	'P1'
_symmetry_Int_Tables_number	1
_symmetry_cell_setting	triclinic
loop_
_symmetry_equiv_pos_as_xyz
  x,y,z
_cell_length_a	16.120530
_cell_length_b	16.120444
_cell_length_c	16.120297
_cell_angle_alpha	84.384883
_cell_angle_beta	89.871860
_cell_angle_gamma	90.168401
loop_
_atom_site_label
_atom_site_type_symbol
_atom_site_fract_x
_atom_site_fract_y
_atom_site_fract_z
Zn1	Zn	1.224979	-0.422266	0.554818
Zn2	Zn	1.724979	0.077734	1.054818
Zn3	Zn	1.224872	-0.554951	0.422125
Zn4	Zn	1.724872	-0.054951	0.922125
Zn5	Zn	1.093719	-0.408182	0.408061
Zn6	Zn	1.593719	0.091818	0.908061
Zn7	Zn	1.078869	-0.554183	0.554057
Zn8	Zn	1.578869	-0.054183	1.054057
O9	O	1.155610	-0.484895	0.484765
O10	O	1.655610	0.015105	0.984765
O11	O	1.341001	-0.446082	0.543421
O12	O	1.841001	0.053918	1.043421
O13	O	1.213644	-0.529908	0.303627
O14	O	1.713644	-0.029908	0.803627
O15	O	1.117390	-0.293419	0.421961
O16	O	1.617390	0.206581	0.921961
O17	O	1.340922	-0.543565	0.445931
O18	O	1.840922	-0.043565	0.945931
O19	O	1.213826	-0.303767	0.529783
O20	O	1.713826	0.196233	1.029783
O21	O	1.117286	-0.422078	0.293294
O22	O	1.617286	0.077922	0.793294
O23	O	0.975713	-0.421333	0.421223
O24	O	1.475713	0.078667	0.921223
O25	O	1.092082	-0.542257	0.670791
O26	O	1.592082	-0.042257	1.170791
O27	O	0.964804	-0.528600	0.528486
O28	O	1.464804	-0.028600	1.028486
O29	O	1.199428	-0.445338	0.671350
O30	O	1.699428	0.054662	1.171350
O31	O	1.199245	-0.671480	0.445193
O32	O	1.699245	-0.171480	0.945193
O33	O	1.091978	-0.670916	0.542124
O34	O	1.591978	-0.170916	1.042124
C35	C	1.144010	-0.701441	0.495121
C36	C	1.644010	-0.201441	0.995121
C37	C	1.139122	-0.794086	0.499584
C38	C	1.639122	-0.294086	0.999584
C39	C	0.940172	-0.473356	0.473247
C40	C	1.440172	0.026644	0.973247
C41	C	0.848004	-0.468440	0.468340
C42	C	1.348004	0.031560	0.968340
C43	C	1.181160	-1.005244	0.461807
C44	C	1.681160	-0.505244	0.961807
C45	C	1.130213	-0.963704	0.507740
C46	C	1.630213	-0.463704	1.007740
C47	C	1.135171	-0.869320	0.503201
C48	C	1.635171	-0.369320	1.003201
C49	C	1.176203	-1.099637	0.466346
C50	C	1.676203	-0.599637	0.966346
C51	C	0.679253	-0.459446	0.459387
C52	C	1.179253	0.040554	0.959387
C53	C	0.632801	-0.510409	0.510208
C54	C	1.132801	-0.010409	1.010208
C55	C	0.538902	-0.505404	0.505226
C56	C	1.038902	-0.005404	1.005226
C57	C	0.773160	-0.464449	0.464367
C58	C	1.273160	0.035551	0.964367
C59	C	1.371889	-0.496481	0.496330
C60	C	1.871889	0.003519	0.996330
C61	C	1.464055	-0.501417	0.501258
C62	C	1.964055	-0.001417	1.001258
C63	C	1.144110	-0.495283	0.702158
C64	C	1.644110	0.004717	1.202158
C65	C	1.139210	-0.499710	0.794797
C66	C	1.639210	0.000290	1.294797
C67	C	1.167277	-0.267506	0.474388
C68	C	1.667277	0.232494	0.974388
C69	C	1.172248	-0.174868	0.469966
C70	C	1.672248	0.325132	0.969966
C71	C	1.167116	-0.474490	0.268218
C72	C	1.667116	0.025510	0.768218
C73	C	1.172189	-0.469838	0.175577
C74	C	1.672189	0.030162	0.675577
C75	C	1.130233	-0.507771	0.964409
C76	C	1.630233	-0.007771	1.464409
C77	C	1.181163	-0.461778	1.005971
C78	C	1.681163	0.038222	1.505971
C79	C	1.176169	-0.466264	1.100348
C80	C	1.676169	0.033736	1.600348
C81	C	1.135227	-0.503287	0.870023
C82	C	1.635227	-0.003287	1.370023
H83	H	1.228498	-0.969926	0.419075
H84	H	1.728498	-0.469926	0.919075
H85	H	1.228516	-0.419032	0.970673
H86	H	1.728516	0.080968	1.470673
N87	N	0.671385	-0.569858	0.569476
N88	N	1.171385	-0.069858	1.069476
N89	N	0.748715	-0.573894	0.573486
N90	N	1.248715	-0.073894	1.073486
H91	H	0.775969	-0.615882	0.615339
H92	H	1.275969	-0.115882	1.115339
N93	N	0.640670	-0.400004	0.400120
N94	N	1.140670	0.099996	0.900120
N95	N	0.563339	-0.395978	0.396110
N96	N	1.063339	0.104022	0.896110
H97	H	0.536080	-0.353999	0.354252
H98	H	1.036080	0.146001	0.854252
N99	N	1.070835	-0.561387	1.008694
N100	N	1.570835	-0.061387	1.508694
N101	N	1.066816	-0.564997	1.086410
N102	N	1.566816	-0.064997	1.586410
H103	H	1.024868	-0.602863	1.117697
H104	H	1.524868	-0.102863	1.617697
H105	H	1.082871	-0.999026	0.550474
H106	H	1.582871	-0.499026	1.050474
