data_functionalizedCrystal
_audit_creation_method	'MofGen! by Chris Wilmer'
_symmetry_space_group_name_H-M	'P1'
_symmetry_Int_Tables_number	1
_symmetry_cell_setting	triclinic
loop_
_symmetry_equiv_pos_as_xyz
  x,y,z
_cell_length_a	14.395555
_cell_length_b	17.917603
_cell_length_c	17.917603
_cell_angle_alpha	60.138055
_cell_angle_beta	90.004294
_cell_angle_gamma	63.034021
loop_
_atom_site_label
_atom_site_type_symbol
_atom_site_fract_x
_atom_site_fract_y
_atom_site_fract_z
Zr1	Zr	0.947915	0.806826	-0.129020
O2	O	0.814621	0.951864	-0.249561
O3	O	0.982407	0.654597	-0.087367
O4	O	0.999236	0.796449	-0.242775
O5	O	0.791762	0.820706	0.023088
O6	O	1.152110	0.796444	-0.242768
O7	O	0.797792	0.810012	-0.094154
O8	O	1.122005	0.542698	0.035228
O9	O	0.821868	1.074452	-0.254908
O10	O	1.118901	0.719871	-0.075277
O11	O	1.000313	0.727856	0.012215
O12	O	1.020128	0.894868	-0.170758
O13	O	0.901541	0.902852	-0.083267
Zr14	Zr	1.182114	0.823874	0.057977
Zr15	Zr	1.191731	0.806818	-0.129009
Zr16	Zr	0.938299	0.823882	0.057967
Zr17	Zr	0.959472	1.002341	-0.137548
Zr18	Zr	1.170558	0.628359	0.066505
O19	O	1.147623	0.976103	0.016324
O20	O	1.161296	0.951852	-0.249547
O21	O	0.800949	0.976114	0.016310
O22	O	1.315408	0.678837	0.178519
O23	O	1.329081	0.654586	-0.087352
O24	O	0.968734	0.678848	0.178504
O25	O	1.338267	0.809994	-0.094131
O26	O	1.130793	0.834251	0.171732
O27	O	0.977920	0.834256	0.171726
O28	O	1.332238	0.820688	0.023111
O29	O	1.015668	1.074446	-0.254900
O30	O	1.114361	0.556254	0.183857
O31	O	1.308162	0.556248	0.183866
O32	O	1.315805	0.542691	0.035236
O33	O	0.814224	1.088009	-0.106279
O34	O	1.008025	1.088003	-0.106271
O35	O	1.109901	0.735833	0.099715
O36	O	1.228489	0.727848	0.012224
O37	O	1.129716	0.902845	-0.083257
O38	O	1.011129	0.910829	0.004234
C39	C	1.050559	0.570791	-0.024854
C40	C	1.045653	0.487790	-0.021234
C41	C	1.036689	0.335823	-0.014623
C42	C	1.093337	0.294872	-0.056417
C43	C	1.088350	0.210313	-0.052739
C44	C	1.041675	0.420390	-0.018301
C45	C	0.760039	0.815360	-0.035534
C46	C	0.656533	0.815363	-0.035539
C47	C	0.542088	0.910780	-0.087592
C48	C	0.510082	0.857753	-0.119986
C49	C	0.504115	0.868386	-0.003150
C50	C	0.625893	0.762331	-0.067981
C51	C	0.619921	0.772983	0.048900
C52	C	0.587983	0.719885	0.016529
C53	C	1.369991	0.815340	-0.035508
C54	C	1.473497	0.815337	-0.035504
C55	C	1.077043	0.794017	-0.269413
C56	C	1.081125	0.786776	-0.348794
C57	C	1.079470	1.059909	-0.046188
C58	C	1.084376	1.142911	-0.049808
C59	C	1.088606	0.773551	-0.494148
C60	C	1.041426	0.857145	-0.576897
C61	C	1.045588	0.849787	-0.657777
C62	C	1.084445	0.780907	-0.413259
C63	C	1.052986	0.836684	0.198370
C64	C	1.048904	0.843924	0.277751
C65	C	1.355535	0.570781	-0.024842
C66	C	1.454135	0.487776	-0.021217
C67	C	1.038531	0.592124	0.209037
C68	C	1.029542	0.516364	0.292038
C69	C	1.343507	0.592114	0.209050
C70	C	1.438024	0.516350	0.292056
C71	C	0.786523	1.038586	-0.280093
C72	C	0.692005	1.114350	-0.363098
C73	C	0.774494	1.059919	-0.046201
C74	C	0.675894	1.142924	-0.049826
C75	C	1.091499	1.038576	-0.280080
C76	C	1.100487	1.114337	-0.363081
C77	C	1.443235	0.444632	-0.065197
C78	C	1.535872	0.366650	-0.061809
C79	C	1.639408	0.331808	-0.014436
C80	C	1.650306	0.374960	0.029546
C81	C	1.557670	0.452946	0.026152
C82	C	1.082525	0.484950	0.376699
C83	C	1.074075	0.413776	0.454694
C84	C	1.012649	0.374012	0.448026
C85	C	0.959660	0.405432	0.363357
C86	C	0.968104	0.476610	0.285364
C87	C	1.544323	0.476603	0.285366
C88	C	1.633142	0.405425	0.363351
C89	C	1.615661	0.373990	0.448024
C90	C	1.509352	0.413745	0.454712
C91	C	1.420535	0.484927	0.376728
C92	C	0.585707	1.154107	-0.356409
C93	C	0.496889	1.225309	-0.434395
C94	C	0.514370	1.256748	-0.519069
C95	C	0.620679	1.216988	-0.525756
C96	C	0.709495	1.145792	-0.447771
C97	C	0.686795	1.186076	-0.005854
C98	C	0.594160	1.264078	-0.009263
C99	C	0.490625	1.298922	-0.056640
C100	C	0.479726	1.255766	-0.100617
C101	C	0.572361	1.177770	-0.097213
C102	C	1.161922	1.154079	-0.356385
C103	C	1.170389	1.225254	-0.434365
C104	C	1.117414	1.256692	-0.519041
C105	C	1.055976	1.216942	-0.525736
C106	C	1.047517	1.145763	-0.447756
H107	H	0.523709	0.991457	-0.131673
H108	H	0.571452	1.128513	-0.287471
H109	H	0.984449	0.307379	0.023917
N110	N	0.561212	1.133673	-0.142106
N111	N	0.594466	1.041559	-0.098165
H112	H	0.586585	1.010416	-0.129872
N113	N	1.145249	0.525579	0.383524
N114	N	1.100676	0.618459	0.347915
H115	H	1.144972	0.647155	0.352742
H116	H	0.462634	0.893574	-0.191381
H117	H	0.395416	1.284148	-0.139190
N118	N	1.337487	0.480226	-0.113612
N119	N	1.278688	0.570487	-0.177929
H120	H	1.204007	0.595625	-0.212130
H121	H	0.924962	0.502177	0.216432
N122	N	0.388296	1.265919	-0.427574
N123	N	0.328001	1.358793	-0.463164
H124	H	0.251307	1.387471	-0.458349
N125	N	0.638503	1.249108	-0.612258
N126	N	0.599642	1.235682	-0.663681
H127	H	0.612224	1.258365	-0.724777
H128	H	1.714829	0.268306	-0.011678
N129	N	1.158869	0.330552	-0.104789
N130	N	1.212124	0.292104	-0.144092
H131	H	1.258402	0.317306	-0.178255
H132	H	1.012847	1.242550	-0.594690
N133	N	1.143200	0.676832	-0.481456
N134	N	1.242433	0.616390	-0.439799
H135	H	1.280988	0.548082	-0.430841
H136	H	1.333985	0.517280	0.382187
N137	N	1.004038	0.301309	0.527708
N138	N	1.051356	0.273275	0.603290
H139	H	1.045280	0.221927	0.659569
N140	N	0.691603	0.706120	-0.102426
N141	N	0.782214	0.697087	-0.108027
H142	H	0.828624	0.657390	-0.132354
N143	N	0.423654	1.329473	-0.598734
N144	N	0.414725	1.411617	-0.656216
H145	H	0.350654	1.462978	-0.712479
N146	N	1.126075	1.329399	-0.598683
N147	N	1.180934	1.364870	-0.592681
H148	H	1.187054	1.416222	-0.648925
H149	H	1.205062	1.128494	-0.287444
N150	N	1.233152	1.265837	-0.427498
N151	N	1.280432	1.237763	-0.351886
H152	H	1.324759	1.266422	-0.347033
H153	H	0.997486	1.113412	-0.453221
N154	N	0.611289	0.618591	0.071776
N155	N	0.662754	0.564722	0.153327
H156	H	0.679211	0.493184	0.192343
N157	N	1.706404	0.301278	0.527670
N158	N	1.801306	0.265800	0.521675
H159	H	1.865398	0.214445	0.577921
N160	N	0.986839	0.953854	-0.589559
N161	N	0.983493	0.959770	-0.522879
H162	H	0.944941	1.028067	-0.531816
N163	N	0.679435	0.728095	0.138444
N164	N	0.638153	0.766161	0.181311
H165	H	0.680182	0.734466	0.244554
H166	H	1.495135	0.388140	0.523663
N167	N	0.818067	1.105194	-0.454627
N168	N	0.833648	1.133279	-0.530238
H169	H	0.910326	1.104611	-0.535087
N170	N	0.792538	1.150503	0.042551
N171	N	0.802236	1.189056	0.081799
H172	H	0.876915	1.163941	0.115985
N173	N	1.524745	0.322568	-0.106731
N174	N	1.569310	0.325797	-0.167261
H175	H	1.561451	0.294664	-0.198986
H176	H	1.734617	0.346581	0.068116
H177	H	1.558577	0.502186	0.216428
H178	H	1.566560	0.488065	0.061972
N179	N	0.438307	0.924638	0.031228
N180	N	0.406561	1.016078	-0.007735
H181	H	0.360109	1.055807	0.016553
N182	N	0.605306	1.308128	0.035685
N183	N	0.560723	1.304905	0.096204
H184	H	0.568597	1.336012	0.127951
N185	N	1.128219	0.381663	0.541181
N186	N	1.120683	0.318110	0.610818
H187	H	1.158925	0.295428	0.671899
H188	H	0.909647	0.373046	0.357941
N189	N	1.741718	0.364835	0.356491
N190	N	1.757301	0.392907	0.280882
H191	H	1.833980	0.364243	0.276034
N192	N	0.396018	1.378597	-0.060107
N193	N	0.405778	1.417110	-0.020837
H194	H	0.338965	1.473380	-0.023281
