data_functionalizedCrystal
_audit_creation_method	'MofGen! by Chris Wilmer'
_symmetry_space_group_name_H-M	'P1'
_symmetry_Int_Tables_number	1
_symmetry_cell_setting	triclinic
loop_
_symmetry_equiv_pos_as_xyz
  x,y,z
_cell_length_a	12.759395
_cell_length_b	13.897448
_cell_length_c	12.759387
_cell_angle_alpha	89.967288
_cell_angle_beta	89.979491
_cell_angle_gamma	90.019229
loop_
_atom_site_label
_atom_site_type_symbol
_atom_site_fract_x
_atom_site_fract_y
_atom_site_fract_z
Zn1	Zn	1.606247	-0.383924	-0.593991
Zn2	Zn	1.606128	-0.545252	-0.418306
Zn3	Zn	1.430545	-0.383977	-0.418328
Zn4	Zn	1.430528	-0.545184	-0.593945
O5	O	1.518362	-0.464584	-0.506142
O6	O	1.753252	-0.405332	-0.570696
O7	O	1.582794	-0.523909	-0.271287
O8	O	1.453909	-0.248988	-0.441659
O9	O	1.753165	-0.523858	-0.441621
O10	O	1.582996	-0.248950	-0.570718
O11	O	1.453794	-0.405421	-0.271304
O12	O	1.283522	-0.405355	-0.441614
O13	O	1.453880	-0.523741	-0.740972
O14	O	1.283509	-0.523792	-0.570639
O15	O	1.582980	-0.405265	-0.741006
O16	O	1.582778	-0.680225	-0.441576
O17	O	1.453765	-0.680174	-0.570617
C18	C	1.245395	-0.464573	-0.506124
C19	C	1.128618	-0.464591	-0.506142
C20	C	1.128644	-0.588119	-0.640278
C21	C	1.073796	-0.649891	-0.707349
C22	C	0.964074	-0.649903	-0.707362
C23	C	0.909198	-0.588134	-0.640299
C24	C	0.964046	-0.526362	-0.573227
C25	C	1.073770	-0.526359	-0.573220
C26	C	0.964020	-0.402830	-0.439098
C27	C	1.073742	-0.402822	-0.439078
C28	C	0.909144	-0.341061	-0.372035
C29	C	0.963992	-0.279293	-0.304957
C30	C	1.073720	-0.279284	-0.304946
C31	C	1.128590	-0.341050	-0.372007
C32	C	1.518285	-0.715199	-0.506112
C33	C	1.518349	-0.822413	-0.506134
C34	C	1.518459	-1.018708	-0.506200
C35	C	1.518395	-0.909475	-0.506167
C36	C	1.792395	-0.464597	-0.506161
C37	C	1.909172	-0.464602	-0.506169
C38	C	1.518441	-0.464490	-0.780176
C39	C	1.518475	-0.464449	-0.896953
C40	C	1.518468	-0.212991	-0.506196
C41	C	1.518513	-0.105777	-0.506219
C42	C	1.652916	-0.341088	-0.897008
C43	C	1.720151	-0.279393	-0.951896
C44	C	1.720176	-0.279358	-1.061618
C45	C	1.652958	-0.341022	-1.116454
C46	C	1.585723	-0.402718	-1.061565
C47	C	1.585707	-0.402748	-0.951841
C48	C	1.451278	-0.526072	-1.061510
C49	C	1.451256	-0.526114	-0.951789
C50	C	1.384059	-0.587737	-1.116346
C51	C	1.316828	-0.649438	-1.061458
C52	C	1.316806	-0.649472	-0.951729
C53	C	1.384021	-0.587809	-0.896900
C54	C	1.518344	-0.464609	-0.233175
C55	C	1.518513	-0.464377	-0.116399
H56	H	0.819803	-0.341071	-0.372054
O57	O	0.910850	-0.219206	-0.239786
C58	C	0.982783	-0.164705	-0.180556
H59	H	1.061022	-0.161409	-0.223579
H60	H	0.951097	-0.088695	-0.169505
H61	H	0.994396	-0.199936	-0.100691
H62	H	1.217985	-0.588123	-0.640266
O63	O	0.802615	-0.588142	-0.640121
C64	C	0.765899	-0.612824	-0.539393
H65	H	0.829106	-0.596275	-0.478900
H66	H	0.692500	-0.569296	-0.520813
H67	H	0.746402	-0.692857	-0.537012
H68	H	1.652912	-0.341120	-0.807667
O69	O	1.251440	-0.709364	-1.114561
C70	C	1.192116	-0.763851	-1.042591
H71	H	1.188483	-0.724373	-0.964382
H72	H	1.109339	-0.774120	-1.074278
H73	H	1.230552	-0.837118	-1.030918
H74	H	1.118371	-0.228975	-0.250335
H75	H	1.118488	-0.700181	-0.761952
H76	H	1.384014	-0.587834	-0.807559
H77	H	1.217931	-0.341052	-0.372002
O78	O	1.383912	-0.587621	-1.222929
C79	C	1.283234	-0.562849	-1.259580
H80	H	1.239812	-0.520804	-1.196358
H81	H	1.290798	-0.516582	-1.333003
H82	H	1.237684	-0.631127	-1.279018
O83	O	1.785417	-0.219591	-0.898466
C84	C	1.770967	-0.232833	-0.789853
H85	H	1.736508	-0.307270	-0.774843
H86	H	1.849661	-0.226322	-0.748170
H87	H	1.715050	-0.175616	-0.758718
O88	O	1.785585	-0.219397	-1.114780
C89	C	1.844886	-0.164957	-1.042860
H90	H	1.848492	-0.204485	-0.964633
H91	H	1.927674	-0.154670	-1.074583
H92	H	1.806448	-0.091697	-1.031208
O93	O	0.910952	-0.709992	-0.772553
C94	C	0.982907	-0.764485	-0.831768
H95	H	1.061102	-0.767780	-0.788724
H96	H	0.951181	-0.840495	-0.842835
H97	H	0.994624	-0.729246	-0.911626
H98	H	1.652975	-0.340980	-1.205795
H99	H	1.262044	-0.699701	-0.907046
