data_functionalizedCrystal
_audit_creation_method	'MofGen! by Chris Wilmer'
_symmetry_space_group_name_H-M	'P1'
_symmetry_Int_Tables_number	1
_symmetry_cell_setting	triclinic
loop_
_symmetry_equiv_pos_as_xyz
  x,y,z
_cell_length_a	18.050591
_cell_length_b	18.050589
_cell_length_c	18.101389
_cell_angle_alpha	90.019529
_cell_angle_beta	90.023851
_cell_angle_gamma	90.016982
loop_
_atom_site_label
_atom_site_type_symbol
_atom_site_fract_x
_atom_site_fract_y
_atom_site_fract_z
Zn1	Zn	1.135362	-0.295808	0.418824
Zn2	Zn	1.635362	0.204192	0.918824
Zn3	Zn	1.135281	-0.419982	0.294980
Zn4	Zn	1.635281	0.080018	0.794980
Zn5	Zn	1.011173	-0.295803	0.294986
Zn6	Zn	1.511173	0.204197	0.794986
Zn7	Zn	1.011146	-0.419953	0.418769
Zn8	Zn	1.511146	0.080047	0.918769
O9	O	1.073240	-0.357886	0.356890
O10	O	1.573240	0.142114	0.856890
O11	O	1.239276	-0.312294	0.402416
O12	O	1.739276	0.187706	0.902416
O13	O	1.118794	-0.403519	0.191348
O14	O	1.618794	0.096481	0.691348
O15	O	1.027692	-0.191879	0.311438
O16	O	1.527692	0.308121	0.811438
O17	O	1.239216	-0.403524	0.311428
O18	O	1.739216	0.096476	0.811428
O19	O	1.118933	-0.191882	0.402422
O20	O	1.618933	0.308118	0.902422
O21	O	1.027613	-0.312285	0.191352
O22	O	1.527613	0.187715	0.691352
O23	O	0.907244	-0.312257	0.311386
O24	O	1.407244	0.187743	0.811386
O25	O	1.027647	-0.403474	0.522409
O26	O	1.527647	0.096526	1.022409
O27	O	0.907225	-0.403469	0.402329
O28	O	1.407225	0.096531	0.902329
O29	O	1.118908	-0.312266	0.522449
O30	O	1.618908	0.187734	1.022449
O31	O	1.118769	-0.523903	0.311375
O32	O	1.618769	-0.023903	0.811375
O33	O	1.027568	-0.523881	0.402323
O34	O	1.527568	-0.023881	0.902323
C35	C	0.880288	-0.357860	0.356853
C36	C	1.380288	0.142140	0.856853
C37	C	0.797742	-0.357867	0.356854
C38	C	1.297742	0.142133	0.856854
C39	C	0.548906	-0.308214	0.307516
C40	C	1.048906	0.191786	0.807516
C41	C	0.598340	-0.290138	0.375103
C42	C	1.098340	0.209862	0.875103
C43	C	0.500622	-0.357905	0.356915
C44	C	1.000622	0.142095	0.856915
C45	C	0.598269	-0.375927	0.289303
C46	C	1.098269	0.124073	0.789303
C47	C	0.646607	-0.357884	0.356882
C48	C	1.146607	0.142116	0.856882
C49	C	0.548969	-0.339794	0.424537
C50	C	1.048969	0.160206	0.924537
C51	C	0.548894	-0.425614	0.338692
C52	C	1.048894	0.074386	0.838692
C53	C	0.598306	-0.407564	0.406324
C54	C	1.098306	0.092436	0.906324
C55	C	0.416524	-0.357915	0.356933
C56	C	0.916524	0.142085	0.856933
C57	C	0.730704	-0.357874	0.356871
C58	C	1.230704	0.142126	0.856871
C59	C	1.073177	-0.550838	0.356859
C60	C	1.573177	-0.050838	0.856859
C61	C	1.073217	-0.633384	0.356870
C62	C	1.573217	-0.133384	0.856870
C63	C	1.122942	-0.882194	0.307495
C64	C	1.622942	-0.382194	0.807495
C65	C	1.055183	-0.832856	0.289300
C66	C	1.555183	-0.332856	0.789300
C67	C	1.073311	-0.930504	0.356927
C68	C	1.573311	-0.430504	0.856927
C69	C	1.141019	-0.832761	0.375059
C70	C	1.641019	-0.332761	0.875059
C71	C	1.073268	-0.784519	0.356898
C72	C	1.573268	-0.284519	0.856898
C73	C	1.005516	-0.882254	0.338697
C74	C	1.505516	-0.382254	0.838697
C75	C	1.091398	-0.882163	0.424488
C76	C	1.591398	-0.382163	0.924488
C77	C	1.023593	-0.832847	0.406319
C78	C	1.523593	-0.332847	0.906319
C79	C	1.073336	-1.014603	0.356943
C80	C	1.573336	-0.514603	0.856943
C81	C	1.073235	-0.700423	0.356882
C82	C	1.573235	-0.200423	0.856882
C83	C	1.266946	-0.357913	0.356927
C84	C	1.766946	0.142087	0.856927
C85	C	1.349492	-0.357924	0.356943
C86	C	1.849492	0.142076	0.856943
C87	C	1.073283	-0.357867	0.550052
C88	C	1.573283	0.142133	1.050052
C89	C	1.073302	-0.357859	0.632366
C90	C	1.573302	0.142141	1.132366
C91	C	1.073325	-0.164181	0.356937
C92	C	1.573325	0.335819	0.856937
C93	C	1.073360	-0.081635	0.356957
C94	C	1.573360	0.418365	0.856957
C95	C	1.073240	-0.357851	0.164479
C96	C	1.573240	0.142149	0.664479
C97	C	1.073366	-0.357650	0.082165
C98	C	1.573366	0.142350	0.582165
C99	C	1.073345	-0.357720	0.931457
C100	C	1.573345	0.142280	1.431457
C101	C	1.015728	-0.414924	0.900107
C102	C	1.515728	0.085076	1.400107
C103	C	1.015884	-0.415189	0.814488
C104	C	1.515884	0.084811	1.314488
C105	C	1.073323	-0.357789	0.783074
C106	C	1.573323	0.142211	1.283074
C107	C	1.151572	-0.379038	0.814179
C108	C	1.651572	0.120962	1.314179
C109	C	1.151251	-0.379413	0.899824
C110	C	1.651251	0.120587	1.399824
C111	C	1.053393	-0.279141	0.899883
C112	C	1.553393	0.220859	1.399883
C113	C	1.051652	-0.279595	0.814232
C114	C	1.551652	0.220405	1.314232
C115	C	1.073315	-0.357827	0.699215
C116	C	1.573315	0.142173	1.199215
C117	C	1.073358	-0.357684	1.015316
C118	C	1.573358	0.142316	1.515316
H119	H	0.527403	-0.324475	0.481718
H120	H	1.027403	0.175525	0.981718
O121	O	0.627114	-0.214280	0.395507
O122	O	1.127114	0.285720	0.895507
H123	H	0.660962	-0.218332	0.446552
H124	H	1.160962	0.281668	0.946552
O125	O	0.938633	-0.397492	0.927368
O126	O	1.438633	0.102508	1.427368
H127	H	0.901898	-0.386414	0.879442
H128	H	1.401898	0.113586	1.379442
O129	O	1.034884	-0.804159	0.213605
O130	O	1.534884	-0.304159	0.713605
H131	H	1.034530	-0.742675	0.214430
H132	H	1.534530	-0.242675	0.714430
O133	O	0.626857	-0.463217	0.461702
O134	O	1.126857	0.036783	0.961702
H135	H	0.660670	-0.505571	0.432746
H136	H	1.160670	-0.005571	0.932746
H137	H	0.527159	-0.482867	0.323268
H138	H	1.027159	0.017133	0.823268
H139	H	0.619927	-0.391179	0.232138
H140	H	1.119927	0.108821	0.732138
O141	O	1.173639	-0.455505	0.926298
O142	O	1.673639	0.044495	1.426298
H143	H	1.230007	-0.468631	0.905614
H144	H	1.730007	0.031369	1.405614
O145	O	1.210023	-0.326585	0.927269
O146	O	1.710023	0.173415	1.427269
H147	H	1.183735	-0.282708	0.961298
H148	H	1.683735	0.217292	1.461298
O149	O	1.033335	-0.492360	0.787403
O150	O	1.533335	0.007640	1.287403
H151	H	1.084539	-0.490986	0.753500
H152	H	1.584539	0.009014	1.253500
H153	H	1.195654	-0.338683	0.793833
H154	H	1.695654	0.161317	1.293833
H155	H	0.981555	-0.811316	0.448110
H156	H	1.481555	-0.311316	0.948110
H157	H	1.168776	-0.435870	0.792735
H158	H	1.668776	0.064130	1.292735
H159	H	0.997325	-0.259783	0.921470
H160	H	1.497325	0.240217	1.421470
H161	H	1.198297	-0.811021	0.390407
H162	H	1.698297	-0.311021	0.890407
H163	H	0.957859	-0.401892	0.793456
H164	H	1.457859	0.098108	1.293456
O165	O	0.975383	-0.258353	0.787292
O166	O	1.475383	0.241647	1.287292
H167	H	0.952997	-0.303292	0.751856
H168	H	1.452997	0.196708	1.251856
H169	H	1.028771	-0.472814	0.921631
H170	H	1.528771	0.027186	1.421631
O171	O	1.103183	-0.220136	0.785920
O172	O	1.603183	0.279864	1.285920
H173	H	1.145236	-0.245503	0.749038
H174	H	1.645236	0.254497	1.249038
H175	H	1.095358	-0.236521	0.920159
H176	H	1.595358	0.263479	1.420159
O177	O	0.929624	-0.910917	0.318266
O178	O	1.429624	-0.410917	0.818266
H179	H	0.930246	-0.972404	0.318407
H180	H	1.430246	-0.472404	0.818407
H181	H	0.527217	-0.266169	0.265807
H182	H	1.027217	0.233831	0.765807
H183	H	1.164879	-0.903862	0.265672
H184	H	1.664879	-0.403862	0.765672
H185	H	1.106740	-0.903838	0.481620
H186	H	1.606740	-0.403838	0.981620
