data_functionalizedCrystal
_audit_creation_method	'MofGen! by Chris Wilmer'
_symmetry_space_group_name_H-M	'P1'
_symmetry_Int_Tables_number	1
_symmetry_cell_setting	triclinic
loop_
_symmetry_equiv_pos_as_xyz
  x,y,z
_cell_length_a	26.455835
_cell_length_b	26.455273
_cell_length_c	26.451828
_cell_angle_alpha	60.005170
_cell_angle_beta	60.010757
_cell_angle_gamma	59.993435
loop_
_atom_site_label
_atom_site_type_symbol
_atom_site_fract_x
_atom_site_fract_y
_atom_site_fract_z
O1	O	0.069940	-0.738516	0.617604
O2	O	0.569940	-0.238516	1.117604
O3	O	0.026299	-0.574986	0.497618
O4	O	0.526299	-0.074986	0.997618
O5	O	0.129847	-0.678463	0.497546
O6	O	0.629847	-0.178463	0.997546
O7	O	-0.033607	-0.635040	0.617676
O8	O	0.466393	-0.135040	1.117676
O9	O	0.164197	-0.644116	0.531822
O10	O	0.664197	-0.144116	1.031822
O11	O	0.060649	-0.540639	0.531894
O12	O	0.560649	-0.040639	1.031894
O13	O	0.104290	-0.704170	0.651880
O14	O	0.604290	-0.204170	1.151880
Cu15	Cu	0.085606	-0.619268	0.595016
Cu16	Cu	0.585606	-0.119268	1.095016
Cu17	Cu	0.044984	-0.659887	0.554481
Cu18	Cu	0.544984	-0.159887	1.054481
O19	O	0.000742	-0.600693	0.651952
O20	O	0.500742	-0.100693	1.151952
N21	N	0.114179	-0.590703	0.623530
N22	N	0.614179	-0.090703	1.123530
N23	N	0.016416	-0.688458	0.525968
N24	N	0.516416	-0.188458	1.025968
C25	C	0.157553	-0.547535	0.933368
C26	C	0.657553	-0.047535	1.433368
C27	C	0.424104	-0.547506	0.666656
C28	C	0.924104	-0.047506	1.166656
C29	C	0.157413	-0.547503	0.666729
C30	C	0.657413	-0.047503	1.166729
C31	C	0.157397	-0.280846	0.666749
C32	C	0.657397	0.219154	1.166749
C33	C	0.200330	-0.409550	0.709625
C34	C	0.700330	0.090450	1.209625
C35	C	0.200339	-0.504608	0.709615
C36	C	0.700339	-0.004608	1.209615
C37	C	0.224118	-0.480848	0.733375
C38	C	0.724118	0.019152	1.233375
C39	C	0.327800	-0.462984	0.678792
C40	C	0.827800	0.037016	1.178792
C41	C	0.392611	-0.484588	0.657175
C42	C	0.892611	0.015412	1.157175
C43	C	0.392630	-0.589450	0.697162
C44	C	0.892630	-0.089450	1.197162
C45	C	0.327821	-0.567844	0.718781
C46	C	0.827821	-0.067844	1.218781
C47	C	0.215955	-0.377135	0.645910
C48	C	0.715955	0.122865	1.145910
C49	C	0.194327	-0.312320	0.624323
C50	C	0.694327	0.187680	1.124323
C51	C	0.141457	-0.312339	0.730169
C52	C	0.641457	0.187661	1.230169
C53	C	0.163084	-0.377154	0.751756
C54	C	0.663084	0.122846	1.251756
C55	C	0.136618	-0.488954	0.725292
C56	C	0.636618	0.011046	1.225292
C57	C	0.115007	-0.510553	0.703686
C58	C	0.615007	-0.010553	1.203686
C59	C	0.220833	-0.563461	0.650740
C60	C	0.720833	-0.063461	1.150740
C61	C	0.242447	-0.541861	0.672339
C62	C	0.742447	-0.041861	1.172339
C63	C	0.136680	-0.488971	0.837094
C64	C	0.636680	0.011029	1.337094
C65	C	0.115112	-0.510589	0.901907
C66	C	0.615112	-0.010589	1.401907
C67	C	0.220969	-0.563508	0.901868
C68	C	0.720969	-0.063508	1.401868
C69	C	0.242535	-0.541892	0.837053
C70	C	0.742535	-0.041892	1.337053
C71	C	0.200389	-0.504622	0.804668
C72	C	0.700389	-0.004622	1.304668
C73	C	0.295409	-0.504610	0.709593
C74	C	0.795409	-0.004610	1.209593
C75	C	0.132990	-0.570876	1.004655
C76	C	0.632990	-0.070876	1.504655
C77	C	0.495389	-0.570440	0.642547
C78	C	0.995389	-0.070440	1.142547
C79	C	0.132802	-0.570856	0.643399
C80	C	0.632802	-0.070856	1.143399
C81	C	0.133212	-0.209553	0.643833
C82	C	0.633212	0.290447	1.143833
C83	C	-0.097217	-0.706972	0.506986
C84	C	0.402783	-0.206972	1.006986
C85	C	-0.002040	-0.707108	0.412067
C86	C	0.497960	-0.207108	0.912067
C87	C	-0.002230	-0.802124	0.507163
C88	C	0.497770	-0.302124	1.007163
C89	C	-0.002214	-0.707101	0.507221
C90	C	0.497786	-0.207101	1.007221
C91	C	-0.025925	-0.730827	0.483360
C92	C	0.474075	-0.230827	0.983360
N93	N	0.553723	-0.590712	0.623415
N94	N	1.053723	-0.090712	1.123415
O95	O	0.751638	-0.596429	0.475603
O96	O	1.251638	-0.096429	0.975603
O97	O	0.751819	-0.716773	0.638980
O98	O	1.251819	-0.216773	1.138980
O99	O	0.751753	-0.716500	0.535361
O100	O	1.251753	-0.216500	1.035361
O101	O	0.751705	-0.596703	0.579222
O102	O	1.251705	-0.096703	1.079222
O103	O	0.648791	-0.682239	0.569747
O104	O	1.148791	-0.182239	1.069747
O105	O	0.648858	-0.682512	0.673366
O106	O	1.148858	-0.182512	1.173366
O107	O	0.648676	-0.562169	0.509989
O108	O	1.148676	-0.062169	1.009989
Cu109	Cu	0.639366	-0.619212	0.594817
Cu110	Cu	1.139366	-0.119212	1.094817
Cu111	Cu	0.761130	-0.659729	0.554152
Cu112	Cu	1.261130	-0.159729	1.054152
O113	O	0.648743	-0.562442	0.613609
O114	O	1.148743	-0.062442	1.113609
N115	N	0.846773	-0.688230	0.525548
N116	N	1.346773	-0.188230	1.025548
N117	N	0.114157	-0.151217	0.623565
N118	N	0.614157	0.348783	1.123565
O119	O	-0.033591	0.046803	0.617717
O120	O	0.466409	0.546803	1.117717
O121	O	0.129795	0.046806	0.497390
O122	O	0.629795	0.546806	0.997390
O123	O	0.026157	0.046789	0.497680
O124	O	0.526157	0.546789	0.997680
O125	O	0.070046	0.046819	0.617427
O126	O	0.570046	0.546819	1.117427
O127	O	0.060509	-0.056181	0.532004
O128	O	0.560509	0.443819	1.032004
O129	O	0.164146	-0.056164	0.531714
O130	O	0.664146	0.443836	1.031714
O131	O	0.000760	-0.056167	0.652041
O132	O	0.500760	0.443833	1.152041
Cu133	Cu	0.085590	-0.065568	0.595012
Cu134	Cu	0.585590	0.434432	1.095012
Cu135	Cu	0.044965	0.056206	0.554419
Cu136	Cu	0.544965	0.556206	1.054419
O137	O	0.104397	-0.056151	0.651751
O138	O	0.604397	0.443849	1.151751
N139	N	0.016390	0.141855	0.525867
N140	N	0.516390	0.641855	1.025867
N141	N	0.114410	-0.590756	1.062992
N142	N	0.614410	-0.090756	1.562992
O143	O	0.108565	-0.738494	1.260998
O144	O	0.608565	-0.238494	1.760998
O145	O	-0.011747	-0.575059	1.261012
O146	O	0.488253	-0.075059	1.761012
O147	O	-0.011470	-0.678679	1.260970
O148	O	0.488530	-0.178679	1.760970
O149	O	0.108287	-0.634874	1.261040
O150	O	0.608287	-0.134874	1.761040
O151	O	0.022849	-0.644347	1.158004
O152	O	0.522849	-0.144347	1.658004
O153	O	0.022572	-0.540726	1.158046
O154	O	0.522572	-0.040726	1.658046
O155	O	0.142884	-0.704162	1.158033
O156	O	0.642884	-0.204162	1.658033
Cu157	Cu	0.085861	-0.619309	1.148638
Cu158	Cu	0.585861	-0.119309	1.648638
Cu159	Cu	0.045275	-0.659911	1.270406
Cu160	Cu	0.545275	-0.159911	1.770406
O161	O	0.142606	-0.600541	1.158074
O162	O	0.642606	-0.100541	1.658074
N163	N	0.016726	-0.688471	1.356052
N164	N	0.516726	-0.188471	1.856052
C165	C	0.039385	-0.537207	0.498225
C166	C	0.539385	-0.037207	0.998225
C167	C	0.167616	-0.665350	0.498136
C168	C	0.667616	-0.165350	0.998136
C169	C	0.091204	-0.741950	0.651272
C170	C	0.591204	-0.241950	1.151272
C171	C	-0.037027	-0.613806	0.651361
C172	C	0.462973	-0.113806	1.151361
C173	C	0.700360	-0.716215	0.676756
C174	C	1.200360	-0.216215	1.176756
C175	C	0.700279	-0.715877	0.548436
C176	C	1.200279	-0.215877	1.048436
C177	C	0.700133	-0.562725	0.472214
C178	C	1.200133	-0.062725	0.972214
C179	C	0.700218	-0.563065	0.600533
C180	C	1.200218	-0.063065	1.100533
C181	C	0.167511	-0.004552	0.497940
C182	C	0.667511	0.495448	0.997940
C183	C	0.039211	-0.004699	0.498341
C184	C	0.539211	0.495301	0.998341
C185	C	-0.036999	-0.004682	0.651449
C186	C	0.463001	0.495318	1.151449
C187	C	0.091344	-0.004663	0.651090
C188	C	0.591344	0.495337	1.151090
C189	C	-0.011156	-0.537302	1.209530
C190	C	0.488844	-0.037302	1.709530
C191	C	-0.010806	-0.665617	1.209458
C192	C	0.489194	-0.165617	1.709458
C193	C	0.142293	-0.741918	1.209514
C194	C	0.642293	-0.241918	1.709514
C195	C	0.141950	-0.613596	1.209563
C196	C	0.641950	-0.113596	1.709563
H197	H	0.063231	-0.497836	0.928300
H198	H	0.563231	0.002164	1.428300
H199	H	-0.083976	-0.604550	0.689083
H200	H	0.416024	-0.104550	1.189083
N201	N	0.103545	-0.804170	0.701194
N202	N	0.603545	-0.304170	1.201194
H203	H	0.147113	-0.831760	0.685203
H204	H	0.647113	-0.331760	1.185203
H205	H	0.073126	-0.823899	0.713189
H206	H	0.573126	-0.323899	1.213189
H207	H	0.180068	-0.788855	1.209502
H208	H	0.680068	-0.288855	1.709502
N209	N	0.027048	-0.474983	0.448307
N210	N	0.527048	0.025017	0.948307
H211	H	-0.016520	-0.447392	0.464299
H212	H	0.483480	0.052608	0.964299
H213	H	0.031999	-0.480715	0.410896
H214	H	0.531999	0.019285	0.910896
N215	N	0.700297	-0.765727	0.536007
N216	N	1.200297	-0.265727	1.036007
H217	H	0.700345	-0.804057	0.574030
H218	H	1.200345	-0.304057	1.074030
H219	H	0.738450	-0.775912	0.500068
H220	H	1.238450	-0.275912	1.000068
H221	H	0.700405	-0.753994	0.723681
H222	H	1.200405	-0.253994	1.223681
N223	N	-0.099150	-0.004690	0.701492
N224	N	0.400850	0.495310	1.201492
H225	H	-0.093388	-0.042861	0.738908
H226	H	0.406612	0.457139	1.238908
H227	H	-0.126799	-0.004677	0.685571
H228	H	0.373201	0.495323	1.185571
N229	N	0.700055	-0.512672	0.410067
N230	N	1.200055	-0.012672	0.910067
H231	H	0.700047	-0.528547	0.382388
H232	H	1.200047	-0.028547	0.882388
H233	H	0.738204	-0.500687	0.390390
H234	H	1.238204	-0.000687	0.890390
N235	N	0.229536	-0.004174	0.447772
N236	N	0.729536	0.495826	0.947772
H237	H	0.257194	-0.004082	0.463608
H238	H	0.757194	0.495918	0.963608
H239	H	0.223513	0.034080	0.410490
H240	H	0.723513	0.534080	0.910490
N241	N	0.103789	-0.004642	0.700914
N242	N	0.603789	0.495358	1.200914
H243	H	0.139703	-0.042807	0.711171
H244	H	0.639703	0.457193	1.211171
H245	H	0.065738	-0.004614	0.739206
H246	H	0.565738	0.495386	1.239206
N247	N	0.700204	-0.513214	0.612958
N248	N	1.200204	-0.013214	1.112958
H249	H	0.700244	-0.529277	0.656531
H250	H	1.200244	-0.029277	1.156531
H251	H	0.662008	-0.475797	0.608048
H252	H	1.162008	0.024203	1.108048
H253	H	0.029814	-0.004702	0.460721
H254	H	0.529814	0.495298	0.960721
H255	H	0.111138	-0.285961	0.764475
H256	H	0.611138	0.214039	1.264475
H257	H	0.214562	-0.674609	0.460411
H258	H	0.714562	-0.174609	0.960411
H259	H	-0.048928	-0.490363	1.209534
H260	H	0.451072	0.009637	1.709534
H261	H	-0.048413	-0.674973	1.209396
H262	H	0.451587	-0.174973	1.709396
H263	H	0.179573	-0.604224	1.209577
H264	H	0.679573	-0.104224	1.709577
H265	H	0.102355	-0.458618	0.810728
H266	H	0.602355	0.041382	1.310728
H267	H	0.294416	-0.554643	0.810656
H268	H	0.794416	-0.054643	1.310656
N269	N	0.266432	-0.603688	0.936787
N270	N	0.766432	-0.103688	1.436787
H271	H	0.293332	-0.642657	0.925495
H272	H	0.793332	-0.142657	1.425495
H273	H	0.243065	-0.614962	0.982756
H274	H	0.743065	-0.114962	1.482756
N275	N	0.091204	-0.448766	0.765487
N276	N	0.591204	0.051234	1.265487
H277	H	0.047558	-0.442122	0.772132
H278	H	0.547558	0.057878	1.272132
H279	H	0.097855	-0.407484	0.744436
H280	H	0.597855	0.092516	1.244436
H281	H	0.063121	-0.497793	0.716436
H282	H	0.563121	0.002207	1.216436
H283	H	0.294333	-0.554601	0.659567
H284	H	0.794333	-0.054601	1.159567
N285	N	0.266250	-0.603648	0.610545
N286	N	0.766250	-0.103648	1.110545
H287	H	0.309894	-0.610032	0.603643
H288	H	0.809894	-0.110032	1.103643
H289	H	0.259368	-0.582737	0.569380
H290	H	0.759368	-0.082737	1.069380
H291	H	0.419022	-0.640939	0.704632
H292	H	0.919022	-0.140939	1.204632
N293	N	0.292882	-0.612744	0.752006
N294	N	0.792882	-0.112744	1.252006
H295	H	0.323252	-0.656080	0.754541
H296	H	0.823252	-0.156080	1.254541
H297	H	0.265974	-0.601177	0.728531
H298	H	0.765974	-0.101177	1.228531
H299	H	0.301415	-0.411495	0.671309
H300	H	0.801415	0.088505	1.171309
N301	N	0.427551	-0.439693	0.623960
N302	N	0.927551	0.060307	1.123960
H303	H	0.397182	-0.396356	0.621421
H304	H	0.897182	0.103644	1.121421
H305	H	0.454427	-0.441488	0.580803
H306	H	0.954427	0.058512	1.080803
N307	N	0.256129	-0.412079	0.600474
N308	N	0.756129	0.087921	1.100474
H309	H	0.262740	-0.381708	0.556834
H310	H	0.762740	0.118292	1.056834
H311	H	0.235084	-0.438973	0.607137
H312	H	0.735084	0.061027	1.107137
H313	H	0.207047	-0.285927	0.572438
H314	H	0.707047	0.214073	1.072438
H315	H	0.150353	-0.403547	0.803641
H316	H	0.650353	0.096453	1.303641
