data_functionalizedCrystal
_audit_creation_method	'MofGen! by Chris Wilmer'
_symmetry_space_group_name_H-M	'P1'
_symmetry_Int_Tables_number	1
_symmetry_cell_setting	triclinic
loop_
_symmetry_equiv_pos_as_xyz
  x,y,z
_cell_length_a	17.699097
_cell_length_b	14.421503
_cell_length_c	15.944551
_cell_angle_alpha	90.003340
_cell_angle_beta	96.606416
_cell_angle_gamma	90.011209
loop_
_atom_site_label
_atom_site_type_symbol
_atom_site_fract_x
_atom_site_fract_y
_atom_site_fract_z
O1	O	1.004256	0.077191	-0.106261
O2	O	0.783902	0.077176	-0.120069
O3	O	0.900096	0.077175	0.009122
O4	O	0.888061	0.077191	-0.235452
O5	O	0.900077	-0.077048	0.009103
O6	O	0.783883	-0.077048	-0.120089
O7	O	1.004236	-0.077033	-0.106281
Cu8	Cu	0.894058	-0.091122	-0.113186
Cu9	Cu	0.894081	0.091265	-0.113164
O10	O	0.888042	-0.077032	-0.235472
C11	C	0.755695	0.000062	-0.119582
C12	C	0.671675	0.000056	-0.118092
N13	N	0.894047	-0.219403	-0.113202
C14	C	0.155951	0.084160	-0.108949
C15	C	0.234898	0.084156	-0.110343
C16	C	0.274355	0.000085	-0.111052
C17	C	0.234862	-0.083987	-0.110358
C18	C	0.155917	-0.083982	-0.108958
C19	C	0.553235	-0.084011	-0.116004
C20	C	0.632185	-0.084010	-0.117407
C21	C	0.632216	0.084126	-0.117389
C22	C	0.553272	0.084132	-0.115989
C23	C	0.513786	0.000060	-0.115291
C24	C	0.428184	0.000066	-0.113777
C25	C	0.359955	0.000078	-0.112572
C26	C	0.840310	-0.469057	-0.172913
C27	C	0.908700	-0.530853	-0.189080
C28	C	0.894066	-0.408565	-0.113182
C29	C	0.825693	-0.530862	-0.097034
C30	C	0.894077	-0.591286	-0.113164
C31	C	0.962491	-0.469001	-0.129386
C32	C	0.879439	-0.469004	-0.037308
C33	C	0.947878	-0.530772	-0.053442
C34	C	0.894058	-0.303304	-0.113194
C35	C	0.894093	-0.696545	-0.113151
C36	C	1.032444	0.000083	-0.106768
C37	C	1.116464	0.000095	-0.108258
C38	C	0.899587	0.000063	0.040405
C39	C	0.898089	0.000063	0.133648
N40	N	0.894097	0.219546	-0.113141
C41	C	0.888551	0.000082	-0.266755
C42	C	0.890049	0.000088	-0.359998
C43	C	0.822486	0.000070	0.348350
C44	C	0.857584	-0.075969	0.409430
C45	C	0.895379	0.000070	0.304368
C46	C	0.857621	0.076084	0.409432
C47	C	0.892757	0.000080	0.469276
C48	C	0.930497	-0.076032	0.364220
C49	C	0.930523	0.076088	0.364216
C50	C	0.965674	0.000031	0.425278
C51	C	0.896888	0.000063	0.209369
C52	C	0.891253	0.000081	0.564274
H53	H	0.123831	0.152621	-0.108378
O54	O	1.037871	0.000056	0.465114
C55	C	1.035693	0.000805	0.553228
H56	H	0.978962	0.030407	0.567918
H57	H	1.084074	0.045616	0.584392
H58	H	1.042283	-0.072999	0.578626
O59	O	1.031537	-0.436748	-0.145635
C60	C	1.088169	-0.468920	-0.082975
H61	H	1.061248	-0.486657	-0.023378
H62	H	1.132926	-0.412617	-0.068092
H63	H	1.116127	-0.533498	-0.106784
H64	H	0.267046	0.152610	-0.110901
H65	H	0.826745	-0.140258	0.429467
H66	H	0.867034	-0.441815	0.026829
O67	O	0.514894	0.165775	-0.115449
C68	C	0.460648	0.170805	-0.187344
H69	H	0.478440	0.123101	-0.238599
H70	H	0.456892	0.245162	-0.211726
H71	H	0.402751	0.148219	-0.169845
H72	H	0.521097	-0.152467	-0.115423
H73	H	0.921083	-0.558020	-0.253237
H74	H	0.993393	-0.557700	-0.002919
H75	H	0.961294	-0.140388	0.344285
H76	H	0.767867	-0.558037	-0.083385
H77	H	0.123766	-0.152436	-0.108404
O78	O	0.967172	0.152880	0.340300
C79	C	0.928564	0.232896	0.363086
H80	H	0.866856	0.214673	0.369723
H81	H	0.930420	0.288076	0.312170
H82	H	0.957194	0.260641	0.425788
H83	H	0.794896	-0.441959	-0.223466
O84	O	0.670532	-0.165658	-0.118238
C85	C	0.707642	-0.170684	-0.191756
H86	H	0.677868	-0.122983	-0.242160
H87	H	0.705652	-0.245042	-0.216180
H88	H	0.769413	-0.148093	-0.176378
H89	H	0.826788	0.140373	0.429454
H90	H	0.761982	-0.000009	0.314918
H91	H	0.664375	0.152581	-0.117954
H92	H	0.266994	-0.152439	-0.110930
