data_functionalizedCrystal
_audit_creation_method	'MofGen! by Chris Wilmer'
_symmetry_space_group_name_H-M	'P1'
_symmetry_Int_Tables_number	1
_symmetry_cell_setting	triclinic
loop_
_symmetry_equiv_pos_as_xyz
  x,y,z
_cell_length_a	17.638686
_cell_length_b	17.640280
_cell_length_c	12.759393
_cell_angle_alpha	78.768081
_cell_angle_beta	78.784020
_cell_angle_gamma	65.687361
loop_
_atom_site_label
_atom_site_type_symbol
_atom_site_fract_x
_atom_site_fract_y
_atom_site_fract_z
Zn1	Zn	1.326460	-0.583188	-0.793319
Zn2	Zn	1.354251	-0.721012	-0.588094
Zn3	Zn	1.188632	-0.555323	-0.588158
Zn4	Zn	1.216475	-0.693055	-0.734274
O5	O	1.271455	-0.638144	-0.675961
O6	O	1.445488	-0.624832	-0.790779
O7	O	1.332260	-0.699071	-0.441065
O8	O	1.183632	-0.443698	-0.640110
O9	O	1.465906	-0.726090	-0.640001
O10	O	1.284894	-0.464170	-0.790841
O11	O	1.210580	-0.577341	-0.441112
O12	O	1.076984	-0.550232	-0.582857
O13	O	1.231087	-0.678443	-0.889143
O14	O	1.097441	-0.651424	-0.690207
O15	O	1.311892	-0.597723	-0.932523
O16	O	1.359258	-0.832624	-0.582747
O17	O	1.258035	-0.812085	-0.690145
C18	C	1.057306	-0.594771	-0.630132
C19	C	0.965696	-0.576236	-0.610547
C20	C	0.717854	-0.779135	-0.824972
C21	C	0.631772	-0.761711	-0.806544
C22	C	0.610404	-0.656177	-0.695003
C23	C	0.696487	-0.673595	-0.713417
C24	C	0.750206	-0.735074	-0.778404
C25	C	0.728838	-0.629534	-0.666849
C26	C	0.814914	-0.646948	-0.685267
C27	C	0.868637	-0.708423	-0.750253
C28	C	0.836281	-0.752488	-0.796821
C29	C	0.675117	-0.568051	-0.601869
C30	C	0.707469	-0.523991	-0.555301
C31	C	0.793546	-0.541408	-0.573712
C32	C	0.847270	-0.602883	-0.638698
C33	C	0.825903	-0.497343	-0.527143
C34	C	0.911978	-0.514757	-0.545561
C35	C	0.933345	-0.620297	-0.657116
C36	C	1.314706	-0.852260	-0.630060
C37	C	1.333284	-0.943875	-0.610475
C38	C	1.130654	-1.191809	-0.825203
C39	C	1.148113	-1.277895	-0.806767
C40	C	1.253583	-1.299231	-0.695083
C41	C	1.236135	-1.213145	-0.713515
C42	C	1.174670	-1.159440	-0.778575
C43	C	1.280151	-1.180776	-0.666886
C44	C	1.262702	-1.094697	-0.685312
C45	C	1.201237	-1.040987	-0.750366
C46	C	1.157221	-1.073361	-0.797000
C47	C	1.341612	-1.234482	-0.601820
C48	C	1.385627	-1.202113	-0.555192
C49	C	1.368182	-1.116034	-0.573623
C50	C	1.306718	-1.062323	-0.638678
C51	C	1.412199	-1.083659	-0.526989
C52	C	1.394750	-0.997580	-0.545415
C53	C	1.289269	-0.976244	-0.657103
C54	C	1.486439	-0.681687	-0.721969
C55	C	1.578053	-0.700243	-0.741575
C56	C	1.271495	-0.638073	-0.950025
C57	C	1.271513	-0.638042	-1.066814
C58	C	1.228057	-0.423197	-0.722069
C59	C	1.209564	-0.331599	-0.741717
C60	C	1.208171	-0.574651	-1.121706
C61	C	1.208185	-0.574630	-1.231440
C62	C	1.334890	-0.701394	-1.231381
C63	C	1.334872	-0.701418	-1.121647
C64	C	1.271449	-0.638166	-0.402986
C65	C	1.271545	-0.637997	-0.286281
H66	H	0.938317	-0.478872	-0.507649
H67	H	1.386475	-0.752992	-1.276039
H68	H	1.386455	-0.753042	-1.076953
H69	H	1.462238	-1.127397	-0.474009
C70	C	1.063042	-1.132722	-0.896770
C71	C	0.971759	-1.125656	-0.865496
C72	C	0.904149	-1.066567	-0.937055
C73	C	0.927821	-1.014544	-1.039887
C74	C	1.019108	-1.021609	-1.071166
C75	C	1.086719	-1.080697	-0.999607
H76	H	0.954232	-1.164168	-0.789369
H77	H	0.836572	-1.061338	-0.913901
H78	H	0.877772	-0.970803	-1.092860
H79	H	1.036635	-0.983097	-1.147293
H80	H	1.154295	-1.085926	-1.022762
H81	H	0.977087	-0.670363	-0.710028
H82	H	1.303625	-1.342968	-0.642108
H83	H	1.156580	-0.523047	-1.077064
H84	H	0.938724	-0.722596	-0.765254
C85	C	1.138510	-0.504895	-1.291822
C86	C	1.046164	-0.492636	-1.255234
C87	C	0.976485	-0.422898	-1.315614
C88	C	0.999153	-0.365421	-1.412582
C89	C	1.091504	-0.377678	-1.449175
C90	C	1.161183	-0.447416	-1.388795
H91	H	1.029380	-0.535186	-1.183448
H92	H	0.908120	-0.413825	-1.288525
H93	H	0.947572	-0.313797	-1.457279
H94	H	1.108288	-0.335128	-1.520961
H95	H	1.229547	-0.456490	-1.415884
H96	H	1.187025	-0.970895	-0.765358
H97	H	0.880023	-0.802555	-0.849734
C98	C	0.596186	-0.810187	-0.857768
C99	C	0.655278	-0.877811	-0.929246
C100	C	0.619691	-0.926284	-0.980469
C101	C	0.525013	-0.907134	-0.960214
C102	C	0.465915	-0.839507	-0.888732
C103	C	0.501502	-0.791034	-0.837509
H104	H	0.725369	-0.891990	-0.944243
H105	H	0.663440	-0.976346	-1.033385
H106	H	0.498670	-0.943017	-0.998133
H107	H	0.395823	-0.825328	-0.873735
H108	H	0.457753	-0.740972	-0.784593
H109	H	1.107175	-1.029633	-0.849988
C110	C	0.551307	-0.588554	-0.623520
C111	C	0.479074	-0.511923	-0.670379
C112	C	0.419978	-0.444301	-0.598893
C113	C	0.433114	-0.453308	-0.480548
C114	C	0.505349	-0.529942	-0.433683
C115	C	0.564446	-0.597565	-0.505169
H116	H	0.469347	-0.505253	-0.757991
H117	H	0.366504	-0.387571	-0.633587
H118	H	0.389367	-0.403250	-0.427630
H119	H	0.515076	-0.536613	-0.346071
H120	H	0.617920	-0.654294	-0.470475
H121	H	0.782151	-0.447281	-0.474240
C122	C	1.453238	-1.261194	-0.483631
C123	C	1.429572	-1.313213	-0.380791
C124	C	1.497186	-1.372293	-0.309232
C125	C	1.588466	-1.379355	-0.340514
C126	C	1.612137	-1.327334	-0.443359
C127	C	1.544523	-1.268254	-0.514917
H128	H	1.361996	-1.307988	-0.357630
H129	H	1.479662	-1.410803	-0.233099
H130	H	1.638518	-1.423089	-0.287542
H131	H	1.679713	-1.332559	-0.466520
H132	H	1.562047	-1.229744	-0.591050
H133	H	1.112276	-1.304247	-0.844757
H134	H	1.430591	-0.971226	-0.507443
H135	H	0.605029	-0.553871	-0.586882
H136	H	0.761597	-0.829202	-0.877884
H137	H	1.355819	-1.304573	-0.586824
H138	H	1.239223	-0.932516	-0.710091
H139	H	0.663719	-0.473932	-0.502392
