data_functionalizedCrystal
_audit_creation_method	'MofGen! by Chris Wilmer'
_symmetry_space_group_name_H-M	'P1'
_symmetry_Int_Tables_number	1
_symmetry_cell_setting	triclinic
loop_
_symmetry_equiv_pos_as_xyz
  x,y,z
_cell_length_a	27.732048
_cell_length_b	17.000371
_cell_length_c	15.500227
_cell_angle_alpha	87.380458
_cell_angle_beta	87.187766
_cell_angle_gamma	100.879049
loop_
_atom_site_label
_atom_site_type_symbol
_atom_site_fract_x
_atom_site_fract_y
_atom_site_fract_z
O1	O	-0.015024	1.059620	-0.071944
O2	O	-0.032576	0.827671	-0.071941
O3	O	0.046871	0.950850	-0.071954
O4	O	-0.094471	0.936441	-0.071931
O5	O	0.042067	0.943376	0.071936
O6	O	-0.037380	0.820197	0.071949
O7	O	-0.019827	1.052146	0.071945
Cu8	Cu	-0.029042	0.935489	0.085085
Cu9	Cu	-0.023361	0.944328	-0.085081
O10	O	-0.099274	0.928967	0.071959
C11	C	-0.035921	0.794269	0.000004
C12	C	-0.038724	0.705876	0.000005
C13	C	0.004417	0.674381	-0.000001
C14	C	0.001780	0.591326	-0.000007
C15	C	-0.043998	0.539767	-0.000001
C16	C	-0.087143	0.571266	0.000002
C17	C	-0.084505	0.654320	0.000002
C18	C	-0.054186	0.288496	-0.000005
C19	C	-0.056820	0.205436	-0.000002
C20	C	0.032103	0.225502	-0.000012
C21	C	0.034736	0.308556	-0.000008
C22	C	-0.008408	0.340049	-0.000009
C23	C	-0.046695	0.454871	-0.000004
C24	C	-0.005711	0.424944	-0.000012
C25	C	-0.114868	0.933006	0.000017
C26	C	-0.168488	0.933917	0.000025
C27	C	-0.509848	0.866862	-0.000015
C28	C	-0.711379	0.870241	-0.000026
O29	O	-0.744962	0.808924	-0.000063
N30	N	-0.727730	0.943281	-0.000026
C31	C	-0.693694	1.015481	-0.000029
O32	O	-0.712225	1.077683	-0.000037
C33	C	-0.492164	1.012101	-0.000024
C34	C	-0.475816	0.939056	-0.000016
C35	C	-0.493500	0.793823	-0.000008
C36	C	-0.443121	0.792979	-0.000001
C37	C	-0.409089	0.865173	-0.000001
C38	C	-0.425437	0.938212	-0.000008
C39	C	-0.458128	1.084301	-0.000033
C40	C	-0.407743	1.083449	-0.000035
C41	C	-0.391396	1.010404	-0.000026
C42	C	-0.341025	1.009562	-0.000001
N43	N	-0.324675	0.936522	-0.000002
C44	C	-0.358707	0.864328	-0.000001
C45	C	-0.799501	1.017250	-0.000029
C46	C	-0.849883	1.018095	-0.000028
C47	C	-0.867565	0.872855	-0.000027
C48	C	-0.817182	0.872011	-0.000022
C49	C	-0.783150	0.944211	-0.000029
C50	C	-0.252905	0.862560	0.000015
C51	C	-0.202520	0.861722	0.000026
C52	C	-0.184843	1.006962	0.000020
C53	C	-0.235223	1.007800	0.000014
C54	C	-0.269254	0.935593	0.000008
O55	O	-0.307415	1.070847	0.000026
O56	O	-0.340165	0.802136	-0.000012
C57	C	-0.560228	0.867706	-0.000023
C58	C	-0.576576	0.940745	-0.000030
C59	C	-0.542544	1.012939	-0.000031
C60	C	-0.626958	0.941590	-0.000030
C61	C	-0.660990	0.869396	-0.000030
C62	C	-0.644639	0.796356	-0.000030
C63	C	-0.594260	0.795512	-0.000023
C64	C	-0.558895	1.085979	-0.000030
C65	C	-0.609275	1.086817	-0.000037
C66	C	-0.643307	1.014623	-0.000036
C67	C	0.062464	0.946811	-0.000014
C68	C	0.116085	0.945901	-0.000028
C69	C	-0.016483	1.085548	-0.000001
C70	C	-0.013679	1.173942	-0.000007
N71	N	-0.033037	0.929277	0.204771
N72	N	-0.019363	0.950546	-0.204766
C73	C	0.000617	0.981490	0.250042
C74	C	-0.002409	0.976800	0.340615
C75	C	-0.039090	0.919900	0.385916
C76	C	-0.072745	0.867681	0.340639
C77	C	-0.069717	0.872368	0.250067
C78	C	-0.049990	0.903015	0.659385
C79	C	-0.053016	0.898333	0.749963
C80	C	0.017321	1.007451	0.749933
C81	C	0.020344	1.012137	0.659360
C82	C	-0.013309	0.959915	0.614090
C83	C	-0.042184	0.915106	0.478496
C84	C	-0.010213	0.964706	0.521511
H85	H	0.072014	0.350531	-0.000009
H86	H	-0.672357	0.737573	-0.000024
H87	H	-0.531190	1.144770	-0.000032
O88	O	-0.086290	0.846701	0.610562
H89	H	-0.112308	0.806356	0.657282
H90	H	0.036910	0.565688	-0.000012
O91	O	-0.081753	0.853746	0.527359
H92	H	-0.064406	0.813163	0.568641
H93	H	0.031562	0.466927	-0.000022
O94	O	-0.092581	0.836960	0.798829
H95	H	-0.075230	0.796387	0.840115
H96	H	-0.102611	0.821348	0.377528
O97	O	-0.904278	0.794989	-0.000025
H98	H	-0.884451	0.744051	-0.000020
O99	O	-0.106017	0.816058	0.201232
H100	H	-0.132036	0.775709	0.247947
O101	O	0.053618	1.063766	0.798766
H102	H	0.050650	1.126666	0.781371
H103	H	0.041695	0.716356	-0.000002
H104	H	-0.083968	0.412882	0.000002
H105	H	0.067229	0.199851	-0.000021
H106	H	0.030485	1.027828	0.213164
H107	H	0.019655	1.011032	0.484625
H108	H	-0.089316	0.314127	-0.000012
H109	H	-0.094101	0.163457	0.000007
H110	H	-0.124416	0.529280	0.000001
H111	H	-0.119635	0.679961	0.000010
O112	O	0.033887	1.033114	0.389450
H113	H	0.013776	1.069417	0.430711
O114	O	-0.184888	0.782936	0.000037
H115	H	-0.196831	0.751325	-0.058613
O116	O	-0.289607	0.784682	0.000022
H117	H	-0.269768	0.733758	0.000039
O118	O	-0.425491	0.714195	0.000001
H119	H	-0.457626	0.664144	-0.000008
H120	H	0.050213	1.058469	0.622478
O121	O	-0.530204	0.715949	0.000006
H122	H	-0.510363	0.665027	0.000021
H123	H	-0.803876	0.812531	-0.000011
O124	O	-0.867513	1.096878	-0.000038
H125	H	-0.835380	1.146934	-0.000050
H126	H	-0.248534	1.067279	0.000019
H127	H	-0.771795	1.076047	-0.000034
H128	H	-0.471428	1.143781	-0.000041
O129	O	-0.371037	1.161323	-0.000033
H130	H	-0.390873	1.212251	-0.000031
O131	O	-0.626904	1.165606	-0.000056
H132	H	-0.594770	1.215662	-0.000068
H133	H	-0.157125	1.065740	0.000024
O134	O	-0.576630	0.716728	-0.000019
H135	H	-0.608765	0.666676	-0.000026
