data_functionalizedCrystal
_audit_creation_method	'MofGen! by Chris Wilmer'
_symmetry_space_group_name_H-M	'P1'
_symmetry_Int_Tables_number	1
_symmetry_cell_setting	triclinic
loop_
_symmetry_equiv_pos_as_xyz
  x,y,z
_cell_length_a	20.919309
_cell_length_b	17.917603
_cell_length_c	20.919309
_cell_angle_alpha	59.681502
_cell_angle_beta	90.173912
_cell_angle_gamma	60.553501
loop_
_atom_site_label
_atom_site_type_symbol
_atom_site_fract_x
_atom_site_fract_y
_atom_site_fract_z
Zr1	Zr	0.675599	0.749491	-0.083698
O2	O	0.579890	0.904417	-0.191500
O3	O	0.700419	0.594566	-0.046784
O4	O	0.711632	0.737416	-0.180285
O5	O	0.564974	0.771092	0.042910
O6	O	0.820694	0.727890	-0.175837
O7	O	0.568677	0.761567	-0.057999
O8	O	0.800637	0.472357	0.062971
O9	O	0.585032	1.026625	-0.195899
O10	O	0.797858	0.651180	-0.032394
O11	O	0.713703	0.665397	0.039594
O12	O	0.726904	0.833585	-0.117586
O13	O	0.642749	0.847802	-0.045598
Zr14	Zr	0.843636	0.749491	0.084332
Zr15	Zr	0.849542	0.734299	-0.076606
Zr16	Zr	0.669694	0.764683	0.077239
Zr17	Zr	0.683801	0.944399	-0.090715
Zr18	Zr	0.835435	0.554583	0.091348
O19	O	0.818817	0.904416	0.047417
O20	O	0.827213	0.882815	-0.181415
O21	O	0.571493	0.926018	0.037332
O22	O	0.939346	0.594565	0.192133
O23	O	0.947742	0.572964	-0.036699
O24	O	0.692022	0.616166	0.182048
O25	O	0.954261	0.727890	-0.042276
O26	O	0.807604	0.761566	0.180918
O27	O	0.698541	0.771092	0.176471
O28	O	0.950559	0.737415	0.058632
O29	O	0.723293	1.014549	-0.190261
O30	O	0.795943	0.484433	0.190895
O31	O	0.934204	0.472357	0.196532
O32	O	0.938897	0.460282	0.068609
O33	O	0.580338	1.038700	-0.067976
O34	O	0.718599	1.026624	-0.062338
O35	O	0.792331	0.665397	0.118219
O36	O	0.876487	0.651179	0.046232
O37	O	0.805533	0.833584	-0.038961
O38	O	0.721378	0.847802	0.033027
C39	C	0.749359	0.505691	0.009093
C40	C	0.745878	0.422948	0.012072
C41	C	0.739517	0.271453	0.017512
C42	C	0.779717	0.227524	-0.016877
C43	C	0.776178	0.143227	-0.013850
C44	C	0.743055	0.355758	0.014486
C45	C	0.542043	0.768494	-0.008555
C46	C	0.468200	0.774944	-0.011566
C47	C	0.470543	0.682763	0.031485
C48	C	0.401158	0.688829	0.028654
C49	C	0.329429	0.787077	-0.017233
C50	C	0.327088	0.879266	-0.060285
C51	C	0.396472	0.873199	-0.057450
C52	C	0.118079	0.810159	-0.028017
C53	C	0.048692	0.816219	-0.030851
C54	C	0.122767	0.625782	0.058089
C55	C	0.192150	0.619723	0.060917
C56	C	0.189802	0.711912	0.017869
C57	C	0.258505	0.793280	-0.020130
C58	C	0.260726	0.705708	0.020770
C59	C	0.977193	0.730488	0.009188
C60	C	1.051036	0.724038	0.012199
C61	C	0.767004	0.730488	-0.200991
C62	C	0.769511	0.724039	-0.269313
C63	C	0.769876	0.993290	-0.008460
C64	C	0.773358	1.076034	-0.011439
C65	C	0.733653	0.816220	-0.345880
C66	C	0.736019	0.810153	-0.410073
C67	C	0.774239	0.711905	-0.397697
C68	C	0.810101	0.619717	-0.321122
C69	C	0.807740	0.625784	-0.256931
C70	C	0.783226	0.688822	-0.589287
C71	C	0.785582	0.682762	-0.653486
C72	C	0.711501	0.873199	-0.742433
C73	C	0.709139	0.879258	-0.678237
C74	C	0.745005	0.787070	-0.601668
C75	C	0.776655	0.705702	-0.463311
C76	C	0.742593	0.793273	-0.536055
C77	C	0.752231	0.768493	0.201624
C78	C	0.749724	0.774943	0.269946
C79	C	0.966934	0.486688	0.017965
C80	C	1.037296	0.397495	0.023955
C81	C	0.741973	0.524694	0.210401
C82	C	0.735984	0.448400	0.281702
C83	C	0.959548	0.505691	0.219273
C84	C	1.027402	0.422947	0.293585
C85	C	0.559688	0.993291	-0.218640
C86	C	0.491833	1.076035	-0.292952
C87	C	0.552301	1.012294	-0.017332
C88	C	0.481940	1.101487	-0.023322
C89	C	0.777263	0.974288	-0.209768
C90	C	0.783252	1.050582	-0.281069
C91	C	1.029295	0.355609	-0.014281
C92	C	1.095401	0.271813	-0.008668
C93	C	1.169507	0.229899	0.035185
C94	C	1.177507	0.271794	0.073421
C95	C	1.111402	0.355593	0.067804
C96	C	0.774215	0.412572	0.356234
C97	C	0.768585	0.340897	0.423234
C98	C	0.724729	0.305046	0.415701
C99	C	0.686493	0.340882	0.341161
C100	C	0.692119	0.412561	0.274162
C101	C	1.103203	0.376668	0.290906
C102	C	1.166967	0.298931	0.360723
C103	C	1.154928	0.267470	0.433219
C104	C	1.079119	0.313757	0.435896
C105	C	1.015357	0.391498	0.366079
C106	C	0.416033	1.122324	-0.290273
C107	C	0.352270	1.200084	-0.360091
C108	C	0.364309	1.231550	-0.432587
C109	C	0.440118	1.185257	-0.435264
C110	C	0.503879	1.107503	-0.365447
C111	C	0.489941	1.143381	0.014907
C112	C	0.423836	1.227197	0.009276
C113	C	0.349731	1.269112	-0.034579
C114	C	0.341731	1.227215	-0.072813
C115	C	0.407835	1.143405	-0.067186
C116	C	0.827114	1.086410	-0.273510
C117	C	0.832756	1.158085	-0.340498
C118	C	0.794531	1.193937	-0.415043
C119	C	0.750666	1.158101	-0.422600
C120	C	0.745029	1.086422	-0.355613
H121	H	0.403073	0.613765	0.063711
H122	H	0.709308	1.057259	-0.361778
H123	H	1.206854	0.204167	0.490063
O124	O	0.270511	1.250001	-0.357196
H125	H	0.237239	1.235451	-0.385408
H126	H	0.809927	0.441754	0.362383
O127	O	0.295536	1.315425	-0.507890
H128	H	0.240807	1.342319	-0.493840
H129	H	0.720154	0.246681	0.470263
H130	H	-0.009713	0.896229	-0.068222
H131	H	0.250551	0.539718	0.098269
H132	H	0.816704	0.602752	-0.643401
H133	H	0.799725	0.311728	0.483922
H134	H	0.702445	0.245754	0.049223
O135	O	0.880069	1.196727	-0.332337
H136	H	0.855851	1.237244	-0.303451
O137	O	0.701370	0.899237	-0.549401
H138	H	0.676832	0.962325	-0.613428
H139	H	1.223328	0.161663	0.039753
H140	H	0.799127	1.252303	-0.469582
H141	H	0.124669	0.550727	0.093138
H142	H	0.650785	0.311681	0.335039
O143	O	0.651006	0.451044	0.193784
H144	H	0.619617	0.414005	0.199815
O145	O	1.086757	0.226636	-0.049908
H146	H	1.118536	0.234891	-0.092705
H147	H	0.116157	0.885225	-0.063084
H148	H	0.807773	0.625708	-0.453242
O149	O	1.066138	0.279806	0.514091
H150	H	1.123214	0.217961	0.562183
O151	O	0.846451	0.526337	-0.174353
H152	H	0.892083	0.520636	-0.141173
O153	O	0.933602	0.441384	0.368981
H154	H	0.926890	0.480350	0.398601
O155	O	0.261798	1.272431	-0.120109
H156	H	0.267330	1.229231	-0.145755
O157	O	0.403039	1.088400	-0.212085
H158	H	0.339614	1.133671	-0.221965
H159	H	0.816791	0.253226	-0.048591
H160	H	1.113020	0.402271	0.231883
O161	O	0.692424	0.922194	-0.359237
H162	H	0.696796	0.910931	-0.301739
O163	O	0.453099	1.219191	-0.513458
H164	H	0.396021	1.281025	-0.561549
O165	O	0.585635	1.057565	-0.368339
H166	H	0.583286	1.092504	-0.430481
O167	O	0.569867	1.098194	0.062197
H168	H	0.564313	1.141430	0.087818
H169	H	0.430365	1.261296	0.040414
O170	O	0.249727	0.985237	-0.109788
H171	H	0.201872	0.973971	-0.104537
H172	H	0.401309	1.109298	-0.098315
H173	H	0.394559	0.948263	-0.092497
O174	O	1.248726	0.249002	0.357828
H175	H	1.246377	0.283929	0.295687
O176	O	0.338087	0.599743	0.070253
H177	H	0.369950	0.596346	0.115237
O178	O	0.547907	0.576794	0.080977
H179	H	0.537877	0.513716	0.110443
H180	H	0.295911	1.337355	-0.039154
O181	O	0.181138	0.899242	-0.069635
H182	H	0.146221	0.910485	-0.031491
O183	O	1.257436	0.226575	0.120727
H184	H	1.302052	0.161259	0.118212
H185	H	0.858243	1.057231	-0.212818
H186	H	0.678019	0.959262	-0.688323
H187	H	0.706821	0.885217	-0.472415
H188	H	0.719545	1.187303	-0.483304
O189	O	1.120034	0.400754	0.109060
H190	H	1.182671	0.357515	0.140503
O191	O	0.672836	0.972621	-0.825018
H192	H	0.627218	0.978340	-0.858234
O193	O	0.821898	0.589396	-0.506708
H194	H	0.848860	0.520063	-0.508890
O195	O	0.949371	0.400816	-0.061590
H196	H	0.954927	0.357611	-0.087239
H197	H	0.841225	0.539720	-0.311049
