data_functionalizedCrystal
_audit_creation_method	'MofGen! by Chris Wilmer'
_symmetry_space_group_name_H-M	'P1'
_symmetry_Int_Tables_number	1
_symmetry_cell_setting	triclinic
loop_
_symmetry_equiv_pos_as_xyz
  x,y,z
_cell_length_a	16.959454
_cell_length_b	11.169417
_cell_length_c	11.169409
_cell_angle_alpha	89.980176
_cell_angle_beta	90.027925
_cell_angle_gamma	89.998132
loop_
_atom_site_label
_atom_site_type_symbol
_atom_site_fract_x
_atom_site_fract_y
_atom_site_fract_z
Zn1	Zn	0.314599	1.835040	-0.678580
Zn2	Zn	0.814599	2.335040	-0.178580
Zn3	Zn	0.446806	1.834962	-0.477912
Zn4	Zn	0.946806	2.334962	0.022088
Zn5	Zn	0.314647	1.634326	-0.477914
Zn6	Zn	0.814647	2.134326	0.022086
Zn7	Zn	0.446741	1.634366	-0.678557
Zn8	Zn	0.946741	2.134366	-0.178557
O9	O	0.380698	1.734674	-0.578241
O10	O	0.880698	2.234674	-0.078241
O11	O	0.332143	2.002980	-0.651969
O12	O	0.832143	2.502980	-0.151969
O13	O	0.429322	1.808298	-0.309962
O14	O	0.929322	2.308298	0.190038
O15	O	0.204030	1.660967	-0.504543
O16	O	0.704030	2.160967	-0.004543
O17	O	0.429275	2.002922	-0.504540
O18	O	0.929275	2.502922	-0.004540
O19	O	0.203994	1.808431	-0.651971
O20	O	0.703994	2.308431	-0.151971
O21	O	0.332225	1.660892	-0.309964
O22	O	0.832225	2.160892	0.190036
O23	O	0.332163	1.466382	-0.504521
O24	O	0.832163	1.966382	-0.004521
O25	O	0.429165	1.661036	-0.846510
O26	O	0.929165	2.161036	-0.346510
O27	O	0.429212	1.466411	-0.651932
O28	O	0.929212	1.966411	-0.151932
O29	O	0.332081	1.808470	-0.846526
O30	O	0.832081	2.308470	-0.346526
O31	O	0.557408	1.808337	-0.504518
O32	O	1.057408	2.308337	-0.004518
O33	O	0.557361	1.660960	-0.651930
O34	O	1.057361	2.160960	-0.151930
C35	C	0.380686	1.422849	-0.578225
C36	C	0.880686	1.922849	-0.078225
C37	C	0.380700	1.289449	-0.578247
C38	C	0.880700	1.789449	-0.078247
C39	C	0.174530	1.734703	-0.578260
C40	C	0.674530	2.234703	-0.078260
C41	C	0.086673	1.734716	-0.578268
C42	C	0.586673	2.234716	-0.078268
C43	C	-0.284823	1.811560	-0.655047
C44	C	0.215177	2.311560	-0.155047
C45	C	-0.284781	1.658005	-0.501529
C46	C	0.215219	2.158005	-0.001529
C47	C	-0.202235	1.657987	-0.501525
C48	C	0.297765	2.157987	-0.001525
C49	C	-0.160979	1.734758	-0.578282
C50	C	0.339021	2.234758	-0.078282
C51	C	-0.202269	1.811547	-0.655043
C52	C	0.297731	2.311547	-0.155043
C53	C	-0.160939	1.581208	-0.424756
C54	C	0.339061	2.081208	0.075244
C55	C	-0.078388	1.581189	-0.424748
C56	C	0.421612	2.081189	0.075252
C57	C	-0.037131	1.657955	-0.501512
C58	C	0.462869	2.157955	-0.001512
C59	C	-0.078426	1.734746	-0.578277
C60	C	0.421574	2.234746	-0.078277
C61	C	-0.037170	1.811517	-0.655034
C62	C	0.462830	2.311517	-0.155034
C63	C	-0.078464	1.888303	-0.731806
C64	C	0.421536	2.388303	-0.231806
C65	C	-0.161012	1.888313	-0.731807
C66	C	0.338988	2.388313	-0.231807
C67	C	0.045418	1.657944	-0.501511
C68	C	0.545418	2.157944	-0.001511
C69	C	0.045383	1.811504	-0.655029
C70	C	0.545383	2.311504	-0.155029
C71	C	0.586065	1.734677	-0.578248
C72	C	1.086065	2.234677	-0.078248
C73	C	0.673921	1.734788	-0.578291
C74	C	1.173921	2.234788	-0.078291
C75	C	0.380611	1.734766	-0.891283
C76	C	0.880611	2.234766	-0.391283
C77	C	0.380573	1.734805	-1.024683
C78	C	0.880573	2.234805	-0.524683
C79	C	0.380711	2.047716	-0.578257
C80	C	0.880711	2.547716	-0.078257
C81	C	0.380716	2.181116	-0.578264
C82	C	0.880716	2.681116	-0.078264
C83	C	0.380729	1.734651	-0.266416
C84	C	0.880729	2.234651	0.233584
C85	C	0.380543	1.734844	-0.133016
C86	C	0.880543	2.234844	0.366984
H87	H	0.078968	1.874013	-0.717544
H88	H	0.578968	2.374013	-0.217544
H89	H	-0.194638	1.950831	-0.794311
H90	H	0.305362	2.450831	-0.294311
F91	F	-0.328770	1.893268	-0.736758
F92	F	0.171230	2.393268	-0.236758
H93	H	-0.044862	1.950815	-0.794296
H94	H	0.455138	2.450815	-0.294296
F95	F	-0.328691	1.576311	-0.419838
F96	F	0.171309	2.076311	0.080162
H97	H	-0.044774	1.518664	-0.362236
H98	H	0.455226	2.018664	0.137764
H99	H	-0.194532	1.518709	-0.362257
H100	H	0.305468	2.018709	0.137743
F101	F	0.089362	1.576237	-0.419803
F102	F	0.589362	2.076237	0.080197
