data_functionalizedCrystal
_audit_creation_method	'MofGen! by Chris Wilmer'
_symmetry_space_group_name_H-M	'P1'
_symmetry_Int_Tables_number	1
_symmetry_cell_setting	triclinic
loop_
_symmetry_equiv_pos_as_xyz
  x,y,z
_cell_length_a	9.065218
_cell_length_b	22.610064
_cell_length_c	9.065215
_cell_angle_alpha	90.003328
_cell_angle_beta	85.015291
_cell_angle_gamma	90.015368
loop_
_atom_site_label
_atom_site_type_symbol
_atom_site_fract_x
_atom_site_fract_y
_atom_site_fract_z
O1	O	1.960423	0.049185	0.216354
O2	O	1.531138	0.049186	0.234101
O3	O	1.754656	0.049183	0.010585
O4	O	1.736905	0.049188	0.439870
O5	O	1.754589	-0.049187	0.010583
O6	O	1.531071	-0.049184	0.234099
O7	O	1.960356	-0.049184	0.216353
Zn8	Zn	1.745703	-0.064802	0.225226
Zn9	Zn	1.745791	0.064803	0.225228
O10	O	1.736838	-0.049182	0.439869
C11	C	1.476118	0.000001	0.232394
C12	C	1.312275	0.000001	0.227295
N13	N	1.745654	-0.153255	0.225224
C14	C	1.836475	-0.561895	0.315953
C15	C	1.836494	-0.623815	0.315950
O16	O	1.913654	-0.655833	0.393081
N17	N	1.745819	-0.654792	0.225211
C18	C	1.655130	-0.623845	0.134458
O19	O	1.578007	-0.655879	0.057277
C20	C	1.655121	-0.561927	0.134455
C21	C	1.745791	-0.530953	0.225211
C22	C	1.927139	-0.530922	0.406701
C23	C	1.927118	-0.469006	0.406706
C24	C	1.836434	-0.438064	0.315963
C25	C	1.745770	-0.469038	0.225216
C26	C	1.564441	-0.530981	0.043696
C27	C	1.564440	-0.469058	0.043699
C28	C	1.655110	-0.438085	0.134455
C29	C	1.655064	-0.376180	0.134479
N30	N	1.745739	-0.345203	0.225218
C31	C	1.836424	-0.376145	0.315960
C32	C	1.655159	-0.753879	0.134471
C33	C	1.655160	-0.815797	0.134481
C34	C	1.836526	-0.815762	0.315971
C35	C	1.836516	-0.753843	0.315967
C36	C	1.745835	-0.722902	0.225210
C37	C	1.836372	-0.246118	0.315965
C38	C	1.836339	-0.184197	0.315966
C39	C	1.654979	-0.184237	0.134471
C40	C	1.655006	-0.246152	0.134475
C41	C	1.745715	-0.277092	0.225226
O42	O	1.577948	-0.344123	0.057383
O43	O	1.913549	-0.344104	0.393115
C44	C	2.015376	0.000001	0.218059
C45	C	2.179219	0.000005	0.223159
C46	C	1.752917	-0.000001	-0.044403
C47	C	1.747819	0.000000	-0.208246
N48	N	1.745851	0.153256	0.225218
C49	C	1.738576	0.000004	0.494856
C50	C	1.743674	0.000006	0.658699
H51	H	1.910173	-0.158981	0.389877
C52	C	2.026902	-0.564953	0.506525
C53	C	1.957554	-0.607524	0.625742
C54	C	2.057317	-0.641552	0.725579
C55	C	2.226427	-0.633008	0.706198
C56	C	2.295784	-0.590435	0.586976
C57	C	2.196022	-0.556408	0.487139
H58	H	1.832360	-0.613850	0.640093
H59	H	2.005973	-0.673067	0.813836
H60	H	2.300278	-0.658197	0.780104
H61	H	2.420978	-0.584109	0.572624
H62	H	2.247366	-0.524893	0.398882
H63	H	1.910347	-0.728629	0.389870
H64	H	1.490595	-0.443869	-0.030209
H65	H	1.581157	-0.271372	0.060593
H66	H	1.910236	-0.271301	0.389862
H67	H	2.000957	-0.443793	0.480602
C68	C	1.555233	-0.150193	0.034655
C69	C	1.555232	-0.082085	0.034662
C70	C	1.455494	-0.048039	-0.065165
C71	C	1.355757	-0.082102	-0.164997
C72	C	1.355754	-0.150214	-0.165008
C73	C	1.455492	-0.184259	-0.065181
H74	H	1.629067	-0.056866	0.108567
H75	H	1.455497	0.002382	-0.065156
H76	H	1.281924	-0.056899	-0.238894
H77	H	1.281919	-0.175432	-0.238913
H78	H	1.455489	-0.234681	-0.065190
C79	C	1.936294	-0.849809	0.415775
C80	C	1.916815	-0.841307	0.584891
C81	C	2.016576	-0.875356	0.684687
C82	C	2.135816	-0.917908	0.615366
C83	C	2.155300	-0.926412	0.446241
C84	C	2.055539	-0.892362	0.346445
H85	H	1.828542	-0.809806	0.636214
H86	H	2.002152	-0.869061	0.809884
H87	H	2.209665	-0.943113	0.689241
H88	H	2.243574	-0.957913	0.394918
H89	H	2.069964	-0.898658	0.221248
H90	H	1.581310	-0.841010	0.060595
H91	H	1.581301	-0.728691	0.060570
H92	H	1.490610	-0.556189	-0.030210
