data_functionalizedCrystal
_audit_creation_method	'MofGen! by Chris Wilmer'
_symmetry_space_group_name_H-M	'P1'
_symmetry_Int_Tables_number	1
_symmetry_cell_setting	triclinic
loop_
_symmetry_equiv_pos_as_xyz
  x,y,z
_cell_length_a	12.811422
_cell_length_b	12.837942
_cell_length_c	11.295483
_cell_angle_alpha	85.468153
_cell_angle_beta	80.454701
_cell_angle_gamma	90.586614
loop_
_atom_site_label
_atom_site_type_symbol
_atom_site_fract_x
_atom_site_fract_y
_atom_site_fract_z
O1	O	1.410075	-0.135973	-0.053289
O2	O	1.103877	-0.153475	-0.020211
O3	O	1.250187	0.006157	-0.036024
O4	O	1.263765	-0.295605	-0.037476
O5	O	1.263051	0.020146	-0.235465
O6	O	1.116741	-0.139486	-0.219652
O7	O	1.422939	-0.121983	-0.252730
Cu8	Cu	1.271015	-0.129457	-0.254402
Cu9	Cu	1.255801	-0.146001	-0.018539
O10	O	1.276629	-0.281616	-0.236917
C11	C	1.070845	-0.145928	-0.115669
C12	C	0.953252	-0.144268	-0.102966
C13	C	1.252032	0.051757	-0.135248
C14	C	1.238350	0.166789	-0.133768
C15	C	1.455971	-0.129531	-0.157270
C16	C	1.573563	-0.131192	-0.169964
C17	C	1.780495	-0.149545	0.023636
C18	C	1.890983	-0.151106	0.011713
C19	C	1.905027	-0.135866	-0.205730
C20	C	1.794540	-0.134305	-0.193808
C21	C	1.732278	-0.141147	-0.079121
C22	C	1.621788	-0.139594	-0.067200
C23	C	1.635835	-0.124346	-0.284643
C24	C	1.746322	-0.125907	-0.296565
C25	C	1.274784	-0.327216	-0.137690
C26	C	1.288465	-0.442249	-0.139162
N27	N	1.245101	-0.157630	0.147353
C28	C	1.402824	0.408285	-0.151511
C29	C	1.389974	0.516368	-0.150121
C30	C	1.199800	0.491042	-0.129589
C31	C	1.212650	0.382958	-0.130979
C32	C	1.314166	0.341584	-0.141942
C33	C	1.327015	0.233499	-0.143341
C34	C	1.136842	0.208174	-0.122801
C35	C	1.123992	0.316258	-0.121411
N36	N	1.281723	-0.117821	-0.420295
C37	C	1.358808	-0.034110	0.384354
C38	C	1.350713	-0.042891	0.509893
C39	C	1.220824	-0.183976	0.523970
C40	C	1.228918	-0.175196	0.398432
C41	C	1.297911	-0.100259	0.328628
C42	C	1.305999	-0.091474	0.203088
C43	C	1.176116	-0.232564	0.217167
C44	C	1.168022	-0.241344	0.342706
H45	H	1.571095	-0.145169	0.026184
F46	F	1.971308	-0.128583	-0.327778
H47	H	1.462169	0.570673	-0.157909
F48	F	1.415530	0.027512	0.569195
H49	H	1.797031	-0.120333	-0.389940
F50	F	1.094601	-0.321096	0.417006
F51	F	1.432224	0.045651	0.310064
F52	F	1.111298	-0.302962	0.157849
F53	F	1.042479	0.137179	-0.112629
F54	F	1.435056	0.189467	-0.155016
H55	H	1.485483	0.374598	-0.160449
H56	H	1.930237	-0.157945	0.095389
H57	H	1.729800	-0.155127	0.117018
F58	F	1.091767	0.535092	-0.117893
F59	F	1.015957	0.360302	-0.109734
H60	H	1.596564	-0.117512	-0.368315
F61	F	1.379424	-0.011718	0.128800
F62	F	1.147412	-0.263734	0.598273
