data_functionalizedCrystal
_audit_creation_method	'MofGen! by Chris Wilmer'
_symmetry_space_group_name_H-M	'P1'
_symmetry_Int_Tables_number	1
_symmetry_cell_setting	triclinic
loop_
_symmetry_equiv_pos_as_xyz
  x,y,z
_cell_length_a	23.532407
_cell_length_b	27.732048
_cell_length_c	22.610064
_cell_angle_alpha	89.999096
_cell_angle_beta	89.997161
_cell_angle_gamma	82.745667
loop_
_atom_site_label
_atom_site_type_symbol
_atom_site_fract_x
_atom_site_fract_y
_atom_site_fract_z
O1	O	0.755138	0.058672	-0.049117
O2	O	0.589257	0.067162	-0.049135
O3	O	0.677349	-0.007472	-0.049114
O4	O	0.667046	0.133306	-0.049138
O5	O	0.677334	-0.007461	0.049255
O6	O	0.589241	0.067173	0.049234
O7	O	0.755123	0.058683	0.049252
Zn8	Zn	0.672179	0.062930	0.064861
Zn9	Zn	0.672200	0.062915	-0.064744
O10	O	0.667030	0.133317	0.049231
C11	C	0.568033	0.066952	0.000047
C12	C	0.504818	0.066302	0.000041
C13	C	0.677125	-0.025473	0.000072
C14	C	0.676474	-0.079129	0.000077
C15	C	0.105629	0.106391	0.000061
C16	C	0.046230	0.105787	0.000064
O17	O	0.009406	0.142951	0.000080
N18	N	0.023699	0.061418	0.000071
C19	C	0.060570	0.017649	0.000080
O20	O	0.035951	-0.020147	0.000086
C21	C	0.119967	0.018253	0.000080
C22	C	0.142495	0.062626	0.000068
C23	C	0.128158	0.150760	0.000049
C24	C	0.187552	0.151364	0.000044
C25	C	0.224419	0.107599	0.000051
C26	C	0.201890	0.063229	0.000063
C27	C	0.156837	-0.025515	0.000093
C28	C	0.216239	-0.024907	0.000094
C29	C	0.238766	0.019466	0.000082
C30	C	0.298151	0.020068	0.000065
N31	N	0.320683	0.064437	0.000059
C32	C	0.283817	0.108203	0.000052
C33	C	-0.064170	0.016383	0.000080
C34	C	-0.123567	0.015778	0.000075
C35	C	-0.137902	0.103917	0.000061
C36	C	-0.078505	0.104521	0.000061
C37	C	-0.041639	0.060753	0.000073
C38	C	0.408551	0.109467	0.000041
C39	C	0.467951	0.110067	0.000034
C40	C	0.482282	0.021928	0.000051
C41	C	0.422886	0.021328	0.000055
C42	C	0.386021	0.065102	0.000052
O43	O	0.335010	-0.017077	0.000052
O44	O	0.308444	0.145992	0.000053
C45	C	0.724431	-0.417871	0.000052
C46	C	0.722014	-0.619534	0.000043
O47	O	0.765867	-0.650722	0.000022
N48	N	0.669779	-0.638738	0.000038
C49	C	0.618144	-0.607523	0.000031
O50	O	0.573659	-0.628484	0.000020
C51	C	0.620561	-0.405860	0.000035
C52	C	0.672800	-0.386659	0.000046
C53	C	0.776665	-0.398669	0.000062
C54	C	0.777269	-0.348256	0.000067
C55	C	0.725638	-0.317045	0.000062
C56	C	0.673403	-0.336247	0.000052
C57	C	0.568927	-0.374646	0.000024
C58	C	0.569536	-0.324228	0.000024
C59	C	0.621775	-0.305027	0.000035
C60	C	0.622376	-0.254622	0.000052
N61	N	0.674611	-0.235418	0.000057
C62	C	0.726242	-0.266630	0.000062
C63	C	0.616879	-0.713399	0.000030
C64	C	0.616274	-0.763814	0.000030
C65	C	0.720145	-0.775822	0.000041
C66	C	0.720749	-0.725406	0.000045
C67	C	0.669114	-0.694195	0.000035
C68	C	0.727506	-0.160758	0.000074
C69	C	0.728105	-0.110341	0.000082
C70	C	0.624235	-0.098337	0.000068
C71	C	0.623635	-0.148751	0.000063
C72	C	0.675276	-0.179961	0.000064
O73	O	0.578547	-0.223406	0.000066
O74	O	0.770721	-0.245659	0.000060
C75	C	0.723827	-0.468283	0.000046
C76	C	0.671593	-0.487485	0.000036
C77	C	0.619962	-0.456274	0.000030
C78	C	0.670988	-0.537900	0.000036
C79	C	0.722619	-0.569112	0.000041
C80	C	0.774855	-0.549908	0.000046
C81	C	0.775458	-0.499495	0.000051
C82	C	0.567727	-0.475478	0.000025
C83	C	0.567127	-0.525891	0.000021
C84	C	0.618758	-0.557103	0.000026
C85	C	0.776346	0.058894	0.000068
C86	C	0.839562	0.059544	0.000071
C87	C	0.667254	0.151319	0.000044
C88	C	0.667905	0.204975	0.000035
N89	N	0.672170	0.062939	0.153314
N90	N	0.672214	0.062902	-0.153197
C91	C	0.711209	0.029873	0.561964
C92	C	0.711212	0.029869	0.623884
O93	O	0.744380	0.001762	0.655911
N94	N	0.672200	0.062905	0.654851
C95	C	0.633178	0.095944	0.623894
O96	O	0.599995	0.124044	0.655919
C97	C	0.633173	0.095945	0.561975
C98	C	0.672191	0.062910	0.531012
C99	C	0.750224	-0.003160	0.531001
C100	C	0.750222	-0.003156	0.469085
C101	C	0.711204	0.029881	0.438133
C102	C	0.672189	0.062914	0.469096
C103	C	0.594149	0.128981	0.531020
C104	C	0.594146	0.128979	0.469097
C105	C	0.633165	0.095944	0.438134
C106	C	0.633169	0.095955	0.376229
N107	N	0.672182	0.062919	0.345262
C108	C	0.711199	0.029882	0.376214
C109	C	0.633191	0.095939	0.753928
C110	C	0.633198	0.095941	0.815846
C111	C	0.711232	0.029865	0.815831
C112	C	0.711227	0.029866	0.753912
C113	C	0.672203	0.062903	0.722961
C114	C	0.711192	0.029894	0.246187
C115	C	0.711187	0.029902	0.184266
C116	C	0.633152	0.095976	0.184286
C117	C	0.633158	0.095969	0.246201
C118	C	0.672180	0.062924	0.277150
O119	O	0.600016	0.124047	0.344163
O120	O	0.744372	0.001783	0.344182
H121	H	0.486290	0.146202	0.000023
H122	H	0.781993	-0.030058	0.443879
C123	C	0.832711	-0.432573	-0.000053
C124	C	0.835425	-0.461861	-0.050667
C125	C	0.887053	-0.493091	-0.050792
H126	H	0.834687	-0.452535	0.034212
H127	H	0.863917	-0.413926	-0.000079
H128	H	0.804228	-0.480507	-0.050635
H129	H	0.833458	-0.441913	-0.084940
H130	H	0.918259	-0.474444	-0.050819
H131	H	0.889025	-0.513050	-0.016526
H132	H	0.888904	-0.512964	-0.085136
H133	H	0.742966	0.002985	0.271379
C134	C	0.830851	-0.583880	0.000019
C135	C	0.819133	-0.632140	-0.000002
C136	C	0.870699	-0.663451	-0.000039
H137	H	0.852330	-0.578155	0.034315
H138	H	0.852298	-0.578114	-0.034296
H139	H	0.797696	-0.637904	0.034310
H140	H	0.797663	-0.637880	-0.034296
H141	H	0.892146	-0.657684	-0.034355
H142	H	0.892174	-0.657721	0.034257
H143	H	0.862756	-0.696198	-0.000059
H144	H	0.781997	-0.030065	0.556197
C145	C	0.590929	0.131867	0.849490
C146	C	0.621000	0.161337	0.885026
C147	C	0.582077	0.194440	0.916019
H148	H	0.567360	0.114637	0.873693
H149	H	0.567702	0.151570	0.822201
H150	H	0.644218	0.141637	0.912311
H151	H	0.644567	0.178577	0.860837
H152	H	0.558850	0.214143	0.888730
H153	H	0.558511	0.177206	0.940219
H154	H	0.602475	0.214442	0.940129
C155	C	0.088231	0.198334	0.000008
C156	C	0.120687	0.237314	-0.000017
C157	C	0.083930	0.281149	-0.000068
H158	H	0.064743	0.200011	0.034300
H159	H	0.064775	0.199954	-0.034311
H160	H	0.144133	0.235694	0.034299
H161	H	0.144173	0.235653	-0.034306
H162	H	0.060474	0.282769	-0.034387
H163	H	0.060444	0.282821	0.034225
H164	H	0.105946	0.307602	-0.000090
H165	H	0.601386	0.122876	0.159075
H166	H	-0.141903	-0.020355	0.000076
C167	C	0.551690	0.164793	0.564594
C168	C	0.495802	0.157178	0.549539
C169	C	0.456670	0.190156	0.580459
H170	H	0.557507	0.197049	0.554467
H171	H	0.557233	0.160065	0.605911
H172	H	0.490260	0.161910	0.508231
H173	H	0.489966	0.124928	0.559667
H174	H	0.462214	0.185428	0.621777
H175	H	0.462493	0.222410	0.570331
H176	H	0.418746	0.184991	0.570254
C177	C	0.212117	0.199492	-0.000008
C178	C	0.272026	0.190663	-0.000029
C179	C	0.294670	0.234989	-0.000090
H180	H	0.199498	0.217545	0.034280
H181	H	0.199463	0.217492	-0.034332
H182	H	0.284675	0.172671	0.034291
H183	H	0.284661	0.172617	-0.034314
H184	H	0.282016	0.252989	-0.034414
H185	H	0.282047	0.253040	0.034198
H186	H	0.335320	0.229005	-0.000110
H187	H	0.562367	0.155881	0.443900
H188	H	0.763286	-0.709776	0.000054
C189	C	0.132500	-0.073743	0.000143
C190	C	0.177510	-0.111935	0.000170
C191	C	0.155114	-0.156371	0.000227
H192	H	0.109637	-0.075893	-0.034147
H193	H	0.109645	-0.075831	0.034464
H194	H	0.200355	-0.109847	-0.034147
H195	H	0.200377	-0.109800	0.034459
H196	H	0.132259	-0.158460	0.034548
H197	H	0.132251	-0.158517	-0.034064
H198	H	0.185649	-0.182290	0.000251
H199	H	0.762185	-0.801243	0.000045
H200	H	0.525681	-0.450070	0.000020
H201	H	-0.060167	0.140653	0.000054
H202	H	0.601391	0.122874	0.271412
H203	H	0.378542	0.145112	0.000040
H204	H	-0.167930	0.139553	0.000058
H205	H	0.246253	-0.060550	0.000104
H206	H	-0.034156	-0.019261	0.000084
C207	C	0.398534	-0.026897	0.000090
C208	C	0.443537	-0.065095	0.000106
C209	C	0.421131	-0.109527	0.000151
H210	H	0.375668	-0.029037	-0.034200
H211	H	0.375681	-0.028988	0.034411
H212	H	0.466381	-0.063004	-0.034212
H213	H	0.466407	-0.062971	0.034394
H214	H	0.398277	-0.111619	0.034472
H215	H	0.398265	-0.111662	-0.034140
H216	H	0.451661	-0.135449	0.000166
C217	C	0.510347	-0.546640	-0.000021
C218	C	0.465265	-0.508510	-0.000042
C219	C	0.412953	-0.527604	-0.000094
H220	H	0.507859	-0.566053	0.034268
H221	H	0.507928	-0.566040	-0.034343
H222	H	0.467682	-0.489119	0.034276
H223	H	0.467734	-0.489094	-0.034329
H224	H	0.410534	-0.547003	-0.034416
H225	H	0.410471	-0.547017	0.034196
H226	H	0.382359	-0.501736	-0.000114
H227	H	0.582198	-0.072916	0.000066
C228	C	0.753613	-0.006058	0.720405
C229	C	0.787773	-0.034995	0.760772
C230	C	0.826820	-0.068100	0.729930
H231	H	0.777219	0.011170	0.696243
H232	H	0.733319	-0.026121	0.696268
H233	H	0.808065	-0.014935	0.784899
H234	H	0.764182	-0.052234	0.784935
H235	H	0.806526	-0.088163	0.705794
H236	H	0.850423	-0.050868	0.705770
H237	H	0.849999	-0.087741	0.757315
C238	C	0.560831	-0.679494	-0.000099
C239	C	0.558135	-0.650208	-0.050715
C240	C	0.506508	-0.618976	-0.050855
H241	H	0.558843	-0.659531	0.034165
H242	H	0.529624	-0.698140	-0.000132
H243	H	0.589333	-0.631563	-0.050676
H244	H	0.560112	-0.670157	-0.084986
H245	H	0.475301	-0.637622	-0.050889
H246	H	0.504525	-0.599017	-0.016589
H247	H	0.504670	-0.599105	-0.085200
H248	H	0.512309	-0.013704	0.000054
H249	H	0.769556	-0.186164	0.000073
H250	H	0.770646	-0.094710	0.000092
H251	H	0.526389	-0.390270	0.000011
H252	H	0.819807	-0.332628	0.000074
C253	C	0.513412	-0.290423	0.000043
C254	C	0.467540	-0.318034	0.000047
C255	C	0.415832	-0.286911	0.000074
H256	H	0.511413	-0.270493	-0.034250
H257	H	0.511448	-0.270514	0.034362
H258	H	0.469503	-0.337934	-0.034268
H259	H	0.469520	-0.337962	0.034338
H260	H	0.413867	-0.267002	0.034393
H261	H	0.413839	-0.266983	-0.034220
H262	H	0.384701	-0.305640	0.000082
H263	H	0.573737	-0.779443	0.000031
H264	H	0.581099	-0.164385	0.000070
H265	H	0.743002	0.002964	0.841044
H266	H	0.817996	-0.483866	0.000060
C267	C	0.753577	-0.006022	0.150756
C268	C	0.787735	-0.034964	0.191121
C269	C	0.826783	-0.068067	0.160276
H270	H	0.777185	0.011208	0.126599
H271	H	0.733283	-0.026083	0.126615
H272	H	0.808027	-0.014907	0.215252
H273	H	0.764143	-0.052205	0.215280
H274	H	0.806489	-0.088127	0.136135
H275	H	0.850387	-0.050833	0.136120
H276	H	0.849960	-0.087710	0.187659
C277	C	0.590800	0.131871	0.720433
C278	C	0.556650	0.160808	0.760811
C279	C	0.517599	0.193917	0.729981
H280	H	0.567187	0.114646	0.696279
H281	H	0.611091	0.151934	0.696290
H282	H	0.536360	0.140748	0.784944
H283	H	0.580247	0.178044	0.784967
H284	H	0.537891	0.213979	0.705839
H285	H	0.493990	0.176687	0.705828
H286	H	0.494428	0.213557	0.757373
