data_functionalizedCrystal
_audit_creation_method	'MofGen! by Chris Wilmer'
_symmetry_space_group_name_H-M	'P1'
_symmetry_Int_Tables_number	1
_symmetry_cell_setting	triclinic
loop_
_symmetry_equiv_pos_as_xyz
  x,y,z
_cell_length_a	14.971486
_cell_length_b	14.586319
_cell_length_c	14.971486
_cell_angle_alpha	89.999606
_cell_angle_beta	96.385871
_cell_angle_gamma	90.000901
loop_
_atom_site_label
_atom_site_type_symbol
_atom_site_fract_x
_atom_site_fract_y
_atom_site_fract_z
O1	O	1.186947	0.076135	-0.116556
O2	O	1.686947	0.576135	0.383444
O3	O	0.926547	0.076160	-0.130515
O4	O	1.426547	0.576160	0.369485
O5	O	1.063726	0.076141	0.006664
O6	O	1.563726	0.576141	0.506664
O7	O	1.049768	0.076155	-0.253736
O8	O	1.549768	0.576155	0.246264
O9	O	1.063710	-0.076340	0.006656
O10	O	1.563710	0.423660	0.506656
O11	O	0.926530	-0.076320	-0.130523
O12	O	1.426530	0.423680	0.369477
O13	O	1.186930	-0.076345	-0.116565
O14	O	1.686930	0.423655	0.383435
Cu15	Cu	1.056729	-0.090256	-0.123545
Cu16	Cu	1.556729	0.409744	0.376455
Cu17	Cu	1.056749	0.090071	-0.123535
Cu18	Cu	1.556749	0.590071	0.376465
O19	O	1.049751	-0.076326	-0.253744
O20	O	1.549751	0.423674	0.246256
C21	C	0.893214	-0.000077	-0.129895
C22	C	1.393214	0.499923	0.370105
C23	C	0.793917	-0.000067	-0.128024
C24	C	1.293917	0.499933	0.371976
C25	C	0.736692	-0.000064	-0.208614
C26	C	1.236692	0.499936	0.291386
C27	C	0.643392	-0.000078	-0.206850
C28	C	1.143392	0.499922	0.293150
C29	C	0.607320	-0.000088	-0.124497
C30	C	1.107320	0.499912	0.375503
C31	C	0.664552	-0.000094	-0.043902
C32	C	1.164552	0.499906	0.456098
C33	C	0.757850	-0.000087	-0.045666
C34	C	1.257850	0.499913	0.454334
C35	C	0.470090	-0.000107	-0.040231
C36	C	0.970090	0.499893	0.459769
C37	C	0.376786	-0.000113	-0.038466
C38	C	0.876786	0.499887	0.461534
C39	C	0.355632	-0.000098	-0.201415
C40	C	0.855632	0.499902	0.298585
C41	C	0.448930	-0.000091	-0.203179
C42	C	0.948930	0.499909	0.296821
C43	C	0.506156	-0.000095	-0.122584
C44	C	1.006156	0.499905	0.377416
N45	N	1.056721	-0.217087	-0.123551
N46	N	1.556721	0.282913	0.376449
C47	C	1.111041	-0.452096	-0.177877
C48	C	1.611041	0.047904	0.322123
C49	C	1.111050	-0.548077	-0.177870
C50	C	1.611050	-0.048077	0.322130
C51	C	1.002441	-0.548082	-0.069190
C52	C	1.502441	-0.048082	0.430810
C53	C	1.002437	-0.452103	-0.069192
C54	C	1.502437	0.047897	0.430808
C55	C	1.056736	-0.404112	-0.123541
C56	C	1.556736	0.095888	0.376459
C57	C	1.056749	-0.596073	-0.123532
C58	C	1.556749	-0.096073	0.376468
C59	C	1.056759	-0.700140	-0.123525
C60	C	1.556759	-0.200140	0.376475
C61	C	1.056727	-0.300038	-0.123547
C62	C	1.556727	0.199962	0.376453
C63	C	1.220263	-0.000106	-0.117185
C64	C	1.720263	0.499894	0.382815
C65	C	1.319561	-0.000110	-0.119056
C66	C	1.819561	0.499890	0.380944
C67	C	1.063094	-0.000099	0.039985
C68	C	1.563094	0.499901	0.539985
C69	C	1.061223	-0.000098	0.139282
C70	C	1.561223	0.499902	0.639282
N71	N	1.056763	0.216902	-0.123522
N72	N	1.556763	0.716902	0.376478
C73	C	1.050384	-0.000084	-0.287065
C74	C	1.550384	0.499916	0.212935
C75	C	1.052254	-0.000079	-0.386362
C76	C	1.552254	0.499921	0.113638
C77	C	1.141812	-0.000107	0.196507
C78	C	1.641812	0.499893	0.696507
C79	C	1.140049	-0.000097	0.289807
C80	C	1.640049	0.499903	0.789807
C81	C	1.057696	-0.000086	0.325879
C82	C	1.557696	0.499914	0.825879
C83	C	0.977101	-0.000075	0.268646
C84	C	1.477101	0.499925	0.768646
C85	C	0.978865	-0.000078	0.175349
C86	C	1.478865	0.499922	0.675349
C87	C	0.973430	-0.000071	0.463109
C88	C	1.473430	0.499929	0.963109
C89	C	0.971665	-0.000070	0.556413
C90	C	1.471665	0.499930	1.056413
C91	C	1.134614	-0.000091	0.577567
C92	C	1.634614	0.499909	1.077567
C93	C	1.136378	-0.000094	0.484269
C94	C	1.636378	0.499906	0.984269
C95	C	1.055782	-0.000084	0.427043
C96	C	1.555782	0.499916	0.927043
H97	H	0.766054	-0.000055	-0.275675
H98	H	1.266054	0.499945	0.224325
H99	H	0.596802	-0.000074	-0.272474
H100	H	1.096802	0.499926	0.227526
H101	H	0.516682	-0.000112	0.025399
H102	H	1.016682	0.499888	0.525399
H103	H	1.155272	-0.587142	-0.222115
H104	H	1.655272	-0.087142	0.277885
O105	O	0.337881	-0.000141	0.050359
O106	O	0.837881	0.499859	0.550359
H107	H	0.263391	-0.000138	0.038041
H108	H	0.763391	0.499862	0.538041
O109	O	0.487843	-0.000092	-0.292000
O110	O	0.987843	0.499908	0.208000
H111	H	0.432377	-0.000103	-0.347747
H112	H	0.932377	0.499897	0.152253
H113	H	0.635175	-0.000116	0.023152
H114	H	1.135175	0.499884	0.523152
O115	O	0.293917	-0.000104	-0.288348
O116	O	0.793917	0.499896	0.211652
H117	H	0.222981	-0.000124	-0.273290
H118	H	0.722981	0.499876	0.226710
O119	O	1.226977	-0.000113	0.351521
O120	O	1.726977	0.499887	0.851521
H121	H	1.230091	0.062043	0.394525
H122	H	1.730091	0.562043	0.894525
O123	O	0.819579	-0.000088	0.041254
O124	O	1.319579	0.499912	0.541254
H125	H	0.778823	-0.000088	0.098817
H126	H	1.278823	0.499912	0.598817
O127	O	1.169609	-0.400330	-0.236485
O128	O	1.669609	0.099670	0.263515
H129	H	1.207378	-0.449825	-0.274260
H130	H	1.707378	0.050175	0.225740
H131	H	0.907800	-0.000061	0.416517
H132	H	1.407800	0.499939	0.916517
H133	H	0.958233	-0.587168	-0.024942
H134	H	1.458233	-0.087168	0.475058
H135	H	0.910047	-0.000060	0.298024
H136	H	1.410047	0.499940	0.798024
H137	H	0.958215	-0.413033	-0.024940
H138	H	1.458215	0.086967	0.475060
H139	H	1.208874	-0.000122	0.167145
H140	H	1.708874	0.499878	0.667145
H141	H	1.203437	-0.000109	0.454903
H142	H	1.703437	0.499891	0.954903
H143	H	1.200238	-0.000096	0.624165
H144	H	1.700238	0.499904	1.124165
O145	O	0.882844	-0.000042	0.595326
O146	O	1.382844	0.499958	1.095326
H147	H	0.827097	-0.000019	0.539861
H148	H	1.327097	0.499981	1.039861
O149	O	0.891945	-0.000079	0.113620
O150	O	1.391945	0.499921	0.613620
H151	H	0.834382	-0.000081	0.154375
H152	H	1.334382	0.499919	0.654375
