data_functionalizedCrystal
_audit_creation_method	'MofGen! by Chris Wilmer'
_symmetry_space_group_name_H-M	'P1'
_symmetry_Int_Tables_number	1
_symmetry_cell_setting	triclinic
loop_
_symmetry_equiv_pos_as_xyz
  x,y,z
_cell_length_a	19.077105
_cell_length_b	18.101395
_cell_length_c	19.076919
_cell_angle_alpha	92.272317
_cell_angle_beta	90.076224
_cell_angle_gamma	87.727498
loop_
_atom_site_label
_atom_site_type_symbol
_atom_site_fract_x
_atom_site_fract_y
_atom_site_fract_z
Zn1	Zn	1.058231	-0.358271	-0.440421
Zn2	Zn	1.558231	0.141729	0.059579
Zn3	Zn	1.062857	-0.477344	-0.322915
Zn4	Zn	1.562857	0.022656	0.177085
Zn5	Zn	0.945450	-0.348351	-0.318214
Zn6	Zn	1.445450	0.151649	0.181786
Zn7	Zn	0.940679	-0.476897	-0.435668
Zn8	Zn	1.440679	0.023103	0.064332
O9	O	1.001804	-0.415216	-0.379305
O10	O	1.501804	0.084784	0.120695
O11	O	1.157176	-0.378405	-0.428790
O12	O	1.657176	0.121595	0.071210
O13	O	1.051216	-0.456268	-0.223960
O14	O	1.551216	0.043732	0.276040
O15	O	0.960470	-0.246037	-0.334447
O16	O	1.460470	0.253963	0.165553
O17	O	1.160575	-0.465887	-0.342459
O18	O	1.660575	0.034113	0.157541
O19	O	1.043330	-0.253326	-0.424232
O20	O	1.543330	0.246674	0.075768
O21	O	0.964957	-0.361497	-0.220507
O22	O	1.464957	0.138503	0.279493
O23	O	0.846486	-0.361064	-0.329838
O24	O	1.346486	0.138936	0.170162
O25	O	0.952340	-0.465126	-0.534630
O26	O	1.452340	0.034874	-0.034630
O27	O	0.842981	-0.455506	-0.416131
O28	O	1.342981	0.044494	0.083869
O29	O	1.038704	-0.377972	-0.538122
O30	O	1.538704	0.122028	-0.038122
O31	O	1.046590	-0.580914	-0.337850
O32	O	1.546590	-0.080914	0.162150
O33	O	0.956826	-0.580586	-0.420689
O34	O	1.456826	-0.080586	0.079311
C35	C	0.819237	-0.407161	-0.371959
C36	C	1.319237	0.092839	0.128041
C37	C	0.741133	-0.403733	-0.368833
C38	C	1.241133	0.096267	0.131167
C39	C	0.702636	-0.451363	-0.412222
C40	C	1.202636	0.048637	0.087778
C41	C	0.629249	-0.448133	-0.409288
C42	C	1.129249	0.051867	0.090712
C43	C	0.594361	-0.397276	-0.362962
C44	C	1.094361	0.102724	0.137038
C45	C	0.632863	-0.349642	-0.319571
C46	C	1.132863	0.150358	0.180429
C47	C	0.706248	-0.352869	-0.322509
C48	C	1.206248	0.147131	0.177491
C49	C	0.375075	-0.382341	-0.349369
C50	C	0.875075	0.117659	0.150631
C51	C	0.301684	-0.379119	-0.346433
C52	C	0.801684	0.120881	0.153567
C53	C	0.298076	-0.477610	-0.436152
C54	C	0.798076	0.022390	0.063848
C55	C	0.371463	-0.480836	-0.439082
C56	C	0.871463	0.019164	0.060918
C57	C	0.409959	-0.433198	-0.395694
C58	C	0.909959	0.066802	0.104306
N59	N	0.519348	-0.393975	-0.359960
N60	N	1.019348	0.106025	0.140040
N61	N	0.484970	-0.436497	-0.398700
N62	N	0.984970	0.063503	0.101300
C63	C	1.001711	-0.607621	-0.379280
C64	C	1.501711	-0.107621	0.120720
C65	C	1.001735	-0.689937	-0.379296
C66	C	1.501735	-0.189937	0.120704
C67	C	1.001887	-0.989036	-0.379340
C68	C	1.501887	-0.489036	0.120660
C69	C	0.945531	-0.957547	-0.431600
C70	C	1.445531	-0.457547	0.068400
C71	C	0.945280	-0.871910	-0.431419
C72	C	1.445280	-0.371910	0.068581
C73	C	1.001811	-0.840650	-0.379319
C74	C	1.501811	-0.340650	0.120681
C75	C	0.984741	-0.867911	-0.304458
C76	C	1.484741	-0.367911	0.195542
C77	C	0.984379	-0.953554	-0.304770
C78	C	1.484379	-0.453554	0.195230
C79	C	1.075459	-0.961424	-0.401293
C80	C	1.575459	-0.461424	0.098707
C81	C	1.074956	-0.875820	-0.402900
C82	C	1.574956	-0.375820	0.097100
C83	C	1.001770	-0.756788	-0.379302
C84	C	1.501770	-0.256788	0.120698
C85	C	1.001927	-1.072898	-0.379351
C86	C	1.501927	-0.572898	0.120649
C87	C	1.185084	-0.423303	-0.386679
C88	C	1.685084	0.076697	0.113321
C89	C	1.263188	-0.426749	-0.389822
C90	C	1.763188	0.073251	0.110178
C91	C	0.994474	-0.422606	-0.562585
C92	C	1.494474	0.077394	-0.062585
C93	C	0.991350	-0.425755	-0.640688
C94	C	1.491350	0.074245	-0.140688
C95	C	1.001916	-0.222060	-0.379345
C96	C	1.501916	0.277940	0.120655
C97	C	1.001964	-0.139749	-0.379363
C98	C	1.501964	0.360251	0.120637
C99	C	1.034846	-0.381860	-0.679200
C100	C	1.534846	0.118140	-0.179200
C101	C	1.031902	-0.384816	-0.752586
C102	C	1.531902	0.115184	-0.252586
C103	C	0.985466	-0.431671	-0.787458
C104	C	1.485466	0.068329	-0.287458
C105	C	0.941966	-0.475568	-0.748941
C106	C	1.441966	0.024432	-0.248941
C107	C	0.944906	-0.472608	-0.675556
C108	C	1.444906	0.027392	-0.175556
C109	C	0.971847	-0.445387	-1.006740
C110	C	1.471847	0.054613	-0.506740
C111	C	0.968911	-0.448346	-1.080130
C112	C	1.468911	0.051654	-0.580130
C113	C	1.058847	-0.357593	-1.083770
C114	C	1.558847	0.142407	-0.583770
C115	C	1.061786	-0.354640	-1.010384
C116	C	1.561786	0.145360	-0.510384
C117	C	1.018283	-0.398533	-0.971872
C118	C	1.518283	0.101467	-0.471872
N119	N	0.982458	-0.434696	-0.862471
N120	N	1.482458	0.065304	-0.362471
N121	N	1.021289	-0.395505	-0.896861
N122	N	1.521289	0.104495	-0.396861
C123	C	1.009146	-0.407803	-0.196739
C124	C	1.509146	0.092197	0.303261
C125	C	1.012406	-0.404451	-0.118642
C126	C	1.512406	0.095549	0.381358
H127	H	0.266725	-0.516393	-0.471476
H128	H	0.766725	-0.016393	0.028524
C129	C	0.871533	-0.840344	-0.411456
C130	C	1.371533	-0.340344	0.088544
H131	H	0.871126	-0.787838	-0.411284
H132	H	1.371126	-0.287838	0.088716
H133	H	0.859592	-0.855714	-0.366107
H134	H	1.359592	-0.355714	0.133893
H135	H	0.838383	-0.857998	-0.444672
H136	H	1.338383	-0.357998	0.055328
H137	H	0.891266	-0.976217	-0.416994
H138	H	1.391266	-0.476217	0.083006
H139	H	1.067323	-0.349074	-0.783940
H140	H	1.567323	0.150926	-0.283940
H141	H	0.904154	-0.513715	-0.777340
H142	H	1.404154	-0.013715	-0.277340
H143	H	0.406410	-0.343557	-0.314034
H144	H	0.906410	0.156443	0.185966
C145	C	0.897079	-0.520911	-0.633193
C146	C	1.397079	-0.020911	-0.133193
H147	H	0.869011	-0.549250	-0.664472
H148	H	1.369011	-0.049250	-0.164472
H149	H	0.867621	-0.490092	-0.603330
H150	H	1.367621	0.009908	-0.103330
H151	H	0.925105	-0.553207	-0.605652
H152	H	1.425105	-0.053207	-0.105652
H153	H	1.099601	-0.316487	-0.981996
H154	H	1.599601	0.183513	-0.481996
C155	C	0.959246	-0.989152	-0.506677
C156	C	1.459246	-0.489152	-0.006677
H157	H	0.999469	-1.021829	-0.506828
H158	H	1.499469	-0.521829	-0.006828
H159	H	0.966991	-0.949806	-0.536888
H160	H	1.466991	-0.449806	-0.036888
H161	H	0.919721	-1.015362	-0.522623
H162	H	1.419721	-0.515362	-0.022623
H163	H	1.118927	-0.854786	-0.367848
H164	H	1.618927	-0.354786	0.132152
H165	H	1.072661	-0.343708	-0.650813
H166	H	1.572661	0.156292	-0.150813
C167	C	1.037636	-0.981494	-0.250158
C168	C	1.537636	-0.481494	0.249842
H169	H	1.037779	-1.033976	-0.249983
H170	H	1.537779	-0.533976	0.250017
H171	H	1.024865	-0.961447	-0.204987
H172	H	1.524865	-0.461447	0.295013
H173	H	1.083125	-0.966302	-0.261824
H174	H	1.583125	-0.466302	0.238176
C175	C	1.106690	-0.309309	-1.126133
C176	C	1.606690	0.190691	-0.626133
H177	H	1.098286	-0.317776	-1.174832
H178	H	1.598286	0.182224	-0.674832
H179	H	1.154378	-0.321742	-1.116006
H180	H	1.654378	0.178258	-0.616006
H181	H	1.096910	-0.258611	-1.113701
H182	H	1.596910	0.241389	-0.613701
C183	C	1.132135	-0.989004	-0.349930
C184	C	1.632135	-0.489004	0.150070
H185	H	1.176472	-0.972139	-0.363462
H186	H	1.676472	-0.472139	0.136538
H187	H	1.133765	-1.041551	-0.350788
H188	H	1.633765	-0.541551	0.149212
H189	H	1.121133	-0.970326	-0.303847
H190	H	1.621133	-0.470326	0.196153
H191	H	0.930687	-0.970551	-0.286519
H192	H	1.430687	-0.470551	0.213481
H193	H	0.273280	-0.337698	-0.308713
H194	H	0.773280	0.162302	0.191287
H195	H	0.731037	-0.492778	-0.449944
H196	H	1.231037	0.007222	0.050056
C197	C	1.092423	-0.852211	-0.477347
C198	C	1.592423	-0.352211	0.022653
H199	H	1.136726	-0.873668	-0.491318
H200	H	1.636726	-0.373668	0.008682
H201	H	1.093970	-0.799832	-0.477576
H202	H	1.593970	-0.299832	0.022424
H203	H	1.057348	-0.868582	-0.509083
H204	H	1.557348	-0.368582	-0.009083
C205	C	1.038618	-0.840378	-0.250242
C206	C	1.538618	-0.340378	0.249758
H207	H	1.072080	-0.811941	-0.272834
H208	H	1.572080	-0.311941	0.227166
H209	H	1.061820	-0.881603	-0.229732
H210	H	1.561820	-0.381603	0.270268
H211	H	1.015191	-0.810588	-0.214718
H212	H	1.515191	-0.310588	0.285282
H213	H	0.936434	-0.481139	-0.975393
H214	H	1.436434	0.018861	-0.475393
C215	C	0.917825	-0.499881	-1.118491
C216	C	1.417825	0.000119	-0.618491
H217	H	0.922311	-0.495361	-1.167712
H218	H	1.422311	0.004639	-0.667712
H219	H	0.871101	-0.486471	-1.104567
H220	H	1.371101	0.013529	-0.604567
H221	H	0.928559	-0.549611	-1.106869
H222	H	1.428559	-0.049611	-0.606869
C223	C	0.748595	-0.300475	-0.274783
C224	C	1.248595	0.199525	0.225217
H225	H	0.717307	-0.269728	-0.246768
H226	H	1.217307	0.230272	0.253232
H227	H	0.776164	-0.270599	-0.302866
H228	H	1.276164	0.229401	0.197134
H229	H	0.778431	-0.328776	-0.245260
H230	H	1.278431	0.171224	0.254740
C231	C	0.586907	-0.500569	-0.456973
C232	C	1.086907	-0.000569	0.043027
H233	H	0.618197	-0.531338	-0.484965
H234	H	1.118197	-0.031338	0.015035
H235	H	0.557051	-0.472312	-0.486507
H236	H	1.057051	0.027688	0.013493
H237	H	0.559360	-0.530432	-0.428850
H238	H	1.059360	-0.030432	0.071150
C239	C	0.594491	-0.293698	-0.268614
C240	C	1.094491	0.206302	0.231386
H241	H	0.627930	-0.265789	-0.243198
H242	H	1.127930	0.234211	0.256802
H243	H	0.567070	-0.319478	-0.236802
H244	H	1.067070	0.180522	0.263198
H245	H	0.564807	-0.261301	-0.294407
H246	H	1.064807	0.238699	0.205593
C247	C	0.409840	-0.536803	-0.490014
C248	C	0.909840	-0.036803	0.009986
H249	H	0.459060	-0.531916	-0.485536
H250	H	0.959060	-0.031916	0.014464
H251	H	0.395955	-0.527450	-0.536774
H252	H	0.895955	-0.027450	-0.036774
H253	H	0.398189	-0.585587	-0.479132
H254	H	0.898189	-0.085587	0.020868
C255	C	0.959216	-0.847208	-0.506282
C256	C	1.459216	-0.347208	-0.006282
H257	H	0.965081	-0.889541	-0.537080
H258	H	1.465081	-0.389541	-0.037080
H259	H	1.000570	-0.819664	-0.506511
H260	H	1.500570	-0.319664	-0.006511
H261	H	0.920575	-0.817190	-0.521450
H262	H	1.420575	-0.317190	-0.021450
H263	H	0.931637	-0.843494	-0.285943
H264	H	1.431637	-0.343494	0.214057
C265	C	1.097267	-0.994526	-0.473993
C266	C	1.597267	-0.494526	0.026007
H267	H	1.061702	-1.025499	-0.491639
H268	H	1.561702	-0.525499	0.008361
H269	H	1.140007	-1.022802	-0.470012
H270	H	1.640007	-0.522802	0.029988
H271	H	1.103528	-0.955694	-0.505187
H272	H	1.603528	-0.455694	-0.005187
