data_functionalizedCrystal
_audit_creation_method	'MofGen! by Chris Wilmer'
_symmetry_space_group_name_H-M	'P1'
_symmetry_Int_Tables_number	1
_symmetry_cell_setting	triclinic
loop_
_symmetry_equiv_pos_as_xyz
  x,y,z
_cell_length_a	12.759401
_cell_length_b	12.759394
_cell_length_c	12.759393
_cell_angle_alpha	89.969400
_cell_angle_beta	89.981433
_cell_angle_gamma	90.012900
loop_
_atom_site_label
_atom_site_type_symbol
_atom_site_fract_x
_atom_site_fract_y
_atom_site_fract_z
Zn1	Zn	1.606262	-0.418231	-0.593990
Zn2	Zn	1.606158	-0.593950	-0.418313
Zn3	Zn	1.430564	-0.418283	-0.418330
Zn4	Zn	1.430555	-0.593866	-0.593955
O5	O	1.518385	-0.506083	-0.506147
O6	O	1.753269	-0.441555	-0.570695
O7	O	1.582826	-0.570704	-0.271294
O8	O	1.453917	-0.271255	-0.441653
O9	O	1.753193	-0.570654	-0.441626
O10	O	1.583002	-0.271217	-0.570710
O11	O	1.453817	-0.441642	-0.271306
O12	O	1.283541	-0.441561	-0.441618
O13	O	1.453902	-0.570511	-0.740981
O14	O	1.283535	-0.570561	-0.570649
O15	O	1.582993	-0.441473	-0.741007
O16	O	1.582817	-0.740960	-0.441591
O17	O	1.453802	-0.740898	-0.570634
C18	C	1.245417	-0.506058	-0.506132
C19	C	1.128641	-0.506073	-0.506151
C20	C	1.073811	-0.438977	-0.573461
C21	C	0.964087	-0.438997	-0.573468
C22	C	0.964032	-0.573217	-0.438851
C23	C	1.073754	-0.573191	-0.438840
C24	C	1.128698	-0.371859	-0.640773
C25	C	1.073868	-0.304758	-0.708089
C26	C	0.964144	-0.304779	-0.708096
C27	C	0.909250	-0.371899	-0.640786
C28	C	1.518326	-0.779050	-0.506130
C29	C	1.518397	-0.895827	-0.506157
C30	C	1.652713	-0.895629	-0.640646
C31	C	1.719903	-0.950391	-0.707897
C32	C	1.719966	-1.060113	-0.707920
C33	C	1.652828	-1.115075	-0.640686
C34	C	1.585637	-1.060313	-0.573434
C35	C	1.585584	-0.950589	-0.573416
C36	C	1.451318	-1.060511	-0.438953
C37	C	1.451260	-0.950789	-0.438923
C38	C	1.384181	-1.115473	-0.371718
C39	C	1.316994	-1.060711	-0.304459
C40	C	1.316935	-0.950982	-0.304439
C41	C	1.384069	-0.896027	-0.371671
C42	C	1.792418	-0.506108	-0.506162
C43	C	1.909194	-0.506119	-0.506169
C44	C	1.518458	-0.505977	-0.780180
C45	C	1.518489	-0.505931	-0.896957
C46	C	1.518472	-0.232049	-0.506187
C47	C	1.518509	-0.115272	-0.506205
C48	C	1.585716	-0.438735	-0.951835
C49	C	1.585741	-0.438697	-1.061559
C50	C	1.451310	-0.573061	-1.061518
C51	C	1.451280	-0.573093	-0.951796
C52	C	1.652926	-0.371573	-0.896996
C53	C	1.720159	-0.304372	-0.951873
C54	C	1.720184	-0.304334	-1.061597
C55	C	1.652976	-0.371498	-1.116444
C56	C	1.518372	-0.506112	-0.233180
C57	C	1.518544	-0.505862	-0.116404
H58	H	1.118570	-0.250105	-0.762884
H59	H	1.262330	-1.105470	-0.249728
Br60	Br	1.148172	-0.664259	-0.347497
Br61	Br	1.384421	-1.264381	-0.371590
H62	H	0.919505	-0.250135	-0.762901
Br63	Br	1.811345	-0.213206	-0.877442
Br64	Br	0.760337	-0.371911	-0.640783
H65	H	1.218041	-0.371834	-0.640775
H66	H	1.652678	-0.806288	-0.640624
H67	H	1.774564	-0.905631	-0.762641
H68	H	1.774921	-0.249608	-1.106275
H69	H	1.652989	-0.371449	-1.205789
Br70	Br	1.360107	-0.664207	-1.135953
H71	H	1.396522	-0.627794	-0.907114
H72	H	0.919328	-0.627865	-0.384052
Br73	Br	1.225734	-0.876672	-0.213171
H74	H	1.774667	-1.104700	-0.762694
H75	H	1.384032	-0.806686	-0.371656
Br76	Br	1.653078	-1.263984	-0.640554
H77	H	1.652915	-0.371599	-0.807653
