data_functionalizedCrystal
_audit_creation_method	'MofGen! by Chris Wilmer'
_symmetry_space_group_name_H-M	'P1'
_symmetry_Int_Tables_number	1
_symmetry_cell_setting	triclinic
loop_
_symmetry_equiv_pos_as_xyz
  x,y,z
_cell_length_a	10.967926
_cell_length_b	14.044220
_cell_length_c	10.065922
_cell_angle_alpha	80.968971
_cell_angle_beta	92.198823
_cell_angle_gamma	88.855190
loop_
_atom_site_label
_atom_site_type_symbol
_atom_site_fract_x
_atom_site_fract_y
_atom_site_fract_z
O1	O	1.628284	0.103391	0.269469
O2	O	1.279263	0.125158	0.187377
O3	O	1.448532	-0.023611	0.227204
O4	O	1.459014	0.252160	0.229642
O5	O	1.414248	-0.047696	0.446131
O6	O	1.244978	0.101073	0.406304
O7	O	1.593999	0.079307	0.488396
Zn8	Zn	1.414045	0.086366	0.482109
Zn9	Zn	1.459217	0.118098	0.193664
O10	O	1.424729	0.228076	0.448569
C11	C	1.217183	0.113351	0.286271
C12	C	1.083284	0.114044	0.254778
C13	C	1.005827	0.101876	0.354147
C14	C	0.867435	0.102591	0.321600
C15	C	1.426804	-0.070880	0.335589
C16	C	1.413123	-0.175845	0.332373
C17	C	1.388115	-0.368025	0.326471
C18	C	1.485143	-0.427515	0.349289
C19	C	1.471228	-0.534451	0.346005
C20	C	1.402028	-0.261079	0.329755
C21	C	1.656079	0.091113	0.389499
C22	C	1.789979	0.090422	0.420984
C23	C	1.446459	0.275345	0.340181
C24	C	1.460141	0.380310	0.343388
N25	N	1.383226	0.064708	0.678968
C26	C	1.448480	0.110567	0.762091
C27	C	1.424770	0.093890	0.913683
N28	N	1.490034	0.139756	0.996805
H29	H	0.826114	0.079471	0.530162
N30	N	1.270797	-0.404884	0.298919
N31	N	1.185110	-0.395169	0.374467
H32	H	1.102253	-0.421212	0.355019
N33	N	1.332639	0.029159	0.965171
N34	N	1.224027	0.044500	0.923801
H35	H	1.158958	-0.001214	0.960165
N36	N	1.540592	0.175300	0.710572
N37	N	1.559727	0.188752	0.587503
H38	H	1.624784	0.234470	0.551119
H39	H	0.831299	0.113536	0.212423
H40	H	1.047143	0.124988	0.145608
H41	H	1.578676	-0.398124	0.371197
H42	H	1.563462	0.191365	0.955750
N43	N	1.051174	0.088132	0.491097
N44	N	1.163531	0.087566	0.517343
H45	H	1.195557	0.077858	0.614067
N46	N	1.291130	-0.000039	0.730490
N47	N	1.272003	-0.013497	0.853562
H48	H	1.206959	-0.059227	0.889949
