data_functionalizedCrystal
_audit_creation_method	'MofGen! by Chris Wilmer'
_symmetry_space_group_name_H-M	'P1'
_symmetry_Int_Tables_number	1
_symmetry_cell_setting	triclinic
loop_
_symmetry_equiv_pos_as_xyz
  x,y,z
_cell_length_a	16.959454
_cell_length_b	17.077404
_cell_length_c	17.077396
_cell_angle_alpha	90.017244
_cell_angle_beta	89.974430
_cell_angle_gamma	89.979700
loop_
_atom_site_label
_atom_site_type_symbol
_atom_site_fract_x
_atom_site_fract_y
_atom_site_fract_z
Zn1	Zn	-0.314670	-1.200052	-0.443863
Zn2	Zn	0.185330	-0.700052	0.056137
Zn3	Zn	-0.446860	-1.199971	-0.312606
Zn4	Zn	0.053140	-0.699971	0.187394
Zn5	Zn	-0.314700	-1.068789	-0.312611
Zn6	Zn	0.185300	-0.568789	0.187389
Zn7	Zn	-0.446811	-1.068759	-0.443829
Zn8	Zn	0.053189	-0.568759	0.056171
O9	O	-0.380760	-1.134393	-0.378227
O10	O	0.119240	-0.634393	0.121773
O11	O	-0.332214	-1.309889	-0.426463
O12	O	0.167786	-0.809889	0.073537
O13	O	-0.429362	-1.182548	-0.202759
O14	O	0.070638	-0.682548	0.297241
O15	O	-0.204085	-1.086249	-0.330038
O16	O	0.295915	-0.586249	0.169962
O17	O	-0.429333	-1.309829	-0.330029
O18	O	0.070667	-0.809829	0.169971
O19	O	-0.204063	-1.182687	-0.426469
O20	O	0.295937	-0.682687	0.073531
O21	O	-0.332264	-1.086170	-0.202763
O22	O	0.167736	-0.586170	0.297237
O23	O	-0.332217	-0.958938	-0.330006
O24	O	0.167783	-0.458938	0.169994
O25	O	-0.429250	-1.086196	-0.553681
O26	O	0.070750	-0.586196	-0.053681
O27	O	-0.429278	-0.958916	-0.426411
O28	O	0.070722	-0.458916	0.073589
O29	O	-0.332166	-1.182657	-0.553706
O30	O	0.167834	-0.682657	-0.053706
O31	O	-0.557464	-1.182519	-0.329996
O32	O	-0.057464	-0.682519	0.170004
O33	O	-0.557429	-1.086117	-0.426406
O34	O	-0.057429	-0.586117	0.073594
C35	C	-0.380746	-0.930445	-0.378206
C36	C	0.119254	-0.430445	0.121794
C37	C	-0.380759	-0.843195	-0.378215
C38	C	0.119241	-0.343195	0.121785
C39	C	-0.586127	-1.134327	-0.378214
C40	C	-0.086127	-0.634327	0.121786
C41	C	-0.673983	-1.134371	-0.378235
C42	C	-0.173983	-0.634371	0.121765
C43	C	-0.380699	-1.134432	-0.582972
C44	C	0.119301	-0.634432	-0.082972
C45	C	-0.380673	-1.134449	-0.670222
C46	C	0.119327	-0.634449	-0.170222
C47	C	-1.045470	-1.084270	-0.428422
C48	C	-0.545470	-0.584270	0.071578
C49	C	-1.045447	-1.184735	-0.328112
C50	C	-0.545447	-0.684735	0.171888
C51	C	-0.962902	-1.184707	-0.328105
C52	C	-0.462902	-0.684707	0.171895
C53	C	-0.921636	-1.134460	-0.378256
C54	C	-0.421636	-0.634460	0.121744
C55	C	-0.962917	-1.084239	-0.428415
C56	C	-0.462917	-0.584239	0.071585
C57	C	-0.921615	-1.234921	-0.277942
C58	C	-0.421615	-0.734921	0.222058
C59	C	-0.839064	-1.234895	-0.277932
C60	C	-0.339064	-0.734895	0.222068
C61	C	-0.797797	-1.184651	-0.328088
C62	C	-0.297797	-0.684651	0.171912
C63	C	-0.839083	-1.134429	-0.378249
C64	C	-0.339083	-0.634429	0.121751
C65	C	-0.797817	-1.084181	-0.428400
C66	C	-0.297817	-0.584181	0.071600
C67	C	-0.839101	-1.033962	-0.478566
C68	C	-0.339101	-0.533962	0.021434
C69	C	-0.921650	-1.033994	-0.478571
C70	C	-0.421650	-0.533994	0.021429
C71	C	-0.715249	-1.184619	-0.328083
C72	C	-0.215249	-0.684619	0.171917
C73	C	-0.715264	-1.084150	-0.428393
C74	C	-0.215264	-0.584150	0.071607
C75	C	-0.174592	-1.134480	-0.378258
C76	C	0.325408	-0.634480	0.121742
C77	C	-0.086736	-1.134518	-0.378271
C78	C	0.413264	-0.634518	0.121729
C79	C	-0.380775	-1.339137	-0.378250
C80	C	0.119225	-0.839137	0.121750
C81	C	-0.380782	-1.426387	-0.378259
C82	C	0.119218	-0.926387	0.121741
C83	C	-0.431375	-0.802214	-0.428333
C84	C	0.068625	-0.302214	0.071667
C85	C	-0.431377	-0.720233	-0.428345
C86	C	0.068623	-0.220233	0.071655
C87	C	-0.380766	-0.679236	-0.378236
C88	C	0.119234	-0.179236	0.121764
C89	C	-0.330144	-0.720223	-0.328116
C90	C	0.169856	-0.220223	0.171884
C91	C	-0.330139	-0.802202	-0.328108
C92	C	0.169861	-0.302202	0.171892
C93	C	-0.330160	-0.549353	-0.328134
C94	C	0.169840	-0.049353	0.171866
C95	C	-0.330165	-0.467368	-0.328141
C96	C	0.169835	0.032632	0.171859
C97	C	-0.431398	-0.467384	-0.428372
C98	C	0.068602	0.032616	0.071628
C99	C	-0.431392	-0.549363	-0.428364
C100	C	0.068608	-0.049363	0.071636
C101	C	-0.380771	-0.590345	-0.378243
C102	C	0.119229	-0.090345	0.121757
C103	C	-0.330108	-1.084280	-0.711213
C104	C	0.169892	-0.584280	-0.211213
C105	C	-0.330090	-1.084293	-0.793194
C106	C	0.169910	-0.584293	-0.293194
C107	C	-0.380634	-1.134479	-0.834181
C108	C	0.119366	-0.634479	-0.334181
C109	C	-0.431204	-1.184651	-0.793184
C110	C	0.068796	-0.684651	-0.293184
C111	C	-0.431225	-1.184633	-0.711205
C112	C	0.068775	-0.684633	-0.211205
C113	C	-0.431155	-1.184685	-0.964054
C114	C	0.068845	-0.684685	-0.464054
C115	C	-0.431132	-1.184703	-1.046038
C116	C	0.068868	-0.684703	-0.546038
C117	C	-0.330020	-1.084344	-1.046043
C118	C	0.169980	-0.584344	-0.546043
C119	C	-0.330041	-1.084327	-0.964064
C120	C	0.169959	-0.584327	-0.464064
C121	C	-0.380610	-1.134499	-0.923072
C122	C	0.119390	-0.634499	-0.423072
C123	C	-0.380764	-1.134399	-0.174279
C124	C	0.119236	-0.634399	0.325721
C125	C	-0.380568	-1.134534	-0.087030
C126	C	0.119432	-0.634534	0.412970
H127	H	-0.681670	-1.043235	-0.469236
H128	H	-0.181670	-0.543235	0.030764
C129	C	-0.274510	-1.029077	-0.666130
C130	C	0.225490	-0.529077	-0.166130
H131	H	-0.281758	-1.036255	-0.611435
H132	H	0.218242	-0.536255	-0.111435
H133	H	-0.286070	-0.976333	-0.679559
H134	H	0.213930	-0.476333	-0.179559
H135	H	-0.221397	-1.040596	-0.679578
H136	H	0.278603	-0.540596	-0.179578
C137	C	-0.274503	-0.422268	-0.273017
C138	C	0.225497	0.077732	0.226983
H139	H	-0.281768	-0.367576	-0.280193
H140	H	0.218232	0.132424	0.219807
H141	H	-0.221404	-0.435714	-0.284587
H142	H	0.278596	0.064286	0.215413
H143	H	-0.286012	-0.435684	-0.220253
H144	H	0.213988	0.064316	0.279747
H145	H	-0.805456	-1.275786	-0.237085
H146	H	-0.305456	-0.775786	0.262915
H147	H	-0.288918	-0.835568	-0.287301
H148	H	0.211082	-0.335568	0.212699
H149	H	-0.288919	-1.043437	-0.826565
H150	H	0.211081	-0.543437	-0.326565
H151	H	-0.805493	-0.993047	-0.519396
H152	H	-0.305493	-0.493047	-0.019396
C153	C	-0.487062	-0.594460	-0.483484
C154	C	0.012938	-0.094460	0.016516
H155	H	-0.517206	-0.558313	-0.513341
H156	H	-0.017206	-0.058313	-0.013341
H157	H	-0.521460	-0.626420	-0.453395
H158	H	-0.021460	-0.126420	0.046605
H159	H	-0.456859	-0.626460	-0.517735
H160	H	0.043141	-0.126460	-0.017735
H161	H	-0.955270	-0.993108	-0.519412
H162	H	-0.455270	-0.493108	-0.019412
C163	C	-0.487075	-0.422309	-0.483509
C164	C	0.012925	0.077691	0.016491
H165	H	-0.479824	-0.367613	-0.476346
H166	H	0.020176	0.132387	0.023654
H167	H	-0.540168	-0.435721	-0.471929
H168	H	-0.040168	0.064279	0.028071
H169	H	-0.475569	-0.435772	-0.536271
H170	H	0.024431	0.064228	-0.036271
H171	H	-0.288881	-1.043464	-0.930694
H172	H	0.211119	-0.543464	-0.430694
H173	H	-0.288932	-0.582718	-0.287327
H174	H	0.211068	-0.082718	0.212673
C175	C	-0.274470	-0.675132	-0.272996
C176	C	0.225530	-0.175132	0.227004
H177	H	-0.244318	-0.711282	-0.243152
H178	H	0.255682	-0.211282	0.256848
H179	H	-0.304663	-0.643129	-0.238745
H180	H	0.195337	-0.143129	0.261255
H181	H	-0.240067	-0.643175	-0.303091
H182	H	0.259933	-0.143175	0.196909
H183	H	-0.288843	-1.043493	-1.079422
H184	H	0.211157	-0.543493	-0.579422
C185	C	-0.486723	-1.239912	-1.091124
C186	C	0.013277	-0.739912	-0.591124
H187	H	-0.516849	-1.269785	-1.054971
H188	H	-0.016849	-0.769785	-0.554971
H189	H	-0.456475	-1.274132	-1.123107
H190	H	0.043525	-0.774132	-0.623107
H191	H	-0.521153	-1.209874	-1.123099
H192	H	-0.021153	-0.709874	-0.623099
H193	H	-0.472594	-0.686870	-0.469156
H194	H	0.027406	-0.186870	0.030844
C195	C	-0.486781	-1.239872	-0.918964
C196	C	0.013219	-0.739872	-0.418964
H197	H	-0.516875	-1.269769	-0.955115
H198	H	-0.016875	-0.769769	-0.455115
H199	H	-0.521227	-1.209823	-0.886975
H200	H	-0.021227	-0.709823	-0.386975
H201	H	-0.456551	-1.274083	-0.886994
H202	H	0.043449	-0.774083	-0.386994
H203	H	-0.472394	-1.225492	-0.677830
H204	H	0.027606	-0.725492	-0.177830
C205	C	-1.090877	-1.029031	-0.483598
C206	C	-0.590877	-0.529031	0.016402
H207	H	-1.145951	-1.036240	-0.476420
H208	H	-0.645951	-0.536240	0.023580
H209	H	-1.077308	-1.040479	-0.536349
H210	H	-0.577308	-0.540479	-0.036349
H211	H	-1.077394	-0.976289	-0.472052
H212	H	-0.577394	-0.476289	0.027948
C213	C	-1.090837	-1.240007	-0.272955
C214	C	-0.590837	-0.740007	0.227045
H215	H	-1.145913	-1.232836	-0.280147
H216	H	-0.645913	-0.732836	0.219853
H217	H	-1.077347	-1.228556	-0.220199
H218	H	-0.577347	-0.728556	0.279801
H219	H	-1.077264	-1.292738	-0.284503
H220	H	-0.577264	-0.792738	0.215497
C221	C	-0.967006	-1.290199	-0.222791
C222	C	-0.467006	-0.790199	0.277209
H223	H	-1.022082	-1.283034	-0.229992
H224	H	-0.522082	-0.783034	0.270008
H225	H	-0.953525	-1.278749	-0.170033
H226	H	-0.453525	-0.778749	0.329967
H227	H	-0.953426	-1.342928	-0.234340
H228	H	-0.453426	-0.842928	0.265660
H229	H	-0.681639	-1.225502	-0.287235
H230	H	-0.181639	-0.725502	0.212765
C231	C	-0.487047	-0.847304	-0.483456
C232	C	0.012953	-0.347304	0.016544
H233	H	-0.517187	-0.811153	-0.513311
H234	H	-0.017187	-0.311153	-0.013311
H235	H	-0.521448	-0.879264	-0.453370
H236	H	-0.021448	-0.379264	0.046630
H237	H	-0.456845	-0.879304	-0.517709
H238	H	0.043155	-0.379304	-0.017709
H239	H	-0.472361	-1.225509	-0.826562
H240	H	0.027639	-0.725509	-0.326562
