data_functionalizedCrystal
_audit_creation_method	'MofGen! by Chris Wilmer'
_symmetry_space_group_name_H-M	'P1'
_symmetry_Int_Tables_number	1
_symmetry_cell_setting	triclinic
loop_
_symmetry_equiv_pos_as_xyz
  x,y,z
_cell_length_a	10.654545
_cell_length_b	14.044220
_cell_length_c	9.730223
_cell_angle_alpha	90.005417
_cell_angle_beta	90.002833
_cell_angle_gamma	88.835978
loop_
_atom_site_label
_atom_site_type_symbol
_atom_site_fract_x
_atom_site_fract_y
_atom_site_fract_z
O1	O	1.681229	0.133211	0.114280
O2	O	2.181229	0.633211	0.614280
O3	O	1.317026	0.145909	0.114287
O4	O	1.817026	0.645909	0.614287
O5	O	1.493660	0.001539	0.114270
O6	O	1.993660	0.501539	0.614270
O7	O	1.504594	0.277580	0.114297
O8	O	2.004594	0.777580	0.614297
O9	O	1.493648	0.001535	-0.114310
O10	O	1.993648	0.501535	0.385690
O11	O	1.317013	0.145905	-0.114293
O12	O	1.817013	0.645905	0.385707
O13	O	1.681216	0.133207	-0.114300
O14	O	2.181216	0.633207	0.385700
Zn15	Zn	1.499112	0.139555	-0.150588
Zn16	Zn	1.999112	0.639555	0.349412
Zn17	Zn	1.499129	0.139561	0.150575
Zn18	Zn	1.999129	0.639561	0.650575
O19	O	1.504581	0.277576	-0.114283
O20	O	2.004581	0.777576	0.385717
C21	C	1.270128	0.144975	-0.000003
C22	C	1.770128	0.644975	0.499997
C23	C	1.130404	0.142189	-0.000001
C24	C	1.630404	0.642189	0.499999
C25	C	1.488868	-0.033808	-0.000020
C26	C	1.988868	0.466192	0.499980
C27	C	1.474593	-0.139128	-0.000022
C28	C	1.974593	0.360872	0.499978
C29	C	1.064761	0.140875	-0.124601
C30	C	1.564761	0.640875	0.375399
C31	C	0.933476	0.138240	-0.124601
C32	C	1.433476	0.638240	0.375399
C33	C	0.933490	0.138238	0.124609
C34	C	1.433490	0.638238	0.624609
C35	C	1.064772	0.140866	0.124608
C36	C	1.564772	0.640866	0.624608
C37	C	1.448494	-0.331961	-0.000002
C38	C	1.948494	0.168039	0.499998
C39	C	1.549742	-0.388929	0.000001
C40	C	2.049742	0.111071	0.500001
C41	C	1.535220	-0.496228	0.000012
C42	C	2.035220	0.003772	0.500012
C43	C	1.463014	-0.224652	-0.000013
C44	C	1.963014	0.275348	0.499987
C45	C	1.728114	0.134140	-0.000007
C46	C	2.228114	0.634140	0.499993
C47	C	1.867838	0.136927	-0.000000
C48	C	2.367838	0.636927	0.500000
C49	C	1.509373	0.312924	0.000011
C50	C	2.009373	0.812924	0.500011
C51	C	1.523649	0.418244	0.000021
C52	C	2.023649	0.918244	0.500021
N53	N	1.499110	0.139551	-0.356125
N54	N	1.999110	0.639551	0.143875
C55	C	1.577356	0.075652	-0.428058
C56	C	2.077356	0.575652	0.071942
C57	C	1.577368	0.075652	-0.571941
C58	C	2.077368	0.575652	-0.071941
C59	C	1.420886	0.203460	-0.571945
C60	C	1.920886	0.703460	-0.071945
C61	C	1.420868	0.203454	-0.428064
C62	C	1.920868	0.703454	0.071936
N63	N	1.499141	0.139557	0.356112
N64	N	1.999141	0.639557	0.856112
H65	H	0.880035	0.137171	-0.226063
H66	H	1.380035	0.637171	0.273937
C67	C	1.681575	-0.345962	-0.000032
C68	C	2.181575	0.154038	0.499968
H69	H	1.674170	-0.278435	-0.000055
H70	H	2.174170	0.221565	0.499945
H71	H	1.725962	-0.366452	0.079670
H72	H	2.225962	0.133548	0.579670
H73	H	1.725914	-0.366477	-0.079762
H74	H	2.225914	0.133523	0.420238
C75	C	1.316671	-0.374929	-0.000011
C76	C	1.816671	0.125071	0.499989
H77	H	1.324083	-0.442455	-0.000018
H78	H	1.824083	0.057545	0.499982
H79	H	1.272296	-0.354422	0.079692
H80	H	1.772296	0.145578	0.579692
H81	H	1.272314	-0.354436	-0.079740
H82	H	1.772314	0.145564	0.420260
C83	C	1.334805	0.273752	-0.348926
C84	C	1.834805	0.773752	0.151074
H85	H	1.345995	0.264589	-0.252934
H86	H	1.845995	0.764589	0.247066
H87	H	1.355545	0.337157	-0.372487
H88	H	1.855545	0.837157	0.127513
H89	H	1.249773	0.262861	-0.372520
H90	H	1.749773	0.762861	0.127480
H91	H	1.641063	0.023617	-0.369488
H92	H	2.141063	0.523617	0.130512
H93	H	1.641081	0.023618	-0.630505
H94	H	2.141081	0.523618	-0.130505
H95	H	1.357185	0.255489	-0.630532
H96	H	1.857185	0.755489	-0.130532
H97	H	0.880037	0.137162	0.226062
H98	H	1.380037	0.637162	0.726062
C99	C	1.136958	0.142321	-0.261660
C100	C	1.636958	0.642321	0.238340
H101	H	1.224547	0.144083	-0.243820
H102	H	1.724547	0.644083	0.256180
H103	H	1.118837	0.086672	-0.312864
H104	H	1.618837	0.586672	0.187136
H105	H	1.112040	0.197115	-0.312847
H106	H	1.612040	0.697115	0.187153
C107	C	1.136985	0.142315	0.261675
C108	C	1.636985	0.642315	0.761675
H109	H	1.079096	0.141165	0.335887
H110	H	1.579096	0.641165	0.835887
H111	H	1.191597	0.088122	0.266846
H112	H	1.691597	0.588122	0.766846
H113	H	1.184799	0.198566	0.266856
H114	H	1.684799	0.698566	0.766856
