data_functionalizedCrystal
_audit_creation_method	'MofGen! by Chris Wilmer'
_symmetry_space_group_name_H-M	'P1'
_symmetry_Int_Tables_number	1
_symmetry_cell_setting	triclinic
loop_
_symmetry_equiv_pos_as_xyz
  x,y,z
_cell_length_a	18.215407
_cell_length_b	12.827892
_cell_length_c	18.215399
_cell_angle_alpha	90.023838
_cell_angle_beta	90.019833
_cell_angle_gamma	90.015840
loop_
_atom_site_label
_atom_site_type_symbol
_atom_site_fract_x
_atom_site_fract_y
_atom_site_fract_z
Zn1	Zn	1.125121	-0.416031	0.416137
Zn2	Zn	1.125049	-0.590790	0.293079
Zn3	Zn	1.002053	-0.416065	0.293084
Zn4	Zn	1.002039	-0.590732	0.416104
O5	O	1.063566	-0.503405	0.354601
O6	O	1.228095	-0.439223	0.399825
O7	O	1.108710	-0.567651	0.190096
O8	O	1.018414	-0.269825	0.309423
O9	O	1.228043	-0.567618	0.309415
O10	O	1.108831	-0.269800	0.399829
O11	O	1.018345	-0.439282	0.190099
O12	O	0.899067	-0.439225	0.309392
O13	O	1.018390	-0.567519	0.519093
O14	O	0.899057	-0.567552	0.399774
O15	O	1.108818	-0.439167	0.519117
O16	O	1.108696	-0.737019	0.309383
O17	O	1.018321	-0.736976	0.399769
C18	C	0.872359	-0.503387	0.354580
C19	C	0.790560	-0.503405	0.354589
C20	C	0.602380	-0.570329	0.401592
C21	C	0.525522	-0.570333	0.401601
C22	C	0.525503	-0.436499	0.307627
C23	C	0.602360	-0.436491	0.307622
C24	C	0.640797	-0.503413	0.354603
C25	C	0.487081	-0.503424	0.354617
C26	C	0.403747	-0.503427	0.354627
C27	C	0.724136	-0.503408	0.354595
C28	C	1.063520	-0.774915	0.354588
C29	C	1.063567	-0.891068	0.354607
C30	C	1.108341	-0.942839	0.309931
C31	C	1.108391	-1.062889	0.309950
C32	C	1.255518	-0.503424	0.354623
C33	C	1.337317	-0.503432	0.354632
C34	C	1.063610	-0.503333	0.546554
C35	C	1.063629	-0.503302	0.628353
C36	C	1.063632	-0.230835	0.354630
C37	C	1.063660	-0.114682	0.354643
C38	C	1.063563	-0.503401	0.163395
C39	C	1.063687	-0.503138	0.081597
C40	C	1.110732	-0.436407	0.816561
C41	C	1.110741	-0.436376	0.893420
C42	C	1.016579	-0.570036	0.893383
C43	C	1.016567	-0.570060	0.816526
C44	C	1.063648	-0.503247	0.778117
C45	C	1.063668	-0.503192	0.931833
C46	C	1.063678	-0.503160	1.015167
C47	C	1.063638	-0.503278	0.694778
H48	H	0.494198	-0.382016	0.269375
C49	C	0.644662	-0.643932	0.453276
C50	C	0.697530	-0.598745	0.511102
C51	C	0.739808	-0.672346	0.562790
C52	C	0.729218	-0.791135	0.556651
C53	C	0.676348	-0.836328	0.498823
C54	C	0.634069	-0.762727	0.447135
H55	H	0.705371	-0.510805	0.515648
H56	H	0.778947	-0.638891	0.605598
H57	H	0.760515	-0.845620	0.594914
H58	H	0.668506	-0.924268	0.494276
H59	H	0.594931	-0.796182	0.404326
H60	H	0.978249	-0.624435	0.924666
H61	H	1.146639	-0.898288	0.271671
H62	H	0.494246	-0.624822	0.439864
C63	C	0.964772	-0.643591	0.774232
C64	C	0.912992	-0.717092	0.816477
C65	C	0.861197	-0.790616	0.774182
C66	C	0.861182	-0.790638	0.689642
C67	C	0.912964	-0.717133	0.647392
C68	C	0.964759	-0.643610	0.689687
H69	H	0.913001	-0.717079	0.879063
H70	H	0.822864	-0.845028	0.805459
H71	H	0.822840	-0.845064	0.658333
H72	H	0.912955	-0.717147	0.584806
H73	H	1.003092	-0.589198	0.658410
H74	H	0.633639	-0.381993	0.269358
H75	H	1.146721	-1.107412	0.271699
C76	C	1.011870	-1.054552	0.406320
C77	C	0.954127	-0.979590	0.374318
C78	C	0.902337	-0.919451	0.425996
C79	C	0.908290	-0.934274	0.509675
C80	C	0.966036	-1.009239	0.541681
C81	C	1.017826	-1.069378	0.490004
H82	H	0.949718	-0.968615	0.312370
H83	H	0.859590	-0.863957	0.402302
H84	H	0.869952	-0.889756	0.547929
H85	H	0.970445	-1.020214	0.603629
H86	H	1.060573	-1.124872	0.513697
H87	H	1.025275	-0.935621	0.392873
H88	H	1.149080	-0.381946	0.924717
C89	C	1.162513	-0.362906	0.774310
C90	C	1.214301	-0.289377	0.816601
C91	C	1.266081	-0.215871	0.774353
C92	C	1.266073	-0.215894	0.689812
C93	C	1.214283	-0.289425	0.647516
C94	C	1.162503	-0.362931	0.689765
H95	H	1.214308	-0.289358	0.879187
H96	H	1.304419	-0.161439	0.805663
H97	H	1.304404	-0.161480	0.658537
H98	H	1.214276	-0.289444	0.584930
H99	H	1.124165	-0.417363	0.658454
