data_functionalizedCrystal
_audit_creation_method	'MofGen! by Chris Wilmer'
_symmetry_space_group_name_H-M	'P1'
_symmetry_Int_Tables_number	1
_symmetry_cell_setting	triclinic
loop_
_symmetry_equiv_pos_as_xyz
  x,y,z
_cell_length_a	10.654545
_cell_length_b	15.995350
_cell_length_c	14.472311
_cell_angle_alpha	89.994208
_cell_angle_beta	90.005666
_cell_angle_gamma	83.987727
loop_
_atom_site_label
_atom_site_type_symbol
_atom_site_fract_x
_atom_site_fract_y
_atom_site_fract_z
O1	O	1.666313	0.117574	0.076827
O2	O	1.300687	0.128783	0.076830
O3	O	1.493495	0.001349	0.076827
O4	O	1.473506	0.245008	0.076829
O5	O	1.493469	0.001365	-0.076855
O6	O	1.300662	0.128799	-0.076852
O7	O	1.666287	0.117591	-0.076855
Cu8	Cu	1.483472	0.123197	-0.090886
Cu9	Cu	1.483503	0.123177	0.090861
O10	O	1.473480	0.245025	-0.076853
C11	C	1.253887	0.127969	-0.000010
C12	C	1.114476	0.125509	-0.000009
C13	C	1.048972	0.124360	-0.083782
C14	C	0.917983	0.122035	-0.083782
C15	C	0.918012	0.122011	0.083771
C16	C	1.049000	0.124330	0.083770
C17	C	1.492655	-0.029842	-0.000012
C18	C	1.490178	-0.122807	-0.000007
C19	C	1.481281	-0.460606	-0.000010
C20	C	1.343967	-0.413968	0.000336
C21	C	1.346445	-0.317264	-0.000010
C22	C	1.485694	-0.293020	-0.000008
C23	C	1.553407	-0.333696	-0.087766
C24	C	1.549958	-0.430351	-0.087840
C25	C	1.552824	-0.430712	0.086925
C26	C	1.552791	-0.333767	0.088085
C27	C	1.488195	-0.198308	-0.000009
C28	C	1.478783	-0.555319	-0.000014
C29	C	1.713087	0.118405	-0.000013
C30	C	1.852499	0.120865	-0.000008
C31	C	1.474319	0.276216	-0.000011
C32	C	1.476797	0.369181	-0.000011
N33	N	1.483460	0.123210	-0.218717
C34	C	1.483482	0.123192	-0.407217
C35	C	1.380297	0.191354	-0.446446
C36	C	1.379944	0.191165	-0.553534
C37	C	1.483503	0.123175	-0.592808
C38	C	1.455418	0.035541	-0.553918
C39	C	1.454665	0.035950	-0.446797
C40	C	1.615067	0.141876	-0.446677
C41	C	1.614197	0.143846	-0.553806
C42	C	1.483518	0.123160	-0.697696
C43	C	1.483464	0.123201	-0.302329
N44	N	1.483525	0.123157	0.218692
H45	H	1.293217	-0.289157	0.062899
C46	C	1.270124	-0.440855	-0.084197
H47	H	1.187265	-0.412393	-0.083453
H48	H	1.312030	-0.426952	-0.139160
H49	H	1.265503	-0.499816	-0.082118
C50	C	1.552783	-0.034447	-0.411726
H51	H	1.553119	-0.034594	-0.346082
H52	H	1.531862	-0.087213	-0.433673
H53	H	1.634032	-0.024878	-0.433780
C54	C	0.845982	0.120726	0.175920
H55	H	0.758587	0.119189	0.163924
H56	H	0.877034	0.072362	0.210344
H57	H	0.857875	0.169850	0.210338
C58	C	1.121058	0.125597	0.175924
H59	H	1.063302	0.124575	0.225820
H60	H	1.181741	0.077761	0.179404
H61	H	1.162571	0.175249	0.179404
H62	H	1.289094	-0.432825	0.063270
C63	C	1.489837	-0.295729	-0.175995
H64	H	1.422042	-0.255099	-0.159537
H65	H	1.549806	-0.269639	-0.211505
H66	H	1.458416	-0.339032	-0.211367
C67	C	1.402404	0.279607	-0.411674
H68	H	1.474751	0.275678	-0.372913
H69	H	1.415322	0.314792	-0.462943
H70	H	1.330781	0.302795	-0.377697
H71	H	1.360583	0.018866	-0.580769
H72	H	1.283189	0.179468	-0.419545
C73	C	1.554275	-0.034702	-0.588283
H74	H	1.613692	-0.011152	-0.626749
H75	H	1.596689	-0.061565	-0.536837
H76	H	1.513425	-0.074720	-0.622483
H77	H	1.292837	-0.289703	-0.063025
H78	H	0.864656	0.121100	-0.151998
C79	C	1.483211	-0.455456	-0.176454
H80	H	1.458449	-0.406603	-0.212067
H81	H	1.539308	-0.493097	-0.211543
H82	H	1.410671	-0.482140	-0.160417
H83	H	1.102279	0.125320	-0.152000
C84	C	1.643019	0.230935	-0.588153
H85	H	1.575696	0.254604	-0.626108
H86	H	1.652047	0.266665	-0.536681
H87	H	1.719092	0.225259	-0.622883
C88	C	1.686139	-0.473130	-0.093234
H89	H	1.743323	-0.431414	-0.095379
H90	H	1.703472	-0.507553	-0.040317
H91	H	1.695639	-0.506802	-0.147356
H92	H	1.655709	-0.318977	-0.091028
H93	H	1.507940	-0.451519	0.153441
C94	C	1.486011	-0.297283	0.175794
H95	H	1.417528	-0.257381	0.158808
H96	H	1.455171	-0.341366	0.210253
H97	H	1.544139	-0.270574	0.212423
H98	H	1.282295	0.179107	-0.579177
H99	H	1.654339	-0.317817	0.093386
C100	C	1.689584	-0.472831	0.087734
H101	H	1.703069	-0.508465	0.035381
H102	H	1.746320	-0.430840	0.085810
H103	H	1.703723	-0.505191	0.142506
H104	H	1.396593	0.256270	-0.579830
C105	C	1.325048	0.013943	-0.413060
H106	H	1.273345	0.004841	-0.464822
H107	H	1.335921	-0.035606	-0.376488
H108	H	1.285899	0.059031	-0.377071
H109	H	1.642174	0.204478	-0.419668
C110	C	1.722751	0.081235	-0.589911
H111	H	1.689638	0.041487	-0.629415
H112	H	1.780846	0.110794	-0.623362
H113	H	1.764725	0.052779	-0.539224
H114	H	1.691849	0.092184	-0.421300
