data_functionalizedCrystal
_audit_creation_method	'MofGen! by Chris Wilmer'
_symmetry_space_group_name_H-M	'P1'
_symmetry_Int_Tables_number	1
_symmetry_cell_setting	triclinic
loop_
_symmetry_equiv_pos_as_xyz
  x,y,z
_cell_length_a	21.395362
_cell_length_b	18.101395
_cell_length_c	21.395355
_cell_angle_alpha	89.984273
_cell_angle_beta	89.956060
_cell_angle_gamma	90.046983
loop_
_atom_site_label
_atom_site_type_symbol
_atom_site_fract_x
_atom_site_fract_y
_atom_site_fract_z
Zn1	Zn	0.957858	-0.294602	-0.354598
Zn2	Zn	1.457858	0.205398	0.145402
Zn3	Zn	0.957760	-0.418425	-0.249825
Zn4	Zn	1.457760	0.081575	0.250175
Zn5	Zn	0.853073	-0.294636	-0.249799
Zn6	Zn	1.353073	0.205364	0.250201
Zn7	Zn	0.853041	-0.418440	-0.354530
Zn8	Zn	1.353041	0.081560	0.145470
O9	O	0.905433	-0.356526	-0.302188
O10	O	1.405433	0.143474	0.197812
O11	O	1.045523	-0.311006	-0.340739
O12	O	1.545523	0.188994	0.159261
O13	O	0.943845	-0.402012	-0.162144
O14	O	1.443845	0.097988	0.337856
O15	O	0.867027	-0.190998	-0.263718
O16	O	1.367027	0.309002	0.236282
O17	O	1.045450	-0.401979	-0.263763
O18	O	1.545450	0.098021	0.236237
O19	O	0.944012	-0.190973	-0.340713
O20	O	1.444012	0.309027	0.159287
O21	O	0.866932	-0.311065	-0.162125
O22	O	1.366932	0.188935	0.337875
O23	O	0.765391	-0.311080	-0.263652
O24	O	1.265391	0.188920	0.236348
O25	O	0.866973	-0.402005	-0.442217
O26	O	1.366973	0.097995	0.057783
O27	O	0.765367	-0.402038	-0.340598
O28	O	1.265367	0.097962	0.159402
O29	O	0.943982	-0.311021	-0.442267
O30	O	1.443982	0.188979	0.057733
O31	O	0.943814	-0.522060	-0.263697
O32	O	1.443814	-0.022060	0.236303
O33	O	0.866878	-0.522071	-0.340623
O34	O	1.366878	-0.022071	0.159377
C35	C	0.742645	-0.356565	-0.302115
C36	C	1.242645	0.143435	0.197885
C37	C	0.673004	-0.356599	-0.302099
C38	C	1.173004	0.143401	0.197901
C39	C	0.640295	-0.404024	-0.342105
C40	C	1.140295	0.095976	0.157895
C41	C	0.574860	-0.404006	-0.342133
C42	C	1.074860	0.095994	0.157867
C43	C	0.542136	-0.356571	-0.302144
C44	C	1.042136	0.143429	0.197856
C45	C	0.574852	-0.309137	-0.262135
C46	C	1.074852	0.190863	0.237865
C47	C	0.640286	-0.309151	-0.262113
C48	C	1.140286	0.190849	0.237887
C49	C	0.438411	-0.350605	-0.245738
C50	C	0.938411	0.149395	0.254262
C51	C	0.372978	-0.350596	-0.245760
C52	C	0.872978	0.149404	0.254240
C53	C	0.340315	-0.356523	-0.302213
C54	C	0.840315	0.143477	0.197787
C55	C	0.373093	-0.362474	-0.358647
C56	C	0.873093	0.137526	0.141353
C57	C	0.438527	-0.362488	-0.358624
C58	C	0.938527	0.137512	0.141376
C59	C	0.471183	-0.356550	-0.302164
C60	C	0.971183	0.143450	0.197836
C61	C	0.236654	-0.403930	-0.342252
C62	C	0.736654	0.096070	0.157748
C63	C	0.171217	-0.403907	-0.342281
C64	C	0.671217	0.096093	0.157719
C65	C	0.171211	-0.309042	-0.262278
C66	C	0.671211	0.190958	0.237722
C67	C	0.236646	-0.309061	-0.262255
C68	C	0.736646	0.190939	0.237745
C69	C	0.269364	-0.356509	-0.302241
C70	C	0.769364	0.143491	0.197759
C71	C	0.905349	-0.548936	-0.302170
C72	C	1.405349	-0.048936	0.197830
C73	C	0.905370	-0.631250	-0.302183
C74	C	1.405370	-0.131250	0.197817
C75	C	0.905508	-0.930341	-0.302216
C76	C	1.405508	-0.430341	0.197784
C77	C	0.857214	-0.899054	-0.350736
C78	C	1.357214	-0.399054	0.149264
C79	C	0.856985	-0.813436	-0.350585
C80	C	1.356985	-0.313436	0.149415
C81	C	0.905440	-0.781959	-0.302200
C82	C	1.405440	-0.281959	0.197800
C83	C	0.887557	-0.813100	-0.236161
C84	C	1.387557	-0.313100	0.263839
C85	C	0.887246	-0.898745	-0.236451
C86	C	1.387246	-0.398745	0.263549
C87	C	0.971790	-0.898667	-0.319154
C88	C	1.471790	-0.398667	0.180846
C89	C	0.971400	-0.813017	-0.320602
C90	C	1.471400	-0.313017	0.179398
C91	C	0.905402	-0.698099	-0.302187
C92	C	1.405402	-0.198099	0.197813
C93	C	0.905544	-1.014201	-0.302225
C94	C	1.405544	-0.514201	0.197775
C95	C	1.068856	-0.356487	-0.302261
C96	C	1.568856	0.143513	0.197739
C97	C	1.138497	-0.356470	-0.302293
C98	C	1.638497	0.143530	0.197707
C99	C	0.905485	-0.356511	-0.465611
C100	C	1.405485	0.143489	0.034389
C101	C	0.905507	-0.356504	-0.535253
C102	C	1.405507	0.143496	-0.035253
C103	C	0.905534	-0.163364	-0.302220
C104	C	1.405534	0.336636	0.197780
C105	C	0.905577	-0.081050	-0.302234
C106	C	1.405577	0.418950	0.197766
C107	C	0.945603	-0.309127	-0.567993
C108	C	1.445603	0.190873	-0.067993
C109	C	0.945603	-0.309095	-0.633428
C110	C	1.445603	0.190905	-0.133428
C111	C	0.905512	-0.356454	-0.666121
C112	C	1.405512	0.143546	-0.166121
C113	C	0.865408	-0.403834	-0.633373
C114	C	1.365408	0.096166	-0.133373
C115	C	0.865405	-0.403859	-0.567939
C116	C	1.365405	0.096141	-0.067939
C117	C	0.900536	-0.423137	-0.769788
C118	C	1.400536	0.076863	-0.269788
C119	C	0.900542	-0.423113	-0.835221
C120	C	1.400542	0.076887	-0.335221
C121	C	0.905516	-0.356375	-0.867942
C122	C	1.405516	0.143625	-0.367942
C123	C	0.910495	-0.289660	-0.835222
C124	C	1.410495	0.210340	-0.335222
C125	C	0.910493	-0.289685	-0.769788
C126	C	1.410493	0.210315	-0.269788
C127	C	0.905510	-0.356431	-0.737073
C128	C	1.405510	0.143569	-0.237073
C129	C	0.945613	-0.308960	-0.971635
C130	C	1.445613	0.191040	-0.471635
C131	C	0.945608	-0.308927	-1.037071
C132	C	1.445608	0.191073	-0.537071
C133	C	0.865416	-0.403672	-1.037015
C134	C	1.365416	0.096328	-0.537015
C135	C	0.865418	-0.403699	-0.971580
C136	C	1.365418	0.096301	-0.471580
C137	C	0.905520	-0.356344	-0.938893
C138	C	1.405520	0.143656	-0.438893
C139	C	0.905417	-0.356487	-0.139400
C140	C	1.405417	0.143513	0.360600
C141	C	0.905516	-0.356285	-0.069760
C142	C	1.405516	0.143715	0.430240
H143	H	0.868173	-0.792380	-0.399551
H144	H	1.368173	-0.292380	0.100449
N145	N	0.871148	-0.924792	-0.412371
N146	N	1.371148	-0.424792	0.087629
N147	N	0.916829	-0.966501	-0.421258
N148	N	1.416829	-0.466501	0.078742
H149	H	0.926684	-0.984665	-0.464792
H150	H	1.426684	-0.484665	0.035208
N151	N	1.016922	-0.924043	-0.274817
N152	N	1.516922	-0.424043	0.225183
N153	N	1.000428	-0.965275	-0.230917
N154	N	1.500428	-0.465275	0.269083
H155	H	1.032297	-0.983200	-0.199601
H156	H	1.532297	-0.483200	0.300399
N157	N	1.018937	-0.786136	-0.279511
N158	N	1.518937	-0.286136	0.220489
N159	N	1.063503	-0.749185	-0.300815
N160	N	1.563503	-0.249185	0.199185
H161	H	1.097075	-0.730201	-0.271789
H162	H	1.597075	-0.230201	0.228211
N163	N	0.339502	-0.344499	-0.188117
N164	N	0.839502	0.155501	0.311883
N165	N	0.303027	-0.291573	-0.179438
N166	N	0.803027	0.208427	0.320562
H167	H	0.279386	-0.287264	-0.138726
H168	H	0.779386	0.212736	0.361274
N169	N	0.930299	-0.787521	-0.189576
N170	N	1.430299	-0.287521	0.310424
N171	N	0.974523	-0.745954	-0.204564
N172	N	1.474523	-0.245954	0.295436
H173	H	1.004711	-0.727888	-0.171665
H174	H	1.504711	-0.227888	0.328335
H175	H	0.346500	-0.367299	-0.404617
H176	H	0.846500	0.132701	0.095383
N177	N	0.471762	-0.344537	-0.188064
N178	N	0.971762	0.155463	0.311936
N179	N	0.442492	-0.339226	-0.137683
N180	N	0.942492	0.160774	0.362317
H181	H	0.466045	-0.334936	-0.096951
H182	H	0.966045	0.165064	0.403049
N183	N	0.137802	-0.260588	-0.221421
N184	N	0.637802	0.239412	0.278579
N185	N	0.167018	-0.218251	-0.185699
N186	N	0.667018	0.281749	0.314301
H187	H	0.143421	-0.184028	-0.156843
H188	H	0.643421	0.315972	0.343157
H189	H	0.808383	-0.920654	-0.339656
H190	H	1.308383	-0.420654	0.160344
N191	N	0.986570	-0.260753	-0.534615
N192	N	1.486570	0.239247	-0.034615
N193	N	1.022369	-0.218455	-0.563861
N194	N	1.522369	0.281545	-0.063861
H195	H	1.051303	-0.184291	-0.540288
H196	H	1.551303	0.315709	-0.040288
H197	H	0.896491	-0.477437	-0.861856
H198	H	1.396491	0.022563	-0.361856
N199	N	0.673717	-0.452476	-0.382957
N200	N	1.173717	0.047524	0.117043
N201	N	0.710296	-0.426500	-0.422910
N202	N	1.210296	0.073500	0.077090
H203	H	0.733902	-0.460719	-0.451763
H204	H	1.233902	0.039281	0.048237
H205	H	0.548223	-0.442625	-0.374712
H206	H	1.048223	0.057375	0.125288
N207	N	0.471989	-0.368545	-0.416278
N208	N	0.971989	0.131455	0.083722
N209	N	0.464754	-0.320920	-0.457960
N210	N	0.964754	0.179080	0.042040
H211	H	0.488382	-0.325192	-0.498682
H212	H	0.988382	0.174808	0.001318
H213	H	0.978253	-0.270511	-0.660090
H214	H	1.478253	0.229489	-0.160090
N215	N	0.541419	-0.260683	-0.221296
N216	N	1.041419	0.239317	0.278704
N217	N	0.482996	-0.260676	-0.221321
N218	N	0.982996	0.239324	0.278679
H219	H	0.459383	-0.226451	-0.192479
H220	H	0.959383	0.273549	0.307521
H221	H	0.807855	-0.793026	-0.339363
H222	H	1.307855	-0.293026	0.160637
N223	N	0.915564	-0.221487	-0.868644
N224	N	1.415564	0.278513	-0.368644
N225	N	0.873019	-0.202082	-0.905120
N226	N	1.373019	0.297918	-0.405120
H227	H	0.876598	-0.153937	-0.928727
H228	H	1.376598	0.346063	-0.428727
N229	N	0.824457	-0.452100	-0.938142
N230	N	1.324457	0.047900	-0.438142
N231	N	0.788662	-0.494379	-0.967337
N232	N	1.288662	0.005621	-0.467337
H233	H	0.759729	-0.528564	-0.943723
H234	H	1.259729	-0.028564	-0.443723
N235	N	0.270069	-0.452399	-0.383098
N236	N	0.770069	0.047601	0.116902
N237	N	0.240853	-0.494737	-0.418819
N238	N	0.740853	0.005263	0.081181
H239	H	0.264450	-0.528970	-0.447667
H240	H	0.764450	-0.028970	0.052333
H241	H	0.839618	-0.791728	-0.221559
H242	H	1.339618	-0.291728	0.278441
H243	H	0.914546	-0.235363	-0.743150
H244	H	1.414546	0.264637	-0.243150
H245	H	0.978263	-0.270396	-0.945020
H246	H	1.478263	0.229604	-0.445020
H247	H	0.838794	-0.918801	-0.222106
H248	H	1.338794	-0.418801	0.277894
N249	N	0.895448	-0.491318	-0.736377
N250	N	1.395448	0.008682	-0.236377
N251	N	0.891008	-0.550878	-0.765595
N252	N	1.391008	-0.050878	-0.265595
H253	H	0.887414	-0.599030	-0.742000
H254	H	1.387414	-0.099030	-0.242000
H255	H	0.920895	-0.919443	-0.199066
H256	H	1.420895	-0.419443	0.300934
N257	N	0.986568	-0.260519	-1.070507
N258	N	1.486568	0.239481	-0.570507
N259	N	1.022366	-0.218244	-1.041312
N260	N	1.522366	0.281756	-0.541312
H261	H	1.051295	-0.184054	-1.064926
H262	H	1.551295	0.315946	-0.564926
H263	H	0.988093	-0.920221	-0.366491
H264	H	1.488093	-0.420221	0.133509
H265	H	0.832767	-0.442225	-1.063633
H266	H	1.332767	0.057775	-0.563633
N267	N	0.673700	-0.260720	-0.221234
N268	N	1.173700	0.239280	0.278766
N269	N	0.710142	-0.286718	-0.181255
N270	N	1.210142	0.213282	0.318745
H271	H	0.733742	-0.252514	-0.152382
H272	H	1.233742	0.247486	0.347618
H273	H	0.984886	-0.792661	-0.369204
H274	H	1.484886	-0.292661	0.130796
H275	H	0.832763	-0.442392	-0.659996
H276	H	1.332763	0.057608	-0.159996
H277	H	0.144587	-0.442524	-0.374862
H278	H	0.644587	0.057476	0.125138
N279	N	0.824438	-0.452249	-0.534493
N280	N	1.324438	0.047751	-0.034493
N281	N	0.766626	-0.447342	-0.541756
N282	N	1.266626	0.052658	-0.041756
H283	H	0.737692	-0.481518	-0.518134
H284	H	1.237692	0.018482	-0.018134
N285	N	0.270052	-0.260614	-0.221384
N286	N	0.770052	0.239386	0.278616
N287	N	0.240829	-0.218262	-0.185684
N288	N	0.740829	0.281738	0.314316
H289	H	0.264421	-0.184042	-0.156817
H290	H	0.764421	0.315958	0.343183
