data_functionalizedCrystal
_audit_creation_method	'MofGen! by Chris Wilmer'
_symmetry_space_group_name_H-M	'P1'
_symmetry_Int_Tables_number	1
_symmetry_cell_setting	triclinic
loop_
_symmetry_equiv_pos_as_xyz
  x,y,z
_cell_length_a	13.032891
_cell_length_b	21.295417
_cell_length_c	13.032268
_cell_angle_alpha	82.859352
_cell_angle_beta	89.113158
_cell_angle_gamma	82.835114
loop_
_atom_site_label
_atom_site_type_symbol
_atom_site_fract_x
_atom_site_fract_y
_atom_site_fract_z
Zn1	Zn	1.498327	-0.425090	0.780729
Zn2	Zn	1.998327	0.074910	1.280729
Zn3	Zn	1.520038	-0.518875	0.608726
Zn4	Zn	2.020038	-0.018875	1.108726
Zn5	Zn	1.348195	-0.398796	0.586977
Zn6	Zn	1.848195	0.101204	1.086977
Zn7	Zn	1.326288	-0.515473	0.758852
Zn8	Zn	1.826288	-0.015473	1.258852
O9	O	1.423212	-0.464558	0.683821
O10	O	1.923212	0.035442	1.183821
O11	O	1.645123	-0.449959	0.776170
O12	O	2.145123	0.050041	1.276170
O13	O	1.515497	-0.493365	0.461926
O14	O	2.015497	0.006635	0.961926
O15	O	1.368193	-0.314205	0.612732
O16	O	1.868193	0.185795	1.112732
O17	O	1.661073	-0.518862	0.649800
O18	O	2.161073	-0.018862	1.149800
O19	O	1.478494	-0.333523	0.755081
O20	O	1.978494	0.166477	1.255081
O21	O	1.389245	-0.405144	0.445947
O22	O	1.889245	0.094856	0.945947
O23	O	1.201374	-0.401845	0.591518
O24	O	1.701374	0.098155	1.091518
O25	O	1.330855	-0.513064	0.905668
O26	O	1.830855	-0.013064	1.405668
O27	O	1.185279	-0.487567	0.717794
O28	O	1.685279	0.012433	1.217794
O29	O	1.457252	-0.446660	0.921741
O30	O	1.957252	0.053340	1.421741
O31	O	1.494254	-0.606502	0.628586
O32	O	1.994254	-0.106502	1.128586
O33	O	1.351907	-0.604003	0.738883
O34	O	1.851907	-0.104003	1.238883
C35	C	1.156010	-0.441484	0.649923
C36	C	1.656010	0.058516	1.149923
C37	C	1.041697	-0.431630	0.635445
C38	C	1.541697	0.068370	1.135445
C39	C	0.864658	-0.459521	0.676423
C40	C	1.364658	0.040479	1.176423
C41	C	0.982807	-0.469709	0.691384
C42	C	1.482807	0.030291	1.191384
C43	C	1.423084	-0.628095	0.683747
C44	C	1.923084	-0.128095	1.183747
C45	C	1.423120	-0.698067	0.683761
C46	C	1.923120	-0.198067	1.183761
C47	C	1.497289	-0.732223	0.626405
C48	C	1.997289	-0.232223	1.126405
C49	C	1.497335	-0.797971	0.626434
C50	C	1.997335	-0.297971	1.126434
C51	C	1.423193	-0.829558	0.683807
C52	C	1.923193	-0.329558	1.183807
C53	C	1.349017	-0.795394	0.741176
C54	C	1.849017	-0.295394	1.241176
C55	C	1.348980	-0.729648	0.741153
C56	C	1.848980	-0.229648	1.241153
N57	N	1.332231	-0.925582	0.680233
N58	N	1.832231	-0.425582	1.180233
N59	N	1.332269	-0.988038	0.680249
N60	N	1.832269	-0.488038	1.180249
C61	C	1.423301	-1.027647	0.683880
C62	C	1.923301	-0.527647	1.183880
N63	N	1.514297	-1.002440	0.687475
N64	N	2.014297	-0.502440	1.187475
N65	N	1.514258	-0.939978	0.687454
N66	N	2.014258	-0.439978	1.187454
C67	C	1.423225	-0.900848	0.683838
C68	C	1.923225	-0.400848	1.183838
C69	C	1.497526	-1.133095	0.626552
C70	C	1.997526	-0.633095	1.126552
C71	C	1.497572	-1.198845	0.626589
C72	C	1.997572	-0.698845	1.126589
C73	C	1.349246	-1.196265	0.741324
C74	C	1.849246	-0.696265	1.241324
C75	C	1.349208	-1.130518	0.741294
C76	C	1.849208	-0.630518	1.241294
C77	C	1.423347	-1.098936	0.683903
C78	C	1.923347	-0.598936	1.183903
C79	C	1.691457	-0.487723	0.717852
C80	C	2.191457	0.012277	1.217852
C81	C	1.805767	-0.497594	0.732354
C82	C	2.305767	0.002406	1.232354
C83	C	1.389188	-0.482416	0.952063
C84	C	1.889188	0.017584	1.452063
C85	C	1.374689	-0.490025	1.066372
C86	C	1.874689	0.009975	1.566372
C87	C	1.423365	-0.300388	0.683921
C88	C	1.923365	0.199612	1.183921
C89	C	1.423431	-0.230428	0.683964
C90	C	1.923431	0.269572	1.183964
C91	C	1.457163	-0.446730	0.416629
C92	C	1.957163	0.053270	0.916629
C93	C	1.471861	-0.438960	0.302346
C94	C	1.971861	0.061040	0.802346
C95	C	1.430763	-0.460563	1.125288
C96	C	1.930763	0.039437	1.625288
C97	C	1.415779	-0.468427	1.243432
C98	C	1.915779	0.031573	1.743432
H99	H	1.004653	-0.391486	0.576485
H100	H	1.504653	0.108514	1.076485
O101	O	1.569237	-0.831204	0.570619
O102	O	2.069237	-0.331204	1.070619
C103	C	1.519159	-0.859783	0.496728
C104	C	2.019159	-0.359783	0.996728
H105	H	1.436616	-0.865352	0.523080
H106	H	1.936616	-0.365352	1.023080
H107	H	1.562824	-0.908694	0.488273
H108	H	2.062824	-0.408694	0.988273
H109	H	1.517543	-0.828415	0.419083
H110	H	2.017543	-0.328415	0.919083
O111	O	1.277048	-1.097424	0.797020
O112	O	1.777048	-0.597424	1.297020
C113	C	1.211632	-1.139402	0.847687
C114	C	1.711632	-0.639402	1.347687
H115	H	1.213477	-1.183174	0.805132
H116	H	1.713477	-0.683174	1.305132
H117	H	1.129199	-1.114179	0.848299
H118	H	1.629199	-0.614179	1.348299
H119	H	1.239319	-1.154796	0.930598
H120	H	1.739319	-0.654796	1.430598
O121	O	1.276859	-0.825989	0.796839
O122	O	1.776859	-0.325989	1.296839
C123	C	1.177229	-0.799649	0.761260
C124	C	1.677229	-0.299649	1.261260
H125	H	1.180117	-0.749112	0.721443
H126	H	1.680117	-0.249112	1.221443
H127	H	1.121646	-0.798357	0.829589
H128	H	1.621646	-0.298357	1.329589
H129	H	1.149360	-0.830176	0.703982
H130	H	1.649360	-0.330176	1.203982
H131	H	1.019852	-0.509847	0.750353
H132	H	1.519852	-0.009847	1.250353
O133	O	0.820504	-0.411554	0.606197
O134	O	1.320504	0.088446	1.106197
C135	C	0.843882	-0.352593	0.632146
C136	C	1.343882	0.147407	1.132146
H137	H	0.863080	-0.357500	0.718038
H138	H	1.363080	0.142500	1.218038
H139	H	0.774320	-0.314849	0.614496
H140	H	1.274320	0.185151	1.114496
H141	H	0.913149	-0.337753	0.584889
H142	H	1.413149	0.162247	1.084889
H143	H	1.530960	-0.407908	1.265325
H144	H	2.030960	0.092092	1.765325
H145	H	0.842816	-0.537730	0.791319
H146	H	1.342816	-0.037730	1.291319
H147	H	1.557898	-1.107381	0.579824
H148	H	2.057898	-0.607381	1.079824
H149	H	1.356668	-0.499471	1.280453
H150	H	1.856668	0.000529	1.780453
O151	O	1.501157	-0.423428	1.081156
O152	O	2.001157	0.076572	1.581156
C153	C	1.475463	-0.360488	1.104538
C154	C	1.975463	0.139512	1.604538
H155	H	1.389581	-0.352169	1.123719
H156	H	1.889581	0.147831	1.623719
H157	H	1.493251	-0.325486	1.034984
H158	H	1.993251	0.174514	1.534984
H159	H	1.522779	-0.352912	1.173816
H160	H	2.022779	0.147088	1.673816
H161	H	1.315582	-0.521067	1.103398
H162	H	1.815582	-0.021067	1.603398
O163	O	1.569802	-1.231949	0.570947
O164	O	2.069802	-0.731949	1.070947
C165	C	1.669380	-1.226138	0.606555
C166	C	2.169380	-0.726138	1.106555
H167	H	1.666363	-1.181207	0.646361
H168	H	2.166363	-0.681207	1.146361
H169	H	1.724981	-1.222895	0.538246
H170	H	2.224981	-0.722895	1.038246
H171	H	1.697319	-1.269612	0.663851
H172	H	2.197319	-0.769612	1.163851
O173	O	1.569416	-0.701651	0.570648
O174	O	2.069416	-0.201651	1.070648
C175	C	1.634877	-0.745901	0.520011
C176	C	2.134877	-0.245901	1.020011
H177	H	1.633079	-0.795862	0.562598
H178	H	2.133079	-0.295862	1.062598
H179	H	1.717290	-0.733136	0.519385
H180	H	2.217290	-0.233136	1.019385
H181	H	1.607197	-0.744486	0.437104
H182	H	2.107197	-0.244486	0.937104
H183	H	1.288581	-0.701837	0.787861
H184	H	1.788581	-0.201837	1.287861
H185	H	1.288882	-1.221983	0.788044
H186	H	1.788882	-0.721983	1.288044
