data_functionalizedCrystal
_audit_creation_method	'MofGen! by Chris Wilmer'
_symmetry_space_group_name_H-M	'P1'
_symmetry_Int_Tables_number	1
_symmetry_cell_setting	triclinic
loop_
_symmetry_equiv_pos_as_xyz
  x,y,z
_cell_length_a	12.759401
_cell_length_b	12.759399
_cell_length_c	12.759393
_cell_angle_alpha	89.969094
_cell_angle_beta	90.020566
_cell_angle_gamma	89.986676
loop_
_atom_site_label
_atom_site_type_symbol
_atom_site_fract_x
_atom_site_fract_y
_atom_site_fract_z
Zn1	Zn	-1.606263	-0.418266	-0.594007
Zn2	Zn	-1.272930	-0.084932	-0.260673
Zn3	Zn	-0.939597	0.248401	0.072660
Zn4	Zn	-1.606153	-0.593981	-0.418326
Zn5	Zn	-1.272820	-0.260648	-0.084992
Zn6	Zn	-0.939486	0.072685	0.248341
Zn7	Zn	-1.430562	-0.418311	-0.418343
Zn8	Zn	-1.097229	-0.084978	-0.085010
Zn9	Zn	-0.763895	0.248355	0.248324
Zn10	Zn	-1.430553	-0.593898	-0.593964
Zn11	Zn	-1.097219	-0.260564	-0.260631
Zn12	Zn	-0.763886	0.072769	0.072703
O13	O	-1.518383	-0.506114	-0.506160
O14	O	-1.185049	-0.172781	-0.172826
O15	O	-0.851716	0.160553	0.160507
O16	O	-1.753270	-0.441591	-0.570713
O17	O	-1.419936	-0.108257	-0.237379
O18	O	-1.086603	0.225076	0.095954
O19	O	-1.582818	-0.570732	-0.271307
O20	O	-1.249485	-0.237399	0.062027
O21	O	-0.916152	0.095934	0.395360
O22	O	-1.453919	-0.271284	-0.441670
O23	O	-1.120586	0.062049	-0.108337
O24	O	-0.787253	0.395382	0.224996
O25	O	-1.753189	-0.570688	-0.441641
O26	O	-1.419855	-0.237355	-0.108307
O27	O	-1.086522	0.095979	0.225026
O28	O	-1.583006	-0.271251	-0.570730
O29	O	-1.249673	0.062083	-0.237396
O30	O	-0.916340	0.395416	0.095937
O31	O	-1.453812	-0.441669	-0.271320
O32	O	-1.120479	-0.108335	0.062014
O33	O	-0.787146	0.224998	0.395347
O34	O	-1.283540	-0.441587	-0.441629
O35	O	-0.950206	-0.108254	-0.108296
O36	O	-0.616873	0.225079	0.225038
O37	O	-1.453903	-0.570546	-0.740991
O38	O	-1.120570	-0.237212	-0.407657
O39	O	-0.787237	0.096121	-0.074324
O40	O	-1.283533	-0.570590	-0.570657
O41	O	-0.950200	-0.237257	-0.237323
O42	O	-0.616866	0.096077	0.096010
O43	O	-1.582997	-0.441510	-0.741022
O44	O	-1.249664	-0.108176	-0.407689
O45	O	-0.916330	0.225157	-0.074355
O46	O	-1.582809	-0.740991	-0.441599
O47	O	-1.249476	-0.407658	-0.108266
O48	O	-0.916143	-0.074325	0.225068
O49	O	-1.453796	-0.740930	-0.570640
O50	O	-1.120463	-0.407596	-0.237307
O51	O	-0.787130	-0.074263	0.096027
C52	C	-1.245415	-0.506085	-0.506141
C53	C	-0.912082	-0.172752	-0.172807
C54	C	-0.578749	0.160581	0.160526
C55	C	-1.128639	-0.506098	-0.506157
C56	C	-0.795305	-0.172765	-0.172824
C57	C	-0.461972	0.160568	0.160509
C58	C	-1.073820	-0.438997	-0.573468
C59	C	-0.740486	-0.105663	-0.240135
C60	C	-0.407153	0.227670	0.093199
C61	C	-0.964096	-0.439003	-0.573473
C62	C	-0.630762	-0.105670	-0.240140
C63	C	-0.297429	0.227664	0.093193
C64	C	-0.964020	-0.573222	-0.438854
C65	C	-0.630686	-0.239889	-0.105521
C66	C	-0.297353	0.093445	0.227812
C67	C	-1.073742	-0.573210	-0.438845
C68	C	-0.740408	-0.239876	-0.105511
C69	C	-0.407075	0.093457	0.227822
C70	C	-1.518318	-0.779081	-0.506136
C71	C	-1.184985	-0.445748	-0.172803
C72	C	-0.851652	-0.112415	0.160531
C73	C	-1.518387	-0.895858	-0.506161
C74	C	-1.185054	-0.562525	-0.172827
C75	C	-0.851720	-0.229191	0.160506
C76	C	-0.792416	-0.506134	-0.506176
C77	C	-0.459083	-0.172800	-0.172842
C78	C	-0.125749	0.160533	0.160491
C79	C	-0.909193	-0.506117	-0.506172
C80	C	-0.575859	-0.172784	-0.172839
C81	C	-0.242526	0.160549	0.160494
C82	C	-1.585641	-0.950717	-0.439046
C83	C	-1.252307	-0.617384	-0.105712
C84	C	-0.918974	-0.284050	0.227621
C85	C	-1.585708	-1.060441	-0.439081
C86	C	-1.252375	-0.727108	-0.105748
C87	C	-0.919041	-0.393774	0.227586
C88	C	-1.451259	-1.060437	-0.573349
C89	C	-1.117926	-0.727104	-0.240016
C90	C	-0.784592	-0.393771	0.093317
C91	C	-1.451198	-0.950715	-0.573319
C92	C	-1.117864	-0.617382	-0.239985
C93	C	-0.784531	-0.284049	0.093348
C94	C	-1.518461	-0.506013	-0.780193
C95	C	-1.185128	-0.172680	-0.446860
C96	C	-0.851795	0.160654	-0.113527
C97	C	-1.518495	-0.505970	-0.896970
C98	C	-1.185162	-0.172637	-0.563637
C99	C	-0.851828	0.160696	-0.230303
C100	C	-1.518476	-0.232081	-0.506207
C101	C	-1.185143	0.101253	-0.172873
C102	C	-0.851809	0.434586	0.160460
C103	C	-1.518516	-0.115304	-0.506227
C104	C	-1.185182	0.218029	-0.172893
C105	C	-0.851849	0.551363	0.160440
C106	C	-1.585719	-0.438770	-0.951850
C107	C	-1.252386	-0.105437	-0.618517
C108	C	-0.919052	0.227896	-0.285183
C109	C	-1.585737	-0.438725	-1.061574
C110	C	-1.252403	-0.105392	-0.728241
C111	C	-0.919070	0.227942	-0.394907
C112	C	-1.451303	-0.573088	-1.061529
C113	C	-1.117970	-0.239755	-0.728195
C114	C	-0.784637	0.093578	-0.394862
C115	C	-1.451281	-0.573128	-0.951806
C116	C	-1.117948	-0.239794	-0.618473
C117	C	-0.784614	0.093539	-0.285140
C118	C	-1.518365	-0.506139	-0.233192
C119	C	-1.185032	-0.172805	0.100141
C120	C	-0.851698	0.160528	0.433474
C121	C	-1.518535	-0.505886	-0.116416
C122	C	-1.185202	-0.172552	0.216917
C123	C	-0.851868	0.160781	0.550250
H124	H	-0.919467	-0.384361	-0.628283
H125	H	-0.586133	-0.051027	-0.294949
H126	H	-0.252800	0.282306	0.038384
H127	H	-1.396583	-0.627768	-1.106190
H128	H	-1.063249	-0.294435	-0.772856
H129	H	-0.729916	0.038899	-0.439523
Cl130	Cl	-1.670212	-0.354340	-0.882916
Cl131	Cl	-1.336879	-0.021007	-0.549583
Cl132	Cl	-1.003545	0.312327	-0.216250
H133	H	-1.396532	-0.627849	-0.907122
H134	H	-1.063198	-0.294516	-0.573789
H135	H	-0.729865	0.038818	-0.240455
H136	H	-1.640474	-1.105102	-0.384430
H137	H	-1.307141	-0.771769	-0.051097
H138	H	-0.973808	-0.438436	0.282236
H139	H	-1.118514	-0.384347	-0.628275
H140	H	-0.785180	-0.051014	-0.294942
H141	H	-0.451847	0.282320	0.038391
Cl142	Cl	-1.670109	-0.881757	-0.354622
Cl143	Cl	-1.336776	-0.548424	-0.021288
Cl144	Cl	-1.003443	-0.215091	0.312045
Cl145	Cl	-0.894998	-0.657589	-0.354241
Cl146	Cl	-0.561665	-0.324256	-0.020908
Cl147	Cl	-0.228332	0.009077	0.312426
H148	H	-1.396432	-0.906046	-0.627977
H149	H	-1.063098	-0.572713	-0.294643
H150	H	-0.729765	-0.239379	0.038690
Cl151	Cl	-1.142662	-0.657562	-0.354208
Cl152	Cl	-0.809329	-0.324229	-0.020874
Cl153	Cl	-0.475996	0.009104	0.312459
Cl154	Cl	-1.366794	-1.129408	-0.657768
Cl155	Cl	-1.033461	-0.796075	-0.324435
Cl156	Cl	-0.700128	-0.462742	0.008899
H157	H	-1.640476	-0.384003	-1.106253
H158	H	-1.307142	-0.050669	-0.772919
H159	H	-0.973809	0.282664	-0.439586
