data_functionalizedCrystal
_audit_creation_method	'MofGen! by Chris Wilmer'
_symmetry_space_group_name_H-M	'P1'
_symmetry_Int_Tables_number	1
_symmetry_cell_setting	triclinic
loop_
_symmetry_equiv_pos_as_xyz
  x,y,z
_cell_length_a	33.510554
_cell_length_b	33.509711
_cell_length_c	33.506470
_cell_angle_alpha	60.004186
_cell_angle_beta	60.008358
_cell_angle_gamma	59.994760
loop_
_atom_site_label
_atom_site_type_symbol
_atom_site_fract_x
_atom_site_fract_y
_atom_site_fract_z
O1	O	0.055430	-0.583081	0.487524
O2	O	0.020931	-0.453975	0.392819
O3	O	0.102693	-0.535652	0.392731
O4	O	-0.026332	-0.501404	0.487613
O5	O	0.129823	-0.508526	0.419767
O6	O	0.048062	-0.426850	0.419856
O7	O	0.082561	-0.555956	0.514561
Cu8	Cu	0.067789	-0.488926	0.469677
Cu9	Cu	0.035703	-0.521005	0.437703
O10	O	0.000799	-0.474279	0.514649
N11	N	0.090357	-0.466366	0.492168
N12	N	0.013139	-0.543569	0.415212
C13	C	0.143028	-0.279707	0.544737
C14	C	0.143165	-0.413746	0.678712
C15	C	0.143043	-0.413725	0.544739
C16	C	0.277090	-0.413694	0.544637
C17	C	0.157791	-0.323929	0.559462
C18	C	0.157869	-0.398994	0.634489
C19	C	0.232865	-0.398963	0.559407
C20	C	0.157801	-0.398982	0.559463
C21	C	0.124237	-0.223419	0.525994
C22	C	0.124262	-0.432490	0.525997
C23	C	0.176583	-0.380217	0.578205
C24	C	0.358938	-0.399566	0.501510
C25	C	0.410104	-0.416609	0.484423
C26	C	0.410135	-0.499402	0.515995
C27	C	0.358969	-0.482358	0.533084
C28	C	0.136554	-0.197822	0.475693
C29	C	0.119469	-0.146653	0.458657
C30	C	0.077755	-0.146680	0.542223
C31	C	0.094840	-0.197850	0.559260
C32	C	0.073954	-0.420144	0.538396
C33	C	0.056884	-0.437203	0.521352
C34	C	0.140427	-0.478952	0.479524
C35	C	0.157498	-0.461894	0.496561
C36	C	0.074158	-0.420182	0.760618
C37	C	0.057149	-0.437256	0.811786
C38	C	0.140732	-0.479014	0.811717
C39	C	0.157740	-0.461942	0.760547
C40	C	0.124452	-0.432525	0.734999
C41	C	0.333372	-0.432439	0.525839
C42	C	-0.020612	-0.577650	0.170305
C43	C	-0.020943	-0.788098	0.380897
C44	C	-0.020912	-0.577638	0.380991
C45	C	-0.231336	-0.577418	0.380585
C46	C	-0.129735	-0.611383	0.346870
C47	C	-0.054722	-0.611464	0.347017
C48	C	-0.073450	-0.630202	0.328195
C49	C	-0.087616	-0.712029	0.371239
C50	C	-0.070599	-0.763199	0.388315
C51	C	0.012191	-0.763282	0.356872
C52	C	-0.004828	-0.712113	0.339795
C53	C	-0.155381	-0.623711	0.397158
C54	C	-0.206547	-0.606601	0.414133
C55	C	-0.206417	-0.564839	0.330529
C56	C	-0.155251	-0.581949	0.313554
C57	C	-0.067051	-0.561160	0.334643
C58	C	-0.050026	-0.544131	0.351759
C59	C	-0.008343	-0.627704	0.393612
C60	C	-0.025368	-0.644736	0.376502
C61	C	-0.066922	-0.561168	0.246303
C62	C	-0.049794	-0.544141	0.195134
C63	C	-0.008048	-0.627719	0.195183
C64	C	-0.025175	-0.644745	0.246352
C65	C	-0.054614	-0.611468	0.271911
C66	C	-0.054732	-0.686488	0.346980
C67	C	-0.002117	-0.558258	0.114025
C68	C	-0.002879	-0.844379	0.399940
C69	C	-0.002504	-0.558243	0.399473
C70	C	-0.287615	-0.558285	0.398601
N71	N	0.434975	-0.466279	0.491900
O72	O	0.591199	-0.470749	0.375150
O73	O	0.591395	-0.565767	0.504116
O74	O	0.591311	-0.565550	0.422329
O75	O	0.591283	-0.470966	0.456937
O76	O	0.510024	-0.538522	0.449509
O77	O	0.510108	-0.538739	0.531297
O78	O	0.509913	-0.443721	0.402330
Cu79	Cu	0.502588	-0.488762	0.469295
Cu80	Cu	0.598719	-0.520726	0.437151
O81	O	0.509997	-0.443938	0.484117
N82	N	0.666332	-0.543209	0.414541
N83	N	0.090323	-0.121809	0.492157
O84	O	-0.026342	0.034503	0.487582
O85	O	0.102626	0.034543	0.392540
O86	O	0.020797	0.034507	0.392812
O87	O	0.055487	0.034539	0.487310
O88	O	0.047933	-0.046785	0.419900
O89	O	0.129763	-0.046749	0.419628
O90	O	0.000794	-0.046789	0.514670
Cu91	Cu	0.067756	-0.054192	0.469623
Cu92	Cu	0.035664	0.041946	0.437588
O93	O	0.082623	-0.046753	0.514399
N94	N	0.013091	0.109564	0.415054
N95	N	0.090671	-0.466416	0.836606
O96	O	0.086120	-0.583065	0.992910
O97	O	-0.008880	-0.454051	0.992954
O98	O	-0.008658	-0.535864	0.992931
O99	O	0.085897	-0.501252	0.992933
O100	O	0.018407	-0.508749	0.911642
O101	O	0.018185	-0.426936	0.911665
O102	O	0.113185	-0.555949	0.911621
Cu103	Cu	0.068156	-0.488967	0.904221
Cu104	Cu	0.036148	-0.521034	1.000355
O105	O	0.112963	-0.474136	0.911644
N106	N	0.013633	-0.543590	1.067970
C107	C	0.031262	-0.424144	0.393290
C108	C	0.132513	-0.525291	0.393180
C109	C	0.072229	-0.585787	0.514090
C110	C	-0.029022	-0.484640	0.514200
C111	C	0.550775	-0.565338	0.533954
C112	C	0.550672	-0.565070	0.432670
C113	C	0.550530	-0.444149	0.372492
C114	C	0.550635	-0.444418	0.473776
C115	C	0.132408	-0.005998	0.392963
C116	C	0.031106	-0.006142	0.393333
C117	C	-0.029021	-0.006147	0.514213
C118	C	0.072314	-0.006104	0.513878
C119	C	-0.008430	-0.424240	0.952316
C120	C	-0.008150	-0.525550	0.952271
C121	C	0.112735	-0.585760	0.952260
C122	C	0.112461	-0.484444	0.952286
H123	H	0.047048	-0.396226	0.739820
O124	O	0.176718	-0.534073	0.357649
C125	C	0.185451	-0.573621	0.346356
H126	H	0.162617	-0.597110	0.378683
H127	H	0.225859	-0.596635	0.338415
H128	H	0.174939	-0.559099	0.312839
O129	O	0.147962	-0.475646	0.952214
C130	C	0.189157	-0.481058	0.910097
H131	H	0.188769	-0.505573	0.896057
H132	H	0.223857	-0.498301	0.919553
H133	H	0.188159	-0.443676	0.880625
H134	H	-0.015148	-0.685706	0.267200
H135	H	-0.066059	-0.006159	0.544050
O136	O	0.081093	-0.630066	0.549516
C137	C	0.129130	-0.660372	0.531775
H138	H	0.142013	-0.647049	0.490143
H139	H	0.129800	-0.699553	0.546706
H140	H	0.154423	-0.659021	0.544131
O141	O	0.148364	-0.629925	0.952157
C142	C	0.189539	-0.623473	0.910059
H143	H	0.177746	-0.587679	0.880643
H144	H	0.207036	-0.655176	0.895915
H145	H	0.217130	-0.622346	0.919577
H146	H	0.016194	-0.427197	0.832639
O147	O	0.550821	-0.600974	0.578120
C148	C	0.550863	-0.643061	0.578100
H149	H	0.535435	-0.632233	0.549180
H150	H	0.527311	-0.661378	0.615579
H151	H	0.589874	-0.669602	0.569524
O152	O	0.550707	-0.600580	0.423913
C153	C	0.550764	-0.642768	0.465874
H154	H	0.566179	-0.642341	0.489192
H155	H	0.574375	-0.676692	0.454393
H156	H	0.511784	-0.643387	0.487967
O157	O	0.550478	-0.408618	0.328274
C158	C	0.550443	-0.426212	0.297869
H159	H	0.565878	-0.467846	0.311081
H160	H	0.573991	-0.411197	0.258704
H161	H	0.511432	-0.413822	0.299237
H162	H	0.550629	-0.414708	0.481180
H163	H	-0.037843	-0.532946	0.952238
H164	H	0.079744	-0.006095	0.543566
O165	O	-0.043954	-0.379997	0.952266
C166	C	-0.027263	-0.343146	0.910165
H167	H	0.014398	-0.356588	0.896121
H168	H	-0.041554	-0.309044	0.919644
H169	H	-0.041137	-0.334006	0.880687
O170	O	0.173134	-0.507600	0.836459
C171	C	0.221173	-0.514823	0.802875
H172	H	0.221047	-0.509093	0.766410
H173	H	0.245488	-0.553631	0.817633
H174	H	0.235830	-0.487587	0.797428
O175	O	-0.073249	-0.475850	0.549700
C176	C	-0.103635	-0.427830	0.532037
H177	H	-0.080106	-0.404613	0.500640
H178	H	-0.127042	-0.411467	0.562711
H179	H	-0.128327	-0.428578	0.518477
H180	H	0.169370	-0.005761	0.363053
H181	H	0.023891	-0.387055	0.363546
H182	H	0.198696	-0.471996	0.739692
H183	H	0.046887	-0.396202	0.562361
O184	O	-0.130570	-0.652372	0.429499
C185	C	-0.100975	-0.697878	0.422161
H186	H	-0.116363	-0.704896	0.403548
H187	H	-0.100453	-0.728072	0.458936
H188	H	-0.062179	-0.697466	0.398066
H189	H	0.015920	-0.427139	0.531437
H190	H	0.023675	-0.006147	0.363643
H191	H	0.198463	-0.471942	0.486461
O192	O	0.172739	-0.507444	0.450861
C193	C	0.202295	-0.481593	0.407944
H194	H	0.182519	-0.440658	0.400848
H195	H	0.210009	-0.490739	0.375713
H196	H	0.238255	-0.492479	0.412567
O197	O	0.334163	-0.514305	0.556636
C198	C	0.346659	-0.538269	0.525322
H199	H	0.360688	-0.514960	0.485711
H200	H	0.313011	-0.544035	0.531387
H201	H	0.376381	-0.575189	0.533548
O202	O	0.435075	-0.547874	0.522970
C203	C	0.485718	-0.555869	0.502681
H204	H	0.492679	-0.520649	0.473352
H205	H	0.505157	-0.585762	0.485672
H206	H	0.500269	-0.567660	0.532613
H207	H	0.338097	-0.358917	0.495611
O208	O	0.434866	-0.384607	0.460778
C209	C	0.401303	-0.336893	0.458057
H210	H	0.364821	-0.334907	0.461439
H211	H	0.416059	-0.309847	0.421482
H212	H	0.395891	-0.327341	0.489050
H213	H	0.160490	-0.218637	0.448603
H214	H	0.053825	-0.125861	0.569312
O215	O	0.131492	-0.121860	0.409777
C216	C	0.161093	-0.155401	0.384070
H217	H	0.179728	-0.191876	0.408453
H218	H	0.190014	-0.140599	0.349907
H219	H	0.137472	-0.160852	0.373063
H220	H	-0.059824	-0.503179	0.174290
O221	O	0.082933	-0.222678	0.608129
C222	C	0.100445	-0.210143	0.629340
H223	H	0.131987	-0.196070	0.600182
H224	H	0.113756	-0.243785	0.659499
H225	H	0.069754	-0.180439	0.645493
O226	O	-0.095442	-0.528826	0.271113
C227	C	-0.069596	-0.499274	0.258652
H228	H	-0.028662	-0.519068	0.244638
H229	H	-0.078785	-0.491536	0.292314
H230	H	-0.080443	-0.463322	0.228927
O231	O	0.020553	-0.660111	0.170434
C232	C	0.027729	-0.708158	0.204012
H233	H	0.021963	-0.708057	0.240502
H234	H	0.066534	-0.732490	0.189285
H235	H	0.000494	-0.722780	0.209400
H236	H	-0.090949	-0.534065	0.310634
H237	H	-0.060067	-0.503170	0.341685
H238	H	0.015562	-0.654800	0.417614
H239	H	0.021953	-0.691318	0.320042
O240	O	-0.013329	-0.693616	0.388545
C241	C	0.016220	-0.719333	0.418248
H242	H	0.034825	-0.694957	0.411764
H243	H	0.045167	-0.753500	0.408690
H244	H	-0.007435	-0.730337	0.458307
H245	H	0.052828	-0.784146	0.351024
O246	O	-0.102608	-0.787933	0.411857
C247	C	-0.126551	-0.775429	0.380520
H248	H	-0.125303	-0.738312	0.351356
H249	H	-0.166231	-0.773598	0.402617
H250	H	-0.107482	-0.804266	0.362249
O251	O	-0.136071	-0.687079	0.378124
C252	C	-0.142949	-0.657497	0.332414
H253	H	-0.107742	-0.649878	0.303952
H254	H	-0.173654	-0.621490	0.335321
H255	H	-0.153014	-0.677199	0.321006
H256	H	-0.227429	-0.616637	0.455084
H257	H	-0.134369	-0.571905	0.272603
O258	O	-0.231131	-0.536240	0.298102
C259	C	-0.197523	-0.529047	0.250074
H260	H	-0.161065	-0.534800	0.250228
H261	H	-0.212257	-0.490239	0.225747
H262	H	-0.192071	-0.556284	0.235409
