data_functionalizedCrystal
_audit_creation_method	'MofGen! by Chris Wilmer'
_symmetry_space_group_name_H-M	'P1'
_symmetry_Int_Tables_number	1
_symmetry_cell_setting	triclinic
loop_
_symmetry_equiv_pos_as_xyz
  x,y,z
_cell_length_a	17.699083
_cell_length_b	17.699083
_cell_length_c	16.176319
_cell_angle_alpha	89.992304
_cell_angle_beta	89.998611
_cell_angle_gamma	83.283015
loop_
_atom_site_label
_atom_site_type_symbol
_atom_site_fract_x
_atom_site_fract_y
_atom_site_fract_z
O1	O	1.004079	0.095713	-0.068632
O2	O	0.783700	0.108166	-0.068660
O3	O	0.900116	-0.008250	-0.068638
O4	O	0.887663	0.212129	-0.068654
O5	O	0.900100	-0.008257	0.068855
O6	O	0.783684	0.108158	0.068834
O7	O	1.004063	0.095706	0.068861
Cu8	Cu	0.893872	0.101931	0.081401
Cu9	Cu	0.893891	0.101940	-0.081200
O10	O	0.887647	0.212121	0.068839
C11	C	0.755495	0.107716	0.000084
C12	C	0.671477	0.106377	0.000073
C13	C	0.622856	0.174710	0.000069
C14	C	0.543913	0.173448	0.000079
C15	C	0.513592	0.103852	0.000089
C16	C	0.562219	0.035513	0.000096
C17	C	0.641161	0.036776	0.000091
C18	C	0.243856	0.030418	0.000117
C19	C	0.164908	0.029160	0.000120
C20	C	0.146608	0.167090	0.000105
C21	C	0.225550	0.168353	0.000100
C22	C	0.274170	0.100015	0.000112
C23	C	0.359769	0.101384	0.000102
C24	C	0.427995	0.102481	0.000093
C25	C	0.899662	-0.036451	0.000109
C26	C	0.898323	-0.120469	0.000109
C27	C	0.966656	-0.169090	0.000119
C28	C	0.965394	-0.248033	0.000111
C29	C	0.895798	-0.278354	0.000100
C30	C	0.827459	-0.229727	0.000088
C31	C	0.828722	-0.150785	0.000089
C32	C	0.822364	-0.548090	0.000080
C33	C	0.821106	-0.627038	0.000081
C34	C	0.959036	-0.645338	0.000102
C35	C	0.960299	-0.566396	0.000104
C36	C	0.891961	-0.517776	0.000087
C37	C	0.893330	-0.432177	0.000094
C38	C	0.894427	-0.363951	0.000099
C39	C	1.032268	0.096156	0.000116
C40	C	1.116286	0.097494	0.000121
C41	C	0.888102	0.240322	0.000091
C42	C	0.889440	0.324340	0.000085
N43	N	0.893864	0.101925	0.195767
N44	N	0.893905	0.101941	-0.195565
C45	C	0.945429	0.050397	0.239040
C46	C	0.945432	0.050396	0.325588
C47	C	0.893875	0.101927	0.368859
C48	C	0.842305	0.153457	0.325579
C49	C	0.842299	0.153454	0.239034
C50	C	0.842331	0.153472	0.674608
C51	C	0.842344	0.153473	0.761159
C52	C	0.945465	0.050414	0.761161
C53	C	0.945458	0.050410	0.674616
C54	C	0.893886	0.101937	0.631344
C55	C	0.893882	0.101937	0.537499
C56	C	0.893883	0.101932	0.462702
H57	H	0.250232	0.225025	0.000089
C58	C	0.490430	0.248613	0.000066
H59	H	0.439072	0.237895	0.000078
H60	H	0.499606	0.277154	-0.047888
H61	H	0.499609	0.277158	0.048012
C62	C	0.785626	0.210167	0.627015
H63	H	0.793001	0.202787	0.569274
H64	H	0.793766	0.260664	0.641197
H65	H	0.735124	0.202021	0.641202
H66	H	0.800323	0.195413	0.360816
C67	C	0.093124	0.242262	0.000103
H68	H	0.041766	0.231546	0.000117
H69	H	0.102299	0.270807	-0.047848
H70	H	0.102306	0.270802	0.048052
C71	C	1.002141	-0.006289	0.191449
H72	H	1.032846	-0.036982	0.229620
H73	H	1.033593	0.020894	0.157677
H74	H	0.974968	-0.037766	0.157700
H75	H	1.016971	-0.541714	0.000117
C76	C	0.753558	-0.097298	0.000078
H77	H	0.764277	-0.045941	0.000072
H78	H	0.725004	-0.106478	0.048019
H79	H	0.725024	-0.106472	-0.047880
C80	C	0.656206	0.251266	0.000055
H81	H	0.710185	0.242234	0.000045
H82	H	0.639510	0.279395	0.048000
H83	H	0.639505	0.279395	-0.047900
C84	C	0.785581	0.210137	0.191433
H85	H	0.754881	0.240833	0.229597
H86	H	0.754126	0.182949	0.157680
H87	H	0.812749	0.241611	0.157663
C88	C	0.750902	-0.263074	0.000069
H89	H	0.710386	-0.222808	0.000054
H90	H	0.747532	-0.293495	0.048013
H91	H	0.747553	-0.293481	-0.047886
C92	C	1.034210	-0.698819	0.000111
H93	H	1.075838	-0.669453	0.000127
H94	H	1.036595	-0.729989	-0.047836
H95	H	1.036577	-0.730000	0.048063
H96	H	0.800357	0.195437	0.796390
H97	H	0.764429	-0.651721	0.000074
C98	C	0.528869	-0.041041	0.000105
H99	H	0.474890	-0.032008	0.000099
H100	H	0.545567	-0.069176	0.048053
H101	H	0.545567	-0.069166	-0.047847
H102	H	1.023330	-0.144409	0.000133
C103	C	1.040561	-0.301513	0.000130
H104	H	1.082190	-0.272149	0.000149
H105	H	1.042949	-0.332684	-0.047816
H106	H	1.042924	-0.332692	0.048084
C107	C	1.002187	-0.006274	0.808763
H108	H	0.994804	0.001100	0.866504
H109	H	1.052680	0.001883	0.794572
H110	H	0.994057	-0.056780	0.794586
C111	C	0.131553	-0.047398	0.000133
H112	H	0.077575	-0.038359	0.000124
H113	H	0.148247	-0.075530	0.048083
H114	H	0.148251	-0.075527	-0.047817
C115	C	0.297328	-0.044751	0.000124
H116	H	0.267962	-0.086379	0.000122
H117	H	0.328505	-0.047130	0.048070
H118	H	0.328503	-0.047125	-0.047830
H119	H	0.680748	-0.018868	0.000095
H120	H	0.766718	-0.508512	0.000067
H121	H	0.987419	0.008438	0.360821
H122	H	0.987444	0.008451	0.639387
