data_functionalizedCrystal
_audit_creation_method	'MofGen! by Chris Wilmer'
_symmetry_space_group_name_H-M	'P1'
_symmetry_Int_Tables_number	1
_symmetry_cell_setting	triclinic
loop_
_symmetry_equiv_pos_as_xyz
  x,y,z
_cell_length_a	10.685980
_cell_length_b	12.645330
_cell_length_c	10.686551
_cell_angle_alpha	85.595904
_cell_angle_beta	81.591741
_cell_angle_gamma	94.384560
loop_
_atom_site_label
_atom_site_type_symbol
_atom_site_fract_x
_atom_site_fract_y
_atom_site_fract_z
Zn1	Zn	1.995775	-0.237610	-0.866711
Zn2	Zn	1.979342	-0.429657	-0.654453
Zn3	Zn	1.767200	-0.267115	-0.638176
Zn4	Zn	1.783466	-0.429554	-0.850363
O5	O	1.881446	-0.340984	-0.752425
O6	O	2.171229	-0.250780	-0.852208
O7	O	1.937516	-0.420487	-0.474662
O8	O	1.797592	-0.114847	-0.668521
O9	O	2.159156	-0.391877	-0.696262
O10	O	1.965524	-0.093170	-0.836425
O11	O	1.781657	-0.301068	-0.462703
O12	O	1.591724	-0.300968	-0.652670
O13	O	1.825313	-0.391701	-1.030163
O14	O	1.603674	-0.420311	-0.808562
O15	O	1.981296	-0.250680	-1.042174
O16	O	1.953288	-0.577997	-0.680411
O17	O	1.809379	-0.577921	-0.824345
C18	C	1.551640	-0.363831	-0.727077
C19	C	1.410550	-0.373628	-0.716262
C20	C	1.881352	-0.616421	-0.752401
C21	C	1.881431	-0.734244	-0.752441
C22	C	1.791325	-0.901755	-0.843324
C23	C	1.790801	-0.779252	-0.842969
C24	C	1.834947	-0.790645	-0.615888
C25	C	1.834396	-0.913243	-0.616440
C26	C	2.018535	-0.889626	-0.797073
C27	C	2.017936	-0.766873	-0.799935
C28	C	2.212539	-0.318049	-0.777874
C29	C	2.353631	-0.308275	-0.788719
C30	C	1.906952	-0.317888	-1.083514
C31	C	1.917821	-0.308046	-1.224604
C32	C	1.881577	-0.064467	-0.752481
C33	C	1.881633	0.053369	-0.752504
C34	C	1.856112	-0.363908	-0.422630
C35	C	1.845488	-0.373435	-0.281560
H36	H	1.821074	-0.740634	-0.943900
O37	O	1.432041	-0.224220	-0.881854
H38	H	1.497409	-0.263101	-0.950926
H39	H	2.052804	-0.728988	-0.900481
O40	O	2.010856	-0.223891	-1.302980
H41	H	2.005069	-0.229091	-1.405216
H42	H	1.821415	-0.922695	-0.944565
H43	H	1.351336	-0.437079	-0.645945
H44	H	2.089585	-0.735517	-0.739422
H45	H	1.775249	-0.436949	-1.222384
H46	H	1.689515	-0.758496	-0.812630
O47	O	1.658007	-0.953816	-0.803575
H48	H	1.658344	-1.041156	-0.808472
O49	O	1.701435	-0.962950	-0.568018
H50	H	1.635398	-0.932831	-0.630706
O51	O	1.916980	-0.953257	-0.523002
H52	H	1.957125	-0.885038	-0.477615
O53	O	1.918694	-0.752616	-0.523191
H54	H	1.994515	-0.692967	-0.573584
H55	H	2.058932	-0.911516	-0.895498
O56	O	1.703280	-0.761748	-0.566859
H57	H	1.636792	-0.787748	-0.631455
O58	O	2.107915	-0.928136	-0.709840
H59	H	2.055160	-0.987555	-0.635079
