data_functionalizedCrystal
_audit_creation_method	'MofGen! by Chris Wilmer'
_symmetry_space_group_name_H-M	'P1'
_symmetry_Int_Tables_number	1
_symmetry_cell_setting	triclinic
loop_
_symmetry_equiv_pos_as_xyz
  x,y,z
_cell_length_a	16.974959
_cell_length_b	16.992694
_cell_length_c	15.455321
_cell_angle_alpha	92.866245
_cell_angle_beta	89.024386
_cell_angle_gamma	92.971704
loop_
_atom_site_label
_atom_site_type_symbol
_atom_site_fract_x
_atom_site_fract_y
_atom_site_fract_z
O1	O	0.170343	-1.037351	0.060082
O2	O	0.168511	-0.809060	0.060236
O3	O	0.055088	-0.929179	0.068168
O4	O	0.283765	-0.917232	0.052150
O5	O	0.048625	-0.936041	-0.075642
O6	O	0.162048	-0.815922	-0.083574
O7	O	0.163880	-1.044213	-0.083728
Cu8	Cu	0.162374	-0.930694	-0.096782
Cu9	Cu	0.170017	-0.922579	0.073290
O10	O	0.277302	-0.924094	-0.091660
C11	C	0.162921	-0.783273	-0.011501
C12	C	0.155884	-0.696212	-0.010998
N13	N	0.156998	-0.936407	-0.216402
C14	C	0.022461	-0.932025	-0.001676
C15	C	-0.065129	-0.930274	0.004465
C16	C	-0.557792	-0.920079	0.047546
C17	C	-0.475491	-0.921718	0.041757
C18	C	-0.437880	-0.926272	-0.039528
C19	C	-0.482575	-0.929194	-0.115030
C20	C	-0.564874	-0.927561	-0.109241
C21	C	-0.192123	-0.931563	-0.065247
C22	C	-0.109817	-0.933194	-0.071031
C23	C	-0.102740	-0.925719	0.085757
C24	C	-0.185040	-0.924081	0.091539
C25	C	-0.229728	-0.927008	0.016037
N26	N	-0.353756	-0.927945	-0.045446
N27	N	-0.313851	-0.925340	0.021956
C28	C	0.309930	-0.921248	-0.021815
C29	C	0.397520	-0.922999	-0.027951
C30	C	0.169470	-1.070000	-0.011990
C31	C	0.176507	-1.157061	-0.012487
C32	C	0.223784	-0.646130	-0.015755
C33	C	0.217167	-0.564328	-0.015303
C34	C	0.142649	-0.532610	-0.010089
C35	C	0.074743	-0.582699	-0.005334
C36	C	0.081361	-0.664499	-0.005792
C37	C	0.115220	-0.288949	-0.008190
C38	C	0.108607	-0.207143	-0.007730
C39	C	0.251031	-0.188778	-0.017701
C40	C	0.257643	-0.270581	-0.018154
C41	C	0.189737	-0.320662	-0.013403
N42	N	0.135883	-0.448996	-0.009624
N43	N	0.196503	-0.404275	-0.013874
N44	N	0.175387	-0.916872	0.192909
C45	C	0.205078	-0.885279	0.734840
C46	C	0.201022	-0.889602	0.644316
C47	C	0.148881	-0.945050	0.602552
C48	C	0.100799	-0.996183	0.651316
C49	C	0.104859	-0.991864	0.741838
C50	C	0.131366	-0.963686	0.332196
C51	C	0.127307	-0.968000	0.241667
C52	C	0.227532	-0.861419	0.234673
C53	C	0.231584	-0.857101	0.325198
C54	C	0.183505	-0.908238	0.373954
N55	N	0.144731	-0.949468	0.510022
N56	N	0.187659	-0.903823	0.466482
H57	H	-0.588408	-0.916363	0.113737
H58	H	0.026069	-0.705275	-0.001918
C59	C	-0.053584	-0.922510	0.168801
H60	H	0.000817	-0.924142	0.153715
H61	H	-0.062491	-0.875021	0.201753
H62	H	-0.068744	-0.966405	0.202164
H63	H	-0.228497	-0.933947	-0.126726
C64	C	-0.068443	-0.938209	-0.160446
H65	H	-0.013028	-0.938753	-0.153077
H66	H	-0.086506	-0.985168	-0.191495
H67	H	-0.080261	-0.893784	-0.191922
C68	C	-0.614034	-0.930772	-0.192284
H69	H	-0.668435	-0.929154	-0.177195
H70	H	-0.598879	-0.886887	-0.225656
H71	H	-0.605125	-0.978270	-0.225228
C72	C	0.078473	-1.019926	0.385817
H73	H	0.046833	-1.053559	0.347977
H74	H	0.110541	-1.050894	0.418994
H75	H	0.045397	-0.990017	0.423555
H76	H	0.318324	-0.296399	-0.022390
H77	H	0.272459	-0.523554	-0.019176
C78	C	0.040527	-0.344028	-0.002960
H79	H	-0.004799	-0.313419	0.000221
H80	H	0.037892	-0.378720	-0.053081
H81	H	0.042399	-0.373920	0.047224
C82	C	0.262435	-0.824288	0.780773
H83	H	0.290494	-0.794463	0.738766
H84	H	0.233534	-0.789952	0.818224
H85	H	0.298678	-0.850828	0.813656
C86	C	-0.441208	-0.934202	-0.204443
H87	H	-0.479613	-0.935714	-0.248577
H88	H	-0.406127	-0.889305	-0.210172
H89	H	-0.412375	-0.980689	-0.209750
H90	H	0.284465	-0.671948	-0.020000
C91	C	0.280421	-0.805182	0.181040
H92	H	0.270542	-0.815698	0.121146
H93	H	0.269108	-0.752144	0.196718
H94	H	0.334251	-0.813021	0.192158
H95	H	0.084845	-1.013155	0.207667
H96	H	0.047922	-0.181321	-0.003483
H97	H	0.240173	-0.847970	0.604618
H98	H	0.274042	-0.811951	0.359200
H99	H	0.306316	-0.147994	-0.021570
C100	C	0.043444	-1.057173	0.605378
H101	H	0.047904	-1.052418	0.544483
H102	H	0.056089	-1.108795	0.619367
H103	H	-0.009056	-1.047920	0.623936
C104	C	-0.007225	-0.547810	0.000404
H105	H	-0.001443	-0.491920	0.000004
H106	H	-0.037655	-0.567389	-0.047771
H107	H	-0.033143	-0.562591	0.052534
C108	C	-0.226411	-0.919076	0.180950
H109	H	-0.281825	-0.918514	0.173585
H110	H	-0.214594	-0.963496	0.212424
H111	H	-0.208344	-0.872113	0.211999
C112	C	0.051969	-1.048102	0.795472
H113	H	0.020328	-1.081739	0.757636
H114	H	0.084042	-1.079066	0.828649
H115	H	0.018893	-1.018194	0.833211
H116	H	-0.439110	-0.919341	0.103234
