data_functionalizedCrystal
_audit_creation_method	'MofGen! by Chris Wilmer'
_symmetry_space_group_name_H-M	'P1'
_symmetry_Int_Tables_number	1
_symmetry_cell_setting	triclinic
loop_
_symmetry_equiv_pos_as_xyz
  x,y,z
_cell_length_a	13.897449
_cell_length_b	10.686203
_cell_length_c	10.686551
_cell_angle_alpha	99.081336
_cell_angle_beta	85.604174
_cell_angle_gamma	94.364297
loop_
_atom_site_label
_atom_site_type_symbol
_atom_site_fract_x
_atom_site_fract_y
_atom_site_fract_z
Zn1	Zn	1.540992	0.450119	-0.679040
Zn2	Zn	2.040992	0.950119	-0.179040
Zn3	Zn	1.540906	0.678698	-0.450550
Zn4	Zn	2.040906	1.178698	0.049450
Zn5	Zn	1.368188	0.466478	-0.466802
Zn6	Zn	1.868188	0.966478	0.033198
Zn7	Zn	1.391173	0.662320	-0.662751
Zn8	Zn	1.891173	1.162320	-0.162751
O9	O	1.460315	0.564404	-0.564786
O10	O	1.960315	1.064404	-0.064786
O11	O	1.675963	0.480449	-0.648745
O12	O	2.175963	0.980449	-0.148745
O13	O	1.508339	0.664247	-0.275076
O14	O	2.008339	1.164247	0.224924
O15	O	1.381527	0.286686	-0.508574
O16	O	1.881527	0.786686	-0.008574
O17	O	1.675900	0.648385	-0.480875
O18	O	2.175900	1.148385	0.019125
O19	O	1.508486	0.274667	-0.664504
O20	O	2.008486	0.774667	-0.164504
O21	O	1.381444	0.508330	-0.287016
O22	O	1.881444	1.008330	0.212984
O23	O	1.236254	0.492448	-0.492779
O24	O	1.736254	0.992448	0.007221
O25	O	1.420702	0.620470	-0.842542
O26	O	1.920702	1.120470	-0.342542
O27	O	1.253141	0.636332	-0.636743
O28	O	1.753141	1.136332	-0.136743
O29	O	1.530773	0.464567	-0.854509
O30	O	2.030773	0.964567	-0.354509
O31	O	1.530627	0.854147	-0.465080
O32	O	2.030627	1.354147	0.034920
O33	O	1.420619	0.842114	-0.620984
O34	O	1.920619	1.342114	-0.120984
C35	C	1.209698	0.564389	-0.564758
C36	C	1.709698	1.064389	-0.064758
C37	C	1.102486	0.564411	-0.564774
C38	C	1.602486	1.064411	-0.064774
C39	C	1.478135	0.894184	-0.539529
C40	C	1.978135	1.394184	-0.039529
C41	C	1.485850	1.035262	-0.528766
C42	C	1.985850	1.535262	-0.028766
C43	C	0.906193	0.564413	-0.564807
C44	C	1.406193	1.064413	-0.064807
C45	C	1.015424	0.564408	-0.564785
C46	C	1.515424	1.064408	-0.064785
C47	C	1.711910	0.564419	-0.564814
C48	C	2.211910	1.064419	-0.064814
C49	C	1.819125	0.564426	-0.564826
C50	C	2.319125	1.064426	-0.064826
C51	C	1.478311	0.538867	-0.895870
C52	C	1.978311	1.038867	-0.395870
C53	C	1.485980	0.527985	-1.036959
C54	C	1.985980	1.027985	-0.536959
C55	C	1.442443	1.233333	-0.590182
C56	C	1.942443	1.733333	-0.090182
C57	C	1.434806	1.092247	-0.601039
C58	C	1.934806	1.592247	-0.101039
C59	C	1.442439	0.589749	-0.234996
C60	C	1.942439	1.089749	0.265004
C61	C	1.434937	0.600274	-0.093935
C62	C	1.934937	1.100274	0.406065
H63	H	1.535448	1.094410	-0.458643
H64	H	2.035448	1.594410	0.041357
H65	H	1.385373	0.670492	-1.034778
H66	H	1.885373	1.170492	-0.534778
O67	O	1.375493	1.021770	-0.684553
O68	O	1.875493	1.521770	-0.184553
C69	C	1.212532	0.976442	-0.749102
C70	C	1.712532	1.476442	-0.249102
C71	C	1.279590	1.056330	-0.654416
C72	C	1.779590	1.556330	-0.154416
H73	H	1.134984	1.004372	-0.724786
H74	H	1.634984	1.504372	-0.224786
H75	H	1.216563	0.871400	-0.743176
H76	H	1.716563	1.371400	-0.243176
H77	H	1.236427	0.994471	-0.849509
H78	H	1.736427	1.494471	-0.349509
H79	H	1.255742	1.038409	-0.553966
H80	H	1.755742	1.538409	-0.053966
H81	H	1.275552	1.161345	-0.660452
H82	H	1.775552	1.661345	-0.160452
H83	H	1.535555	0.457771	-1.096123
H84	H	2.035555	0.957771	-0.596123
