data_functionalizedCrystal
_audit_creation_method	'MofGen! by Chris Wilmer'
_symmetry_space_group_name_H-M	'P1'
_symmetry_Int_Tables_number	1
_symmetry_cell_setting	triclinic
loop_
_symmetry_equiv_pos_as_xyz
  x,y,z
_cell_length_a	8.597366
_cell_length_b	10.540539
_cell_length_c	7.088929
_cell_angle_alpha	83.715612
_cell_angle_beta	103.954530
_cell_angle_gamma	84.929866
loop_
_atom_site_label
_atom_site_type_symbol
_atom_site_fract_x
_atom_site_fract_y
_atom_site_fract_z
O1	O	2.103349	0.174315	0.187502
O2	O	1.638904	0.195039	0.110992
O3	O	1.881722	-0.000118	0.150995
O4	O	1.860530	0.369472	0.147499
O5	O	1.914172	-0.026258	0.474316
O6	O	1.671353	0.168899	0.434313
O7	O	2.135798	0.148175	0.510823
Cu8	Cu	1.906539	0.156151	0.502090
Cu9	Cu	1.868163	0.187064	0.119725
O10	O	1.892979	0.343332	0.470820
C11	C	1.595657	0.181200	0.262855
C12	C	1.418449	0.178894	0.233663
C13	C	1.896358	-0.060477	0.312390
C14	C	1.891602	-0.201385	0.311596
C15	C	1.709332	-0.383236	0.280857
C16	C	1.714225	-0.236717	0.282378
C17	C	1.995494	-0.278681	0.510291
C18	C	1.989456	-0.425187	0.509449
C19	C	1.956162	-0.396010	0.142367
C20	C	1.957551	-0.248844	0.140195
C21	C	2.179045	0.162014	0.358955
C22	C	2.356251	0.164321	0.388135
C23	C	1.878344	0.403692	0.309421
C24	C	1.883098	0.544601	0.310202
N25	N	1.933541	0.134407	0.771026
N26	N	1.841173	0.208797	-0.149209
H27	H	1.633774	-0.182854	0.138962
H28	H	1.745443	0.285887	0.753374
Br29	Br	2.169492	-0.476332	0.175469
Br30	Br	1.493457	0.146459	0.645826
Br31	Br	1.570387	-0.412082	0.040930
Br32	Br	1.614635	-0.450905	0.480412
Br33	Br	1.281255	0.196725	-0.024016
H34	H	2.029289	0.057322	0.868456
H35	H	1.659892	-0.205115	0.403808
Br36	Br	2.203472	-0.508047	0.558459
Br37	Br	1.907390	-0.489917	0.722158
H38	H	1.949987	-0.246695	0.637920
Br39	Br	2.213757	-0.244165	0.557510
H40	H	1.884709	-0.415771	-0.007030
Br41	Br	2.171229	-0.208757	0.157098
H42	H	1.881384	-0.196423	-0.006680
