data_functionalizedCrystal
_audit_creation_method	'MofGen! by Chris Wilmer'
_symmetry_space_group_name_H-M	'P1'
_symmetry_Int_Tables_number	1
_symmetry_cell_setting	triclinic
loop_
_symmetry_equiv_pos_as_xyz
  x,y,z
_cell_length_a	10.489741
_cell_length_b	9.565339
_cell_length_c	14.519709
_cell_angle_alpha	89.999284
_cell_angle_beta	95.890341
_cell_angle_gamma	90.000900
loop_
_atom_site_label
_atom_site_type_symbol
_atom_site_fract_x
_atom_site_fract_y
_atom_site_fract_z
O1	O	1.692697	0.116177	-0.130108
O2	O	2.192697	0.616177	0.369892
O3	O	1.321374	0.116199	-0.142321
O4	O	1.821374	0.616199	0.357679
O5	O	1.516880	0.116175	-0.002030
O6	O	2.016880	0.616175	0.497970
O7	O	1.497190	0.116201	-0.270399
O8	O	1.997190	0.616201	0.229601
O9	O	1.516865	-0.116345	-0.002038
O10	O	2.016865	0.383655	0.497962
O11	O	1.321358	-0.116321	-0.142330
O12	O	1.821358	0.383679	0.357670
O13	O	1.692681	-0.116343	-0.130117
O14	O	2.192681	0.383657	0.369883
Zn15	Zn	1.507017	-0.153250	-0.136225
Zn16	Zn	2.007017	0.346750	0.363775
Zn17	Zn	1.507038	0.153106	-0.136213
Zn18	Zn	2.007038	0.653106	0.363787
O19	O	1.497175	-0.116319	-0.270408
O20	O	1.997175	0.383681	0.229592
C21	C	1.273844	-0.000058	-0.141403
C22	C	1.773844	0.499942	0.358597
C23	C	1.132243	-0.000050	-0.138643
C24	C	1.632243	0.499950	0.361357
C25	C	1.065034	-0.000072	-0.049380
C26	C	1.565034	0.499928	0.450620
C27	C	0.972475	0.114573	-0.091543
C28	C	1.472475	0.614573	0.408457
C29	C	0.972493	-0.114673	-0.091573
C30	C	1.472493	0.385327	0.408427
C31	C	1.041549	0.114690	-0.180843
C32	C	1.541549	0.614690	0.319157
C33	C	1.041578	-0.114659	-0.180860
C34	C	1.541578	0.385341	0.319140
C35	C	0.949046	0.000014	-0.223088
C36	C	1.449046	0.500014	0.276912
N37	N	1.507013	-0.362329	-0.136232
N38	N	2.007013	0.137671	0.363768
C39	C	1.416570	-0.453521	-0.201090
C40	C	1.916570	0.046479	0.298910
C41	C	1.531873	-0.546705	-0.219751
C42	C	2.031873	-0.046705	0.280249
C43	C	1.391760	-0.546701	-0.117579
C44	C	1.891760	-0.046701	0.382421
C45	C	1.622373	-0.453461	-0.154934
C46	C	2.122373	0.046539	0.345066
C47	C	1.482185	-0.453449	-0.052726
C48	C	1.982185	0.046551	0.447274
C49	C	1.597571	-0.546591	-0.071351
C50	C	2.097571	-0.046591	0.428649
C51	C	1.740211	-0.000083	-0.131035
C52	C	2.240211	0.499917	0.368965
C53	C	1.881812	-0.000082	-0.133794
C54	C	2.381812	0.499918	0.366206
C55	C	1.515955	-0.000085	0.032331
C56	C	2.015955	0.499915	0.532331
C57	C	1.513205	-0.000086	0.134727
C58	C	2.013205	0.499914	0.634727
N59	N	1.507052	0.362185	-0.136199
N60	N	2.007052	0.862185	0.363801
C61	C	1.498100	-0.000056	-0.304768
C62	C	1.998100	0.499944	0.195232
C63	C	1.500850	-0.000046	-0.407165
C64	C	2.000850	0.499954	0.092835
C65	C	1.503082	-0.000049	0.509678
C66	C	2.003082	0.499951	1.009678
C67	C	1.505893	-0.000060	0.405355
C68	C	2.005893	0.499940	0.905355
C69	C	1.508143	-0.000069	0.322206
C70	C	2.008143	0.499931	0.822206
C71	C	1.510955	-0.000077	0.217876
C72	C	2.010955	0.499923	0.717876
H73	H	0.898856	0.000084	-0.296546
H74	H	1.398856	0.500084	0.203454
C75	C	0.931169	-0.245616	-0.040533
C76	C	1.431169	0.254384	0.459467
N77	N	0.900049	-0.344237	-0.002084
N78	N	1.400049	0.155763	0.497916
C79	C	1.701033	-0.601475	0.002761
C80	C	2.201033	-0.101475	0.502761
N81	N	1.778965	-0.642822	0.058577
N82	N	2.278965	-0.142822	0.558577
C83	C	1.133148	0.000073	0.049767
C84	C	1.633148	0.500073	0.549767
N85	N	1.184453	0.000189	0.124443
N86	N	1.684453	0.500189	0.624443
H87	H	1.719878	-0.412677	-0.170782
H88	H	2.219878	0.087323	0.329218
H89	H	1.461122	-0.412455	0.017857
H90	H	1.961122	0.087545	0.517857
H91	H	1.552899	-0.587666	-0.290356
H92	H	2.052899	-0.087666	0.209644
H93	H	1.072224	-0.211583	-0.218602
H94	H	1.572224	0.288417	0.281398
H95	H	0.941861	0.211493	-0.053770
H96	H	1.441861	0.711493	0.446230
C97	C	1.260064	-0.602025	-0.096279
C98	C	1.760064	-0.102025	0.403721
N99	N	1.160866	-0.643689	-0.080242
N100	N	1.660866	-0.143689	0.419758
C101	C	1.082671	0.245787	-0.231815
C102	C	1.582671	0.745787	0.268185
N103	N	1.113647	0.344530	-0.270202
N104	N	1.613647	0.844530	0.229798
C105	C	1.313345	-0.398298	-0.275256
C106	C	1.813345	0.101702	0.224744
N107	N	1.235603	-0.356698	-0.331119
N108	N	1.735603	0.143302	0.168881
