data_functionalizedCrystal
_audit_creation_method	'MofGen! by Chris Wilmer'
_symmetry_space_group_name_H-M	'P1'
_symmetry_Int_Tables_number	1
_symmetry_cell_setting	triclinic
loop_
_symmetry_equiv_pos_as_xyz
  x,y,z
_cell_length_a	8.597340
_cell_length_b	8.597304
_cell_length_c	16.176319
_cell_angle_alpha	82.293375
_cell_angle_beta	97.694727
_cell_angle_gamma	86.359595
loop_
_atom_site_label
_atom_site_type_symbol
_atom_site_fract_x
_atom_site_fract_y
_atom_site_fract_z
O1	O	2.085991	0.234297	0.063153
O2	O	1.629344	0.252274	0.029345
O3	O	1.866652	0.014955	0.063154
O4	O	1.848683	0.471616	0.029344
O5	O	1.866618	0.014939	0.200646
O6	O	1.629311	0.252258	0.166837
O7	O	2.085957	0.234281	0.200645
Cu8	Cu	1.857631	0.243268	0.196295
Cu9	Cu	1.857670	0.243287	0.033695
O10	O	1.848650	0.471600	0.166836
C11	C	1.570828	0.250336	0.094061
C12	C	1.396516	0.244567	0.082055
C13	C	1.864704	-0.043554	0.135928
C14	C	1.858931	-0.217871	0.147928
C15	C	2.144474	0.236219	0.135927
C16	C	2.318785	0.241988	0.147927
C17	C	1.850597	0.530110	0.094060
C18	C	1.856370	0.704426	0.082054
N19	N	1.857614	0.243254	0.310660
N20	N	1.857699	0.243289	-0.080668
C21	C	1.962727	0.138213	0.368894
C22	C	1.962735	0.138212	0.455442
C23	C	1.857637	0.243260	0.483754
C24	C	1.752513	0.348306	0.425513
C25	C	1.752499	0.348298	0.338967
C26	C	1.752567	0.348336	0.774543
C27	C	1.752593	0.348338	0.861096
C28	C	1.962804	0.138249	0.891018
C29	C	1.962789	0.138242	0.804472
C30	C	1.857660	0.243281	0.746238
C31	C	1.857651	0.243280	0.652394
C32	C	1.857653	0.243270	0.577597
H33	H	1.856689	-0.284709	0.213515
C34	C	1.569974	0.250292	0.231628
C35	C	1.408957	0.244963	0.236468
H36	H	1.625645	0.252138	0.286290
H37	H	1.607302	0.159882	0.209921
H38	H	1.586173	0.342488	0.195400
H39	H	1.392756	0.152761	0.272691
H40	H	1.371617	0.335382	0.258186
C41	C	1.145318	0.236276	-0.001654
C42	C	1.306336	0.241599	-0.006490
H43	H	1.089648	0.234454	-0.056319
H44	H	1.129111	0.144088	0.034563
H45	H	1.107992	0.326694	0.020062
H46	H	1.343665	0.151174	-0.028200
H47	H	1.322554	0.333797	-0.042720
C48	C	2.170508	-0.069468	0.407174
C49	C	2.078253	0.022736	0.337779
H50	H	2.241820	-0.140768	0.387964
H51	H	2.227976	-0.003220	0.440290
H52	H	2.104289	-0.126966	0.440322
H53	H	2.144472	0.080243	0.304633
H54	H	2.020781	-0.043520	0.304648
C55	C	1.993581	-0.074906	0.570143
C56	C	2.078289	0.022748	0.519448
H57	H	2.064927	-0.146197	0.609653
H58	H	1.931008	-0.012355	0.599394
H59	H	1.927379	-0.132413	0.535763
H60	H	2.144484	0.080264	0.553827
H61	H	2.140890	-0.039810	0.490195
C62	C	2.170570	-0.069443	0.842745
C63	C	2.078311	0.022765	0.773353
H64	H	2.241878	-0.140743	0.823532
H65	H	2.228043	-0.003198	0.875861
H66	H	2.104354	-0.126942	0.875895
H67	H	2.144527	0.080273	0.740206
H68	H	2.020834	-0.043488	0.740223
H69	H	1.666932	0.433833	0.448569
C70	C	1.664559	0.618634	0.722387
C71	C	1.637025	0.463813	0.710543
H72	H	1.593230	0.689929	0.682870
H73	H	1.649536	0.633649	0.777979
H74	H	1.769582	0.637326	0.714329
H75	H	1.532005	0.445118	0.718607
H76	H	1.652035	0.448791	0.654938
H77	H	1.858589	-0.228741	0.016470
H78	H	1.667003	0.433884	0.884144
C79	C	1.664481	0.618597	0.286782
C80	C	1.636964	0.463768	0.274950
H81	H	1.593154	0.689879	0.247257
H82	H	1.649442	0.633628	0.342370
H83	H	1.769505	0.637293	0.278730
H84	H	1.531942	0.445068	0.283009
H85	H	1.651990	0.448730	0.219349
H86	H	2.048401	0.052715	0.938442
