data_functionalizedCrystal
_audit_creation_method	'MofGen! by Chris Wilmer'
_symmetry_space_group_name_H-M	'P1'
_symmetry_Int_Tables_number	1
_symmetry_cell_setting	triclinic
loop_
_symmetry_equiv_pos_as_xyz
  x,y,z
_cell_length_a	38.067044
_cell_length_b	38.077471
_cell_length_c	38.067077
_cell_angle_alpha	59.997213
_cell_angle_beta	89.997014
_cell_angle_gamma	59.999941
loop_
_atom_site_label
_atom_site_type_symbol
_atom_site_fract_x
_atom_site_fract_y
_atom_site_fract_z
O1	O	0.240983	0.309782	-0.010460
O2	O	0.189899	0.237866	0.010394
O3	O	0.189899	0.309779	-0.061542
O4	O	0.240983	0.237869	0.061476
O5	O	0.248326	0.251368	-0.061541
O6	O	0.248326	0.179455	0.010394
O7	O	0.299410	0.251371	-0.010459
Cu8	Cu	0.279203	0.210080	-0.000033
Cu9	Cu	0.210106	0.279157	-0.000033
O10	O	0.299410	0.179458	0.061476
C11	C	0.361071	0.449899	-0.025339
C12	C	0.403348	0.428867	-0.025638
C13	C	0.361073	0.386300	-0.025335
C14	C	0.403350	0.365365	-0.025633
C15	C	0.424685	0.386303	-0.025339
C16	C	0.339834	0.428864	-0.025633
C17	C	0.297315	0.513472	-0.020177
C18	C	0.277153	0.553648	-0.016921
C19	C	0.298889	0.573799	-0.015289
C20	C	0.277030	0.617358	-0.011756
C21	C	0.340787	0.553781	-0.016917
C22	C	0.360947	0.513609	-0.020176
C23	C	0.339211	0.493455	-0.021804
C24	C	0.493436	0.381311	-0.020181
C25	C	0.536879	0.358036	-0.016924
C26	C	0.558669	0.314521	-0.015288
C27	C	0.605773	0.289281	-0.011754
C28	C	0.537019	0.294278	-0.016912
C29	C	0.493577	0.317552	-0.020171
C30	C	0.471787	0.361067	-0.021804
C31	C	0.297319	0.381302	-0.020168
C32	C	0.277160	0.358020	-0.016902
C33	C	0.298897	0.314505	-0.015265
C34	C	0.277041	0.289263	-0.011727
C35	C	0.340794	0.294265	-0.016892
C36	C	0.360954	0.317543	-0.020157
C37	C	0.339215	0.361061	-0.021795
C38	C	0.025601	0.057329	0.031595
C39	C	0.046936	0.014767	0.031891
C40	C	0.089215	0.057327	0.031598
C41	C	0.110454	0.014764	0.031894
C42	C	0.089214	-0.006267	0.031595
C43	C	0.046937	0.078263	0.031894
C44	C	-0.127801	0.171857	0.020077
C45	C	-0.171243	0.195271	0.016820
C46	C	-0.193036	0.175176	0.015183
C47	C	-0.240142	0.200566	0.011644
C48	C	-0.171384	0.131663	0.016807
C49	C	-0.127943	0.108249	0.020070
C50	C	-0.106152	0.128348	0.021705
C51	C	0.128057	-0.148109	0.020073
C52	C	0.148079	-0.188283	0.016815
C53	C	0.189972	-0.208436	0.015180
C54	C	0.211683	-0.251990	0.011642
C55	C	0.211846	-0.188415	0.016807
C56	C	0.191827	-0.148249	0.020072
C57	C	0.149928	-0.128096	0.021702
C58	C	0.128063	0.171849	0.020088
C59	C	0.148085	0.195264	0.016828
C60	C	0.189980	0.175167	0.015195
C61	C	0.211690	0.200555	0.011658
C62	C	0.211850	0.131658	0.016817
C63	C	0.191827	0.108246	0.020075
C64	C	0.149933	0.128343	0.021714
C65	C	-0.059049	0.102958	0.025239
C66	C	-0.021502	0.082719	0.028058
C67	C	0.110923	0.082715	0.028063
C68	C	0.128227	0.102951	0.025247
C69	C	0.110921	-0.049820	0.028057
C70	C	0.128223	-0.084538	0.025238
C71	C	0.088946	0.431916	-0.406429
C72	C	0.046669	0.474478	-0.427667
C73	C	0.088946	0.431916	-0.342816
C74	C	0.046669	0.474478	-0.364151
C75	C	0.025334	0.495511	-0.406428
C76	C	0.110185	0.410980	-0.364151
C77	C	0.191987	0.317389	-0.445274
C78	C	0.212150	0.293976	-0.465296
C79	C	0.190413	0.314073	-0.507190
C80	C	0.212271	0.288683	-0.528899
C81	C	0.148513	0.357586	-0.529062
C82	C	0.128356	0.381000	-0.509042
C83	C	0.150094	0.360899	-0.467146
C84	C	-0.128067	0.637357	-0.509466
C85	C	-0.171509	0.677531	-0.529629
C86	C	-0.193303	0.697683	-0.507894
C87	C	-0.240406	0.741238	-0.529748
C88	C	-0.171650	0.677661	-0.465994
C89	C	-0.128209	0.637494	-0.445835
C90	C	-0.106420	0.617342	-0.467575
C91	C	0.191987	0.317389	-0.189414
C92	C	0.212148	0.293972	-0.145970
C93	C	0.190412	0.314069	-0.124177
C94	C	0.212269	0.288680	-0.077072
C95	C	0.148513	0.357579	-0.145828
C96	C	0.128354	0.380992	-0.189270
C97	C	0.150096	0.360896	-0.211061
C98	C	0.128231	0.386289	-0.445439
C99	C	0.110806	0.406526	-0.428136
C100	C	0.110806	0.406526	-0.295712
C101	C	0.128231	0.386289	-0.258166
C102	C	-0.021769	0.539065	-0.428286
C103	C	-0.059315	0.573784	-0.445711
O104	O	0.744326	0.179469	0.010375
O105	O	0.621309	0.251386	-0.010480
O106	O	0.693233	0.179476	0.061456
O107	O	0.672402	0.251379	-0.061561
O108	O	0.693232	0.237890	0.061451
O109	O	0.621307	0.309800	-0.010485
O110	O	0.744325	0.237883	0.010370
Cu111	Cu	0.682816	0.279175	-0.000058
Cu112	Cu	0.682818	0.210094	-0.000052
O113	O	0.672400	0.309793	-0.061566
O114	O	0.248318	0.733750	0.010374
O115	O	0.299401	0.631615	-0.010481
O116	O	0.299398	0.631605	0.061455
O117	O	0.248321	0.733760	-0.061562
O118	O	0.240969	0.631609	0.061449
O119	O	0.240972	0.631619	-0.010487
O120	O	0.189889	0.733755	0.010368
Cu121	Cu	0.210096	0.682687	-0.000060
Cu122	Cu	0.279195	0.682682	-0.000053
O123	O	0.189892	0.733764	-0.061568
O124	O	-0.378954	0.857637	-0.558456
O125	O	-0.255938	0.755495	-0.507376
O126	O	-0.327868	0.755492	-0.507369
O127	O	-0.307024	0.857640	-0.558463
O128	O	-0.327869	0.755493	-0.565797
O129	O	-0.255940	0.755496	-0.565803
O130	O	-0.378955	0.857639	-0.616884
Cu131	Cu	-0.317448	0.806568	-0.596678
Cu132	Cu	-0.317446	0.806566	-0.527581
O133	O	-0.307026	0.857642	-0.616890
O134	O	0.240987	0.237864	-0.616616
O135	O	0.189899	0.309779	-0.565534
O136	O	0.189901	0.237863	-0.565528
O137	O	0.240985	0.309779	-0.616622
O138	O	0.248327	0.179454	-0.507101
O139	O	0.248325	0.251369	-0.507107
O140	O	0.299413	0.179455	-0.558190
Cu141	Cu	0.279204	0.210079	-0.527313
Cu142	Cu	0.210109	0.279155	-0.596410
O143	O	0.299411	0.251370	-0.558195
C144	C	0.424692	0.039351	0.321712
C145	C	0.403357	0.060383	0.342952
C146	C	0.361079	0.102947	0.258101
C147	C	0.339841	0.123882	0.279437
C148	C	0.361080	0.102946	0.321714
C149	C	0.403356	0.060384	0.279435
C150	C	0.493444	-0.024221	0.321545
C151	C	0.536888	-0.064396	0.341568
C152	C	0.558677	-0.084545	0.383459
C153	C	0.605782	-0.128102	0.405170
C154	C	0.537026	-0.064526	0.405334
C155	C	0.493584	-0.024356	0.385313
C156	C	0.471795	-0.004203	0.343418
C157	C	0.361246	0.107941	0.385470
C158	C	0.341222	0.131217	0.405632
C159	C	0.299331	0.174730	0.383896
C160	C	0.277619	0.199971	0.405754
C161	C	0.277457	0.194972	0.341998
C162	C	0.297479	0.171696	0.321838
C163	C	0.339373	0.128183	0.343574
C164	C	0.361244	0.107943	0.189347
C165	C	0.341221	0.131223	0.145902
C166	C	0.299331	0.174737	0.124113
C167	C	0.277618	0.199978	0.077008
C168	C	0.277459	0.194978	0.145764
C169	C	0.297479	0.171702	0.189207
C170	C	0.339372	0.128184	0.210997
C171	C	0.708036	0.103006	0.321680
C172	C	0.708327	0.060446	0.342920
C173	C	0.708050	0.102996	0.258072
C174	C	0.708342	0.060435	0.279408
C175	C	0.708034	0.039409	0.321684
C176	C	0.708343	0.123936	0.279404
C177	C	0.702875	0.171907	0.321509
C178	C	0.699613	0.195325	0.341529
C179	C	0.697968	0.175235	0.383418
C180	C	0.694429	0.200625	0.405127
C181	C	0.699590	0.131724	0.405294
C182	C	0.702854	0.108306	0.385275
C183	C	0.704495	0.128400	0.343383
C184	C	0.702857	-0.024154	0.385438
C185	C	0.699593	-0.064326	0.405600
C186	C	0.697962	-0.084479	0.383866
C187	C	0.694422	-0.128034	0.405724
C188	C	0.699599	-0.064467	0.341970
C189	C	0.702865	-0.024298	0.321810
C190	C	0.704492	-0.004142	0.343544
C191	C	0.702904	0.171886	0.189319
C192	C	0.699650	0.195297	0.145875
C193	C	0.698020	0.175196	0.124089
C194	C	0.694496	0.200575	0.076986
C195	C	0.699640	0.131689	0.145740
C196	C	0.702892	0.108278	0.189182
C197	C	0.704524	0.128378	0.210970
C198	C	0.361050	0.386277	0.321686
C199	C	0.403328	0.365338	0.342927
C200	C	0.361055	0.449876	0.258076
C201	C	0.403332	0.428840	0.279414
C202	C	0.424665	0.386274	0.321691
C203	C	0.339814	0.428844	0.279410
C204	C	0.297293	0.381285	0.321516
C205	C	0.277129	0.358010	0.341538
C206	C	0.298863	0.314492	0.383428
C207	C	0.277004	0.289252	0.405138
C208	C	0.340761	0.294247	0.405305
C209	C	0.360923	0.317523	0.385285
C210	C	0.339189	0.361040	0.343391
C211	C	0.493415	0.317368	0.385448
C212	C	0.536859	0.293951	0.405612
C213	C	0.558649	0.314048	0.383877
C214	C	0.605754	0.288659	0.405736
C215	C	0.537000	0.357565	0.341979
C216	C	0.493559	0.380982	0.321818
C217	C	0.471768	0.360881	0.343552
C218	C	0.297302	0.513457	0.189322
C219	C	0.277144	0.553632	0.145876
C220	C	0.298883	0.573781	0.124090
C221	C	0.277028	0.617344	0.076985
C222	C	0.340779	0.553759	0.145741
C223	C	0.360939	0.513584	0.189185
C224	C	0.339198	0.493435	0.210973
C225	C	0.651261	0.495203	-0.406441
C226	C	0.650971	0.474165	-0.427676
C227	C	0.651248	0.431614	-0.342828
C228	C	0.650958	0.410673	-0.364160
C229	C	0.651265	0.431602	-0.406435
C230	C	0.650954	0.474176	-0.364165
C231	C	0.662779	0.637052	-0.445292
C232	C	0.666038	0.677226	-0.465316
C233	C	0.667682	0.697372	-0.507208
C234	C	0.671224	0.740926	-0.528918
C235	C	0.666064	0.677344	-0.529077
C236	C	0.662799	0.637178	-0.509055
C237	C	0.661157	0.617032	-0.467161
C238	C	0.662813	0.381231	-0.509460
C239	C	0.666076	0.357953	-0.529620
C240	C	0.667709	0.314436	-0.507883
C241	C	0.671254	0.289190	-0.529734
C242	C	0.666074	0.294201	-0.465985
C243	C	0.662804	0.317483	-0.445829
C244	C	0.661176	0.361000	-0.467572
C245	C	0.662728	0.381290	-0.189434
C246	C	0.665980	0.358020	-0.145992
C247	C	0.667612	0.314503	-0.124197
C248	C	0.671140	0.289269	-0.077094
C249	C	0.665995	0.294257	-0.145845
C250	C	0.662745	0.317526	-0.189286
C251	C	0.661108	0.361047	-0.211078
C252	C	0.657621	0.573474	-0.445453
C253	C	0.654801	0.538756	-0.428149
C254	C	0.654774	0.406384	-0.295727
C255	C	0.657584	0.386274	-0.258182
C256	C	0.654809	0.406359	-0.428290
C257	C	0.657633	0.386239	-0.445712
O258	O	0.672291	0.251460	0.492833
O259	O	0.693148	0.179538	0.441757
O260	O	0.621213	0.251461	0.441741
O261	O	0.744226	0.179538	0.492848
O262	O	0.621227	0.309865	0.383316
O263	O	0.693162	0.237942	0.383332
O264	O	0.672305	0.309864	0.434408
Cu265	Cu	0.682735	0.279235	0.403535
Cu266	Cu	0.682718	0.210167	0.472629
O267	O	0.744240	0.237941	0.434423
C268	C	0.025623	1.057377	-0.406453
C269	C	0.046960	1.078313	-0.427690
C270	C	0.089232	0.993774	-0.342838
C271	C	0.110474	1.014806	-0.364171
C272	C	0.089238	1.057373	-0.406448
C273	C	0.046955	1.014810	-0.364176
C274	C	-0.127781	1.107735	-0.445307
C275	C	-0.171222	1.131010	-0.465331
C276	C	-0.193012	1.174531	-0.507225
C277	C	-0.240117	1.199776	-0.528937
C278	C	-0.171357	1.194773	-0.529095
C279	C	-0.127917	1.171494	-0.509073
C280	C	-0.106129	1.127973	-0.467177
C281	C	0.128092	1.171901	-0.509480
C282	C	0.148117	1.195314	-0.529640
C283	C	0.190009	1.175217	-0.507903
C284	C	0.211723	1.200602	-0.529755
C285	C	0.211879	1.131700	-0.466003
C286	C	0.191858	1.108284	-0.445846
C287	C	0.149960	1.128392	-0.467589
C288	C	0.128067	0.851915	-0.189439
C289	C	0.148085	0.811741	-0.145996
C290	C	0.189979	0.791584	-0.124201
C291	C	0.211685	0.748025	-0.077096
C292	C	0.211852	0.811607	-0.145849
C293	C	0.191832	0.851782	-0.189291
C294	C	0.149940	0.871930	-0.211084
C295	C	-0.059026	1.102736	-0.445467
C296	C	-0.021480	1.082617	-0.428163
C297	C	0.110937	0.950215	-0.295735
C298	C	0.128237	0.915493	-0.258189
C299	C	0.110947	1.082762	-0.428304
C300	C	0.128252	1.102999	-0.445727
H301	H	0.420479	0.331113	-0.026108
H302	H	0.554749	0.373927	0.324285
H303	H	-0.189395	0.694074	-0.448298
H304	H	0.305088	0.446425	0.262269
O305	O	0.026571	0.119082	0.032524
C306	C	0.026437	0.154258	0.070457
C307	C	0.049547	0.108001	0.069792
H308	H	0.044998	0.145313	0.100589
H309	H	0.024699	0.186008	0.040696
H310	H	-0.007516	0.165690	0.070590
H311	H	0.083510	0.096525	0.069673
H312	H	0.051251	0.076280	0.099550
H313	H	0.243016	0.374496	0.323723
H314	H	0.554511	-0.080691	0.323755
H315	H	0.094242	0.416428	-0.526853
O316	O	0.087358	-0.128467	0.021652
C317	C	0.028266	-0.066550	0.026713
C318	C	0.074353	-0.088740	0.024917
H319	H	0.017741	-0.034433	0.029363
H320	H	0.005478	-0.052431	-0.003797
H321	H	0.027470	-0.096387	0.055936
H322	H	0.075190	-0.058929	-0.004287
H323	H	0.097120	-0.102871	0.055447
H324	H	0.093979	1.188275	-0.527187
O325	O	0.298429	0.164800	0.258988
C326	C	0.249125	0.250315	0.233708
C327	C	0.296038	0.204014	0.256868
H328	H	0.247176	0.282029	0.231995
H329	H	0.237538	0.261777	0.199747
H330	H	0.227924	0.241403	0.252267
H331	H	0.317272	0.212889	0.238345
H332	H	0.307590	0.192565	0.290832
O333	O	0.704411	0.191480	0.210444
C334	C	0.668444	0.262084	0.214027
C335	C	0.666683	0.239945	0.190072
H336	H	0.637949	0.301274	0.197561
H337	H	0.671017	0.237919	0.248792
H338	H	0.697688	0.263458	0.213445
H339	H	0.637441	0.238568	0.190620
H340	H	0.664132	0.264117	0.155319
O341	O	0.236482	0.377696	-0.015272
C342	C	0.189518	0.401670	0.022701
C343	C	0.235603	0.379393	0.020899
H344	H	0.188793	0.403041	0.051948
H345	H	0.166801	0.440866	-0.007795
H346	H	0.178847	0.377561	0.025299
H347	H	0.246314	0.403464	0.018316
H348	H	0.258292	0.340192	0.051395
O349	O	0.472278	-0.004728	0.280880
C350	C	0.449102	-0.019518	0.233847
C351	C	0.473072	-0.041654	0.279923
H352	H	0.449743	-0.049366	0.233056
H353	H	0.414322	0.012618	0.223275
H354	H	0.465524	-0.005425	0.211092
H355	H	0.456686	-0.055776	0.302710
H356	H	0.507852	-0.073769	0.290460
O357	O	0.650324	0.495167	-0.343703
C358	C	0.612394	0.533224	-0.308650
C359	C	0.613056	0.509458	-0.331810
H360	H	0.582261	0.544795	-0.299036
H361	H	0.642153	0.505208	-0.278631
H362	H	0.612266	0.567299	-0.331168
H363	H	0.613169	0.475388	-0.309327
H364	H	0.583299	0.537507	-0.361835
H365	H	0.093960	0.868311	-0.207184
H366	H	0.305098	0.446466	-0.026108
H367	H	0.245964	0.115294	0.015486
O368	O	0.667632	0.251948	-0.444814
C369	C	0.667308	0.191159	-0.379562
C370	C	0.665527	0.239020	-0.403493
H371	H	0.665615	0.180686	-0.346146
H372	H	0.638961	0.197539	-0.398365
H373	H	0.698698	0.159795	-0.376450
H374	H	0.634155	0.270407	-0.406610
H375	H	0.693895	0.232598	-0.384680
O376	O	-0.106677	1.065450	-0.404616
C377	C	-0.111134	1.004682	-0.343476
C378	C	-0.135084	1.052562	-0.389559
H379	H	-0.134093	0.994253	-0.331285
H380	H	-0.082888	0.973283	-0.343469
H381	H	-0.098694	1.011084	-0.321545
H382	H	-0.147552	1.046209	-0.411517
H383	H	-0.163309	1.083944	-0.389532
H384	H	0.029542	0.492080	-0.462404
H385	H	0.243030	0.569934	0.128252
O386	O	0.276132	0.423609	0.280850
C387	C	0.214314	0.508597	0.233810
C388	C	0.238238	0.460705	0.279887
H389	H	0.183667	0.538599	0.233014
H390	H	0.235892	0.521795	0.223244
H391	H	0.205658	0.500839	0.211053
H392	H	0.246897	0.468424	0.302676
H393	H	0.216645	0.447521	0.290417
H394	H	0.698293	0.230750	0.323716
H395	H	-0.110317	0.072820	0.021395
H396	H	0.698274	-0.080883	0.324276
O397	O	0.704429	-0.004902	0.281105
C398	C	0.704112	-0.009293	0.220127
C399	C	0.702328	-0.031302	0.266220
H400	H	0.702423	-0.030635	0.208082
H401	H	0.675765	0.031456	0.198095
H402	H	0.735502	-0.012428	0.220093
H403	H	0.670956	-0.028203	0.266296
H404	H	0.730697	-0.072042	0.288232
O405	O	0.126890	-0.207814	0.015311
C406	C	0.126122	-0.280294	0.048600
C407	C	0.150151	-0.258227	0.050358
H408	H	0.144923	-0.321059	0.076927
H409	H	0.092742	-0.259040	0.050354
H410	H	0.122925	-0.277122	0.017194
H411	H	0.153380	-0.261394	0.081759
H412	H	0.183516	-0.279485	0.048581
H413	H	0.667299	0.374507	-0.128368
H414	H	0.130274	0.230691	0.015506
H415	H	-0.110288	1.187976	-0.526882
O416	O	0.252533	-0.208036	0.015198
C417	C	0.311647	-0.269997	0.010196
C418	C	0.265565	-0.247818	0.012007
H419	H	0.322201	-0.302172	0.007625
H420	H	0.312473	-0.240204	-0.019042
H421	H	0.334395	-0.284056	0.040700
H422	H	0.242790	-0.233763	-0.018475
H423	H	0.264773	-0.277628	0.041265
O424	O	-0.192319	1.111436	-0.444109
C425	C	-0.251066	1.124089	-0.416098
C426	C	-0.227221	1.146322	-0.440146
H427	H	-0.279285	1.152280	-0.412878
H428	H	-0.263524	1.114533	-0.434856
H429	H	-0.228019	1.088976	-0.382725
H430	H	-0.250242	1.181448	-0.473519
H431	H	-0.214756	1.155843	-0.421356
H432	H	0.029806	-0.002836	0.032371
O433	O	0.127454	0.377033	-0.124595
C434	C	0.130273	0.369101	-0.057586
C435	C	0.154181	0.347035	-0.081587
H436	H	0.151868	0.344852	-0.022808
H437	H	0.121590	0.408272	-0.073962
H438	H	0.099643	0.370498	-0.058217
H439	H	0.184826	0.345604	-0.080964
H440	H	0.162831	0.307877	-0.065204
O441	O	0.667583	0.696953	-0.569797
C442	C	0.631640	0.736494	-0.644010
C443	C	0.629860	0.714315	-0.597916
H444	H	0.601149	0.750528	-0.666756
H445	H	0.634224	0.768669	-0.654598
H446	H	0.660887	0.706669	-0.644794
H447	H	0.600616	0.744104	-0.597096
H448	H	0.627299	0.682130	-0.587347
H449	H	0.093951	0.188216	0.021422
H450	H	0.243344	0.230405	0.324302
O451	O	0.361893	0.573394	-0.015408
C452	C	0.396546	0.612942	-0.051369
C453	C	0.372638	0.590759	-0.053138
H454	H	0.405249	0.626977	-0.081866
H455	H	0.374953	0.645116	-0.048786
H456	H	0.427166	0.583119	-0.022127
H457	H	0.342018	0.620546	-0.082378
H458	H	0.394262	0.558574	-0.055699
O459	O	0.472327	0.423593	-0.021786
C460	C	0.476779	0.484361	-0.021431
C461	C	0.500732	0.436484	-0.019623
H462	H	0.499737	0.494793	-0.019674
H463	H	0.448533	0.515761	-0.052830
H464	H	0.464341	0.477955	0.006907
H465	H	0.513199	0.442842	-0.047939
H466	H	0.528958	0.405101	0.011794
O467	O	0.661163	0.423549	-0.210534
C468	C	0.661465	0.484355	-0.206103
C469	C	0.663251	0.436490	-0.182152
H470	H	0.663143	0.494839	-0.183169
H471	H	0.689817	0.477972	-0.218516
H472	H	0.630079	0.515712	-0.234370
H473	H	0.694618	0.405111	-0.153868
H474	H	0.634877	0.442915	-0.169770
O475	O	0.697955	0.112294	0.445974
C476	C	0.692911	0.120183	0.505073
C477	C	0.694755	0.142244	0.459002
H478	H	0.690333	0.144381	0.515624
H479	H	0.663666	0.118809	0.505878
H480	H	0.723405	0.080998	0.527837
H481	H	0.664283	0.181437	0.436211
H482	H	0.724020	0.143580	0.458231
H483	H	0.420486	0.042773	0.377691
H484	H	0.209639	-0.131953	0.021399
H485	H	0.209692	0.301021	-0.207154
O486	O	0.362521	0.111481	0.124942
C487	C	0.427886	0.045798	0.129660
C488	C	0.403810	0.068094	0.153454
H489	H	0.461276	0.010722	0.152698
H490	H	0.409153	0.036186	0.117248
H491	H	0.431061	0.074007	0.101404
H492	H	0.400629	0.039909	0.181726
H493	H	0.422553	0.077717	0.165834
O494	O	0.704402	0.066059	0.406574
C495	C	0.704053	0.005434	0.471937
C496	C	0.702288	0.053286	0.447863
H497	H	0.702354	-0.004914	0.505327
H498	H	0.675704	0.011759	0.453200
H499	H	0.735442	-0.025990	0.475115
H500	H	0.670918	0.084733	0.444680
H501	H	0.730659	0.046919	0.466610
H502	H	0.708822	0.042832	0.262280
H503	H	0.094239	0.416419	-0.206896
H504	H	0.704187	-0.007750	0.403140
H505	H	0.698262	-0.080616	0.439712
H506	H	0.661472	0.301005	-0.411717
O507	O	0.213173	0.297811	-0.404584
C508	C	0.278408	0.232235	-0.343442
C509	C	0.254471	0.254359	-0.389524
H510	H	0.311798	0.197094	-0.331249
H511	H	0.281569	0.260467	-0.343436
H512	H	0.259561	0.222748	-0.321511
H513	H	0.273297	0.263844	-0.411481
H514	H	0.251305	0.226113	-0.389496
H515	H	0.130306	1.230747	-0.563753
O516	O	0.661150	0.617763	-0.530307
C517	C	0.620522	0.599621	-0.558273
C518	C	0.622328	0.621635	-0.534210
H519	H	0.589141	0.602735	-0.561428
H520	H	0.622229	0.620921	-0.591668
H521	H	0.648879	0.558874	-0.539507
H522	H	0.593976	0.662379	-0.552940
H523	H	0.620642	0.600298	-0.500812
H524	H	0.661440	0.620654	-0.411181
H525	H	0.704210	0.072852	0.206810
O526	O	0.558265	-0.084143	0.446019
C527	C	0.625245	-0.146094	0.505130
C528	C	0.601250	-0.123924	0.459051
H529	H	0.660001	-0.178268	0.515684
H530	H	0.624680	-0.116297	0.505948
H531	H	0.608807	-0.160153	0.527884
H532	H	0.617671	-0.109868	0.436270
H533	H	0.601813	-0.153738	0.458268
H534	H	0.029539	0.492075	-0.347017
H535	H	0.144918	0.376722	-0.347020
H536	H	0.395039	0.301034	0.403095
H537	H	-0.189130	0.115304	0.015477
H538	H	0.420487	0.042779	0.262308
H539	H	0.698334	0.230720	0.128251
O540	O	0.698068	0.112215	0.124518
C541	C	0.693029	0.120100	0.057529
C542	C	0.694813	0.142199	0.081515
H543	H	0.690387	0.144338	0.022755
H544	H	0.723539	0.080933	0.073925
H545	H	0.663806	0.118684	0.058147
H546	H	0.724017	0.143649	0.080905
H547	H	0.664283	0.181353	0.065112
O548	O	0.708976	0.164753	0.258943
C549	C	0.746915	0.199928	0.223900
C550	C	0.746247	0.153672	0.247055
H551	H	0.777050	0.190982	0.214289
H552	H	0.717158	0.231679	0.193879
H553	H	0.747044	0.211357	0.246420
H554	H	0.746132	0.142198	0.224568
H555	H	0.776001	0.121950	0.277081
O556	O	0.252853	0.251719	-0.125007
C557	C	0.313829	0.191079	-0.129722
C558	C	0.267737	0.238940	-0.153517
H559	H	0.325874	0.180727	-0.152760
H560	H	0.335860	0.197394	-0.117311
H561	H	0.313864	0.159662	-0.101466
H562	H	0.267662	0.270380	-0.181790
H563	H	0.245726	0.232584	-0.165897
H564	H	0.667363	0.693524	-0.447505
O565	O	0.361855	0.573405	0.124582
C566	C	0.362424	0.646015	0.085239
C567	C	0.338520	0.623824	0.109198
H568	H	0.343564	0.686785	0.072786
H569	H	0.395825	0.624840	0.108168
H570	H	0.365568	0.642854	0.056996
H571	H	0.335345	0.626980	0.137439
H572	H	0.305134	0.645003	0.086240
O573	O	0.361824	0.251951	0.445988
C574	C	0.358967	0.187835	0.505094
C575	C	0.335064	0.235728	0.459018
H576	H	0.337338	0.174710	0.515646
H577	H	0.389589	0.157788	0.505908
H578	H	0.367660	0.195573	0.527852
H579	H	0.326342	0.228038	0.436233
H580	H	0.304460	0.265760	0.458239
O581	O	0.252872	0.251753	-0.444095
C582	C	0.326149	0.211755	-0.443294
C583	C	0.280054	0.259611	-0.467343
H584	H	0.348136	0.218089	-0.462084
H585	H	0.338255	0.201402	-0.409915
H586	H	0.326171	0.180331	-0.440090
H587	H	0.279994	0.291067	-0.470579
H588	H	0.267966	0.269922	-0.500707
H589	H	0.395053	0.497282	0.206813
O590	O	0.276187	0.191333	0.210240
C591	C	0.214210	0.215349	0.233187
C592	C	0.238286	0.193097	0.209365
H593	H	0.183558	0.216792	0.232479
H594	H	0.235687	0.191241	0.267991
H595	H	0.205549	0.254524	0.216697
H596	H	0.246951	0.153926	0.225818
H597	H	0.216796	0.217241	0.174561
H598	H	0.130820	0.373946	-0.563173
O599	O	0.423728	0.449908	0.258999
C600	C	0.423846	0.522887	0.223923
C601	C	0.400709	0.499085	0.247037
H602	H	0.405240	0.562653	0.214237
H603	H	0.457781	0.500560	0.246449
H604	H	0.425631	0.523074	0.193940
H605	H	0.398891	0.498894	0.277018
H606	H	0.366787	0.521419	0.224481
O607	O	0.423787	0.324409	0.384336
C608	C	0.449096	0.238878	0.433619
C609	C	0.425916	0.285197	0.386712
H610	H	0.450817	0.207166	0.435557
H611	H	0.483055	0.227429	0.445196
H612	H	0.430550	0.247763	0.454836
H613	H	0.444427	0.276349	0.365462
H614	H	0.391956	0.296633	0.375170
H615	H	0.279614	0.416738	-0.021504
H616	H	0.245992	1.115333	-0.448306
H617	H	0.661484	0.416665	-0.527167
H618	H	0.279596	0.497056	0.207061
O619	O	0.236758	0.237241	0.124540
C620	C	0.177661	0.301372	0.057548
C621	C	0.223752	0.253508	0.081536
H622	H	0.167135	0.314544	0.022773
H623	H	0.154878	0.293645	0.073941
H624	H	0.176861	0.331385	0.058169
H625	H	0.224593	0.223473	0.080923
H626	H	0.246514	0.261276	0.065136
O627	O	0.213026	0.066027	0.021580
C628	C	0.213827	0.026048	-0.011706
C629	C	0.189779	0.073896	-0.013467
H630	H	0.195037	0.032390	-0.040032
H631	H	0.247205	0.015698	-0.013458
H632	H	0.217031	-0.005383	0.019701
H633	H	0.186543	0.105358	-0.044868
H634	H	0.156416	0.084203	-0.011691
H635	H	0.650481	0.376421	-0.347026
O636	O	0.650333	0.495187	-0.469139
C637	C	0.612448	0.533174	-0.542252
C638	C	0.613111	0.509391	-0.495317
H639	H	0.582362	0.544655	-0.563429
H640	H	0.612265	0.567292	-0.553871
H641	H	0.642249	0.505147	-0.544196
H642	H	0.583317	0.537381	-0.493336
H643	H	0.613316	0.475264	-0.483719
O644	O	-0.106959	0.617863	-0.530655
C645	C	-0.111406	0.621966	-0.595896
C646	C	-0.135363	0.644097	-0.571954
H647	H	-0.134363	0.643159	-0.629287
H648	H	-0.083164	0.625125	-0.599057
H649	H	-0.098961	0.581199	-0.577052
H650	H	-0.147836	0.684869	-0.590778
H651	H	-0.163585	0.640898	-0.568788
H652	H	0.667408	0.374431	-0.563732
H653	H	0.475951	0.301068	-0.021491
H654	H	0.245967	0.795190	-0.128102
O655	O	0.472244	0.297875	0.406609
C656	C	0.449055	0.274020	0.468431
C657	C	0.473032	0.296117	0.444507
H658	H	0.449691	0.272582	0.499081
H659	H	0.414276	0.298227	0.446853
H660	H	0.465474	0.234857	0.477084
H661	H	0.456649	0.335275	0.435850
H662	H	0.507810	0.271874	0.466098
H663	H	0.395060	0.497312	-0.021502
O664	O	0.557888	0.251633	0.446280
C665	C	0.580838	0.166730	0.493240
C666	C	0.557014	0.214620	0.447163
H667	H	0.580131	0.136796	0.493970
H668	H	0.615641	0.153408	0.503927
H669	H	0.564352	0.174546	0.515942
H670	H	0.573464	0.206844	0.424429
H671	H	0.522210	0.227928	0.436511
H672	H	-0.110581	0.621197	-0.411721
O673	O	0.661156	0.297808	-0.210255
C674	C	0.661532	0.232097	-0.205522
C675	C	0.663326	0.254381	-0.181725
H676	H	0.663296	0.196977	-0.182463
H677	H	0.630136	0.260261	-0.233763
H678	H	0.689871	0.222539	-0.217952
H679	H	0.635010	0.263938	-0.169267
H680	H	0.694741	0.226204	-0.153504
O681	O	0.667563	0.251995	-0.124618
C682	C	0.672595	0.187874	-0.057628
C683	C	0.670815	0.235736	-0.081616
H684	H	0.675234	0.174708	-0.022855
H685	H	0.642085	0.195602	-0.074025
H686	H	0.701818	0.157857	-0.058241
H687	H	0.641611	0.265775	-0.081011
H688	H	0.701344	0.227967	-0.065212
O689	O	0.151920	0.993729	-0.343680
C690	C	0.213127	0.927781	-0.278532
C691	C	0.166196	0.951591	-0.301689
H692	H	0.224680	0.893715	-0.244575
H693	H	0.234346	0.916212	-0.297073
H694	H	0.215089	0.955816	-0.276798
H695	H	0.164193	0.923583	-0.303428
H696	H	0.144998	0.963171	-0.283139
O697	O	0.213048	1.065996	-0.405160
C698	C	0.210450	1.001744	-0.345901
C699	C	0.186406	1.049627	-0.391982
H700	H	0.188917	0.988501	-0.335230
H701	H	0.241077	0.971757	-0.345144
H702	H	0.219150	1.009545	-0.323203
H703	H	0.177676	1.041874	-0.414708
H704	H	0.155798	1.079599	-0.392705
O705	O	0.026459	1.119192	-0.469122
C706	C	-0.038672	1.179554	-0.530347
C707	C	-0.015509	1.133266	-0.483426
H708	H	-0.072603	1.190941	-0.541929
H709	H	-0.040459	1.211317	-0.532324
H710	H	-0.020084	1.170650	-0.551534
H711	H	-0.034077	1.142122	-0.462210
H712	H	-0.013716	1.101517	-0.481483
O713	O	0.026463	0.993861	-0.343811
C714	C	-0.038688	0.997806	-0.348561
C715	C	-0.015529	1.021573	-0.371679
H716	H	-0.072646	1.020207	-0.371079
H717	H	-0.020153	0.958059	-0.338916
H718	H	-0.040419	0.997576	-0.318555
H719	H	-0.013794	1.021840	-0.401700
H720	H	-0.034074	1.061308	-0.381292
O721	O	0.126783	0.792339	-0.125036
C722	C	0.061415	0.796727	-0.129759
C723	C	0.085493	0.818741	-0.153549
H724	H	0.028024	0.818070	-0.152799
H725	H	0.080145	0.755979	-0.117352
H726	H	0.058241	0.799854	-0.101501
H727	H	0.088672	0.815649	-0.181824
H728	H	0.066752	0.859479	-0.165925
H729	H	0.475932	0.416415	0.287705
O730	O	-0.192591	1.237061	-0.569779
C731	C	-0.259569	1.301167	-0.628895
C732	C	-0.235576	1.253282	-0.582814
H733	H	-0.294323	1.314290	-0.639451
H734	H	-0.259005	1.331219	-0.629716
H735	H	-0.243126	1.293419	-0.651645
H736	H	-0.252000	1.260982	-0.560037
H737	H	-0.236136	1.223245	-0.582028
O738	O	0.213148	0.871154	-0.210262
C739	C	0.278501	0.866798	-0.205528
C740	C	0.254413	0.844804	-0.181730
H741	H	0.311864	0.845510	-0.182468
H742	H	0.281730	0.863639	-0.233767
H743	H	0.259724	0.907556	-0.217961
H744	H	0.273169	0.804039	-0.169269
H745	H	0.251179	0.848001	-0.153512
O746	O	0.472616	-0.004969	0.406619
C747	C	0.477316	-0.009388	0.472004
C748	C	0.501121	-0.031375	0.447915
H749	H	0.500350	-0.030734	0.505399
H750	H	0.464893	0.031365	0.453285
H751	H	0.449068	-0.012536	0.475169
H752	H	0.529386	-0.028262	0.444745
H753	H	0.513512	-0.072117	0.466644
H754	H	0.420475	0.446473	-0.026118
H755	H	0.243041	0.569942	-0.015594
O756	O	0.276137	0.493961	-0.021763
C757	C	0.210916	0.498024	-0.021364
C758	C	0.234842	0.520187	-0.019588
H759	H	0.177528	0.519212	-0.019597
H760	H	0.207750	0.501162	-0.052756
H761	H	0.229773	0.457262	0.006981
H762	H	0.216005	0.560955	-0.047911
H763	H	0.238013	0.517009	0.011822
H764	H	0.554502	0.374524	-0.015603
H765	H	0.708801	0.042847	0.377656
H766	H	0.554767	0.258840	-0.015576
H767	H	-0.189136	0.693828	-0.563742
H768	H	-0.188869	0.230699	0.015496
H769	H	0.395069	0.301059	-0.021479
H770	H	0.145191	-0.002837	0.032372
O771	O	0.361844	0.252002	-0.015319
C772	C	0.359000	0.187871	-0.010268
C773	C	0.335111	0.235734	-0.012053
H774	H	0.337400	0.174699	-0.007618
H775	H	0.367660	0.195601	-0.040783
H776	H	0.389642	0.157858	0.018951
H777	H	0.304454	0.265770	-0.041252
H778	H	0.326484	0.227964	0.018482
H779	H	-0.110062	0.188226	0.021409
O780	O	0.362540	0.111501	0.446322
C781	C	0.427893	0.045798	0.507317
C782	C	0.403807	0.068075	0.461233
H783	H	0.461258	0.010679	0.519390
H784	H	0.431117	0.073967	0.507379
H785	H	0.409117	0.036241	0.529312
H786	H	0.422562	0.077630	0.439212
H787	H	0.400578	0.039893	0.461206
H788	H	0.395354	0.072508	0.207087
H789	H	0.279666	0.188175	0.287726
H790	H	0.395357	0.072508	0.403172
H791	H	0.704214	0.188270	0.287399
