data_functionalizedCrystal
_audit_creation_method	'MofGen! by Chris Wilmer'
_symmetry_space_group_name_H-M	'P1'
_symmetry_Int_Tables_number	1
_symmetry_cell_setting	triclinic
loop_
_symmetry_equiv_pos_as_xyz
  x,y,z
_cell_length_a	18.050591
_cell_length_b	21.295412
_cell_length_c	18.050588
_cell_angle_alpha	89.974935
_cell_angle_beta	90.025567
_cell_angle_gamma	89.970494
loop_
_atom_site_label
_atom_site_type_symbol
_atom_site_fract_x
_atom_site_fract_y
_atom_site_fract_z
Zn1	Zn	1.135349	-0.356037	-0.295757
Zn2	Zn	1.135238	-0.250772	-0.419949
Zn3	Zn	1.011149	-0.250771	-0.295768
Zn4	Zn	1.011113	-0.355993	-0.419901
O5	O	1.073212	-0.303393	-0.357844
O6	O	1.239258	-0.342092	-0.312247
O7	O	1.118746	-0.162683	-0.403501
O8	O	1.027686	-0.264752	-0.191842
O9	O	1.239177	-0.264755	-0.403490
O10	O	1.118935	-0.342090	-0.191834
O11	O	1.027579	-0.162681	-0.312266
O12	O	0.907220	-0.264710	-0.312220
O13	O	1.027624	-0.444088	-0.403408
O14	O	0.907193	-0.342016	-0.403419
O15	O	1.118900	-0.444120	-0.312200
O16	O	1.118711	-0.264712	-0.523867
O17	O	1.027517	-0.342018	-0.523832
C18	C	0.880260	-0.303358	-0.357816
C19	C	0.797714	-0.303358	-0.357822
C20	C	0.598256	-0.261416	-0.308170
C21	C	0.548832	-0.245926	-0.375908
C22	C	0.646584	-0.303387	-0.357845
C23	C	0.548926	-0.318875	-0.290131
C24	C	0.500599	-0.303413	-0.357861
C25	C	0.598247	-0.287867	-0.425618
C26	C	0.598345	-0.360843	-0.339796
C27	C	0.548943	-0.345375	-0.407579
C28	C	0.730682	-0.303370	-0.357835
C29	C	0.416502	-0.303430	-0.357878
C30	C	1.073270	-0.467583	-0.357798
C31	C	1.073295	-0.537552	-0.357778
C32	C	1.025837	-0.570408	-0.310267
C33	C	1.025834	-0.636150	-0.310253
C34	C	1.073303	-0.669034	-0.357743
C35	C	1.120764	-0.636170	-0.405263
C36	C	1.120760	-0.570429	-0.405281
N37	N	1.138313	-0.772279	-0.363419
N38	N	1.138315	-0.834730	-0.363398
C39	C	1.073317	-0.867109	-0.357693
N40	N	1.008315	-0.834677	-0.351996
N41	N	1.008314	-0.772220	-0.352013
C42	C	1.073312	-0.740320	-0.357729
C43	C	1.025852	-0.971251	-0.310164
C44	C	1.025848	-1.036994	-0.310156
C45	C	1.120785	-1.037013	-0.405162
C46	C	1.120782	-0.971270	-0.405175
C47	C	1.073316	-0.938393	-0.357672
C48	C	1.266918	-0.303428	-0.357872
C49	C	1.349463	-0.303443	-0.357884
C50	C	1.073118	-0.303374	-0.550796
C51	C	1.073146	-0.303387	-0.633342
C52	C	1.073197	-0.139841	-0.357836
C53	C	1.073316	-0.069874	-0.357647
C54	C	1.023632	-0.345426	-0.882175
C55	C	1.091351	-0.360879	-0.832710
C56	C	1.073300	-0.303422	-0.930462
C57	C	1.005508	-0.287981	-0.832846
C58	C	1.073220	-0.303407	-0.784477
C59	C	1.141055	-0.318906	-0.882084
C60	C	1.055166	-0.245981	-0.882224
C61	C	1.122932	-0.261412	-0.832781
C62	C	1.073344	-0.303433	-1.014560
C63	C	1.073183	-0.303396	-0.700381
C64	C	1.073327	-0.303426	-0.164138
C65	C	1.073376	-0.303440	-0.081592
H66	H	0.619822	-0.274724	-0.482906
H67	H	0.527086	-0.197348	-0.391186
C68	C	1.112030	-0.426490	-0.803323
H69	H	1.076721	-0.456293	-0.820231
H70	H	1.159819	-0.437744	-0.820906
H71	H	1.112290	-0.425912	-0.750698
C72	C	0.519867	-0.393335	-0.464399
H73	H	0.536846	-0.382239	-0.512462
H74	H	0.537569	-0.434018	-0.451983
H75	H	0.467241	-0.393326	-0.463815
H76	H	0.987202	-0.944481	-0.271485
C77	C	0.973633	-0.672300	-0.257984
H78	H	0.945368	-0.643303	-0.229693
H79	H	0.941258	-0.697931	-0.286375
H80	H	1.002075	-0.697959	-0.225624
H81	H	1.159436	-1.063786	-0.443828
C82	C	0.627754	-0.426445	-0.319129
H83	H	0.610898	-0.437380	-0.270971
H84	H	0.610136	-0.456377	-0.353929
H85	H	0.680378	-0.426047	-0.319718
C86	C	1.034459	-0.180388	-0.911635
H87	H	0.986280	-0.169484	-0.894809
H88	H	1.069219	-0.150437	-0.893989
H89	H	1.035083	-0.180783	-0.964258
H90	H	1.198369	-0.332015	-0.903624
H91	H	0.527222	-0.331942	-0.232867
H92	H	0.987184	-0.543643	-0.271589
H93	H	1.159414	-0.662948	-0.443930
C94	C	1.172971	-0.534286	-0.457541
H95	H	1.201245	-0.563283	-0.485821
H96	H	1.144543	-0.508620	-0.489899
H97	H	1.205349	-0.508661	-0.429137
H98	H	0.987196	-1.063745	-0.271469
H99	H	1.159429	-0.944519	-0.443862
H100	H	0.981716	-0.380981	-0.903861
C101	C	1.179687	-0.213422	-0.803651
H102	H	1.154943	-0.182622	-0.774722
H103	H	1.215472	-0.234362	-0.773968
H104	H	1.203653	-0.193668	-0.844294
C105	C	0.627516	-0.213419	-0.251486
H106	H	0.610561	-0.172624	-0.264440
H107	H	0.609904	-0.224011	-0.203499
H108	H	0.680142	-0.214004	-0.251562
C109	C	0.928113	-0.270358	-0.803599
H110	H	0.892917	-0.300254	-0.820513
H111	H	0.928771	-0.270112	-0.750978
H112	H	0.914898	-0.229844	-0.821271
