data_functionalizedCrystal
_audit_creation_method	'MofGen! by Chris Wilmer'
_symmetry_space_group_name_H-M	'P1'
_symmetry_Int_Tables_number	1
_symmetry_cell_setting	triclinic
loop_
_symmetry_equiv_pos_as_xyz
  x,y,z
_cell_length_a	13.033293
_cell_length_b	14.909028
_cell_length_c	13.033109
_cell_angle_alpha	93.459500
_cell_angle_beta	74.800007
_cell_angle_gamma	93.490287
loop_
_atom_site_label
_atom_site_type_symbol
_atom_site_fract_x
_atom_site_fract_y
_atom_site_fract_z
Zn1	Zn	1.715593	-0.258041	-0.791892
Zn2	Zn	1.700763	-0.390209	-0.606435
Zn3	Zn	1.515398	-0.258058	-0.591694
Zn4	Zn	1.547748	-0.423680	-0.759426
O5	O	1.619875	-0.332497	-0.687362
O6	O	1.861445	-0.261559	-0.787048
O7	O	1.656429	-0.358677	-0.456668
O8	O	1.534621	-0.133429	-0.625669
O9	O	1.850550	-0.358661	-0.650793
O10	O	1.681703	-0.133417	-0.772754
O11	O	1.520242	-0.261587	-0.445838
O12	O	1.371869	-0.294043	-0.594187
O13	O	1.589758	-0.415709	-0.911543
O14	O	1.395637	-0.415725	-0.717419
O15	O	1.713073	-0.294015	-0.935396
O16	O	1.687798	-0.519275	-0.619311
O17	O	1.575379	-0.543866	-0.731713
C18	C	1.345426	-0.358518	-0.650681
C19	C	1.228019	-0.369674	-0.635012
C20	C	1.181085	-0.326697	-0.695538
C21	C	1.059739	-0.338226	-0.679345
C22	C	1.633522	-0.563884	-0.673615
C23	C	1.639461	-0.662867	-0.667783
C24	C	1.706414	-0.789547	-0.601110
C25	C	1.700839	-0.696543	-0.606586
C26	C	1.583652	-0.722203	-0.723504
C27	C	1.589227	-0.815207	-0.718027
C28	C	1.650612	-0.848875	-0.656829
C29	C	1.656193	-0.941881	-0.651359
C30	C	1.539000	-0.967539	-0.768270
C31	C	1.533424	-0.874535	-0.773747
C32	C	1.895397	-0.306374	-0.724186
C33	C	2.012808	-0.295243	-0.739878
C34	C	1.656678	-0.358594	-0.962867
C35	C	1.672361	-0.369715	-1.080271
C36	C	1.606208	-0.100205	-0.701188
C37	C	1.600383	-0.001217	-0.707081
C38	C	1.611971	-0.326634	-1.127255
C39	C	1.628179	-0.338127	-1.248598
C40	C	1.583273	-0.306432	-0.412940
C41	C	1.567779	-0.295040	-0.295578
H42	H	1.178366	-0.415002	-0.571205
H43	H	1.010090	-0.383557	-0.615533
O44	O	1.240474	-0.272681	-0.771642
C45	C	1.415550	-0.211868	-0.857097
C46	C	1.348427	-0.273086	-0.770885
H47	H	1.502840	-0.212159	-0.856498
H48	H	1.406331	-0.237718	-0.938473
H49	H	1.387151	-0.140347	-0.840090
H50	H	1.376782	-0.344621	-0.787791
H51	H	1.357650	-0.247161	-0.689536
O52	O	1.072192	-0.241225	-0.815990
C53	C	1.247267	-0.180413	-0.901452
C54	C	1.180146	-0.241628	-0.815237
H55	H	1.334558	-0.180704	-0.900857
H56	H	1.238044	-0.206266	-0.982827
H57	H	1.218868	-0.108892	-0.884448
H58	H	1.208501	-0.313164	-0.832140
H59	H	1.189372	-0.215701	-0.733889
O60	O	1.715829	-0.974439	-0.591826
C61	C	1.831517	-0.939167	-0.476481
C62	C	1.764002	-0.902179	-0.543847
H63	H	1.870501	-0.880764	-0.437691
H64	H	1.778334	-0.982088	-0.412107
H65	H	1.895763	-0.982046	-0.529844
H66	H	1.699749	-0.859262	-0.490571
H67	H	1.817254	-0.859308	-0.608231
H68	H	1.756406	-0.816960	-0.551290
O69	O	1.755150	-0.639036	-0.552433
C70	C	1.871917	-0.623404	-0.435833
C71	C	1.810483	-0.688630	-0.497134
H72	H	1.916651	-0.663475	-0.391090
H73	H	1.931048	-0.579181	-0.494273
H74	H	1.813460	-0.579258	-0.376693
H75	H	1.868859	-0.732834	-0.556274
H76	H	1.751337	-0.732792	-0.438631
H77	H	1.533666	-0.694777	-0.773322
H78	H	1.483443	-0.847111	-0.823570
O79	O	1.491715	-0.241002	-1.236281
C80	C	1.331814	-0.230828	-1.093305
C81	C	1.417900	-0.292121	-1.160360
H82	H	1.272101	-0.272138	-1.031921
H83	H	1.370652	-0.174818	-1.050829
H84	H	1.288919	-0.200158	-1.147584
H85	H	1.460825	-0.322855	-1.106156
H86	H	1.379001	-0.348080	-1.202847
H87	H	1.736062	-0.415107	-1.129880
H88	H	1.493565	-1.015855	-0.813646
H89	H	1.548265	-0.281247	-1.077645
O90	O	1.704168	-0.392215	-1.307932
C91	C	1.789536	-0.453049	-1.482961
C92	C	1.703456	-0.391756	-1.415895
H93	H	1.788974	-0.452713	-1.570259
H94	H	1.870955	-0.427298	-1.473731
H95	H	1.772353	-0.524570	-1.454522
H96	H	1.720539	-0.320219	-1.444290
H97	H	1.622064	-0.417581	-1.425129
