data_functionalizedCrystal
_audit_creation_method	'MofGen! by Chris Wilmer'
_symmetry_space_group_name_H-M	'P1'
_symmetry_Int_Tables_number	1
_symmetry_cell_setting	triclinic
loop_
_symmetry_equiv_pos_as_xyz
  x,y,z
_cell_length_a	14.044190
_cell_length_b	10.654550
_cell_length_c	9.130313
_cell_angle_alpha	89.993418
_cell_angle_beta	90.004732
_cell_angle_gamma	91.161661
loop_
_atom_site_label
_atom_site_type_symbol
_atom_site_fract_x
_atom_site_fract_y
_atom_site_fract_z
O1	O	0.133225	-1.681232	0.121939
O2	O	0.145919	-1.317029	0.121918
O3	O	0.001551	-1.493659	0.121899
O4	O	0.277593	-1.504602	0.121958
O5	O	0.001560	-1.493647	-0.121700
O6	O	0.145927	-1.317017	-0.121681
O7	O	0.133234	-1.681219	-0.121660
Cu8	Cu	0.139581	-1.499117	-0.143913
Cu9	Cu	0.139571	-1.499132	0.144171
O10	O	0.277601	-1.504589	-0.121641
C11	C	0.144991	-1.270131	0.000115
C12	C	0.142203	-1.130408	0.000105
C13	C	-0.033790	-1.488866	0.000095
C14	C	-0.139110	-1.474587	0.000082
N15	N	0.139588	-1.499116	-0.346536
C16	C	-0.388903	-1.549752	0.000144
C17	C	-0.331939	-1.448502	0.000127
C18	C	-0.224639	-1.463019	0.000102
C19	C	-0.496212	-1.535237	0.000169
C20	C	0.312943	-1.509383	0.000166
C21	C	0.418263	-1.523662	0.000189
C22	C	0.134161	-1.728117	0.000146
C23	C	0.136950	-1.867841	0.000165
C24	C	0.227204	-1.059467	0.000145
C25	C	0.224578	-0.928182	0.000169
C26	C	0.051942	-0.938791	0.000122
C27	C	0.054569	-1.070074	0.000087
C28	C	0.314837	-1.119801	0.000164
C29	C	0.399846	-1.048859	0.000205
C30	C	0.397220	-0.917574	0.000229
C31	C	0.309586	-0.857231	0.000213
C32	C	0.197651	-1.581782	-0.423184
C33	C	0.197633	-1.581799	-0.576521
C34	C	0.081488	-1.416472	-0.576547
C35	C	0.081501	-1.416463	-0.423213
C36	C	0.255737	-1.664435	-0.346506
C37	C	0.313806	-1.747107	-0.423155
C38	C	0.313788	-1.747124	-0.576492
C39	C	0.255702	-1.664468	-0.653180
N40	N	0.139557	-1.499142	0.346794
H41	H	-0.363756	-1.350916	0.000130
O42	O	-0.033098	-0.879978	0.000184
C43	C	-0.017189	-0.748893	0.000191
H44	H	0.056634	-0.726421	0.046328
H45	H	-0.022022	-0.711851	-0.116666
C46	C	-0.183673	-0.713695	0.039062
C47	C	-0.093005	-0.686094	0.095740
H48	H	-0.230442	-0.674956	0.097995
H49	H	-0.194392	-0.802009	0.039052
H50	H	-0.187687	-0.682825	-0.058318
H51	H	-0.088988	-0.716977	0.193110
H52	H	-0.082287	-0.597783	0.095768
H53	H	0.471194	-1.097999	0.000205
H54	H	0.316985	-1.226699	0.000150
O55	O	0.370251	-1.827515	-0.348894
C56	C	0.421511	-1.900463	-0.449432
H57	H	0.382280	-1.903414	-0.558727
H58	H	0.495604	-1.857025	-0.465763
C59	C	0.478596	-2.031216	-0.255317
C60	C	0.430408	-2.034849	-0.389551
H61	H	0.484089	-2.114110	-0.218379
H62	H	0.444065	-1.982068	-0.187581
H63	H	0.540335	-1.995012	-0.268945
H64	H	0.368667	-2.071038	-0.375919
H65	H	0.464929	-2.084007	-0.457284
H66	H	0.466438	-0.859817	0.000248
O67	O	-0.350997	-1.666192	0.000389
C68	C	-0.381512	-1.731891	0.126536
H69	H	-0.402619	-1.662019	0.214727
H70	H	-0.445457	-1.794841	0.098024
C71	C	-0.274028	-1.898822	0.075397
C72	C	-0.299945	-1.813004	0.183720
H73	H	-0.223716	-1.948861	0.110669
H74	H	-0.253472	-1.854562	-0.009593
H75	H	-0.327322	-1.951268	0.051647
H76	H	-0.246654	-1.760550	0.207454
H77	H	-0.320490	-1.857257	0.268716
O78	O	-0.028089	-1.138805	0.000126
C79	C	-0.105999	-1.057405	0.000097
H80	H	-0.082572	-0.962278	0.046242
H81	H	-0.132818	-1.045043	-0.116770
C82	C	-0.215296	-1.230522	0.038926
C83	C	-0.186525	-1.113689	0.095614
H84	H	-0.264971	-1.265242	0.097839
H85	H	-0.162807	-1.285365	0.038940
H86	H	-0.237639	-1.220205	-0.058463
H87	H	-0.164172	-1.124010	0.192993
H88	H	-0.239012	-1.058849	0.095619
O89	O	0.370046	-1.827561	-0.651014
C90	C	0.312804	-1.906832	-0.739707
H91	H	0.237420	-1.911873	-0.693490
H92	H	0.310917	-1.867833	-0.855927
C93	C	0.447242	-2.033102	-0.798790
C94	C	0.354657	-2.039303	-0.742019
H95	H	0.473060	-2.114815	-0.800223
H96	H	0.485809	-1.979694	-0.739041
H97	H	0.445658	-2.000598	-0.895636
H98	H	0.356244	-2.071792	-0.645170
H99	H	0.316091	-2.092720	-0.801752
O100	O	0.025077	-1.336039	-0.348974
C101	C	-0.026206	-1.263103	-0.449528
H102	H	0.013000	-1.260166	-0.558836
H103	H	-0.100303	-1.306542	-0.465820
C104	C	-0.083245	-1.132326	-0.255451
C105	C	-0.035088	-1.128710	-0.389701
H106	H	-0.088728	-1.049428	-0.218546
H107	H	-0.048698	-1.181467	-0.187704
H108	H	-0.144987	-1.168531	-0.269045
H109	H	0.026657	-1.092520	-0.376102
H110	H	-0.069625	-1.079560	-0.457444
H111	H	0.307455	-0.750330	0.000211
H112	H	0.255761	-1.664428	-0.221652
H113	H	0.255684	-1.664499	-0.778037
H114	H	0.034199	-1.349176	-0.638999
