data_functionalizedCrystal
_audit_creation_method	'MofGen! by Chris Wilmer'
_symmetry_space_group_name_H-M	'P1'
_symmetry_Int_Tables_number	1
_symmetry_cell_setting	triclinic
loop_
_symmetry_equiv_pos_as_xyz
  x,y,z
_cell_length_a	17.639181
_cell_length_b	17.640280
_cell_length_c	17.640968
_cell_angle_alpha	65.682561
_cell_angle_beta	92.163516
_cell_angle_gamma	109.607362
loop_
_atom_site_label
_atom_site_type_symbol
_atom_site_fract_x
_atom_site_fract_y
_atom_site_fract_z
Zn1	Zn	1.336294	0.572283	0.060694
Zn2	Zn	1.336229	0.737935	-0.104928
Zn3	Zn	1.181920	0.561073	-0.037942
Zn4	Zn	1.226345	0.682203	0.060727
O5	O	1.270197	0.638373	-0.005362
O6	O	1.446878	0.622272	0.010676
O7	O	1.297140	0.733107	-0.206649
O8	O	1.183832	0.442541	0.003163
O9	O	1.446830	0.743976	-0.111006
O10	O	1.297250	0.450776	0.075630
O11	O	1.183770	0.603167	-0.157435
O12	O	1.077220	0.549126	0.003195
O13	O	1.259550	0.648989	0.171330
O14	O	1.109860	0.638119	0.075687
O15	O	1.340328	0.568231	0.171305
O16	O	1.340218	0.850561	-0.110974
O17	O	1.259487	0.809615	0.010733
C18	C	1.064865	0.586359	0.046714
C19	C	0.977029	0.564124	0.069006
C20	C	0.687921	0.807475	-0.174749
C21	C	0.605386	0.786570	-0.153792
C22	C	0.605487	0.659991	-0.026976
C23	C	0.688023	0.680883	-0.047924
C24	C	0.729234	0.754627	-0.121811
C25	C	0.729336	0.628035	0.005014
C26	C	0.811866	0.648929	-0.015930
C27	C	0.853084	0.722671	-0.089813
C28	C	0.811764	0.775521	-0.142755
C29	C	0.688125	0.554295	0.078904
C30	C	0.729438	0.501447	0.131842
C31	C	0.811968	0.522337	0.110895
C32	C	0.853186	0.596079	0.037012
C33	C	0.853288	0.469487	0.163837
C34	C	0.935818	0.490381	0.142893
C35	C	0.935716	0.616973	0.016068
C36	C	1.304691	0.861210	-0.057374
C37	C	1.319524	0.956555	-0.079617
C38	C	1.304902	0.603644	0.200798
C39	C	1.319691	0.588844	0.288652
C40	C	1.476331	0.690591	-0.057641
C41	C	1.564174	0.712844	-0.079919
C42	C	1.235593	0.414669	0.046865
C43	C	1.220847	0.319339	0.069121
C44	C	1.157883	1.163671	0.163820
C45	C	1.171818	1.253266	0.142894
C46	C	1.255963	1.295837	0.016247
C47	C	1.242038	1.206243	0.037164
C48	C	1.192996	1.140167	0.110951
C49	C	1.277152	1.182739	-0.015704
C50	C	1.263224	1.093154	0.005210
C51	C	1.214183	1.027072	0.078992
C52	C	1.179069	1.050581	0.131865
C53	C	1.326189	1.248817	-0.089493
C54	C	1.361302	1.225313	-0.142362
C55	C	1.347379	1.135726	-0.121445
C56	C	1.298338	1.069645	-0.047663
C57	C	1.382493	1.112217	-0.174318
C58	C	1.368566	1.022632	-0.153404
C59	C	1.284410	0.980059	-0.026749
C60	C	1.235663	0.672918	-0.210718
C61	C	1.220990	0.687514	-0.298553
C62	C	1.158076	0.750416	0.577645
C63	C	1.171988	0.736502	0.660195
C64	C	1.256096	0.652416	0.660159
C65	C	1.242188	0.666319	0.577609
C66	C	1.193178	0.715320	0.536358
C67	C	1.277290	0.631223	0.536322
C68	C	1.263386	0.645129	0.453777
C69	C	1.214381	0.694130	0.412520
C70	C	1.179275	0.729226	0.453813
C71	C	1.326304	0.582228	0.577572
C72	C	1.361406	0.547132	0.536285
C73	C	1.347498	0.561032	0.453741
C74	C	1.298492	0.610034	0.412484
C75	C	1.382604	0.525937	0.412447
C76	C	1.368700	0.539843	0.329903
C77	C	1.284589	0.623939	0.329939
H78	H	0.845319	0.835566	-0.202925
O79	O	1.402897	0.505903	0.289708
C80	C	1.453437	0.575710	0.217603
H81	H	1.472954	0.640303	0.225475
H82	H	1.509302	0.560259	0.208477
H83	H	1.418925	0.583015	0.160552
H84	H	0.969271	0.677017	-0.044102
H85	H	1.202837	0.954126	0.096015
O86	O	0.607980	0.534153	0.099220
C87	C	0.596543	0.606003	0.107213
H88	H	0.649459	0.669712	0.070033
H89	H	0.537666	0.613212	0.082012
H90	H	0.593256	0.593185	0.176054
H91	H	1.244482	0.926256	0.033340
O92	O	1.430092	0.478218	0.452607
C93	C	1.384582	0.403397	0.524718
H94	H	1.317329	0.386516	0.516876
H95	H	1.403115	0.344477	0.533816
H96	H	1.396502	0.418695	0.581773
O97	O	0.933279	0.742951	-0.110018
C98	C	0.977049	0.759356	-0.046483
H99	H	0.934911	0.725064	0.014539
H100	H	1.028655	0.732299	-0.037369
H101	H	1.002976	0.833968	-0.065243
O102	O	1.200817	0.707755	0.332324
C103	C	1.150017	0.758509	0.304778
H104	H	1.154717	0.797801	0.343458
H105	H	1.169594	0.806399	0.235907
H106	H	1.084663	0.712370	0.312695
H107	H	0.721476	0.867520	-0.234919
H108	H	0.969455	0.447345	0.185999
O109	O	1.402719	0.999693	-0.204636
C110	C	1.453257	0.953168	-0.160425
H111	H	1.433328	0.922601	-0.090337
H112	H	1.448660	0.898279	-0.180596
H113	H	1.518646	1.000999	-0.174590
O114	O	0.565368	0.837982	-0.205333
C115	C	0.619448	0.907562	-0.275023
H116	H	0.672383	0.887772	-0.284439
H117	H	0.586507	0.921067	-0.333369
H118	H	0.643185	0.970111	-0.263616
H119	H	1.337529	1.321762	-0.106518
H120	H	0.695873	0.441407	0.192002
O121	O	1.110492	0.798088	0.537670
C122	C	1.082476	0.826073	0.591814
H123	H	1.125202	0.827307	0.641764
H124	H	1.080511	0.895542	0.554325
H125	H	1.019064	0.778002	0.623133
H126	H	1.143400	0.765085	0.693808
O127	O	0.813189	0.397950	0.235643
C128	C	0.781642	0.426206	0.287321
H129	H	0.774628	0.492742	0.247322
H130	H	0.719991	0.374809	0.320846
H131	H	0.824795	0.433916	0.335583
O132	O	1.430225	1.176337	-0.245961
C133	C	1.508493	1.171430	-0.243466
H134	H	1.505120	1.101670	-0.198306
H135	H	1.533897	1.186943	-0.308763
H136	H	1.549751	1.221707	-0.221315
O137	O	0.565514	0.588268	0.044762
C138	C	0.569529	0.510748	0.042446
H139	H	0.624046	0.529207	-0.002717
H140	H	0.576037	0.463481	0.107782
H141	H	0.511753	0.476871	0.020403
H142	H	1.139141	0.996778	0.191955
O143	O	1.303651	0.604806	0.700368
C144	C	1.308416	0.600079	0.782070
H145	H	1.253674	0.610823	0.802260
H146	H	1.309120	0.531909	0.827080
H147	H	1.366306	0.653680	0.782936
O148	O	1.110206	1.099587	0.235519
C149	C	1.082224	1.139540	0.277719
H150	H	1.083978	1.208172	0.231124
H151	H	1.017351	1.096515	0.307940
H152	H	1.122713	1.146240	0.328218
H153	H	1.143232	1.272397	0.185958
O154	O	1.339840	0.568876	0.657719
C155	C	1.377511	0.651568	0.660958
H156	H	1.363633	0.705562	0.605287
H157	H	1.353525	0.648473	0.721670
H158	H	1.445833	0.667536	0.658539
O159	O	1.303597	1.360138	-0.055384
C160	C	1.308336	1.444249	-0.062525
H161	H	1.294583	1.439661	0.002169
H162	H	1.371922	1.494143	-0.090803
H163	H	1.262338	1.466956	-0.104714
H164	H	1.401229	1.279124	-0.202441
H165	H	1.401312	0.507239	0.569882
O166	O	1.237102	0.671689	0.289832
C167	C	1.270995	0.758140	0.285681
H168	H	1.338616	0.774622	0.291370
H169	H	1.261626	0.807938	0.223221
H170	H	1.240152	0.761768	0.339095
O171	O	1.131788	0.776975	0.413707
C172	C	1.165681	0.863427	0.409556
H173	H	1.233302	0.879909	0.415245
H174	H	1.156312	0.913224	0.347095
H175	H	1.134838	0.867055	0.462969
