data_functionalizedCrystal
_audit_creation_method	'MofGen! by Chris Wilmer'
_symmetry_space_group_name_H-M	'P1'
_symmetry_Int_Tables_number	1
_symmetry_cell_setting	triclinic
loop_
_symmetry_equiv_pos_as_xyz
  x,y,z
_cell_length_a	14.395555
_cell_length_b	20.875641
_cell_length_c	20.875641
_cell_angle_alpha	60.089808
_cell_angle_beta	90.001254
_cell_angle_gamma	62.441332
loop_
_atom_site_label
_atom_site_type_symbol
_atom_site_fract_x
_atom_site_fract_y
_atom_site_fract_z
Zr1	Zr	0.937398	0.694375	-0.105786
O2	O	0.801268	0.820611	-0.209048
O3	O	0.974036	0.563121	-0.070855
O4	O	0.987716	0.687145	-0.204328
O5	O	0.782591	0.704041	0.025983
O6	O	1.140584	0.687149	-0.204330
O7	O	0.787588	0.696588	-0.075576
O8	O	1.116113	0.465294	0.034427
O9	O	0.807062	0.925897	-0.212774
O10	O	1.109899	0.618970	-0.059917
O11	O	0.992086	0.624528	0.015877
O12	O	1.008193	0.770550	-0.141269
O13	O	0.890380	0.776109	-0.065475
Zr14	Zr	1.173235	0.706269	0.056185
Zr15	Zr	1.181204	0.694382	-0.105790
Zr16	Zr	0.929428	0.706262	0.056189
Zr17	Zr	0.946639	0.862293	-0.111729
Zr18	Zr	1.163994	0.538352	0.062128
O19	O	1.136597	0.837524	0.021254
O20	O	1.147929	0.820622	-0.209054
O21	O	0.789936	0.837513	0.021260
O22	O	1.309365	0.580033	0.159447
O23	O	1.320697	0.563131	-0.070861
O24	O	0.962704	0.580023	0.159453
O25	O	1.328042	0.696604	-0.075585
O26	O	1.122917	0.713500	0.154726
O27	O	0.970049	0.713495	0.154729
O28	O	1.323045	0.704057	0.025974
O29	O	1.000855	0.925902	-0.212777
O30	O	1.109778	0.474742	0.163176
O31	O	1.303571	0.474748	0.163173
O32	O	1.309906	0.465299	0.034424
O33	O	0.800727	0.935345	-0.084025
O34	O	0.994520	0.935351	-0.084029
O35	O	1.102440	0.630094	0.091668
O36	O	1.220253	0.624535	0.015873
O37	O	1.118547	0.776116	-0.065479
O38	O	1.000734	0.781675	0.010316
C39	C	1.043758	0.490283	-0.017367
C40	C	1.039835	0.418997	-0.014844
C41	C	1.099486	0.382605	-0.053223
C42	C	1.095802	0.315621	-0.050845
C43	C	1.032461	0.285033	-0.010093
C44	C	0.972808	0.321428	0.028291
C45	C	0.976499	0.388407	0.025917
C46	C	1.014835	0.085022	0.001253
C47	C	1.011147	0.018039	0.003622
C48	C	1.134143	0.012235	-0.075513
C49	C	1.137823	0.079220	-0.077887
C50	C	1.078175	0.115605	-0.039500
N51	N	1.028692	0.216566	-0.007663
N52	N	1.081951	0.184067	-0.041926
C53	C	0.750352	0.700313	-0.024796
C54	C	0.646850	0.700310	-0.024794
C55	C	0.641716	0.617661	0.019562
C56	C	0.549583	0.662692	0.047999
C57	C	0.554553	0.655285	-0.053209
C58	C	0.556079	0.745344	0.003685
C59	C	0.561064	0.737922	-0.097562
C60	C	0.468918	0.783013	-0.069145
C61	C	1.360281	0.700331	-0.024806
C62	C	1.463783	0.700335	-0.024808
C63	C	1.065286	0.685453	-0.227407
C64	C	1.068669	0.680407	-0.296170
C65	C	1.066875	0.910362	-0.032234
C66	C	1.070798	0.981648	-0.034757
C67	C	1.017171	0.757158	-0.370940
C68	C	1.020364	0.752411	-0.435547
C69	C	1.075050	0.670912	-0.425382
C70	C	1.126555	0.594156	-0.350605
C71	C	1.123367	0.598904	-0.285999
C72	C	1.090281	0.648229	-0.614049
C73	C	1.093462	0.643487	-0.678662
C74	C	0.987273	0.801742	-0.763599
C75	C	0.984085	0.806483	-0.698989
C76	C	1.035595	0.729727	-0.624217
N77	N	1.078312	0.666059	-0.491420
N78	N	1.032338	0.734581	-0.558181
C79	C	1.045347	0.715191	0.177806
C80	C	1.041964	0.720238	0.246568
C81	C	1.348722	0.490292	-0.017372
C82	C	1.448301	0.419009	-0.014851
C83	C	1.033789	0.505152	0.185239
C84	C	1.026482	0.438912	0.256525
C85	C	1.338753	0.505161	0.185234
C86	C	1.434949	0.438925	0.256518
C87	C	0.771880	0.895484	-0.234835
C88	C	0.675684	0.961720	-0.306119
C89	C	0.761911	0.910353	-0.032229
C90	C	0.662331	0.981635	-0.034750
C91	C	1.076844	0.895493	-0.234840
C92	C	1.084150	0.961732	-0.306126
C93	C	1.437462	0.382628	-0.053236
C94	C	1.531019	0.315659	-0.050883
C95	C	1.635414	0.285068	-0.010140
C96	C	1.646252	0.321455	0.028246
C97	C	1.552697	0.388427	0.025888
C98	C	1.080655	0.410711	0.329570
C99	C	1.073785	0.348483	0.396556
C100	C	1.012750	0.314451	0.390496
C101	C	0.958571	0.342658	0.317443
C102	C	0.965434	0.404890	0.250458
C103	C	1.541631	0.404918	0.250430
C104	C	1.632027	0.342691	0.317402
C105	C	1.615739	0.314467	0.390462
C106	C	1.509046	0.348481	0.396548
C107	C	1.418652	0.410711	0.329577
C108	C	0.569003	0.995735	-0.300031
C109	C	0.478607	1.057983	-0.367004
C110	C	0.494896	1.086210	-0.440064
C111	C	0.601588	1.052192	-0.446151
C112	C	0.691981	0.989950	-0.379179
C113	C	0.673172	1.018023	0.003628
C114	C	0.579617	1.085009	0.001256
C115	C	0.475221	1.115603	-0.039490
C116	C	0.464383	1.079212	-0.077872
C117	C	0.557938	1.012231	-0.075504
C118	C	1.145195	0.995744	-0.300041
C119	C	1.152082	1.057975	-0.367014
C120	C	1.097916	1.086196	-0.440073
C121	C	1.036869	1.052178	-0.446157
C122	C	1.029990	0.989944	-0.379184
H123	H	0.966270	0.114636	0.032513
C124	C	0.552309	0.603840	-0.085672
H125	H	0.612894	0.545125	-0.054091
H126	H	0.485775	0.604663	-0.085888
H127	H	0.556901	0.629983	-0.137059
H128	H	1.132225	0.585728	-0.553175
C129	C	0.787994	0.984381	0.048452
H130	H	0.781036	1.015659	0.070959
H131	H	0.823085	0.923895	0.088131
H132	H	0.830693	0.992856	0.013910
C133	C	0.395460	1.154671	-0.513729
H134	H	0.420432	1.166618	-0.558117
H135	H	0.350258	1.132712	-0.512947
H136	H	0.354350	1.206927	-0.515572
C137	C	1.564628	0.428442	0.068113
H138	H	1.493965	0.472716	0.060873
H139	H	1.599838	0.384172	0.121862
H140	H	1.607436	0.453140	0.047640
C141	C	1.147781	0.448147	0.336251
H142	H	1.179041	0.422441	0.389352
H143	H	1.204697	0.435446	0.313086
H144	H	1.100999	0.509656	0.310452
H145	H	0.566988	0.769682	-0.159082
H146	H	0.908877	0.314940	0.312520
H147	H	1.201790	1.085667	-0.362046
C148	C	1.761086	0.287788	0.073075
H149	H	1.754154	0.319043	0.095602
H150	H	1.796155	0.227300	0.112741
H151	H	1.803790	0.296260	0.038537
H152	H	1.352467	0.407534	-0.086423
H153	H	0.588463	1.114627	0.032515
C154	C	0.372321	1.189278	-0.042086
H155	H	0.393738	1.206558	-0.013385
H156	H	0.333676	1.237843	-0.094337
H157	H	0.326075	1.168876	-0.020116
C158	C	1.519077	0.275636	-0.093099
H159	H	1.443500	0.303440	-0.117688
H160	H	1.556967	0.283870	-0.130938
H161	H	1.549379	0.214904	-0.056708
C162	C	0.349545	1.112866	-0.122682
H163	H	0.295388	1.157961	-0.118583
H164	H	0.344991	1.135180	-0.175660
H165	H	0.337400	1.066214	-0.101432
C166	C	1.105482	1.154659	-0.513737
H167	H	1.149589	1.170876	-0.499643
H168	H	1.137596	1.130571	-0.542196
H169	H	1.033922	1.204780	-0.544811
H170	H	1.117909	0.325524	0.456032
C171	C	0.905849	0.435899	0.170113
H172	H	0.868527	0.406708	0.176105
H173	H	0.854292	0.497162	0.141016
H174	H	0.957974	0.422937	0.143655
C175	C	0.903132	0.287785	0.073116
H176	H	0.909467	0.242689	0.069026
H177	H	0.928539	0.265477	0.126090
H178	H	0.828390	0.334441	0.051870
C179	C	0.941472	-0.015610	0.048452
H180	H	0.947809	-0.060704	0.044358
H181	H	0.966883	-0.037924	0.101427
H182	H	0.866729	0.031043	0.027211
H183	H	0.927921	0.418039	0.057167
C184	C	1.559569	0.435955	0.170073
H185	H	1.636057	0.406790	0.176049
H186	H	1.524833	0.423003	0.143610
H187	H	1.528905	0.497224	0.140989
H188	H	1.711584	0.230533	-0.008225
C189	C	1.169167	0.416242	-0.098047
H190	H	1.204175	0.384966	-0.120556
H191	H	1.123097	0.476728	-0.137726
H192	H	1.223242	0.407763	-0.063503
H193	H	0.992770	1.075166	-0.505650
H194	H	1.171087	0.527798	-0.342333
H195	H	1.189304	0.972776	-0.240559
C196	C	1.161410	0.275598	-0.093068
H197	H	1.199650	0.303416	-0.117687
H198	H	1.212607	0.214870	-0.056686
H199	H	1.112442	0.283833	-0.130895
C200	C	1.207499	0.112861	-0.122714
H201	H	1.242504	0.081589	-0.145227
H202	H	1.161418	0.173347	-0.162390
H203	H	1.261575	0.104386	-0.088175
C204	C	1.199763	-0.027799	-0.117725
H205	H	1.188504	-0.072076	-0.110471
H206	H	1.175569	0.016460	-0.171477
H207	H	1.275714	-0.052498	-0.097254
C208	C	0.551065	0.964706	-0.219674
H209	H	0.474578	0.993895	-0.225652
H210	H	0.581714	0.903443	-0.190581
H211	H	0.585816	0.977662	-0.193221
C212	C	0.962822	0.952548	-0.385888
H213	H	0.931543	0.978280	-0.438992
H214	H	1.009563	0.891042	-0.360095
H215	H	0.905901	0.965270	-0.362725
C216	C	0.809326	0.952505	-0.385880
H217	H	0.860837	0.911388	-0.335534
H218	H	0.817688	0.924419	-0.411806
H219	H	0.821851	0.998608	-0.414428
C220	C	0.546005	0.972200	-0.117712
H221	H	0.616668	0.927928	-0.110474
H222	H	0.503189	0.947514	-0.097244
H223	H	0.510803	1.016468	-0.171467
C224	C	1.301305	0.448108	0.336279
H225	H	1.249793	0.489218	0.285934
H226	H	1.288827	0.401984	0.364833
H227	H	1.292896	0.476211	0.362200
C228	C	1.180006	0.514481	-0.203751
H229	H	1.170284	0.528980	-0.166730
H230	H	1.148466	0.481189	-0.196889
H231	H	1.256226	0.481194	-0.196888
H232	H	0.972632	0.823523	-0.379225
H233	H	1.007170	0.263778	0.445045
C234	C	1.749375	0.305278	0.310693
H235	H	1.746119	0.330992	0.257589
H236	H	1.789244	0.317989	0.333851
H237	H	1.785148	0.243769	0.336491
H238	H	1.689353	0.263795	0.444988
H239	H	1.495800	0.325492	0.456043
C240	C	0.361259	1.095383	-0.360295
H241	H	0.364513	1.069643	-0.307190
H242	H	0.325477	1.156887	-0.386078
H243	H	0.321398	1.082674	-0.383467
C244	C	0.619491	1.083241	-0.526518
H245	H	0.550370	1.125172	-0.565526
H246	H	0.661616	1.108957	-0.533126
H247	H	0.657515	1.034740	-0.530489
C248	C	0.923941	0.896129	-0.710170
H249	H	0.929412	0.887964	-0.660984
H250	H	0.956526	0.927864	-0.738207
H251	H	0.848765	0.927861	-0.738207
C252	C	0.741765	0.523267	0.070296
H253	H	0.738392	0.496680	0.121990
H254	H	0.741304	0.490997	0.050629
H255	H	0.807330	0.523895	0.069580
H256	H	0.543699	0.630902	0.109533
H257	H	0.557648	0.783393	0.027782
C258	C	0.963704	0.836834	-0.517792
H259	H	0.973440	0.822337	-0.554815
H260	H	0.887491	0.870113	-0.524649
H261	H	0.995241	0.870133	-0.524658
C262	C	0.369054	0.877499	-0.119815
H263	H	0.369006	0.909357	-0.099514
H264	H	0.373121	0.904453	-0.171294
H265	H	0.303418	0.876973	-0.119879
H266	H	1.137993	0.577118	-0.670377
H267	H	0.945337	0.864233	-0.824483
