data_functionalizedCrystal
_audit_creation_method	'MofGen! by Chris Wilmer'
_symmetry_space_group_name_H-M	'P1'
_symmetry_Int_Tables_number	1
_symmetry_cell_setting	triclinic
loop_
_symmetry_equiv_pos_as_xyz
  x,y,z
_cell_length_a	23.204064
_cell_length_b	23.204065
_cell_length_c	23.204116
_cell_angle_alpha	120.002578
_cell_angle_beta	90.001641
_cell_angle_gamma	59.999902
loop_
_atom_site_label
_atom_site_type_symbol
_atom_site_fract_x
_atom_site_fract_y
_atom_site_fract_z
O1	O	0.491196	0.412486	0.017145
O2	O	0.407392	0.294474	-0.017063
O3	O	0.407388	0.412485	0.100949
O4	O	0.491200	0.294475	-0.100867
O5	O	0.311537	0.508337	0.100949
O6	O	0.311541	0.390325	-0.017063
O7	O	0.395345	0.508338	0.017145
Cu8	Cu	0.344691	0.458083	0.000041
Cu9	Cu	0.458046	0.344728	0.000041
O10	O	0.395349	0.390326	-0.100867
C11	C	0.554177	0.694409	0.035873
C12	C	0.518614	0.765535	0.030981
C13	C	0.519335	0.659892	0.036357
C14	C	0.658537	0.590050	0.035873
C15	C	0.734555	0.549594	0.030981
C16	C	0.623536	0.555691	0.036357
C17	C	0.554179	0.590046	0.035868
C18	C	0.518619	0.549586	0.030970
C19	C	0.623534	0.659896	0.036363
C20	C	0.489889	0.516898	0.027011
C21	C	0.489883	0.822996	0.027027
C22	C	0.795971	0.516910	0.027027
C23	C	0.453847	0.475890	0.022046
C24	C	0.453838	0.895085	0.022067
C25	C	0.873019	0.475906	0.022068
C26	C	0.310652	0.181456	-0.024833
C27	C	0.346214	0.110333	-0.019937
C28	C	0.241294	0.215972	-0.025318
C29	C	0.310654	0.285812	-0.024840
C30	C	0.346219	0.326265	-0.019950
C31	C	0.241296	0.320169	-0.025325
C32	C	0.206293	0.285816	-0.024833
C33	C	0.130273	0.326275	-0.019936
C34	C	0.345497	0.215968	-0.025325
C35	C	0.554187	0.212776	-0.445767
C36	C	0.518624	0.253234	-0.481328
C37	C	0.623545	0.142931	-0.480612
C38	C	0.554188	0.212776	-0.341408
C39	C	0.518625	0.253232	-0.265389
C40	C	0.623546	0.142930	-0.376411
C41	C	0.658547	0.108416	-0.445769
C42	C	0.734567	0.037290	-0.481333
C43	C	0.519344	0.247132	-0.376409
C44	C	0.795983	-0.020171	-0.510065
C45	C	0.489893	0.285921	-0.510057
C46	C	0.489895	0.285918	-0.203972
C47	C	0.873033	-0.092260	-0.546110
C48	C	0.453848	0.326927	-0.546099
C49	C	0.453851	0.326923	-0.126922
O50	O	1.100891	0.390334	-0.017051
O51	O	0.899075	0.508351	0.017163
O52	O	1.017073	0.390332	-0.100851
O53	O	0.982893	0.508353	0.100964
O54	O	1.017071	0.294487	-0.100841
O55	O	0.899073	0.412506	0.017174
O56	O	1.100889	0.294489	-0.017041
Cu57	Cu	0.999981	0.344746	0.000068
Cu58	Cu	0.999983	0.458094	0.000055
O59	O	0.982891	0.412508	0.100974
O60	O	0.311536	1.083838	-0.017050
O61	O	0.395337	0.916238	0.017165
O62	O	0.395348	0.916218	-0.100850
O63	O	0.311525	1.083858	0.100965
O64	O	0.491197	0.916222	-0.100844
O65	O	0.491185	0.916242	0.017170
O66	O	0.407385	1.083842	-0.017045
Cu67	Cu	0.458037	1.000043	0.000063
Cu68	Cu	0.344685	1.000038	0.000057
O69	O	0.407374	1.083862	0.100970
O70	O	1.100903	-0.281033	-0.592575
O71	O	0.899089	-0.113416	-0.508763
O72	O	1.017092	-0.113412	-0.508759
O73	O	0.982899	-0.281036	-0.592579
O74	O	1.017090	-0.113410	-0.604609
O75	O	0.899086	-0.113414	-0.604612
O76	O	1.100900	-0.281030	-0.688425
Cu77	Cu	0.999993	-0.197222	-0.655270
Cu78	Cu	0.999996	-0.197224	-0.541917
O79	O	0.982897	-0.281034	-0.688428
O80	O	0.407388	0.412485	-0.688408
O81	O	0.491196	0.294479	-0.604602
O82	O	0.491194	0.412488	-0.604596
O83	O	0.407390	0.294476	-0.688414
O84	O	0.395342	0.508341	-0.508744
O85	O	0.395344	0.390331	-0.508750
O86	O	0.311536	0.508338	-0.592555
Cu87	Cu	0.344688	0.458087	-0.541901
Cu88	Cu	0.458044	0.344730	-0.655257
O89	O	0.311538	0.390328	-0.592562
C90	C	0.206292	0.621365	0.310712
C91	C	0.130273	0.692490	0.346275
C92	C	0.241294	0.586850	0.345555
C93	C	0.310652	0.517004	0.206351
C94	C	0.346215	0.476547	0.130332
C95	C	0.345496	0.482648	0.241353
C96	C	0.310652	0.517004	0.310710
C97	C	0.346215	0.476547	0.346272
C98	C	0.241294	0.586850	0.241354
C99	C	0.975127	0.517038	0.310734
C100	C	0.980023	0.476587	0.346301
C101	C	0.974643	0.586882	0.345572
C102	C	0.975118	0.517029	0.206370
C103	C	0.980006	0.476568	0.130351
C104	C	0.974635	0.586874	0.241367
C105	C	0.975128	0.621392	0.310724
C106	C	0.980027	0.692515	0.346281
C107	C	0.974633	0.482679	0.241377
C108	C	0.310618	1.285878	0.310724
C109	C	0.346177	1.326341	0.346288
C110	C	0.241257	1.320241	0.345562
C111	C	0.310628	1.181500	0.206366
C112	C	0.346199	1.110360	0.130349
C113	C	0.241267	1.216020	0.241362
C114	C	0.206259	1.285878	0.310716
C115	C	0.130236	1.326341	0.346272
C116	C	0.345468	1.216020	0.241370
C117	C	1.035752	0.108410	-0.445739
C118	C	1.030854	0.037286	-0.481297
C119	C	1.036237	0.142920	-0.480587
C120	C	1.035762	0.212772	-0.341385
C121	C	1.030875	0.253233	-0.265366
C122	C	1.036247	0.247124	-0.376391
C123	C	1.035754	0.212764	-0.445748
C124	C	1.030857	0.253217	-0.481314
C125	C	1.036246	0.142928	-0.376382
C126	C	1.026900	0.285899	-0.510048
C127	C	1.026895	-0.020173	-0.510023
C128	C	1.026925	0.285922	-0.203950
C129	C	1.021936	0.326900	-0.546096
C130	C	1.021930	-0.092260	-0.546061
C131	C	1.021970	0.326931	-0.126901
O132	O	1.017143	0.390372	0.491280
O133	O	0.982918	0.508379	0.407472
O134	O	1.100935	0.390370	0.407457
O135	O	0.899127	0.508381	0.491295
O136	O	1.100924	0.294517	0.311611
O137	O	0.982907	0.412526	0.311626
O138	O	1.017132	0.294519	0.395435
Cu139	Cu	1.000019	0.344771	0.344779
Cu140	Cu	1.000032	0.458128	0.458128
O141	O	0.899116	0.412528	0.395450
C142	C	0.658582	0.589970	-0.445731
C143	C	0.734603	0.549511	-0.481288
C144	C	0.623586	0.555603	-0.480575
C145	C	0.554213	0.694344	-0.341379
C146	C	0.518642	0.765484	-0.265363
C147	C	0.519376	0.659820	-0.376382
C148	C	0.554227	0.589962	-0.445736
C149	C	0.518670	0.549495	-0.481299
C150	C	0.623573	0.659827	-0.376377
C151	C	0.489944	0.516801	-0.510029
C152	C	0.796020	0.516824	-0.510014
C153	C	0.489905	0.822957	-0.203948
C154	C	0.453906	0.475786	-0.546074
C155	C	0.873071	0.475817	-0.546052
C156	C	0.453853	0.895060	-0.126902
H157	H	0.462353	0.688770	0.037126
O158	O	0.656986	0.694433	-0.342811
C159	C	0.619232	0.775086	-0.323296
H160	H	0.561957	0.798537	-0.319564
H161	H	0.621265	0.815490	-0.269879
H162	H	0.643944	0.776448	-0.364662
O163	O	0.207700	1.181571	0.207947
C164	C	0.188161	1.158217	0.245716
H165	H	0.184424	1.195787	0.302993
H166	H	0.134743	1.169208	0.243679
H167	H	0.229516	1.090774	0.221018
H168	H	1.036976	0.114080	-0.348262
O169	O	0.413495	1.181495	0.207916
C170	C	0.456387	1.158185	0.245704
H171	H	0.429693	1.149661	0.279111
H172	H	0.509755	1.098453	0.207037
H173	H	0.464397	1.207591	0.281521
H174	H	0.402480	0.426438	0.213244
H175	H	0.973873	0.615762	0.402556
O176	O	0.451359	0.694272	-0.342968
C177	C	0.408466	0.717628	-0.380736
H178	H	0.442294	0.680057	-0.438014
H179	H	0.366035	0.706642	-0.378698
H180	H	0.382383	0.785070	-0.356039
O181	O	0.207732	1.387217	0.413584
C182	C	0.188159	1.369014	0.456483
H183	H	0.223400	1.300391	0.429805
H184	H	0.194497	1.401352	0.509860
H185	H	0.130755	1.390580	0.464474
O186	O	0.207731	0.387151	-0.026358
C187	C	0.188202	0.368918	-0.087488
H188	H	0.184463	0.315380	-0.107203
H189	H	0.134786	0.424374	-0.074465
H190	H	0.229562	0.352258	-0.130228
O191	O	0.973790	0.415565	0.207892
C192	C	1.034278	0.351217	0.204355
H193	H	1.055109	0.377224	0.247867
H194	H	1.019967	0.314319	0.211591
H195	H	1.076669	0.310073	0.150746
H196	H	0.213191	0.615740	0.402543
H197	H	0.651643	0.499484	0.037136
O198	O	1.037199	0.108542	-0.548581
C199	C	1.037509	0.154019	-0.571958
H200	H	1.059184	0.189365	-0.538765
H201	H	1.072229	0.110947	-0.629720
H202	H	0.981366	0.198518	-0.566292
H203	H	0.651634	0.688783	0.037144
H204	H	1.037035	0.303325	-0.348291
H205	H	0.651695	0.499394	-0.537562
O206	O	0.207855	0.621307	0.207801
C207	C	0.245583	0.644703	0.188267
H208	H	0.302869	0.607148	0.184509
H209	H	0.243518	0.633730	0.134859
H210	H	0.220871	0.712147	0.229637
H211	H	0.213196	0.187082	-0.026105
O212	O	0.413524	0.181396	-0.026395
C213	C	0.456414	0.100716	-0.087500
H214	H	0.429717	0.094007	-0.129431
H215	H	0.509781	0.086016	-0.108564
H216	H	0.464427	0.056886	-0.073918
H217	H	0.651645	0.114047	-0.348308
H218	H	0.651639	0.114039	-0.537603
H219	H	0.462356	0.303334	-0.348310
O220	O	0.973574	0.621388	0.207858
C221	C	0.912469	0.644716	0.188286
H222	H	0.870532	0.653258	0.223514
H223	H	0.891418	0.704443	0.194645
H224	H	0.926047	0.595313	0.130874
