data_functionalizedCrystal
_audit_creation_method	'MofGen! by Chris Wilmer'
_symmetry_space_group_name_H-M	'P1'
_symmetry_Int_Tables_number	1
_symmetry_cell_setting	triclinic
loop_
_symmetry_equiv_pos_as_xyz
  x,y,z
_cell_length_a	8.497374
_cell_length_b	8.497374
_cell_length_c	25.639242
_cell_angle_alpha	90.003377
_cell_angle_beta	90.012325
_cell_angle_gamma	90.005237
loop_
_atom_site_label
_atom_site_type_symbol
_atom_site_fract_x
_atom_site_fract_y
_atom_site_fract_z
Zn1	Zn	0.892552	0.628518	0.799311
Zn2	Zn	0.628818	0.892263	0.799307
Zn3	Zn	0.628731	0.628471	0.711902
Zn4	Zn	0.892501	0.892229	0.711890
O5	O	0.760651	0.760370	0.755602
O6	O	0.857626	0.663538	0.872476
O7	O	0.408044	0.857265	0.787716
O8	O	0.663713	0.407715	0.723504
O9	O	0.663861	0.857311	0.872473
O10	O	0.857541	0.407749	0.787723
O11	O	0.407980	0.663458	0.723500
O12	O	0.663663	0.663425	0.638735
O13	O	1.113270	0.857252	0.723483
O14	O	0.857453	0.857207	0.638726
O15	O	1.113308	0.663505	0.787711
O16	O	0.663811	1.113021	0.787704
O17	O	0.857538	1.112996	0.723479
C18	C	0.760544	0.760308	0.619760
C19	C	0.760535	0.760319	0.561646
C20	C	1.172131	0.760372	0.755599
C21	C	1.350775	0.760389	0.755600
C22	C	0.760673	1.170250	0.755596
C23	C	0.760648	1.348894	0.755610
C24	C	0.861462	0.861441	0.201287
C25	C	0.861487	0.861451	0.146683
O26	O	0.947207	0.947351	0.118449
N27	N	0.760754	0.760414	0.119363
C28	C	0.660000	0.659349	0.146651
O29	O	0.574322	0.573409	0.118400
C30	C	0.659985	0.659333	0.201255
C31	C	0.760713	0.760388	0.228571
C32	C	0.962183	0.962487	0.228603
C33	C	0.962156	0.962479	0.283204
C34	C	0.861407	0.861425	0.310488
C35	C	0.760686	0.760380	0.283171
C36	C	0.559240	0.558261	0.228541
C37	C	0.559234	0.558252	0.283149
C38	C	0.659963	0.659308	0.310465
C39	C	0.659909	0.659318	0.365056
N40	N	0.760642	0.760355	0.392375
C41	C	0.861391	0.861409	0.365091
C42	C	0.660043	0.659389	0.031981
C43	C	0.660050	0.659412	-0.022622
C44	C	0.861538	0.861513	-0.022587
C45	C	0.861523	0.861496	0.032017
C46	C	0.760776	0.760426	0.059300
C47	C	0.861325	0.861385	0.479756
C48	C	0.861284	0.861373	0.534362
C49	C	0.659802	0.659268	0.534322
C50	C	0.659836	0.659285	0.479721
C51	C	0.760611	0.760349	0.452440
O52	O	0.574237	0.573457	0.393324
O53	O	0.947070	0.947320	0.393349
C54	C	0.760759	0.760434	0.891975
C55	C	0.760805	0.760461	0.950089
H56	H	0.943311	0.943670	0.556600
O57	O	0.551393	0.550443	-0.052087
H58	H	0.578633	0.426667	-0.041612
H59	H	0.943389	0.943678	0.457550
O60	O	1.070822	1.071450	0.312664
H61	H	1.140888	1.141696	0.284511
H62	H	1.044234	1.044777	0.206394
H63	H	0.943579	0.943791	-0.044811
H64	H	0.577992	0.577087	0.054191
O65	O	0.450611	0.449251	0.199086
H66	H	0.380580	0.378974	0.227240
O67	O	0.450550	0.449259	0.312577
H68	H	0.380505	0.379014	0.284405
O69	O	0.970198	0.970453	0.061479
H70	H	0.899491	1.050614	0.086356
H71	H	0.577812	0.577001	0.457479
O72	O	0.551146	0.550268	0.563754
H73	H	0.568075	0.567234	0.606311
