data_functionalizedCrystal
_audit_creation_method	'MofGen! by Chris Wilmer'
_symmetry_space_group_name_H-M	'P1'
_symmetry_Int_Tables_number	1
_symmetry_cell_setting	triclinic
loop_
_symmetry_equiv_pos_as_xyz
  x,y,z
_cell_length_a	25.639239
_cell_length_b	12.594517
_cell_length_c	25.639233
_cell_angle_alpha	90.013711
_cell_angle_beta	89.981253
_cell_angle_gamma	89.961514
loop_
_atom_site_label
_atom_site_type_symbol
_atom_site_fract_x
_atom_site_fract_y
_atom_site_fract_z
Zn1	Zn	-0.208217	-1.627019	-0.295624
Zn2	Zn	-0.295636	-1.626864	-0.208189
Zn3	Zn	-0.208216	-1.449047	-0.208201
Zn4	Zn	-0.295623	-1.448935	-0.295591
O5	O	-0.251923	-1.537966	-0.251901
O6	O	-0.219819	-1.775945	-0.284034
O7	O	-0.284044	-1.603257	-0.135025
O8	O	-0.135051	-1.472767	-0.219817
O9	O	-0.284046	-1.775830	-0.219796
O10	O	-0.135052	-1.603523	-0.284046
O11	O	-0.219817	-1.472616	-0.135034
O12	O	-0.219805	-1.300086	-0.219785
O13	O	-0.284024	-1.472577	-0.368761
O14	O	-0.284023	-1.300004	-0.283991
O15	O	-0.219807	-1.603415	-0.368785
O16	O	-0.368800	-1.603149	-0.219764
O17	O	-0.368790	-1.472426	-0.283978
C18	C	-0.251913	-1.261425	-0.251886
C19	C	-0.251921	-1.143120	-0.251892
C20	C	-0.387766	-1.537787	-0.251877
C21	C	-0.445880	-1.537808	-0.251885
C22	C	-0.251914	-1.538001	-0.388274
C23	C	-0.251910	-1.538015	-0.446389
C24	C	-0.806235	-1.606212	-0.218522
C25	C	-0.860839	-1.606253	-0.218529
O26	O	-0.889070	-1.664226	-0.190136
N27	N	-0.888162	-1.538153	-0.251936
C28	C	-0.860878	-1.470016	-0.285342
O29	O	-0.889132	-1.412097	-0.313759
C30	C	-0.806274	-1.469981	-0.285337
C31	C	-0.778955	-1.538077	-0.251924
C32	C	-0.778915	-1.674303	-0.185112
C33	C	-0.724315	-1.674260	-0.185104
C34	C	-0.697034	-1.606126	-0.218507
C35	C	-0.724354	-1.538034	-0.251917
C36	C	-0.778991	-1.401850	-0.318746
C37	C	-0.724384	-1.401821	-0.318738
C38	C	-0.697064	-1.469917	-0.285325
C39	C	-0.642473	-1.469857	-0.285312
N40	N	-0.615150	-1.537956	-0.251904
C41	C	-0.642431	-1.606091	-0.218502
C42	C	-0.975548	-1.470096	-0.285350
C43	C	-1.030151	-1.470125	-0.285353
C44	C	-1.030109	-1.606364	-0.218540
C45	C	-0.975505	-1.606329	-0.218535
C46	C	-0.948226	-1.538196	-0.251943
C47	C	-0.527766	-1.605995	-0.218488
C48	C	-0.473160	-1.605943	-0.218482
C49	C	-0.473207	-1.469709	-0.285297
C50	C	-0.527808	-1.469756	-0.285301
C51	C	-0.555086	-1.537908	-0.251895
O52	O	-0.614208	-1.411916	-0.313691
O53	O	-0.614170	-1.664010	-0.190095
C54	C	-0.115550	-1.538175	-0.251937
C55	C	-0.057436	-1.538264	-0.251952
C56	C	-0.251934	-1.815587	-0.251917
C57	C	-0.251939	-1.933893	-0.251924
C58	C	-0.216945	-1.073881	-0.217037
C59	C	-0.264634	-1.003035	-0.204172
C60	C	-0.204256	-1.003167	-0.264766
C61	C	-0.299634	-1.073832	-0.239002
C62	C	-0.239224	-1.073971	-0.299618
C63	C	-0.286946	-1.003157	-0.286771
C64	C	-0.218373	-1.606229	-0.806770
C65	C	-0.218359	-1.606242	-0.861374
O66	O	-0.189906	-1.664154	-0.889627
N67	N	-0.251787	-1.538133	-0.888671
C68	C	-0.285229	-1.469998	-0.861361
O69	O	-0.313661	-1.412066	-0.889593
C70	C	-0.285241	-1.469980	-0.806758
C71	C	-0.251813	-1.538102	-0.779464
C72	C	-0.184948	-1.674344	-0.779476
C73	C	-0.184963	-1.674332	-0.724875
C74	C	-0.218404	-1.606205	-0.697569
C75	C	-0.251829	-1.538090	-0.724863
C76	C	-0.318679	-1.401841	-0.779448
C77	C	-0.318688	-1.401829	-0.724841
C78	C	-0.285260	-1.469950	-0.697547
C79	C	-0.285284	-1.469951	-0.642956
N80	N	-0.251855	-1.538060	-0.615659
C81	C	-0.218415	-1.606187	-0.642965
C82	C	-0.285202	-1.470039	-0.976032
C83	C	-0.285194	-1.470061	-1.030634
C84	C	-0.218322	-1.606304	-1.030644
C85	C	-0.218334	-1.606287	-0.976040
C86	C	-0.251773	-1.538149	-0.948735
C87	C	-0.218450	-1.606157	-0.528300
C88	C	-0.218470	-1.606142	-0.473695
C89	C	-0.285339	-1.469896	-0.473690
C90	C	-0.285321	-1.469915	-0.528291
C91	C	-0.251873	-1.538049	-0.555595
O92	O	-0.313721	-1.412066	-0.614669
O93	O	-0.189983	-1.664099	-0.614727
C94	C	-0.251895	-1.537993	-0.116059
C95	C	-0.251751	-1.538185	-0.057945
H96	H	-0.450918	-1.661395	-0.191272
O97	O	-0.185760	-1.672427	-1.057115
C98	C	-0.133652	-1.649216	-1.043786
H99	H	-0.132577	-1.608298	-1.004137
H100	H	-0.116036	-1.594520	-1.074514
C101	C	-0.103301	-1.803279	-1.089975
C102	C	-0.101981	-1.753030	-1.041274
H103	H	-0.083764	-1.867314	-1.088428
H104	H	-0.138407	-1.818915	-1.098957
H105	H	-0.088622	-1.757688	-1.115576
H106	H	-0.116666	-1.798615	-1.015675
H107	H	-0.066877	-1.737404	-1.032288
H108	H	-0.191211	-1.661635	-0.550525
H109	H	-0.450987	-1.414231	-0.312491
O110	O	-0.185832	-1.672302	-0.949473
C111	C	-0.152054	-1.611743	-0.917904
H112	H	-0.170494	-1.531054	-0.909713
H113	H	-0.113307	-1.600107	-0.938958
C114	C	-0.119941	-1.769412	-0.876103
C115	C	-0.142592	-1.670311	-0.866039
H116	H	-0.114102	-1.805540	-0.844111
H117	H	-0.142696	-1.810213	-0.897373
H118	H	-0.087655	-1.759701	-0.893650
H119	H	-0.174880	-1.680023	-0.848499
H120	H	-0.119842	-1.629513	-0.844765
O121	O	-0.226413	-1.111360	-0.347710
C122	C	-0.227041	-1.223293	-0.347120
H123	H	-0.253130	-1.252083	-0.314012
H124	H	-0.185721	-1.254360	-0.340996
C125	C	-0.216260	-1.229348	-0.440136
C126	C	-0.248306	-1.264708	-0.399474
H127	H	-0.229375	-1.254896	-0.472431
H128	H	-0.215835	-1.153936	-0.440533
H129	H	-0.181829	-1.255239	-0.435025
H130	H	-0.282735	-1.238806	-0.404582
H131	H	-0.248738	-1.340117	-0.399079
O132	O	-0.181628	-1.110810	-0.181867
C133	C	-0.131525	-1.073281	-0.195017
H134	H	-0.135292	-0.998267	-0.219606
H135	H	-0.109850	-1.136714	-0.218211
C136	C	-0.096357	-1.140063	-0.114632
C137	C	-0.100984	-1.047925	-0.144829
H138	H	-0.077517	-1.124426	-0.083675
H139	H	-0.130112	-1.165351	-0.105774
H140	H	-0.078296	-1.192915	-0.133967
H141	H	-0.119050	-0.995080	-0.125497
H142	H	-0.067231	-1.022627	-0.153684
H143	H	-0.163944	-0.972069	-0.275623
H144	H	-0.157742	-1.729802	-0.702657
O145	O	-0.152389	-1.740479	-0.805937
C146	C	-0.100281	-1.717278	-0.792603
H147	H	-0.099209	-1.676333	-0.752961
H148	H	-0.082655	-1.662610	-0.823338
C149	C	-0.069937	-1.871384	-0.838761
C150	C	-0.068620	-1.821102	-0.790069
H151	H	-0.050405	-1.935426	-0.837200
H152	H	-0.105042	-1.887014	-0.847746
H153	H	-0.055249	-1.825817	-0.864368
H154	H	-0.083313	-1.866664	-0.764464
H155	H	-0.033516	-1.805483	-0.781080
O156	O	-0.277520	-0.965724	-0.156082
C157	C	-0.323298	-0.904059	-0.159627
H158	H	-0.346158	-0.928300	-0.195847
H159	H	-0.312447	-0.816480	-0.162438
C160	C	-0.329008	-0.892489	-0.066289
C161	C	-0.357086	-0.922268	-0.110773
H162	H	-0.349849	-0.903715	-0.036153
H163	H	-0.298165	-0.934029	-0.063901
H164	H	-0.319966	-0.819507	-0.068639
H165	H	-0.366121	-0.995250	-0.108426
H166	H	-0.387931	-0.880739	-0.113160
H167	H	-0.339964	-1.104744	-0.228082
O168	O	-0.322349	-0.966383	-0.321892
C169	C	-0.372526	-1.002605	-0.308149
H170	H	-0.373454	-1.022319	-0.264766
H171	H	-0.382266	-1.076790	-0.331688
C172	C	-0.411788	-0.891120	-0.373227
C173	C	-0.412928	-0.915323	-0.319942
H174	H	-0.436710	-0.837283	-0.380503
H175	H	-0.377982	-0.866718	-0.382487
H176	H	-0.419902	-0.952947	-0.392836
H177	H	-0.404807	-0.853500	-0.300333
H178	H	-0.446733	-0.939713	-0.310678
H179	H	-0.191249	-1.661619	-0.451475
H180	H	-0.312419	-1.414602	-1.052852
H181	H	-0.702074	-1.729713	-0.157898
O182	O	-0.805417	-1.740668	-0.152752
C183	C	-0.836943	-1.809385	-0.182571
H184	H	-0.820476	-1.815797	-0.223758
H185	H	-0.878356	-1.776572	-0.184337
C186	C	-0.857909	-1.912236	-0.106533
C187	C	-0.837681	-1.920119	-0.157119
H188	H	-0.858367	-1.980541	-0.090832
H189	H	-0.836671	-1.865938	-0.086443
H190	H	-0.892418	-1.884888	-0.108012
H191	H	-0.803171	-1.947453	-0.155638
H192	H	-0.858914	-1.966424	-0.177208
H193	H	-1.052390	-1.414664	-0.312556
H194	H	-0.953265	-1.661779	-0.191328
H195	H	-0.312435	-1.414552	-0.953803
H196	H	-0.345899	-1.346369	-0.801662
O197	O	-0.351228	-1.335616	-0.698399
C198	C	-0.380719	-1.275488	-0.734203
H199	H	-0.382512	-1.319089	-0.773129
H200	H	-0.361573	-1.194675	-0.740002
C201	C	-0.434172	-1.206525	-0.665085
C202	C	-0.436378	-1.260080	-0.712894
H203	H	-0.468504	-1.197015	-0.651940
H204	H	-0.414302	-1.247031	-0.640962
H205	H	-0.418215	-1.139186	-0.669924
H206	H	-0.452329	-1.327422	-0.708053
H207	H	-0.456251	-1.219585	-0.737015
O208	O	-0.317812	-1.403651	-0.554727
C209	C	-0.347343	-1.343543	-0.518913
H210	H	-0.325939	-1.339888	-0.479990
H211	H	-0.387055	-1.382460	-0.513109
C212	C	-0.381156	-1.234741	-0.588018
C213	C	-0.354866	-1.230244	-0.540213
H214	H	-0.385799	-1.164854	-0.601157
H215	H	-0.361263	-1.275239	-0.612147
H216	H	-0.414247	-1.267176	-0.583175
H217	H	-0.321774	-1.197821	-0.545058
H218	H	-0.374754	-1.189738	-0.516085
H219	H	-0.312567	-1.414432	-0.451447
O220	O	-0.949132	-1.403797	-0.317817
C221	C	-0.984962	-1.343724	-0.347310
H222	H	-1.023894	-1.340105	-0.325892
H223	H	-0.990735	-1.382648	-0.387037
C224	C	-0.915894	-1.234858	-0.381097
C225	C	-0.963709	-1.230405	-0.354790
H226	H	-0.902784	-1.164959	-0.385714
H227	H	-0.891754	-1.275332	-0.361229
H228	H	-0.920711	-1.267299	-0.414201
H229	H	-0.958890	-1.197977	-0.321685
H230	H	-0.987848	-1.189923	-0.374652
H231	H	-1.052330	-1.661846	-0.191344
O232	O	-0.554178	-1.672226	-0.185987
C233	C	-0.518346	-1.732326	-0.156510
H234	H	-0.479448	-1.688694	-0.154682
H235	H	-0.512488	-1.813134	-0.175690
C236	C	-0.587441	-1.801347	-0.103115
C237	C	-0.539667	-1.747753	-0.100866
H238	H	-0.600592	-1.810868	-0.068792
H239	H	-0.611581	-1.760860	-0.122976
H240	H	-0.582552	-1.868681	-0.119101
H241	H	-0.544557	-1.680415	-0.084886
H242	H	-0.515527	-1.788229	-0.081002
H243	H	-0.801226	-1.346393	-0.345952
O244	O	-0.697829	-1.335580	-0.351119
C245	C	-0.666303	-1.266825	-0.321321
H246	H	-0.658117	-1.304407	-0.281714
H247	H	-0.687393	-1.187974	-0.315544
C248	C	-0.624490	-1.201311	-0.398724
C249	C	-0.614432	-1.247473	-0.350080
H250	H	-0.592494	-1.189369	-0.416464
H251	H	-0.645731	-1.247629	-0.418800
H252	H	-0.642066	-1.135606	-0.393903
H253	H	-0.596863	-1.313182	-0.354901
H254	H	-0.593187	-1.201166	-0.330005
H255	H	-0.550053	-1.414310	-0.312510
