data_functionalizedCrystal
_audit_creation_method	'MofGen! by Chris Wilmer'
_symmetry_space_group_name_H-M	'P1'
_symmetry_Int_Tables_number	1
_symmetry_cell_setting	triclinic
loop_
_symmetry_equiv_pos_as_xyz
  x,y,z
_cell_length_a	13.635800
_cell_length_b	23.752966
_cell_length_c	23.538149
_cell_angle_alpha	97.808383
_cell_angle_beta	83.505748
_cell_angle_gamma	79.933465
loop_
_atom_site_label
_atom_site_type_symbol
_atom_site_fract_x
_atom_site_fract_y
_atom_site_fract_z
V1	V	1.966364	-0.079886	-0.178714
O2	O	1.969719	0.003093	-0.174981
O3	O	1.934074	-0.157683	-0.177810
O4	O	1.925477	-0.078984	-0.256512
O5	O	1.978375	-0.076150	-0.095734
V6	V	2.211389	-0.069922	-0.168750
O7	O	2.089836	-0.101742	-0.200570
O8	O	2.313016	-0.048065	-0.146894
O9	O	2.132076	0.007876	-0.169655
O10	O	2.266732	-0.152901	-0.172483
O11	O	2.258076	-0.073657	-0.251730
O12	O	2.140673	-0.070823	-0.090952
V13	V	2.466364	-0.079886	-0.178714
O14	O	2.469719	0.003093	-0.174981
O15	O	2.434074	-0.157683	-0.177810
O16	O	2.425477	-0.078984	-0.256512
O17	O	2.478375	-0.076150	-0.095734
V18	V	2.711389	-0.069922	-0.168750
O19	O	2.589836	-0.101742	-0.200570
O20	O	2.813016	-0.048065	-0.146894
O21	O	2.632076	0.007876	-0.169655
O22	O	2.766732	-0.152901	-0.172483
O23	O	2.758076	-0.073657	-0.251730
O24	O	2.640673	-0.070823	-0.090952
C25	C	1.855146	-0.176638	-0.175072
C26	C	1.869277	-0.240240	-0.174851
C27	C	2.047149	-0.637580	-0.176411
C28	C	2.060442	-0.697343	-0.176212
O29	O	2.143967	-0.730743	-0.178567
N30	N	1.976960	-0.724307	-0.173242
C31	C	1.880180	-0.691505	-0.170477
O32	O	1.810393	-0.719928	-0.167933
C33	C	1.866889	-0.631744	-0.170680
C34	C	1.950376	-0.604783	-0.173644
C35	C	2.130629	-0.610618	-0.179375
C36	C	2.117337	-0.550859	-0.179573
C37	C	2.020564	-0.518062	-0.176806
C38	C	1.937084	-0.545024	-0.173842
C39	C	1.770111	-0.598945	-0.167919
C40	C	1.756827	-0.539180	-0.168122
C41	C	1.840314	-0.512218	-0.171086
C42	C	1.827019	-0.452467	-0.171272
N43	N	1.910501	-0.425504	-0.174242
C44	C	2.007273	-0.458301	-0.177009
C45	C	1.908099	-0.817008	-0.170052
C46	C	1.921388	-0.876768	-0.169845
C47	C	2.101649	-0.882601	-0.175581
C48	C	2.088358	-0.822840	-0.175784
C49	C	1.991580	-0.790044	-0.173022
C50	C	1.979351	-0.332802	-0.177423
C51	C	1.966049	-0.273037	-0.177618
C52	C	1.785790	-0.267210	-0.171885
C53	C	1.799090	-0.326969	-0.171687
C54	C	1.895878	-0.359764	-0.174458
O55	O	1.743525	-0.419031	-0.168921
O56	O	2.077047	-0.429872	-0.179560
C57	C	1.844180	-0.076249	-0.275465
C58	C	1.851339	-0.076026	-0.339067
C59	C	2.042675	0.026828	-0.172390
C60	C	2.018163	0.090429	-0.172615
C61	C	2.053641	-0.073560	-0.071997
C62	C	2.036102	-0.073780	-0.008393
C63	C	2.355146	-0.176638	-0.175072
C64	C	2.369277	-0.240240	-0.174851
C65	C	1.839979	-0.077959	0.383095
C66	C	1.823483	-0.078159	0.442858
O67	O	1.740755	-0.080679	0.471285
N68	N	1.902470	-0.075397	0.475670
C69	C	1.997958	-0.072429	0.448717
O70	O	2.063627	-0.070097	0.482114
C71	C	2.014451	-0.072225	0.388956
C72	C	1.935460	-0.074993	0.356146
C73	C	1.760995	-0.080727	0.350286
C74	C	1.777491	-0.080528	0.290527
C75	C	1.872972	-0.077562	0.263578
C76	C	1.951956	-0.074795	0.296388
C77	C	2.109936	-0.069253	0.362005
C78	C	2.126423	-0.069049	0.302240
C79	C	2.047431	-0.071817	0.269430
C80	C	2.063933	-0.071630	0.209680
N81	N	1.984946	-0.074393	0.176868
C82	C	1.889465	-0.077359	0.203817
C83	C	1.963313	-0.072855	0.574219
C84	C	1.946823	-0.073063	0.633978
C85	C	1.772348	-0.078792	0.628115
C86	C	1.788842	-0.078589	0.568354
C87	C	1.884326	-0.075618	0.541407
C88	C	1.924115	-0.076942	0.078320
C89	C	1.940622	-0.076746	0.018556
C90	C	2.115093	-0.071014	0.024425
C91	C	2.098590	-0.071213	0.084183
C92	C	2.003093	-0.074176	0.111129
O93	O	2.146632	-0.069109	0.181214
O94	O	1.823807	-0.079683	0.170415
C95	C	2.344180	-0.076249	-0.275465
C96	C	2.351339	-0.076026	-0.339067
C97	C	2.542675	0.026828	-0.172390
C98	C	2.518163	0.090429	-0.172615
C99	C	2.553641	-0.073560	-0.071997
C100	C	2.536102	-0.073780	-0.008393
C101	C	2.466049	-0.273037	-0.177618
C102	C	2.479342	-0.332800	-0.177419
C103	C	2.395860	-0.359764	-0.174450
C104	C	2.299080	-0.326963	-0.171684
C105	C	2.285789	-0.267202	-0.171887
C106	C	2.444829	-0.078786	-0.371864
C107	C	2.451568	-0.078570	-0.431624
C108	C	2.364816	-0.075597	-0.458588
C109	C	2.271317	-0.072835	-0.425787
C110	C	2.264579	-0.073048	-0.366027
C111	C	2.593883	0.123226	-0.169850
C112	C	2.570862	0.182989	-0.170051
C113	C	2.472120	0.209953	-0.173022
C114	C	2.396394	0.177151	-0.175786
C115	C	2.419414	0.117391	-0.175580
C116	C	2.440622	-0.076746	0.018556
C117	C	2.424125	-0.076945	0.078318
C118	C	2.503112	-0.074183	0.111130
C119	C	2.598600	-0.071215	0.084177
C120	C	2.615094	-0.071012	0.024417
H121	H	2.058164	-0.359498	-0.179681
H122	H	2.034039	-0.251088	-0.180030
C123	C	1.701949	-0.081627	0.532269
H124	H	1.642724	-0.083420	0.556883
H125	H	1.719119	-0.115206	0.503471
H126	H	1.690384	-0.048120	0.514199
C127	C	2.557889	-0.243388	-0.180884
H128	H	2.617422	-0.271488	-0.182508
H129	H	2.551392	-0.214837	-0.147541
H130	H	2.561525	-0.225559	-0.214628
C131	C	2.208103	-0.918684	-0.178629
H132	H	2.255925	-0.894071	-0.180422
H133	H	2.222097	-0.947478	-0.212211
H134	H	2.211961	-0.936758	-0.145124
C135	C	1.829552	-0.906420	-0.166573
H136	H	1.851317	-0.946709	-0.166844
H137	H	1.795403	-0.900783	-0.198966
H138	H	1.785281	-0.890063	-0.131879
C139	C	1.678271	-0.628590	-0.164666
H140	H	1.618742	-0.600492	-0.163056
H141	H	1.674620	-0.646425	-0.130929
H142	H	1.684782	-0.657138	-0.198017
H143	H	2.674290	0.101281	-0.167431
C144	C	2.654171	0.219058	-0.167017
H145	H	2.716274	0.194436	-0.165229
H146	H	2.637538	0.247855	-0.133437
H147	H	2.660107	0.237128	-0.200524
C148	C	2.446806	0.275688	-0.173251
H149	H	2.377153	0.287054	-0.175413
H150	H	2.485114	0.284919	-0.205779
H151	H	2.462522	0.295646	-0.138693
H152	H	2.315997	0.199115	-0.178204
H153	H	1.713165	-0.082781	0.263818
H154	H	2.527707	-0.080821	-0.458323
C155	C	2.540262	-0.082053	-0.342211
H156	H	2.522873	-0.081789	-0.301923
H157	H	2.570240	-0.049654	-0.347842
H158	H	2.586547	-0.116740	-0.358574
C159	C	2.175901	-0.069573	-0.455454
H160	H	2.193317	-0.069849	-0.495742
H161	H	2.129605	-0.034891	-0.439102
H162	H	2.145927	-0.101978	-0.449829
C163	C	2.484966	-0.074414	0.176865
H164	H	2.545678	-0.072342	0.192551
H165	H	2.463382	-0.109060	0.183934
H166	H	2.434645	-0.041974	0.194664
H167	H	2.011152	-0.070818	0.660686
H168	H	1.678018	-0.512481	-0.165876
H169	H	2.188447	-0.070801	-0.339328
H170	H	2.357750	0.090691	-0.177837
C171	C	2.410487	-0.425500	-0.174223
H172	H	2.346912	-0.436866	-0.172062
H173	H	2.441716	-0.434732	-0.141695
H174	H	2.451851	-0.445457	-0.208782
C175	C	2.319095	-0.080221	0.107956
H176	H	2.320572	-0.079942	0.148248
H177	H	2.300340	-0.114910	0.091594
H178	H	2.271577	-0.047825	0.102317
H179	H	2.370317	-0.075425	-0.507249
C180	C	2.180195	-0.793188	-0.179047
H181	H	2.239729	-0.821285	-0.180667
H182	H	2.173690	-0.764635	-0.145705
H183	H	2.183834	-0.775360	-0.212791
H184	H	1.829287	-0.790308	-0.167799
H185	H	2.662905	-0.068964	0.110902
C186	C	1.853729	-0.079790	-0.017534
H187	H	1.877224	-0.079252	-0.056988
H188	H	1.800814	-0.047459	-0.003585
H189	H	1.829555	-0.114545	-0.014301
C190	C	2.231461	-0.065789	0.272601
H191	H	2.276137	-0.064176	0.300702
H192	H	2.227164	-0.032053	0.254765
H193	H	2.255890	-0.099140	0.244054
H194	H	2.041073	-0.070442	0.552282
H195	H	2.185324	-0.528914	-0.181990
H196	H	2.376294	-0.078995	-0.008152
C197	C	2.179333	-0.231129	-0.168834
H198	H	2.131525	-0.255750	-0.167030
H199	H	2.175453	-0.213051	-0.202331
H200	H	2.165336	-0.202338	-0.135245
C201	C	2.237085	-0.646686	-0.182414
H202	H	2.284888	-0.622060	-0.184204
H203	H	2.251104	-0.675483	-0.215994
H204	H	2.240946	-0.664754	-0.148906
C205	C	1.707256	-0.356627	-0.168422
H206	H	1.647719	-0.328533	-0.166804
H207	H	1.703624	-0.374465	-0.134687
H208	H	1.713764	-0.385174	-0.201774
H209	H	1.706997	-0.240495	-0.169630
H210	H	2.692847	-0.068600	0.002479
C211	C	2.207260	-0.356628	-0.168413
H212	H	2.229045	-0.396915	-0.168681
H213	H	2.173106	-0.351001	-0.200806
H214	H	2.162987	-0.340274	-0.133720
H215	H	1.683241	-0.083140	0.372221
C216	C	1.819076	-0.080207	0.107951
H217	H	1.774410	-0.081833	0.079844
H218	H	1.794632	-0.046866	0.136502
H219	H	1.823387	-0.113951	0.125780
C220	C	1.667314	-0.082051	0.657764
H221	H	1.622629	-0.083672	0.629668
H222	H	1.642892	-0.048707	0.686316
H223	H	1.671627	-0.115794	0.675595
H224	H	2.174262	-0.066998	0.388709
C225	C	2.220114	-0.067747	-0.005227
H226	H	2.218615	-0.068018	-0.045516
H227	H	2.267635	-0.100140	0.000408
H228	H	2.238875	-0.033054	0.011130
H229	H	2.162915	-0.068968	0.110897
H230	H	2.558152	-0.359499	-0.179670
