data_functionalizedCrystal
_audit_creation_method	'MofGen! by Chris Wilmer'
_symmetry_space_group_name_H-M	'P1'
_symmetry_Int_Tables_number	1
_symmetry_cell_setting	triclinic
loop_
_symmetry_equiv_pos_as_xyz
  x,y,z
_cell_length_a	14.909351
_cell_length_b	17.077404
_cell_length_c	17.077395
_cell_angle_alpha	90.017597
_cell_angle_beta	93.274054
_cell_angle_gamma	93.275962
loop_
_atom_site_label
_atom_site_type_symbol
_atom_site_fract_x
_atom_site_fract_y
_atom_site_fract_z
Zn1	Zn	-0.359159	-1.218069	-0.461946
Zn2	Zn	0.140841	-0.718069	0.038054
Zn3	Zn	-0.510013	-1.225564	-0.338266
Zn4	Zn	-0.010013	-0.725564	0.161734
Zn5	Zn	-0.359184	-1.086811	-0.330691
Zn6	Zn	0.140816	-0.586811	0.169309
Zn7	Zn	-0.509960	-1.094345	-0.469483
Zn8	Zn	-0.009960	-0.594345	0.030517
O9	O	-0.434579	-1.156197	-0.400096
O10	O	0.065421	-0.656197	0.099904
O11	O	-0.379181	-1.328910	-0.445556
O12	O	0.120819	-0.828910	0.054444
O13	O	-0.490038	-1.207141	-0.227416
O14	O	0.009962	-0.707141	0.272584
O15	O	-0.232948	-1.097933	-0.341777
O16	O	0.267052	-0.597933	0.158223
O17	O	-0.490013	-1.334417	-0.354689
O18	O	0.009987	-0.834417	0.145311
O19	O	-0.232929	-1.194367	-0.438210
O20	O	0.267071	-0.694367	0.061790
O21	O	-0.379225	-1.105200	-0.221850
O22	O	0.120775	-0.605200	0.278150
O23	O	-0.379173	-0.977963	-0.349085
O24	O	0.120827	-0.477963	0.150915
O25	O	-0.489923	-1.110773	-0.578328
O26	O	0.010077	-0.610773	-0.078328
O27	O	-0.489947	-0.983498	-0.451055
O28	O	0.010053	-0.483498	0.048945
O29	O	-0.379130	-1.201673	-0.572791
O30	O	0.120870	-0.701673	-0.072791
O31	O	-0.636239	-1.214447	-0.361997
O32	O	-0.136239	-0.714447	0.138003
O33	O	-0.636200	-1.118041	-0.458401
O34	O	-0.136200	-0.618041	0.041599
C35	C	-0.434558	-0.952248	-0.400067
C36	C	0.065442	-0.452248	0.099933
C37	C	-0.434571	-0.864999	-0.400074
C38	C	0.065429	-0.364999	0.099926
C39	C	-0.668950	-1.167896	-0.411856
C40	C	-0.168950	-0.667896	0.088144
C41	C	-0.769215	-1.172973	-0.416913
C42	C	-0.269215	-0.672973	0.083087
C43	C	-0.492337	-0.826916	-0.453092
C44	C	0.007663	-0.326916	0.046908
C45	C	-0.492337	-0.744935	-0.453102
C46	C	0.007663	-0.244935	0.046898
C47	C	-0.434575	-0.701040	-0.400089
C48	C	0.065425	-0.201040	0.099911
C49	C	-0.376802	-0.739128	-0.347068
C50	C	0.123198	-0.239128	0.152932
C51	C	-0.376798	-0.821107	-0.347063
C52	C	0.123202	-0.321107	0.152937
C53	C	-0.376816	-0.568259	-0.347082
C54	C	0.123184	-0.068259	0.152918
C55	C	-0.376821	-0.486274	-0.347086
C56	C	0.123179	0.013726	0.152914
C57	C	-0.492355	-0.492087	-0.453121
C58	C	0.007645	0.007913	0.046879
C59	C	-0.492351	-0.574066	-0.453115
C60	C	0.007649	-0.074066	0.046885
C61	C	-0.434579	-0.612149	-0.400093
C62	C	0.065421	-0.112149	0.099907
C63	C	-0.910452	-1.230284	-0.474279
C64	C	-0.410452	-0.730284	0.025721
C65	C	-0.816244	-1.225519	-0.469531
C66	C	-0.316244	-0.725519	0.030469
C67	C	-0.816401	-1.125189	-0.369038
C68	C	-0.316401	-0.625189	0.130962
C69	C	-0.910609	-1.129953	-0.373786
C70	C	-0.410609	-0.629953	0.126214
C71	C	-0.957631	-1.182502	-0.426408
C72	C	-0.457631	-0.682502	0.073592
C73	C	-1.051841	-1.187262	-0.431159
C74	C	-0.551841	-0.687262	0.068841
C75	C	-1.051997	-1.086936	-0.330663
C76	C	-0.551997	-0.586936	0.169337
C77	C	-0.957789	-1.082171	-0.325916
C78	C	-0.457789	-0.582171	0.174084
C79	C	-0.199292	-1.144474	-0.388308
C80	C	0.300708	-0.644474	0.111692
C81	C	-0.099027	-1.139478	-0.383284
C82	C	0.400973	-0.639478	0.116716
C83	C	-0.434518	-1.156228	-0.604838
C84	C	0.065482	-0.656228	-0.104838
C85	C	-0.434491	-1.156241	-0.692086
C86	C	0.065509	-0.656241	-0.192086
C87	C	-0.434595	-0.360942	-0.400118
C88	C	0.065405	0.139058	0.099882
C89	C	-0.434587	-0.448191	-0.400104
C90	C	0.065413	0.051809	0.099896
C91	C	-0.376679	-1.203653	-1.065013
C92	C	0.123321	-0.703653	-0.565013
C93	C	-0.376711	-1.203638	-0.983034
C94	C	0.123289	-0.703638	-0.483034
C95	C	-0.434406	-1.156301	-0.944931
C96	C	0.065594	-0.656301	-0.444931
C97	C	-0.492080	-1.108981	-0.988812
C98	C	0.007920	-0.608981	-0.488812
C99	C	-0.492052	-1.109000	-1.070790
C100	C	0.007948	-0.609000	-0.570790
C101	C	-0.492132	-1.108943	-0.817944
C102	C	0.007868	-0.608943	-0.317944
C103	C	-0.492159	-1.108922	-0.735961
C104	C	0.007841	-0.608922	-0.235961
C105	C	-0.376791	-1.203581	-0.730189
C106	C	0.123209	-0.703581	-0.230189
C107	C	-0.376763	-1.203600	-0.812166
C108	C	0.123237	-0.703600	-0.312166
C109	C	-0.434436	-1.156279	-0.856041
C110	C	0.065564	-0.656279	-0.356041
C111	C	-0.434575	-1.156208	-0.196148
C112	C	0.065425	-0.656208	0.303852
C113	C	-0.434347	-1.156335	-0.108887
C114	C	0.065653	-0.656335	0.391113
H115	H	-0.539377	-0.862650	-0.496259
H116	H	-0.039377	-0.362650	0.003741
C117	C	-0.555897	-0.622350	-0.511428
C118	C	-0.055897	-0.122350	-0.011428
N119	N	-0.603760	-0.658718	-0.555351
N120	N	-0.103760	-0.158718	-0.055351
H121	H	-0.777833	-1.264429	-0.508511
H122	H	-0.277833	-0.764429	-0.008511
H123	H	-0.778104	-1.082411	-0.326189
H124	H	-0.278104	-0.582411	0.173811
C125	C	-0.906054	-1.024368	-0.268036
C126	C	-0.406054	-0.524368	0.231964
N127	N	-0.867088	-0.980827	-0.224443
N128	N	-0.367088	-0.480827	0.275557
H129	H	-0.329767	-0.703382	-0.303907
H130	H	0.170233	-0.203382	0.196093
C131	C	-1.103902	-1.034350	-0.278025
C132	C	-0.603902	-0.534350	0.221975
N133	N	-1.142997	-0.994734	-0.238388
N134	N	-0.642997	-0.494734	0.261612
C135	C	-0.555489	-1.056944	-1.119052
C136	C	-0.055489	-0.556944	-0.619052
N137	N	-0.603273	-1.017735	-1.155402
N138	N	-0.103273	-0.517735	-0.655402
H139	H	-0.329754	-1.242172	-0.947314
H140	H	0.170246	-0.742172	-0.447314
H141	H	-0.329691	-1.242195	-1.096029
H142	H	0.170309	-0.742195	-0.596029
H143	H	-0.329779	-1.242143	-0.843187
H144	H	0.170221	-0.742143	-0.343187
C145	C	-0.555544	-1.056908	-0.946896
C146	C	-0.055544	-0.556908	-0.446896
N147	N	-0.603343	-1.017682	-0.915325
N148	N	-0.103343	-0.517682	-0.415325
H149	H	-0.539392	-0.461076	-0.496295
H150	H	-0.039392	0.038924	0.003705
H151	H	-1.090125	-1.230043	-0.474014
H152	H	-0.590125	-0.730043	0.025986
H153	H	-0.948738	-1.273059	-0.517138
H154	H	-0.448738	-0.773059	-0.017138
C155	C	-0.313276	-0.437990	-0.288772
C156	C	0.186724	0.062010	0.211228
N157	N	-0.265413	-0.401623	-0.244850
N158	N	0.234587	0.098377	0.255150
C159	C	-0.555640	-1.056861	-0.694050
C160	C	-0.055640	-0.556861	-0.194050
N161	N	-0.603459	-1.017651	-0.662484
N162	N	-0.103459	-0.517651	-0.162484
H163	H	-0.329829	-1.242110	-0.694461
H164	H	0.170171	-0.742110	-0.194461
H165	H	-0.539098	-1.070411	-0.853666
H166	H	-0.039098	-0.570411	-0.353666
C167	C	-0.313266	-0.610148	-0.288753
C168	C	0.186734	-0.110148	0.211247
N169	N	-0.265406	-0.641699	-0.244817
N170	N	0.234594	-0.141699	0.255183
H171	H	-0.539377	-0.713932	-0.496274
H172	H	-0.039377	-0.213932	0.003726
C173	C	-0.313253	-0.862998	-0.288737
C174	C	0.186747	-0.362998	0.211263
N175	N	-0.265387	-0.894549	-0.244805
N176	N	0.234613	-0.394549	0.255195
