data_functionalizedCrystal
_audit_creation_method	'MofGen! by Chris Wilmer'
_symmetry_space_group_name_H-M	'P1'
_symmetry_Int_Tables_number	1
_symmetry_cell_setting	triclinic
loop_
_symmetry_equiv_pos_as_xyz
  x,y,z
_cell_length_a	13.897448
_cell_length_b	18.215407
_cell_length_c	13.897431
_cell_angle_alpha	90.048994
_cell_angle_beta	89.924096
_cell_angle_gamma	89.986687
loop_
_atom_site_label
_atom_site_type_symbol
_atom_site_fract_x
_atom_site_fract_y
_atom_site_fract_z
Zn1	Zn	-0.383666	-1.125335	-0.545363
Zn2	Zn	-0.133666	-0.875335	-0.295363
Zn3	Zn	0.116334	-0.625335	-0.045363
Zn4	Zn	0.366334	-0.375335	0.204637
Zn5	Zn	-0.545115	-1.125192	-0.384064
Zn6	Zn	-0.295115	-0.875192	-0.134064
Zn7	Zn	-0.045115	-0.625192	0.115936
Zn8	Zn	0.204885	-0.375192	0.365936
Zn9	Zn	-0.383823	-1.002201	-0.384083
Zn10	Zn	-0.133823	-0.752201	-0.134083
Zn11	Zn	0.116177	-0.502201	0.115917
Zn12	Zn	0.366177	-0.252201	0.365917
Zn13	Zn	-0.544908	-1.002249	-0.545319
Zn14	Zn	-0.294908	-0.752249	-0.295319
Zn15	Zn	-0.044908	-0.502249	-0.045319
Zn16	Zn	0.205092	-0.252249	0.204681
O17	O	-0.464378	-1.063745	-0.464707
O18	O	-0.214378	-0.813745	-0.214707
O19	O	0.035622	-0.563745	0.035293
O20	O	0.285622	-0.313745	0.285293
O21	O	-0.405103	-1.228301	-0.523976
O22	O	-0.155103	-0.978301	-0.273976
O23	O	0.094897	-0.728301	-0.023976
O24	O	0.344897	-0.478301	0.226024
O25	O	-0.523872	-1.108797	-0.249084
O26	O	-0.273872	-0.858797	0.000916
O27	O	-0.023872	-0.608797	0.250916
O28	O	0.226128	-0.358797	0.500916
O29	O	-0.248821	-1.018575	-0.405503
O30	O	0.001179	-0.768575	-0.155503
O31	O	0.251179	-0.518575	0.094497
O32	O	0.501179	-0.268575	0.344497
O33	O	-0.523719	-1.228196	-0.405471
O34	O	-0.273719	-0.978196	-0.155471
O35	O	-0.023719	-0.728196	0.094529
O36	O	0.226281	-0.478196	0.344529
O37	O	-0.248705	-1.109041	-0.523995
O38	O	0.001295	-0.859041	-0.273995
O39	O	0.251295	-0.609041	-0.023995
O40	O	0.501295	-0.359041	0.226005
O41	O	-0.405371	-1.018436	-0.249098
O42	O	-0.155371	-0.768436	0.000902
O43	O	0.094629	-0.518436	0.250902
O44	O	0.344629	-0.268436	0.500902
O45	O	-0.405171	-0.899223	-0.405461
O46	O	-0.155171	-0.649223	-0.155461
O47	O	0.094829	-0.399223	0.094539
O48	O	0.344829	-0.149223	0.344539
O49	O	-0.523366	-1.018657	-0.680307
O50	O	-0.273366	-0.768657	-0.430307
O51	O	-0.023366	-0.518657	-0.180307
O52	O	0.226634	-0.268657	0.069693
O53	O	-0.523519	-0.899259	-0.523920
O54	O	-0.273519	-0.649259	-0.273920
O55	O	-0.023519	-0.399259	-0.023920
O56	O	0.226481	-0.149259	0.226080
O57	O	-0.404902	-1.109088	-0.680339
O58	O	-0.154902	-0.859088	-0.430339
O59	O	0.095098	-0.609088	-0.180339
O60	O	0.345098	-0.359088	0.069661
O61	O	-0.680069	-1.108844	-0.405428
O62	O	-0.430069	-0.858844	-0.155428
O63	O	-0.180069	-0.608844	0.094572
O64	O	0.069931	-0.358844	0.344572
O65	O	-0.679917	-1.018518	-0.523902
O66	O	-0.429917	-0.768518	-0.273902
O67	O	-0.179917	-0.518518	-0.023902
O68	O	0.070083	-0.268518	0.226098
C69	C	-0.464340	-0.872538	-0.464688
C70	C	-0.214340	-0.622538	-0.214688
C71	C	0.035660	-0.372538	0.035312
C72	C	0.285660	-0.122538	0.285312
C73	C	-0.464347	-0.790739	-0.464703
C74	C	-0.214347	-0.540739	-0.214703
C75	C	0.035653	-0.290739	0.035297
C76	C	0.285653	-0.040739	0.285297
C77	C	-0.402703	-0.602599	-0.526505
C78	C	-0.152703	-0.352599	-0.276505
C79	C	0.097297	-0.102599	-0.026505
C80	C	0.347297	0.147401	0.223495
C81	C	-0.402708	-0.525741	-0.526507
C82	C	-0.152708	-0.275741	-0.276507
C83	C	0.097292	-0.025741	-0.026507
C84	C	0.347292	0.224259	0.223493
C85	C	-0.526038	-0.525642	-0.402917
C86	C	-0.276038	-0.275642	-0.152917
C87	C	-0.026038	-0.025642	0.097083
C88	C	0.223962	0.224358	0.347083
C89	C	-0.526027	-0.602499	-0.402910
C90	C	-0.276027	-0.352499	-0.152910
C91	C	-0.026027	-0.102499	0.097090
C92	C	0.223973	0.147501	0.347090
C93	C	-0.464361	-0.640976	-0.464710
C94	C	-0.214361	-0.390976	-0.214710
C95	C	0.035639	-0.140976	0.035290
C96	C	0.285639	0.109024	0.285290
C97	C	-0.464377	-0.487260	-0.464719
C98	C	-0.214377	-0.237260	-0.214719
C99	C	0.035623	0.012740	0.035281
C100	C	0.285623	0.262740	0.285281
C101	C	-0.464383	-0.403926	-0.464721
C102	C	-0.214383	-0.153926	-0.214721
C103	C	0.035617	0.096074	0.035279
C104	C	0.285617	0.346074	0.285279
C105	C	-0.464354	-0.724315	-0.464706
C106	C	-0.214354	-0.474315	-0.214706
C107	C	0.035646	-0.224315	0.035294
C108	C	0.285646	0.025685	0.285294
C109	C	-0.714992	-1.063691	-0.464679
C110	C	-0.464992	-0.813691	-0.214679
C111	C	-0.214992	-0.563691	0.035321
C112	C	0.035008	-0.313691	0.285321
C113	C	-0.822206	-1.063735	-0.464699
C114	C	-0.572206	-0.813735	-0.214699
C115	C	-0.322206	-0.563735	0.035301
C116	C	-0.072206	-0.313735	0.285301
C117	C	-1.018501	-1.063812	-0.464760
C118	C	-0.768501	-0.813812	-0.214760
C119	C	-0.518501	-0.563812	0.035240
C120	C	-0.268501	-0.313812	0.285240
C121	C	-0.909269	-1.063767	-0.464729
C122	C	-0.659269	-0.813767	-0.214729
C123	C	-0.409269	-0.563767	0.035271
C124	C	-0.159269	-0.313767	0.285271
C125	C	-0.212785	-1.063819	-0.464756
C126	C	0.037215	-0.813819	-0.214756
C127	C	0.287215	-0.563819	0.035244
C128	C	0.537215	-0.313819	0.285244
C129	C	-0.105571	-1.063850	-0.464777
C130	C	0.144429	-0.813850	-0.214777
C131	C	0.394429	-0.563850	0.035223
C132	C	0.644429	-0.313850	0.285223
C133	C	-0.464094	-1.063894	-0.716301
C134	C	-0.214094	-0.813894	-0.466301
C135	C	0.035906	-0.563894	-0.216301
C136	C	0.285906	-0.313894	0.033699
C137	C	-0.463973	-1.063958	-0.823515
C138	C	-0.213973	-0.813958	-0.573515
C139	C	0.036027	-0.563958	-0.323515
C140	C	0.286027	-0.313958	-0.073515
C141	C	-0.464406	-0.255697	-0.464724
C142	C	-0.214406	-0.005697	-0.214724
C143	C	0.035594	0.244303	0.035276
C144	C	0.285594	0.494303	0.285276
C145	C	-0.464391	-0.337496	-0.464725
C146	C	-0.214391	-0.087496	-0.214725
C147	C	0.035609	0.162504	0.035275
C148	C	0.285609	0.412504	0.285275
C149	C	-0.464591	-1.063638	-0.214092
C150	C	-0.214591	-0.813638	0.035908
C151	C	0.035409	-0.563638	0.285908
C152	C	0.285409	-0.313638	0.535908
C153	C	-0.464441	-1.063717	-0.106879
C154	C	-0.214441	-0.813717	0.143121
C155	C	0.035559	-0.563717	0.393121
C156	C	0.285559	-0.313717	0.643121
C157	C	-0.464304	-1.063793	-0.019809
C158	C	-0.214304	-0.813793	0.230191
C159	C	0.035696	-0.563793	0.480191
C160	C	0.285696	-0.313793	0.730191
C161	C	-0.464122	-1.063887	0.089423
C162	C	-0.214122	-0.813887	0.339423
C163	C	0.035878	-0.563887	0.589423
C164	C	0.285878	-0.313887	0.839423
H165	H	-0.352488	-0.633925	-0.576823
H166	H	-0.102488	-0.383925	-0.326823
H167	H	0.147512	-0.133925	-0.076823
H168	H	0.397512	0.116075	0.173177
H169	H	-0.352498	-0.494498	-0.576826
H170	H	-0.102498	-0.244498	-0.326826
H171	H	0.147502	0.005502	-0.076826
H172	H	0.397502	0.255502	0.173174
H173	H	-0.576245	-0.494305	-0.352603
H174	H	-0.326245	-0.244305	-0.102603
H175	H	-0.076245	0.005695	0.147397
H176	H	0.173755	0.255695	0.397397
H177	H	-0.576238	-0.633746	-0.352584
H178	H	-0.326238	-0.383746	-0.102584
H179	H	-0.076238	-0.133746	0.147416
H180	H	0.173762	0.116254	0.397416
