data_functionalizedCrystal
_audit_creation_method	'MofGen! by Chris Wilmer'
_symmetry_space_group_name_H-M	'P1'
_symmetry_Int_Tables_number	1
_symmetry_cell_setting	triclinic
loop_
_symmetry_equiv_pos_as_xyz
  x,y,z
_cell_length_a	14.971487
_cell_length_b	19.188930
_cell_length_c	14.048226
_cell_angle_alpha	89.988446
_cell_angle_beta	90.000286
_cell_angle_gamma	96.620407
loop_
_atom_site_label
_atom_site_type_symbol
_atom_site_fract_x
_atom_site_fract_y
_atom_site_fract_z
O1	O	-1.186466	0.090990	-0.079035
O2	O	-0.926008	0.101886	-0.079069
O3	O	-1.063753	-0.005194	-0.079032
O4	O	-1.048721	0.198069	-0.079072
O5	O	-1.063737	-0.005200	0.079289
O6	O	-0.925992	0.101879	0.079253
O7	O	-1.186450	0.090984	0.079286
Zn8	Zn	-1.056218	0.096431	0.104406
Zn9	Zn	-1.056240	0.096439	-0.104189
O10	O	-1.048704	0.198063	0.079250
C11	C	-0.892678	0.101395	0.000088
C12	C	-0.793389	0.099935	0.000076
C13	C	-0.735831	0.162841	0.000064
C14	C	-0.642539	0.161464	0.000077
C15	C	-0.606806	0.097181	0.000094
C16	C	-0.664371	0.034270	0.000109
C17	C	-0.757661	0.035647	0.000103
C18	C	-0.469924	0.031404	0.000118
C19	C	-0.376627	0.030027	0.000122
C20	C	-0.354801	0.157221	0.000092
C21	C	-0.448092	0.158598	0.000086
C22	C	-0.505650	0.095687	0.000099
C23	C	-1.063258	-0.031209	0.000131
C24	C	-1.061797	-0.108719	0.000139
C25	C	-1.142621	-0.153382	0.000154
C26	C	-1.141248	-0.226210	0.000138
C27	C	-1.059047	-0.254372	0.000127
C28	C	-0.978212	-0.209698	0.000107
C29	C	-0.979587	-0.136872	0.000113
N30	N	-0.996208	-0.362581	0.053999
N31	N	-0.994907	-0.431764	0.053995
C32	C	-1.054898	-0.473794	0.000107
N33	N	-1.116254	-0.444028	-0.053765
N34	N	-1.117557	-0.374840	-0.053757
C35	C	-1.057546	-0.333339	0.000120
C36	C	-1.134240	-0.597427	0.000104
C37	C	-1.132863	-0.670256	0.000083
C38	C	-0.969824	-0.653742	0.000061
C39	C	-0.971203	-0.580914	0.000073
C40	C	-1.053413	-0.552761	0.000099
C41	C	-0.219780	0.091474	0.000121
C42	C	-0.319070	0.092933	0.000110
C43	C	-1.049200	0.224079	0.000084
C44	C	-1.050661	0.301588	0.000070
N45	N	-1.056210	0.096424	0.246767
N46	N	-1.056255	0.096439	-0.246550
C47	C	-1.117222	0.049029	0.296601
C48	C	-1.117228	0.049029	0.396259
C49	C	-1.056225	0.096428	0.446080
C50	C	-0.995206	0.143825	0.396239
C51	C	-0.995197	0.143821	0.296584
C52	C	-0.995232	0.143830	0.603954
C53	C	-0.995243	0.143834	0.703616
C54	C	-1.117264	0.049038	0.703629
C55	C	-1.117254	0.049034	0.603973
C56	C	-1.056236	0.096432	0.554139
H57	H	-0.477182	0.210943	0.000063
Cl58	Cl	-0.542282	-0.047686	0.000136
H59	H	-0.307932	0.208446	0.000085
H60	H	-0.945542	0.182425	0.563382
H61	H	-0.635270	-0.018071	0.000137
Cl62	Cl	-1.245971	-0.117993	0.000160
Cl63	Cl	-1.193921	-0.010558	0.233978
Cl64	Cl	-0.830020	-0.043438	0.000123
Cl65	Cl	-1.237587	-0.562031	0.000142
Cl66	Cl	-1.234481	-0.726406	0.000095
Cl67	Cl	-0.866484	-0.689138	0.000041
Cl68	Cl	-1.193949	-0.010549	0.541338
H69	H	-1.207067	-0.262583	0.000147
Cl70	Cl	-1.193972	-0.010547	0.766280
Cl71	Cl	-0.780742	0.243659	0.000036
H72	H	-0.945567	0.182431	0.744176
H73	H	-0.945513	0.182414	0.256010
Cl74	Cl	-1.193930	-0.010555	0.458909
Cl75	Cl	-0.874872	-0.245100	0.000085
H76	H	-0.913768	-0.100506	0.000101
H77	H	-0.595679	0.212689	0.000066
Cl78	Cl	-0.331707	-0.050788	0.000176
H79	H	-0.945532	0.182415	0.436810
H80	H	-0.905387	-0.544548	0.000066
