data_functionalizedCrystal
_audit_creation_method	'MofGen! by Chris Wilmer'
_symmetry_space_group_name_H-M	'P1'
_symmetry_Int_Tables_number	1
_symmetry_cell_setting	triclinic
loop_
_symmetry_equiv_pos_as_xyz
  x,y,z
_cell_length_a	10.540514
_cell_length_b	10.540539
_cell_length_c	12.503572
_cell_angle_alpha	93.560877
_cell_angle_beta	86.445981
_cell_angle_gamma	84.520326
loop_
_atom_site_label
_atom_site_type_symbol
_atom_site_fract_x
_atom_site_fract_y
_atom_site_fract_z
O1	O	1.693161	0.171469	-0.089329
O2	O	1.323743	0.188358	-0.089328
O3	O	1.516880	-0.004794	-0.089327
O4	O	1.500024	0.364621	-0.089330
O5	O	1.502355	0.009757	0.089315
O6	O	1.309218	0.202909	0.089314
O7	O	1.678636	0.186019	0.089313
Cu8	Cu	1.492601	0.195793	0.105625
Cu9	Cu	1.509778	0.178585	-0.105640
O10	O	1.485499	0.379171	0.089312
C11	C	1.269177	0.194374	-0.000006
C12	C	1.128228	0.190605	-0.000006
C13	C	1.057522	0.328744	-0.000009
C14	C	0.910943	0.324837	-0.000420
C15	C	0.944169	0.107184	-0.101827
C16	C	1.090715	0.112031	-0.101907
C17	C	1.074599	0.126534	0.101250
C18	C	0.927512	0.125310	0.102582
C19	C	1.508353	-0.044821	-0.000008
C20	C	1.504572	-0.185770	-0.000014
C21	C	1.359686	-0.369216	-0.000414
C22	C	1.363487	-0.222565	-0.000012
C23	C	1.564174	-0.239124	0.101999
C24	C	1.559352	-0.385661	0.102085
C25	C	1.578739	-0.402727	-0.101064
C26	C	1.580148	-0.255855	-0.102413
C27	C	1.733202	0.180004	-0.000010
C28	C	1.874152	0.183772	-0.000018
C29	C	1.494026	0.419199	-0.000009
C30	C	1.497808	0.560146	-0.000010
N31	N	1.480529	0.207895	0.254217
N32	N	1.521860	0.166473	-0.254232
C33	C	1.462770	0.225708	0.473333
C34	C	1.539615	0.148663	0.526660
C35	C	1.529734	0.158575	0.648583
C36	C	1.472649	0.215798	0.351398
H37	H	1.080127	0.390728	0.072988
H38	H	1.612826	0.075260	0.480747
N39	N	0.898530	0.158205	-0.197231
N40	N	0.910112	0.272130	-0.214777
H41	H	0.877880	0.308174	-0.282153
H42	H	1.125150	0.155690	-0.178302
H43	H	1.389565	0.299108	0.519240
H44	H	0.862346	0.384497	0.072544
H45	H	1.093677	0.378025	-0.072911
H46	H	0.875180	0.372345	-0.073831
N47	N	1.106200	0.192100	0.198101
N48	N	1.071361	0.154650	0.287166
H49	H	1.093677	0.200966	0.355563
H50	H	1.139074	0.010204	-0.106253
H51	H	0.880393	0.181356	0.177902
H52	H	1.536605	-0.221139	-0.177879
H53	H	0.922139	0.003267	-0.105324
N54	N	1.709813	-0.226101	-0.110124
N55	N	1.781310	-0.252621	-0.036858
H56	H	1.872889	-0.231602	-0.042294
N57	N	1.706647	-0.462057	-0.101959
N58	N	1.786844	-0.444563	-0.176129
H59	H	1.877176	-0.486470	-0.176757
H60	H	0.902803	0.022990	0.109034
H61	H	1.121775	0.024721	0.102233
N62	N	1.693764	-0.210707	0.106747
N63	N	1.743757	-0.150669	0.034828
H64	H	1.835281	-0.130597	0.038177
N65	N	1.303919	-0.176596	-0.091749
N66	N	1.259239	-0.252852	-0.156519
H67	H	1.217159	-0.220392	-0.221310
N68	N	1.297241	-0.412586	-0.092185
N69	N	1.279147	-0.527759	-0.106079
H70	H	1.235048	-0.558400	-0.170896
N71	N	1.282642	-0.399680	0.090845
N72	N	1.329018	-0.473189	0.156180
H73	H	1.274609	-0.494708	0.220634
H74	H	1.660442	-0.433262	0.106713
N75	N	1.288524	-0.162701	0.091882
N76	N	1.233242	-0.229229	0.155924
H77	H	1.180298	-0.186952	0.220830
H78	H	1.502973	-0.407645	0.178343
N79	N	1.497256	-0.177918	0.197229
N80	N	1.405663	-0.094999	0.190231
H81	H	1.358394	-0.051772	0.257484
H82	H	1.539363	-0.440573	-0.178383
