data_functionalizedCrystal
_audit_creation_method	'MofGen! by Chris Wilmer'
_symmetry_space_group_name_H-M	'P1'
_symmetry_Int_Tables_number	1
_symmetry_cell_setting	triclinic
loop_
_symmetry_equiv_pos_as_xyz
  x,y,z
_cell_length_a	14.853569
_cell_length_b	13.930277
_cell_length_c	11.026607
_cell_angle_alpha	90.001745
_cell_angle_beta	96.110791
_cell_angle_gamma	90.005244
loop_
_atom_site_label
_atom_site_type_symbol
_atom_site_fract_x
_atom_site_fract_y
_atom_site_fract_z
O1	O	1.221941	0.079783	0.158487
O2	O	0.962528	0.079794	0.177363
O3	O	1.070734	0.079786	-0.008765
O4	O	1.113734	0.079791	0.344614
O5	O	1.070714	-0.079876	-0.008769
O6	O	0.962508	-0.079867	0.177359
O7	O	1.221921	-0.079879	0.158483
Zn8	Zn	1.092211	-0.105223	0.167920
Zn9	Zn	1.092237	0.105139	0.167926
O10	O	1.113714	-0.079870	0.344610
C11	C	0.928791	-0.000035	0.176506
C12	C	0.828293	-0.000031	0.173941
N13	N	1.092200	-0.248789	0.167916
C14	C	0.773882	-0.000029	0.062175
C15	C	0.788273	-0.000036	0.283299
C16	C	0.693851	-0.000038	0.280894
C17	C	0.639440	-0.000036	0.169127
C18	C	0.679451	-0.000033	0.059766
C19	C	0.653833	-0.000050	0.390254
C20	C	0.559405	-0.000052	0.387853
C21	C	0.504992	-0.000044	0.276084
C22	C	0.545009	-0.000040	0.166718
C23	C	0.490597	-0.000038	0.054952
C24	C	0.530612	-0.000027	-0.054416
C25	C	0.625038	-0.000024	-0.052003
C26	C	0.410566	-0.000047	0.273671
C27	C	0.396166	-0.000042	0.052543
C28	C	1.044316	-0.701055	0.250311
C29	C	1.140182	-0.701031	0.085531
C30	C	1.140171	-0.600535	0.085527
C31	C	1.092232	-0.550295	0.167918
C32	C	1.044305	-0.600549	0.250312
C33	C	1.188105	-0.550273	0.003143
C34	C	1.188096	-0.449771	0.003137
C35	C	1.140152	-0.399528	0.085522
C36	C	1.092222	-0.449790	0.167919
C37	C	1.044283	-0.399549	0.250309
C38	C	0.996347	-0.449808	0.332701
C39	C	0.996361	-0.550307	0.332697
C40	C	1.140138	-0.299030	0.085526
C41	C	1.044273	-0.299044	0.250310
C42	C	1.255658	-0.000047	0.159340
C43	C	1.356155	-0.000045	0.161904
C44	C	1.062792	-0.000043	-0.053991
C45	C	1.039144	-0.000039	-0.188745
N46	N	1.092254	0.248705	0.167920
C47	C	1.104439	-0.000040	-0.262440
C48	C	1.080000	-0.000036	-0.401716
C49	C	1.121657	-0.000039	0.389837
C50	C	1.145305	-0.000037	0.524591
H51	H	0.351870	-0.000036	-0.038473
H52	H	0.377990	-0.000064	0.362717
H53	H	1.006000	-0.000026	-0.441727
H54	H	1.227127	-0.408856	-0.063951
H55	H	1.179172	-0.258113	0.018449
C56	C	1.247335	0.082038	-0.247617
C57	C	1.204332	-0.000039	-0.208427
H58	H	1.309004	0.082041	-0.214265
H59	H	1.244020	0.082030	-0.334117
H60	H	1.218151	0.137709	-0.221026
H61	H	1.233512	-0.055710	-0.235026
H62	H	1.207653	-0.000040	-0.121909
H63	H	0.957320	-0.408890	0.399789
H64	H	1.005231	-0.258144	0.317398
H65	H	1.219305	0.000032	-0.435400
C66	C	0.934375	-0.000032	-0.370271
C67	C	0.939250	-0.000034	-0.242752
H68	H	0.872702	-0.000034	-0.403607
H69	H	0.963555	0.055643	-0.396838
H70	H	0.963549	-0.055713	-0.396847
H71	H	0.910081	0.055652	-0.216175
H72	H	0.910057	-0.055714	-0.216174
H73	H	0.806467	-0.000016	-0.026870
H74	H	1.005284	-0.741978	0.317390
C75	C	0.379468	-0.000033	-0.156276
C76	C	0.470797	-0.000024	-0.177269
H77	H	0.342541	-0.000025	-0.232119
H78	H	0.366961	-0.055713	-0.111258
H79	H	0.366965	0.055643	-0.111229
H80	H	0.483302	-0.055704	-0.222308
H81	H	0.483309	0.055662	-0.222306
H82	H	0.657627	-0.000018	-0.141043
C83	C	0.902824	0.082028	0.414294
C84	C	0.848081	-0.000045	0.406148
H85	H	0.939745	0.082023	0.490142
H86	H	0.940162	0.082023	0.349514
H87	H	0.865686	0.137702	0.408771
H88	H	0.885219	-0.055719	0.411662
H89	H	0.810740	-0.000049	0.470946
C90	C	0.658581	-0.000071	0.608586
C91	C	0.713640	-0.000055	0.513103
H92	H	0.695508	-0.000078	0.684429
H93	H	0.621454	0.055600	0.603059
H94	H	0.621449	-0.055756	0.603033
H95	H	0.750767	0.055634	0.518650
H96	H	0.750782	-0.055731	0.518632
C97	C	0.461581	0.082026	0.513433
C98	C	0.515424	-0.000051	0.508065
H99	H	0.434425	0.082025	0.587645
H100	H	0.498127	0.137691	0.509782
H101	H	0.415663	0.082016	0.446522
H102	H	0.561346	-0.000038	0.574972
H103	H	0.478876	-0.055730	0.511728
C104	C	1.159029	-0.731975	-0.124475
C105	C	1.192865	-0.756257	-0.005036
H106	H	1.191556	-0.766071	-0.180391
H107	H	1.096710	-0.748458	-0.137784
H108	H	1.165891	-0.664928	-0.136257
H109	H	1.185997	-0.823303	0.006749
H110	H	1.255200	-0.739780	0.008278
C111	C	0.953827	-0.704374	0.405873
C112	C	0.943684	-0.605553	0.423267
H113	H	0.921313	-0.738481	0.461796
H114	H	0.930886	-0.720847	0.324848
H115	H	1.016162	-0.720813	0.419202
H116	H	0.881349	-0.589113	0.409930
H117	H	0.966621	-0.589074	0.504312
C118	C	1.206948	-0.581215	-0.206864
C119	C	1.240781	-0.605505	-0.087426
H120	H	1.239468	-0.615316	-0.262782
H121	H	1.144626	-0.597686	-0.220173
H122	H	1.213821	-0.514169	-0.218644
H123	H	1.233902	-0.672550	-0.075644
H124	H	1.303118	-0.589040	-0.074113
