data_functionalizedCrystal
_audit_creation_method	'MofGen! by Chris Wilmer'
_symmetry_space_group_name_H-M	'P1'
_symmetry_Int_Tables_number	1
_symmetry_cell_setting	triclinic
loop_
_symmetry_equiv_pos_as_xyz
  x,y,z
_cell_length_a	19.188905
_cell_length_b	19.188930
_cell_length_c	17.666332
_cell_angle_alpha	89.988397
_cell_angle_beta	89.983521
_cell_angle_gamma	83.139668
loop_
_atom_site_label
_atom_site_type_symbol
_atom_site_fract_x
_atom_site_fract_y
_atom_site_fract_z
O1	O	0.926161	0.087086	-0.063081
O2	O	1.259494	0.420419	0.270252
O3	O	1.592827	0.753752	0.603585
O4	O	0.722847	0.098838	-0.063057
O5	O	1.056180	0.432171	0.270277
O6	O	1.389514	0.765505	0.603610
O7	O	0.830371	-0.008694	-0.063055
O8	O	1.163704	0.324639	0.270278
O9	O	1.497038	0.657972	0.603612
O10	O	0.818637	0.194618	-0.063083
O11	O	1.151970	0.527951	0.270250
O12	O	1.485303	0.861285	0.603583
O13	O	0.830352	-0.008700	0.062842
O14	O	1.163686	0.324633	0.396175
O15	O	1.497019	0.657967	0.729508
O16	O	0.722828	0.098832	0.062840
O17	O	1.056162	0.432166	0.396173
O18	O	1.389495	0.765499	0.729507
O19	O	0.926142	0.087080	0.062815
O20	O	1.259475	0.420413	0.396149
O21	O	1.592809	0.753747	0.729482
Cu22	Cu	0.824483	0.092956	0.074323
Cu23	Cu	1.157817	0.426289	0.407656
Cu24	Cu	1.491150	0.759622	0.740990
Cu25	Cu	0.824506	0.092962	-0.074565
Cu26	Cu	1.157839	0.426296	0.258769
Cu27	Cu	1.491172	0.759629	0.592102
O28	O	0.818618	0.194612	0.062814
O29	O	1.151951	0.527946	0.396147
O30	O	1.485285	0.861279	0.729480
C31	C	0.696826	0.098458	-0.000105
C32	C	1.030160	0.431791	0.333228
C33	C	1.363493	0.765124	0.666562
C34	C	0.619321	0.097324	-0.000095
C35	C	0.952654	0.430657	0.333238
C36	C	1.285987	0.763991	0.666572
C37	C	0.582939	0.096782	-0.068723
C38	C	0.916273	0.430116	0.264610
C39	C	1.249606	0.763449	0.597944
C40	C	0.510116	0.095709	-0.068732
C41	C	0.843449	0.429043	0.264601
C42	C	1.176782	0.762376	0.597934
C43	C	0.473678	0.095164	-0.000110
C44	C	0.807012	0.428497	0.333224
C45	C	1.140345	0.761830	0.666557
C46	C	0.510068	0.095709	0.068528
C47	C	0.843401	0.429043	0.401861
C48	C	1.176735	0.762376	0.735194
C49	C	0.582889	0.096789	0.068535
C50	C	0.916223	0.430123	0.401868
C51	C	1.249556	0.763456	0.735202
N52	N	0.364650	0.053733	0.050966
N53	N	0.697984	0.387066	0.384299
N54	N	1.031317	0.720400	0.717632
N55	N	0.295473	0.052705	0.050954
N56	N	0.628807	0.386039	0.384287
N57	N	0.962140	0.719372	0.717621
C58	C	0.254272	0.091911	-0.000127
C59	C	0.587605	0.425245	0.333206
C60	C	0.920938	0.758578	0.666539
N61	N	0.284861	0.132174	-0.051208
N62	N	0.618195	0.465508	0.282125
N63	N	0.951528	0.798841	0.615458
N64	N	0.354045	0.133199	-0.051199
N65	N	0.687378	0.466532	0.282135
N66	N	1.020712	0.799866	0.615468
C67	C	0.394716	0.093993	-0.000110
C68	C	0.728049	0.427326	0.333224
C69	C	1.061382	0.760660	0.666557
C70	C	0.138926	0.090207	-0.068770
C71	C	0.472260	0.423541	0.264563
C72	C	0.805593	0.756874	0.597896
C73	C	0.066101	0.089138	-0.068777
C74	C	0.399434	0.422472	0.264557
C75	C	0.732767	0.755805	0.597890
C76	C	0.066055	0.089131	0.068485
C77	C	0.399389	0.422465	0.401819
C78	C	0.732722	0.755798	0.735152
C79	C	0.138879	0.090207	0.068490
C80	C	0.472212	0.423540	0.401823
C81	C	0.805545	0.756874	0.735156
C82	C	0.175310	0.090742	-0.000140
C83	C	0.508643	0.424075	0.333193
C84	C	0.841977	0.757408	0.666526
C85	C	0.829982	-0.034708	-0.000104
C86	C	1.163315	0.298625	0.333229
C87	C	1.496648	0.631959	0.666562
C88	C	0.828841	-0.112213	-0.000098
C89	C	1.162174	0.221121	0.333236
C90	C	1.495508	0.554454	0.666569
C91	C	0.891933	-0.157142	-0.000102
C92	C	1.225266	0.176191	0.333231
C93	C	1.558599	0.509525	0.666565
C94	C	0.890861	-0.229966	-0.000114
C95	C	1.224194	0.103367	0.333219
C96	C	1.557528	0.436701	0.666553
C97	C	0.826694	-0.257857	-0.000107
C98	C	1.160027	0.075477	0.333227
C99	C	1.493361	0.408810	0.666560
C100	C	0.763594	-0.212917	-0.000107
C101	C	1.096927	0.120416	0.333227
C102	C	1.430261	0.453749	0.666560
C103	C	0.764668	-0.140095	-0.000102
C104	C	1.098001	0.193238	0.333231
C105	C	1.431334	0.526572	0.666564
N106	N	0.777640	-0.365859	0.042744
N107	N	1.110973	-0.032526	0.376078
N108	N	1.444306	0.300807	0.709411
N109	N	0.776624	-0.435038	0.042742
N110	N	1.109958	-0.101704	0.376075
N111	N	1.443291	0.231629	0.709409
C112	C	0.823456	-0.477265	-0.000122
C113	C	1.156789	-0.143932	0.333212
C114	C	1.490122	0.189402	0.666545
N115	N	0.871352	-0.447702	-0.042973
N116	N	1.204685	-0.114369	0.290361
N117	N	1.538019	0.218965	0.623694
N118	N	0.872369	-0.378517	-0.042967
N119	N	1.205703	-0.045184	0.290367
N120	N	1.539036	0.288149	0.623700
C121	C	0.825523	-0.336819	-0.000112
C122	C	1.158856	-0.003486	0.333221
C123	C	1.492190	0.329848	0.666555
C124	C	0.885390	-0.601159	-0.000140
C125	C	1.218723	-0.267826	0.333194
C126	C	1.552056	0.065508	0.666527
C127	C	0.884315	-0.673984	-0.000156
C128	C	1.217649	-0.340650	0.333177
C129	C	1.550982	-0.007317	0.666510
C130	C	0.757047	-0.656933	-0.000142
C131	C	1.090380	-0.323600	0.333192
C132	C	1.423714	0.009733	0.666525
C133	C	0.758123	-0.584110	-0.000133
C134	C	1.091456	-0.250777	0.333201
C135	C	1.424790	0.082556	0.666534
C136	C	0.822296	-0.556228	-0.000128
C137	C	1.155630	-0.222894	0.333205
C138	C	1.488963	0.110439	0.666539
C139	C	0.952163	0.087460	-0.000138
C140	C	1.285496	0.420794	0.333195
C141	C	1.618829	0.754127	0.666529
C142	C	1.029668	0.088594	-0.000153
C143	C	1.363001	0.421927	0.333180
C144	C	1.696335	0.755261	0.666513
C145	C	0.819007	0.220626	-0.000139
C146	C	1.152341	0.553959	0.333195
C147	C	1.485674	0.887293	0.666528
C148	C	0.820148	0.298131	-0.000150
C149	C	1.153481	0.631464	0.333183
C150	C	1.486815	0.964797	0.666516
N151	N	0.824473	0.092950	0.179042
N152	N	1.157806	0.426284	0.512376
N153	N	1.491139	0.759617	0.845709
N154	N	0.824522	0.092962	-0.179284
N155	N	1.157855	0.426295	0.154049
N156	N	1.491188	0.759629	0.487383
C157	C	0.872100	0.045358	0.218653
C158	C	1.205433	0.378692	0.551986
C159	C	1.538766	0.712025	0.885320
C160	C	0.872104	0.045355	0.297901
C161	C	1.205437	0.378688	0.631234
C162	C	1.538771	0.712022	0.964567
C163	C	0.824488	0.092956	0.337535
C164	C	1.157821	0.426289	0.670868
C165	C	1.491154	0.759622	1.004201
C166	C	0.776852	0.140552	0.297915
C167	C	1.110185	0.473885	0.631248
C168	C	1.443518	0.807218	0.964581
C169	C	0.776844	0.140549	0.218668
C170	C	1.110178	0.473882	0.552002
C171	C	1.443511	0.807216	0.885335
N172	N	0.815411	0.154764	0.461945
N173	N	1.148745	0.488097	0.795279
N174	N	1.482078	0.821431	1.128612
N175	N	0.815422	0.154764	0.537226
N176	N	1.148756	0.488097	0.870559
N177	N	1.482089	0.821431	1.203892
C178	C	0.824506	0.092966	0.576299
C179	C	1.157839	0.426299	0.909632
C180	C	1.491173	0.759632	1.242965
N181	N	0.833592	0.031164	0.537247
N182	N	1.166925	0.364498	0.870580
N183	N	1.500258	0.697831	1.203914
N184	N	0.833584	0.031165	0.461960
N185	N	1.166917	0.364498	0.795293
N186	N	1.500251	0.697831	1.128626
C187	C	0.824490	0.092964	0.423464
C188	C	1.157823	0.426297	0.756797
C189	C	1.491157	0.759630	1.090130
C190	C	0.872140	0.045366	0.701838
C191	C	1.205473	0.378699	1.035172
C192	C	1.538807	0.712032	1.368505
C193	C	0.872139	0.045361	0.781087
C194	C	1.205473	0.378695	1.114421
C195	C	1.538806	0.712028	1.447754
C196	C	0.776890	0.140564	0.781100
C197	C	1.110224	0.473897	1.114433
C198	C	1.443557	0.807231	1.447767
C199	C	0.776888	0.140562	0.701852
C200	C	1.110221	0.473896	1.035186
C201	C	1.443554	0.807229	1.368519
C202	C	0.824516	0.092964	0.662226
C203	C	1.157850	0.426297	0.995560
C204	C	1.491183	0.759631	1.328893
H205	H	0.168589	0.090650	-0.124653
H206	H	0.501923	0.423983	0.208680
H207	H	0.835256	0.757317	0.542014
Br208	Br	0.016723	0.088413	-0.161924
Br209	Br	0.350056	0.421746	0.171410
Br210	Br	0.683389	0.755079	0.504743
Br211	Br	0.936734	-0.019240	0.164874
Br212	Br	1.270067	0.314094	0.498207
Br213	Br	1.603401	0.647427	0.831541
H214	H	0.910889	0.006598	0.330157
H215	H	1.244222	0.339932	0.663491
H216	H	1.577555	0.673265	0.996824
H217	H	0.713289	-0.103513	-0.000099
H218	H	1.046622	0.229821	0.333234
H219	H	1.379956	0.563154	0.666568
H220	H	0.937644	-0.578456	-0.000139
H221	H	1.270977	-0.245123	0.333194
H222	H	1.604310	0.088211	0.666527
Br223	Br	0.712224	0.205149	0.351700
Br224	Br	1.045557	0.538482	0.685034
Br225	Br	1.378890	0.871815	1.018367
H226	H	0.480396	0.095267	0.124401
H227	H	0.813729	0.428600	0.457734
H228	H	1.147062	0.761933	0.791068
Br229	Br	0.969948	-0.734962	-0.000170
Br230	Br	1.303281	-0.401629	0.333163
Br231	Br	1.636614	-0.068296	0.666497
Br232	Br	0.936775	-0.019239	0.834849
Br233	Br	1.270108	0.314094	1.168182
Br234	Br	1.603441	0.647428	1.501516
Br235	Br	0.712250	0.205157	0.648089
Br236	Br	1.045584	0.538490	0.981422
Br237	Br	1.378917	0.871823	1.314756
Br238	Br	0.712260	0.205158	0.834882
Br239	Br	1.045593	0.538492	1.168216
Br240	Br	1.378927	0.871825	1.501549
H241	H	0.706747	-0.547527	-0.000125
H242	H	1.040080	-0.214194	0.333208
H243	H	1.373413	0.119139	0.666542
Br244	Br	0.632379	0.097509	-0.161863
Br245	Br	0.965712	0.430843	0.171470
Br246	Br	1.299045	0.764176	0.504803
H247	H	0.704801	-0.679641	-0.000140
H248	H	1.038134	-0.346308	0.333194
H249	H	1.371468	-0.012975	0.666527
H250	H	0.910920	0.006606	0.669574
H251	H	1.244253	0.339939	1.002907
H252	H	1.577587	0.673273	1.336240
Br253	Br	0.460729	0.094976	-0.161877
Br254	Br	0.794063	0.428309	0.171456
Br255	Br	1.127396	0.761643	0.504789
Br256	Br	0.632268	0.097526	0.161681
Br257	Br	0.965601	0.430859	0.495014
Br258	Br	1.298934	0.764192	0.828347
Br259	Br	0.016611	0.088401	0.161619
Br260	Br	0.349945	0.421735	0.494952
Br261	Br	0.683278	0.755068	0.828285
Br262	Br	0.188258	0.090940	0.161634
Br263	Br	0.521591	0.424273	0.494967
Br264	Br	0.854924	0.757607	0.828300
H265	H	0.944187	-0.134445	-0.000101
H266	H	1.277521	0.198888	0.333233
H267	H	1.610854	0.532221	0.666566
Br268	Br	0.976491	-0.290954	-0.000123
Br269	Br	1.309824	0.042380	0.333211
Br270	Br	1.643158	0.375713	0.666544
Br271	Br	0.712202	0.205142	0.164907
Br272	Br	1.045535	0.538476	0.498240
Br273	Br	1.378869	0.871809	0.831573
Br274	Br	0.676510	-0.250767	-0.000107
Br275	Br	1.009843	0.082567	0.333227
Br276	Br	1.343176	0.415900	0.666560
