data_functionalizedCrystal
_audit_creation_method	'MofGen! by Chris Wilmer'
_symmetry_space_group_name_H-M	'P1'
_symmetry_Int_Tables_number	1
_symmetry_cell_setting	triclinic
loop_
_symmetry_equiv_pos_as_xyz
  x,y,z
_cell_length_a	25.639242
_cell_length_b	25.639239
_cell_length_c	25.639234
_cell_angle_alpha	89.975416
_cell_angle_beta	89.973005
_cell_angle_gamma	90.034213
loop_
_atom_site_label
_atom_site_type_symbol
_atom_site_fract_x
_atom_site_fract_y
_atom_site_fract_z
Zn1	Zn	0.799250	-0.208247	-0.295742
Zn2	Zn	1.132583	0.125087	0.037591
Zn3	Zn	1.465917	0.458420	0.370924
Zn4	Zn	0.799166	-0.295674	-0.208307
Zn5	Zn	1.132499	0.037659	0.125027
Zn6	Zn	1.465833	0.370992	0.458360
Zn7	Zn	0.711819	-0.208248	-0.208306
Zn8	Zn	1.045152	0.125085	0.125027
Zn9	Zn	1.378486	0.458419	0.458360
Zn10	Zn	0.711771	-0.295646	-0.295696
Zn11	Zn	1.045105	0.037687	0.037637
Zn12	Zn	1.378438	0.371021	0.370970
O13	O	0.755502	-0.251954	-0.252013
O14	O	1.088835	0.081380	0.081320
O15	O	1.422168	0.414713	0.414654
O16	O	0.872404	-0.219855	-0.284163
O17	O	1.205737	0.113478	0.049170
O18	O	1.539071	0.446811	0.382504
O19	O	0.787564	-0.284089	-0.135141
O20	O	1.120897	0.049244	0.198192
O21	O	1.454231	0.382577	0.531525
O22	O	0.723472	-0.135083	-0.219924
O23	O	1.056805	0.198251	0.113409
O24	O	1.390139	0.531584	0.446743
O25	O	0.872342	-0.284088	-0.219924
O26	O	1.205676	0.049245	0.113409
O27	O	1.539009	0.382579	0.446742
O28	O	0.787707	-0.135082	-0.284163
O29	O	1.121040	0.198252	0.049171
O30	O	1.454374	0.531585	0.382504
O31	O	0.723390	-0.219858	-0.135141
O32	O	1.056724	0.113476	0.198192
O33	O	1.390057	0.446809	0.531526
O34	O	0.638647	-0.219830	-0.219880
O35	O	0.971981	0.113503	0.113454
O36	O	1.305314	0.446837	0.446787
O37	O	0.723391	-0.284040	-0.368868
O38	O	1.056724	0.049293	-0.035534
O39	O	1.390058	0.382627	0.297799
O40	O	0.638613	-0.284041	-0.284085
O41	O	0.971946	0.049292	0.049249
O42	O	1.305279	0.382625	0.382582
O43	O	0.787661	-0.219828	-0.368901
O44	O	1.120994	0.113505	-0.035568
O45	O	1.454328	0.446839	0.297765
O46	O	0.787518	-0.368836	-0.219880
O47	O	1.120851	-0.035502	0.113453
O48	O	1.454185	0.297831	0.446787
O49	O	0.723309	-0.368815	-0.284085
O50	O	1.056643	-0.035482	0.049248
O51	O	1.389976	0.297852	0.382582
C52	C	0.619659	-0.251933	-0.251977
C53	C	0.952992	0.081400	0.081356
C54	C	1.286326	0.414734	0.414689
C55	C	0.561545	-0.251937	-0.251975
C56	C	0.894878	0.081396	0.081359
C57	C	1.228212	0.414730	0.414692
C58	C	0.755414	-0.387796	-0.251989
C59	C	1.088747	-0.054463	0.081344
C60	C	1.422080	0.278870	0.414678
C61	C	0.755424	-0.445910	-0.251996
C62	C	1.088757	-0.112577	0.081337
C63	C	1.422091	0.220756	0.414670
C64	C	0.201173	-0.285444	-0.285413
C65	C	0.534506	0.047889	0.047920
C66	C	0.867839	0.381222	0.381254
C67	C	0.146568	-0.285447	-0.285421
C68	C	0.479902	0.047886	0.047912
C69	C	0.813235	0.381219	0.381246
O70	O	0.118324	-0.313911	-0.313821
O71	O	0.451657	0.019422	0.019512
O72	O	0.784990	0.352756	0.352845
N73	N	0.119263	-0.251968	-0.252047
N74	N	0.452596	0.081365	0.081286
N75	N	0.785929	0.414699	0.414620
C76	C	0.146564	-0.218480	-0.218666
C77	C	0.479897	0.114854	0.114667
C78	C	0.813231	0.448187	0.448000
O79	O	0.118324	-0.190003	-0.190280
O80	O	0.451658	0.143331	0.143053
O81	O	0.784991	0.476664	0.476387
C82	C	0.201167	-0.218474	-0.218661
C83	C	0.534501	0.114859	0.114672
C84	C	0.867834	0.448192	0.448006
C85	C	0.228470	-0.251959	-0.252034
C86	C	0.561803	0.081374	0.081300
C87	C	0.895137	0.414707	0.414633
C88	C	0.228476	-0.318926	-0.318783
C89	C	0.561809	0.014407	0.014550
C90	C	0.895142	0.347740	0.347884
C91	C	0.283076	-0.318924	-0.318774
C92	C	0.616410	0.014410	0.014559
C93	C	0.949743	0.347743	0.347893
C94	C	0.310374	-0.285439	-0.285395
C95	C	0.643707	0.047894	0.047939
C96	C	0.977040	0.381228	0.381272
C97	C	0.283071	-0.251957	-0.252024
C98	C	0.616404	0.081376	0.081309
C99	C	0.949737	0.414710	0.414642
C100	C	0.228468	-0.184983	-0.185283
C101	C	0.561801	0.148350	0.148050
C102	C	0.895134	0.481683	0.481383
C103	C	0.283075	-0.184981	-0.185281
C104	C	0.616408	0.148353	0.148052
C105	C	0.949741	0.481686	0.481385
C106	C	0.310378	-0.218466	-0.218654
C107	C	0.643711	0.114867	0.114680
C108	C	0.977044	0.448201	0.448013
C109	C	0.364969	-0.218469	-0.218636
C110	C	0.698302	0.114864	0.114697
C111	C	1.031635	0.448197	0.448031
N112	N	0.392275	-0.251949	-0.252010
N113	N	0.725608	0.081385	0.081323
N114	N	1.058941	0.414718	0.414656
C115	C	0.364977	-0.285434	-0.285389
C116	C	0.698310	0.047900	0.047944
C117	C	1.031644	0.381233	0.381277
C118	C	0.031893	-0.218493	-0.218680
C119	C	0.365227	0.114840	0.114653
C120	C	0.698560	0.448174	0.447986
C121	C	-0.022709	-0.218501	-0.218683
C122	C	0.310624	0.114833	0.114651
C123	C	0.643958	0.448166	0.447984
C124	C	-0.022701	-0.285468	-0.285438
C125	C	0.310632	0.047865	0.047895
C126	C	0.643966	0.381199	0.381228
C127	C	0.031902	-0.285463	-0.285433
C128	C	0.365236	0.047871	0.047900
C129	C	0.698569	0.381204	0.381234
C130	C	0.059199	-0.251972	-0.252054
C131	C	0.392532	0.081361	0.081279
C132	C	0.725866	0.414694	0.414612
C133	C	0.479642	-0.285426	-0.285368
C134	C	0.812975	0.047908	0.047966
C135	C	1.146309	0.381241	0.381299
C136	C	0.534247	-0.285422	-0.285354
C137	C	0.867581	0.047912	0.047979
C138	C	1.200914	0.381245	0.381313
C139	C	0.534235	-0.218453	-0.218601
C140	C	0.867568	0.114881	0.114733
C141	C	1.200901	0.448214	0.448066
C142	C	0.479634	-0.218458	-0.218612
C143	C	0.812967	0.114875	0.114721
C144	C	1.146301	0.448208	0.448055
C145	C	0.452339	-0.251947	-0.252000
C146	C	0.785672	0.081387	0.081334
C147	C	1.119006	0.414720	0.414667
O148	O	0.393248	-0.190019	-0.190252
O149	O	0.726581	0.143314	0.143082
O150	O	1.059915	0.476648	0.476415
O151	O	0.393223	-0.313901	-0.313776
O152	O	0.726557	0.019433	0.019558
O153	O	1.059890	0.352766	0.352891
C154	C	0.789022	-0.806272	-0.218638
C155	C	1.122356	-0.472938	0.114695
C156	C	1.455689	-0.139605	0.448028
C157	C	0.789042	-0.860876	-0.218645
C158	C	1.122376	-0.527543	0.114688
C159	C	1.455709	-0.194209	0.448021
O160	O	0.817518	-0.889111	-0.190257
O161	O	1.150851	-0.555778	0.143076
O162	O	1.484184	-0.222445	0.476410
N163	N	0.755593	-0.888193	-0.252048
N164	N	1.088927	-0.554859	0.081286
N165	N	1.422260	-0.221526	0.414619
C166	C	0.722126	-0.860902	-0.285449
C167	C	1.055459	-0.527569	0.047885
C168	C	1.388792	-0.194236	0.381218
O169	O	0.693677	-0.889152	-0.313861
O170	O	1.027010	-0.555818	0.019472
O171	O	1.360344	-0.222485	0.352806
C172	C	0.722109	-0.806299	-0.285444
C173	C	1.055442	-0.472966	0.047889
C174	C	1.388775	-0.139632	0.381223
C175	C	0.755556	-0.778985	-0.252036
C176	C	1.088889	-0.445652	0.081298
C177	C	1.422223	-0.112318	0.414631
C178	C	0.822467	-0.778958	-0.185233
C179	C	1.155801	-0.445624	0.148100
C180	C	1.489134	-0.112291	0.481433
C181	C	0.822446	-0.724357	-0.185226
C182	C	1.155780	-0.391024	0.148108
C183	C	1.489113	-0.057690	0.481441
C184	C	0.788980	-0.697071	-0.218623
C185	C	1.122313	-0.363737	0.114710
C186	C	1.455647	-0.030404	0.448043
C187	C	0.755535	-0.724385	-0.252028
C188	C	1.088868	-0.391051	0.081305
C189	C	1.422202	-0.057718	0.414638
C190	C	0.688644	-0.779010	-0.318847
C191	C	1.021977	-0.445677	0.014486
C192	C	1.355311	-0.112343	0.347819
C193	C	0.688630	-0.724403	-0.318840
C194	C	1.021963	-0.391069	0.014493
C195	C	1.355297	-0.057736	0.347827
C196	C	0.722077	-0.697089	-0.285432
C197	C	1.055411	-0.363755	0.047901
C198	C	1.388744	-0.030422	0.381235
C199	C	0.722048	-0.642498	-0.285418
C200	C	1.055381	-0.309164	0.047915
C201	C	1.388714	0.024169	0.381248
N202	N	0.755497	-0.615181	-0.252016
N203	N	1.088830	-0.281847	0.081317
N204	N	1.422163	0.051486	0.414651
C205	C	0.788963	-0.642467	-0.218619
C206	C	1.122296	-0.309134	0.114715
C207	C	1.455629	0.024199	0.448048
C208	C	0.722165	-0.975573	-0.285457
C209	C	1.055499	-0.642240	0.047877
C210	C	1.388832	-0.308906	0.381210
C211	C	0.722179	-1.030175	-0.285459
C212	C	1.055513	-0.696842	0.047874
C213	C	1.388846	-0.363509	0.381207
C214	C	0.789097	-1.030145	-0.218656
C215	C	1.122430	-0.696812	0.114677
C216	C	1.455764	-0.363478	0.448010
C217	C	0.789080	-0.975542	-0.218652
C218	C	1.122413	-0.642208	0.114682
C219	C	1.455746	-0.308875	0.448015
C220	C	0.755614	-0.948256	-0.252055
C221	C	1.088948	-0.614923	0.081279
C222	C	1.422281	-0.281590	0.414612
C223	C	0.788916	-0.527802	-0.218605
C224	C	1.122249	-0.194469	0.114728
C225	C	1.455582	0.138864	0.448062
C226	C	0.788890	-0.473197	-0.218599
C227	C	1.122223	-0.139863	0.114735
C228	C	1.455557	0.193470	0.448068
C229	C	0.721975	-0.473232	-0.285403
C230	C	1.055308	-0.139899	0.047930
C231	C	1.388641	0.193435	0.381263
C232	C	0.721998	-0.527832	-0.285408
C233	C	1.055332	-0.194499	0.047926
C234	C	1.388665	0.138834	0.381259
C235	C	0.755473	-0.555116	-0.252007
C236	C	1.088806	-0.221783	0.081327
C237	C	1.422140	0.111550	0.414660
O238	O	0.693588	-0.614228	-0.313794
O239	O	1.026922	-0.280894	0.019540
O240	O	1.360255	0.052439	0.352873
O241	O	0.817412	-0.614212	-0.190216
O242	O	1.150745	-0.280878	0.143117
O243	O	1.484078	0.052455	0.476451
C244	C	0.891875	-0.251975	-0.252049
C245	C	1.225208	0.081359	0.081285
C246	C	1.558541	0.414692	0.414618
C247	C	0.949989	-0.251984	-0.252064
C248	C	1.283322	0.081350	0.081269
C249	C	1.616655	0.414683	0.414603
C250	C	0.755530	-0.251931	-0.388386
C251	C	1.088863	0.081403	-0.055053
C252	C	1.422197	0.414736	0.278281
C253	C	0.755542	-0.251921	-0.446500
C254	C	1.088875	0.081412	-0.113167
C255	C	1.422209	0.414746	0.220167
C256	C	0.755604	-0.115581	-0.252048
C257	C	1.088937	0.217753	0.081285
C258	C	1.422271	0.551086	0.414618
C259	C	0.755648	-0.057467	-0.252064
C260	C	1.088981	0.275867	0.081270
C261	C	1.422314	0.609200	0.414603
C262	C	0.788971	-0.285323	-0.697686
C263	C	1.122304	0.048010	-0.364353
C264	C	1.455638	0.381343	-0.031019
C265	C	0.788965	-0.285334	-0.643082
C266	C	1.122299	0.047999	-0.309748
C267	C	1.455632	0.381332	0.023585
O268	O	0.817364	-0.313792	-0.614839
O269	O	1.150697	0.019541	-0.281505
O270	O	1.484030	0.352874	0.051828
N271	N	0.755553	-0.251895	-0.615774
N272	N	1.088887	0.081438	-0.282441
N273	N	1.422220	0.414771	0.050893
C274	C	0.722141	-0.218447	-0.643073
C275	C	1.055474	0.114886	-0.309740
C276	C	1.388808	0.448219	0.023593
O277	O	0.693720	-0.190006	-0.614832
O278	O	1.027054	0.143327	-0.281499
O279	O	1.360387	0.476660	0.051835
C280	C	0.722144	-0.218439	-0.697677
C281	C	1.055477	0.114894	-0.364343
C282	C	1.388811	0.448227	-0.031010
C283	C	0.755562	-0.251877	-0.724982
C284	C	1.088896	0.081457	-0.391648
C285	C	1.422229	0.414790	-0.058315
C286	C	0.822386	-0.318758	-0.724991
C287	C	1.155719	0.014575	-0.391658
C288	C	1.489053	0.347908	-0.058324
C289	C	0.822392	-0.318747	-0.779592
C290	C	1.155725	0.014587	-0.446258
C291	C	1.489059	0.347920	-0.112925
C292	C	0.788983	-0.285300	-0.806887
C293	C	1.122316	0.048033	-0.473554
C294	C	1.455650	0.381367	-0.140221
C295	C	0.755568	-0.251865	-0.779582
C296	C	1.088902	0.081468	-0.446249
C297	C	1.422235	0.414802	-0.112916
C298	C	0.688729	-0.184994	-0.724975
C299	C	1.022063	0.148339	-0.391642
C300	C	1.355396	0.481672	-0.058308
C301	C	0.688735	-0.184989	-0.779582
C302	C	1.022069	0.148344	-0.446249
C303	C	1.355402	0.481677	-0.112915
C304	C	0.722153	-0.218427	-0.806887
C305	C	1.055487	0.114907	-0.473554
C306	C	1.388820	0.448240	-0.140220
C307	C	0.722165	-0.218406	-0.861478
C308	C	1.055499	0.114927	-0.528145
C309	C	1.388832	0.448260	-0.194812
N310	N	0.755578	-0.251845	-0.888786
N311	N	1.088911	0.081488	-0.555453
N312	N	1.422244	0.414821	-0.222119
C313	C	0.788986	-0.285292	-0.861491
C314	C	1.122320	0.048041	-0.528157
C315	C	1.455653	0.381375	-0.194824
C316	C	0.722136	-0.218467	-0.528403
C317	C	1.055469	0.114866	-0.195069
C318	C	1.388803	0.448200	0.138264
C319	C	0.722135	-0.218472	-0.473800
C320	C	1.055468	0.114861	-0.140467
C321	C	1.388802	0.448195	0.192866
C322	C	0.788959	-0.285360	-0.473813
C323	C	1.122292	0.047974	-0.140479
C324	C	1.455626	0.381307	0.192854
C325	C	0.788962	-0.285352	-0.528416
C326	C	1.122296	0.047981	-0.195083
C327	C	1.455629	0.381315	0.138251
C328	C	0.755548	-0.251906	-0.555710
C329	C	1.088881	0.081427	-0.222377
C330	C	1.422215	0.414761	0.110956
C331	C	0.788997	-0.285264	-0.976156
C332	C	1.122330	0.048069	-0.642822
C333	C	1.455664	0.381402	-0.309489
C334	C	0.789002	-0.285248	-1.030761
C335	C	1.122335	0.048085	-0.697428
C336	C	1.455668	0.381418	-0.364094
C337	C	0.722176	-0.218363	-1.030744
C338	C	1.055509	0.114971	-0.697411
C339	C	1.388842	0.448304	-0.364078
C340	C	0.722173	-0.218377	-0.976144
C341	C	1.055506	0.114957	-0.642810
C342	C	1.388840	0.448290	-0.309477
C343	C	0.755585	-0.251832	-0.948851
C344	C	1.088918	0.081501	-0.615517
C345	C	1.422252	0.414835	-0.282184
O346	O	0.693780	-0.189965	-0.889756
O347	O	1.027114	0.143369	-0.556423
O348	O	1.360447	0.476702	-0.223089
O349	O	0.817397	-0.313733	-0.889739
O350	O	1.150731	0.019600	-0.556405
O351	O	1.484064	0.352934	-0.223072
C352	C	0.755503	-0.251939	-0.116170
C353	C	1.088837	0.081394	0.217163
C354	C	1.422170	0.414728	0.550496
C355	C	0.755593	-0.251802	-0.058057
C356	C	1.088926	0.081532	0.275277
C357	C	1.422259	0.414865	0.608610
H358	H	0.457425	-0.312694	-0.312556
H359	H	0.790758	0.020639	0.020777
H360	H	1.124092	0.353973	0.354110
O361	O	0.825040	-0.321345	-0.946728
O362	O	1.158374	0.011989	-0.613394
O363	O	1.491707	0.345322	-0.280061
H364	H	0.801624	-0.347956	-0.921838
H365	H	1.134958	-0.014623	-0.588505
H366	H	1.468291	0.318711	-0.255171
O367	O	0.685879	-0.443798	-0.321425
O368	O	1.019212	-0.110465	0.011909
O369	O	1.352546	0.222868	0.345242
H370	H	0.709260	-0.418888	-0.348047
H371	H	1.042593	-0.085555	-0.014714
H372	H	1.375927	0.247778	0.318619
O373	O	0.824995	-0.321439	-0.444371
O374	O	1.158328	0.011894	-0.111037
O375	O	1.491661	0.345227	0.222296
H376	H	0.801569	-0.348043	-0.419482
H377	H	1.134902	-0.014709	-0.086148
H378	H	1.468236	0.318624	0.247185
H379	H	0.849592	-0.345997	-0.702773
H380	H	1.182925	-0.012664	-0.369440
H381	H	1.516259	0.320670	-0.036106
H382	H	0.305301	-0.346190	-0.345950
H383	H	0.638635	-0.012857	-0.012617
H384	H	0.971968	0.320477	0.320716
H385	H	0.816217	-0.312477	-1.052990
H386	H	1.149550	0.020856	-0.719657
H387	H	1.482883	0.354190	-0.386324
H388	H	0.694929	-0.191238	-0.451573
H389	H	1.028262	0.142095	-0.118240
H390	H	1.361595	0.475429	0.215093
H391	H	0.661405	-0.801240	-0.346049
H392	H	0.994738	-0.467906	-0.012716
H393	H	1.328072	-0.134573	0.320617
O394	O	0.686137	-0.182307	-0.946688
O395	O	1.019470	0.151026	-0.613355
O396	O	1.352803	0.484360	-0.280022
H397	H	0.659517	-0.205709	-0.921795
H398	H	0.992850	0.127624	-0.588462
H399	H	1.326183	0.460957	-0.255129
O400	O	0.061334	-0.182383	-0.182664
O401	O	0.394668	0.150951	0.150669
O402	O	0.728001	0.484284	0.484003
H403	H	0.033169	-0.159112	-0.159455
H404	H	0.366503	0.174221	0.173879
H405	H	0.699836	0.507555	0.507212
O406	O	0.858421	-0.354826	-0.809040
O407	O	1.191754	-0.021492	-0.475706
O408	O	1.525088	0.311841	-0.142373
H409	H	0.881640	-0.378089	-0.780878
H410	H	1.214974	-0.044756	-0.447545
H411	H	1.548307	0.288577	-0.114212
O412	O	0.199037	-0.355105	-0.354727
O413	O	0.532370	-0.021772	-0.021394
O414	O	0.865704	0.311561	0.311939
H415	H	0.227205	-0.378407	-0.377903
H416	H	0.560538	-0.045073	-0.044570
H417	H	0.893871	0.288260	0.288764
O418	O	0.061344	-0.321572	-0.321438
O419	O	0.394677	0.011761	0.011895
O420	O	0.728010	0.345095	0.345228
H421	H	0.086244	-0.298201	-0.348078
H422	H	0.419578	0.035133	-0.014745
H423	H	0.752911	0.368466	0.318588
O424	O	0.858528	-0.694904	-0.149195
O425	O	1.191861	-0.361570	0.184138
O426	O	1.525194	-0.028237	0.517471
H427	H	0.852896	-0.652349	-0.154793
H428	H	1.186229	-0.319015	0.178540
H429	H	1.519562	0.014318	0.511873
O430	O	0.824973	-0.443740	-0.182567
O431	O	1.158306	-0.110406	0.150767
O432	O	1.491639	0.222927	0.484100
H433	H	0.851547	-0.418823	-0.205996
H434	H	1.184880	-0.085490	0.127337
H435	H	1.518214	0.247844	0.460671
O436	O	-0.052147	-0.321581	-0.321448
O437	O	0.281186	0.011753	0.011885
O438	O	0.614519	0.345086	0.345219
H439	H	-0.094703	-0.315951	-0.315847
H440	H	0.238631	0.017382	0.017487
H441	H	0.571964	0.350716	0.350820
O442	O	0.858562	-0.808384	-0.149205
O443	O	1.191896	-0.475051	0.184128
O444	O	1.525229	-0.141718	0.517461
H445	H	0.881809	-0.780209	-0.125977
H446	H	1.215142	-0.446876	0.207356
H447	H	1.548476	-0.113542	0.540690
H448	H	0.816349	-1.052372	-0.191464
H449	H	1.149682	-0.719038	0.141869
H450	H	1.483015	-0.385705	0.475202
H451	H	0.661525	-0.157753	-0.801803
H452	H	0.994858	0.175580	-0.468469
H453	H	1.328191	0.508914	-0.135136
O454	O	0.686153	-0.182277	-1.060189
O455	O	1.019487	0.151056	-0.726855
O456	O	1.352820	0.484389	-0.393522
H457	H	0.691775	-0.187890	-1.102744
H458	H	1.025108	0.145443	-0.769411
H459	H	1.358442	0.478776	-0.436078
H460	H	0.305297	-0.157705	-0.158103
H461	H	0.638630	0.175628	0.175230
H462	H	0.971963	0.508962	0.508564
H463	H	0.816174	-0.312580	-0.550644
H464	H	1.149507	0.020754	-0.217311
H465	H	1.482841	0.354087	0.116023
O466	O	-0.052156	-0.182388	-0.182686
O467	O	0.281177	0.150946	0.150648
O468	O	0.614511	0.484279	0.483981
H469	H	-0.023995	-0.159102	-0.159478
H470	H	0.309338	0.174231	0.173855
H471	H	0.642671	0.507564	0.507188
O472	O	0.199027	-0.148862	-0.149293
O473	O	0.532360	0.184471	0.184040
O474	O	0.865693	0.517804	0.517374
H475	H	0.227190	-0.125575	-0.126091
H476	H	0.560524	0.207758	0.207242
H477	H	0.893857	0.541091	0.540576
O478	O	0.450180	-0.182345	-0.182618
O479	O	0.783514	0.150988	0.150716
O480	O	1.116847	0.484322	0.484049
H481	H	0.478338	-0.159059	-0.159407
H482	H	0.811671	0.174274	0.173926
H483	H	1.145005	0.507607	0.507259
H484	H	0.816316	-0.953306	-0.191448
H485	H	1.149649	-0.619973	0.141885
H486	H	1.482982	-0.286639	0.475218
H487	H	0.694928	-0.191226	-0.550623
H488	H	1.028261	0.142107	-0.217289
H489	H	1.361595	0.475440	0.116044
H490	H	0.661516	-0.157767	-0.702753
H491	H	0.994849	0.175566	-0.369419
H492	H	1.328183	0.508900	-0.036086
H493	H	0.816175	-0.550010	-0.191408
H494	H	1.149508	-0.216677	0.141926
H495	H	1.482842	0.116656	0.475259
O496	O	0.563697	-0.321535	-0.321354
O497	O	0.897030	0.011798	0.011980
O498	O	1.230364	0.345131	0.345313
H499	H	0.535538	-0.344814	-0.344570
H500	H	0.868872	-0.011481	-0.011236
H501	H	1.202205	0.321853	0.322097
O502	O	0.686101	-1.059634	-0.321488
O503	O	1.019434	-0.726301	0.011845
O504	O	1.352768	-0.392967	0.345178
H505	H	0.662831	-1.031481	-0.344711
H506	H	0.996164	-0.698148	-0.011377
H507	H	1.329498	-0.364814	0.321956
O508	O	0.686055	-0.946144	-0.321473
O509	O	1.019389	-0.612811	0.011860
O510	O	1.352722	-0.279477	0.345194
H511	H	0.662796	-0.974317	-0.344692
H512	H	0.996129	-0.640983	-0.011359
H513	H	1.329463	-0.307650	0.321975
H514	H	0.661379	-0.702190	-0.346042
H515	H	0.994712	-0.368856	-0.012709
H516	H	1.328045	-0.035523	0.320624
H517	H	0.556470	-0.191192	-0.191422
H518	H	0.889803	0.142141	0.141911
H519	H	1.223137	0.475475	0.475244
O520	O	0.685923	-0.557298	-0.321438
O521	O	1.019256	-0.223965	0.011895
O522	O	1.352590	0.109369	0.345229
H523	H	0.662650	-0.529148	-0.344661
H524	H	0.995984	-0.195815	-0.011328
H525	H	1.329317	0.137519	0.322005
