data_functionalizedCrystal
_audit_creation_method	'MofGen! by Chris Wilmer'
_symmetry_space_group_name_H-M	'P1'
_symmetry_Int_Tables_number	1
_symmetry_cell_setting	triclinic
loop_
_symmetry_equiv_pos_as_xyz
  x,y,z
_cell_length_a	18.050590
_cell_length_b	8.497365
_cell_length_c	18.050589
_cell_angle_alpha	90.049871
_cell_angle_beta	89.976137
_cell_angle_gamma	89.981281
loop_
_atom_site_label
_atom_site_type_symbol
_atom_site_fract_x
_atom_site_fract_y
_atom_site_fract_z
Zn1	Zn	1.135402	-0.891392	0.295688
Zn2	Zn	1.135256	-0.627601	0.419940
Zn3	Zn	1.011179	-0.627682	0.295745
Zn4	Zn	1.011155	-0.891397	0.419817
O5	O	1.073248	-0.759518	0.357798
O6	O	1.239307	-0.856363	0.312198
O7	O	1.118746	-0.406849	0.403541
O8	O	1.027728	-0.662696	0.191813
O9	O	1.239200	-0.662558	0.403486
O10	O	1.118994	-0.856442	0.191771
O11	O	1.027587	-0.406909	0.312295
O12	O	0.907251	-0.662701	0.312176
O13	O	1.027688	-1.112159	0.403276
O14	O	0.907234	-0.856451	0.403331
O15	O	1.118971	-1.112155	0.312079
O16	O	1.118723	-0.662563	0.523849
O17	O	1.027546	-0.856372	0.523758
C18	C	0.880296	-0.759586	0.357747
C19	C	0.797750	-0.759653	0.357743
C20	C	1.073136	-0.759493	0.550750
C21	C	1.073157	-0.759536	0.633296
C22	C	0.598311	-0.864763	0.407455
C23	C	0.548932	-0.903573	0.339730
C24	C	0.646620	-0.759576	0.357785
C25	C	0.548917	-0.720764	0.425549
C26	C	0.500635	-0.759504	0.357831
C27	C	0.598328	-0.798460	0.290023
C28	C	0.598317	-0.615584	0.375887
C29	C	0.548960	-0.654340	0.308116
C30	C	0.730718	-0.759621	0.357759
C31	C	0.416538	-0.759459	0.357849
C32	C	1.023601	-0.864894	0.832724
C33	C	1.005475	-0.720949	0.882192
C34	C	1.073213	-0.759557	0.784426
C35	C	1.091359	-0.903519	0.882039
C36	C	1.073265	-0.759591	0.930411
C37	C	1.055051	-0.615537	0.832807
C38	C	1.140966	-0.798203	0.832650
C39	C	1.122866	-0.654160	0.882096
C40	C	1.073180	-0.759540	0.700328
C41	C	1.073297	-0.759592	1.014508
C42	C	1.266953	-0.759451	0.357849
C43	C	1.349499	-0.759422	0.357871
C44	C	1.073352	-0.759579	1.164092
C45	C	1.073323	-0.759610	1.081546
C46	C	1.073194	-0.349638	0.357879
C47	C	1.073300	-0.170995	0.357726
H48	H	0.619983	-0.953817	0.449387
O49	O	1.172861	-0.547577	0.907767
C50	C	1.153492	-0.396074	0.882531
H51	H	1.091872	-0.392987	0.868792
H52	H	1.165986	-0.305918	0.927629
H53	H	1.186954	-0.366809	0.830769
H54	H	1.198226	-0.830930	0.810874
H55	H	0.981592	-0.953847	0.811046
H56	H	0.527428	-0.565355	0.266082
O57	O	0.624187	-0.470439	0.394285
C58	C	0.597903	-0.428747	0.465204
H59	H	0.583236	-0.539827	0.497391
H60	H	0.642724	-0.360929	0.496191
H61	H	0.546498	-0.351772	0.459379
O62	O	0.523107	-0.681818	0.493946
C63	C	0.548234	-0.793101	0.546104
H64	H	0.600244	-0.853288	0.524112
H65	H	0.561526	-0.731069	0.600521
H66	H	0.503250	-0.884929	0.555857
O67	O	0.523077	-1.048896	0.321605
C68	C	0.548229	-1.159486	0.374077
H69	H	0.562086	-1.096558	0.428122
H70	H	0.503036	-1.250484	0.384542
H71	H	0.599903	-1.220842	0.351997
O72	O	0.937103	-0.682214	0.908122
C73	C	0.884932	-0.793521	0.882956
H74	H	0.914443	-0.908431	0.869021
H75	H	0.842074	-0.815588	0.928172
H76	H	0.856093	-0.746552	0.831327
H77	H	1.039657	-0.493770	0.811270
H78	H	1.106687	-1.025253	0.903666
O79	O	0.624229	-0.837807	0.221712
C80	C	0.702335	-0.837395	0.222515
H81	H	0.722774	-0.854737	0.281696
H82	H	0.723911	-0.937052	0.186093
H83	H	0.723477	-0.720068	0.200405
