data_functionalizedCrystal
_audit_creation_method	'MofGen! by Chris Wilmer'
_symmetry_space_group_name_H-M	'P1'
_symmetry_Int_Tables_number	1
_symmetry_cell_setting	triclinic
loop_
_symmetry_equiv_pos_as_xyz
  x,y,z
_cell_length_a	17.077404
_cell_length_b	12.759394
_cell_length_c	12.759387
_cell_angle_alpha	89.968340
_cell_angle_beta	89.977200
_cell_angle_gamma	90.015062
loop_
_atom_site_label
_atom_site_type_symbol
_atom_site_fract_x
_atom_site_fract_y
_atom_site_fract_z
Zn1	Zn	1.200124	-0.418205	-0.594063
Zn2	Zn	1.200042	-0.593922	-0.418381
Zn3	Zn	1.068848	-0.418258	-0.418393
Zn4	Zn	1.068842	-0.593843	-0.594013
O5	O	1.134464	-0.506057	-0.506212
O6	O	1.309960	-0.441525	-0.570774
O7	O	1.182607	-0.570675	-0.271361
O8	O	1.086299	-0.271230	-0.441722
O9	O	1.309900	-0.570623	-0.441701
O10	O	1.182747	-0.271191	-0.570786
O11	O	1.086220	-0.441615	-0.271370
O12	O	0.959001	-0.441539	-0.441673
O13	O	1.086289	-0.570489	-0.741041
O14	O	0.958996	-0.570541	-0.570701
O15	O	1.182741	-0.441448	-0.741078
O16	O	1.182601	-0.740932	-0.441653
O17	O	1.086209	-0.740875	-0.570689
C18	C	0.930516	-0.506038	-0.506183
C19	C	0.843267	-0.506055	-0.506196
C20	C	1.134417	-0.779024	-0.506187
C21	C	1.134469	-0.895801	-0.506211
C22	C	0.802295	-0.573327	-0.573273
C23	C	0.720314	-0.573330	-0.573289
C24	C	0.679307	-0.506064	-0.506223
C25	C	0.720285	-0.438784	-0.439144
C26	C	0.802264	-0.438777	-0.439133
C27	C	0.549415	-0.438805	-0.439169
C28	C	0.467430	-0.438813	-0.439178
C29	C	0.467465	-0.573357	-0.573325
C30	C	0.549444	-0.573350	-0.573315
C31	C	0.590416	-0.506072	-0.506233
C32	C	1.234917	-0.895808	-0.371947
C33	C	1.285162	-0.950672	-0.304827
C34	C	1.285208	-1.060394	-0.304855
C35	C	1.235005	-1.115254	-0.372013
C36	C	1.184761	-1.060389	-0.439133
C37	C	1.184718	-0.950665	-0.439095
C38	C	1.084318	-1.060383	-0.573401
C39	C	1.084266	-0.950661	-0.573369
C40	C	1.034115	-1.115242	-0.640559
C41	C	0.983866	-1.060378	-0.707676
C42	C	0.983821	-0.950650	-0.707644
C43	C	1.034022	-0.895797	-0.640489
C44	C	1.339208	-0.506077	-0.506242
C45	C	1.426458	-0.506085	-0.506255
C46	C	1.134523	-0.505954	-0.780246
C47	C	1.134549	-0.505910	-0.897023
C48	C	1.134533	-0.232023	-0.506261
C49	C	1.134562	-0.115247	-0.506282
C50	C	1.234991	-0.371549	-0.897081
C51	C	1.285223	-0.304352	-0.951971
C52	C	1.285242	-0.304314	-1.061693
C53	C	1.235022	-0.371477	-1.116527
C54	C	1.184790	-0.438674	-1.061637
C55	C	1.184778	-0.438707	-0.951913
C56	C	1.084345	-0.573028	-1.061579
C57	C	1.084329	-0.573073	-0.951857
C58	C	1.034125	-0.640191	-1.116413
C59	C	0.983895	-0.707394	-1.061523
C60	C	0.983879	-0.707431	-0.951795
C61	C	1.034096	-0.640269	-0.896967
C62	C	1.134450	-0.506084	-0.233245
C63	C	1.134577	-0.505832	-0.116469
H64	H	0.686958	-0.628111	-0.627909
H65	H	1.234874	-0.806467	-0.371903
H66	H	0.582772	-0.384010	-0.384554
H67	H	0.942965	-0.762139	-0.907110
N68	N	0.929728	-0.779805	-1.120678
H69	H	0.961614	-0.828479	-1.166212
H70	H	0.897909	-0.822316	-1.069203
H71	H	0.835677	-0.628107	-0.627882
H72	H	0.942999	-1.105054	-0.762355
N73	N	0.593676	-0.645909	-0.645638
H74	H	0.555283	-0.688530	-0.688136
H75	H	0.627716	-0.603198	-0.694327
N76	N	0.423280	-0.645926	-0.645677
H77	H	0.365124	-0.635723	-0.635513
H78	H	0.437643	-0.629668	-0.720738
N79	N	0.676055	-0.366252	-0.366792
H80	H	0.642054	-0.317619	-0.409561
H81	H	0.642072	-0.408994	-0.318059
H82	H	1.034091	-0.640297	-0.807626
H83	H	0.835622	-0.383992	-0.384518
N84	N	1.034150	-0.640158	-1.234755
H85	H	0.994715	-0.692900	-1.261160
H86	H	1.019775	-0.568039	-1.261120
N87	N	0.423198	-0.366264	-0.366846
H88	H	0.461591	-0.323636	-0.324354
H89	H	0.389205	-0.317705	-0.409708
H90	H	1.326037	-0.905996	-0.250149
N91	N	1.034159	-1.233584	-0.640585
H92	H	0.994733	-1.260010	-0.693311
H93	H	1.088038	-1.259862	-0.659927
N94	N	1.339402	-1.119576	-0.232471
H95	H	1.371200	-1.068179	-0.189924
H96	H	1.307482	-1.165176	-0.183830
H97	H	0.942909	-0.905985	-0.762305
H98	H	1.033985	-0.806456	-0.640450
H99	H	1.235054	-1.204595	-0.372040
H100	H	1.234988	-0.371583	-0.807740
N101	N	1.339407	-0.231941	-0.892830
H102	H	1.331784	-0.242169	-0.814993
H103	H	1.395458	-0.248332	-0.912039
N104	N	1.339412	-0.231832	-1.120903
H105	H	1.371222	-0.189287	-1.069522
H106	H	1.375732	-0.274591	-1.166429
H107	H	1.235036	-0.371431	-1.205868
