data_functionalizedCrystal
_audit_creation_method	'MofGen! by Chris Wilmer'
_symmetry_space_group_name_H-M	'P1'
_symmetry_Int_Tables_number	1
_symmetry_cell_setting	triclinic
loop_
_symmetry_equiv_pos_as_xyz
  x,y,z
_cell_length_a	18.050590
_cell_length_b	21.295417
_cell_length_c	18.050582
_cell_angle_alpha	89.974292
_cell_angle_beta	90.000767
_cell_angle_gamma	90.018869
loop_
_atom_site_label
_atom_site_type_symbol
_atom_site_fract_x
_atom_site_fract_y
_atom_site_fract_z
Zn1	Zn	1.135285	-0.250831	-0.419585
Zn2	Zn	1.635285	0.249169	0.080415
Zn3	Zn	1.135192	-0.356092	-0.295389
Zn4	Zn	1.635192	0.143908	0.204611
Zn5	Zn	1.011104	-0.250821	-0.295444
Zn6	Zn	1.511104	0.249179	0.204556
Zn7	Zn	1.011049	-0.356047	-0.419571
Zn8	Zn	1.511049	0.143953	0.080429
O9	O	1.073157	-0.303448	-0.357497
O10	O	1.573157	0.196552	0.142503
O11	O	1.239197	-0.264818	-0.403093
O12	O	1.739197	0.235182	0.096907
O13	O	1.118716	-0.342143	-0.191471
O14	O	1.618716	0.157857	0.308529
O15	O	1.027639	-0.162733	-0.311940
O16	O	1.527639	0.337267	0.188060
O17	O	1.239129	-0.342153	-0.311847
O18	O	1.739129	0.157847	0.188153
O19	O	1.118874	-0.162741	-0.403147
O20	O	1.618874	0.337259	0.096853
O21	O	1.027549	-0.264801	-0.191512
O22	O	1.527549	0.235199	0.308488
O23	O	0.907172	-0.264756	-0.311926
O24	O	1.407172	0.235244	0.188074
O25	O	1.027545	-0.342075	-0.523498
O26	O	1.527545	0.157925	-0.023498
O27	O	0.907132	-0.342065	-0.403122
O28	O	1.407132	0.157935	0.096878
O29	O	1.118820	-0.264773	-0.523508
O30	O	1.618820	0.235227	-0.023508
O31	O	1.118663	-0.444176	-0.311833
O32	O	1.618663	0.055824	0.188167
O33	O	1.027455	-0.444142	-0.403069
O34	O	1.527455	0.055858	0.096931
C35	C	0.880205	-0.303405	-0.357529
C36	C	1.380205	0.196595	0.142471
C37	C	0.797660	-0.303402	-0.357560
C38	C	1.297660	0.196598	0.142440
C39	C	0.598208	-0.345562	-0.407035
C40	C	1.098208	0.154438	0.092965
C41	C	0.548817	-0.288165	-0.425314
C42	C	1.048817	0.211835	0.074686
C43	C	0.646529	-0.303437	-0.357524
C44	C	1.146529	0.196563	0.142476
C45	C	0.548839	-0.360867	-0.339245
C46	C	1.048839	0.139133	0.160755
C47	C	0.500544	-0.303476	-0.357491
C48	C	1.000544	0.196524	0.142509
C49	C	0.598225	-0.246009	-0.375838
C50	C	1.098225	0.253991	0.124162
C51	C	0.598251	-0.318749	-0.289738
C52	C	1.098251	0.181251	0.210262
C53	C	0.548882	-0.261313	-0.307991
C54	C	1.048882	0.238687	0.192009
C55	C	0.730627	-0.303415	-0.357545
C56	C	1.230627	0.196585	0.142455
C57	C	0.416448	-0.303491	-0.357469
C58	C	0.916448	0.196509	0.142531
C59	C	1.073063	-0.467000	-0.357460
C60	C	1.573063	0.033000	0.142540
C61	C	1.073090	-0.536968	-0.357468
C62	C	1.573090	-0.036968	0.142532
C63	C	1.120569	-0.569781	-0.404994
C64	C	1.620569	-0.069781	0.095006
C65	C	1.120595	-0.635523	-0.405012
C66	C	1.620595	-0.135523	0.094988
C67	C	1.073150	-0.668450	-0.357492
C68	C	1.573150	-0.168450	0.142508
C69	C	1.025662	-0.635629	-0.309963
C70	C	1.525662	-0.135629	0.190037
C71	C	1.025632	-0.569888	-0.309952
C72	C	1.525632	-0.069888	0.190048
N73	N	1.067546	-0.771706	-0.292499
N74	N	1.567546	-0.271706	0.207501
N75	N	1.067579	-0.834158	-0.292512
N76	N	1.567579	-0.334158	0.207488
C77	C	1.073237	-0.866525	-0.357525
C78	C	1.573237	-0.366525	0.142475
N79	N	1.078875	-0.834081	-0.422526
N80	N	1.578875	-0.334081	0.077474
N81	N	1.078846	-0.771624	-0.422512
N82	N	1.578846	-0.271624	0.077488
C83	C	1.073178	-0.739735	-0.357499
C84	C	1.573178	-0.239735	0.142501
C85	C	1.120747	-0.970624	-0.405074
C86	C	1.620747	-0.470624	0.094926
C87	C	1.120768	-1.036367	-0.405094
C88	C	1.620768	-0.536367	0.094906
C89	C	1.025839	-1.036472	-0.310039
C90	C	1.525839	-0.536472	0.189961
C91	C	1.025814	-0.970729	-0.310026
C92	C	1.525814	-0.470729	0.189974
C93	C	1.073272	-0.937809	-0.357542
C94	C	1.573272	-0.437809	0.142458
C95	C	1.266863	-0.303492	-0.357465
C96	C	1.766863	0.196508	0.142535
C97	C	1.349409	-0.303510	-0.357452
C98	C	1.849409	0.196490	0.142548
C99	C	1.073187	-0.303420	-0.551203
C100	C	1.573187	0.196580	-0.051203
C101	C	1.073199	-0.303408	-0.633749
C102	C	1.573199	0.196592	-0.133749
C103	C	1.073273	-0.139258	-0.357551
C104	C	1.573273	0.360742	0.142449
C105	C	1.073322	-0.069290	-0.357574
C106	C	1.573322	0.430710	0.142426
C107	C	1.023601	-0.345387	-0.833194
C108	C	1.523601	0.154613	-0.333194
C109	C	1.091356	-0.360785	-0.882566
C110	C	1.591356	0.139215	-0.382566
C111	C	1.073236	-0.303360	-0.784879
C112	C	1.573236	0.196640	-0.284879
C113	C	1.005518	-0.287944	-0.882589
C114	C	1.505518	0.212056	-0.382589
C115	C	1.073265	-0.303315	-0.930864
C116	C	1.573265	0.196685	-0.430864
C117	C	1.141026	-0.318788	-0.833164
C118	C	1.641026	0.181212	-0.333164
C119	C	1.055142	-0.245921	-0.833183
C120	C	1.555142	0.254079	-0.333183
C121	C	1.122944	-0.261297	-0.882532
C122	C	1.622944	0.238703	-0.382532
C123	C	1.073218	-0.303388	-0.700781
C124	C	1.573218	0.196612	-0.200781
C125	C	1.073291	-0.303287	-1.014961
C126	C	1.573291	0.196713	-0.514961
C127	C	1.073171	-0.303430	-0.164545
C128	C	1.573171	0.196570	0.335455
C129	C	1.073303	-0.303265	-0.082000
C130	C	1.573303	0.196735	0.418000
H131	H	0.527360	-0.225664	-0.266107
H132	H	1.027360	0.274336	0.233893
Br133	Br	1.185151	-0.925943	-0.469561
Br134	Br	1.685151	-0.425943	0.030439
H135	H	0.527103	-0.275226	-0.482625
H136	H	1.027103	0.224774	0.017375
H137	H	0.619869	-0.381124	-0.448952
H138	H	1.119869	0.118876	0.051048
H139	H	0.527142	-0.409418	-0.323800
H140	H	1.027142	0.090582	0.176200
H141	H	0.987155	-0.944011	-0.271323
H142	H	1.487155	-0.444011	0.228677
H143	H	0.986968	-0.543170	-0.271250
H144	H	1.486968	-0.043170	0.228750
H145	H	0.981666	-0.380974	-0.811530
H146	H	1.481666	0.119026	-0.311530
H147	H	0.619828	-0.197444	-0.391350
H148	H	1.119828	0.302556	0.108650
Br149	Br	1.116896	-0.441714	-0.918720
Br150	Br	1.616896	0.058286	-0.418720
Br151	Br	1.029574	-0.165012	-0.796999
Br152	Br	1.529574	0.334988	-0.296999
Br153	Br	1.236524	-0.340587	-0.797137
Br154	Br	1.736524	0.159413	-0.297137
H155	H	1.159210	-0.542979	-0.443686
H156	H	1.659210	-0.042979	0.056314
H157	H	0.948238	-0.274925	-0.904300
H158	H	1.448238	0.225075	-0.404300
Br159	Br	0.634442	-0.340330	-0.194225
Br160	Br	1.134442	0.159670	0.305775
Br161	Br	1.185039	-0.680066	-0.469511
Br162	Br	1.685039	-0.180066	0.030489
Br163	Br	1.193001	-0.202027	-0.918418
Br164	Br	1.693001	0.297973	-0.418418
H165	H	0.987031	-0.662442	-0.271274
H166	H	1.487031	-0.162442	0.228726
Br167	Br	0.961444	-1.081150	-0.245550
Br168	Br	1.461444	-0.581150	0.254450
Br169	Br	1.185198	-1.080901	-0.469610
Br170	Br	1.685198	-0.580901	0.030390
