data_functionalizedCrystal
_audit_creation_method	'MofGen! by Chris Wilmer'
_symmetry_space_group_name_H-M	'P1'
_symmetry_Int_Tables_number	1
_symmetry_cell_setting	triclinic
loop_
_symmetry_equiv_pos_as_xyz
  x,y,z
_cell_length_a	25.639239
_cell_length_b	25.639242
_cell_length_c	15.296720
_cell_angle_alpha	99.654082
_cell_angle_beta	99.638856
_cell_angle_gamma	90.033587
loop_
_atom_site_label
_atom_site_type_symbol
_atom_site_fract_x
_atom_site_fract_y
_atom_site_fract_z
Zn1	Zn	-0.259382	0.748034	-0.510230
Zn2	Zn	-0.331694	0.763093	-0.359377
Zn3	Zn	-0.244266	0.675745	-0.359378
Zn4	Zn	-0.346773	0.660563	-0.510153
O5	O	-0.295529	0.711859	-0.434785
O6	O	-0.268990	0.823194	-0.490251
O7	O	-0.307460	0.764161	-0.233145
O8	O	-0.173110	0.685386	-0.379422
O9	O	-0.322117	0.834257	-0.379420
O10	O	-0.184215	0.738497	-0.490252
O11	O	-0.243227	0.699988	-0.233146
O12	O	-0.257849	0.600569	-0.379347
O13	O	-0.347817	0.659511	-0.636395
O14	O	-0.333160	0.589415	-0.490120
O15	O	-0.283611	0.723775	-0.636452
O16	O	-0.406856	0.749440	-0.379345
O17	O	-0.417934	0.674112	-0.490119
C18	C	-0.295501	0.576022	-0.434726
C19	C	-0.295503	0.517909	-0.434722
C20	C	-0.256269	0.272498	-0.377205
C21	C	-0.256263	0.327104	-0.377193
O22	O	-0.222868	0.360262	-0.328239
N23	N	-0.295515	0.348630	-0.434768
C24	C	-0.334772	0.315548	-0.492364
O25	O	-0.368158	0.338872	-0.541334
C26	C	-0.334775	0.260943	-0.492379
C27	C	-0.295524	0.239420	-0.434794
C28	C	-0.217020	0.250975	-0.319626
C29	C	-0.217027	0.196373	-0.319636
C30	C	-0.256282	0.163295	-0.377226
C31	C	-0.295531	0.184818	-0.434805
C32	C	-0.374030	0.227861	-0.549979
C33	C	-0.374030	0.173253	-0.549990
C34	C	-0.334778	0.151730	-0.492405
C35	C	-0.334793	0.097138	-0.492405
N36	N	-0.295541	0.075612	-0.434831
C37	C	-0.256285	0.108690	-0.377241
C38	C	-0.334761	0.430222	-0.492328
C39	C	-0.334761	0.484826	-0.492309
C40	C	-0.256251	0.496378	-0.377140
C41	C	-0.256254	0.441773	-0.377155
C42	C	-0.295509	0.408695	-0.434754
C43	C	-0.256303	-0.005978	-0.377267
C44	C	-0.256314	-0.060584	-0.377280
C45	C	-0.334822	-0.072132	-0.492452
C46	C	-0.334813	-0.017530	-0.492436
C47	C	-0.295548	0.015546	-0.434841
O48	O	-0.368169	0.063948	-0.541337
O49	O	-0.222901	0.085358	-0.328287
C50	C	-0.431367	0.711775	-0.434743
C51	C	-0.489482	0.711784	-0.434756
C52	C	-0.844077	0.751159	-0.377203
C53	C	-0.898683	0.751179	-0.377215
O54	O	-0.922010	0.784570	-0.328236
N55	N	-0.931774	0.711945	-0.434844
C56	C	-0.910258	0.672693	-0.492472
O57	O	-0.943418	0.639323	-0.541492
C58	C	-0.855653	0.672676	-0.492464
C59	C	-0.822564	0.711909	-0.434824
C60	C	-0.810988	0.790390	-0.319569
C61	C	-0.756386	0.790370	-0.319556
C62	C	-0.734873	0.751120	-0.377177
C63	C	-0.767962	0.711890	-0.434811
C64	C	-0.834139	0.633427	-0.550095
C65	C	-0.779530	0.633414	-0.550083
C66	C	-0.746441	0.672647	-0.492443
C67	C	-0.691847	0.672620	-0.492419
N68	N	-0.658756	0.711853	-0.434790
C69	C	-0.680269	0.751104	-0.377169
C70	C	-1.024930	0.672731	-0.492486
C71	C	-1.079532	0.672744	-0.492490
C72	C	-1.067954	0.751231	-0.377234
C73	C	-1.013350	0.751215	-0.377226
C74	C	-0.991838	0.711964	-0.434857
C75	C	-0.565602	0.751059	-0.377145
C76	C	-0.510995	0.751034	-0.377135
C77	C	-0.522579	0.672549	-0.492394
C78	C	-0.577180	0.672572	-0.492401
C79	C	-0.598690	0.711831	-0.434774
O80	O	-0.668483	0.639246	-0.541376
O81	O	-0.647104	0.784471	-0.328165
C82	C	-0.159162	0.711955	-0.434846
C83	C	-0.101050	0.711996	-0.434872
C84	C	-0.319082	0.688270	-0.670069
C85	C	-0.329119	0.678218	-0.770333
C86	C	-0.295557	0.848226	-0.434844
C87	C	-0.295569	0.906337	-0.434870
C88	C	-0.223702	0.783723	-1.053080
C89	C	-0.214272	0.793171	-0.958877
C90	C	-0.242983	0.764433	-0.911736
C91	C	-0.281125	0.726247	-0.958808
C92	C	-0.290558	0.716801	-1.053021
C93	C	-0.309839	0.697511	-0.911677
C94	C	-0.347981	0.659324	-0.958749
C95	C	-0.357412	0.649880	-1.052952
C96	C	-0.328702	0.678617	-1.100093
C97	C	-0.300406	0.706957	-0.817465
C98	C	-0.367263	0.640034	-0.817405
C99	C	-0.376692	0.630587	-0.911608
C100	C	-0.272029	0.735386	-0.200416
C101	C	-0.261845	0.745540	-0.100152
H102	H	-0.366732	0.403292	-0.539230
O103	O	-0.866201	0.595291	-0.606176
C104	C	-0.835491	0.560645	-0.657012
H105	H	-0.796864	0.581736	-0.660150
H106	H	-0.826413	0.524266	-0.623911
C107	C	-0.913830	0.517546	-0.749162
C108	C	-0.866390	0.543452	-0.753023
H109	H	-0.932890	0.506939	-0.808385
H110	H	-0.934521	0.540887	-0.714911
H111	H	-0.906259	0.487234	-0.721574
H112	H	-0.873962	0.573767	-0.780600
H113	H	-0.845701	0.520116	-0.787281
O114	O	-0.263317	0.743982	-0.771649
C115	C	-0.224079	0.719700	-0.717182
H116	H	-0.241097	0.681483	-0.703035
H117	H	-0.188972	0.710339	-0.753513
C118	C	-0.184748	0.804384	-0.645091
C119	C	-0.205652	0.757447	-0.627710
H120	H	-0.173380	0.827669	-0.589902
H121	H	-0.211183	0.820743	-0.681789
H122	H	-0.155496	0.796576	-0.675370
H123	H	-0.234908	0.765255	-0.597442
H124	H	-0.179222	0.741090	-0.591005
H125	H	-0.484055	0.782983	-0.330194
H126	H	-0.224328	0.020947	-0.330371
O127	O	-0.981165	0.789340	-0.321365
C128	C	-0.954697	0.817934	-0.372776
H129	H	-0.953355	0.792611	-0.441101
H130	H	-0.976708	0.855679	-0.382763
C131	C	-0.899515	0.863492	-0.239229
C132	C	-0.897862	0.832387	-0.323145
H133	H	-0.864457	0.872410	-0.208613
H134	H	-0.917348	0.844230	-0.204591
H135	H	-0.917860	0.894942	-0.247563
H136	H	-0.879524	0.800935	-0.314809
H137	H	-0.880025	0.851645	-0.357780
O138	O	-0.586402	0.789218	-0.321079
C139	C	-0.545481	0.823842	-0.270228
H140	H	-0.506265	0.802726	-0.267069
H141	H	-0.542940	0.860216	-0.303330
C142	C	-0.605353	0.866988	-0.178114
C143	C	-0.557188	0.841052	-0.174228
H144	H	-0.612575	0.877606	-0.118898
H145	H	-0.632923	0.843663	-0.212375
H146	H	-0.603230	0.897296	-0.205703
H147	H	-0.559314	0.810741	-0.146650
H148	H	-0.529618	0.864372	-0.139960
O149	O	-0.394530	0.612863	-1.098713
C150	C	-0.433753	0.637144	-1.153212
H151	H	-0.434141	0.681166	-1.124837
H152	H	-0.424743	0.631796	-1.224622
C153	C	-0.487768	0.557359	-1.189457
C154	C	-0.488248	0.611426	-1.154602
H155	H	-0.521383	0.541494	-1.190319
H156	H	-0.461343	0.540999	-1.152743
H157	H	-0.480258	0.552909	-1.248962
H158	H	-0.495752	0.615875	-1.095094
H159	H	-0.514677	0.627787	-1.191306
H160	H	-1.085479	0.783192	-0.330319
O161	O	-0.177188	0.830263	-0.913294
C162	C	-0.153878	0.853611	-0.975098
H163	H	-0.158785	0.825465	-1.042243
H164	H	-0.174036	0.892299	-0.985127
C165	C	-0.088528	0.899445	-0.855893
C166	C	-0.094551	0.864873	-0.938359
H167	H	-0.051933	0.906394	-0.833229
H168	H	-0.104233	0.883717	-0.814253
H169	H	-0.105330	0.931681	-0.864261
H170	H	-0.077755	0.832635	-0.929988
H171	H	-0.078842	0.880595	-0.979997
H172	H	-0.185064	0.178855	-0.272745
O173	O	-0.178860	0.283030	-0.263591
C174	C	-0.144217	0.252310	-0.212799
H175	H	-0.165319	0.213694	-0.209637
H176	H	-0.107855	0.243208	-0.245954
C177	C	-0.101068	0.330644	-0.120687
C178	C	-0.126988	0.283216	-0.116796
H179	H	-0.090438	0.349708	-0.061468
H180	H	-0.124406	0.351340	-0.154908
H181	H	-0.070770	0.323052	-0.148320
H182	H	-0.157288	0.290809	-0.089174
H183	H	-0.103654	0.262521	-0.082568
O184	O	-0.218182	0.528577	-0.321155
C185	C	-0.242051	0.565977	-0.262780
H186	H	-0.284876	0.570963	-0.294465
H187	H	-0.241039	0.551623	-0.195913
C188	C	-0.159045	0.613365	-0.207621
C189	C	-0.211642	0.619491	-0.246541
H190	H	-0.140286	0.646374	-0.197601
H191	H	-0.142963	0.588167	-0.246947
H192	H	-0.158209	0.601401	-0.151904
H193	H	-0.212478	0.631448	-0.302263
H194	H	-0.227723	0.644693	-0.207224
O195	O	-0.413807	0.593532	-0.957239
C196	C	-0.463616	0.607234	-0.934220
H197	H	-0.457859	0.634187	-0.865827
H198	H	-0.486538	0.628786	-0.987244
C199	C	-0.501910	0.523573	-1.013839
C200	C	-0.494839	0.556674	-0.929833
H201	H	-0.521171	0.492386	-1.011137
H202	H	-0.468353	0.514342	-1.029351
H203	H	-0.521010	0.541540	-1.058017
H204	H	-0.475733	0.538710	-0.885659
H205	H	-0.528393	0.565901	-0.914314
O206	O	-0.218130	-0.081407	-0.321313
C207	C	-0.183489	-0.040497	-0.270469
H208	H	-0.185409	-0.005270	-0.307419
H209	H	-0.195709	-0.027838	-0.201898
C210	C	-0.124190	-0.103760	-0.212264
C211	C	-0.126545	-0.060495	-0.257650
H212	H	-0.089065	-0.116096	-0.204352
H213	H	-0.147529	-0.131322	-0.246515
H214	H	-0.134376	-0.093204	-0.155126
H215	H	-0.116366	-0.071053	-0.314790
H216	H	-0.103203	-0.032935	-0.223407
O217	O	-0.218071	0.420951	-0.321194
C218	C	-0.183435	0.461865	-0.270346
H219	H	-0.185359	0.497093	-0.307292
H220	H	-0.195656	0.474519	-0.201775
C221	C	-0.124128	0.398606	-0.212145
C222	C	-0.126488	0.441873	-0.257527
H223	H	-0.089001	0.386275	-0.204233
H224	H	-0.147464	0.371042	-0.246399
H225	H	-0.134315	0.409158	-0.155007
H226	H	-0.116308	0.431319	-0.314667
H227	H	-0.103149	0.469435	-0.223282
H228	H	-0.366778	-0.000005	-0.539319
O229	O	-0.395170	0.612198	-0.771523
C230	C	-0.423497	0.647403	-0.717042
H231	H	-0.403653	0.688452	-0.702959
H232	H	-0.465878	0.649480	-0.753329
C233	C	-0.448367	0.577187	-0.644832
C234	C	-0.423992	0.627603	-0.627529
H235	H	-0.448675	0.564973	-0.589618
H236	H	-0.429284	0.553468	-0.681540
H237	H	-0.483683	0.578924	-0.675074
H238	H	-0.388675	0.625865	-0.597298
H239	H	-0.443069	0.651322	-0.590815
H240	H	-0.336377	0.670927	-1.176801
H241	H	-0.366784	-0.099074	-0.539337
H242	H	-0.366728	0.502346	-0.539190
H243	H	-0.405996	0.146322	-0.596898
O244	O	-0.412183	0.248669	-0.606006
C245	C	-0.446831	0.207756	-0.656819
H246	H	-0.425735	0.168528	-0.660002
H247	H	-0.483194	0.205243	-0.623670
C248	C	-0.489967	0.267631	-0.748896
C249	C	-0.464055	0.219450	-0.752811
H250	H	-0.500594	0.274845	-0.808107
H251	H	-0.466626	0.295196	-0.714660
H252	H	-0.520266	0.265530	-0.721267
H253	H	-0.433753	0.221554	-0.780429
H254	H	-0.487392	0.191886	-0.787054
H255	H	-0.729448	0.822318	-0.272623
H256	H	-0.235303	0.772128	-0.835032
H257	H	-0.828498	0.822355	-0.272646
O258	O	-1.111599	0.634605	-0.548559
C259	C	-1.080893	0.599952	-0.599392
H260	H	-1.042265	0.621039	-0.602540
H261	H	-1.071815	0.563577	-0.566283
C262	C	-1.159236	0.556853	-0.691527
C263	C	-1.111795	0.582754	-0.695399
H264	H	-1.178298	0.546242	-0.750747
H265	H	-1.179924	0.580197	-0.657278
H266	H	-1.151665	0.526543	-0.663932
H267	H	-1.119367	0.613066	-0.722984
H268	H	-1.091109	0.559414	-0.729655
H269	H	-1.007418	0.640764	-0.539413
H270	H	-0.762019	0.601452	-0.597015
H271	H	-0.604124	0.640627	-0.539339
H272	H	-0.505054	0.640591	-0.539306
H273	H	-0.200332	0.807120	-1.091470
