data_functionalizedCrystal
_audit_creation_method	'MofGen! by Chris Wilmer'
_symmetry_space_group_name_H-M	'P1'
_symmetry_Int_Tables_number	1
_symmetry_cell_setting	triclinic
loop_
_symmetry_equiv_pos_as_xyz
  x,y,z
_cell_length_a	10.489716
_cell_length_b	10.489741
_cell_length_c	12.996460
_cell_angle_alpha	89.994152
_cell_angle_beta	89.994805
_cell_angle_gamma	84.534155
loop_
_atom_site_label
_atom_site_type_symbol
_atom_site_fract_x
_atom_site_fract_y
_atom_site_fract_z
O1	O	1.694074	0.179821	-0.085558
O2	O	1.322874	0.196747	-0.085562
O3	O	1.516920	0.002685	-0.085554
O4	O	1.500027	0.373883	-0.085566
O5	O	1.516900	0.002674	0.085580
O6	O	1.322853	0.196736	0.085572
O7	O	1.694053	0.179810	0.085576
Cu8	Cu	1.508451	0.188272	0.101200
Cu9	Cu	1.508476	0.188285	-0.101186
O10	O	1.500007	0.373872	0.085568
C11	C	1.275332	0.195470	0.000005
C12	C	1.133701	0.191665	0.000003
C13	C	1.515634	-0.044852	0.000013
C14	C	1.511817	-0.186481	0.000011
C15	C	1.036027	0.310669	-0.000003
C16	C	0.958671	0.247780	0.084382
C17	C	0.958697	0.247762	-0.084343
C18	C	1.058210	0.128825	0.084458
C19	C	1.058242	0.128825	-0.084343
C20	C	0.980935	0.065848	0.000063
C21	C	1.388351	-0.254610	0.000002
C22	C	1.446665	-0.346743	0.084380
C23	C	1.446714	-0.346707	-0.084344
C24	C	1.570182	-0.276748	0.084459
C25	C	1.570214	-0.276703	-0.084342
C26	C	1.628618	-0.368808	0.000058
C27	C	1.741596	0.181087	0.000007
C28	C	1.883227	0.184892	0.000002
C29	C	1.501293	0.421409	-0.000001
C30	C	1.505110	0.563038	-0.000006
N31	N	1.508444	0.188262	0.243547
N32	N	1.508493	0.188285	-0.243533
C33	C	1.508474	0.188286	0.663361
C34	C	1.508462	0.188284	0.546556
C35	C	1.508459	0.188275	0.453458
C36	C	1.508446	0.188271	0.336645
H37	H	1.060696	0.414185	0.000072
Cl38	Cl	1.785484	-0.445135	0.000127
H39	H	0.915222	0.298028	-0.155673
H40	H	1.101518	0.078612	0.155869
H41	H	1.286838	-0.204950	0.000086
H42	H	1.394415	-0.377755	0.155715
H43	H	1.622369	-0.245926	0.155874
H44	H	1.622420	-0.245658	-0.155680
H45	H	1.394466	-0.377662	-0.155686
H46	H	0.915180	0.298012	0.155718
H47	H	0.956505	-0.037744	0.000115
Cl48	Cl	1.125434	0.051343	-0.194486
