data_functionalizedCrystal
_audit_creation_method	'MofGen! by Chris Wilmer'
_symmetry_space_group_name_H-M	'P1'
_symmetry_Int_Tables_number	1
_symmetry_cell_setting	triclinic
loop_
_symmetry_equiv_pos_as_xyz
  x,y,z
_cell_length_a	14.044220
_cell_length_b	11.792254
_cell_length_c	10.868271
_cell_angle_alpha	90.004454
_cell_angle_beta	89.994103
_cell_angle_gamma	88.693738
loop_
_atom_site_label
_atom_site_type_symbol
_atom_site_fract_x
_atom_site_fract_y
_atom_site_fract_z
O1	O	0.130045	1.519094	-0.102325
O2	O	0.143429	1.190011	-0.102328
O3	O	-0.001274	1.349613	-0.102314
O4	O	0.274747	1.359492	-0.102339
O5	O	-0.001279	1.349627	0.102330
O6	O	0.143423	1.190025	0.102317
O7	O	0.130039	1.519107	0.102320
Zn8	Zn	0.136730	1.354568	0.134810
Zn9	Zn	0.136738	1.354550	-0.134818
O10	O	0.274741	1.359506	0.102306
C11	C	0.142583	1.147648	-0.000006
C12	C	0.140059	1.021398	-0.000007
C13	C	0.138009	0.918869	-0.000012
C14	C	0.135445	0.790242	-0.000012
C15	C	-0.036613	1.345295	0.000008
C16	C	-0.141906	1.332396	0.000010
C17	C	-0.334689	1.308814	-0.000008
C18	C	-0.391849	1.400299	-0.000011
C19	C	-0.499120	1.387178	-0.000021
C20	C	-0.227408	1.321934	0.000002
C21	C	0.310081	1.363823	-0.000019
C22	C	0.415373	1.376722	-0.000029
C23	C	0.130885	1.561470	-0.000005
C24	C	0.133408	1.687720	-0.000012
N25	N	0.136736	1.354538	-0.318832
C26	C	0.136736	1.354546	-0.430170
C27	C	0.136732	1.354566	-0.569848
N28	N	0.136724	1.354589	0.318824
H29	H	-0.360221	1.488476	-0.000093
H30	H	-0.366315	1.220644	-0.000012
