data_functionalizedCrystal
_audit_creation_method	'MofGen! by Chris Wilmer'
_symmetry_space_group_name_H-M	'P1'
_symmetry_Int_Tables_number	1
_symmetry_cell_setting	triclinic
loop_
_symmetry_equiv_pos_as_xyz
  x,y,z
_cell_length_a	10.723023
_cell_length_b	10.723022
_cell_length_c	14.048226
_cell_angle_alpha	89.997857
_cell_angle_beta	89.995098
_cell_angle_gamma	84.467387
loop_
_atom_site_label
_atom_site_type_symbol
_atom_site_fract_x
_atom_site_fract_y
_atom_site_fract_z
O1	O	1.657190	0.175020	-0.079148
O2	O	1.294037	0.191774	-0.079152
O3	O	1.483991	0.001821	-0.079147
O4	O	1.467236	0.364973	-0.079154
O5	O	1.483971	0.001820	0.079175
O6	O	1.294017	0.191774	0.079169
O7	O	1.657170	0.175019	0.079173
Zn8	Zn	1.475590	0.183396	0.104308
Zn9	Zn	1.475617	0.183397	-0.104287
O10	O	1.467216	0.364973	0.079168
C11	C	1.247528	0.190555	0.000008
C12	C	1.108973	0.186908	0.000007
C13	C	0.904016	0.181512	-0.082008
C14	C	1.047219	0.185282	-0.082009
C15	C	1.482762	-0.044679	0.000013
C16	C	1.479115	-0.183233	0.000010
C17	C	1.369575	-0.231794	0.000007
C18	C	1.365804	-0.374997	0.000003
C19	C	1.703679	0.176239	0.000011
C20	C	1.842234	0.179886	0.000006
C21	C	1.468445	0.411473	0.000006
C22	C	1.472092	0.550027	0.000003
N23	N	1.475581	0.183395	0.246669
C24	C	1.551908	0.259777	0.296482
C25	C	1.551923	0.259773	0.396140
C26	C	1.475603	0.183392	0.445982
C27	C	1.399273	0.107001	0.396162
C28	C	1.399265	0.107000	0.296506
C29	C	1.399291	0.107012	0.603876
C30	C	1.399296	0.107014	0.703539
C31	C	1.551948	0.259784	0.703510
C32	C	1.551941	0.259783	0.603854
C33	C	1.475609	0.183394	0.554041
N34	N	1.475623	0.183396	0.753352
H35	H	0.895357	0.181279	0.070221
F36	F	1.250642	-0.147569	0.000012
H37	H	0.850894	0.180106	-0.152224
H38	H	1.570104	-0.247676	0.000014
H39	H	1.272016	-0.416809	-0.000004
H40	H	1.100350	0.186688	-0.152224
H41	H	1.565884	-0.408170	-0.000030
H42	H	1.614049	0.321983	0.255907
F43	F	1.633159	0.341071	0.449150
H44	H	1.055849	0.185516	0.070226
H45	H	1.614082	0.321985	0.563275
F46	F	1.633192	0.341080	0.756525
F47	F	1.318074	0.025716	0.756584
H48	H	1.337135	0.044806	0.563321
H49	H	1.337138	0.044805	0.436752
F50	F	1.318038	0.025694	0.243492
