data_functionalizedCrystal
_audit_creation_method	'MofGen! by Chris Wilmer'
_symmetry_space_group_name_H-M	'P1'
_symmetry_Int_Tables_number	1
_symmetry_cell_setting	triclinic
loop_
_symmetry_equiv_pos_as_xyz
  x,y,z
_cell_length_a	19.805407
_cell_length_b	14.908178
_cell_length_c	19.805399
_cell_angle_alpha	93.324276
_cell_angle_beta	90.017803
_cell_angle_gamma	93.311253
loop_
_atom_site_label
_atom_site_type_symbol
_atom_site_fract_x
_atom_site_fract_y
_atom_site_fract_z
Zn1	Zn	1.019222	-0.359271	0.367131
Zn2	Zn	1.012622	-0.510147	0.247410
Zn3	Zn	0.906036	-0.359289	0.253958
Zn4	Zn	0.899488	-0.510092	0.360562
O5	O	0.959342	-0.434700	0.307265
O6	O	1.113062	-0.379300	0.351258
O7	O	0.998461	-0.490166	0.153560
O8	O	0.926553	-0.233032	0.274460
O9	O	1.108213	-0.490148	0.263299
O10	O	1.009710	-0.233019	0.357608
O11	O	0.920153	-0.379331	0.158372
O12	O	0.810451	-0.379277	0.268091
O13	O	0.915392	-0.490055	0.456151
O14	O	0.805640	-0.490072	0.346413
O15	O	1.003361	-0.379247	0.460977
O16	O	0.992112	-0.636394	0.256930
O17	O	0.908993	-0.636353	0.340063
C18	C	0.783487	-0.434671	0.307250
C19	C	0.708255	-0.434681	0.307259
C20	C	0.675432	-0.377064	0.353120
C21	C	0.604743	-0.377069	0.353123
C22	C	0.566879	-0.434696	0.307266
C23	C	0.599706	-0.492315	0.261400
C24	C	0.670394	-0.492305	0.261395
C25	C	0.314631	-0.492355	0.261419
C26	C	0.243939	-0.492363	0.261429
C27	C	0.248980	-0.377120	0.353147
C28	C	0.319668	-0.377110	0.353142
C29	C	0.352490	-0.434725	0.307273
C30	C	0.429139	-0.434718	0.307270
C31	C	0.490231	-0.434708	0.307272
C32	C	0.949144	-0.669110	0.297088
C33	C	0.944843	-0.769391	0.292756
C34	C	1.023287	-0.957668	0.371291
C35	C	1.019248	-1.051891	0.367224
C36	C	0.932724	-1.052064	0.280558
C37	C	0.936762	-0.957840	0.284625
C38	C	0.982046	-0.910645	0.329993
C39	C	0.986088	-0.816420	0.334056
C40	C	0.899560	-0.816594	0.247394
C41	C	0.895522	-0.910818	0.243326
C42	C	1.135883	-0.434729	0.307281
C43	C	1.211115	-0.434741	0.307287
C44	C	0.959382	-0.434643	0.483810
C45	C	0.959400	-0.434619	0.559044
C46	C	0.969598	-0.199374	0.317497
C47	C	0.973969	-0.099092	0.321858
C48	C	0.959343	-0.434691	0.131410
C49	C	0.959468	-0.434461	0.056188
C50	C	1.005206	-0.376918	0.596902
C51	C	1.005214	-0.376892	0.667591
C52	C	0.959418	-0.434571	0.700421
C53	C	0.913607	-0.492274	0.662558
C54	C	0.913597	-0.492295	0.591870
C55	C	0.913649	-0.492190	0.947635
C56	C	0.913665	-0.492167	1.018328
C57	C	1.005266	-0.376787	1.023357
C58	C	1.005256	-0.376808	0.952668
C59	C	0.959443	-0.434507	0.914811
C60	C	0.959433	-0.434533	0.838162
C61	C	0.959430	-0.434550	0.777069
H62	H	0.350494	-0.330187	0.390485
H63	H	1.052828	-1.090173	0.400857
H64	H	1.042515	-0.329909	0.698413
H65	H	0.895853	-1.090506	0.243625
H66	H	0.697117	-0.539221	0.224049
H67	H	0.578022	-0.330154	0.390469
O68	O	0.346470	-0.548455	0.216932
C69	C	0.325282	-0.638402	0.227701
H70	H	0.305677	-0.643053	0.281570
H71	H	0.283210	-0.661923	0.190371
C72	C	0.409535	-0.692886	0.150960
C73	C	0.385460	-0.698600	0.217125
H74	H	0.446654	-0.730020	0.144434
H75	H	0.423808	-0.632287	0.143703
H76	H	0.374469	-0.712485	0.119860
H77	H	0.420523	-0.678990	0.248224
H78	H	0.371194	-0.759197	0.224387
H79	H	0.865981	-0.778298	0.213764
O80	O	0.869197	-0.548392	0.555012
C81	C	0.905191	-0.606693	0.511606
H82	H	0.957870	-0.574882	0.502415
H83	H	0.909716	-0.673549	0.535939
C84	C	0.802532	-0.662107	0.455029
C85	C	0.867232	-0.623033	0.443735
H86	H	0.779117	-0.672191	0.413163
H87	H	0.778282	-0.622832	0.484273
H88	H	0.806312	-0.717817	0.475307
H89	H	0.863451	-0.567320	0.423465
H90	H	0.891481	-0.662300	0.414486
O91	O	0.869028	-0.548209	0.694420
C92	C	0.802426	-0.528500	0.677981
H93	H	0.802146	-0.456428	0.661686
H94	H	0.782619	-0.576878	0.634841
C95	C	0.757149	-0.627498	0.760325
C96	C	0.756805	-0.538975	0.740316
H97	H	0.729007	-0.633963	0.798775
H98	H	0.802020	-0.640779	0.771398
H99	H	0.740645	-0.667803	0.724370
H100	H	0.773317	-0.498673	0.776268
H101	H	0.711936	-0.525687	0.729250
H102	H	0.858651	-0.949257	0.206391
H103	H	1.022962	-0.777995	0.370995
O104	O	0.563030	-0.548324	0.216790
C105	C	0.607161	-0.599193	0.176322
H106	H	0.659152	-0.562224	0.175622
H107	H	0.611715	-0.667755	0.198049
C108	C	0.515127	-0.657486	0.104573
C109	C	0.578982	-0.612077	0.103708
H110	H	0.497744	-0.665437	0.059782
H111	H	0.485394	-0.623218	0.131839
H112	H	0.518931	-0.714616	0.122682
H113	H	0.575176	-0.554944	0.085608
H114	H	0.608713	-0.646335	0.076438
H115	H	0.706256	-0.330141	0.390464
H116	H	1.042500	-0.329951	0.570177
O117	O	1.049766	-0.320692	0.920887
C118	C	1.090210	-0.269772	0.969460
H119	H	1.062632	-0.266629	1.019981
H120	H	1.140177	-0.302815	0.975548
C121	C	1.138014	-0.177619	0.883998
C122	C	1.104140	-0.173752	0.946048
H123	H	1.146611	-0.118391	0.869556
H124	H	1.110769	-0.211927	0.851273
H125	H	1.179650	-0.205159	0.889079
H126	H	1.062502	-0.146223	0.940964
H127	H	1.131379	-0.139438	0.978772
H128	H	1.042568	-0.329802	1.054189
H129	H	0.876370	-0.539138	1.045056
H130	H	0.876355	-0.539186	0.916820
O131	O	1.067199	-0.911855	0.415452
C132	C	1.051391	-0.934853	0.481905
H133	H	0.996205	-0.960818	0.484151
H134	H	1.085329	-0.989485	0.497274
C135	C	1.130603	-0.819209	0.527939
C136	C	1.062822	-0.851093	0.530699
H137	H	1.137657	-0.767545	0.558039
H138	H	1.141256	-0.803717	0.483169
H139	H	1.158878	-0.864744	0.540746
H140	H	1.034549	-0.805563	0.517885
H141	H	1.052165	-0.866576	0.575469
O142	O	0.217122	-0.321240	0.397793
C143	C	0.233574	-0.341065	0.464364
H144	H	0.249875	-0.413147	0.464558
H145	H	0.276712	-0.292724	0.484213
C146	C	0.151230	-0.242122	0.509769
C147	C	0.171246	-0.330656	0.510008
H148	H	0.112784	-0.235698	0.537926
H149	H	0.140147	-0.228763	0.464919
H150	H	0.187184	-0.201847	0.526309
H151	H	0.135295	-0.370928	0.493461
H152	H	0.182320	-0.344022	0.554857
O153	O	0.207122	-0.548437	0.216970
C154	C	0.163706	-0.606771	0.252903
H155	H	0.184787	-0.612442	0.305955
H156	H	0.111346	-0.578886	0.256491
C157	C	0.132641	-0.693536	0.150486
C158	C	0.158536	-0.700507	0.215643
H159	H	0.129449	-0.751355	0.127501
H160	H	0.161889	-0.654233	0.126276
H161	H	0.089010	-0.670295	0.153484
H162	H	0.202170	-0.723737	0.212643
H163	H	0.129295	-0.739815	0.239851
