data_functionalizedCrystal
_audit_creation_method	'MofGen! by Chris Wilmer'
_symmetry_space_group_name_H-M	'P1'
_symmetry_Int_Tables_number	1
_symmetry_cell_setting	triclinic
loop_
_symmetry_equiv_pos_as_xyz
  x,y,z
_cell_length_a	14.908558
_cell_length_b	14.909042
_cell_length_c	13.032268
_cell_angle_alpha	85.718922
_cell_angle_beta	85.702218
_cell_angle_gamma	83.235125
loop_
_atom_site_label
_atom_site_type_symbol
_atom_site_fract_x
_atom_site_fract_y
_atom_site_fract_z
Zn1	Zn	1.337640	-0.507291	0.646223
Zn2	Zn	1.365131	-0.639833	0.464468
Zn3	Zn	1.205117	-0.479748	0.464497
Zn4	Zn	1.196932	-0.647908	0.627395
O5	O	1.276205	-0.568695	0.550646
O6	O	1.467139	-0.533020	0.629981
O7	O	1.358835	-0.603690	0.320233
O8	O	1.214617	-0.357557	0.496495
O9	O	1.487337	-0.630398	0.496446
O10	O	1.311980	-0.377793	0.630008
O11	O	1.241274	-0.486077	0.320254
O12	O	1.078178	-0.493908	0.478238
O13	O	1.200666	-0.644162	0.774132
O14	O	1.072165	-0.617454	0.597919
O15	O	1.304044	-0.540851	0.787965
O16	O	1.350898	-0.766748	0.478189
O17	O	1.227323	-0.772682	0.597891
C18	C	1.042539	-0.553569	0.536039
C19	C	0.942575	-0.547122	0.529813
C20	C	1.291228	-0.802349	0.536018
C21	C	1.297734	-0.902316	0.529800
C22	C	0.804768	-0.473639	0.458841
C23	C	0.898693	-0.479692	0.464686
C24	C	0.892524	-0.608504	0.589101
C25	C	0.798598	-0.602452	0.583256
C26	C	0.754724	-0.535018	0.518122
C27	C	0.660797	-0.528970	0.512271
C28	C	0.654629	-0.657778	0.636691
C29	C	0.748554	-0.663830	0.642537
C30	C	1.181181	-1.096388	0.642640
C31	C	1.187291	-1.190316	0.636801
C32	C	1.316058	-1.184101	0.512278
C33	C	1.309948	-1.090173	0.518117
C34	C	1.242508	-1.046320	0.583301
C35	C	1.236404	-0.952391	0.589145
C36	C	1.365166	-0.946177	0.464617
C37	C	1.371275	-1.040105	0.458778
C38	C	1.510783	-0.583881	0.565310
C39	C	1.610746	-0.590352	0.571559
C40	C	1.248375	-0.596480	0.819493
C41	C	1.236516	-0.608320	0.934060
C42	C	1.261145	-0.334133	0.565355
C43	C	1.254727	-0.234176	0.571623
C44	C	1.303973	-0.540957	0.282852
C45	C	1.315990	-0.528875	0.168312
C46	C	1.282378	-0.562482	0.991982
C47	C	1.270122	-0.574719	1.110393
H48	H	0.625076	-0.474062	0.459237
H49	H	1.137354	-1.231079	0.685123
H50	H	1.370956	-1.219821	0.459198
Cl51	Cl	0.803720	-0.748605	0.724407
H52	H	1.330712	-0.514177	0.953908
Cl53	Cl	0.947698	-0.693282	0.670960
Cl54	Cl	1.195481	-0.649294	1.169162
H55	H	0.613873	-0.707758	0.684962
H56	H	1.188173	-0.656615	0.972134
Cl57	Cl	0.961603	-0.402524	0.390160
Cl58	Cl	1.456054	-1.095243	0.376840
H59	H	0.769045	-0.418733	0.405804
Cl60	Cl	1.151625	-0.897263	0.671092
Cl61	Cl	1.096411	-1.041257	0.724594
Cl62	Cl	1.442272	-0.883229	0.390021
H63	H	1.364326	-0.480564	1.130244
