data_functionalizedCrystal
_audit_creation_method	'MofGen! by Chris Wilmer'
_symmetry_space_group_name_H-M	'P1'
_symmetry_Int_Tables_number	1
_symmetry_cell_setting	triclinic
loop_
_symmetry_equiv_pos_as_xyz
  x,y,z
_cell_length_a	19.288864
_cell_length_b	10.654550
_cell_length_c	9.130313
_cell_angle_alpha	89.995631
_cell_angle_beta	89.982632
_cell_angle_gamma	83.810588
loop_
_atom_site_label
_atom_site_type_symbol
_atom_site_fract_x
_atom_site_fract_y
_atom_site_fract_z
O1	O	0.922373	0.156655	-0.122269
O2	O	1.422373	0.656655	0.377731
O3	O	0.720251	0.177787	-0.122169
O4	O	1.220251	0.677787	0.377831
O5	O	0.825959	-0.015618	-0.122212
O6	O	1.325959	0.484382	0.377788
O7	O	0.816665	0.350060	-0.122226
O8	O	1.316665	0.850060	0.377774
O9	O	0.825952	-0.015623	0.121387
O10	O	1.325952	0.484377	0.621387
O11	O	0.720244	0.177782	0.121430
O12	O	1.220244	0.677782	0.621430
O13	O	0.922366	0.156649	0.121330
O14	O	1.422366	0.656649	0.621330
Cu15	Cu	0.821304	0.167215	0.143622
Cu16	Cu	1.321304	0.667215	0.643622
Cu17	Cu	0.821313	0.167221	-0.144462
Cu18	Cu	1.321313	0.667221	0.355538
O19	O	0.816657	0.350054	0.121373
O20	O	1.316657	0.850054	0.621373
C21	C	0.825273	-0.062404	-0.000413
C22	C	1.325273	0.437596	0.499587
C23	C	0.823231	-0.201803	-0.000414
C24	C	1.323231	0.298197	0.499586
C25	C	0.694366	0.177105	-0.000357
C26	C	1.194366	0.677105	0.499643
C27	C	0.617249	0.175063	-0.000318
C28	C	1.117249	0.675063	0.499682
C29	C	0.885471	-0.282621	-0.000446
C30	C	1.385471	0.217379	0.499554
C31	C	0.883548	-0.413601	-0.000463
C32	C	1.383548	0.086399	0.499537
C33	C	0.757141	-0.382932	-0.000411
C34	C	1.257141	0.117068	0.499589
C35	C	0.759065	-0.251955	-0.000404
C36	C	1.259065	0.248045	0.499596
C37	C	0.573296	0.288545	-0.000346
C38	C	1.073296	0.788545	0.499654
C39	C	0.500836	0.286627	-0.000362
C40	C	1.000836	0.786627	0.499638
C41	C	0.472333	0.171222	-0.000380
C42	C	0.972333	0.671222	0.499620
C43	C	0.516296	0.057725	-0.000344
C44	C	1.016296	0.557725	0.499656
C45	C	0.588754	0.059646	-0.000314
C46	C	1.088754	0.559646	0.499686
C47	C	0.363480	0.080502	-0.085769
C48	C	0.863480	0.580502	0.414231
C49	C	0.291023	0.078586	-0.085809
C50	C	0.791023	0.578586	0.414191
C51	C	0.248849	0.165292	-0.000468
C52	C	0.748849	0.665292	0.499532
C53	C	0.279139	0.253936	0.084893
C54	C	0.779139	0.753936	0.584893
C55	C	0.351597	0.255857	0.084924
C56	C	0.851597	0.755857	0.584924
C57	C	0.393766	0.169126	-0.000412
C58	C	0.893766	0.669126	0.499588
C59	C	0.126326	0.276702	-0.000511
C60	C	0.626326	0.776702	0.499489
C61	C	0.053865	0.274779	-0.000518
C62	C	0.553865	0.774779	0.499482
C63	C	0.069327	0.045875	-0.000515
C64	C	0.569327	0.545875	0.499485
C65	C	0.141786	0.047800	-0.000494
C66	C	0.641786	0.547800	0.499506
C67	C	0.170281	0.163217	-0.000498
C68	C	0.670281	0.663217	0.499502
C69	C	0.948250	0.157332	-0.000486
C70	C	1.448250	0.657332	0.499514
C71	C	1.025367	0.159373	-0.000534
C72	C	1.525367	0.659373	0.499466
C73	C	0.817344	0.396840	-0.000429
C74	C	1.317344	0.896840	0.499571
C75	C	0.819385	0.536240	-0.000438
C76	C	1.319385	1.036240	0.499562
N77	N	0.821303	0.167210	0.346245
N78	N	1.321303	0.667210	0.846245
N79	N	0.821319	0.167217	-0.347084
N80	N	1.321319	0.667217	0.152916
C81	C	0.868127	0.081605	0.422878
C82	C	1.368127	0.581605	0.922878
C83	C	0.868133	0.081605	0.576214
C84	C	1.368133	0.581605	1.076214
C85	C	0.774490	0.252825	0.576272
C86	C	1.274490	0.752825	1.076272
C87	C	0.774481	0.252818	0.422938
C88	C	1.274481	0.752818	0.922938
H89	H	0.937719	-0.241793	-0.000457
H90	H	1.437719	0.258207	0.499543
Cl91	Cl	0.676479	-0.445989	-0.000397
Cl92	Cl	1.176479	0.054011	0.499603
Cl93	Cl	0.926986	-0.026021	0.326469
Cl94	Cl	1.426986	0.473979	0.826469
Cl95	Cl	0.644013	-0.083028	-0.000281
Cl96	Cl	1.144013	0.416972	0.499719
H97	H	0.906260	0.011897	0.638605
H98	H	1.406260	0.511897	1.138605
H99	H	0.934230	-0.479399	-0.000491
H100	H	1.434230	0.020601	0.499509
Cl101	Cl	0.609115	0.433640	-0.000345
Cl102	Cl	1.109115	0.933640	0.499655
H103	H	0.736370	0.322527	0.638731
H104	H	1.236370	0.822527	1.138731
Cl105	Cl	0.445571	0.429300	-0.000393
Cl106	Cl	0.945571	0.929300	0.499607
Cl107	Cl	0.197044	-0.094871	-0.000468
Cl108	Cl	0.697044	0.405129	0.499532
H109	H	0.397813	0.009893	-0.155273
H110	H	0.897813	0.509893	0.344727
Cl111	Cl	0.033501	-0.099208	-0.000521
Cl112	Cl	0.533501	0.400792	0.499479
H113	H	0.736348	0.322528	0.360540
H114	H	1.236348	0.822528	0.860540
Cl115	Cl	0.389676	0.367283	0.192237
Cl116	Cl	0.889676	0.867283	0.692237
Cl117	Cl	0.480465	-0.087356	-0.000359
Cl118	Cl	0.980465	0.412644	0.499641
H119	H	0.266366	0.006412	-0.155321
H120	H	0.766366	0.506412	0.344679
H121	H	0.708379	-0.186149	-0.000383
H122	H	1.208379	0.313851	0.499617
Cl123	Cl	0.226129	0.362947	0.192186
Cl124	Cl	0.726129	0.862947	0.692186
H125	H	0.149528	0.370681	-0.000493
H126	H	0.649528	0.870681	0.499507
H127	H	0.018079	0.367194	-0.000532
H128	H	0.518079	0.867194	0.499468
