data_functionalizedCrystal
_audit_creation_method	'MofGen! by Chris Wilmer'
_symmetry_space_group_name_H-M	'P1'
_symmetry_Int_Tables_number	1
_symmetry_cell_setting	triclinic
loop_
_symmetry_equiv_pos_as_xyz
  x,y,z
_cell_length_a	19.121321
_cell_length_b	19.121063
_cell_length_c	18.215399
_cell_angle_alpha	87.590157
_cell_angle_beta	87.578430
_cell_angle_gamma	89.929715
loop_
_atom_site_label
_atom_site_type_symbol
_atom_site_fract_x
_atom_site_fract_y
_atom_site_fract_z
Zn1	Zn	1.059811	-0.324761	0.383198
Zn2	Zn	1.054716	-0.441999	0.265592
Zn3	Zn	0.942577	-0.319789	0.265168
Zn4	Zn	0.937540	-0.436968	0.393635
O5	O	0.998661	-0.380879	0.326898
O6	O	1.157236	-0.344498	0.363407
O7	O	1.039817	-0.425812	0.162554
O8	O	0.962368	-0.222345	0.276279
O9	O	1.153493	-0.430633	0.277002
O10	O	1.048499	-0.225997	0.362995
O11	O	0.957428	-0.336026	0.162242
O12	O	0.843808	-0.331148	0.286400
O13	O	0.953784	-0.422058	0.495232
O14	O	0.840107	-0.417238	0.380784
O15	O	1.043615	-0.339620	0.487564
O16	O	1.034933	-0.539435	0.287123
O17	O	0.948844	-0.535739	0.381195
C18	C	0.816521	-0.373108	0.334679
C19	C	0.738600	-0.369800	0.338025
C20	C	0.297993	-0.348791	0.359247
C21	C	0.371208	-0.351912	0.356098
C22	C	0.405861	-0.398245	0.309458
C23	C	0.367295	-0.441464	0.265969
C24	C	0.294082	-0.438346	0.269122
C25	C	0.626820	-0.409902	0.297689
C26	C	0.700039	-0.413015	0.294538
C27	C	0.703947	-0.323464	0.384668
C28	C	0.630732	-0.320347	0.387813
C29	C	0.592173	-0.363569	0.344327
C30	C	0.480698	-0.401434	0.306238
C31	C	0.517337	-0.360382	0.347553
C32	C	0.990808	-0.563025	0.335352
C33	C	0.987513	-0.640951	0.338991
C34	C	1.030821	-0.679463	0.291760
C35	C	1.027726	-0.752683	0.295186
C36	C	0.981319	-0.787388	0.345841
C37	C	0.938008	-0.748871	0.393077
C38	C	0.941107	-0.675653	0.389654
C39	C	0.969720	-1.008364	0.358629
C40	C	0.966623	-1.081588	0.362047
C41	C	1.056342	-1.085394	0.264156
C42	C	1.059434	-1.012174	0.260734
C43	C	1.016126	-0.973664	0.307974
C44	C	0.978152	-0.862230	0.349343
C45	C	1.019297	-0.898823	0.304475
C46	C	1.181512	-0.388681	0.319088
C47	C	1.259433	-0.392006	0.315759
C48	C	0.998706	-0.380833	0.518847
C49	C	0.998725	-0.380813	0.600644
C50	C	1.006564	-0.198022	0.318426
C51	C	1.009931	-0.120100	0.314816
C52	C	0.998659	-0.380877	0.135692
C53	C	0.998784	-0.380705	0.053880
C54	C	1.045518	-0.337846	0.784844
C55	C	1.045527	-0.337826	0.861702
C56	C	0.951986	-0.423673	0.869675
C57	C	0.951974	-0.423689	0.792819
C58	C	0.998744	-0.380777	0.750405
C59	C	0.998765	-0.380741	0.904119
C60	C	0.998775	-0.380719	0.987451
C61	C	0.998733	-0.380797	0.667068
H62	H	0.728251	-0.450746	0.256557
C63	C	0.405416	-0.492427	0.214662
N64	N	0.434128	-0.530810	0.176012
H65	H	1.083614	-0.302866	0.889738
C66	C	0.746368	-0.275927	0.432504
N67	N	0.778320	-0.240123	0.468538
H68	H	0.934456	-0.977014	0.397091
C69	C	0.518824	-0.452390	0.254925
N70	N	0.547543	-0.490768	0.216275
H71	H	0.913909	-0.458613	0.904217
C72	C	1.110468	-0.974003	0.204992
N73	N	1.148900	-0.945252	0.162998
H74	H	0.269785	-0.311058	0.397221
C75	C	0.413622	-0.304367	0.403932
N76	N	0.445568	-0.268552	0.439961
H77	H	0.913880	-0.458648	0.764779
H78	H	0.262686	-0.473537	0.233711
H79	H	0.940365	-0.890496	0.390585
C80	C	0.592620	-0.269380	0.439123
N81	N	0.563913	-0.230990	0.477770
C82	C	1.070343	-0.860644	0.248755
N83	N	1.108787	-0.831882	0.206783
H84	H	0.595434	-0.445094	0.262277
H85	H	0.489119	-0.322661	0.385529
C86	C	1.081872	-0.641294	0.236033
N87	N	1.120327	-0.612546	0.194060
C88	C	1.103979	-1.127762	0.212199
N89	N	1.139863	-1.159674	0.173064
H90	H	1.062992	-0.784036	0.256725
C91	C	0.915573	-1.119762	0.417778
N92	N	0.877125	-1.148516	0.459753
H93	H	0.900225	-0.777134	0.434325
H94	H	0.905842	-0.644297	0.428116
C95	C	1.096960	-0.290635	0.738192
N96	N	1.135706	-0.255071	0.703055
