data_functionalizedCrystal
_audit_creation_method	'MofGen! by Chris Wilmer'
_symmetry_space_group_name_H-M	'P1'
_symmetry_Int_Tables_number	1
_symmetry_cell_setting	triclinic
loop_
_symmetry_equiv_pos_as_xyz
  x,y,z
_cell_length_a	27.732048
_cell_length_b	27.732048
_cell_length_c	13.596369
_cell_angle_alpha	89.989067
_cell_angle_beta	90.000164
_cell_angle_gamma	82.642655
loop_
_atom_site_label
_atom_site_type_symbol
_atom_site_fract_x
_atom_site_fract_y
_atom_site_fract_z
O1	O	0.640928	0.057518	-0.081675
O2	O	0.890928	0.307518	0.168325
O3	O	1.140928	0.557518	0.418325
O4	O	1.390928	0.807518	0.668325
O5	O	0.500134	0.066263	-0.081706
O6	O	0.750134	0.316263	0.168294
O7	O	1.000134	0.566263	0.418294
O8	O	1.250134	0.816263	0.668294
O9	O	0.574904	-0.008506	-0.081671
O10	O	0.824904	0.241494	0.168329
O11	O	1.074904	0.491494	0.418329
O12	O	1.324904	0.741494	0.668329
O13	O	0.566158	0.132287	-0.081710
O14	O	0.816158	0.382287	0.168290
O15	O	1.066158	0.632287	0.418290
O16	O	1.316158	0.882287	0.668290
O17	O	0.574896	-0.008510	0.081912
O18	O	0.824896	0.241490	0.331912
O19	O	1.074896	0.491490	0.581912
O20	O	1.324896	0.741490	0.831912
O21	O	0.500127	0.066259	0.081877
O22	O	0.750127	0.316259	0.331877
O23	O	1.000127	0.566259	0.581877
O24	O	1.250127	0.816259	0.831877
O25	O	0.640920	0.057514	0.081908
O26	O	0.890920	0.307514	0.331908
O27	O	1.140920	0.557514	0.581908
O28	O	1.390920	0.807514	0.831908
Zn29	Zn	0.570522	0.061886	0.107864
Zn30	Zn	0.820522	0.311886	0.357864
Zn31	Zn	1.070522	0.561886	0.607864
Zn32	Zn	1.320522	0.811886	0.857864
Zn33	Zn	0.570532	0.061891	-0.107663
Zn34	Zn	0.820532	0.311891	0.142337
Zn35	Zn	1.070532	0.561891	0.392337
Zn36	Zn	1.320532	0.811891	0.642337
O37	O	0.566151	0.132283	0.081872
O38	O	0.816151	0.382283	0.331872
O39	O	1.066151	0.632283	0.581872
O40	O	1.316151	0.882283	0.831872
C41	C	0.482124	0.066078	0.000081
C42	C	0.732124	0.316078	0.250081
C43	C	0.982124	0.566078	0.500081
C44	C	1.232124	0.816078	0.750081
C45	C	0.428469	0.065525	0.000070
C46	C	0.678469	0.315525	0.250070
C47	C	0.928469	0.565525	0.500070
C48	C	1.178469	0.815525	0.750070
C49	C	0.574716	-0.026515	0.000123
C50	C	0.824716	0.223485	0.250123
C51	C	1.074716	0.473485	0.500123
C52	C	1.324716	0.723485	0.750123
C53	C	0.574164	-0.080170	0.000131
C54	C	0.824164	0.169830	0.250131
C55	C	1.074164	0.419830	0.500131
C56	C	1.324164	0.669830	0.750131
C57	C	0.089654	0.106229	0.000101
C58	C	0.339654	0.356229	0.250101
C59	C	0.589654	0.606229	0.500101
C60	C	0.839654	0.856229	0.750101
C61	C	-0.112006	0.104178	0.000111
C62	C	0.137994	0.354178	0.250111
C63	C	0.387994	0.604178	0.500111
C64	C	0.637994	0.854178	0.750111
O65	O	-0.143262	0.141398	0.000143
O66	O	0.106738	0.391398	0.250143
O67	O	0.356738	0.641398	0.500143
O68	O	0.606738	0.891398	0.750143
N69	N	-0.131130	0.059843	0.000121
N70	N	0.118870	0.309843	0.250121
N71	N	0.368870	0.559843	0.500121
N72	N	0.618870	0.809843	0.750121
C73	C	-0.099835	0.016017	0.000136
C74	C	0.150165	0.266017	0.250136
C75	C	0.400165	0.516017	0.500136
C76	C	0.650165	0.766017	0.750136
O77	O	-0.120728	-0.021740	0.000156
O78	O	0.129272	0.228260	0.250156
O79	O	0.379272	0.478260	0.500156
O80	O	0.629272	0.728260	0.750156
C81	C	0.101824	0.018068	0.000134
C82	C	0.351824	0.268068	0.250134
C83	C	0.601824	0.518068	0.500134
C84	C	0.851824	0.768068	0.750134
C85	C	0.120944	0.062407	0.000113
C86	C	0.370944	0.312407	0.250113
C87	C	0.620944	0.562407	0.500113
C88	C	0.870944	0.812407	0.750113
C89	C	0.108775	0.150563	0.000082
C90	C	0.358775	0.400563	0.250082
C91	C	0.608775	0.650563	0.500082
C92	C	0.858775	0.900563	0.750082
C93	C	0.159187	0.151075	0.000074
C94	C	0.409187	0.401075	0.250074
C95	C	0.659187	0.651075	0.500074
C96	C	0.909187	0.901075	0.750074
C97	C	0.190477	0.107253	0.000086
C98	C	0.440477	0.357253	0.250086
C99	C	0.690477	0.607253	0.500086
C100	C	0.940477	0.857253	0.750086
C101	C	0.171356	0.062919	0.000106
C102	C	0.421356	0.312919	0.250106
C103	C	0.671356	0.562919	0.500106
C104	C	0.921356	0.812919	0.750106
C105	C	0.133117	-0.025757	0.000156
C106	C	0.383117	0.224243	0.250156
C107	C	0.633117	0.474243	0.500156
C108	C	0.883117	0.724243	0.750156
C109	C	0.183535	-0.025240	0.000158
C110	C	0.433535	0.224760	0.250158
C111	C	0.683535	0.474760	0.500158
C112	C	0.933535	0.724760	0.750158
C113	C	0.202655	0.019098	0.000137
C114	C	0.452655	0.269098	0.250137
C115	C	0.702655	0.519098	0.500137
C116	C	0.952655	0.769098	0.750137
C117	C	0.253059	0.019609	0.000110
C118	C	0.503059	0.269609	0.250110
C119	C	0.753059	0.519609	0.500110
C120	C	1.003059	0.769609	0.750110
N121	N	0.272183	0.063944	0.000099
N122	N	0.522183	0.313944	0.250099
N123	N	0.772183	0.563944	0.500099
N124	N	1.022183	0.813944	0.750099
C125	C	0.240892	0.107766	0.000087
C126	C	0.490892	0.357766	0.250087
C127	C	0.740892	0.607766	0.500087
C128	C	0.990892	0.857766	0.750087
C129	C	-0.205709	0.014943	0.000136
C130	C	0.044291	0.264943	0.250136
C131	C	0.294291	0.514943	0.500136
C132	C	0.544291	0.764943	0.750136
C133	C	-0.256124	0.014430	0.000134
C134	C	-0.006124	0.264430	0.250134
C135	C	0.243876	0.514430	0.500134
C136	C	0.493876	0.764430	0.750134
C137	C	-0.268291	0.102591	0.000111
C138	C	-0.018291	0.352591	0.250111
C139	C	0.231709	0.602591	0.500111
C140	C	0.481709	0.852591	0.750111
C141	C	-0.217876	0.103104	0.000105
C142	C	0.032124	0.353104	0.250105
C143	C	0.282124	0.603104	0.500105
C144	C	0.532124	0.853104	0.750105
C145	C	-0.186585	0.059278	0.000125
C146	C	0.063415	0.309278	0.250125
C147	C	0.313415	0.559278	0.500125
C148	C	0.563415	0.809278	0.750125
C149	C	0.346761	0.108839	0.000070
C150	C	0.596761	0.358839	0.250070
C151	C	0.846761	0.608839	0.500070
C152	C	1.096761	0.858839	0.750070
C153	C	0.397178	0.109347	0.000058
C154	C	0.647178	0.359347	0.250058
C155	C	0.897178	0.609347	0.500058
C156	C	1.147178	0.859347	0.750058
C157	C	0.409341	0.021186	0.000087
C158	C	0.659341	0.271186	0.250087
C159	C	0.909341	0.521186	0.500087
C160	C	1.159341	0.771186	0.750087
C161	C	0.358929	0.020678	0.000094
C162	C	0.608929	0.270678	0.250094
C163	C	0.858929	0.520678	0.500094
C164	C	1.108929	0.770678	0.750094
C165	C	0.327639	0.064508	0.000089
C166	C	0.577639	0.314508	0.250089
C167	C	0.827639	0.564508	0.500089
C168	C	1.077639	0.814508	0.750089
O169	O	0.284343	-0.017592	0.000089
O170	O	0.534343	0.232408	0.250089
O171	O	0.784343	0.482408	0.500089
O172	O	1.034343	0.732408	0.750089
O173	O	0.261794	0.145518	0.000090
O174	O	0.511794	0.395518	0.250090
O175	O	0.761794	0.645518	0.500090
O176	O	1.011794	0.895518	0.750090
C177	C	0.039242	0.105716	0.000109
C178	C	0.289242	0.355716	0.250109
C179	C	0.539242	0.605716	0.500109
C180	C	0.789242	0.855716	0.750109
C181	C	0.020120	0.061382	0.000129
C182	C	0.270120	0.311382	0.250129
C183	C	0.520120	0.561382	0.500129
C184	C	0.770120	0.811382	0.750129
C185	C	0.051411	0.017560	0.000141
C186	C	0.301411	0.267560	0.250141
C187	C	0.551411	0.517560	0.500141
C188	C	0.801411	0.767560	0.750141
C189	C	-0.030294	0.060869	0.000128
C190	C	0.219706	0.310869	0.250128
C191	C	0.469706	0.560869	0.500128
C192	C	0.719706	0.810869	0.750128
C193	C	-0.061585	0.104691	0.000116
C194	C	0.188415	0.354691	0.250116
C195	C	0.438415	0.604691	0.500116
C196	C	0.688415	0.854691	0.750116
C197	C	-0.042461	0.149026	0.000105
C198	C	0.207539	0.399026	0.250105
C199	C	0.457539	0.649026	0.500105
C200	C	0.707539	0.899026	0.750105
C201	C	0.007951	0.149539	0.000097
C202	C	0.257951	0.399539	0.250097
C203	C	0.507951	0.649539	0.500097
C204	C	0.757951	0.899539	0.750097
C205	C	0.032287	-0.026775	0.000151
C206	C	0.282287	0.223225	0.250151
C207	C	0.532287	0.473225	0.500151
C208	C	0.782287	0.723225	0.750151
C209	C	-0.018125	-0.027284	0.000158
C210	C	0.231875	0.222716	0.250158
C211	C	0.481875	0.472716	0.500158
C212	C	0.731875	0.722716	0.750158
C213	C	-0.049416	0.016538	0.000146
C214	C	0.200584	0.266538	0.250146
C215	C	0.450584	0.516538	0.500146
C216	C	0.700584	0.766538	0.750146
C217	C	0.614867	-0.418985	0.000090
C218	C	0.864867	-0.168985	0.250090
C219	C	1.114867	0.081015	0.500090
C220	C	1.364867	0.331015	0.750090
C221	C	0.612816	-0.620645	0.000075
C222	C	0.862816	-0.370645	0.250075
C223	C	1.112816	-0.120645	0.500075
C224	C	1.362816	0.129355	0.750075
O225	O	0.650037	-0.651900	0.000041
O226	O	0.900037	-0.401900	0.250041
O227	O	1.150037	-0.151900	0.500041
O228	O	1.400037	0.098100	0.750041
N229	N	0.568481	-0.639768	0.000067
N230	N	0.818481	-0.389768	0.250067
N231	N	1.068481	-0.139768	0.500067
N232	N	1.318481	0.110232	0.750067
C233	C	0.524656	-0.608474	0.000055
C234	C	0.774656	-0.358474	0.250055
C235	C	1.024656	-0.108474	0.500055
C236	C	1.274656	0.141526	0.750055
O237	O	0.486899	-0.629367	0.000037
O238	O	0.736899	-0.379367	0.250037
O239	O	0.986899	-0.129367	0.500037
O240	O	1.236899	0.120633	0.750037
C241	C	0.526707	-0.406815	0.000062
C242	C	0.776707	-0.156815	0.250062
C243	C	1.026707	0.093185	0.500062
C244	C	1.276707	0.343185	0.750062
C245	C	0.571045	-0.387694	0.000081
C246	C	0.821045	-0.137694	0.250081
C247	C	1.071045	0.112306	0.500081
C248	C	1.321045	0.362306	0.750081
C249	C	0.659202	-0.399864	0.000107
C250	C	0.909202	-0.149864	0.250107
C251	C	1.159202	0.100136	0.500107
C252	C	1.409202	0.350136	0.750107
C253	C	0.659714	-0.349452	0.000116
C254	C	0.909714	-0.099452	0.250116
C255	C	1.159714	0.150548	0.500116
C256	C	1.409714	0.400548	0.750116
C257	C	0.615892	-0.318161	0.000107
C258	C	0.865892	-0.068161	0.250107
C259	C	1.115892	0.181839	0.500107
C260	C	1.365892	0.431839	0.750107
C261	C	0.571557	-0.337282	0.000090
C262	C	0.821557	-0.087282	0.250090
C263	C	1.071557	0.162718	0.500090
C264	C	1.321557	0.412718	0.750090
C265	C	0.482882	-0.375521	0.000043
C266	C	0.732882	-0.125521	0.250043
C267	C	0.982882	0.124479	0.500043
C268	C	1.232882	0.374479	0.750043
C269	C	0.483399	-0.325104	0.000042
C270	C	0.733399	-0.075104	0.250042
C271	C	0.983399	0.174896	0.500042
C272	C	1.233399	0.424896	0.750042
C273	C	0.527737	-0.305983	0.000061
C274	C	0.777737	-0.055983	0.250061
C275	C	1.027737	0.194017	0.500061
C276	C	1.277737	0.444017	0.750061
C277	C	0.528247	-0.255580	0.000090
C278	C	0.778247	-0.005580	0.250090
C279	C	1.028247	0.244420	0.500090
C280	C	1.278247	0.494420	0.750090
N281	N	0.572583	-0.236456	0.000099
N282	N	0.822583	0.013544	0.250099
N283	N	1.072583	0.263544	0.500099
N284	N	1.322583	0.513544	0.750099
C285	C	0.616405	-0.267747	0.000107
C286	C	0.866405	-0.017747	0.250107
C287	C	1.116405	0.232253	0.500107
C288	C	1.366405	0.482253	0.750107
C289	C	0.523582	-0.714348	0.000053
C290	C	0.773582	-0.464348	0.250053
C291	C	1.023582	-0.214348	0.500053
C292	C	1.273582	0.035652	0.750053
C293	C	0.523069	-0.764762	0.000053
C294	C	0.773069	-0.514762	0.250053
C295	C	1.023069	-0.264762	0.500053
C296	C	1.273069	-0.014762	0.750053
C297	C	0.611230	-0.776930	0.000072
C298	C	0.861230	-0.526930	0.250072
C299	C	1.111230	-0.276930	0.500072
C300	C	1.361230	-0.026930	0.750072
C301	C	0.611742	-0.726514	0.000079
C302	C	0.861742	-0.476514	0.250079
C303	C	1.111742	-0.226514	0.500079
C304	C	1.361742	0.023486	0.750079
C305	C	0.567917	-0.695224	0.000062
C306	C	0.817917	-0.445224	0.250062
C307	C	1.067917	-0.195224	0.500062
C308	C	1.317917	0.054776	0.750062
C309	C	0.617477	-0.161878	0.000127
C310	C	0.867477	0.088122	0.250127
C311	C	1.117477	0.338122	0.500127
C312	C	1.367477	0.588122	0.750127
C313	C	0.617986	-0.111461	0.000140
C314	C	0.867986	0.138539	0.250140
C315	C	1.117986	0.388539	0.500140
C316	C	1.367986	0.638539	0.750140
C317	C	0.529825	-0.099298	0.000116
C318	C	0.779825	0.150702	0.250116
C319	C	1.029825	0.400702	0.500116
C320	C	1.279825	0.650702	0.750116
C321	C	0.529316	-0.149710	0.000108
C322	C	0.779316	0.100290	0.250108
C323	C	1.029316	0.350290	0.500108
C324	C	1.279316	0.600290	0.750108
C325	C	0.573147	-0.180999	0.000110
C326	C	0.823147	0.069001	0.250110
C327	C	1.073147	0.319001	0.500110
C328	C	1.323147	0.569001	0.750110
O329	O	0.491047	-0.224296	0.000113
O330	O	0.741047	0.025704	0.250113
O331	O	0.991047	0.275704	0.500113
O332	O	1.241047	0.525704	0.750113
O333	O	0.654156	-0.246844	0.000104
O334	O	0.904156	0.003156	0.250104
O335	O	1.154156	0.253156	0.500104
O336	O	1.404156	0.503156	0.750104
C337	C	0.614355	-0.469397	0.000081
C338	C	0.864355	-0.219397	0.250081
C339	C	1.114355	0.030603	0.500081
C340	C	1.364355	0.280603	0.750081
C341	C	0.570021	-0.488518	0.000063
C342	C	0.820021	-0.238518	0.250063
C343	C	1.070021	0.011482	0.500063
C344	C	1.320021	0.261482	0.750063
C345	C	0.526198	-0.457228	0.000054
C346	C	0.776198	-0.207228	0.250054
C347	C	1.026198	0.042772	0.500054
C348	C	1.276198	0.292772	0.750054
C349	C	0.569508	-0.538933	0.000063
C350	C	0.819508	-0.288933	0.250063
C351	C	1.069508	-0.038933	0.500063
C352	C	1.319508	0.211067	0.750063
C353	C	0.613330	-0.570223	0.000072
C354	C	0.863330	-0.320223	0.250072
C355	C	1.113330	-0.070223	0.500072
C356	C	1.363330	0.179777	0.750072
C357	C	0.657665	-0.551100	0.000081
C358	C	0.907665	-0.301100	0.250081
C359	C	1.157665	-0.051100	0.500081
C360	C	1.407665	0.198900	0.750081
C361	C	0.658177	-0.500688	0.000090
C362	C	0.908177	-0.250688	0.250090
C363	C	1.158177	-0.000688	0.500090
C364	C	1.408177	0.249312	0.750090
C365	C	0.481863	-0.476351	0.000045
C366	C	0.731863	-0.226351	0.250045
C367	C	0.981863	0.023649	0.500045
C368	C	1.231863	0.273649	0.750045
C369	C	0.481355	-0.526764	0.000037
C370	C	0.731355	-0.276764	0.250037
C371	C	0.981355	-0.026764	0.500037
C372	C	1.231355	0.223236	0.750037
C373	C	0.525177	-0.558054	0.000046
C374	C	0.775177	-0.308054	0.250046
C375	C	1.025177	-0.058054	0.500046
C376	C	1.275177	0.191946	0.750046
C377	C	0.658931	0.057699	0.000118
C378	C	0.908931	0.307699	0.250118
C379	C	1.158931	0.557699	0.500118
C380	C	1.408931	0.807699	0.750118
C381	C	0.712586	0.058252	0.000123
C382	C	0.962586	0.308252	0.250123
C383	C	1.212586	0.558252	0.500123
C384	C	1.462586	0.808252	0.750123
C385	C	0.566338	0.150292	0.000076
C386	C	0.816338	0.400292	0.250076
C387	C	1.066338	0.650292	0.500076
C388	C	1.316338	0.900292	0.750076
C389	C	0.566891	0.203947	0.000062
C390	C	0.816891	0.453947	0.250062
C391	C	1.066891	0.703947	0.500062
C392	C	1.316891	0.953947	0.750062
N393	N	0.570519	0.061882	0.254956
N394	N	0.820519	0.311882	0.504956
N395	N	1.070519	0.561882	0.754956
N396	N	1.320519	0.811882	1.004956
N397	N	0.570539	0.061891	-0.254755
N398	N	0.820539	0.311891	-0.004755
N399	N	1.070539	0.561891	0.245245
N400	N	1.320539	0.811891	0.495245
C401	C	0.570531	0.061892	0.656247
C402	C	0.820531	0.311892	0.906247
C403	C	1.070531	0.561892	1.156247
C404	C	1.320531	0.811892	1.406247
C405	C	0.570527	0.061891	0.544596
C406	C	0.820527	0.311891	0.794596
C407	C	1.070527	0.561891	1.044596
C408	C	1.320527	0.811891	1.294596
C409	C	0.570526	0.061887	0.455605
C410	C	0.820526	0.311887	0.705605
C411	C	1.070526	0.561887	0.955605
C412	C	1.320526	0.811887	1.205605
C413	C	0.570520	0.061886	0.343947
C414	C	0.820520	0.311886	0.593947
C415	C	1.070520	0.561886	0.843947
C416	C	1.320520	0.811886	1.093947
H417	H	0.321291	0.144530	0.000069
H418	H	0.571291	0.394530	0.250069
H419	H	0.821291	0.644530	0.500069
H420	H	1.071291	0.894530	0.750069
O421	O	0.701290	-0.482198	0.000057
O422	O	0.951290	-0.232198	0.250057
O423	O	1.201290	0.017802	0.500057
O424	O	1.451290	0.267802	0.750057
C425	C	0.739853	-0.520634	0.000088
C426	C	0.989853	-0.270634	0.250088
C427	C	1.239853	-0.020634	0.500088
C428	C	1.489853	0.229366	0.750088
H429	H	0.726560	-0.554781	-0.030886
H430	H	0.976560	-0.304781	0.219114
H431	H	1.226560	-0.054781	0.469114
H432	H	1.476560	0.195219	0.719114
H433	H	0.770835	-0.510325	-0.047398
H434	H	1.020835	-0.260325	0.202602
H435	H	1.270835	-0.010325	0.452602
H436	H	1.520835	0.239675	0.702602
H437	H	0.753349	-0.527877	0.078569
H438	H	1.003349	-0.277877	0.328569
H439	H	1.253349	-0.027877	0.578569
H440	H	1.503349	0.222123	0.828569
H441	H	-0.202311	0.139207	0.000094
H442	H	0.047689	0.389207	0.250094
H443	H	0.297689	0.639207	0.500094
H444	H	0.547689	0.889207	0.750094
H445	H	0.174750	0.187180	0.000057
H446	H	0.424750	0.437180	0.250057
H447	H	0.674750	0.687180	0.500057
H448	H	0.924750	0.937180	0.750057
O449	O	0.415670	0.152462	0.000085
O450	O	0.665670	0.402462	0.250085
O451	O	0.915670	0.652462	0.500085
O452	O	1.165670	0.902462	0.750085
C453	C	0.377238	0.191029	0.000055
C454	C	0.627238	0.441029	0.250055
C455	C	0.877238	0.691029	0.500055
C456	C	1.127238	0.941029	0.750055
H457	H	0.343087	0.177738	0.031033
H458	H	0.593087	0.427738	0.281033
H459	H	0.843087	0.677738	0.531033
H460	H	1.093087	0.927738	0.781033
H461	H	0.387548	0.222006	0.047537
H462	H	0.637548	0.472006	0.297537
H463	H	0.887548	0.722006	0.547537
H464	H	1.137548	0.972006	0.797537
H465	H	0.370001	0.204530	-0.078427
H466	H	0.620001	0.454530	0.171573
H467	H	0.870001	0.704530	0.421573
H468	H	1.120001	0.954530	0.671573
H469	H	0.446177	-0.450879	0.000036
H470	H	0.696177	-0.200879	0.250036
H471	H	0.946177	0.049121	0.500036
H472	H	1.196177	0.299121	0.750036
H473	H	0.117558	-0.061861	0.000173
H474	H	0.367558	0.188139	0.250173
H475	H	0.617558	0.438139	0.500173
H476	H	0.867558	0.688139	0.750173
H477	H	0.434827	-0.014492	0.000093
H478	H	0.684827	0.235508	0.250093
H479	H	0.934827	0.485508	0.500093
H480	H	1.184827	0.735508	0.750093
O481	O	0.078452	0.193180	0.000023
O482	O	0.328452	0.443180	0.250023
O483	O	0.578452	0.693180	0.500023
O484	O	0.828452	0.943180	0.750023
C485	C	0.106150	0.232414	0.000033
C486	C	0.356150	0.482414	0.250033
C487	C	0.606150	0.732414	0.500033
C488	C	0.856150	0.982414	0.750033
H489	H	0.143871	0.219848	-0.030926
H490	H	0.393871	0.469848	0.219074
H491	H	0.643871	0.719848	0.469074
H492	H	0.893871	0.969848	0.719074
H493	H	0.087336	0.263097	-0.047477
H494	H	0.337336	0.513097	0.202523
H495	H	0.587336	0.763097	0.452523
H496	H	0.837336	1.013097	0.702523
H497	H	0.109641	0.246023	0.078506
H498	H	0.359641	0.496023	0.328506
H499	H	0.609641	0.746023	0.578506
H500	H	0.859641	0.996023	0.828506
O501	O	0.661070	-0.092911	-0.000020
O502	O	0.911070	0.157089	0.249980
O503	O	1.161070	0.407089	0.499980
O504	O	1.411070	0.657089	0.749980
C505	C	0.687768	-0.108933	-0.084726
C506	C	0.937768	0.141067	0.165274
C507	C	1.187768	0.391067	0.415274
C508	C	1.437768	0.641067	0.665274
H509	H	0.661837	-0.119222	-0.143948
H510	H	0.911837	0.130778	0.106052
H511	H	1.161837	0.380778	0.356052
H512	H	1.411837	0.630778	0.606052
H513	H	0.708103	-0.078537	-0.113155
H514	H	0.958103	0.171463	0.136845
H515	H	1.208103	0.421463	0.386845
H516	H	1.458103	0.671463	0.636845
H517	H	0.714953	-0.141995	-0.065571
H518	H	0.964953	0.108005	0.184429
H519	H	1.214953	0.358005	0.434429
H520	H	1.464953	0.608005	0.684429
O521	O	0.026441	0.192652	0.000127
O522	O	0.276441	0.442652	0.250127
O523	O	0.526441	0.692652	0.500127
O524	O	0.776441	0.942652	0.750127
C525	C	-0.011996	0.231215	0.000094
C526	C	0.238004	0.481215	0.250094
C527	C	0.488004	0.731215	0.500094
C528	C	0.738004	0.981215	0.750094
H529	H	-0.046146	0.217919	0.031068
H530	H	0.203854	0.467919	0.281068
H531	H	0.453854	0.717919	0.531068
H532	H	0.703854	0.967919	0.781068
H533	H	-0.001691	0.262193	0.047578
H534	H	0.248309	0.512193	0.297578
H535	H	0.498309	0.762193	0.547578
H536	H	0.748309	1.012193	0.797578
H537	H	-0.019232	0.244715	-0.078388
H538	H	0.230768	0.494715	0.171612
H539	H	0.480768	0.744715	0.421612
H540	H	0.730768	0.994715	0.671612
H541	H	-0.293777	0.138273	0.000101
H542	H	-0.043777	0.388273	0.250101
H543	H	0.206223	0.638273	0.500101
H544	H	0.456223	0.888273	0.750101
H545	H	0.487892	-0.688875	0.000039
H546	H	0.737892	-0.438875	0.250039
H547	H	0.987892	-0.188875	0.500039
H548	H	1.237892	0.061125	0.750039
H549	H	0.447710	-0.299629	0.000027
H550	H	0.697710	-0.049629	0.250027
H551	H	0.947710	0.200371	0.500027
H552	H	1.197710	0.450371	0.750027
H553	H	0.486964	-0.780325	0.000055
H554	H	0.736964	-0.530325	0.250055
H555	H	0.986964	-0.280325	0.500055
H556	H	1.236964	-0.030325	0.750055
O557	O	-0.274614	-0.028683	0.000186
O558	O	-0.024614	0.221317	0.250186
O559	O	0.225386	0.471317	0.500186
O560	O	0.475386	0.721317	0.750186
C561	C	-0.236179	-0.067248	0.000174
C562	C	0.013821	0.182752	0.250174
C563	C	0.263821	0.432752	0.500174
C564	C	0.513821	0.682752	0.750174
H565	H	-0.202028	-0.053956	0.031139
H566	H	0.047972	0.196044	0.281139
H567	H	0.297972	0.446044	0.531139
H568	H	0.547972	0.696044	0.781139
H569	H	-0.246486	-0.098227	0.047677
H570	H	0.003514	0.151773	0.297677
H571	H	0.253514	0.401773	0.547677
H572	H	0.503514	0.651773	0.797677
H573	H	-0.228946	-0.080745	-0.078301
H574	H	0.021054	0.169255	0.171699
H575	H	0.271054	0.419255	0.421699
H576	H	0.521054	0.669255	0.671699
O577	O	0.213861	-0.067857	0.000128
O578	O	0.463861	0.182143	0.250128
O579	O	0.713861	0.432143	0.500128
O580	O	0.963861	0.682143	0.750128
C581	C	0.186168	-0.107096	0.000171
C582	C	0.436168	0.142904	0.250171
C583	C	0.686168	0.392904	0.500171
C584	C	0.936168	0.642904	0.750171
H585	H	0.148446	-0.094536	-0.030797
H586	H	0.398446	0.155464	0.219203
H587	H	0.648446	0.405464	0.469203
H588	H	0.898446	0.655464	0.719203
H589	H	0.204986	-0.137778	-0.047315
H590	H	0.454986	0.112222	0.202685
H591	H	0.704986	0.362222	0.452685
H592	H	0.954986	0.612222	0.702685
H593	H	0.182680	-0.120705	0.078655
H594	H	0.432680	0.129295	0.328655
H595	H	0.682680	0.379295	0.578655
H596	H	0.932680	0.629295	0.828655
H597	H	0.343360	-0.015426	0.000096
H598	H	0.593360	0.234574	0.250096
H599	H	0.843360	0.484574	0.500096
H600	H	1.093360	0.734574	0.750096
O601	O	0.653831	-0.807281	-0.000057
O602	O	0.903831	-0.557281	0.249943
O603	O	1.153831	-0.307281	0.499943
O604	O	1.403831	-0.057281	0.749943
C605	C	0.680766	-0.798665	-0.084792
C606	C	0.930766	-0.548665	0.165208
C607	C	1.180766	-0.298665	0.415208
C608	C	1.430766	-0.048665	0.665208
H609	H	0.668608	-0.760326	-0.113032
H610	H	0.918608	-0.510326	0.136968
H611	H	1.168608	-0.260326	0.386968
H612	H	1.418608	-0.010326	0.636968
H613	H	0.721109	-0.802515	-0.065741
H614	H	0.971109	-0.552515	0.184259
H615	H	1.221109	-0.302515	0.434259
H616	H	1.471109	-0.052515	0.684259
H617	H	0.674360	-0.826187	-0.144119
H618	H	0.924360	-0.576187	0.105881
H619	H	1.174360	-0.326187	0.355881
H620	H	1.424360	-0.076187	0.605881
O621	O	0.486205	-0.168206	0.000050
O622	O	0.736205	0.081794	0.250050
O623	O	0.986205	0.331794	0.500050
O624	O	1.236205	0.581794	0.750050
C625	C	0.447637	-0.129775	0.000072
C626	C	0.697637	0.120225	0.250072
C627	C	0.947637	0.370225	0.500072
C628	C	1.197637	0.620225	0.750072
H629	H	0.460929	-0.095616	-0.030876
H630	H	0.710929	0.154384	0.219124
H631	H	0.960929	0.404384	0.469124
H632	H	1.210929	0.654384	0.719124
H633	H	0.416663	-0.140076	-0.047439
H634	H	0.666663	0.109924	0.202561
H635	H	0.916663	0.359924	0.452561
H636	H	1.166663	0.609924	0.702561
H637	H	0.434131	-0.122557	0.078548
H638	H	0.684131	0.127443	0.328548
H639	H	0.934131	0.377443	0.578548
H640	H	1.184131	0.627443	0.828548
O641	O	-0.072911	0.191564	-0.000037
O642	O	0.177089	0.441564	0.249963
O643	O	0.427089	0.691564	0.499963
O644	O	0.677089	0.941564	0.749963
C645	C	-0.102431	0.193910	-0.084767
C646	C	0.147569	0.443910	0.165233
C647	C	0.397569	0.693910	0.415233
C648	C	0.647569	0.943910	0.665233
H649	H	-0.104695	0.155562	-0.113004
H650	H	0.145305	0.405562	0.136996
H651	H	0.395305	0.655562	0.386996
H652	H	0.645305	0.905562	0.636996
H653	H	-0.140460	0.212199	-0.065711
H654	H	0.109540	0.462199	0.184289
H655	H	0.359540	0.712199	0.434289
H656	H	0.609540	0.962199	0.684289
H657	H	-0.086011	0.215867	-0.144099
H658	H	0.163989	0.465867	0.105901
H659	H	0.413989	0.715867	0.355901
H660	H	0.663989	0.965867	0.605901
O661	O	-0.036754	-0.070327	0.000305
O662	O	0.213246	0.179673	0.250305
O663	O	0.463246	0.429673	0.500305
O664	O	0.713246	0.679673	0.750305
C665	C	-0.065536	-0.073268	0.085047
C666	C	0.184464	0.176732	0.335047
C667	C	0.434464	0.426732	0.585047
C668	C	0.684464	0.676732	0.835047
H669	H	-0.078374	-0.035074	0.113277
H670	H	0.171626	0.214926	0.363277
H671	H	0.421626	0.464926	0.613277
H672	H	0.671626	0.714926	0.863277
H673	H	-0.098411	-0.092289	0.066010
H674	H	0.151589	0.157711	0.316010
H675	H	0.401589	0.407711	0.566010
H676	H	0.651589	0.657711	0.816010
H677	H	-0.043098	-0.094820	0.144377
H678	H	0.206902	0.155180	0.394377
H679	H	0.456902	0.405180	0.644377
H680	H	0.706902	0.655180	0.894377
H681	H	0.057760	-0.062462	0.000163
H682	H	0.307760	0.187538	0.250163
H683	H	0.557760	0.437538	0.500163
H684	H	0.807760	0.687538	0.750163
H685	H	-0.180236	-0.020747	0.000152
H686	H	0.069764	0.229253	0.250152
H687	H	0.319764	0.479253	0.500152
H688	H	0.569764	0.729253	0.750152
O689	O	0.700222	-0.581520	-0.000088
O690	O	0.950222	-0.331520	0.249912
O691	O	1.200222	-0.081520	0.499912
O692	O	1.450222	0.168480	0.749912
C693	C	0.702554	-0.611042	-0.084801
C694	C	0.952554	-0.361042	0.165199
C695	C	1.202554	-0.111042	0.415199
C696	C	1.452554	0.138958	0.665199
H697	H	0.677697	-0.592385	-0.144016
H698	H	0.927697	-0.342385	0.105984
H699	H	1.177697	-0.092385	0.355984
H700	H	1.427697	0.157615	0.605984
H701	H	0.741534	-0.616999	-0.113236
H702	H	0.991534	-0.366999	0.136764
H703	H	1.241534	-0.116999	0.386764
H704	H	1.491534	0.133001	0.636764
H705	H	0.690316	-0.647616	-0.065655
H706	H	0.940316	-0.397616	0.184345
H707	H	1.190316	-0.147616	0.434345
H708	H	1.440316	0.102384	0.684345
O709	O	0.660022	-0.192316	0.000265
O710	O	0.910022	0.057684	0.250265
O711	O	1.160022	0.307684	0.500265
O712	O	1.410022	0.557684	0.750265
C713	C	0.662367	-0.221843	0.084996
C714	C	0.912367	0.028157	0.334996
C715	C	1.162367	0.278157	0.584996
C716	C	1.412367	0.528157	0.834996
H717	H	0.624018	-0.224123	0.113226
H718	H	0.874018	0.025877	0.363226
H719	H	1.124018	0.275877	0.613226
H720	H	1.374018	0.525877	0.863226
H721	H	0.680671	-0.259865	0.065945
H722	H	0.930671	-0.009865	0.315945
H723	H	1.180671	0.240135	0.565945
H724	H	1.430671	0.490135	0.815945
H725	H	0.684309	-0.205418	0.144331
H726	H	0.934309	0.044582	0.394331
H727	H	1.184309	0.294582	0.644331
H728	H	1.434309	0.544582	0.894331
H729	H	0.695819	-0.333889	0.000128
H730	H	0.945819	-0.083889	0.250128
H731	H	1.195819	0.166111	0.500128
H732	H	1.445819	0.416111	0.750128
O733	O	0.701819	-0.430187	0.000163
O734	O	0.951819	-0.180187	0.250163
O735	O	1.201819	0.069813	0.500163
O736	O	1.451819	0.319813	0.750163
C737	C	0.741053	-0.402488	0.000152
C738	C	0.991053	-0.152488	0.250152
C739	C	1.241053	0.097512	0.500152
C740	C	1.491053	0.347512	0.750152
H741	H	0.728485	-0.364771	0.031113
H742	H	0.978485	-0.114771	0.281113
H743	H	1.228485	0.135229	0.531113
H744	H	1.478485	0.385229	0.781113
H745	H	0.771733	-0.421307	0.047660
H746	H	1.021733	-0.171307	0.297660
H747	H	1.271733	0.078693	0.547660
H748	H	1.521733	0.328693	0.797660
H749	H	0.754667	-0.398990	-0.078321
H750	H	1.004667	-0.148990	0.171679
H751	H	1.254667	0.101010	0.421679
H752	H	1.504667	0.351010	0.671679
O753	O	0.439769	-0.394007	-0.000024
O754	O	0.689769	-0.144007	0.249976
O755	O	0.939769	0.105993	0.499976
O756	O	1.189769	0.355993	0.749976
C757	C	0.401207	-0.355569	-0.000013
C758	C	0.651207	-0.105569	0.249987
C759	C	0.901207	0.144431	0.499987
C760	C	1.151207	0.394431	0.749987
H761	H	0.414506	-0.321416	-0.030971
H762	H	0.664506	-0.071416	0.219029
H763	H	0.914506	0.178584	0.469029
H764	H	1.164506	0.428584	0.719029
H765	H	0.370232	-0.365867	-0.047523
H766	H	0.620232	-0.115867	0.202477
H767	H	0.870232	0.134133	0.452477
H768	H	1.120232	0.384133	0.702477
H769	H	0.387701	-0.348343	0.078460
H770	H	0.637701	-0.098343	0.328460
H771	H	0.887701	0.151657	0.578460
H772	H	1.137701	0.401657	0.828460
H773	H	0.647846	-0.710950	0.000093
H774	H	0.897846	-0.460950	0.250093
H775	H	1.147846	-0.210950	0.500093
H776	H	1.397846	0.039050	0.750093
O777	O	0.487302	-0.068828	0.000062
O778	O	0.737302	0.181172	0.250062
O779	O	0.987302	0.431172	0.500062
O780	O	1.237302	0.681172	0.750062
C781	C	0.497268	-0.020233	0.000093
C782	C	0.747268	0.229767	0.250093
C783	C	0.997268	0.479767	0.500093
C784	C	1.247268	0.729767	0.750093
H785	H	0.535224	-0.018580	-0.030859
H786	H	0.785224	0.231420	0.219141
H787	H	1.035224	0.481420	0.469141
H788	H	1.285224	0.731420	0.719141
H789	H	0.469319	0.002821	-0.047411
H790	H	0.719319	0.252821	0.202589
H791	H	0.969319	0.502821	0.452589
H792	H	1.219319	0.752821	0.702589
H793	H	0.495318	-0.005645	0.078572
H794	H	0.745318	0.244355	0.328572
H795	H	0.995318	0.494355	0.578572
H796	H	1.245318	0.744355	0.828572
H797	H	0.445246	-0.542327	0.000030
H798	H	0.695246	-0.292327	0.250030
H799	H	0.945246	-0.042327	0.500030
H800	H	1.195246	0.207673	0.750030
