data_functionalizedCrystal
_audit_creation_method	'MofGen! by Chris Wilmer'
_symmetry_space_group_name_H-M	'P1'
_symmetry_Int_Tables_number	1
_symmetry_cell_setting	triclinic
loop_
_symmetry_equiv_pos_as_xyz
  x,y,z
_cell_length_a	10.723023
_cell_length_b	11.792254
_cell_length_c	9.798715
_cell_angle_alpha	89.996677
_cell_angle_beta	89.996770
_cell_angle_gamma	84.333073
loop_
_atom_site_label
_atom_site_type_symbol
_atom_site_fract_x
_atom_site_fract_y
_atom_site_fract_z
O1	O	1.656775	0.159187	-0.113478
O2	O	2.156775	0.659187	0.386522
O3	O	1.293583	0.174426	-0.113484
O4	O	1.793583	0.674426	0.386516
O5	O	1.483984	0.001656	-0.113471
O6	O	1.983984	0.501656	0.386529
O7	O	1.466373	0.331957	-0.113491
O8	O	1.966373	0.831957	0.386509
O9	O	1.483970	0.001656	0.113511
O10	O	1.983970	0.501656	0.613511
O11	O	1.293568	0.174425	0.113499
O12	O	1.793568	0.674425	0.613499
O13	O	1.656760	0.159187	0.113504
O14	O	2.156760	0.659187	0.613504
Zn15	Zn	1.475162	0.166806	0.149540
Zn16	Zn	1.975162	0.666806	0.649540
Zn17	Zn	1.475181	0.166806	-0.149519
Zn18	Zn	1.975181	0.666806	0.350481
O19	O	1.466359	0.331956	0.113492
O20	O	1.966359	0.831956	0.613492
C21	C	1.247079	0.173317	0.000007
C22	C	1.747079	0.673317	0.500007
C23	C	1.108533	0.169999	0.000005
C24	C	1.608533	0.669999	0.500005
C25	C	1.046757	0.168520	0.117587
C26	C	1.546757	0.668520	0.617587
C27	C	0.903563	0.165091	0.117588
C28	C	1.403563	0.665091	0.617588
C29	C	1.482868	-0.040637	0.000020
C30	C	1.982868	0.459363	0.500020
C31	C	1.479547	-0.166658	0.000018
C32	C	1.979547	0.333342	0.500018
C33	C	1.476849	-0.269000	0.000014
C34	C	1.976849	0.231000	0.500014
C35	C	1.473476	-0.397394	0.000001
C36	C	1.973476	0.102606	0.500001
C37	C	1.703264	0.160296	0.000011
C38	C	2.203264	0.660296	0.500011
C39	C	1.841810	0.163613	0.000004
C40	C	2.341810	0.663613	0.500004
C41	C	1.467475	0.374250	-0.000002
C42	C	1.967475	0.874250	0.499998
C43	C	1.470796	0.500270	-0.000010
C44	C	1.970796	1.000270	0.499990
N45	N	1.475158	0.166805	0.353639
N46	N	1.975158	0.666805	0.853639
N47	N	1.475194	0.166799	-0.353619
N48	N	1.975194	0.666799	0.146381
C49	C	1.555104	0.093944	0.421422
C50	C	2.055104	0.593944	0.921422
C51	C	1.555124	0.093940	0.578584
C52	C	2.055124	0.593940	1.078584
H53	H	1.623529	0.031563	0.363104
H54	H	2.123529	0.531563	0.863104
O55	O	1.110280	0.169889	0.237600
O56	O	1.610280	0.669889	0.737600
C57	C	1.199026	0.073547	0.244919
C58	C	1.699026	0.573547	0.744919
H59	H	1.222893	0.041294	0.137465
H60	H	1.722893	0.541294	0.637465
H61	H	1.158352	0.003635	0.306056
H62	H	1.658352	0.503635	0.806056
C63	C	1.289360	0.145930	0.447455
C64	C	1.789360	0.645930	0.947455
C65	C	1.318681	0.106322	0.315478
C66	C	1.818681	0.606322	0.815478
H67	H	1.363166	0.166144	0.490985
H68	H	1.863166	0.666144	0.990985
H69	H	1.229567	0.210835	0.442529
H70	H	1.729567	0.710835	0.942529
H71	H	1.255463	0.087663	0.498386
H72	H	1.755463	0.587663	0.998386
H73	H	1.352562	0.164593	0.264545
H74	H	1.852562	0.664593	0.764545
H75	H	1.378482	0.041427	0.320397
H76	H	1.878482	0.541427	0.820397
H77	H	0.850437	0.163826	0.218255
H78	H	1.350437	0.663826	0.718255
H79	H	1.406724	0.229177	0.411959
H80	H	1.906724	0.729177	0.911959
H81	H	1.623573	0.031565	0.636874
H82	H	2.123573	0.531565	1.136874
O83	O	1.393705	0.241274	0.576712
O84	O	1.893705	0.741274	1.076712
C85	C	1.461305	0.311620	0.494070
C86	C	1.961305	0.811620	0.994070
H87	H	1.558548	0.266973	0.472785
H88	H	2.058548	0.766973	0.972785
H89	H	1.470569	0.395572	0.549053
H90	H	1.970569	0.895572	1.049053
C91	C	1.271835	0.390202	0.384419
C92	C	1.771835	0.890202	0.884419
C93	C	1.391268	0.335362	0.358267
C94	C	1.891268	0.835362	0.858267
H95	H	1.228632	0.404852	0.300652
H96	H	1.728632	0.904852	0.800652
H97	H	1.226291	0.342812	0.440100
H98	H	1.726291	0.842812	0.940100
H99	H	1.279573	0.460156	0.430242
H100	H	1.779573	0.960156	0.930242
H101	H	1.383528	0.265403	0.312462
H102	H	1.883528	0.765403	0.812462
H103	H	1.436809	0.382741	0.302576
H104	H	1.936809	0.882741	0.802576
H105	H	0.894926	0.164892	-0.100668
H106	H	1.394926	0.664892	0.399332
H107	H	1.055411	0.168724	-0.100661
H108	H	1.555411	0.668724	0.399339
