data_functionalizedCrystal
_audit_creation_method	'MofGen! by Chris Wilmer'
_symmetry_space_group_name_H-M	'P1'
_symmetry_Int_Tables_number	1
_symmetry_cell_setting	triclinic
loop_
_symmetry_equiv_pos_as_xyz
  x,y,z
_cell_length_a	12.827892
_cell_length_b	11.169417
_cell_length_c	11.169417
_cell_angle_alpha	89.997279
_cell_angle_beta	90.008358
_cell_angle_gamma	89.985670
loop_
_atom_site_label
_atom_site_type_symbol
_atom_site_fract_x
_atom_site_fract_y
_atom_site_fract_z
Zn1	Zn	-0.416233	-1.834696	0.678595
Zn2	Zn	-0.590945	-1.834634	0.477910
Zn3	Zn	-0.416215	-1.634048	0.477923
Zn4	Zn	-0.590929	-1.633971	0.678548
O5	O	-0.503581	-1.734337	0.578244
O6	O	-0.439423	-2.002637	0.651988
O7	O	-0.567766	-1.808032	0.309962
O8	O	-0.269982	-1.660722	0.504568
O9	O	-0.567783	-2.002592	0.504545
O10	O	-0.269995	-1.808137	0.652001
O11	O	-0.439393	-1.660662	0.309972
O12	O	-0.439378	-1.466088	0.504523
O13	O	-0.567757	-1.660592	0.846504
O14	O	-0.567739	-1.466032	0.651921
O15	O	-0.439408	-1.808063	0.846539
O16	O	-0.737179	-1.807957	0.504499
O17	O	-0.737168	-1.660532	0.651907
C18	C	-0.503556	-1.422512	0.578219
C19	C	-0.503570	-1.289112	0.578236
C20	C	-0.775091	-1.734262	0.578223
C21	C	-0.891244	-1.734340	0.578254
C22	C	-0.943000	-1.807377	0.505393
C23	C	-1.063050	-1.807459	0.505423
C24	C	-0.231011	-1.734445	0.578292
C25	C	-0.114857	-1.734491	0.578312
C26	C	-0.503582	-1.734326	0.891286
C27	C	-0.503583	-1.734321	1.024686
C28	C	-0.503598	-1.047379	0.578261
C29	C	-0.503583	-1.180779	0.578244
C30	C	-0.503598	-1.734334	1.266419
C31	C	-0.503585	-1.734324	1.133019
H32	H	-0.898435	-1.869852	0.442995
H33	H	-1.107559	-1.869986	0.443041
O34	O	-1.061727	-1.660058	0.652866
C35	C	-0.938278	-1.643820	0.814679
C36	C	-0.998412	-1.728250	0.730342
H37	H	-0.887057	-1.698917	0.877322
H38	H	-0.995914	-1.588915	0.869652
H39	H	-0.887288	-1.581105	0.759429
H40	H	-1.049403	-1.791037	0.785498
H41	H	-0.940719	-1.783070	0.675364
O42	O	-0.944287	-1.659644	0.652645
C43	C	-0.978070	-1.455498	0.710649
C44	C	-0.917920	-1.539957	0.626342
H45	H	-0.956791	-1.358713	0.689396
H46	H	-0.956603	-1.476356	0.807479
H47	H	-1.065414	-1.468907	0.697431
H48	H	-0.830562	-1.526596	0.639453
H49	H	-0.939474	-1.519079	0.529542
