data_functionalizedCrystal
_audit_creation_method	'MofGen! by Chris Wilmer'
_symmetry_space_group_name_H-M	'P1'
_symmetry_Int_Tables_number	1
_symmetry_cell_setting	triclinic
loop_
_symmetry_equiv_pos_as_xyz
  x,y,z
_cell_length_a	19.377372
_cell_length_b	21.606444
_cell_length_c	19.377169
_cell_angle_alpha	52.468316
_cell_angle_beta	75.976473
_cell_angle_gamma	72.112173
loop_
_atom_site_label
_atom_site_type_symbol
_atom_site_fract_x
_atom_site_fract_y
_atom_site_fract_z
Zr1	Zr	0.625997	0.876132	-0.207927
O2	O	0.551674	0.981660	-0.308155
O3	O	0.648783	0.754246	-0.177206
O4	O	0.682633	0.894107	-0.332094
O5	O	0.491120	0.833324	-0.031083
O6	O	0.785934	0.926894	-0.350974
O7	O	0.517824	0.841799	-0.153266
O8	O	0.725382	0.676707	-0.073907
O9	O	0.551672	1.083511	-0.308151
O10	O	0.735591	0.834906	-0.178189
O11	O	0.638570	0.804113	-0.072915
O12	O	0.678424	0.968782	-0.255277
O13	O	0.581403	0.937989	-0.150003
Zr14	Zr	0.748160	0.914907	-0.043171
Zr15	Zr	0.790750	0.928423	-0.238038
Zr16	Zr	0.583407	0.862616	-0.013059
Zr17	Zr	0.625994	1.038571	-0.207921
Zr18	Zr	0.748163	0.752467	-0.043177
O19	O	0.725375	1.036793	-0.073892
O20	O	0.785932	1.056011	-0.350969
O21	O	0.491117	0.962442	-0.031078
O22	O	0.822483	0.809378	0.057057
O23	O	0.883040	0.828597	-0.220020
O24	O	0.588226	0.735027	0.099871
O25	O	0.883037	0.957714	-0.220015
O26	O	0.691524	0.896931	0.080997
O27	O	0.588223	0.864145	0.099876
O28	O	0.856334	0.949239	-0.097832
O29	O	0.682629	1.125075	-0.332085
O30	O	0.691528	0.665964	0.080987
O31	O	0.822485	0.707528	0.057053
O32	O	0.856338	0.718272	-0.097841
O33	O	0.517819	1.072767	-0.153257
O34	O	0.648776	1.114331	-0.177191
O35	O	0.695733	0.822257	0.004179
O36	O	0.792754	0.853050	-0.101095
O37	O	0.735588	0.986925	-0.178183
O38	O	0.638567	0.956132	-0.072909
C39	C	0.687083	0.692333	-0.125557
C40	C	0.687084	0.623373	-0.125560
C41	C	0.480998	0.830111	-0.087884
C42	C	0.411056	0.807913	-0.075102
C43	C	0.737726	0.607048	-0.180513
C44	C	0.737728	0.542249	-0.180507
C45	C	0.687083	0.493778	-0.125553
C46	C	0.636438	0.510104	-0.070594
C47	C	0.636440	0.574900	-0.070596
C48	C	0.636427	0.248792	-0.070585
C49	C	0.636427	0.183995	-0.070589
C50	C	0.737715	0.216141	-0.180496
C51	C	0.737717	0.280936	-0.180498
C52	C	0.687075	0.297254	-0.125536
C53	C	0.687075	0.367517	-0.125542
C54	C	0.687079	0.423520	-0.125551
C55	C	0.031830	1.084304	-0.234256
C56	C	-0.033883	1.063427	-0.222233
C57	C	0.025803	0.923671	-0.141760
C58	C	0.091522	0.944536	-0.153772
C59	C	0.094530	1.024855	-0.200022
C60	C	0.154222	0.885087	-0.119538
C61	C	0.219936	0.905951	-0.131554
C62	C	0.222950	0.986266	-0.177804
C63	C	0.160244	1.045719	-0.212038
C64	C	0.151214	0.804769	-0.073294
C65	C	0.213914	0.745319	-0.039060
C66	C	0.279628	0.766183	-0.051070
C67	C	0.282643	0.846498	-0.097320
C68	C	0.342335	0.706730	-0.016836
C69	C	0.408049	0.727594	-0.028852
C70	C	0.348357	0.867362	-0.109336
C71	C	0.893159	0.960927	-0.163213
C72	C	0.963101	0.983126	-0.175996
C73	C	0.740352	0.912426	-0.369299
C74	C	0.758432	0.918164	-0.452025
C75	C	0.687075	1.098706	-0.125541
C76	C	0.687073	1.167666	-0.125538
C77	C	0.533331	0.846724	-0.672075
C78	C	0.550331	0.852118	-0.749810
C79	C	0.664147	0.888241	-0.770611
C80	C	0.647158	0.882847	-0.692874
C81	C	0.581748	0.862089	-0.643612
C82	C	0.695575	0.898212	-0.664411
C83	C	0.678585	0.892822	-0.586683
C84	C	0.613178	0.872067	-0.537417
C85	C	0.564758	0.856698	-0.565883
C86	C	0.760982	0.918975	-0.713677
C87	C	0.809399	0.934340	-0.685214
C88	C	0.792412	0.928945	-0.607482
C89	C	0.727005	0.908190	-0.558216
C90	C	0.840831	0.944313	-0.579015
C91	C	0.823842	0.938923	-0.501287
C92	C	0.710015	0.902800	-0.480488
C93	C	0.633806	0.878612	0.118201
C94	C	0.615725	0.872874	0.200928
C95	C	0.893163	0.757740	-0.163222
C96	C	0.963106	0.710980	-0.176007
C97	C	0.633809	0.675426	0.118193
C98	C	0.615730	0.600728	0.200916
C99	C	0.839890	0.740833	0.080528
C100	C	0.891753	0.688335	0.150469
C101	C	0.534267	1.050205	-0.331626
C102	C	0.482405	1.102704	-0.401567
C103	C	0.480994	1.033298	-0.087876
C104	C	0.411051	1.080059	-0.075090
C105	C	0.740348	1.115613	-0.369290
C106	C	0.758427	1.190311	-0.452014
C107	C	0.966116	0.679550	-0.222262
C108	C	1.031832	0.635621	-0.234293
C109	C	1.094538	0.623118	-0.200063
C110	C	1.091527	0.654554	-0.153806
C111	C	1.025812	0.698486	-0.141781
C112	C	0.637077	0.575119	0.280015
C113	C	0.620085	0.504940	0.357750
C114	C	0.581751	0.460368	0.356385
C115	C	0.560402	0.485982	0.277278
C116	C	0.577389	0.556163	0.199545
C117	C	0.966759	0.679756	0.128361
C118	C	1.015498	0.630439	0.194069
C119	C	0.989228	0.589697	0.281885
C120	C	0.914215	0.598280	0.303992
C121	C	0.865478	0.647600	0.238285
C122	C	0.407398	1.111290	-0.379459
C123	C	0.358660	1.160627	-0.445167
C124	C	0.384929	1.201373	-0.532982
C125	C	0.459943	1.192786	-0.555090
C126	C	0.508680	1.143455	-0.489383
C127	C	0.408044	1.111496	-0.028844
C128	C	0.342332	1.155444	-0.016835
C129	C	0.279627	1.167949	-0.051067
C130	C	0.282637	1.136511	-0.097320
C131	C	0.348349	1.092568	-0.109334
C132	C	0.796763	1.234863	-0.450621
C133	C	0.813763	1.305045	-0.528344
C134	C	0.792423	1.330677	-0.607458
C135	C	0.754086	1.286118	-0.608849
C136	C	0.737090	1.215934	-0.531128
H137	H	0.778965	0.646514	-0.225267
H138	H	0.668290	0.611403	0.281143
F139	F	0.339126	0.621254	0.032376
H140	H	0.211456	0.679925	-0.001405
H141	H	0.804404	0.654575	0.256298
F142	F	0.474782	0.664322	0.007581
F143	F	0.588508	1.134319	-0.512926
F144	F	0.791618	0.524889	-0.239009
F145	F	0.810515	1.405376	-0.690170
H146	H	0.567924	0.403224	0.419686
F147	F	0.879009	0.956435	-0.737650
H148	H	1.148042	0.587344	-0.209859
F149	F	0.474772	1.098198	0.007595
H150	H	1.028921	0.549540	0.335380
H151	H	0.894084	0.961222	-0.619139
H152	H	0.778955	0.320403	-0.225250
F153	F	0.994733	0.723115	0.034905
H154	H	0.778953	0.202846	-0.225246
F155	F	0.696282	1.168529	-0.532623
H156	H	0.599345	0.867682	-0.474128
H157	H	0.231573	1.146700	-0.125190
H158	H	0.915067	0.689731	-0.250150
H159	H	0.844977	1.341318	-0.527194
F160	F	0.339142	1.188894	0.032396
F161	F	0.731373	1.313411	-0.693056
F162	F	0.582521	0.132407	-0.012095
F163	F	0.333050	1.253873	-0.602906
H164	H	0.595193	0.262067	-0.025828
H165	H	0.385996	1.078114	-0.307959
H166	H	0.529188	0.449682	0.276180
F167	F	0.582545	0.458509	-0.012096
H168	H	1.142591	0.644368	-0.125940
F169	F	1.095329	0.621313	0.170523
H170	H	0.297583	1.167607	-0.427149
H171	H	1.023371	0.724071	-0.104112
F172	F	1.035021	0.602169	-0.283521
F173	F	0.351538	1.059109	-0.158552
H174	H	0.595200	0.588190	-0.025849
H175	H	0.226124	1.203731	-0.041279
F176	F	0.642816	0.477692	0.441931
H177	H	0.892836	0.565100	0.375500
F178	F	0.351558	0.952846	-0.158551
H179	H	0.480071	0.829812	-0.631958
F180	F	0.292891	1.008472	-0.190596
F181	F	0.487890	1.236155	-0.648555
H182	H	0.863268	0.951435	-0.478114
H183	H	0.560006	0.577004	0.135143
F184	F	-0.100613	1.126708	-0.258681
F185	F	0.163444	1.131203	-0.261253
F186	F	0.498791	0.835764	-0.780097
F187	F	0.081276	0.782565	-0.060514
F188	F	0.035031	1.169788	-0.283471
H189	H	0.656755	0.885888	-0.440372
F190	F	0.022594	0.838193	-0.092541
H191	H	0.511499	0.839787	-0.525767
F192	F	0.819482	1.207597	-0.366430
H193	H	0.774810	0.923367	-0.776970
F194	F	0.733757	0.910336	-0.823047
