data_functionalizedCrystal
_audit_creation_method	'MofGen! by Chris Wilmer'
_symmetry_space_group_name_H-M	'P1'
_symmetry_Int_Tables_number	1
_symmetry_cell_setting	triclinic
loop_
_symmetry_equiv_pos_as_xyz
  x,y,z
_cell_length_a	12.759395
_cell_length_b	15.299816
_cell_length_c	12.759387
_cell_angle_alpha	99.650540
_cell_angle_beta	89.978574
_cell_angle_gamma	80.351286
loop_
_atom_site_label
_atom_site_type_symbol
_atom_site_fract_x
_atom_site_fract_y
_atom_site_fract_z
Zn1	Zn	1.678557	-0.358990	-0.666445
Zn2	Zn	1.708822	-0.509832	-0.521193
Zn3	Zn	1.502865	-0.359037	-0.490789
Zn4	Zn	1.533209	-0.509766	-0.696816
O5	O	1.605863	-0.434406	-0.593811
O6	O	1.829595	-0.379008	-0.647191
O7	O	1.681469	-0.489876	-0.370148
O8	O	1.500806	-0.232823	-0.488656
O9	O	1.851830	-0.489831	-0.540475
O10	O	1.629886	-0.232789	-0.617710
O11	O	1.530153	-0.379088	-0.347810
O12	O	1.359867	-0.379024	-0.518105
O13	O	1.552523	-0.489718	-0.839799
O14	O	1.382161	-0.489763	-0.669472
O15	O	1.659309	-0.378944	-0.817486
O16	O	1.710892	-0.636031	-0.569924
O17	O	1.581869	-0.635983	-0.698954
C18	C	1.332893	-0.434392	-0.593785
C19	C	1.216119	-0.434407	-0.593804
C20	C	1.019990	-0.549928	-0.751287
C21	C	1.086506	-0.607669	-0.830000
C22	C	1.196225	-0.607658	-0.829984
C23	C	1.239431	-0.549901	-0.751245
C24	C	1.172915	-0.492160	-0.672532
C25	C	1.063194	-0.492175	-0.672559
C26	C	1.149604	-0.376666	-0.515091
C27	C	1.039883	-0.376671	-0.515109
C28	C	1.192810	-0.318909	-0.436352
C29	C	1.126293	-0.261162	-0.357642
C30	C	1.016567	-0.261175	-0.357661
C31	C	0.973368	-0.318930	-0.436396
C32	C	1.652986	-0.668731	-0.641057
C33	C	1.673241	-0.768976	-0.661304
C34	C	1.461784	-1.051921	-0.449458
C35	C	1.442747	-0.957736	-0.430437
C36	C	1.500369	-0.910541	-0.488152
C37	C	1.577031	-0.957542	-0.564891
C38	C	1.596063	-1.051736	-0.583920
C39	C	1.634649	-0.910356	-0.622614
C40	C	1.711310	-0.957356	-0.699353
C41	C	1.730339	-1.051541	-0.718378
C42	C	1.672717	-1.098736	-0.660663
C43	C	1.615616	-0.816162	-0.603585
C44	C	1.749896	-0.815976	-0.738047
C45	C	1.768932	-0.910162	-0.757068
C46	C	1.879900	-0.434422	-0.593837
C47	C	1.996678	-0.434428	-0.593848
C48	C	1.605925	-0.434318	-0.867827
C49	C	1.605951	-0.434280	-0.984596
C50	C	1.558585	-0.199167	-0.546403
C51	C	1.538438	-0.098921	-0.526201
C52	C	1.717159	-0.318939	-0.961382
C53	C	1.772775	-0.261255	-1.004634
C54	C	1.772794	-0.261222	-1.114349
C55	C	1.717188	-0.318878	-1.180816
C56	C	1.661572	-0.376562	-1.137564
C57	C	1.661562	-0.376590	-1.027846
C58	C	1.550360	-0.491897	-1.160777
C59	C	1.550346	-0.491936	-1.051063
C60	C	1.494754	-0.549553	-1.227244
C61	C	1.439143	-0.607243	-1.183994
C62	C	1.439128	-0.607274	-1.074272
C63	C	1.494730	-0.549620	-1.007811
C64	C	1.605849	-0.434429	-0.320848
C65	C	1.605975	-0.434213	-0.204028
H66	H	0.930650	-0.549933	-0.751317
C67	C	1.377971	-0.670744	-1.026707
H68	H	1.344873	-0.705081	-1.082010
H69	H	1.325255	-0.636267	-0.976936
H70	H	1.426072	-0.710060	-0.991847
C71	C	1.479439	-0.806940	-0.467222
H72	H	1.425538	-0.785708	-0.413246
H73	H	1.456932	-0.785594	-0.530691
H74	H	1.542939	-0.785601	-0.444789
H75	H	1.717198	-0.318838	-1.270149
C76	C	1.377983	-0.670655	-1.257100
H77	H	1.344855	-0.705015	-1.215631
H78	H	1.426070	-0.709940	-1.307832
H79	H	1.325273	-0.636127	-1.292930
H80	H	1.831350	-0.948442	-0.819550
C81	C	1.038977	-0.671193	-0.916609
H82	H	0.964105	-0.662927	-0.905355
H83	H	1.069139	-0.731774	-0.913333
H84	H	1.054355	-0.658056	-0.984576
H85	H	1.688216	-1.175430	-0.676142
H86	H	1.494728	-0.549644	-0.918475
H87	H	1.792758	-1.089806	-0.780868
C88	C	1.833967	-0.197774	-1.161933
H89	H	1.826006	-0.206011	-1.236794
H90	H	1.907209	-0.210985	-1.146627
H91	H	1.806409	-0.137175	-1.131745
H92	H	1.161481	-0.214145	-0.293535
H93	H	0.962416	-0.214155	-0.293563
H94	H	1.717161	-0.318968	-0.872047
C95	C	1.833941	-0.197842	-0.931521
H96	H	1.825976	-0.206127	-0.859984
H97	H	1.806401	-0.137236	-0.937288
H98	H	1.907191	-0.211056	-0.952180
C99	C	1.358437	-0.906042	-0.346023
H100	H	1.326853	-0.947637	-0.314367
H101	H	1.305215	-0.869304	-0.378747
H102	H	1.391237	-0.869303	-0.292858
H103	H	1.414871	-1.090356	-0.402480
C104	C	1.269399	-0.671173	-0.916559
H105	H	1.340931	-0.662896	-0.905263
H106	H	1.248820	-0.658056	-0.984536
H107	H	1.263603	-0.731760	-0.913273
H108	H	1.553198	-0.777903	-0.541104
C109	C	0.852679	-0.318938	-0.436431
H110	H	0.836478	-0.361606	-0.494594
H111	H	0.816167	-0.260758	-0.442984
H112	H	0.830938	-0.334474	-0.371738
H113	H	1.796815	-0.777551	-0.785046
H114	H	1.494769	-0.549518	-1.316578
H115	H	1.328773	-0.549905	-0.751232
H116	H	1.282150	-0.318909	-0.436341
