data_functionalizedCrystal
_audit_creation_method	'MofGen! by Chris Wilmer'
_symmetry_space_group_name_H-M	'P1'
_symmetry_Int_Tables_number	1
_symmetry_cell_setting	triclinic
loop_
_symmetry_equiv_pos_as_xyz
  x,y,z
_cell_length_a	19.077105
_cell_length_b	12.759394
_cell_length_c	12.759387
_cell_angle_alpha	90.031660
_cell_angle_beta	92.320263
_cell_angle_gamma	87.711291
loop_
_atom_site_label
_atom_site_type_symbol
_atom_site_fract_x
_atom_site_fract_y
_atom_site_fract_z
Zn1	Zn	1.076065	-0.482841	0.658523
Zn2	Zn	1.075991	-0.658554	0.482837
Zn3	Zn	0.958359	-0.475824	0.475802
Zn4	Zn	0.958354	-0.651409	0.651422
O5	O	1.017192	-0.567157	0.567146
O6	O	1.174547	-0.512077	0.641134
O7	O	1.060359	-0.634368	0.334881
O8	O	0.974006	-0.329736	0.500069
O9	O	1.174493	-0.641172	0.512058
O10	O	1.060484	-0.334891	0.634313
O11	O	0.973935	-0.500117	0.329713
O12	O	0.859867	-0.493189	0.493183
O13	O	0.973997	-0.628995	0.799387
O14	O	0.859863	-0.622191	0.622210
O15	O	1.060479	-0.505149	0.804604
O16	O	1.060353	-0.804625	0.505172
O17	O	0.973926	-0.799376	0.629031
C18	C	0.834327	-0.556154	0.556163
C19	C	0.756096	-0.551472	0.551489
C20	C	1.017150	-0.840122	0.567118
C21	C	1.017196	-0.956902	0.567145
C22	C	0.719360	-0.616538	0.616365
C23	C	0.645854	-0.612125	0.611979
C24	C	0.609086	-0.542650	0.542710
C25	C	0.645828	-0.477578	0.477831
C26	C	0.719332	-0.481986	0.482224
C27	C	0.389249	-0.522247	0.522386
C28	C	0.315739	-0.517846	0.517996
C29	C	0.315770	-0.652392	0.652145
C30	C	0.389276	-0.656799	0.656527
C31	C	0.426012	-0.591723	0.591652
N32	N	0.533951	-0.538140	0.538222
N33	N	0.501145	-0.596228	0.596146
C34	C	1.107261	-0.962319	0.438276
C35	C	1.152312	-1.019889	0.373855
C36	C	1.152353	-1.129613	0.373886
C37	C	1.107340	-1.181769	0.438347
C38	C	1.062290	-1.124199	0.502768
C39	C	1.062252	-1.014472	0.502728
C40	C	0.972230	-1.118782	0.631642
C41	C	0.972184	-1.009058	0.631607
C42	C	0.927217	-1.170938	0.696103
C43	C	0.882161	-1.113367	0.760521
C44	C	0.882122	-1.003637	0.760486
C45	C	0.927133	-0.951487	0.696028
C46	C	1.200772	-0.578204	0.578173
C47	C	1.279002	-0.582912	0.582872
C48	C	1.017246	-0.567057	0.841183
C49	C	1.017268	-0.567015	0.957961
C50	C	1.017254	-0.293128	0.567198
C51	C	1.017280	-0.176352	0.567221
C52	C	1.017180	-0.567183	0.294178
C53	C	1.017294	-0.566938	0.177409
C54	C	1.107328	-0.438063	0.963414
C55	C	1.152367	-0.373572	1.021002
C56	C	1.152384	-0.373535	1.130725
C57	C	1.107356	-0.437993	1.182862
C58	C	1.062316	-0.502484	1.125274
C59	C	1.062305	-0.502517	1.015549
C60	C	0.972254	-0.631429	1.119821
C61	C	0.972239	-0.631473	1.010098
C62	C	0.927225	-0.695887	1.171958
C63	C	0.882188	-0.760385	1.114370
C64	C	0.882173	-0.760421	1.004641
C65	C	0.927200	-0.695964	0.952510
H66	H	0.615946	-0.665109	0.664807
C67	C	0.275360	-0.723960	0.723510
H68	H	0.226318	-0.711381	0.710983
H69	H	0.287392	-0.795255	0.708737
H70	H	0.287434	-0.709379	0.794851
C71	C	0.927242	-0.695853	1.292649
H72	H	0.893972	-0.743471	1.315449
H73	H	0.972659	-0.716755	1.320199
H74	H	0.915091	-0.627310	1.316758
H75	H	0.927100	-0.862144	0.695987
C76	C	0.832661	-0.831280	1.171715
H77	H	0.805834	-0.869693	1.121706
H78	H	0.859576	-0.878660	1.216136
H79	H	0.802008	-0.789216	1.212673
C80	C	0.927182	-0.696002	0.831818
H81	H	0.893912	-0.743644	0.804985
H82	H	0.915030	-0.627477	0.806284
H83	H	0.972595	-0.716926	0.809727
C84	C	0.429716	-0.733214	0.732729
H85	H	0.397309	-0.771327	0.770747
H86	H	0.458373	-0.780662	0.694176
H87	H	0.458409	-0.694789	0.780293
H88	H	0.845489	-0.812925	0.957758
H89	H	0.419150	-0.469265	0.469552
H90	H	0.845439	-0.956769	0.812950
C91	C	0.759798	-0.692959	0.692563
H92	H	0.727389	-0.731069	0.730579
H93	H	0.788454	-0.740408	0.654011
H94	H	0.788491	-0.654535	0.740128
C95	C	1.107215	-0.841625	0.438234
H96	H	1.140475	-0.818809	0.390623
H97	H	1.061791	-0.814146	0.417286
H98	H	1.119364	-0.817461	0.506770
H99	H	0.285804	-0.461260	0.461595
H100	H	0.615885	-0.421006	0.421436
C101	C	0.832656	-1.170734	0.831424
H102	H	0.805820	-1.120736	0.869790
H103	H	0.802020	-1.211777	0.789378
H104	H	0.859591	-1.215074	0.878866
C105	C	1.107368	-0.437949	1.303553
H106	H	1.074100	-0.485569	1.326356
H107	H	1.152785	-0.458843	1.331110
H108	H	1.095213	-0.369405	1.327652
C109	C	0.759742	-0.410412	0.410862
H110	H	0.727318	-0.368409	0.368973
H111	H	0.788435	-0.366406	0.452850
H112	H	0.788397	-0.452268	0.366722
H113	H	1.188962	-0.977414	0.321373
C114	C	1.107314	-0.438106	0.842723
H115	H	1.140577	-0.390479	0.819920
H116	H	1.119459	-0.506646	0.818618
H117	H	1.061895	-0.417196	0.815171
C118	C	1.201905	-1.192942	0.303022
H119	H	1.228705	-1.146170	0.264622
H120	H	1.232574	-1.237521	0.345098
H121	H	1.175002	-1.234195	0.255611
H122	H	1.189028	-0.321090	0.978540
C123	C	1.107390	-1.302462	0.438386
H124	H	1.140666	-1.329279	0.390786
H125	H	1.119548	-1.327941	0.506936
H126	H	1.061983	-1.324627	0.417440
C127	C	1.201925	-0.302600	1.194078
H128	H	1.195480	-0.311809	1.266891
H129	H	1.249208	-0.320830	1.178942
H130	H	1.191638	-0.231389	1.175498
H131	H	0.927257	-1.260282	0.696129
