data_functionalizedCrystal
_audit_creation_method	'MofGen! by Chris Wilmer'
_symmetry_space_group_name_H-M	'P1'
_symmetry_Int_Tables_number	1
_symmetry_cell_setting	triclinic
loop_
_symmetry_equiv_pos_as_xyz
  x,y,z
_cell_length_a	12.759395
_cell_length_b	19.077114
_cell_length_c	19.077271
_cell_angle_alpha	94.487323
_cell_angle_beta	92.291585
_cell_angle_gamma	92.326645
loop_
_atom_site_label
_atom_site_type_symbol
_atom_site_fract_x
_atom_site_fract_y
_atom_site_fract_z
Zn1	Zn	-1.563606	0.296824	0.409867
Zn2	Zn	-1.563505	0.409947	0.296715
Zn3	Zn	-1.395309	0.292073	0.291996
Zn4	Zn	-1.380502	0.414671	0.414559
O5	O	-1.475730	0.353379	0.353284
O6	O	-1.710612	0.311841	0.394869
O7	O	-1.547348	0.390346	0.197441
O8	O	-1.423873	0.194053	0.303693
O9	O	-1.710538	0.394952	0.311736
O10	O	-1.547520	0.197543	0.390293
O11	O	-1.423775	0.303744	0.193973
O12	O	-1.246325	0.308325	0.308243
O13	O	-1.398637	0.403004	0.512585
O14	O	-1.235447	0.398397	0.398290
O15	O	-1.533162	0.316421	0.509138
O16	O	-1.532990	0.509224	0.316286
O17	O	-1.398539	0.512695	0.402866
C18	C	-1.202765	0.353359	0.353264
C19	C	-1.085988	0.353368	0.353272
C20	C	-0.866610	0.266986	0.440009
C21	C	-0.921506	0.223783	0.483360
C22	C	-1.031229	0.223774	0.483350
C23	C	-1.086058	0.266973	0.439985
C24	C	-1.031161	0.310175	0.396634
C25	C	-0.921436	0.310178	0.396647
C26	C	-1.031091	0.396570	0.309921
C27	C	-0.921369	0.396577	0.309926
C28	C	-1.085920	0.439769	0.266556
C29	C	-1.031024	0.482969	0.223200
C30	C	-0.921294	0.482975	0.223211
C31	C	-0.866472	0.439779	0.266575
C32	C	-1.464174	0.536539	0.360613
C33	C	-1.459325	0.614897	0.363771
C34	C	-0.749762	0.353392	0.353300
C35	C	-0.866540	0.353378	0.353291
C36	C	-1.527098	0.649881	0.320215
C37	C	-1.522543	0.723506	0.323190
C38	C	-1.450209	0.762147	0.369718
C39	C	-1.382433	0.727158	0.413279
C40	C	-1.386994	0.653534	0.410307
C41	C	-1.429062	0.982536	0.383439
C42	C	-1.424504	1.056165	0.386407
C43	C	-1.564616	1.052508	0.296318
C44	C	-1.569166	0.978883	0.293347
C45	C	-1.501394	0.943900	0.336911
N46	N	-1.445550	0.837404	0.372758
N47	N	-1.506060	0.868645	0.333873
C48	C	-1.464259	0.360769	0.537155
C49	C	-1.459370	0.363919	0.615510
C50	C	-1.487350	1.169504	0.345952
C51	C	-1.492278	1.091149	0.342850
C52	C	-1.527110	0.320322	0.650528
C53	C	-1.522504	0.323278	0.724150
C54	C	-1.450163	0.369836	0.762754
C55	C	-1.382416	0.413435	0.727731
C56	C	-1.387017	0.410474	0.654110
C57	C	-1.428886	0.383520	0.983130
C58	C	-1.424291	0.386479	1.056757
C59	C	-1.564379	0.296321	1.053171
C60	C	-1.568979	0.293368	0.979548
C61	C	-1.501228	0.336964	0.944532
N62	N	-1.445456	0.372860	0.838008
N63	N	-1.505931	0.333935	0.869279
C64	C	-1.487147	0.346032	1.170129
C65	C	-1.492031	0.342882	1.091774
H66	H	-0.876853	0.188613	0.518668
O67	O	-1.312285	0.458736	0.765264
C68	C	-1.286933	0.557228	0.852212
C69	C	-1.366469	0.505979	0.809742
H70	H	-1.330709	0.595428	0.888193
H71	H	-1.239318	0.587932	0.814570
H72	H	-1.231876	0.526228	0.885350
H73	H	-1.421594	0.536925	0.776600
H74	H	-1.414008	0.475274	0.847422
O75	O	-1.321183	0.452904	0.620203
C76	C	-1.181732	0.542628	0.631525
C77	C	-1.256244	0.494624	0.670012
H78	H	-1.129195	0.576360	0.671777
H79	H	-1.229748	0.578152	0.598560
H80	H	-1.131041	0.508868	0.595735
H81	H	-1.306951	0.528328	0.705838
H82	H	-1.208165	0.459096	0.702932
O83	O	-1.597455	0.612456	0.274997
C84	C	-1.735902	0.616607	0.185926
C85	C	-1.656287	0.659074	0.237114
H86	H	-1.783473	0.654279	0.155274
H87	H	-1.790988	0.583414	0.216896
H88	H	-1.692126	0.580681	0.147675
H89	H	-1.699975	0.695039	0.275377
H90	H	-1.601204	0.692221	0.206098
O91	O	-1.639535	0.941458	0.248138
C92	C	-1.777997	0.945602	0.159076
C93	C	-1.698372	0.988072	0.210255
H94	H	-1.825573	0.983271	0.128424
H95	H	-1.833077	0.912413	0.190054
H96	H	-1.734228	0.909671	0.120824
H97	H	-1.742053	1.024042	0.248518
H98	H	-1.643294	1.021215	0.179231
O99	O	-1.588621	0.757473	0.281030
C100	C	-1.726128	0.840014	0.275153
C101	C	-1.651272	0.801615	0.322949
H102	H	-1.776786	0.875722	0.309024
H103	H	-1.778672	0.799723	0.241466
H104	H	-1.678283	0.873061	0.239576
H105	H	-1.699034	0.768568	0.358568
H106	H	-1.598726	0.841941	0.356588
O107	O	-1.084401	0.181746	0.525483
C108	C	-1.072900	0.096089	0.611532
C109	C	-1.012554	0.143637	0.563839
H110	H	-1.014837	0.065277	0.642567
H111	H	-1.128569	0.057829	0.577779
H112	H	-1.119976	0.130004	0.649597
H113	H	-0.965418	0.109778	0.525767
H114	H	-0.956948	0.181901	0.597636
H115	H	-1.619794	1.080999	0.260852
O116	O	-1.354349	1.093677	0.431709
C117	C	-1.294313	1.120982	0.552497
C118	C	-1.373835	1.078471	0.501276
H119	H	-1.310024	1.108692	0.608751
H120	H	-1.302698	1.179622	0.547193
H121	H	-1.211285	1.106066	0.539455
H122	H	-1.456897	1.093326	0.514285
H123	H	-1.365357	1.019841	0.506590
H124	H	-1.075673	0.518141	0.187900
O125	O	-1.363222	0.425905	0.949053
C126	C	-1.348226	0.517781	0.869779
C127	C	-1.422717	0.469808	0.908315
H128	H	-1.396298	0.553299	0.836845
H129	H	-1.297499	0.484065	0.833971
H130	H	-1.295721	0.551529	0.910039
H131	H	-1.475288	0.436052	0.868106
H132	H	-1.473372	0.503565	0.944135
H133	H	-1.373877	0.954059	0.418909
H134	H	-0.777270	0.266973	0.440005
H135	H	-1.323542	0.758625	0.451166
H136	H	-0.777131	0.439771	0.266579
O137	O	-1.321264	0.619438	0.452589
C138	C	-1.266154	0.507633	0.487908
C139	C	-1.340668	0.546156	0.439993
H140	H	-1.281801	0.448378	0.477731
H141	H	-1.280099	0.524309	0.545359
H142	H	-1.181336	0.521701	0.476074
H143	H	-1.425514	0.532108	0.451765
H144	H	-1.326633	0.529478	0.382557
O145	O	-1.597415	0.275033	0.613137
C146	C	-1.735913	0.185948	0.617361
C147	C	-1.656329	0.237196	0.659788
H148	H	-1.783581	0.155354	0.655059
H149	H	-1.692217	0.147650	0.581433
H150	H	-1.790913	0.216942	0.584173
H151	H	-1.601308	0.206261	0.693016
H152	H	-1.700093	0.275494	0.695671
O153	O	-1.192633	0.266977	0.440111
C154	C	-1.344741	0.287948	0.508377
C155	C	-1.224039	0.287957	0.508337
H156	H	-1.370169	0.304923	0.563529
H157	H	-1.378931	0.232746	0.491703
H158	H	-1.374480	0.326219	0.469909
H159	H	-1.194208	0.249721	0.546807
H160	H	-1.189921	0.343183	0.524981
H161	H	-1.577668	0.287778	0.752658
O162	O	-1.639179	0.248174	0.941943
C163	C	-1.708217	0.203566	0.826933
C164	C	-1.628704	0.254806	0.869435
H165	H	-1.699760	0.208900	0.768303
H166	H	-1.791294	0.216495	0.841838
H167	H	-1.692410	0.147325	0.839200
H168	H	-1.644414	0.311064	0.857191
H169	H	-1.545652	0.241816	0.854525
H170	H	-1.175261	0.439763	0.266555
O171	O	-1.630074	0.253997	1.087296
C172	C	-1.685113	0.218624	1.199125
C173	C	-1.610637	0.266588	1.160568
H174	H	-1.669440	0.228797	1.258372
H175	H	-1.671155	0.161183	1.182429
H176	H	-1.769942	0.230416	1.185111
H177	H	-1.525780	0.254858	1.174563
H178	H	-1.624686	0.324014	1.177267
H179	H	-1.365379	0.424394	1.088186
H180	H	-0.876604	0.518159	0.187912
