data_functionalizedCrystal
_audit_creation_method	'MofGen! by Chris Wilmer'
_symmetry_space_group_name_H-M	'P1'
_symmetry_Int_Tables_number	1
_symmetry_cell_setting	triclinic
loop_
_symmetry_equiv_pos_as_xyz
  x,y,z
_cell_length_a	16.992695
_cell_length_b	16.992694
_cell_length_c	15.455301
_cell_angle_alpha	87.178730
_cell_angle_beta	87.173129
_cell_angle_gamma	90.668223
loop_
_atom_site_label
_atom_site_type_symbol
_atom_site_fract_x
_atom_site_fract_y
_atom_site_fract_z
O1	O	-0.170180	-1.054114	0.072023
O2	O	0.329820	-0.554114	0.572023
O3	O	-0.168350	-0.825715	0.072049
O4	O	0.331650	-0.325715	0.572049
O5	O	-0.055064	-0.938999	0.072029
O6	O	0.444936	-0.438999	0.572029
O7	O	-0.283465	-0.940831	0.072043
O8	O	0.216535	-0.440831	0.572043
O9	O	-0.048524	-0.932451	-0.072233
O10	O	0.451476	-0.432451	0.427767
O11	O	-0.161809	-0.819168	-0.072214
O12	O	0.338191	-0.319168	0.427786
O13	O	-0.163639	-1.047566	-0.072239
O14	O	0.336361	-0.547566	0.427761
Cu15	Cu	-0.162127	-0.932769	-0.085399
Cu16	Cu	0.337873	-0.432769	0.414601
Cu17	Cu	-0.169862	-0.940513	0.085208
Cu18	Cu	0.330138	-0.440513	0.585208
O19	O	-0.276925	-0.934283	-0.072220
O20	O	0.223075	-0.434283	0.427780
C21	C	-0.162724	-0.793081	-0.000079
C22	C	0.337276	-0.293081	0.499921
C23	C	-0.155696	-0.705597	-0.000070
C24	C	0.344304	-0.205597	0.499930
C25	C	-0.022434	-0.933369	-0.000102
C26	C	0.477566	-0.433369	0.499898
C27	C	0.065051	-0.926341	-0.000101
C28	C	0.565051	-0.426341	0.499899
C29	C	-0.169265	-1.080200	-0.000109
C30	C	0.330735	-0.580200	0.499891
C31	C	-0.176294	-1.167685	-0.000113
C32	C	0.323706	-0.667685	0.499887
C33	C	-0.309555	-0.939913	-0.000087
C34	C	0.190445	-0.439913	0.499913
C35	C	-0.397040	-0.946942	-0.000082
C36	C	0.102960	-0.446942	0.499918
C37	C	0.111042	-0.994158	-0.000109
C38	C	0.611042	-0.494158	0.499891
C39	C	0.193242	-0.987550	-0.000100
C40	C	0.693242	-0.487550	0.499900
C41	C	0.229450	-0.913122	-0.000089
C42	C	0.729450	-0.413122	0.499911
C43	C	0.183452	-0.845300	-0.000078
C44	C	0.683452	-0.345300	0.499922
C45	C	0.101253	-0.851910	-0.000081
C46	C	0.601253	-0.351910	0.499919
C47	C	0.474764	-0.885729	-0.000074
C48	C	0.974764	-0.385729	0.499926
C49	C	0.556969	-0.879124	-0.000074
C50	C	1.056969	-0.379124	0.499926
C51	C	0.566753	-1.021375	-0.000094
C52	C	1.066753	-0.521375	0.499906
C53	C	0.484552	-1.027977	-0.000102
C54	C	0.984552	-0.527977	0.499898
C55	C	0.438562	-0.960155	-0.000087
C56	C	0.938562	-0.460155	0.499913
N57	N	0.313472	-0.906366	-0.000082
N58	N	0.813472	-0.406366	0.499918
N59	N	0.354541	-0.966913	-0.000087
N60	N	0.854541	-0.466913	0.499913
N61	N	-0.156687	-0.927328	-0.205394
N62	N	0.343313	-0.427328	0.294606
C63	C	-0.223514	-0.659607	-0.000066
C64	C	0.276486	-0.159607	0.499934
C65	C	-0.216904	-0.577405	-0.000079
C66	C	0.283096	-0.077405	0.499921
C67	C	-0.142476	-0.541197	-0.000088
C68	C	0.357524	-0.041197	0.499912
C69	C	-0.074653	-0.587193	-0.000094
C70	C	0.425347	-0.087193	0.499906
C71	C	-0.081263	-0.669393	-0.000088
C72	C	0.418737	-0.169393	0.499912
C73	C	-0.115080	-0.295881	-0.000113
C74	C	0.384920	0.204119	0.499887
C75	C	-0.108476	-0.213676	-0.000116
C76	C	0.391524	0.286324	0.499884
C77	C	-0.250728	-0.203893	-0.000103
C78	C	0.249272	0.296107	0.499897
C79	C	-0.257331	-0.286095	-0.000091
C80	C	0.242669	0.213905	0.499909
C81	C	-0.189508	-0.332084	-0.000102
C82	C	0.310492	0.167916	0.499898
N83	N	-0.135718	-0.457174	-0.000098
N84	N	0.364282	0.042826	0.499902
N85	N	-0.196266	-0.416105	-0.000098
N86	N	0.303734	0.083895	0.499902
C87	C	-0.205394	-0.976004	-0.250787
C88	C	0.294606	-0.476004	0.249213
C89	C	-0.201276	-0.971900	-0.341595
C90	C	0.298724	-0.471900	0.158405
C91	C	-0.148453	-0.919115	-0.387009
C92	C	0.351547	-0.419115	0.112991
C93	C	-0.099741	-0.870437	-0.341609
C94	C	0.400259	-0.370437	0.158391
C95	C	-0.103856	-0.874546	-0.250803
C96	C	0.396144	-0.374546	0.249197
C97	C	-0.130699	-0.901390	-0.658590
C98	C	0.369301	-0.401390	-0.158590
C99	C	-0.126589	-0.897283	-0.749403
C100	C	0.373411	-0.397283	-0.249403
C101	C	-0.228123	-0.998748	-0.749383
C102	C	0.271877	-0.498748	-0.249383
C103	C	-0.232237	-1.002849	-0.658575
C104	C	0.267763	-0.502849	-0.158575
C105	C	-0.183522	-0.954174	-0.613183
C106	C	0.316478	-0.454174	-0.113183
N107	N	-0.144244	-0.914917	-0.479829
N108	N	0.355756	-0.414917	0.020171
N109	N	-0.187728	-0.958376	-0.520365
N110	N	0.312272	-0.458376	-0.020365
N111	N	-0.175296	-0.945959	0.205204
N112	N	0.324704	-0.445959	0.705204
H113	H	0.081568	-1.054764	-0.000124
H114	H	0.581568	-0.554764	0.499876
H115	H	0.230685	-1.042774	-0.000109
H116	H	0.730685	-0.542774	0.499891
C117	C	0.444730	-1.109853	-0.000116
C118	C	0.944730	-0.609853	0.499884
N119	N	0.414736	-1.171522	-0.000129
N120	N	0.914736	-0.671522	0.499871
H121	H	0.063808	-0.796685	-0.000073
H122	H	0.563808	-0.296685	0.499927
C123	C	0.007219	-0.547361	-0.000106
C124	C	0.507219	-0.047361	0.499894
N125	N	0.068887	-0.517360	-0.000112
N126	N	0.568887	-0.017360	0.499888
H127	H	0.604207	-1.076591	-0.000106
H128	H	1.104207	-0.576591	0.499894
H129	H	-0.056728	-0.827462	-0.378592
H130	H	0.443272	-0.327462	0.121408
C131	C	-0.263503	-1.034073	-0.200841
C132	C	0.236497	-0.534073	0.299159
N133	N	-0.307270	-1.077815	-0.163224
N134	N	0.192730	-0.577815	0.336776
H135	H	-0.267784	-1.038377	-0.786350
H136	H	0.232216	-0.538377	-0.286350
H137	H	-0.275248	-1.045834	-0.621605
H138	H	0.224752	-0.545834	-0.121605
H139	H	-0.083574	-0.854295	-0.786376
H140	H	0.416426	-0.354295	-0.286376
C141	C	-0.339207	-0.325917	-0.000095
C142	C	0.160793	0.174083	0.499905
N143	N	-0.400877	-0.355912	-0.000099
N144	N	0.099123	0.144088	0.499901
H145	H	-0.091031	-0.861756	-0.621644
H146	H	0.408969	-0.361756	-0.121644
H147	H	-0.064193	-0.834908	-0.213845
H148	H	0.435807	-0.334908	0.286155
H149	H	0.586447	-0.818513	-0.000079
H150	H	1.086447	-0.318513	0.499921
H151	H	-0.240937	-1.011539	-0.378550
H152	H	0.259063	-0.511539	0.121450
C153	C	-0.305391	-0.699428	-0.000057
C154	C	0.194609	-0.199428	0.499943
N155	N	-0.367063	-0.729419	-0.000055
N156	N	0.132937	-0.229419	0.499945
C157	C	-0.291509	-0.526818	-0.000090
C158	C	0.208491	-0.026818	0.499910
N159	N	-0.347705	-0.488716	-0.000106
N160	N	0.152295	0.011284	0.499894
H161	H	0.437328	-0.830502	-0.000061
H162	H	0.937328	-0.330502	0.499939
H163	H	0.212939	-0.784700	-0.000063
H164	H	0.712939	-0.284700	0.499937
H165	H	-0.305945	-0.166440	-0.000096
H166	H	0.194055	0.333560	0.499904
C167	C	-0.026596	-0.173848	-0.000126
C168	C	0.473404	0.326152	0.499874
N169	N	0.035073	-0.143850	-0.000131
N170	N	0.535073	0.356150	0.499869
H171	H	-0.026038	-0.706838	-0.000090
H172	H	0.473962	-0.206838	0.499910
C173	C	-0.040472	-0.346459	-0.000119
C174	C	0.459528	0.153541	0.499881
N175	N	0.015727	-0.384558	-0.000122
N176	N	0.515727	0.115442	0.499878
