data_functionalizedCrystal
_audit_creation_method	'MofGen! by Chris Wilmer'
_symmetry_space_group_name_H-M	'P1'
_symmetry_Int_Tables_number	1
_symmetry_cell_setting	triclinic
loop_
_symmetry_equiv_pos_as_xyz
  x,y,z
_cell_length_a	13.635800
_cell_length_b	13.167930
_cell_length_c	11.102300
_cell_angle_alpha	82.075380
_cell_angle_beta	108.605850
_cell_angle_gamma	74.245432
loop_
_atom_site_label
_atom_site_type_symbol
_atom_site_fract_x
_atom_site_fract_y
_atom_site_fract_z
V1	V	2.053688	-0.148894	0.413815
O2	O	2.035381	0.007155	0.387869
O3	O	2.040036	-0.295232	0.428363
O4	O	2.042111	-0.146603	0.586366
O5	O	2.033292	-0.142502	0.228772
V6	V	2.292500	-0.130229	0.389572
O7	O	2.190788	-0.189838	0.466996
O8	O	2.380499	-0.089285	0.336391
O9	O	2.194549	0.016109	0.375024
O10	O	2.369506	-0.286278	0.415518
O11	O	2.371595	-0.136621	0.574615
O12	O	2.192474	-0.132519	0.217021
V13	V	2.553688	-0.148894	0.413815
O14	O	2.535381	0.007155	0.387869
O15	O	2.540036	-0.295232	0.428363
O16	O	2.542111	-0.146603	0.586366
O17	O	2.533292	-0.142502	0.228772
V18	V	2.792500	-0.130229	0.389572
O19	O	2.690788	-0.189838	0.466996
O20	O	2.880499	-0.089285	0.336391
O21	O	2.694549	0.016109	0.375024
O22	O	2.869506	-0.286278	0.415518
O23	O	2.871595	-0.136621	0.574615
O24	O	2.692474	-0.132519	0.217021
C25	C	1.964694	-0.330906	0.426319
C26	C	1.994258	-0.450539	0.439363
C27	C	1.990085	-0.644607	0.227454
C28	C	2.017863	-0.757012	0.239705
C29	C	2.077598	-0.787757	0.476113
C30	C	2.049821	-0.675352	0.463863
C31	C	2.006063	-0.603780	0.339529
C32	C	1.978278	-0.491372	0.327280
C33	C	2.038021	-0.522120	0.563688
C34	C	2.065798	-0.634525	0.575938
C35	C	1.967340	-0.141314	0.627866
C36	C	1.998585	-0.140410	0.769042
C37	C	2.101563	0.051778	0.377066
C38	C	2.061618	0.171410	0.364030
C39	C	2.098916	-0.137812	0.175515
C40	C	2.057289	-0.138711	0.034337
C41	C	2.464694	-0.330906	0.426319
C42	C	2.494258	-0.450539	0.439363
C43	C	2.467340	-0.141314	0.627866
C44	C	2.498585	-0.140410	0.769042
C45	C	2.105195	-0.145360	0.842474
C46	C	2.134547	-0.144506	0.975122
C47	C	1.950669	-0.133757	0.960894
C48	C	1.921317	-0.134603	0.828246
C49	C	2.601563	0.051778	0.377066
C50	C	2.561618	0.171410	0.364030
C51	C	2.598916	-0.137812	0.175515
C52	C	2.557289	-0.138711	0.034337
C53	C	2.600083	-0.512207	0.452486
C54	C	2.627882	-0.624619	0.464762
C55	C	2.549852	-0.675358	0.463907
C56	C	2.444019	-0.613682	0.450786
C57	C	2.416224	-0.501274	0.438519
C58	C	2.628287	0.233077	0.350910
C59	C	2.590761	0.345488	0.338640
C60	C	2.486568	0.396227	0.339499
C61	C	2.419894	0.334552	0.352616
C62	C	2.457417	0.222145	0.364876
C63	C	2.605195	-0.145360	0.842474
C64	C	2.634547	-0.144506	0.975122
C65	C	2.450669	-0.133757	0.960894
C66	C	2.421317	-0.134603	0.828246
H67	H	1.954442	-0.586331	0.126216
H68	H	2.721356	-0.148536	1.034905
O69	O	2.318649	0.383993	0.353268
C70	C	2.139476	0.519143	0.235201
C71	C	2.254094	0.463256	0.234289
H72	H	2.087243	0.583222	0.139006
H73	H	2.148004	0.559773	0.320494
H74	H	2.098301	0.455740	0.246753
H75	H	2.295332	0.526590	0.222696
H76	H	2.245492	0.422603	0.149012
H77	H	2.168113	-0.150086	0.794274
O78	O	2.375674	-0.127984	1.018515
C79	C	2.274771	-0.027100	1.131666
C80	C	2.359737	-0.033513	1.066480
H81	H	2.261842	0.049286	1.170439
H82	H	2.305947	-0.102046	1.216335
H83	H	2.193556	-0.023759	1.056387
H84	H	2.440978	-0.036819	1.141661
H85	H	2.328469	0.041432	0.981787
H86	H	1.834497	-0.130564	0.768452
H87	H	2.221356	-0.148536	1.034905
O88	O	1.875674	-0.127984	1.018515
C89	C	1.774771	-0.027100	1.131666
C90	C	1.859737	-0.033513	1.066480
H91	H	1.761842	0.049286	1.170439
H92	H	1.805947	-0.102046	1.216335
H93	H	1.693556	-0.023759	1.056387
H94	H	1.940978	-0.036819	1.141661
H95	H	1.828469	0.041432	0.981787
H96	H	2.668113	-0.150086	0.794274
O97	O	2.313490	-0.441354	0.425978
C98	C	2.203756	-0.322640	0.516269
C99	C	2.320165	-0.390469	0.530650
H100	H	2.209115	-0.281463	0.600867
H101	H	2.152735	-0.378180	0.517834
H102	H	2.163237	-0.257998	0.419390
H103	H	2.360780	-0.455117	0.627521
H104	H	2.371107	-0.334859	0.529007
H105	H	1.942642	-0.433099	0.226041
O106	O	2.676037	-0.463112	0.453399
C107	C	2.861327	-0.485848	0.468489
C108	C	2.775414	-0.541579	0.467500
H109	H	2.941685	-0.549260	0.479861
H110	H	2.875930	-0.445324	0.553870
H111	H	2.829932	-0.421674	0.372363
H112	H	2.806739	-0.605799	0.563565
H113	H	2.760820	-0.582030	0.382055
H114	H	2.714060	-0.674820	0.475441
O115	O	2.577032	-0.784582	0.475999
C116	C	2.695724	-0.963493	0.609794
C117	C	2.665066	-0.839825	0.596258
H118	H	2.766887	-1.008194	0.707029
H119	H	2.721165	-0.984697	0.525544
H120	H	2.621751	-0.989142	0.606860
H121	H	2.738993	-0.814088	0.599225
H122	H	2.639583	-0.818689	0.680503
O123	O	2.392532	0.162398	0.377682
C124	C	2.219069	0.163453	0.390193
C125	C	2.292456	0.231233	0.375713
H126	H	2.138133	0.219081	0.388578
H127	H	2.262698	0.098785	0.487056
H128	H	2.202021	0.122316	0.305563
H129	H	2.309527	0.272441	0.460270
H130	H	2.248790	0.295839	0.278800
O131	O	2.317725	-0.129648	0.756782
C132	C	2.150624	-0.030831	0.570367
C133	C	2.267895	-0.036273	0.651209
H134	H	2.110310	0.044644	0.484978
H135	H	2.100349	-0.026490	0.635362
H136	H	2.154427	-0.106676	0.530864
H137	H	2.264194	0.039553	0.690725
H138	H	2.318123	-0.040669	0.586159
O139	O	2.368242	-0.662955	0.450165
C140	C	2.247923	-0.702573	0.554221
C141	C	2.333749	-0.646745	0.555110
H142	H	2.219993	-0.689467	0.639043
H143	H	2.285939	-0.793524	0.565315
H144	H	2.174237	-0.665989	0.457574
H145	H	2.407460	-0.683239	0.651736
H146	H	2.295649	-0.555795	0.543945
O147	O	2.002224	-0.796487	0.130697
C148	C	1.940105	-0.754130	-0.105076
C149	C	1.957735	-0.709278	0.018269
H150	H	1.904155	-0.683645	-0.196003
H151	H	1.880989	-0.801736	-0.110718
H152	H	2.022205	-0.810233	-0.099806
H153	H	1.875690	-0.653131	0.013084
H154	H	2.016900	-0.661735	0.023867
O155	O	2.120292	-0.857262	0.596920
C156	C	2.267206	-0.923109	0.809384
C157	C	2.218985	-0.844356	0.672611
H158	H	2.346995	-0.912686	0.870628
H159	H	2.284407	-1.010484	0.798956
H160	H	2.205861	-0.904404	0.859855
H161	H	2.280280	-0.862962	0.622064
H162	H	2.201759	-0.757006	0.683129
H163	H	2.101433	-0.692813	0.677167
H164	H	2.713129	0.191780	0.350210
O165	O	2.053526	-0.482283	0.672435
C166	C	2.037154	-0.322741	0.758336
C167	C	2.019563	-0.367711	0.635079
H168	H	2.009682	-0.230104	0.728176
H169	H	2.127927	-0.356553	0.824409
H170	H	1.986801	-0.348281	0.813678
H171	H	2.069849	-0.342187	0.579632
H172	H	1.928767	-0.333904	0.569101
H173	H	2.645066	0.395689	0.327963
H174	H	2.456027	0.487758	0.329514
