data_functionalizedCrystal
_audit_creation_method	'MofGen! by Chris Wilmer'
_symmetry_space_group_name_H-M	'P1'
_symmetry_Int_Tables_number	1
_symmetry_cell_setting	triclinic
loop_
_symmetry_equiv_pos_as_xyz
  x,y,z
_cell_length_a	23.532407
_cell_length_b	23.532407
_cell_length_c	22.610064
_cell_angle_alpha	89.999397
_cell_angle_beta	89.997161
_cell_angle_gamma	82.848678
loop_
_atom_site_label
_atom_site_type_symbol
_atom_site_fract_x
_atom_site_fract_y
_atom_site_fract_z
O1	O	0.755263	0.069127	-0.049117
O2	O	1.255263	0.569127	0.450883
O3	O	0.589400	0.079130	-0.049135
O4	O	1.089400	0.579130	0.450865
O5	O	0.677333	-0.008803	-0.049114
O6	O	1.177333	0.491197	0.450886
O7	O	0.667330	0.157060	-0.049137
O8	O	1.167330	0.657060	0.450863
O9	O	0.677318	-0.008790	0.049255
O10	O	1.177318	0.491210	0.549255
O11	O	0.589385	0.079143	0.049234
O12	O	1.089385	0.579143	0.549234
O13	O	0.755248	0.069140	0.049252
O14	O	1.255248	0.569140	0.549252
Zn15	Zn	0.672314	0.074144	0.064862
Zn16	Zn	1.172314	0.574144	0.564862
Zn17	Zn	0.672334	0.074127	-0.064744
Zn18	Zn	1.172334	0.574127	0.435256
O19	O	0.667315	0.157073	0.049232
O20	O	1.167315	0.657073	0.549232
C21	C	0.568176	0.078882	0.000048
C22	C	1.068176	0.578882	0.500048
C23	C	0.504959	0.078116	0.000041
C24	C	1.004959	0.578116	0.500041
C25	C	0.677071	-0.030013	0.000072
C26	C	1.177071	0.469987	0.500072
C27	C	0.676305	-0.093230	0.000076
C28	C	1.176305	0.406770	0.500076
C29	C	0.105856	0.125350	0.000061
C30	C	0.605856	0.625350	0.500061
C31	C	0.046456	0.124638	0.000065
C32	C	0.546456	0.624638	0.500065
O33	O	0.009711	0.168424	0.000081
O34	O	0.509711	0.668424	0.500081
N35	N	0.023830	0.072362	0.000071
N36	N	0.523830	0.572362	0.500071
C37	C	0.060607	0.020794	0.000080
C38	C	0.560607	0.520794	0.500080
O39	O	0.035908	-0.023737	0.000086
O40	O	0.535908	0.476263	0.500086
C41	C	0.120006	0.021506	0.000080
C42	C	0.620006	0.521506	0.500080
C43	C	0.142629	0.073785	0.000068
C44	C	0.642629	0.573785	0.500068
C45	C	0.128479	0.177625	0.000050
C46	C	0.628479	0.677625	0.500050
C47	C	0.187876	0.178336	0.000045
C48	C	0.687876	0.678336	0.500045
C49	C	0.224649	0.126772	0.000052
C50	C	0.724649	0.626772	0.500052
C51	C	0.202025	0.074497	0.000063
C52	C	0.702025	0.574497	0.500063
C53	C	0.156783	-0.030062	0.000093
C54	C	0.656783	0.469938	0.500093
C55	C	0.216185	-0.029345	0.000094
C56	C	0.716185	0.470655	0.500094
C57	C	0.238808	0.022934	0.000082
C58	C	0.738808	0.522934	0.500082
C59	C	0.298194	0.023643	0.000065
C60	C	0.798194	0.523643	0.500065
N61	N	0.320820	0.075920	0.000059
N62	N	0.820820	0.575920	0.500059
C63	C	0.284048	0.127484	0.000052
C64	C	0.784048	0.627484	0.500052
C65	C	-0.064135	0.019302	0.000080
C66	C	0.435865	0.519302	0.500080
C67	C	-0.123533	0.018589	0.000075
C68	C	0.376467	0.518589	0.500075
C69	C	-0.137680	0.122434	0.000061
C70	C	0.362320	0.622434	0.500061
C71	C	-0.078281	0.123146	0.000062
C72	C	0.421719	0.623146	0.500062
C73	C	-0.041509	0.071578	0.000074
C74	C	0.458491	0.571578	0.500074
C75	C	0.408784	0.128974	0.000042
C76	C	0.908784	0.628974	0.500042
C77	C	0.468186	0.129680	0.000034
C78	C	0.968186	0.629680	0.500034
C79	C	0.482329	0.025836	0.000051
C80	C	0.982329	0.525836	0.500051
C81	C	0.422932	0.025129	0.000055
C82	C	0.922932	0.525129	0.500055
C83	C	0.386160	0.076702	0.000052
C84	C	0.886160	0.576702	0.500052
O85	O	0.334974	-0.020119	0.000052
O86	O	0.834974	0.479881	0.500052
O87	O	0.308755	0.172007	0.000054
O88	O	0.808755	0.672007	0.500054
C89	C	0.723539	-0.492333	0.000049
C90	C	1.223539	0.007667	0.500049
C91	C	0.722827	-0.551733	0.000044
C92	C	1.222827	-0.051733	0.500044
O93	O	0.766613	-0.588478	0.000027
O94	O	1.266613	-0.088478	0.500027
N95	N	0.670551	-0.574359	0.000039
N96	N	1.170551	-0.074359	0.500039
C97	C	0.618983	-0.537582	0.000032
C98	C	1.118983	-0.037582	0.500032
O99	O	0.574452	-0.562281	0.000027
O100	O	1.074452	-0.062281	0.500027
C101	C	0.619695	-0.478182	0.000033
C102	C	1.119695	0.021818	0.500033
C103	C	0.671974	-0.455560	0.000044
C104	C	1.171974	0.044440	0.500044
C105	C	0.775814	-0.469710	0.000060
C106	C	1.275814	0.030290	0.500060
C107	C	0.776525	-0.410313	0.000065
C108	C	1.276525	0.089687	0.500065
C109	C	0.724961	-0.373540	0.000060
C110	C	1.224961	0.126460	0.500060
C111	C	0.672685	-0.396164	0.000050
C112	C	1.172685	0.103836	0.500050
C113	C	0.568127	-0.441406	0.000022
C114	C	1.068127	0.058594	0.500022
C115	C	0.568844	-0.382004	0.000021
C116	C	1.068844	0.117996	0.500021
C117	C	0.621123	-0.359381	0.000033
C118	C	1.121123	0.140619	0.500033
C119	C	0.621832	-0.299995	0.000050
C120	C	1.121832	0.200005	0.500050
N121	N	0.674109	-0.277368	0.000056
N122	N	1.174109	0.222632	0.500056
C123	C	0.725673	-0.314141	0.000061
C124	C	1.225673	0.185859	0.500061
C125	C	0.617491	-0.662324	0.000031
C126	C	1.117491	-0.162324	0.500031
C127	C	0.616778	-0.721722	0.000034
C128	C	1.116778	-0.221722	0.500034
C129	C	0.720623	-0.735869	0.000045
C130	C	1.220623	-0.235869	0.500045
C131	C	0.721335	-0.676470	0.000046
C132	C	1.221335	-0.176470	0.500046
C133	C	0.669767	-0.639698	0.000036
C134	C	1.169767	-0.139698	0.500036
C135	C	0.727163	-0.189405	0.000073
C136	C	1.227163	0.310595	0.500073
C137	C	0.727869	-0.130003	0.000081
C138	C	1.227869	0.369997	0.500081
C139	C	0.624025	-0.115860	0.000067
C140	C	1.124025	0.384140	0.500067
C141	C	0.623318	-0.175257	0.000062
C142	C	1.123318	0.324743	0.500062
C143	C	0.674891	-0.212029	0.000063
C144	C	1.174891	0.287971	0.500063
O145	O	0.578070	-0.263215	0.000065
O146	O	1.078070	0.236785	0.500065
O147	O	0.770196	-0.289433	0.000058
O148	O	1.270196	0.210567	0.500058
C149	C	0.776472	0.069388	0.000069
C150	C	1.276472	0.569388	0.500069
C151	C	0.839689	0.070154	0.000071
C152	C	1.339689	0.570154	0.500071
C153	C	0.667577	0.178283	0.000045
C154	C	1.167577	0.678283	0.500045
C155	C	0.668343	0.241500	0.000036
C156	C	1.168343	0.741500	0.500036
N157	N	0.672304	0.074155	0.153314
N158	N	1.172304	0.574155	0.653314
N159	N	0.672349	0.074111	-0.153196
N160	N	1.172349	0.574111	0.346804
C161	C	0.711273	0.035196	0.561965
C162	C	1.211273	0.535196	1.061965
C163	C	0.711276	0.035192	0.623884
C164	C	1.211276	0.535192	1.123884
O165	O	0.744384	0.002076	0.655911
O166	O	1.244384	0.502076	1.155911
N167	N	0.672334	0.074115	0.654851
N168	N	1.172334	0.574115	1.154851
C169	C	0.633383	0.113041	0.623895
C170	C	1.133383	0.613041	1.123895
O171	O	0.600259	0.146147	0.655920
O172	O	1.100259	0.646147	1.155920
C173	C	0.633377	0.113042	0.561976
C174	C	1.133377	0.613042	1.061976
C175	C	0.672326	0.074120	0.531013
C176	C	1.172326	0.574120	1.031013
C177	C	0.750218	-0.003724	0.531001
C178	C	1.250218	0.496276	1.031001
C179	C	0.750215	-0.003719	0.469085
C180	C	1.250215	0.496281	0.969085
C181	C	0.711268	0.035206	0.438133
C182	C	1.211268	0.535206	0.938133
C183	C	0.672323	0.074125	0.469097
C184	C	1.172323	0.574125	0.969097
C185	C	0.594424	0.151965	0.531021
C186	C	1.094424	0.651965	1.031021
C187	C	0.594422	0.151962	0.469098
C188	C	1.094422	0.651962	0.969098
C189	C	0.633370	0.113040	0.438134
C190	C	1.133370	0.613040	0.938134
C191	C	0.633374	0.113054	0.376229
C192	C	1.133374	0.613054	0.876229
N193	N	0.672316	0.074131	0.345262
N194	N	1.172316	0.574131	0.845262
C195	C	0.711263	0.035207	0.376214
C196	C	1.211263	0.535207	0.876214
C197	C	0.633396	0.113035	0.753928
C198	C	1.133396	0.613035	1.253928
C199	C	0.633403	0.113037	0.815846
C200	C	1.133403	0.613037	1.315846
C201	C	0.711296	0.035187	0.815831
C202	C	1.211296	0.535187	1.315831
C203	C	0.711291	0.035188	0.753913
C204	C	1.211291	0.535188	1.253913
C205	C	0.672338	0.074112	0.722962
C206	C	1.172338	0.574112	1.222962
C207	C	0.711255	0.035220	0.246187
C208	C	1.211255	0.535220	0.746187
C209	C	0.711251	0.035230	0.184266
C210	C	1.211251	0.535230	0.684266
C211	C	0.633357	0.113078	0.184286
C212	C	1.133357	0.613078	0.684286
C213	C	0.633363	0.113071	0.246202
C214	C	1.133363	0.613071	0.746202
C215	C	0.672314	0.074137	0.277151
C216	C	1.172314	0.574137	0.777151
O217	O	0.600281	0.146152	0.344163
O218	O	1.100281	0.646152	0.844163
O219	O	0.744376	0.002101	0.344182
O220	O	1.244376	0.502101	0.844182
H221	H	0.378851	0.170970	0.000041
H222	H	0.878851	0.670970	0.500041
H223	H	0.781933	-0.035423	0.556197
H224	H	1.281933	0.464577	1.056197
O225	O	0.595545	0.150831	0.154122
O226	O	1.095545	0.650831	0.654122
C227	C	0.603907	0.142491	0.092832
C228	C	1.103907	0.642491	0.592832
H229	H	0.625457	0.097105	0.084379
H230	H	1.125457	0.597105	0.584379
H231	H	0.560743	0.149037	0.069301
H232	H	1.060743	0.649037	0.569301
H233	H	0.632280	0.174586	0.075256
H234	H	1.132280	0.674586	0.575256
O235	O	0.092844	0.227771	0.000015
O236	O	0.592844	0.727771	0.500015
C237	C	0.125562	0.274056	0.000021
C238	C	0.625562	0.774056	0.500021
H239	H	0.169979	0.259328	-0.018596
H240	H	0.669979	0.759328	0.481404
H241	H	0.103463	0.310161	-0.028548
H242	H	0.603463	0.810161	0.471452
H243	H	0.129701	0.290106	0.047210
H244	H	0.629701	0.790106	0.547210
O245	O	0.517326	-0.463343	-0.000098
O246	O	1.017326	0.036657	0.499902
C247	C	0.485927	-0.444502	-0.051044
C248	C	0.985927	0.055498	0.448956
H249	H	0.516517	-0.432319	-0.086643
H250	H	1.016517	0.067681	0.413357
H251	H	0.461902	-0.480347	-0.068155
H252	H	0.961902	0.019653	0.431845
H253	H	0.453971	-0.405605	-0.039531
H254	H	0.953971	0.094395	0.460469
O255	O	0.209869	0.229110	-0.000075
O256	O	0.709869	0.729110	0.499925
C257	C	0.243812	0.232621	-0.051019
C258	C	0.743812	0.732621	0.448981
H259	H	0.229936	0.202927	-0.086617
H260	H	0.729936	0.702927	0.413383
H261	H	0.238212	0.278546	-0.068133
H262	H	0.738212	0.778546	0.431867
H263	H	0.290733	0.219230	-0.039502
H264	H	0.790733	0.719230	0.460498
O265	O	-0.056403	0.173980	0.000080
O266	O	0.443597	0.673980	0.500080
C267	C	-0.101604	0.219335	0.000057
C268	C	0.398396	0.719335	0.500057
H269	H	-0.141871	0.203604	0.018680
H270	H	0.358129	0.703604	0.518680
H271	H	-0.089398	0.255861	0.028611
H272	H	0.410602	0.755861	0.528611
H273	H	-0.110093	0.235217	-0.047139
H274	H	0.389907	0.735217	0.452861
H275	H	0.743005	0.003494	0.728706
H276	H	1.243005	0.503494	1.228706
H277	H	-0.167632	0.164421	0.000059
H278	H	0.332368	0.664421	0.500059
O279	O	0.595616	0.150933	0.723892
O280	O	1.095616	0.650933	1.223892
C281	C	0.604550	0.207261	0.739040
C282	C	1.104550	0.707261	1.239040
H283	H	0.650146	0.207302	0.756051
H284	H	1.150146	0.707302	1.256051
H285	H	0.597831	0.235885	0.698326
H286	H	1.097831	0.735885	1.198326
H287	H	0.572896	0.224145	0.774991
H288	H	1.072896	0.724145	1.274991
H289	H	0.562709	0.183658	0.556223
H290	H	1.062709	0.683658	1.056223
O291	O	0.825870	-0.505484	0.000144
O292	O	1.325870	-0.005484	0.500144
C293	C	0.828568	-0.540255	0.051099
C294	C	1.328568	-0.040255	0.551099
H295	H	0.783379	-0.543019	0.068076
H296	H	1.283379	-0.043019	0.568076
H297	H	0.850053	-0.585016	0.039646
H298	H	1.350053	-0.085016	0.539646
H299	H	0.854452	-0.520847	0.086778
H300	H	1.354452	-0.020847	0.586778
O301	O	0.556561	0.189831	0.439125
O302	O	1.056561	0.689831	0.939125
C303	C	0.522180	0.224170	0.479737
C304	C	1.022180	0.724170	0.979737
H305	H	0.545529	0.224690	0.523872
H306	H	1.045529	0.724690	1.023872
H307	H	0.513229	0.269699	0.461853
H308	H	1.013229	0.769699	0.961853
H309	H	0.479982	0.205889	0.486326
H310	H	0.979982	0.705889	0.986326
H311	H	-0.141947	-0.023982	0.000076
H312	H	0.358053	0.476018	0.500076
O313	O	0.490091	0.180504	-0.000056
O314	O	0.990091	0.680504	0.499944
C315	C	0.471278	0.211902	-0.051013
C316	C	0.971278	0.711902	0.448987
H317	H	0.430165	0.196613	-0.067992
H318	H	0.930165	0.696613	0.432008
H319	H	0.462767	0.259377	-0.039562
H320	H	0.962767	0.759377	0.460438
H321	H	0.505690	0.205104	-0.086690
H322	H	1.005690	0.705104	0.413310
O323	O	0.778642	-0.108001	0.000194
O324	O	1.278642	0.391999	0.500194
C325	C	0.782151	-0.074057	0.051135
C326	C	1.282151	0.425943	0.551135
H327	H	0.752467	-0.087943	0.086740
H328	H	1.252467	0.412057	0.586740
H329	H	0.828079	-0.079645	0.068240
H330	H	1.328079	0.420355	0.568240
H331	H	0.768745	-0.027138	0.039619
H332	H	1.268745	0.472862	0.539619
O333	O	0.595474	0.150900	0.276192
O334	O	1.095474	0.650900	0.776192
C335	C	0.561109	0.185266	0.235592
C336	C	1.061109	0.685266	0.735592
H337	H	0.560606	0.161926	0.191450
H338	H	1.060606	0.661926	0.691450
H339	H	0.515577	0.194176	0.253480
H340	H	1.015577	0.694176	0.753480
H341	H	0.579353	0.227485	0.229015
H342	H	1.079353	0.727485	0.729015
H343	H	0.769159	-0.219337	0.000071
H344	H	1.269159	0.280663	0.500071
H345	H	0.404512	-0.017441	0.000056
H346	H	0.904512	0.482559	0.500056
O347	O	0.749117	-0.002520	0.276309
O348	O	1.249117	0.497480	0.776309
C349	C	0.784092	0.027797	0.312111
C350	C	1.284092	0.527797	0.812111
H351	H	0.761155	0.072475	0.321402
H352	H	1.261155	0.572475	0.821402
H353	H	0.793247	0.003970	0.355646
H354	H	1.293247	0.503970	0.855646
H355	H	0.826153	0.031460	0.288238
H356	H	1.326153	0.531460	0.788238
H357	H	0.762610	-0.765821	0.000047
H358	H	1.262610	-0.265821	0.500047
O359	O	0.517974	-0.024304	0.000031
O360	O	1.017974	0.475696	0.500031
C361	C	0.485275	-0.070602	0.000057
C362	C	0.985275	0.429398	0.500057
H363	H	0.440858	-0.055898	-0.018568
H364	H	0.940858	0.444102	0.481432
H365	H	0.507391	-0.106713	-0.028496
H366	H	1.007391	0.393287	0.471504
H367	H	0.481134	-0.086634	0.047253
H368	H	0.981134	0.413366	0.547253
H369	H	0.819097	-0.391900	0.000072
H370	H	1.319097	0.108100	0.500072
O371	O	0.749072	-0.002607	0.845996
O372	O	1.249072	0.497393	1.345996
C373	C	0.740728	0.005751	0.907286
C374	C	1.240728	0.505751	1.407286
H375	H	0.695331	0.027270	0.915741
H376	H	1.195331	0.527270	1.415741
H377	H	0.747305	-0.037412	0.930820
H378	H	1.247305	0.462588	1.430820
H379	H	0.772800	0.034150	0.924856
H380	H	1.272800	0.534150	1.424856
O381	O	0.134912	-0.080897	0.000137
O382	O	0.634912	0.419103	0.500137
C383	C	0.180116	-0.126249	0.000133
C384	C	0.680116	0.373751	0.500133
H385	H	0.220380	-0.110505	0.018747
H386	H	0.720380	0.389495	0.518747
H387	H	0.167911	-0.162763	0.028706
H388	H	0.667911	0.337237	0.528706
H389	H	0.188612	-0.142151	-0.047055
H390	H	0.688612	0.357849	0.452945
H391	H	0.582043	-0.085909	0.000065
H392	H	1.082043	0.414091	0.500065
H393	H	-0.034198	-0.022693	0.000084
H394	H	0.465802	0.477307	0.500084
O395	O	0.772169	-0.654592	0.000024
O396	O	1.272169	-0.154592	0.500024
C397	C	0.817524	-0.699793	0.000045
C398	C	1.317524	-0.199793	0.500045
H399	H	0.801793	-0.740059	-0.018577
H400	H	1.301793	-0.240059	0.481423
H401	H	0.854049	-0.687586	-0.028512
H402	H	1.354049	-0.187586	0.471488
H403	H	0.833407	-0.708284	0.047240
H404	H	1.333407	-0.208284	0.547240
O405	O	0.251963	-0.079403	0.000024
O406	O	0.751963	0.420597	0.500024
C407	C	0.286736	-0.082115	-0.050932
C408	C	0.786736	0.417885	0.449068
H409	H	0.289494	-0.036932	-0.067926
H410	H	0.789494	0.463068	0.432074
H411	H	0.331499	-0.103590	-0.039473
H412	H	0.831499	0.396410	0.460527
H413	H	0.267334	-0.108017	-0.086600
H414	H	0.767334	0.391983	0.413400
O415	O	0.566030	-0.743761	-0.000050
O416	O	1.066030	-0.243761	0.499950
C417	C	0.562509	-0.777680	-0.051007
C418	C	1.062509	-0.277680	0.448993
H419	H	0.607484	-0.792726	-0.067987
H420	H	1.107484	-0.292726	0.432013
H421	H	0.540026	-0.816452	-0.039556
H422	H	1.040026	-0.316452	0.460444
H423	H	0.537170	-0.751290	-0.086683
H424	H	1.037170	-0.251290	0.413317
H425	H	0.781929	-0.035414	0.443878
H426	H	1.281929	0.464586	0.943878
H427	H	0.601694	0.144737	0.841052
H428	H	1.101694	0.644737	1.341052
O429	O	0.567432	-0.626547	0.000108
O430	O	1.067432	-0.126547	0.500108
C431	C	0.564719	-0.591776	0.051062
C432	C	1.064719	-0.091776	0.551062
H433	H	0.609902	-0.589014	0.068051
H434	H	1.109902	-0.089014	0.568051
H435	H	0.543240	-0.547014	0.039604
H436	H	1.043240	-0.047014	0.539604
H437	H	0.538821	-0.611181	0.086734
H438	H	1.038821	-0.111181	0.586734
H439	H	0.526850	-0.352066	0.000013
H440	H	1.026850	0.147934	0.500013
H441	H	0.580748	-0.193677	0.000069
H442	H	1.080748	0.306323	0.500069
O443	O	0.749108	-0.002637	0.154280
O444	O	1.249108	0.497363	0.654280
C445	C	0.783491	-0.036983	0.194882
C446	C	1.283491	0.463017	0.694882
H447	H	0.760145	-0.037509	0.239021
H448	H	1.260145	0.462491	0.739021
H449	H	0.792438	-0.082510	0.176991
H450	H	1.292438	0.417490	0.676991
H451	H	0.825690	-0.018706	0.201466
H452	H	1.325690	0.481294	0.701466
