data_functionalizedCrystal
_audit_creation_method	'MofGen! by Chris Wilmer'
_symmetry_space_group_name_H-M	'P1'
_symmetry_Int_Tables_number	1
_symmetry_cell_setting	triclinic
loop_
_symmetry_equiv_pos_as_xyz
  x,y,z
_cell_length_a	12.837943
_cell_length_b	12.837942
_cell_length_c	14.586319
_cell_angle_alpha	89.996741
_cell_angle_beta	89.997600
_cell_angle_gamma	94.828940
loop_
_atom_site_label
_atom_site_type_symbol
_atom_site_fract_x
_atom_site_fract_y
_atom_site_fract_z
O1	O	1.402334	0.272139	-0.076223
O2	O	1.099201	0.258696	-0.076229
O3	O	1.244046	0.113851	-0.076220
O4	O	1.257489	0.416984	-0.076231
O5	O	1.244035	0.113847	0.076260
O6	O	1.099189	0.258692	0.076252
O7	O	1.402323	0.272135	0.076258
Cu8	Cu	1.250755	0.265414	0.090178
Cu9	Cu	1.250769	0.265418	-0.090149
O10	O	1.257478	0.416981	0.076249
C11	C	1.060126	0.254153	0.000011
C12	C	0.943711	0.240608	0.000009
C13	C	0.718837	0.403437	0.000016
C14	C	0.609454	0.390716	0.000015
C15	C	0.615562	0.202445	0.000012
C16	C	0.724944	0.215166	0.000013
C17	C	0.776578	0.315666	0.000014
C18	C	0.885962	0.328386	0.000009
C19	C	0.892067	0.140116	0.000012
C20	C	0.782685	0.127395	0.000011
C21	C	1.239499	0.074780	0.000019
C22	C	1.225954	-0.041635	0.000018
C23	C	1.388784	-0.266510	0.000001
C24	C	1.376062	-0.375892	-0.000000
C25	C	1.187791	-0.369785	0.000006
C26	C	1.200513	-0.260402	0.000008
C27	C	1.301012	-0.208769	0.000007
C28	C	1.313732	-0.099384	0.000015
C29	C	1.125462	-0.093279	0.000015
C30	C	1.112741	-0.202661	0.000013
C31	C	1.441398	0.276679	0.000016
C32	C	1.557813	0.290223	0.000012
C33	C	1.262025	0.456052	0.000008
C34	C	1.275569	0.572467	0.000003
N35	N	1.250753	0.265411	0.217009
N36	N	1.250778	0.265413	-0.216980
C37	C	1.314917	0.201299	0.452019
C38	C	1.314919	0.201297	0.548001
C39	C	1.186607	0.329527	0.548003
C40	C	1.186600	0.329523	0.452023
C41	C	1.250760	0.265411	0.404034
C42	C	1.250771	0.265413	0.595995
C43	C	1.250773	0.265411	0.700062
C44	C	1.250757	0.265411	0.299960
H45	H	0.928000	0.410218	0.000011
H46	H	0.760878	0.485268	0.000016
C47	C	1.117115	0.399207	0.399802
C48	C	1.179205	0.468806	0.344671
C49	C	1.115233	0.532999	0.296544
H50	H	1.078892	0.437494	0.442023
H51	H	1.069834	0.357248	0.362315
H52	H	1.226468	0.510760	0.382155
H53	H	1.217428	0.430547	0.302433
H54	H	1.067952	0.491041	0.259056
H55	H	1.077013	0.571280	0.338771
H56	H	1.157351	0.580223	0.259126
H57	H	1.134371	0.381727	0.587085
H58	H	1.367158	0.149094	0.412949
H59	H	1.470614	-0.224469	0.000010
H60	H	1.447536	-0.422901	-0.000008
C61	C	1.078662	-0.425805	-0.000193
C62	C	1.024981	-0.397367	-0.078653
C63	C	0.924455	-0.448965	-0.078877
H64	H	1.041928	-0.406683	0.052918
H65	H	1.083623	-0.499226	-0.000250
H66	H	1.020016	-0.323963	-0.078587
H67	H	1.061683	-0.416490	-0.131776
H68	H	0.929415	-0.522386	-0.078934
H69	H	0.887730	-0.429840	-0.025762
H70	H	0.888022	-0.429685	-0.132114
H71	H	0.573502	0.120623	0.000087
C72	C	0.546948	0.486142	-0.000033
C73	C	0.615584	0.576873	-0.000055
C74	C	0.558041	0.664802	-0.000112
H75	H	0.504137	0.485237	0.053124
H76	H	0.504177	0.485156	-0.053230
H77	H	0.658337	0.577859	0.053135
H78	H	0.658396	0.577813	-0.053209
H79	H	0.515270	0.663816	-0.053308
H80	H	0.515233	0.663887	0.053047
H81	H	0.604602	0.726373	-0.000135
H82	H	0.939092	0.068646	0.000004
H83	H	1.030917	-0.244717	0.000010
C84	C	0.726428	0.018372	-0.000038
C85	C	0.618276	0.026014	-0.000059
C86	C	0.566422	-0.074397	-0.000120
H87	H	0.745483	-0.018321	0.053118
H88	H	0.745551	-0.018228	-0.053236
H89	H	0.599161	0.062599	0.053133
H90	H	0.599191	0.062689	-0.053211
H91	H	0.585545	-0.110997	-0.053317
H92	H	0.585486	-0.111082	0.053037
H93	H	0.493037	-0.069225	-0.000143
H94	H	1.053992	-0.046254	0.000026
C95	C	1.384511	0.131520	0.599982
C96	C	1.357395	0.026965	0.576622
C97	C	1.421491	-0.037346	0.624479
H98	H	1.375388	0.140559	0.664031
H99	H	1.455513	0.149770	0.584225
H100	H	1.286410	0.008721	0.592385
H101	H	1.366523	0.017893	0.512581
H102	H	1.492493	-0.019096	0.608723
H103	H	1.412363	-0.028298	0.688526
H104	H	1.403108	-0.108292	0.608630
H105	H	1.395564	-0.057346	0.000018
