data_functionalizedCrystal
_audit_creation_method	'MofGen! by Chris Wilmer'
_symmetry_space_group_name_H-M	'P1'
_symmetry_Int_Tables_number	1
_symmetry_cell_setting	triclinic
loop_
_symmetry_equiv_pos_as_xyz
  x,y,z
_cell_length_a	33.428889
_cell_length_b	33.428139
_cell_length_c	33.424847
_cell_angle_alpha	60.004234
_cell_angle_beta	60.008465
_cell_angle_gamma	59.994972
loop_
_atom_site_label
_atom_site_type_symbol
_atom_site_fract_x
_atom_site_fract_y
_atom_site_fract_z
O1	O	0.055565	-0.584504	0.488714
O2	O	0.555565	-0.084504	0.988714
O3	O	0.020982	-0.455083	0.393778
O4	O	0.520982	0.044917	0.893778
O5	O	0.102943	-0.536959	0.393689
O6	O	0.602943	-0.036959	0.893689
O7	O	-0.026396	-0.502628	0.488803
O8	O	0.473604	-0.002628	0.988803
O9	O	0.130140	-0.509767	0.420792
O10	O	0.630140	-0.009767	0.920792
O11	O	0.048179	-0.427891	0.420881
O12	O	0.548179	0.072109	0.920881
O13	O	0.082762	-0.557312	0.515817
O14	O	0.582762	-0.057312	1.015817
Cu15	Cu	0.067954	-0.490119	0.470823
Cu16	Cu	0.567954	0.009881	0.970823
Cu17	Cu	0.035790	-0.522276	0.438771
Cu18	Cu	0.535790	-0.022276	0.938771
O19	O	0.000801	-0.475436	0.515906
O20	O	0.500801	0.024564	1.015906
N21	N	0.090577	-0.467504	0.493370
N22	N	0.590577	0.032496	0.993370
N23	N	0.013171	-0.544895	0.416225
N24	N	0.513171	-0.044895	0.916225
C25	C	0.143377	-0.280390	0.546067
C26	C	0.643377	0.219610	1.046067
C27	C	0.143515	-0.414755	0.680369
C28	C	0.643515	0.085245	1.180369
C29	C	0.143392	-0.414735	0.546069
C30	C	0.643392	0.085265	1.046069
C31	C	0.277766	-0.414702	0.545966
C32	C	0.777766	0.085298	1.045966
C33	C	0.158177	-0.324719	0.560828
C34	C	0.658177	0.175281	1.060828
C35	C	0.158255	-0.399967	0.636038
C36	C	0.658255	0.100033	1.136038
C37	C	0.233434	-0.399936	0.560773
C38	C	0.733434	0.100064	1.060773
C39	C	0.158186	-0.399955	0.560829
C40	C	0.658186	0.100045	1.060829
C41	C	0.124540	-0.223964	0.527278
C42	C	0.624540	0.276036	1.027278
C43	C	0.124565	-0.433545	0.527281
C44	C	0.624565	0.066455	1.027281
C45	C	0.177014	-0.381145	0.579617
C46	C	0.677014	0.118855	1.079617
C47	C	0.359814	-0.400540	0.502735
C48	C	0.859814	0.099460	1.002735
C49	C	0.411105	-0.417624	0.485606
C50	C	0.911105	0.082376	0.985606
C51	C	0.411136	-0.500620	0.517255
C52	C	0.911136	-0.000620	1.017255
C53	C	0.359845	-0.483534	0.534385
C54	C	0.859845	0.016466	1.034385
C55	C	0.136887	-0.198305	0.476855
C56	C	0.636887	0.301695	0.976855
C57	C	0.119761	-0.147011	0.459777
C58	C	0.619761	0.352989	0.959777
C59	C	0.077945	-0.147038	0.543547
C60	C	0.577945	0.352962	1.043547
C61	C	0.095072	-0.198332	0.560625
C62	C	0.595072	0.301668	1.060625
C63	C	0.074134	-0.421169	0.539710
C64	C	0.574134	0.078831	1.039710
C65	C	0.057023	-0.438269	0.522625
C66	C	0.557023	0.061731	1.022625
C67	C	0.140770	-0.480120	0.480694
C68	C	0.640770	0.019880	0.980694
C69	C	0.157883	-0.463020	0.497773
C70	C	0.657883	0.036980	0.997773
C71	C	0.074339	-0.421208	0.762475
C72	C	0.574339	0.078792	1.262475
C73	C	0.057288	-0.438323	0.813768
C74	C	0.557288	0.061677	1.313768
C75	C	0.141075	-0.480183	0.813699
C76	C	0.641075	0.019817	1.313699
C77	C	0.158125	-0.463069	0.762404
C78	C	0.658125	0.036931	1.262404
C79	C	0.124756	-0.433580	0.736794
C80	C	0.624756	0.066420	1.236794
C81	C	0.334186	-0.433494	0.527123
C82	C	0.834186	0.066506	1.027123
C83	C	-0.173769	-0.597444	0.363037
C84	C	0.326231	-0.097444	0.863037
C85	C	-0.039302	-0.597595	0.228856
C86	C	0.460698	-0.097595	0.728856
C87	C	-0.039496	-0.597587	0.363300
C88	C	0.460504	-0.097587	0.863300
C89	C	-0.039512	-0.731889	0.363237
C90	C	0.460488	-0.231889	0.863237
C91	C	-0.129442	-0.612265	0.348329
C92	C	0.370558	-0.112265	0.848329
C93	C	-0.054138	-0.612351	0.273187
C94	C	0.445862	-0.112351	0.773187
C95	C	-0.054257	-0.687554	0.348440
C96	C	0.445743	-0.187554	0.848440
C97	C	-0.054247	-0.612346	0.348477
C98	C	0.445753	-0.112346	0.848477
C99	C	-0.230191	-0.578579	0.381758
C100	C	0.269809	-0.078579	0.881758
C101	C	-0.020722	-0.578803	0.382168
C102	C	0.479278	-0.078803	0.882168
C103	C	-0.073020	-0.631130	0.329609
C104	C	0.426980	-0.131130	0.829609
C105	C	-0.053713	-0.813916	0.406386
C106	C	0.446287	-0.313916	0.906386
C107	C	-0.036654	-0.865210	0.423504
C108	C	0.463346	-0.365210	0.923504
C109	C	0.046338	-0.865293	0.391984
C110	C	0.546338	-0.365293	0.891984
C111	C	0.029278	-0.813999	0.374865
C112	C	0.529278	-0.313999	0.874865
C113	C	-0.255900	-0.590938	0.432169
C114	C	0.244100	-0.090938	0.932169
C115	C	-0.307191	-0.573786	0.449185
C116	C	0.192809	-0.073786	0.949185
C117	C	-0.307060	-0.531922	0.365377
C118	C	0.192940	-0.031922	0.865377
C119	C	-0.255769	-0.549074	0.348360
C120	C	0.244231	-0.049074	0.848360
C121	C	-0.033081	-0.528377	0.369764
C122	C	0.466919	-0.028377	0.869764
C123	C	-0.016014	-0.511306	0.386922
C124	C	0.483986	-0.011306	0.886922
C125	C	0.025770	-0.595083	0.428877
C126	C	0.525770	-0.095083	0.928877
C127	C	0.008703	-0.612156	0.411725
C128	C	0.508703	-0.112156	0.911725
C129	C	-0.032755	-0.528393	0.146761
C130	C	0.467245	-0.028393	0.646761
C131	C	-0.015585	-0.511324	0.095468
C132	C	0.484415	-0.011324	0.595468
C133	C	0.026262	-0.595106	0.095516
C134	C	0.526262	-0.095106	0.595516
C135	C	0.009094	-0.612174	0.146811
C136	C	0.509094	-0.112174	0.646811
C137	C	-0.020417	-0.578816	0.172432
C138	C	0.479583	-0.078816	0.672432
C139	C	-0.020748	-0.788312	0.382068
C140	C	0.479252	-0.288312	0.882068
N141	N	0.436037	-0.467415	0.493101
N142	N	0.936037	0.032585	0.993101
O143	O	0.592642	-0.471896	0.376066
O144	O	1.092642	0.028104	0.876066
O145	O	0.592838	-0.567146	0.505347
O146	O	1.092838	-0.067146	1.005347
O147	O	0.592754	-0.566928	0.423360
O148	O	1.092754	-0.066928	0.923360
O149	O	0.592727	-0.472113	0.458053
O150	O	1.092727	0.027887	0.958053
O151	O	0.511269	-0.539835	0.450606
O152	O	1.011269	-0.039835	0.950606
O153	O	0.511353	-0.540052	0.532594
O154	O	1.011353	-0.040052	1.032594
O155	O	0.511157	-0.444802	0.403312
O156	O	1.011157	0.055198	0.903312
Cu157	Cu	0.503815	-0.489954	0.470441
Cu158	Cu	1.003815	0.010046	0.970441
Cu159	Cu	0.600180	-0.521995	0.438219
Cu160	Cu	1.100180	-0.021995	0.938219
O161	O	0.511242	-0.445020	0.485300
O162	O	1.011242	0.054980	0.985300
N163	N	0.667959	-0.544533	0.415554
N164	N	1.167959	-0.044533	0.915554
N165	N	0.090544	-0.122107	0.493359
N166	N	0.590544	0.377893	0.993359
O167	O	-0.026406	0.034587	0.488773
O168	O	0.473594	0.534587	0.988773
O169	O	0.102877	0.034627	0.393499
O170	O	0.602877	0.534627	0.893499
O171	O	0.020848	0.034591	0.393771
O172	O	0.520848	0.534591	0.893771
O173	O	0.055623	0.034623	0.488500
O174	O	0.555623	0.534623	0.988500
O175	O	0.048051	-0.046899	0.420925
O176	O	0.548051	0.453101	0.920925
O177	O	0.130080	-0.046864	0.420653
O178	O	0.630080	0.453136	0.920653
O179	O	0.000796	-0.046903	0.515927
O180	O	0.500796	0.453097	1.015927
Cu181	Cu	0.067922	-0.054324	0.470769
Cu182	Cu	0.567922	0.445676	0.970769
Cu183	Cu	0.035752	0.042048	0.438656
Cu184	Cu	0.535752	0.542048	0.938656
O185	O	0.082825	-0.046867	0.515655
O186	O	0.582825	0.453133	1.015655
N187	N	0.013123	0.109830	0.416068
N188	N	0.513123	0.609830	0.916068
N189	N	0.090892	-0.467554	0.838649
N190	N	0.590892	0.032446	1.338649
O191	O	0.086330	-0.584488	0.995334
O192	O	0.586330	-0.084488	1.495334
O193	O	-0.008902	-0.455160	0.995379
O194	O	0.491098	0.044840	1.495379
O195	O	-0.008679	-0.537172	0.995355
O196	O	0.491321	-0.037172	1.495355
O197	O	0.086107	-0.502475	0.995358
O198	O	0.586107	-0.002475	1.495358
O199	O	0.018452	-0.509990	0.913868
O200	O	0.518452	-0.009990	1.413868
O201	O	0.018230	-0.427978	0.913891
O202	O	0.518230	0.072022	1.413891
O203	O	0.113461	-0.557306	0.913847
O204	O	0.613461	-0.057306	1.413847
Cu205	Cu	0.068323	-0.490160	0.906429
Cu206	Cu	0.568323	0.009840	1.406429
Cu207	Cu	0.036237	-0.522306	1.002797
Cu208	Cu	0.536237	-0.022306	1.502797
O209	O	0.113239	-0.475293	0.913870
O210	O	0.613239	0.024707	1.413870
N211	N	0.013667	-0.544916	1.070577
N212	N	0.513667	-0.044916	1.570577
C213	C	0.031339	-0.425179	0.394250
C214	C	0.531339	0.074821	0.894250
C215	C	0.132837	-0.526572	0.394139
C216	C	0.632837	-0.026572	0.894139
C217	C	0.072405	-0.587216	0.515344
C218	C	0.572405	-0.087216	1.015344
C219	C	-0.029093	-0.485823	0.515455
C220	C	0.470907	0.014177	1.015455
C221	C	0.552119	-0.566716	0.535258
C222	C	1.052119	-0.066716	1.035258
C223	C	0.552016	-0.566447	0.433726
C224	C	1.052016	-0.066447	0.933726
C225	C	0.551873	-0.445232	0.373402
C226	C	1.051873	0.054768	0.873402
C227	C	0.551980	-0.445502	0.474933
C228	C	1.051980	0.054498	0.974933
C229	C	0.132731	-0.006013	0.393923
C230	C	0.632731	0.493987	0.893923
C231	C	0.031182	-0.006158	0.394293
C232	C	0.531182	0.493842	0.894293
C233	C	-0.029092	-0.006163	0.515469
C234	C	0.470908	0.493837	1.015469
C235	C	0.072491	-0.006119	0.515133
C236	C	0.572491	0.493881	1.015133
C237	C	-0.008451	-0.425276	0.954641
C238	C	0.491549	0.074724	1.454641
C239	C	-0.008170	-0.526833	0.954596
C240	C	0.491830	-0.026833	1.454596
C241	C	0.113010	-0.587190	0.954585
C242	C	0.613010	-0.087190	1.454585
C243	C	0.112735	-0.485627	0.954611
C244	C	0.612735	0.014373	1.454611
H245	H	0.016234	-0.428240	0.834672
H246	H	0.516234	0.071760	1.334672
H247	H	0.199181	-0.473148	0.741498
H248	H	0.699181	0.026852	1.241498
N249	N	0.552198	-0.606329	0.584438
N250	N	1.052198	-0.106329	1.084438
H251	H	0.552218	-0.636587	0.584506
H252	H	1.052218	-0.136587	1.084506
H253	H	0.522005	-0.594385	0.610952
H254	H	1.022005	-0.094385	1.110952
H255	H	0.169783	-0.005775	0.363939
H256	H	0.669783	0.494225	0.863939
N257	N	0.133072	-0.119326	0.405391
N258	N	0.633072	0.380674	0.905391
H259	H	0.120523	-0.128254	0.390069
H260	H	0.620523	0.371746	0.890069
H261	H	0.169863	-0.128247	0.390071
H262	H	0.669863	0.371753	0.890071
N263	N	-0.078301	-0.476137	0.555016
N264	N	0.421699	0.023863	1.055016
H265	H	-0.084654	-0.447739	0.563178
H266	H	0.415346	0.052261	1.063178
H267	H	-0.078369	-0.506309	0.585268
H268	H	0.421631	-0.006309	1.085268
H269	H	0.551811	-0.415327	0.336274
H270	H	1.051811	0.084673	0.836274
N271	N	0.038347	-0.389382	0.734853
N272	N	0.538347	0.110618	1.234853
H273	H	0.003821	-0.384136	0.758907
H274	H	0.503821	0.115864	1.258907
H275	H	0.043586	-0.406020	0.713566
H276	H	0.543586	0.093980	1.213566
N277	N	0.177066	-0.511978	0.841323
N278	N	0.677066	-0.011978	1.341323
H279	H	0.211592	-0.517217	0.817271
H280	H	0.711592	-0.017217	1.317271
H281	H	0.171821	-0.544658	0.862603
H282	H	0.671821	-0.044658	1.362603
N283	N	0.082186	-0.636461	0.554845
N284	N	0.582186	-0.136461	1.054845
H285	H	0.078305	-0.631965	0.584459
H286	H	0.578305	-0.131965	1.084459
H287	H	0.116665	-0.658264	0.542135
H288	H	0.616665	-0.158264	1.042135
N289	N	0.552037	-0.605906	0.423896
N290	N	1.052037	-0.105906	0.923896
H291	H	0.551994	-0.593193	0.389418
H292	H	1.051994	-0.093193	0.889418
H293	H	0.521857	-0.615424	0.447971
H294	H	1.021857	-0.115424	0.947971
N295	N	0.152614	-0.636389	0.954572
N296	N	0.652614	-0.136389	1.454572
H297	H	0.182863	-0.636460	0.954570
H298	H	0.682863	-0.136460	1.454570
H299	H	0.160774	-0.642732	0.924359
H300	H	0.660774	-0.142732	1.424359
N301	N	0.021557	-0.375937	0.354746
N302	N	0.521557	0.124063	0.854746
H303	H	0.045602	-0.360275	0.345227
H304	H	0.545602	0.139725	0.845227
H305	H	-0.012934	-0.354145	0.367442
H306	H	0.487066	0.145855	0.867442
N307	N	0.551971	-0.406046	0.484759
N308	N	1.051971	0.093954	0.984759
H309	H	0.552016	-0.418760	0.519237
H310	H	1.052016	0.081240	1.019237
H311	H	0.521737	-0.376440	0.480886
H312	H	1.021737	0.123560	0.980886
N313	N	0.152180	-0.475793	0.954608
N314	N	0.652180	0.024207	1.454608
H315	H	0.160284	-0.447374	0.924406
H316	H	0.660284	0.052626	1.424406
H317	H	0.182485	-0.505917	0.954615
H318	H	0.682485	-0.005917	1.454615
H319	H	0.047002	-0.397168	0.563734
H320	H	0.547002	0.102832	1.063734
N321	N	-0.078269	-0.006180	0.555091
N322	N	0.421731	0.493820	1.055091
H323	H	-0.100187	-0.006193	0.542550
H324	H	0.399813	0.493807	1.042550
H325	H	-0.093827	0.024030	0.564554
H326	H	0.406173	0.524030	1.064554
N327	N	0.021347	-0.006242	0.354892
N328	N	0.521347	0.493758	0.854892
H329	H	-0.013132	-0.006280	0.367629
H330	H	0.486868	0.493720	0.867629
H331	H	0.045419	-0.036474	0.345454
H332	H	0.545419	0.463526	0.845454
H333	H	0.015959	-0.428182	0.532734
H334	H	0.515959	0.071818	1.032734
H335	H	0.169984	-0.533889	0.364272
H336	H	0.669984	-0.033889	0.864272
H337	H	0.167905	-0.504126	0.456671
H338	H	0.667905	-0.004126	0.956671
H339	H	0.198948	-0.473094	0.487648
H340	H	0.698948	0.026906	0.987648
N341	N	0.082347	-0.006096	0.554554
N342	N	0.582347	0.493904	1.054554
H343	H	0.116833	-0.006080	0.541825
H344	H	0.616833	0.493920	1.041825
H345	H	0.078463	-0.036305	0.584182
H346	H	0.578463	0.463695	1.084182
N347	N	0.168667	-0.225953	0.440890
N348	N	0.668667	0.274047	0.940890
H349	H	0.201375	-0.247225	0.446088
H350	H	0.701375	0.252775	0.946088
H351	H	0.173848	-0.201884	0.406370
H352	H	0.673848	0.298116	0.906370
H353	H	-0.038348	-0.388133	0.954654
H354	H	0.461652	0.111867	1.454654
N355	N	-0.047603	-0.536642	0.954549
N356	N	0.452397	-0.036642	1.454549
H357	H	-0.055725	-0.565061	0.984740
H358	H	0.444275	-0.065061	1.484740
H359	H	-0.035544	-0.544877	0.924306
H360	H	0.464456	-0.044877	1.424306
N361	N	0.332204	-0.519078	0.560691
N362	N	0.832204	-0.019078	1.060691
H363	H	0.341163	-0.544061	0.590988
H364	H	0.841163	-0.044061	1.090988
H365	H	0.341125	-0.536290	0.538232
H366	H	0.841125	-0.036290	1.038232
N367	N	0.438814	-0.554591	0.525087
N368	N	0.938814	-0.054591	1.025087
H369	H	0.429872	-0.565896	0.508627
H370	H	0.929872	-0.065896	1.008627
H371	H	0.429906	-0.573587	0.561355
H372	H	0.929906	-0.073587	1.061355
N373	N	0.438752	-0.382083	0.459304
N374	N	0.938752	0.117917	0.959304
H375	H	0.414715	-0.347789	0.457302
H376	H	0.914715	0.152211	0.957302
H377	H	0.460009	-0.383499	0.425146
H378	H	0.960009	0.116501	0.925146
H379	H	0.053957	-0.126168	0.570702
H380	H	0.553957	0.373832	1.070702
N381	N	0.332136	-0.346566	0.494901
N382	N	0.832136	0.153434	0.994901
H383	H	0.356157	-0.328284	0.476853
H384	H	0.856157	0.171716	0.976853
H385	H	0.310876	-0.341535	0.527680
H386	H	0.810876	0.158465	1.027680
H387	H	-0.025639	-0.470264	0.074572
H388	H	0.474361	0.029736	0.574572
N389	N	0.081756	-0.226007	0.615010
N390	N	0.581756	0.273993	1.115010
H391	H	0.060489	-0.201984	0.633542
H392	H	0.560489	0.298016	1.133542
H393	H	0.112621	-0.247282	0.623902
H394	H	0.612621	0.252718	1.123902
H395	H	-0.056788	-0.501226	0.167618
H396	H	0.443212	-0.001226	0.667618
H397	H	0.050281	-0.622271	0.074658
H398	H	0.550281	-0.122271	0.574658
H399	H	0.019144	-0.653235	0.167709
H400	H	0.519144	-0.153235	0.667709
H401	H	-0.057039	-0.501216	0.345698
H402	H	0.442961	-0.001216	0.845698
H403	H	0.049734	-0.622248	0.452940
H404	H	0.549734	-0.122248	0.952940
N405	N	-0.029351	-0.456918	0.373557
N406	N	0.470649	0.043082	0.873557
H407	H	-0.050580	-0.438379	0.352229
H408	H	0.449420	0.061621	0.852229
H409	H	0.001508	-0.448033	0.355130
H410	H	0.501508	0.051967	0.855130
H411	H	0.056124	-0.793157	0.355062
H412	H	0.556124	-0.293157	0.855062
N413	N	0.022028	-0.666545	0.425104
N414	N	0.522028	-0.166545	0.925104
H415	H	0.043259	-0.685082	0.446431
H416	H	0.543259	-0.185082	0.946431
H417	H	0.040547	-0.675481	0.394264
H418	H	0.540547	-0.175481	0.894264
H419	H	-0.063498	-0.886058	0.443304
H420	H	0.436502	-0.386058	0.943304
N421	N	0.100293	-0.893000	0.384223
N422	N	0.600293	-0.393000	0.884223
H423	H	0.118589	-0.868996	0.366220
H424	H	0.618589	-0.368996	0.866220
H425	H	0.113079	-0.914290	0.364257
H426	H	0.613079	-0.414290	0.864257
H427	H	-0.235077	-0.614964	0.459366
H428	H	0.264923	-0.114964	0.959366
N429	N	-0.107671	-0.786208	0.414154
N430	N	0.392329	-0.286208	0.914154
H431	H	-0.125964	-0.810214	0.432156
H432	H	0.374036	-0.310214	0.932156
H433	H	-0.112659	-0.764928	0.381356
H434	H	0.387341	-0.264928	0.881356
H435	H	-0.328125	-0.583847	0.490235
H436	H	0.171875	-0.083847	0.990235
H437	H	-0.327887	-0.507903	0.338181
H438	H	0.172113	-0.007903	0.838181
H439	H	-0.234840	-0.539009	0.307312
H440	H	0.265160	-0.039009	0.807312
