data_functionalizedCrystal
_audit_creation_method	'MofGen! by Chris Wilmer'
_symmetry_space_group_name_H-M	'P1'
_symmetry_Int_Tables_number	1
_symmetry_cell_setting	triclinic
loop_
_symmetry_equiv_pos_as_xyz
  x,y,z
_cell_length_a	13.033748
_cell_length_b	13.032268
_cell_length_c	13.032721
_cell_angle_alpha	103.289627
_cell_angle_beta	103.361838
_cell_angle_gamma	103.297929
loop_
_atom_site_label
_atom_site_type_symbol
_atom_site_fract_x
_atom_site_fract_y
_atom_site_fract_z
Zn1	Zn	1.506748	-0.435246	-0.279639
Zn2	Zn	1.506630	-0.280212	-0.434741
Zn3	Zn	1.351689	-0.280199	-0.279717
Zn4	Zn	1.298873	-0.487944	-0.487472
O5	O	1.415985	-0.370900	-0.370393
O6	O	1.658572	-0.392632	-0.278113
O7	O	1.508131	-0.128385	-0.392141
O8	O	1.394412	-0.278707	-0.127850
O9	O	1.658485	-0.278729	-0.392066
O10	O	1.508333	-0.392620	-0.127793
O11	O	1.394297	-0.128376	-0.278246
O12	O	1.192844	-0.329805	-0.329377
O13	O	1.304394	-0.632778	-0.481939
O14	O	1.154040	-0.482435	-0.482014
O15	O	1.457119	-0.594062	-0.329245
O16	O	1.456917	-0.329827	-0.593593
O17	O	1.304279	-0.482447	-0.632334
C18	C	1.134071	-0.411838	-0.411427
C19	C	1.013460	-0.429381	-0.429011
C20	C	0.978858	-0.361775	-0.361246
C21	C	0.854200	-0.379905	-0.379419
C22	C	1.374878	-0.653887	-0.411465
C23	C	1.357361	-0.774479	-0.428968
C24	C	1.425116	-0.809087	-0.361221
C25	C	1.407013	-0.933725	-0.379309
C26	C	1.699000	-0.329803	-0.329199
C27	C	1.819603	-0.312290	-0.311645
C28	C	1.374880	-0.411876	-0.652338
C29	C	1.357389	-0.429428	-0.772946
C30	C	1.457006	-0.088994	-0.329392
C31	C	1.474778	0.031673	-0.311553
C32	C	1.425164	-0.361780	-0.807512
C33	C	1.407088	-0.379919	-0.932167
C34	C	1.457277	-0.329784	-0.087346
C35	C	1.474873	-0.312262	0.033272
H36	H	0.791539	-0.451209	-0.450897
H37	H	0.882264	-0.240981	-0.240172
H38	H	1.496576	-0.290439	-0.744823
Br39	Br	1.238326	-0.878881	-0.547956
H40	H	1.546289	-0.240916	-0.904040
H41	H	1.285985	-0.500776	-0.835637
H42	H	1.546189	-0.905687	-0.240151
H43	H	1.041522	-0.290471	-0.289780
Br44	Br	0.909025	-0.548218	-0.548146
Br45	Br	1.544116	-0.704686	-0.242197
Br46	Br	1.287973	-1.038123	-0.498303
H47	H	1.335680	-0.451272	-0.994855
