data_functionalizedCrystal
_audit_creation_method	'MofGen! by Chris Wilmer'
_symmetry_space_group_name_H-M	'P1'
_symmetry_Int_Tables_number	1
_symmetry_cell_setting	triclinic
loop_
_symmetry_equiv_pos_as_xyz
  x,y,z
_cell_length_a	12.827893
_cell_length_b	12.594516
_cell_length_c	12.827885
_cell_angle_alpha	89.971946
_cell_angle_beta	89.980728
_cell_angle_gamma	90.016023
loop_
_atom_site_label
_atom_site_type_symbol
_atom_site_fract_x
_atom_site_fract_y
_atom_site_fract_z
Zn1	Zn	1.597665	-0.423691	-0.590861
Zn2	Zn	2.097665	0.076309	-0.090861
Zn3	Zn	1.597557	-0.601707	-0.416127
Zn4	Zn	2.097557	-0.101707	0.083873
Zn5	Zn	1.422906	-0.423743	-0.416135
Zn6	Zn	1.922906	0.076257	0.083865
Zn7	Zn	1.422889	-0.601628	-0.590827
Zn8	Zn	1.922889	-0.101628	-0.090827
O9	O	1.510254	-0.512693	-0.503487
O10	O	2.010254	-0.012693	-0.003487
O11	O	1.743887	-0.447317	-0.567693
O12	O	2.243887	0.052683	-0.067693
O13	O	1.574351	-0.578155	-0.269892
O14	O	2.074351	-0.078155	0.230108
O15	O	1.446140	-0.274791	-0.439330
O16	O	1.946140	0.225209	0.060670
O17	O	1.743807	-0.578105	-0.439317
O18	O	2.243807	-0.078105	0.060683
O19	O	1.574535	-0.274752	-0.567701
O20	O	2.074535	0.225248	-0.067701
O21	O	1.446036	-0.447405	-0.269898
O22	O	1.946036	0.052595	0.230102
O23	O	1.276668	-0.447329	-0.439297
O24	O	1.776668	0.052671	0.060703
O25	O	1.446112	-0.577970	-0.737067
O26	O	1.946112	-0.077970	-0.237067
O27	O	1.276656	-0.578020	-0.567642
O28	O	1.776656	-0.078020	-0.067642
O29	O	1.574519	-0.447240	-0.737093
O30	O	2.074519	0.052760	-0.237093
O31	O	1.574335	-0.750643	-0.439283
O32	O	2.074335	-0.250643	0.060717
O33	O	1.446007	-0.750584	-0.567635
O34	O	1.946007	-0.250584	-0.067635
C35	C	1.238744	-0.512672	-0.503468
C36	C	1.738744	-0.012672	-0.003468
C37	C	1.122591	-0.512689	-0.503484
C38	C	1.622591	-0.012689	-0.003484
C39	C	1.070828	-0.577460	-0.566895
C40	C	1.570828	-0.077460	-0.066895
C41	C	0.950778	-0.577479	-0.566914
C42	C	1.450778	-0.077479	-0.066914
C43	C	1.510186	-0.789234	-0.503477
C44	C	2.010186	-0.289234	-0.003477
C45	C	1.510252	-0.907539	-0.503508
C46	C	2.010252	-0.407539	-0.003508
C47	C	1.440448	-0.976799	-0.573269
C48	C	1.940448	-0.476799	-0.073269
C49	C	1.414986	-1.047668	-0.477914
C50	C	1.914986	-0.547668	0.022086
C51	C	1.535809	-1.047469	-0.598879
C52	C	2.035809	-0.547469	-0.098879
C53	C	1.484740	-0.976849	-0.408102
C54	C	1.984740	-0.476849	0.091898
C55	C	1.605607	-0.976645	-0.529132
C56	C	2.105607	-0.476645	-0.029132
C57	C	1.580182	-1.047481	-0.433711
C58	C	2.080182	-0.547481	0.066289
C59	C	1.782824	-0.512714	-0.503508
C60	C	2.282824	-0.012714	-0.003508
C61	C	1.898978	-0.512723	-0.503517
C62	C	2.398978	-0.012723	-0.003517
C63	C	1.510325	-0.512590	-0.776058
C64	C	2.010325	-0.012590	-0.276058
C65	C	1.510356	-0.512547	-0.892211
C66	C	2.010356	-0.012547	-0.392211
C67	C	1.510352	-0.235072	-0.503521
C68	C	2.010352	0.264928	-0.003521
C69	C	1.510393	-0.116766	-0.503535
C70	C	2.010393	0.383234	-0.003535
C71	C	1.573902	-0.447845	-0.944008
C72	C	2.073902	0.052155	-0.444008
C73	C	1.573935	-0.447799	-1.064059
C74	C	2.073935	0.052201	-0.564059
C75	C	1.510244	-0.512718	-0.231978
C76	C	2.010244	-0.012718	0.268022
C77	C	1.510416	-0.512461	-0.115825
C78	C	2.010416	-0.012461	0.384175
H79	H	1.115388	-0.632895	-0.621174
H80	H	1.615388	-0.132895	-0.121174
H81	H	1.456012	-0.567862	-1.071287
H82	H	1.956012	-0.067862	-0.571287
H83	H	0.943486	-0.457271	-0.449221
H84	H	1.443486	0.042729	0.050779
H85	H	1.463087	-0.945956	-0.327436
H86	H	1.963087	-0.445956	0.172564
C87	C	1.660005	-1.089156	-0.353944
C88	C	2.160005	-0.589156	0.146056
H89	H	1.641729	-1.064846	-0.286266
H90	H	2.141729	-0.564846	0.213734
H91	H	1.727489	-1.063763	-0.371558
H92	H	2.227489	-0.563763	0.128442
H93	H	1.660022	-1.164580	-0.354782
H94	H	2.160022	-0.664580	0.145218
C95	C	1.647438	-0.372964	-1.124221
C96	C	2.147438	0.127036	-0.624221
H97	H	1.687290	-0.332407	-1.076170
H98	H	2.187290	0.167593	-0.576170
H99	H	1.607456	-0.326608	-1.166806
H100	H	2.107456	0.173392	-0.666806
H101	H	1.692934	-0.413715	-1.166794
H102	H	2.192934	0.086285	-0.666794
H103	H	1.686164	-0.945428	-0.550829
H104	H	2.186164	-0.445428	-0.050829
C105	C	1.436887	-0.587336	-0.952354
C106	C	1.936887	-0.087336	-0.452354
H107	H	1.397009	-0.627930	-0.904289
H108	H	1.897009	-0.127930	-0.404289
H109	H	1.476893	-0.633658	-0.994934
H110	H	1.976893	-0.133658	-0.494934
H111	H	1.391414	-0.546553	-0.994930
H112	H	1.891414	-0.046553	-0.494930
C113	C	1.360571	-0.934863	-0.652853
C114	C	1.860571	-0.434863	-0.152853
H115	H	1.395393	-0.893295	-0.703949
H116	H	1.895393	-0.393295	-0.203949
H117	H	1.310269	-0.892393	-0.618021
H118	H	1.810269	-0.392393	-0.118021
H119	H	1.326785	-0.993040	-0.685700
H120	H	1.826785	-0.493040	-0.185700
H121	H	1.078031	-0.457246	-0.449213
H122	H	1.578031	0.042754	0.050787
C123	C	0.890650	-0.652393	-0.640258
C124	C	1.390650	-0.152393	-0.140258
H125	H	0.817851	-0.642572	-0.630654
H126	H	1.317851	-0.142572	-0.130654
H127	H	0.908470	-0.723903	-0.624865
H128	H	1.408470	-0.223903	-0.124865
H129	H	0.908522	-0.636903	-0.710514
H130	H	1.408522	-0.136903	-0.210514
H131	H	1.334412	-1.078887	-0.456263
H132	H	1.834412	-0.578887	0.043737
C133	C	1.564940	-1.089375	-0.707818
C134	C	2.064940	-0.589375	-0.207818
H135	H	1.515225	-1.065160	-0.757284
H136	H	2.015225	-0.565160	-0.257284
H137	H	1.565409	-1.164792	-0.706897
H138	H	2.065409	-0.664792	-0.206897
H139	H	1.632153	-1.064001	-0.726489
H140	H	2.132153	-0.564001	-0.226489
C141	C	1.647370	-0.373059	-0.883861
C142	C	2.147370	0.126941	-0.383861
H143	H	1.637716	-0.382907	-0.811063
H144	H	2.137716	0.117093	-0.311063
H145	H	1.632128	-0.301519	-0.901703
H146	H	2.132128	0.198481	-0.401703
H147	H	1.717603	-0.388629	-0.901699
H148	H	2.217603	0.111371	-0.401699
