data_functionalizedCrystal
_audit_creation_method	'MofGen! by Chris Wilmer'
_symmetry_space_group_name_H-M	'P1'
_symmetry_Int_Tables_number	1
_symmetry_cell_setting	triclinic
loop_
_symmetry_equiv_pos_as_xyz
  x,y,z
_cell_length_a	10.723024
_cell_length_b	16.992695
_cell_length_c	15.455313
_cell_angle_alpha	87.152573
_cell_angle_beta	92.706391
_cell_angle_gamma	87.568046
loop_
_atom_site_label
_atom_site_type_symbol
_atom_site_fract_x
_atom_site_fract_y
_atom_site_fract_z
O1	O	-1.671793	-0.106632	-0.072126
O2	O	-1.171793	0.393368	0.427874
O3	O	-1.309547	-0.117164	-0.072129
O4	O	-0.809547	0.382836	0.427871
O5	O	-1.489217	0.002253	-0.072121
O6	O	-0.989217	0.502253	0.427879
O7	O	-1.492123	-0.226048	-0.072135
O8	O	-0.992123	0.273952	0.427865
O9	O	-1.478940	-0.004548	0.072141
O10	O	-0.978940	0.495452	0.572141
O11	O	-1.299270	-0.123964	0.072132
O12	O	-0.799270	0.376036	0.572132
O13	O	-1.661515	-0.113432	0.072135
O14	O	-1.161515	0.386568	0.572135
Cu15	Cu	-1.479454	-0.119319	0.085306
Cu16	Cu	-0.979454	0.380681	0.585306
Cu17	Cu	-1.491608	-0.111277	-0.085300
Cu18	Cu	-0.991608	0.388723	0.414700
O19	O	-1.481846	-0.232848	0.072127
O20	O	-0.981846	0.267152	0.572127
C21	C	-1.480343	0.028085	0.000010
C22	C	-0.980343	0.528085	0.500010
C23	C	-1.469195	0.115189	0.000009
C24	C	-0.969195	0.615189	0.500009
C25	C	-1.257843	-0.119797	0.000001
C26	C	-0.757843	0.380203	0.500001
C27	C	-1.119092	-0.117504	0.000000
C28	C	-0.619092	0.382496	0.500000
C29	C	-1.713220	-0.110798	0.000003
C30	C	-1.213220	0.389202	0.500003
C31	C	-1.851972	-0.113091	-0.000002
C32	C	-1.351972	0.386909	0.499998
C33	C	-1.049863	-0.184323	-0.000004
C34	C	-0.549863	0.315677	0.499996
C35	C	-0.906455	-0.181954	-0.000005
C36	C	-0.406455	0.318046	0.499995
C37	C	-1.490720	-0.258680	-0.000006
C38	C	-0.990720	0.241320	0.499994
C39	C	-1.501869	-0.345784	-0.000011
C40	C	-1.001869	0.154216	0.499989
N41	N	-1.470915	-0.124975	0.205301
N42	N	-0.970915	0.375025	0.705301
C43	C	-1.576755	0.164851	0.000011
C44	C	-1.076755	0.664851	0.500011
C45	C	-1.566274	0.246694	0.000003
C46	C	-1.066274	0.746694	0.500003
C47	C	-1.448231	0.278874	-0.000001
C48	C	-0.948231	0.778874	0.499999
C49	C	-1.340663	0.229206	-0.000005
C50	C	-0.840663	0.729206	0.499995
C51	C	-1.351146	0.147364	-0.000003
C52	C	-0.851146	0.647364	0.499997
C53	C	-1.404784	0.522706	-0.000013
C54	C	-0.904784	1.022706	0.499987
C55	C	-1.394308	0.604554	-0.000013
C56	C	-0.894308	1.104554	0.499987
C57	C	-1.619921	0.622037	-0.000006
C58	C	-1.119921	1.122037	0.499994
C59	C	-1.630393	0.540193	0.000001
C60	C	-1.130393	1.040193	0.500001
C61	C	-1.522825	0.490532	-0.000008
C62	C	-1.022825	0.990532	0.499992
N63	N	-1.437514	0.362531	-0.000007
N64	N	-0.937514	0.862531	0.499993
N65	N	-1.533543	0.406877	-0.000008
N66	N	-1.033543	0.906877	0.499992
N67	N	-1.500157	-0.105614	-0.205295
N68	N	-1.000157	0.394386	0.294705
C69	C	-1.547275	-0.074262	0.250699
C70	C	-1.047275	0.425738	0.750699
C71	C	-1.540830	-0.078546	0.341507
C72	C	-1.040830	0.421454	0.841507
C73	C	-1.458029	-0.133549	0.386915
C74	C	-0.958029	0.366451	0.886915
C75	C	-1.381660	-0.184264	0.341511
C76	C	-0.881660	0.315736	0.841511
C77	C	-1.388101	-0.179975	0.250705
C78	C	-0.888101	0.320025	0.750705
C79	C	-1.430229	-0.152041	0.658495
C80	C	-0.930229	0.347959	1.158495
C81	C	-1.423797	-0.156328	0.749307
C82	C	-0.923797	0.343672	1.249307
C83	C	-1.582965	-0.050608	0.749297
C84	C	-1.082965	0.449392	1.249297
C85	C	-1.589403	-0.046327	0.658489
C86	C	-1.089403	0.453673	1.158489
C87	C	-1.513030	-0.097040	0.613093
C88	C	-1.013030	0.402960	1.113093
N89	N	-1.451441	-0.137931	0.479735
N90	N	-0.951441	0.362069	0.979735
N91	N	-1.519612	-0.092653	0.520275
N92	N	-1.019612	0.407347	1.020275
H93	H	-1.096761	-0.243283	-0.000003
H94	H	-0.596761	0.256717	0.499997
H95	H	-1.614706	-0.029476	0.213734
H96	H	-1.114706	0.470524	0.713734
H97	H	-0.846949	-0.239157	-0.000013
H98	H	-0.346949	0.260843	0.499987
H99	H	-1.726516	0.513998	0.000005
H100	H	-1.226516	1.013998	0.500005
H101	H	-1.656826	-0.001540	0.621519
H102	H	-1.156826	0.498460	1.121519
H103	H	-1.653861	0.287126	0.000006
H104	H	-1.153861	0.787126	0.500006
H105	H	-0.911471	-0.055885	-0.000003
H106	H	-0.411471	0.444115	0.499997
H107	H	-1.298178	0.630750	-0.000002
H108	H	-0.798178	1.130750	0.499998
H109	H	-1.672878	0.138657	0.000020
H110	H	-1.172878	0.638657	0.500020
C111	C	-1.304109	-0.235770	0.200768
C112	C	-0.804109	0.264230	0.700768
N113	N	-1.240844	-0.277797	0.163156
N114	N	-0.740844	0.222203	0.663156
C115	C	-1.286455	0.468090	-0.000028
C116	C	-0.786455	0.968090	0.499972
N117	N	-1.197324	0.426950	-0.000041
N118	N	-0.697324	0.926950	0.499959
C119	C	-1.666959	0.005178	0.799240
C120	C	-1.166959	0.505178	1.299240
N121	N	-1.730222	0.047201	0.836857
N122	N	-1.230222	0.547201	1.336857
C123	C	-1.210813	0.264606	-0.000002
C124	C	-0.710813	0.764606	0.499998
N125	N	-1.113007	0.291268	0.000006
N126	N	-0.613007	0.791268	0.500006
C127	C	-1.290566	-0.244760	0.391463
C128	C	-0.790566	0.255240	0.891463
N129	N	-1.221952	-0.290327	0.429086
N130	N	-0.721952	0.209673	0.929086
H131	H	-1.356367	-0.201120	0.786274
H132	H	-0.856367	0.298880	1.286274
H133	H	-1.072194	-0.058543	-0.000018
H134	H	-0.572194	0.441457	0.499982
H135	H	-1.707496	0.662479	-0.000000
H136	H	-1.207496	1.162479	0.500000
C137	C	-1.346387	-0.207929	0.608571
C138	C	-0.846387	0.292071	1.108571
N139	N	-1.283295	-0.250064	0.570965
N140	N	-0.783295	0.249936	1.070965
H141	H	-1.603007	-0.037251	0.378469
H142	H	-1.103007	0.462749	0.878469
C143	C	-1.232821	0.092736	-0.000003
C144	C	-0.732821	0.592736	0.499997
N145	N	-1.143694	0.051591	-0.000005
N146	N	-0.643694	0.551591	0.499995
