data_functionalizedCrystal
_audit_creation_method	'MofGen! by Chris Wilmer'
_symmetry_space_group_name_H-M	'P1'
_symmetry_Int_Tables_number	1
_symmetry_cell_setting	triclinic
loop_
_symmetry_equiv_pos_as_xyz
  x,y,z
_cell_length_a	6.817900
_cell_length_b	11.168121
_cell_length_c	16.255661
_cell_angle_alpha	93.883604
_cell_angle_beta	103.488922
_cell_angle_gamma	108.508496
loop_
_atom_site_label
_atom_site_type_symbol
_atom_site_fract_x
_atom_site_fract_y
_atom_site_fract_z
V1	V	-4.052428	-0.175725	-0.263878
O2	O	-4.013108	0.007395	-0.258848
O3	O	-4.029107	-0.347423	-0.262080
O4	O	-4.003662	-0.173482	-0.378961
O5	O	-4.038730	-0.167750	-0.141158
V6	V	-4.532854	-0.153767	-0.249199
O7	O	-4.320481	-0.223890	-0.296078
O8	O	-4.714999	-0.105601	-0.216999
O9	O	-4.332969	0.017931	-0.250997
O10	O	-4.689571	-0.336886	-0.254229
O11	O	-4.663950	-0.161741	-0.371919
O12	O	-4.358414	-0.156010	-0.134116
C13	C	-3.880221	-0.389265	-0.257919
C14	C	-3.942438	-0.529634	-0.257217
C15	C	-4.144141	-0.598340	-0.260917
C16	C	-4.208449	-0.743419	-0.260191
C17	C	-3.847762	-0.167385	-0.407012
C18	C	-3.889340	-0.166687	-0.501093
C19	C	-3.798677	-0.158357	-0.723911
C20	C	-3.970827	-0.265869	-0.793392
C21	C	-3.965533	-0.165380	-0.673341
C22	C	-3.867493	-0.056637	-0.771498
C23	C	-4.039115	-0.164111	-0.839725
C24	C	-4.137179	-0.272987	-0.741592
C25	C	-4.033769	-0.063661	-0.719683
C26	C	-4.206060	-0.171203	-0.789144
C27	C	-3.923139	-0.166112	-0.577492
C28	C	-4.081528	-0.163389	-0.935573
C29	C	-4.145198	0.059767	-0.255155
C30	C	-4.062220	0.200134	-0.255864
C31	C	-4.177657	-0.162111	-0.106061
C32	C	-4.115317	-0.162802	-0.011979
H33	H	-3.889421	-0.740810	-0.252693
H34	H	-4.250790	-0.364520	-0.728129
C35	C	-4.069006	0.051830	-0.676291
C36	C	-4.037705	0.071604	-0.578787
C37	C	-4.072917	0.187107	-0.535391
C38	C	-4.139430	0.282836	-0.589499
C39	C	-4.170736	0.263064	-0.687009
C40	C	-4.135523	0.147562	-0.730405
H41	H	-3.988464	0.000737	-0.538728
H42	H	-4.049742	0.201742	-0.463207
H43	H	-4.165497	0.368338	-0.557374
H44	H	-4.219976	0.333931	-0.727068
H45	H	-4.158698	0.132926	-0.802588
H46	H	-3.817364	-0.578218	-0.253515
H47	H	-3.626149	-0.153065	-0.695430
H48	H	-3.944665	-0.351359	-0.825481
C49	C	-3.714022	0.066889	-0.789838
C50	C	-3.469454	0.097388	-0.759986
C51	C	-3.315969	0.220907	-0.778325
C52	C	-3.407051	0.313926	-0.826515
C53	C	-3.651631	0.283430	-0.856370
C54	C	-3.805116	0.159911	-0.838032
H55	H	-3.402018	0.028527	-0.724310
H56	H	-3.134914	0.243482	-0.756224
H57	H	-3.293432	0.405362	-0.840090
H58	H	-3.719067	0.352290	-0.892047
H59	H	-3.986171	0.137336	-0.860133
H60	H	-4.269220	-0.549758	-0.264628
H61	H	-4.378731	-0.176663	-0.817491
H62	H	-4.381236	-0.802479	-0.263349
