data_functionalizedCrystal
_audit_creation_method	'MofGen! by Chris Wilmer'
_symmetry_space_group_name_H-M	'P1'
_symmetry_Int_Tables_number	1
_symmetry_cell_setting	triclinic
loop_
_symmetry_equiv_pos_as_xyz
  x,y,z
_cell_length_a	12.759395
_cell_length_b	21.295417
_cell_length_c	12.759387
_cell_angle_alpha	90.037489
_cell_angle_beta	90.020509
_cell_angle_gamma	90.031239
loop_
_atom_site_label
_atom_site_type_symbol
_atom_site_fract_x
_atom_site_fract_y
_atom_site_fract_z
Zn1	Zn	1.606159	-0.250550	0.593956
Zn2	Zn	1.606004	-0.355833	0.418256
Zn3	Zn	1.430457	-0.250585	0.418293
Zn4	Zn	1.430404	-0.355788	0.593895
O5	O	1.518256	-0.303189	0.506100
O6	O	1.753160	-0.264521	0.570659
O7	O	1.582675	-0.341905	0.271240
O8	O	1.453852	-0.162491	0.441636
O9	O	1.753045	-0.341871	0.441573
O10	O	1.582939	-0.162465	0.570695
O11	O	1.453701	-0.264579	0.271267
O12	O	1.283429	-0.264536	0.441577
O13	O	1.453761	-0.341795	0.740925
O14	O	1.283390	-0.341828	0.570591
O15	O	1.582887	-0.264477	0.740969
O16	O	1.582623	-0.443917	0.441514
O17	O	1.453610	-0.443884	0.570555
C18	C	1.245289	-0.303181	0.506082
C19	C	1.128512	-0.303193	0.506099
C20	C	1.518122	-0.466741	0.506047
C21	C	1.518161	-0.536709	0.506059
C22	C	1.128509	-0.383808	0.640224
C23	C	1.073647	-0.424121	0.707290
C24	C	0.963926	-0.424129	0.707303
C25	C	0.909064	-0.383818	0.640245
C26	C	0.963926	-0.343506	0.573180
C27	C	1.073650	-0.343504	0.573172
C28	C	0.963928	-0.262888	0.439061
C29	C	1.073650	-0.262883	0.439042
C30	C	0.909066	-0.222578	0.372004
C31	C	0.963928	-0.182267	0.304931
C32	C	1.073656	-0.182262	0.304920
C33	C	1.128512	-0.222570	0.371976
C34	C	1.585338	-0.569505	0.573308
C35	C	1.585375	-0.635248	0.573334
C36	C	1.518246	-0.668191	0.506092
C37	C	1.451056	-0.635387	0.438839
C38	C	1.451013	-0.569646	0.438822
N39	N	1.510305	-0.771460	0.414146
N40	N	1.510352	-0.833911	0.414165
C41	C	1.518369	-0.866266	0.506140
N42	N	1.526358	-0.833810	0.598098
N43	N	1.526317	-0.771353	0.598078
C44	C	1.518284	-0.739477	0.506103
C45	C	1.585590	-0.970348	0.573423
C46	C	1.585620	-1.036092	0.573450
C47	C	1.451306	-1.036230	0.438945
C48	C	1.451270	-0.970487	0.438927
C49	C	1.518418	-0.937550	0.506164
C50	C	1.792289	-0.303197	0.506119
C51	C	1.909066	-0.303201	0.506127
C52	C	1.518335	-0.303127	0.780134
C53	C	1.518369	-0.303101	0.896911
C54	C	1.518419	-0.138999	0.506177
C55	C	1.518489	-0.069031	0.506209
C56	C	1.518237	-0.303205	0.233133
C57	C	1.518407	-0.303054	0.116357
C58	C	1.652838	-0.222595	0.896977
C59	C	1.720087	-0.182333	0.951871
C60	C	1.720113	-0.182310	1.061593
C61	C	1.652880	-0.222552	1.116423
C62	C	1.585631	-0.262815	1.061529
C63	C	1.585615	-0.262835	0.951805
C64	C	1.451158	-0.343316	1.061462
C65	C	1.451136	-0.343344	0.951741
C66	C	1.383925	-0.383559	1.116293
C67	C	1.316680	-0.423825	1.061399
C68	C	1.316658	-0.423847	0.951670
C69	C	1.383887	-0.383606	0.896847
H70	H	1.118328	-0.456940	0.761888
O71	O	1.785367	-0.143306	0.898446
C72	C	1.844901	-0.107640	0.729443
C73	C	1.770936	-0.151879	0.789810
H74	H	1.833244	-0.114546	0.641600
H75	H	1.929629	-0.118703	0.750950
H76	H	1.826533	-0.056880	0.751101
H77	H	1.789209	-0.202653	0.768185
H78	H	1.686230	-0.140761	0.768298
H79	H	0.819725	-0.222584	0.372023
O80	O	1.785385	-0.143112	1.114807
C81	C	1.836469	-0.036032	1.148510
C82	C	1.762502	-0.080352	1.088162
H83	H	1.817981	0.014720	1.127006
H84	H	1.921187	-0.047045	1.126926
H85	H	1.824952	-0.042964	1.236342
H86	H	1.773926	-0.073444	1.000315
H87	H	1.677812	-0.069328	1.109833
H88	H	1.652898	-0.222525	1.205764
H89	H	1.217850	-0.383811	0.640213
O90	O	1.386187	-1.068320	0.373667
C91	C	1.326660	-1.169660	0.314146
C92	C	1.400488	-1.133392	0.388103
H93	H	1.338181	-1.222276	0.325808
H94	H	1.345138	-1.156816	0.229416
H95	H	1.241941	-1.156730	0.332515
H96	H	1.485231	-1.146302	0.369829
H97	H	1.381919	-1.146239	0.472812
O98	O	0.910465	-0.463228	0.772415
C99	C	0.741425	-0.498989	0.831815
C100	C	0.801838	-0.454668	0.758042
H101	H	0.653589	-0.492093	0.820204
H102	H	0.762960	-0.487998	0.916590
H103	H	0.763012	-0.549726	0.813213
H104	H	0.780283	-0.403916	0.776549
H105	H	0.780297	-0.465713	0.673289
H106	H	0.919251	-0.149447	0.250343
O107	O	1.126784	-0.143083	0.239670
C108	C	1.115192	-0.063094	0.106682
C109	C	1.054901	-0.107442	0.180511
H110	H	1.057102	-0.034258	0.058849
H111	H	1.166480	-0.091921	0.051574
H112	H	1.166642	-0.030240	0.155030
H113	H	1.003394	-0.140305	0.132247
H114	H	1.003680	-0.078576	0.235621
O115	O	1.386169	-0.938555	0.373541
C116	C	1.372069	-0.864436	0.231622
C117	C	1.445920	-0.900548	0.305622
H118	H	1.420349	-0.833708	0.176677
H119	H	1.317106	-0.833622	0.279744
H120	H	1.324070	-0.899283	0.183613
H121	H	1.493987	-0.865746	0.353648
H122	H	1.500814	-0.931371	0.257440
H123	H	1.640070	-0.661956	0.628109
O124	O	1.385796	-0.667454	0.373665
C125	C	1.243964	-0.741737	0.359429
C126	C	1.317829	-0.705472	0.433353
H127	H	1.188980	-0.772473	0.407659
H128	H	1.292190	-0.772556	0.304558
H129	H	1.195990	-0.706988	0.311336
H130	H	1.365820	-0.740175	0.481515
H131	H	1.269543	-0.674644	0.488156
O132	O	1.385724	-0.537882	0.373391
C133	C	1.252460	-0.544956	0.240034
C134	C	1.326362	-0.581008	0.314066
H135	H	1.204431	-0.579808	0.192066
H136	H	1.300655	-0.514197	0.185060
H137	H	1.197529	-0.514166	0.288231
H138	H	1.381308	-0.611833	0.265953
H139	H	1.278101	-0.611728	0.369042
O140	O	1.383953	-0.383653	1.222876
C141	C	1.410968	-0.443969	1.380298
C142	C	1.410950	-0.443950	1.259594
H143	H	1.432815	-0.492710	1.410022
H144	H	1.329627	-0.430934	1.410143
H145	H	1.470553	-0.408257	1.410090
H146	H	1.351417	-0.479662	1.229713
H147	H	1.492329	-0.456957	1.229820
H148	H	0.819722	-0.383822	0.640271
O149	O	1.650832	-0.938446	0.638847
C150	C	1.784081	-0.945245	0.772231
C151	C	1.710236	-0.981450	0.698205
H152	H	1.832144	-0.979999	0.820225
H153	H	1.735839	-0.914485	0.827180
H154	H	1.838983	-0.914442	0.724027
H155	H	1.655319	-1.012288	0.746324
H156	H	1.758543	-1.012171	0.643253
H157	H	1.217853	-0.222571	0.371971
O158	O	1.251227	-0.462845	1.114612
C159	C	1.072490	-0.493407	1.148093
C160	C	1.146494	-0.449167	1.087778
H161	H	0.987800	-0.482373	1.126404
H162	H	1.083963	-0.486469	1.235955
H163	H	1.090935	-0.544169	1.126516
H164	H	1.128095	-0.398389	1.109267
H165	H	1.135008	-0.456160	0.999931
H166	H	1.640011	-0.542690	0.628059
O167	O	1.251451	-0.463052	0.898392
C168	C	1.200294	-0.570133	0.864808
C169	C	1.274218	-0.525804	0.925190
H170	H	1.218661	-0.620877	0.886468
H171	H	1.211835	-0.563294	0.776956
H172	H	1.115599	-0.559038	0.886353
H173	H	1.358942	-0.536872	0.903732
H174	H	1.262587	-0.532651	1.013026
H175	H	1.640323	-1.062793	0.628217
H176	H	1.652834	-0.222616	0.807636
H177	H	1.383880	-0.383622	0.807506
