data_functionalizedCrystal
_audit_creation_method	'MofGen! by Chris Wilmer'
_symmetry_space_group_name_H-M	'P1'
_symmetry_Int_Tables_number	1
_symmetry_cell_setting	triclinic
loop_
_symmetry_equiv_pos_as_xyz
  x,y,z
_cell_length_a	16.956984
_cell_length_b	16.992695
_cell_length_c	16.053802
_cell_angle_alpha	92.741074
_cell_angle_beta	92.389299
_cell_angle_gamma	96.639179
loop_
_atom_site_label
_atom_site_type_symbol
_atom_site_fract_x
_atom_site_fract_y
_atom_site_fract_z
O1	O	1.063242	-0.028849	0.069433
O2	O	1.563242	0.471151	0.569433
O3	O	0.832831	-0.056264	0.069434
O4	O	1.332831	0.443736	0.569434
O5	O	0.947113	0.071526	0.069427
O6	O	1.447113	0.571526	0.569427
O7	O	0.948961	-0.156639	0.069441
O8	O	1.448961	0.343361	0.569441
O9	O	0.940821	0.064519	-0.069431
O10	O	1.440821	0.564519	0.430569
O11	O	0.826539	-0.063271	-0.069424
O12	O	1.326539	0.436729	0.430576
O13	O	1.056950	-0.035855	-0.069425
O14	O	1.556950	0.464145	0.430575
Zn15	Zn	0.940746	-0.050676	-0.091471
Zn16	Zn	1.440746	0.449324	0.408529
Zn17	Zn	0.949036	-0.041444	0.091481
Zn18	Zn	1.449036	0.458556	0.591481
O19	O	0.942669	-0.163646	-0.069418
O20	O	1.442669	0.336354	0.430582
C21	C	0.800067	-0.061171	0.000005
C22	C	1.300067	0.438829	0.500005
C23	C	0.711812	-0.065345	0.000006
C24	C	1.211812	0.434655	0.500006
C25	C	0.675280	0.004440	-0.000000
C26	C	1.175280	0.504440	0.500000
C27	C	0.592356	0.000514	0.000006
C28	C	1.092356	0.500514	0.500006
C29	C	0.545964	-0.073198	0.000012
C30	C	1.045964	0.426802	0.500012
C31	C	0.582501	-0.142989	0.000020
C32	C	1.082501	0.357011	0.500020
C33	C	0.665424	-0.139062	0.000020
C34	C	1.165424	0.360938	0.500020
C35	C	0.297430	-0.092637	0.000019
C36	C	0.797430	0.407363	0.500019
C37	C	0.214501	-0.096559	0.000017
C38	C	0.714501	0.403441	0.500017
C39	C	0.224362	0.046944	0.000004
C40	C	0.724362	0.546944	0.500004
C41	C	0.307286	0.050864	-0.000001
C42	C	0.807286	0.550864	0.499999
C43	C	0.343816	-0.018925	0.000012
C44	C	0.843816	0.481075	0.500012
N45	N	0.461201	-0.077213	0.000016
N46	N	0.961201	0.422787	0.500016
N47	N	0.428578	-0.014909	0.000014
N48	N	0.928578	0.485091	0.500014
C49	C	1.089715	-0.030948	0.000006
C50	C	1.589715	0.469052	0.500006
C51	C	1.177970	-0.026774	0.000011
C52	C	1.677970	0.473226	0.500011
C53	C	0.941590	0.097081	-0.000002
C54	C	1.441590	0.597081	0.499998
C55	C	0.934500	0.183666	-0.000002
C56	C	1.434500	0.683666	0.499998
N57	N	0.935094	-0.056975	-0.216331
N58	N	1.435094	0.443025	0.283669
C59	C	0.948191	-0.189201	0.000013
C60	C	1.448191	0.310799	0.500013
C61	C	0.955282	-0.275785	0.000018
C62	C	1.455282	0.224215	0.500018
C63	C	1.002914	0.238341	-0.000003
C64	C	1.502914	0.738341	0.499997
C65	C	0.996248	0.319696	0.000005
C66	C	1.496248	0.819696	0.500005
C67	C	0.921165	0.346374	0.000008
C68	C	1.421165	0.846374	0.500008
C69	C	0.852745	0.291692	0.000012
C70	C	1.352745	0.791692	0.500012
C71	C	0.859413	0.210339	0.000010
C72	C	1.359413	0.710339	0.500010
C73	C	0.893530	0.588181	0.000020
C74	C	1.393530	1.088181	0.500020
C75	C	0.886867	0.669540	0.000019
C76	C	1.386867	1.169540	0.500019
C77	C	1.030371	0.697538	0.000014
C78	C	1.530371	1.197538	0.500014
C79	C	1.037031	0.616182	0.000007
C80	C	1.537031	1.116182	0.500007
C81	C	0.968612	0.561508	0.000015
C82	C	1.468612	1.061508	0.500015
N83	N	0.914349	0.429531	0.000014
N84	N	1.414349	0.929531	0.500014
N85	N	0.975429	0.478353	0.000016
N86	N	1.475429	0.978353	0.500016
C87	C	0.983741	-0.002617	-0.260028
C88	C	1.483741	0.497383	0.239972
C89	C	0.979795	-0.007031	-0.347435
C90	C	1.479795	0.492969	0.152565
C91	C	0.927206	-0.065806	-0.391143
C92	C	1.427206	0.434194	0.108857
C93	C	0.878553	-0.120167	-0.347440
C94	C	1.378553	0.379833	0.152560
C95	C	0.882496	-0.115749	-0.260035
C96	C	1.382496	0.384251	0.239965
C97	C	0.909984	-0.085081	-0.652551
C98	C	1.409984	0.414919	-0.152551
C99	C	0.906047	-0.089496	-0.739962
C100	C	1.406047	0.410504	-0.239962
C101	C	1.007288	0.023642	-0.739952
C102	C	1.507288	0.523642	-0.239952
C103	C	1.011229	0.028051	-0.652545
C104	C	1.511229	0.528051	-0.152545
C105	C	0.962573	-0.026307	-0.608849
C106	C	1.462573	0.473693	-0.108849
N107	N	0.923173	-0.070321	-0.480486
N108	N	1.423173	0.429679	0.019514
N109	N	0.966603	-0.021788	-0.519508
N110	N	1.466603	0.478212	-0.019508
N111	N	0.954694	-0.035138	0.216341
N112	N	1.454694	0.464862	0.716341
H113	H	0.695167	-0.195888	0.000021
H114	H	1.195167	0.304112	0.500021
H115	H	1.046900	0.067898	-0.775536
H116	H	1.546900	0.567898	-0.275536
H117	H	0.842881	-0.160012	-0.224457
H118	H	1.342881	0.339988	0.275543
H119	H	0.713047	0.064464	-0.000008
H120	H	1.213047	0.564464	0.499992
Br121	Br	1.104817	0.202143	-0.000019
Br122	Br	1.604817	0.702143	0.499981
Br123	Br	1.055122	0.077149	-0.200720
Br124	Br	1.555122	0.577149	0.299280
H125	H	0.825722	0.691256	0.000009
H126	H	1.325722	1.191256	0.500009
Br127	Br	0.542781	0.095228	0.000028
Br128	Br	1.042781	0.595228	0.500028
Br129	Br	0.174781	0.141654	-0.000010
Br130	Br	0.674781	0.641654	0.499990
H131	H	0.345053	0.110889	-0.000009
H132	H	0.845053	0.610889	0.499991
H133	H	1.098172	0.594468	0.000004
H134	H	1.598172	1.094468	0.500004
Br135	Br	1.045813	0.066744	-0.406741
Br136	Br	1.545813	0.566744	0.093259
H137	H	1.054051	0.075911	-0.616960
H138	H	1.554051	0.575911	-0.116960
Br139	Br	0.750846	0.327897	0.000030
Br140	Br	1.250846	0.827897	0.500030
H141	H	0.176730	-0.156588	0.000017
H142	H	0.676730	0.343412	0.500017
Br143	Br	0.346997	-0.187352	0.000037
Br144	Br	0.846997	0.312648	0.500037
H145	H	1.051959	0.364210	0.000002
H146	H	1.551959	0.864210	0.500002
Br147	Br	0.519542	-0.243028	0.000039
Br148	Br	1.019542	0.256972	0.500039
Br149	Br	1.123221	0.771742	0.000003
Br150	Br	1.623221	1.271742	0.500003
Br151	Br	0.800674	0.513990	0.000036
Br152	Br	1.300674	1.013990	0.500036
Br153	Br	0.834673	-0.169273	-0.799275
Br154	Br	1.334673	0.330727	-0.299275
Br155	Br	0.766561	0.136136	0.000018
Br156	Br	1.266561	0.636136	0.500018
H157	H	0.870368	-0.129343	-0.616981
H158	H	1.370368	0.370657	-0.116981
Br159	Br	0.807174	-0.199931	-0.406754
Br160	Br	1.307174	0.300069	0.093246
