data_functionalizedCrystal
_audit_creation_method	'MofGen! by Chris Wilmer'
_symmetry_space_group_name_H-M	'P1'
_symmetry_Int_Tables_number	1
_symmetry_cell_setting	triclinic
loop_
_symmetry_equiv_pos_as_xyz
  x,y,z
_cell_length_a	19.805407
_cell_length_b	19.805405
_cell_length_c	19.805399
_cell_angle_alpha	90.026615
_cell_angle_beta	90.019573
_cell_angle_gamma	90.026726
loop_
_atom_site_label
_atom_site_type_symbol
_atom_site_fract_x
_atom_site_fract_y
_atom_site_fract_z
Zn1	Zn	1.034734	-0.269479	0.382724
Zn2	Zn	1.368068	0.063854	0.716058
Zn3	Zn	1.701401	0.397188	1.049391
Zn4	Zn	1.034648	-0.382667	0.269538
Zn5	Zn	1.367982	-0.049334	0.602871
Zn6	Zn	1.701315	0.283999	0.936205
Zn7	Zn	0.921549	-0.269498	0.269549
Zn8	Zn	1.254882	0.063836	0.602882
Zn9	Zn	1.588216	0.397169	0.936215
Zn10	Zn	0.921512	-0.382631	0.382685
Zn11	Zn	1.254845	-0.049298	0.716018
Zn12	Zn	1.588178	0.284035	1.049351
O13	O	0.978111	-0.326069	0.326124
O14	O	1.311444	0.007265	0.659457
O15	O	1.644777	0.340598	0.992791
O16	O	1.129439	-0.284501	0.367722
O17	O	1.462773	0.048833	0.701055
O18	O	1.796106	0.382166	1.034388
O19	O	1.019625	-0.367678	0.174823
O20	O	1.352958	-0.034345	0.508156
O21	O	1.686292	0.298989	0.841489
O22	O	0.936615	-0.174778	0.284583
O23	O	1.269948	0.158555	0.617916
O24	O	1.603281	0.491888	0.951250
O25	O	1.129376	-0.367660	0.284564
O26	O	1.462710	-0.034326	0.617898
O27	O	1.796043	0.299007	0.951231
O28	O	1.019771	-0.174765	0.367732
O29	O	1.353105	0.158569	0.701066
O30	O	1.686438	0.491902	1.034399
O31	O	0.936531	-0.284533	0.174831
O32	O	1.269865	0.048801	0.508164
O33	O	1.603198	0.382134	0.841497
O34	O	0.826827	-0.284498	0.284544
O35	O	1.160161	0.048836	0.617878
O36	O	1.493494	0.382169	0.951211
O37	O	0.936551	-0.367598	0.477406
O38	O	1.269885	-0.034265	0.810740
O39	O	1.603218	0.299068	1.144073
O40	O	0.826800	-0.367617	0.367665
O41	O	1.160133	-0.034283	0.700998
O42	O	1.493467	0.299050	1.034332
O43	O	1.019735	-0.284466	0.477436
O44	O	1.353069	0.048867	0.810769
O45	O	1.686402	0.382201	1.144102
O46	O	1.019589	-0.477379	0.284526
O47	O	1.352922	-0.144046	0.617859
O48	O	1.686256	0.189288	0.951193
O49	O	0.936468	-0.477353	0.367654
O50	O	1.269801	-0.144019	0.700988
O51	O	1.603135	0.189314	1.034321
C52	C	0.802255	-0.326056	0.326102
C53	C	1.135588	0.007278	0.659435
C54	C	1.468921	0.340611	0.992769
C55	C	0.727023	-0.326067	0.326109
C56	C	1.060356	0.007267	0.659442
C57	C	1.393689	0.340600	0.992775
C58	C	0.978034	-0.501925	0.326099
C59	C	1.311367	-0.168591	0.659433
C60	C	1.644700	0.164742	0.992766
C61	C	0.978063	-0.577157	0.326112
C62	C	1.311396	-0.243823	0.659445
C63	C	1.644729	0.089510	0.992778
C64	C	0.691682	-0.369412	0.369319
C65	C	1.025015	-0.036078	0.702653
C66	C	1.358349	0.297255	1.035986
C67	C	0.620994	-0.369413	0.369329
C68	C	0.954327	-0.036080	0.702662
C69	C	1.287660	0.297254	1.035996
C70	C	0.585647	-0.326072	0.326124
C71	C	0.918981	0.007262	0.659457
C72	C	1.252314	0.340595	0.992790
C73	C	0.620993	-0.282722	0.282911
C74	C	0.954326	0.050611	0.616245
C75	C	1.287659	0.383945	0.949578
C76	C	0.691680	-0.282718	0.282906
C77	C	1.025013	0.050616	0.616239
C78	C	1.358347	0.383949	0.949572
C79	C	0.335920	-0.282737	0.282934
C80	C	0.669253	0.050596	0.616267
C81	C	1.002586	0.383930	0.949600
C82	C	0.265227	-0.282746	0.282941
C83	C	0.598561	0.050588	0.616274
C84	C	0.931894	0.383921	0.949608
C85	C	0.265233	-0.369432	0.369357
C86	C	0.598567	-0.036099	0.702690
C87	C	0.931900	0.297235	1.036024
C88	C	0.335920	-0.369428	0.369351
C89	C	0.669254	-0.036094	0.702685
C90	C	1.002587	0.297239	1.036018
C91	C	0.371260	-0.326076	0.326142
C92	C	0.704593	0.007258	0.659475
C93	C	1.037926	0.340591	0.992808
C94	C	0.447908	-0.326074	0.326133
C95	C	0.781242	0.007259	0.659466
C96	C	1.114575	0.340593	0.992799
C97	C	0.509000	-0.326076	0.326129
C98	C	0.842333	0.007257	0.659462
C99	C	1.175667	0.340590	0.992795
C100	C	1.021337	-0.612436	0.369441
C101	C	1.354670	-0.279102	0.702775
C102	C	1.688003	0.054231	1.036108
C103	C	1.021361	-0.683124	0.369454
C104	C	1.354694	-0.349791	0.702787
C105	C	1.688028	-0.016457	1.036121
C106	C	0.978114	-0.718532	0.326133
C107	C	1.311448	-0.385199	0.659466
C108	C	1.644781	-0.051866	0.992799
C109	C	0.934835	-0.683249	0.282801
C110	C	1.268169	-0.349915	0.616134
C111	C	1.601502	-0.016582	0.949468
C112	C	0.934808	-0.612561	0.282792
C113	C	1.268141	-0.279228	0.616126
C114	C	1.601475	0.054105	0.949459
C115	C	0.934944	-0.968322	0.282836
C116	C	1.268277	-0.634988	0.616169
C117	C	1.601611	-0.301655	0.949502
C118	C	0.934976	-1.039014	0.282846
C119	C	1.268310	-0.705681	0.616180
C120	C	1.601643	-0.372347	0.949513
C121	C	1.021497	-1.038884	0.369497
C122	C	1.354831	-0.705551	0.702831
C123	C	1.688164	-0.372218	1.036164
C124	C	1.021470	-0.968197	0.369489
C125	C	1.354803	-0.634864	0.702822
C126	C	1.688137	-0.301531	1.036155
C127	C	0.978189	-0.932920	0.326160
C128	C	1.311522	-0.599586	0.659493
C129	C	1.644855	-0.266253	0.992826
C130	C	0.978162	-0.856271	0.326147
C131	C	1.311495	-0.522938	0.659481
C132	C	1.644829	-0.189605	0.992814
C133	C	0.978144	-0.795179	0.326141
C134	C	1.311477	-0.461846	0.659474
C135	C	1.644811	-0.128513	0.992808
C136	C	1.154653	-0.326082	0.326146
C137	C	1.487987	0.007251	0.659480
C138	C	1.821320	0.340584	0.992813
C139	C	1.229885	-0.326088	0.326156
C140	C	1.563219	0.007245	0.659489
C141	C	1.896552	0.340579	0.992822
C142	C	0.978149	-0.326026	0.502667
C143	C	1.311482	0.007307	0.836000
C144	C	1.644815	0.340641	1.169333
C145	C	0.978165	-0.326008	0.577899
C146	C	1.311498	0.007325	0.911232
C147	C	1.644832	0.340659	1.244565
C148	C	0.978207	-0.149526	0.326163
C149	C	1.311540	0.183807	0.659497
C150	C	1.644873	0.517141	0.992830
C151	C	0.978248	-0.074294	0.326180
C152	C	1.311581	0.259039	0.659513
C153	C	1.644914	0.592373	0.992847
C154	C	0.978112	-0.326062	0.150268
C155	C	1.311445	0.007271	0.483601
C156	C	1.644779	0.340604	0.816935
C157	C	0.978227	-0.325890	0.075036
C158	C	1.311560	0.007444	0.408370
C159	C	1.644894	0.340777	0.741703
C160	C	1.021480	-0.282719	0.613259
C161	C	1.354813	0.050615	0.946592
C162	C	1.688147	0.383948	1.279926
C163	C	1.021487	-0.282699	0.683948
C164	C	1.354820	0.050634	1.017281
C165	C	1.688153	0.383968	1.350614
C166	C	0.978182	-0.325973	0.719274
C167	C	1.311515	0.007361	1.052608
C168	C	1.644848	0.340694	1.385941
C169	C	0.934862	-0.369264	0.683909
C170	C	1.268195	-0.035930	1.017242
C171	C	1.601529	0.297403	1.350576
C172	C	0.934852	-0.369279	0.613222
C173	C	1.268186	-0.035946	0.946555
C174	C	1.601519	0.297387	1.279888
C175	C	0.934900	-0.369201	0.968982
C176	C	1.268234	-0.035867	1.302316
C177	C	1.601567	0.297466	1.635649
C178	C	0.934915	-0.369183	1.039675
C179	C	1.268248	-0.035850	1.373008
C180	C	1.601582	0.297484	1.706341
C181	C	1.021535	-0.282620	1.039708
C182	C	1.354868	0.050713	1.373042
C183	C	1.688202	0.384046	1.706375
C184	C	1.021525	-0.282636	0.969021
C185	C	1.354858	0.050697	1.302354
C186	C	1.688192	0.384031	1.635688
C187	C	0.978203	-0.325924	0.933662
C188	C	1.311536	0.007409	1.266995
C189	C	1.644870	0.340742	1.600328
C190	C	0.978195	-0.325944	0.857013
C191	C	1.311529	0.007389	1.190347
C192	C	1.644862	0.340723	1.523680
C193	C	0.978193	-0.325957	0.795922
C194	C	1.311526	0.007377	1.129255
C195	C	1.644859	0.340710	1.462588
H196	H	0.720456	-0.404707	0.404500
H197	H	1.053790	-0.071374	0.737833
H198	H	1.387123	0.261959	1.071167
H199	H	0.236451	-0.404729	0.404543
H200	H	0.569785	-0.071395	0.737876
H201	H	0.903118	0.261938	1.071210
H202	H	1.056737	-1.067616	0.404780
H203	H	1.390070	-0.734282	0.738113
H204	H	1.723403	-0.400949	1.071447
H205	H	0.364684	-0.247442	0.247744
H206	H	0.698018	0.085891	0.581078
H207	H	1.031351	0.419225	0.914411
C208	C	1.069119	-0.235113	0.574406
C209	C	1.402452	0.098221	0.907739
C210	C	1.735786	0.431554	1.241073
N211	N	1.105000	-0.199252	0.545144
N212	N	1.438333	0.134081	0.878477
N213	N	1.771667	0.467415	1.211811
C214	C	0.887204	-0.416902	0.574326
C215	C	1.220537	-0.083569	0.907659
C216	C	1.553870	0.249764	1.240992
N217	N	0.851312	-0.452772	0.545030
N218	N	1.184645	-0.119439	0.878363
N219	N	1.517979	0.213895	1.211697
H220	H	1.056556	-0.583611	0.404715
H221	H	1.389889	-0.250277	0.738049
H222	H	1.723223	0.083056	1.071382
C223	C	0.582122	-0.417109	0.416851
C224	C	0.915456	-0.083776	0.750185
C225	C	1.248789	0.249558	1.083518
N226	N	0.552845	-0.453040	0.452643
N227	N	0.886178	-0.119707	0.785976
N228	N	1.219511	0.213627	1.119310
H229	H	0.364696	-0.404723	0.404531
H230	H	0.698029	-0.071390	0.737864
H231	H	1.031363	0.261944	1.071198
C232	C	0.582109	-0.235044	0.235387
C233	C	0.915442	0.098289	0.568720
C234	C	1.248776	0.431622	0.902053
N235	N	0.552823	-0.199134	0.199589
N236	N	0.886156	0.134199	0.532922
N237	N	1.219489	0.467532	0.866255
H238	H	0.899569	-0.583838	0.247510
H239	H	1.232902	-0.250505	0.580843
H240	H	1.566236	0.082829	0.914176
C241	C	0.887243	-0.416817	0.930097
C242	C	1.220576	-0.083484	1.263430
C243	C	1.553909	0.249850	1.596763
N244	N	0.851344	-0.452683	0.900805
N245	N	1.184677	-0.119350	1.234139
N246	N	1.518010	0.213984	1.567472
H247	H	0.236450	-0.247448	0.247758
H248	H	0.569784	0.085885	0.581092
H249	H	0.903117	0.419219	0.914425
H250	H	1.056760	-0.247450	0.712735
H251	H	1.390093	0.085883	1.046068
H252	H	1.723426	0.419217	1.379402
C253	C	1.069161	-0.235029	0.930165
C254	C	1.402494	0.098304	1.263499
C255	C	1.735828	0.431638	1.596832
N256	N	1.105039	-0.199167	0.900900
N257	N	1.438372	0.134166	1.234234
N258	N	1.771705	0.467499	1.567567
C259	C	0.730554	-0.235036	0.235369
C260	C	1.063888	0.098297	0.568702
C261	C	1.397221	0.431630	0.902036
N262	N	0.759834	-0.199120	0.199564
N263	N	1.093167	0.134214	0.532897
N264	N	1.426500	0.467547	0.866231
H265	H	0.899600	-0.404495	0.712678
H266	H	1.232933	-0.071162	1.046011
H267	H	1.566267	0.262171	1.379344
H268	H	0.899648	-0.404423	1.068436
H269	H	1.232981	-0.071090	1.401769
H270	H	1.566314	0.262244	1.735102
H271	H	1.056605	-0.711845	0.404732
H272	H	1.389938	-0.378511	0.738066
H273	H	1.723271	-0.045178	1.071399
H274	H	0.899705	-0.939604	0.247554
H275	H	1.233038	-0.606271	0.580888
H276	H	1.566371	-0.272938	0.914221
C277	C	1.069049	-0.929252	0.417141
C278	C	1.402382	-0.595919	0.750474
C279	C	1.735715	-0.262585	1.083808
N280	N	1.104886	-0.899919	0.453034
N281	N	1.438219	-0.566586	0.786368
N282	N	1.771553	-0.233253	1.119701
C283	C	0.887395	-1.077962	0.235192
C284	C	1.220728	-0.744628	0.568525
C285	C	1.554061	-0.411295	0.901858
N286	N	0.851558	-1.107297	0.199300
N287	N	1.184891	-0.773964	0.532634
N288	N	1.518225	-0.440631	0.865967
H289	H	0.899620	-0.712084	0.247531
H290	H	1.232954	-0.378750	0.580864
H291	H	1.566287	-0.045417	0.914198
H292	H	1.056807	-0.247370	1.068506
H293	H	1.390141	0.085963	1.401839
H294	H	1.723474	0.419296	1.735173
