data_functionalizedCrystal
_audit_creation_method	'MofGen! by Chris Wilmer'
_symmetry_space_group_name_H-M	'P1'
_symmetry_Int_Tables_number	1
_symmetry_cell_setting	triclinic
loop_
_symmetry_equiv_pos_as_xyz
  x,y,z
_cell_length_a	26.210047
_cell_length_b	14.971486
_cell_length_c	27.732025
_cell_angle_alpha	96.876201
_cell_angle_beta	89.991759
_cell_angle_gamma	89.980506
loop_
_atom_site_label
_atom_site_type_symbol
_atom_site_fract_x
_atom_site_fract_y
_atom_site_fract_z
O1	O	0.042353	-1.185966	0.062990
O2	O	0.542353	-0.685966	0.562990
O3	O	0.042365	-0.925445	0.070533
O4	O	0.542365	-0.425445	0.570533
O5	O	0.042375	-1.063807	-0.003599
O6	O	0.542375	-0.563807	0.496401
O7	O	0.042344	-1.047604	0.137122
O8	O	0.542344	-0.547604	0.637122
O9	O	-0.042484	-1.063744	-0.003600
O10	O	0.457516	-0.563744	0.496400
O11	O	-0.042493	-0.925382	0.070532
O12	O	0.457507	-0.425382	0.570532
O13	O	-0.042505	-1.185902	0.062989
O14	O	0.457495	-0.685902	0.562989
Cu15	Cu	-0.050247	-1.055636	0.066760
Cu16	Cu	0.449753	-0.555636	0.566760
Cu17	Cu	0.050108	-1.055711	0.066762
Cu18	Cu	0.550108	-0.555711	0.566762
O19	O	-0.042514	-1.047540	0.137121
O20	O	0.457486	-0.547540	0.637121
C21	C	-0.000062	-0.892094	0.070195
C22	C	0.499938	-0.392094	0.570195
C23	C	-0.000056	-0.792813	0.069184
C24	C	0.499944	-0.292813	0.569184
C25	C	-0.000049	-1.063438	-0.021608
C26	C	0.499951	-0.563438	0.478392
C27	C	-0.000034	-1.062424	-0.075268
C28	C	0.499966	-0.562424	0.424732
N29	N	-0.120831	-1.055589	0.066759
N30	N	0.379169	-0.555589	0.566759
C31	C	-0.526802	-0.994386	0.099571
C32	C	-0.026802	-0.494386	0.599571
C33	C	-0.313144	-0.994343	0.099571
C34	C	0.186856	-0.494343	0.599571
O35	O	-0.285529	-0.942200	0.127464
O36	O	0.214471	-0.442200	0.627464
N37	N	-0.286415	-1.055618	0.066758
N38	N	0.213585	-0.555618	0.566758
C39	C	-0.313103	-1.116904	0.033939
C40	C	0.186897	-0.616904	0.533939
O41	O	-0.285466	-1.169015	0.006026
O42	O	0.214534	-0.669015	0.506026
C43	C	-0.526761	-1.116942	0.033937
C44	C	-0.026761	-0.616942	0.533937
C45	C	-0.553487	-1.055669	0.066757
C46	C	-0.053487	-0.555669	0.566757
C47	C	-0.553529	-0.933118	0.132388
C48	C	-0.053529	-0.433118	0.632388
C49	C	-0.606940	-0.933133	0.132389
C50	C	-0.106940	-0.433133	0.632389
C51	C	-0.633625	-0.994416	0.099574
C52	C	-0.133625	-0.494416	0.599574
C53	C	-0.606899	-1.055684	0.066758
C54	C	-0.106899	-0.555684	0.566758
C55	C	-0.553449	-1.178223	0.001117
C56	C	-0.053449	-0.678223	0.501117
C57	C	-0.606867	-1.178225	0.001119
C58	C	-0.106867	-0.678225	0.501119
C59	C	-0.633593	-1.116953	0.033938
C60	C	-0.133593	-0.616953	0.533938
C61	C	-0.686995	-1.116981	0.033945
C62	C	-0.186995	-0.616981	0.533945
N63	N	-0.713724	-1.055707	0.066758
N64	N	-0.213724	-0.555707	0.566758
C65	C	-0.687039	-0.994424	0.099573
C66	C	-0.187039	-0.494424	0.599573
C67	C	-0.200930	-1.116881	0.033943
C68	C	0.299070	-0.616881	0.533943
C69	C	-0.147516	-1.116872	0.033944
C70	C	0.352484	-0.616872	0.533944
C71	C	-0.147560	-0.994311	0.099576
C72	C	0.352440	-0.494311	0.599576
C73	C	-0.200975	-0.994324	0.099577
C74	C	0.299025	-0.494324	0.599577
C75	C	-0.227659	-1.055606	0.066757
C76	C	0.272341	-0.555606	0.566757
C77	C	-0.799207	-0.994460	0.099574
C78	C	-0.299207	-0.494460	0.599574
C79	C	-0.852623	-0.994482	0.099574
C80	C	-0.352623	-0.494482	0.599574
C81	C	-0.852575	-1.117041	0.033941
C82	C	-0.352575	-0.617041	0.533941
C83	C	-0.799163	-1.117022	0.033942
C84	C	-0.299163	-0.617022	0.533942
C85	C	-0.772481	-1.055724	0.066761
C86	C	-0.272481	-0.555724	0.566761
O87	O	-0.714643	-1.169091	0.006063
O88	O	-0.214643	-0.669091	0.506063
O89	O	-0.714686	-0.942308	0.127475
O90	O	-0.214686	-0.442308	0.627475
C91	C	-0.473391	-0.994372	0.099570
C92	C	0.026609	-0.494372	0.599570
C93	C	-0.446664	-1.055640	0.066754
C94	C	0.053336	-0.555640	0.566754
C95	C	-0.473349	-1.116923	0.033939
C96	C	0.026651	-0.616923	0.533939
C97	C	-0.393250	-1.055632	0.066755
C98	C	0.106750	-0.555632	0.566755
C99	C	-0.366565	-0.994349	0.099570
C100	C	0.133435	-0.494349	0.599570
C101	C	-0.393294	-0.933074	0.132383
C102	C	0.106706	-0.433074	0.632383
C103	C	-0.446706	-0.933089	0.132385
C104	C	0.053294	-0.433089	0.632385
C105	C	-0.446620	-1.178198	0.001125
C106	C	0.053380	-0.678198	0.501125
C107	C	-0.393209	-1.178179	0.001127
C108	C	0.106791	-0.678179	0.501127
C109	C	-0.366524	-1.116896	0.033942
C110	C	0.133476	-0.616896	0.533942
N111	N	0.120692	-1.055765	0.066759
N112	N	0.620692	-0.555765	0.566759
C113	C	-0.000076	-1.219253	0.063327
C114	C	0.499924	-0.719253	0.563327
C115	C	-0.000078	-1.318534	0.064338
C116	C	0.499922	-0.818534	0.564338
C117	C	-0.000066	-0.734893	0.112735
C118	C	0.499934	-0.234893	0.612735
C119	C	-0.000074	-0.641609	0.111782
C120	C	0.499926	-0.141609	0.611782
C121	C	-0.000068	-0.606247	0.067278
C122	C	0.499932	-0.106247	0.567278
C123	C	-0.000059	-0.664174	0.023725
C124	C	0.499941	-0.164174	0.523725
C125	C	-0.000055	-0.757456	0.024678
C126	C	0.499945	-0.257456	0.524678
C127	C	-0.000066	-0.469743	0.021741
C128	C	0.499934	0.030257	0.521741
C129	C	-0.000068	-0.376454	0.020787
C130	C	0.499932	0.123546	0.520787
C131	C	-0.000084	-0.353896	0.108845
C132	C	0.499916	0.146104	0.608845
C133	C	-0.000080	-0.447178	0.109798
C134	C	0.499920	0.052822	0.609798
C135	C	-0.000071	-0.505099	0.066244
C136	C	0.499929	-0.005099	0.566244
C137	C	0.046193	-1.055248	-0.458466
C138	C	0.546193	-0.555248	0.041534
C139	C	0.046209	-1.059046	-0.256789
C140	C	0.546209	-0.559046	0.243211
O141	O	0.085549	-1.059602	-0.230719
O142	O	0.585549	-0.559602	0.269281
N143	N	-0.000046	-1.059486	-0.231566
N144	N	0.499954	-0.559486	0.268434
C145	C	-0.046308	-1.058982	-0.256766
C146	C	0.453692	-0.558982	0.243234
O147	O	-0.085650	-1.059453	-0.230686
O148	O	0.414350	-0.559453	0.269314
C149	C	-0.046324	-1.055191	-0.458443
C150	C	0.453676	-0.555191	0.041557
C151	C	-0.000066	-1.054742	-0.483662
C152	C	0.499934	-0.554742	0.016338
C153	C	0.092447	-1.054800	-0.483686
C154	C	0.592447	-0.554800	0.016314
C155	C	0.092442	-1.053846	-0.534102
C156	C	0.592442	-0.553846	-0.034102
C157	C	0.046183	-1.053339	-0.559298
C158	C	0.546183	-0.553339	-0.059298
C159	C	-0.000071	-1.053788	-0.534078
C160	C	0.499929	-0.553788	-0.034078
C161	C	-0.092585	-1.054694	-0.483642
C162	C	0.407415	-0.554694	0.016358
C163	C	-0.092585	-1.053748	-0.534065
C164	C	0.407415	-0.553748	-0.034065
C165	C	-0.046328	-1.053299	-0.559284
C166	C	0.453672	-0.553299	-0.059284
C167	C	-0.046334	-1.052327	-0.609690
C168	C	0.453666	-0.552327	-0.109690
N169	N	-0.000079	-1.051887	-0.634913
N170	N	0.499921	-0.551887	-0.134913
C171	C	0.046180	-1.052393	-0.609717
C172	C	0.546180	-0.552393	-0.109717
C173	C	-0.046297	-1.060971	-0.150883
C174	C	0.453703	-0.560971	0.349117
C175	C	-0.046293	-1.061917	-0.100464
C176	C	0.453707	-0.561917	0.399536
C177	C	0.046224	-1.061983	-0.100491
C178	C	0.546224	-0.561983	0.399509
C179	C	0.046220	-1.061030	-0.150910
C180	C	0.546220	-0.561030	0.349090
C181	C	-0.000042	-1.060531	-0.176106
C182	C	0.499958	-0.560531	0.323894
C183	C	0.046167	-1.050388	-0.715594
C184	C	0.546167	-0.550388	-0.215594
C185	C	0.046158	-1.049430	-0.766014
C186	C	0.546158	-0.549430	-0.266014
C187	C	-0.046359	-1.049370	-0.765983
C188	C	0.453641	-0.549370	-0.265983
C189	C	-0.046350	-1.050323	-0.715567
C190	C	0.453650	-0.550323	-0.215567
C191	C	-0.000084	-1.050835	-0.690374
C192	C	0.499916	-0.550835	-0.190374
O193	O	-0.085653	-1.051780	-0.635792
O194	O	0.414347	-0.551780	-0.135792
O195	O	0.085516	-1.051942	-0.635807
O196	O	0.585516	-0.551942	-0.135807
C197	C	0.046197	-1.056202	-0.408050
C198	C	0.546197	-0.556202	0.091950
C199	C	-0.000057	-1.056650	-0.382831
C200	C	0.499943	-0.556650	0.117169
C201	C	-0.046316	-1.056144	-0.408027
C202	C	0.453684	-0.556144	0.091973
C203	C	-0.000053	-1.057597	-0.332412
C204	C	0.499947	-0.557597	0.167588
C205	C	0.046205	-1.058103	-0.307215
C206	C	0.546205	-0.558103	0.192785
C207	C	0.092460	-1.057663	-0.332438
C208	C	0.592460	-0.557663	0.167562
C209	C	0.092456	-1.056709	-0.382854
C210	C	0.592456	-0.556709	0.117146
C211	C	-0.092570	-1.056584	-0.382804
C212	C	0.407430	-0.556584	0.117196
C213	C	-0.092562	-1.057538	-0.332388
C214	C	0.407438	-0.557538	0.167612
C215	C	-0.046303	-1.058044	-0.307192
C216	C	0.453697	-0.558044	0.192808
C217	C	-0.000089	-1.047909	0.155130
C218	C	0.499911	-0.547909	0.655130
C219	C	-0.000101	-1.048924	0.208790
C220	C	0.499899	-0.548924	0.708790
H221	H	-0.874382	-0.944587	0.126301
H222	H	-0.374382	-0.444587	0.626301
Cl223	Cl	-0.000097	-0.281082	0.163598
Cl224	Cl	0.499903	0.218918	0.663598
Cl225	Cl	-0.765672	-0.917400	0.140833
Cl226	Cl	-0.265672	-0.417400	0.640833
H227	H	-0.000071	-0.763677	0.148975
H228	H	0.499929	-0.263677	0.648975
Cl229	Cl	-0.765566	-1.194062	-0.007312
Cl230	Cl	-0.265566	-0.694062	0.492688
H231	H	-0.628698	-0.883237	0.159112
H232	H	-0.128698	-0.383237	0.659112
H233	H	-0.628590	-1.228128	-0.025609
H234	H	-0.128590	-0.728128	0.474391
Cl235	Cl	0.150613	-1.058300	-0.300753
Cl236	Cl	0.650613	-0.558300	0.199247
H237	H	-0.531807	-0.883210	0.159109
H238	H	-0.031807	-0.383210	0.659109
Cl239	Cl	-0.150730	-1.055945	-0.414471
Cl240	Cl	0.349270	-0.555945	0.085529
H241	H	-0.222733	-0.944430	0.126301
H242	H	0.277267	-0.444430	0.626301
H243	H	0.130110	-1.053486	-0.554631
H244	H	0.630110	-0.553486	-0.054631
H245	H	-0.000047	-0.804615	-0.010785
H246	H	0.499953	-0.304615	0.489215
Cl247	Cl	-0.000083	-0.491633	0.165747
Cl248	Cl	0.499917	0.008367	0.665747
Cl249	Cl	-0.114003	-0.917269	0.140828
Cl250	Cl	0.385997	-0.417269	0.640828
H251	H	-0.000082	-0.594454	0.147245
H252	H	0.499918	-0.094454	0.647245
Cl253	Cl	-0.000077	-0.332000	-0.035161
Cl254	Cl	0.499923	0.168000	0.464839
H255	H	0.083887	-1.060662	-0.171440
H256	H	0.583887	-0.560662	0.328560
Cl257	Cl	-0.113923	-1.193916	-0.007309
Cl258	Cl	0.386077	-0.693916	0.492691
Cl259	Cl	-0.000055	-0.542557	-0.033014
Cl260	Cl	0.499945	-0.042557	0.466986
H261	H	0.083841	-1.050806	-0.695087
H262	H	0.583841	-0.550806	-0.195087
Cl263	Cl	-0.000054	-0.619718	-0.032223
Cl264	Cl	0.499946	-0.119718	0.467777
Cl265	Cl	-0.886130	-1.194080	-0.007310
Cl266	Cl	-0.386130	-0.694080	0.492690
Cl267	Cl	0.150608	-1.055436	-0.452020
Cl268	Cl	0.650608	-0.555436	0.047980
Cl269	Cl	-0.480298	-0.856055	0.173645
Cl270	Cl	0.019702	-0.356055	0.673645
H271	H	-0.222653	-1.166786	0.007217
H272	H	0.277347	-0.666786	0.507217
Cl273	Cl	0.104315	-1.048864	-0.797715
Cl274	Cl	0.604315	-0.548864	-0.297715
H275	H	-0.531696	-1.228116	-0.025607
H276	H	-0.031696	-0.728116	0.474393
Cl277	Cl	-0.150742	-1.055248	-0.451949
Cl278	Cl	0.349258	-0.555248	0.048051
Cl279	Cl	-0.104461	-1.060338	-0.182550
Cl280	Cl	0.395539	-0.560338	0.317450
Cl281	Cl	-0.359737	-0.856036	0.173637
Cl282	Cl	0.140263	-0.356036	0.673637
Cl283	Cl	-0.359616	-1.255218	-0.040134
Cl284	Cl	0.140384	-0.755218	0.459866
H285	H	0.083890	-1.062389	-0.079967
H286	H	0.583890	-0.562389	0.420033
Cl287	Cl	-0.104448	-1.062461	-0.068764
Cl288	Cl	0.395552	-0.562461	0.431236
H289	H	-0.468343	-1.228101	-0.025597
H290	H	0.031657	-0.728101	0.474403
Cl291	Cl	-0.150747	-1.053124	-0.565737
Cl292	Cl	0.349253	-0.553124	-0.065737
Cl293	Cl	-0.104504	-1.050887	-0.683862
Cl294	Cl	0.395496	-0.550887	-0.183862
Cl295	Cl	-0.104509	-1.048726	-0.797667
Cl296	Cl	0.395491	-0.548726	-0.297667
H297	H	0.130124	-1.056343	-0.403383
H298	H	0.630124	-0.556343	0.096617
H299	H	-0.130234	-1.057895	-0.311858
H300	H	0.369766	-0.557895	0.188142
