data_functionalizedCrystal
_audit_creation_method	'MofGen! by Chris Wilmer'
_symmetry_space_group_name_H-M	'P1'
_symmetry_Int_Tables_number	1
_symmetry_cell_setting	triclinic
loop_
_symmetry_equiv_pos_as_xyz
  x,y,z
_cell_length_a	13.897449
_cell_length_b	18.215405
_cell_length_c	18.215399
_cell_angle_alpha	89.969449
_cell_angle_beta	89.981468
_cell_angle_gamma	90.026165
loop_
_atom_site_label
_atom_site_type_symbol
_atom_site_fract_x
_atom_site_fract_y
_atom_site_fract_z
Zn1	Zn	1.474633	-0.292967	-0.416077
Zn2	Zn	1.807967	0.040367	-0.082744
Zn3	Zn	2.141300	0.373700	0.250590
Zn4	Zn	1.474513	-0.416038	-0.293005
Zn5	Zn	1.807847	-0.082705	0.040328
Zn6	Zn	2.141180	0.250629	0.373662
Zn7	Zn	1.313329	-0.292993	-0.293027
Zn8	Zn	1.646662	0.040341	0.040306
Zn9	Zn	1.979995	0.373674	0.373639
Zn10	Zn	1.313284	-0.415999	-0.416033
Zn11	Zn	1.646617	-0.082665	-0.082700
Zn12	Zn	1.979951	0.250668	0.250634
O13	O	1.393940	-0.354499	-0.354536
O14	O	1.727273	-0.021166	-0.021202
O15	O	2.060607	0.312168	0.312131
O16	O	1.609599	-0.309298	-0.399761
O17	O	1.942932	0.024035	-0.066427
O18	O	2.276266	0.357369	0.266906
O19	O	1.453100	-0.399743	-0.190024
O20	O	1.786434	-0.066410	0.143310
O21	O	2.119767	0.266924	0.476643
O22	O	1.334795	-0.190005	-0.309378
O23	O	1.668128	0.143328	0.023956
O24	O	2.001462	0.476662	0.357289
O25	O	1.609511	-0.399718	-0.309340
O26	O	1.942844	-0.066385	0.023993
O27	O	2.276178	0.266949	0.357326
O28	O	1.453305	-0.189986	-0.399782
O29	O	1.786638	0.143347	-0.066449
O30	O	2.119972	0.476681	0.266885
O31	O	1.334679	-0.309342	-0.190040
O32	O	1.668012	0.023991	0.143293
O33	O	2.001345	0.357325	0.476627
O34	O	1.178341	-0.309304	-0.309335
O35	O	1.511675	0.024029	0.023998
O36	O	1.845008	0.357363	0.357332
O37	O	1.334719	-0.399651	-0.519023
O38	O	1.668052	-0.066318	-0.185690
O39	O	2.001386	0.267016	0.147644
O40	O	1.178308	-0.399676	-0.399707
O41	O	1.511642	-0.066343	-0.066373
O42	O	1.844975	0.266990	0.266960
O43	O	1.453262	-0.309260	-0.519055
O44	O	1.786595	0.024073	-0.185722
O45	O	2.119928	0.357407	0.147611
O46	O	1.453057	-0.519017	-0.309297
O47	O	1.786390	-0.185684	0.024036
O48	O	2.119724	0.147650	0.357369
O49	O	1.334602	-0.518988	-0.399685
O50	O	1.667936	-0.185655	-0.066352
O51	O	2.001269	0.147678	0.266981
C52	C	1.393838	-0.545705	-0.354500
C53	C	1.727171	-0.212372	-0.021167
C54	C	2.060505	0.120961	0.312167
C55	C	1.393883	-0.627504	-0.354510
C56	C	1.727216	-0.294171	-0.021176
C57	C	2.060549	0.039162	0.312157
C58	C	1.143326	-0.354489	-0.354519
C59	C	1.476659	-0.021156	-0.021185
C60	C	1.809992	0.312177	0.312148
C61	C	1.036112	-0.354503	-0.354529
C62	C	1.369445	-0.021169	-0.021196
C63	C	1.702778	0.312164	0.312138
C64	C	1.455707	-0.815689	-0.307531
C65	C	1.789040	-0.482355	0.025802
C66	C	2.122373	-0.149022	0.359135
C67	C	1.455750	-0.892547	-0.307549
C68	C	1.789083	-0.559214	0.025784
C69	C	2.122417	-0.225881	0.359118
C70	C	1.332296	-0.892557	-0.401593
C71	C	1.665630	-0.559224	-0.068259
C72	C	1.998963	-0.225891	0.265074
C73	C	1.332259	-0.815700	-0.401578
C74	C	1.665592	-0.482367	-0.068245
C75	C	1.998926	-0.149033	0.265089
C76	C	1.393963	-0.777268	-0.354543
C77	C	1.727296	-0.443934	-0.021210
C78	C	2.060629	-0.110601	0.312123
C79	C	1.394043	-0.930984	-0.354576
C80	C	1.727377	-0.597650	-0.021242
C81	C	2.060710	-0.264317	0.312091
C82	C	1.394090	-1.014317	-0.354595
C83	C	1.727423	-0.680984	-0.021262
C84	C	2.060756	-0.347651	0.312071
C85	C	1.393918	-0.693929	-0.354524
C86	C	1.727251	-0.360595	-0.021191
C87	C	2.060585	-0.027262	0.312142
C88	C	0.839817	-0.354505	-0.354548
C89	C	1.173150	-0.021172	-0.021215
C90	C	1.506483	0.312161	0.312118
C91	C	0.949049	-0.354502	-0.354536
C92	C	1.282382	-0.021168	-0.021202
C93	C	1.615716	0.312165	0.312131
C94	C	1.645533	-0.354509	-0.354553
C95	C	1.978866	-0.021176	-0.021219
C96	C	2.312199	0.312157	0.312114
C97	C	1.752747	-0.354514	-0.354560
C98	C	2.086080	-0.021181	-0.021227
C99	C	2.419413	0.312153	0.312106
C100	C	1.393999	-0.354448	-0.546489
C101	C	1.727332	-0.021115	-0.213155
C102	C	2.060665	0.312218	0.120178
C103	C	1.394024	-0.354427	-0.628288
C104	C	1.727357	-0.021093	-0.294954
C105	C	2.060690	0.312240	0.038379
C106	C	1.394068	-0.162546	-0.354587
C107	C	1.727402	0.170787	-0.021254
C108	C	2.060735	0.504121	0.312079
C109	C	1.394123	-0.080747	-0.354609
C110	C	1.727457	0.252586	-0.021276
C111	C	2.060790	0.585920	0.312057
C112	C	1.455771	-0.307316	-0.816500
C113	C	1.789104	0.026017	-0.483166
C114	C	2.122438	0.359351	-0.149833
C115	C	1.455783	-0.307295	-0.893358
C116	C	1.789116	0.026039	-0.560025
C117	C	2.122449	0.359372	-0.226692
C118	C	1.332345	-0.401424	-0.893313
C119	C	1.665678	-0.068090	-0.559980
C120	C	1.999011	0.265243	-0.226647
C121	C	1.332329	-0.401441	-0.816456
C122	C	1.665662	-0.068107	-0.483123
C123	C	1.998996	0.265226	-0.149789
C124	C	1.394048	-0.354388	-0.778051
C125	C	1.727381	-0.021055	-0.444718
C126	C	2.060714	0.312279	-0.111384
C127	C	1.394075	-0.354349	-0.931767
C128	C	1.727408	-0.021016	-0.598434
C129	C	2.060741	0.312317	-0.265101
C130	C	1.394087	-0.354326	-1.015101
C131	C	1.727420	-0.020993	-0.681768
C132	C	2.060753	0.312340	-0.348434
C133	C	1.394035	-0.354410	-0.694712
C134	C	1.727368	-0.021076	-0.361379
C135	C	2.060701	0.312257	-0.028045
C136	C	1.393937	-0.354496	-0.163329
C137	C	1.727270	-0.021163	0.170004
C138	C	2.060604	0.312170	0.503337
C139	C	1.394099	-0.354311	-0.081531
C140	C	1.727432	-0.020977	0.251802
C141	C	2.060765	0.312356	0.585136
H142	H	1.506030	-0.923826	-0.269268
H143	H	1.839363	-0.590493	0.064065
H144	H	2.172696	-0.257160	0.397398
H145	H	1.506024	-0.269001	-0.785233
H146	H	1.839357	0.064333	-0.451899
H147	H	2.172690	0.397666	-0.118566
H148	H	1.282058	-0.923858	-0.439886
H149	H	1.615391	-0.590525	-0.106552
H150	H	1.948725	-0.257192	0.226781
C151	C	1.577802	-0.214263	-0.885678
C152	C	1.911136	0.119070	-0.552344
C153	C	2.244469	0.452403	-0.219011
C154	C	1.523636	-0.255555	-0.935621
C155	C	1.856969	0.077778	-0.602288
C156	C	2.190303	0.411112	-0.268954
H157	H	1.619697	-0.182323	-0.911770
H158	H	1.953030	0.151010	-0.578437
H159	H	2.286363	0.484343	-0.245104
H160	H	1.535790	-0.186120	-0.855705
H161	H	1.869123	0.147214	-0.522371
H162	H	2.202457	0.480547	-0.189038
H163	H	1.614668	-0.246346	-0.855695
H164	H	1.948002	0.086988	-0.522362
H165	H	2.281335	0.420321	-0.189029
H166	H	1.486764	-0.223473	-0.965600
H167	H	1.820098	0.109861	-0.632267
H168	H	2.153431	0.443194	-0.298933
H169	H	1.565654	-0.283701	-0.965607
H170	H	1.898987	0.049633	-0.632273
H171	H	2.232320	0.382966	-0.298940
C172	C	1.277564	-0.443197	-1.011111
C173	C	1.610897	-0.109863	-0.677778
C174	C	1.944231	0.223470	-0.344444
C175	C	1.264513	-0.453148	-0.935531
C176	C	1.597847	-0.119814	-0.602197
C177	C	1.931180	0.213519	-0.268864
H178	H	1.235691	-0.475135	-1.037171
H179	H	1.569024	-0.141801	-0.703838
H180	H	1.902358	0.191532	-0.370505
H181	H	1.263478	-0.393753	-1.023717
H182	H	1.596811	-0.060420	-0.690384
H183	H	1.930144	0.272913	-0.357050
H184	H	1.342373	-0.453966	-1.023703
H185	H	1.675706	-0.120633	-0.690370
H186	H	2.009040	0.212700	-0.357036
H187	H	1.199705	-0.442373	-0.922938
H188	H	1.533039	-0.109040	-0.589605
H189	H	1.866372	0.224294	-0.256271
H190	H	1.278593	-0.502603	-0.922920
H191	H	1.611926	-0.169269	-0.589586
H192	H	1.945259	0.164064	-0.256253
C193	C	1.202552	-0.411684	-0.730005
C194	C	1.535885	-0.078351	-0.396672
C195	C	1.869218	0.254982	-0.063339
C196	C	1.264476	-0.453187	-0.774189
C197	C	1.597810	-0.119854	-0.440855
C198	C	1.931143	0.213480	-0.107522
H199	H	1.160660	-0.443629	-0.703916
H200	H	1.493993	-0.110295	-0.370582
H201	H	1.827327	0.223038	-0.037249
H202	H	1.239302	-0.383669	-0.696137
H203	H	1.572636	-0.050336	-0.362804
H204	H	1.905969	0.282998	-0.029471
H205	H	1.165684	-0.379617	-0.760003
H206	H	1.499018	-0.046283	-0.426669
H207	H	1.832351	0.287050	-0.093336
H208	H	1.301349	-0.485251	-0.744191
H209	H	1.634682	-0.151918	-0.410857
H210	H	1.968016	0.181416	-0.077524
H211	H	1.227722	-0.481215	-0.808061
H212	H	1.561055	-0.147881	-0.474727
H213	H	1.894388	0.185452	-0.141394
C214	C	1.285152	-0.791976	-0.526158
C215	C	1.618485	-0.458642	-0.192824
C216	C	1.951819	-0.125309	0.140509
C217	C	1.264383	-0.773463	-0.453258
C218	C	1.597716	-0.440130	-0.119925
C219	C	1.931049	-0.106796	0.213409
H220	H	1.243247	-0.765903	-0.558061
H221	H	1.576581	-0.432570	-0.224727
H222	H	1.909914	-0.099236	0.108606
H223	H	1.349939	-0.779330	-0.536966
H224	H	1.683273	-0.445996	-0.203632
H225	H	2.016606	-0.112663	0.129701
H226	H	1.276337	-0.843250	-0.532888
H227	H	1.609671	-0.509917	-0.199555
H228	H	1.943004	-0.176584	0.133779
H229	H	1.273204	-0.722189	-0.446526
H230	H	1.606537	-0.388856	-0.113193
H231	H	1.939871	-0.055522	0.220140
H232	H	1.199580	-0.786104	-0.442446
H233	H	1.532913	-0.452771	-0.109113
H234	H	1.866246	-0.119438	0.224221
H235	H	1.505951	-0.784399	-0.269234
H236	H	1.839284	-0.451065	0.064100
H237	H	2.172618	-0.117732	0.397433
