data_functionalizedCrystal
_audit_creation_method	'MofGen! by Chris Wilmer'
_symmetry_space_group_name_H-M	'P1'
_symmetry_Int_Tables_number	1
_symmetry_cell_setting	triclinic
loop_
_symmetry_equiv_pos_as_xyz
  x,y,z
_cell_length_a	13.262533
_cell_length_b	19.188930
_cell_length_c	12.376457
_cell_angle_alpha	101.232575
_cell_angle_beta	94.179852
_cell_angle_gamma	83.818120
loop_
_atom_site_label
_atom_site_type_symbol
_atom_site_fract_x
_atom_site_fract_y
_atom_site_fract_z
O1	O	1.324897	0.138459	0.313319
O2	O	1.038209	0.136189	0.225174
O3	O	1.189822	0.036076	0.271811
O4	O	1.173284	0.238573	0.266682
O5	O	1.151932	0.061068	0.448168
O6	O	1.000319	0.161182	0.401531
O7	O	1.287008	0.163452	0.489676
Zn8	Zn	1.137648	0.166285	0.473604
Zn9	Zn	1.187569	0.133356	0.241246
O10	O	1.135395	0.263565	0.443039
C11	C	0.982586	0.146514	0.302076
C12	C	0.873297	0.140035	0.268475
C13	C	1.170341	0.022535	0.359828
C14	C	1.168730	-0.055047	0.359342
C15	C	0.482606	0.176274	0.558289
C16	C	0.585287	0.182366	0.589864
C17	C	0.657294	0.171783	0.509519
C18	C	0.626611	0.155109	0.397594
C19	C	0.523919	0.149022	0.366016
C20	C	0.698607	0.144531	0.317246
C21	C	0.667925	0.127856	0.205322
C22	C	0.565242	0.121770	0.173749
C23	C	0.493235	0.132353	0.254093
C24	C	0.801299	0.150618	0.348825
C25	C	0.842613	0.123365	0.156552
C26	C	0.739932	0.117274	0.124977
C27	C	1.257693	-0.095624	0.386700
C28	C	1.256186	-0.168524	0.386219
C29	C	1.165705	-0.200841	0.358399
C30	C	1.076732	-0.160255	0.331031
C31	C	1.078244	-0.087358	0.331503
N32	N	1.083649	-0.303719	0.397152
N33	N	1.082218	-0.372968	0.396708
C34	C	1.161144	-0.420475	0.356973
N35	N	1.241567	-0.396117	0.317717
N36	N	1.243000	-0.326861	0.318167
C37	C	1.164056	-0.279885	0.357883
C38	C	1.248479	-0.540100	0.383810
C39	C	1.246969	-0.613002	0.383320
C40	C	1.067511	-0.604730	0.328143
C41	C	1.069025	-0.531830	0.328622
C42	C	1.159511	-0.499519	0.356461
C43	C	1.342631	0.153127	0.412772
C44	C	1.451922	0.159605	0.446366
C45	C	1.154877	0.277106	0.355020
C46	C	1.156488	0.354686	0.355498
N47	N	1.103585	0.188758	0.632184
N48	N	1.221639	0.110878	0.082668
C49	C	1.300710	0.058698	1.047806
C50	C	1.324545	0.042968	0.936798
C51	C	1.269307	0.079414	0.860639
C52	C	1.190230	0.131592	0.895499
C53	C	1.166398	0.147327	1.006520
C54	C	1.134994	0.168044	0.819353
C55	C	1.055918	0.220222	0.854213
C56	C	1.032089	0.235953	0.965223
C57	C	1.087327	0.199507	1.041382
C58	C	1.158827	0.152309	0.708333
C59	C	1.024514	0.240938	0.667046
C60	C	1.000679	0.256667	0.778054
H61	H	0.826270	0.164196	0.439954
H62	H	1.331374	-0.069322	0.409365
F63	F	0.766576	0.178266	0.543127
H64	H	0.610261	0.195942	0.680993
H65	H	1.328633	-0.201569	0.408493
F66	F	1.408701	-0.012559	0.899701
F67	F	0.916522	0.312198	0.815168
H68	H	0.409623	0.127387	0.228391
F69	F	0.919243	0.112107	0.071037
F70	F	0.965725	0.279732	0.585997
H71	H	1.005797	-0.054319	0.309224
F72	F	0.405966	0.187543	0.643783
H73	H	1.288717	0.066605	0.770252
H74	H	1.003063	-0.186572	0.308378
H75	H	0.714935	0.103698	0.033846
H76	H	0.540264	0.108200	0.082612
H77	H	1.322159	-0.513791	0.406473
F78	F	1.341663	-0.656189	0.412433
H79	H	0.993841	-0.631042	0.305486
H80	H	0.996580	-0.498791	0.306350
F81	F	1.359498	0.019920	1.128863
H82	H	1.223211	0.109826	0.679960
H83	H	1.067919	0.212312	1.131774
H84	H	0.967708	0.278445	0.993607
