data_functionalizedCrystal
_audit_creation_method	'MofGen! by Chris Wilmer'
_symmetry_space_group_name_H-M	'P1'
_symmetry_Int_Tables_number	1
_symmetry_cell_setting	triclinic
loop_
_symmetry_equiv_pos_as_xyz
  x,y,z
_cell_length_a	14.446369
_cell_length_b	14.560438
_cell_length_c	14.560438
_cell_angle_alpha	60.005846
_cell_angle_beta	89.999325
_cell_angle_gamma	59.998054
loop_
_atom_site_label
_atom_site_type_symbol
_atom_site_fract_x
_atom_site_fract_y
_atom_site_fract_z
Zr1	Zr	0.891814	1.005143	-0.120345
O2	O	0.744015	1.196736	-0.266970
O3	O	0.937117	0.813556	-0.075416
O4	O	0.937128	1.005141	-0.266991
O5	O	0.744000	1.005151	0.075744
O6	O	1.089465	1.005133	-0.266986
O7	O	0.744003	1.005151	-0.075395
O8	O	1.089445	0.662422	0.075707
O9	O	0.744021	1.347862	-0.266948
O10	O	1.070132	0.892350	-0.056227
O11	O	0.956442	0.892356	0.056563
O12	O	0.956456	1.117923	-0.168992
O13	O	0.842766	1.117929	-0.056202
Zr14	Zr	1.134769	1.005129	0.120714
Zr15	Zr	1.134774	1.005130	-0.120336
Zr16	Zr	0.891809	1.005143	0.120705
Zr17	Zr	0.891823	1.246171	-0.120310
Zr18	Zr	1.134759	0.764102	0.120679
O19	O	1.089466	1.196717	0.075785
O20	O	1.089473	1.196718	-0.266957
O21	O	0.744008	1.196736	0.075772
O22	O	1.282568	0.813536	0.267339
O23	O	1.282575	0.813537	-0.075404
O24	O	0.937110	0.813555	0.267326
O25	O	1.282582	1.005122	-0.075376
O26	O	1.089454	1.005132	0.267360
O27	O	0.937117	1.005140	0.267354
O28	O	1.282579	1.005121	0.075764
O29	O	0.937142	1.347851	-0.266941
O30	O	1.089441	0.662421	0.267310
O31	O	1.282562	0.662411	0.267317
O32	O	1.282565	0.662411	0.075714
O33	O	0.744017	1.347861	-0.075345
O34	O	0.937138	1.347851	-0.075338
O35	O	1.070127	0.892350	0.169361
O36	O	1.183817	0.892344	0.056571
O37	O	1.070141	1.117917	-0.056194
O38	O	0.956451	1.117922	0.056596
C39	C	1.013279	0.703647	0.000140
C40	C	1.013275	0.601325	0.000125
C41	C	0.929360	0.636456	-0.083099
C42	C	0.929378	0.540267	-0.083043
C43	C	1.097231	0.373817	0.083472
C44	C	1.097217	0.470005	0.083410
C45	C	0.832448	0.732555	-0.179232
C46	C	0.832466	0.636366	-0.179176
C47	C	0.709385	1.005153	0.000173
C48	C	0.606242	1.005158	0.000170
C49	C	0.387881	1.147412	-0.070593
C50	C	0.495113	1.147508	-0.070991
C51	C	0.602917	0.934493	-0.051731
C52	C	0.495148	0.935396	-0.052250
C53	C	0.496508	0.932466	0.122922
C54	C	0.602477	0.935147	0.122729
C55	C	1.317197	1.005120	0.000195
C56	C	1.420340	1.005114	0.000199
C57	C	1.013297	1.005137	-0.301333
C58	C	1.013299	1.005137	-0.403665
C59	C	1.013303	1.306625	0.000229
C60	C	1.013308	1.408948	0.000244
C61	C	1.097218	1.005138	-0.451746
C62	C	1.097213	1.005133	-0.547895
C63	C	0.929360	1.005131	-0.547877
C64	C	0.929371	1.005127	-0.451725
C65	C	1.194124	1.005145	-0.451760
C66	C	1.194118	1.005139	-0.547910
C67	C	1.013285	1.005136	0.301702
C68	C	1.013283	1.005135	0.404034
C69	C	1.317185	0.703631	0.000151
C70	C	1.420324	0.601303	0.000140
C71	C	1.013273	0.703647	0.301657
C72	C	1.013267	0.601324	0.403975
C73	C	1.317179	0.703630	0.301668
C74	C	1.420316	0.601302	0.403989
C75	C	0.709404	1.306642	-0.301300
C76	C	0.606267	1.408971	-0.403621
C77	C	0.709397	1.306642	0.000217
C78	C	0.606259	1.408970	0.000229
C79	C	1.013310	1.306626	-0.301289
C80	C	1.013316	1.408948	-0.403606
C81	C	1.409439	0.553229	-0.058741
C82	C	1.506353	0.457088	-0.058755
C83	C	1.625033	0.457100	0.059002
C84	C	1.528120	0.553246	0.059009
C85	C	1.340921	0.553217	-0.126723
C86	C	1.437835	0.457076	-0.126738
C87	C	1.072608	0.553244	0.510923
C88	C	1.072593	0.457106	0.607057
C89	C	0.953894	0.457132	0.489280
C90	C	0.953903	0.553275	0.393149
C91	C	1.141142	0.553225	0.578921
C92	C	1.141127	0.457087	0.675055
C93	C	1.528115	0.553221	0.393188
C94	C	1.625019	0.457078	0.489333
C95	C	1.506311	0.457104	0.607078
C96	C	1.409410	0.553251	0.510934
C97	C	1.596650	0.553201	0.325210
C98	C	1.693554	0.457059	0.421355
H99	H	0.755372	0.792232	-0.162439
H100	H	0.444808	0.985615	-0.142558
H101	H	1.288314	0.643223	-0.216742
C102	C	1.596663	0.674796	0.254706
H103	H	1.530910	0.740031	0.189458
H104	H	1.596661	0.706332	0.298189
H105	H	1.662425	0.653039	0.232956
H106	H	0.681180	0.829828	-0.002653
H107	H	1.276892	0.914748	-0.380483
H108	H	1.165573	0.266887	0.151280
C109	C	0.709428	0.794871	0.200005
H110	H	0.704858	0.754977	0.273447
H111	H	0.714846	0.747227	0.171088
H112	H	0.774574	0.795875	0.203172
H113	H	0.749704	0.647184	-0.170870
H114	H	0.905562	0.418000	0.480480
H115	H	1.103030	0.643231	0.578950
C116	C	1.263695	0.335471	0.745557
H117	H	1.314112	0.350689	0.709311
H118	H	1.282334	0.316976	0.818047
H119	H	1.270256	0.263720	0.752790
C120	C	1.584766	0.504408	0.256406
H121	H	1.646531	0.416148	0.292295
H122	H	1.515628	0.511536	0.251546
H123	H	1.584828	0.555430	0.182929
C124	C	1.762898	0.505846	0.433167
H125	H	1.827583	0.437655	0.499304
H126	H	1.786545	0.533028	0.369439
H127	H	1.717344	0.576946	0.438071
H128	H	1.446633	0.493209	-0.213786
H129	H	0.446485	0.977996	0.166277
C130	C	1.259664	0.504422	0.567121
H131	H	1.312439	0.416162	0.628391
H132	H	1.257372	0.511549	0.498525
H133	H	1.282308	0.555439	0.567184
C134	C	0.605794	1.000800	-0.172574
H135	H	0.609016	1.071538	-0.191579
H136	H	0.670762	0.939915	-0.177430
H137	H	0.539356	1.031884	-0.223272
H138	H	1.095918	0.493217	0.725982
C139	C	0.837067	1.005114	-0.398832
H140	H	0.787078	1.005121	-0.441234
H141	H	0.871548	0.929786	-0.323667
H142	H	0.795611	1.080450	-0.398985
C143	C	0.843737	0.817619	-0.290171
H144	H	0.848401	0.787323	-0.335750
H145	H	0.779419	0.905120	-0.328896
H146	H	0.910380	0.812870	-0.274300
H147	H	1.177193	1.098411	-0.468563
H148	H	1.437827	0.367061	-0.088930
H149	H	0.849399	0.636331	-0.255632
H150	H	1.746158	0.367036	0.421346
C151	C	1.494317	0.404249	0.724712
H152	H	1.416234	0.446665	0.717372
H153	H	1.529650	0.313478	0.764668
H154	H	1.529651	0.420023	0.764662
H155	H	0.905569	0.592431	0.306070
C156	C	1.298247	0.879159	-0.525230
H157	H	1.344625	0.823061	-0.448598
H158	H	1.273926	0.837285	-0.541017
H159	H	1.340443	0.899415	-0.572077
H160	H	1.165558	0.441389	0.151170
C161	C	1.743606	0.404227	0.123760
H162	H	1.799766	0.340075	0.115329
H163	H	1.752106	0.473249	0.094697
H164	H	1.752102	0.366711	0.201221
C165	C	0.601799	1.004731	0.175120
H166	H	0.603808	1.076150	0.122534
H167	H	0.534868	1.035208	0.194145
H168	H	0.666331	0.945760	0.241000
C169	C	1.182825	1.127258	-0.644221
H170	H	1.178172	1.177491	-0.618587
H171	H	1.247138	1.102154	-0.667920
H172	H	1.116176	1.177481	-0.705569
C173	C	0.531139	0.794365	0.012892
H174	H	0.611498	0.736775	0.039547
H175	H	0.504041	0.775633	0.074856
H176	H	0.500095	0.783680	-0.035557
C177	C	1.271580	0.504424	-0.066142
H178	H	1.307760	0.416166	-0.039173
H179	H	1.266683	0.511548	-0.004670
H180	H	1.197515	0.555449	-0.117220
H181	H	0.493354	1.203234	-0.036447
C182	C	0.837041	1.005131	-0.600750
H183	H	0.849049	1.005140	-0.664905
H184	H	0.840518	0.929806	-0.547333
H185	H	0.764594	1.080470	-0.622652
H186	H	0.333926	1.203259	-0.035954
H187	H	0.332900	1.202989	-0.160575
H188	H	0.492670	1.203292	-0.161519
H189	H	1.321638	0.592407	0.519738
H190	H	1.536992	0.592396	0.106943
H191	H	0.523942	0.827642	0.175918
