data_functionalizedCrystal
_audit_creation_method	'MofGen! by Chris Wilmer'
_symmetry_space_group_name_H-M	'P1'
_symmetry_Int_Tables_number	1
_symmetry_cell_setting	triclinic
loop_
_symmetry_equiv_pos_as_xyz
  x,y,z
_cell_length_a	6.817900
_cell_length_b	12.840933
_cell_length_c	11.168134
_cell_angle_alpha	82.581631
_cell_angle_beta	70.712555
_cell_angle_gamma	88.345099
loop_
_atom_site_label
_atom_site_type_symbol
_atom_site_fract_x
_atom_site_fract_y
_atom_site_fract_z
V1	V	-3.925854	0.283479	0.177682
O2	O	-3.887455	0.320310	-0.005477
O3	O	-3.904830	0.240929	0.349369
O4	O	-3.821231	0.425643	0.176292
O5	O	-3.971632	0.134317	0.168798
V6	V	-4.413220	0.270572	0.155615
O7	O	-4.178683	0.311793	0.226087
O8	O	-4.610588	0.242258	0.107210
O9	O	-4.211037	0.313123	-0.016072
O10	O	-4.569015	0.233741	0.338774
O11	O	-4.484838	0.419734	0.164498
O12	O	-4.294636	0.128408	0.157005
C13	C	-3.758310	0.225977	0.391181
C14	C	-3.822032	0.192135	0.531546
C15	C	-4.033036	0.179930	0.603949
C16	C	-4.092939	0.148146	0.735841
C17	C	-3.941835	0.128561	0.795326
C18	C	-3.730813	0.140771	0.722914
C19	C	-3.670914	0.172561	0.591026
C20	C	-3.651682	0.461599	0.170397
C21	C	-3.647528	0.579731	0.170395
C22	C	-4.127526	0.092447	0.162897
C23	C	-4.110530	-0.025685	0.162896
V24	V	-3.908804	0.769641	0.177690
O25	O	-3.943963	0.922934	0.168805
O26	O	-3.814328	0.622784	0.176301
O27	O	-3.886240	0.770719	0.349375
O28	O	-3.871553	0.773975	-0.005468
V29	V	-4.394224	0.812268	0.155631
O30	O	-4.163571	0.742744	0.226099
O31	O	-4.588861	0.861850	0.107229
O32	O	-4.265886	0.947879	0.157017
O33	O	-4.476255	0.664891	0.164518
O34	O	-4.548665	0.813850	0.338790
O35	O	-4.193974	0.799943	-0.016058
C36	C	-4.020901	0.328069	-0.057877
C37	C	-3.936415	0.361918	-0.198241
C38	C	-3.739269	0.768435	0.391177
C39	C	-3.801656	0.772458	0.531541
C40	C	-4.004877	0.785262	-0.057872
C41	C	-3.921766	0.780203	-0.198238
C42	C	-4.001532	0.777981	0.600277
C43	C	-4.066016	0.782139	0.745350
C44	C	-4.070397	0.374126	-0.270644
C45	C	-3.991036	0.405915	-0.402535
C46	C	-3.777693	0.425502	-0.462019
C47	C	-3.643701	0.413290	-0.389608
C48	C	-3.723061	0.381495	-0.257721
H49	H	-4.156101	0.195866	0.555533
H50	H	-4.264771	0.138207	0.794781
C51	C	-3.577861	0.368369	-0.178928
C52	C	-3.636814	0.436280	-0.084978
C53	C	-3.503107	0.424210	-0.012367
H54	H	-3.439384	0.384613	-0.233090
H55	H	-3.585682	0.297867	-0.139219
H56	H	-3.628973	0.506767	-0.124685
H57	H	-3.775270	0.420050	-0.030788
H58	H	-3.510927	0.353707	0.027343
H59	H	-3.364637	0.440453	-0.066539
H60	H	-3.543099	0.470277	0.051394
H61	H	-3.607799	0.124820	0.771367
C62	C	-3.441768	0.185569	0.512444
C63	C	-3.342011	0.089631	0.522785
C64	C	-3.130920	0.101567	0.450409
H65	H	-3.380401	0.237047	0.543417
H66	H	-3.427613	0.207251	0.425347
H67	H	-3.356152	0.067962	0.609865
H68	H	-3.403315	0.038138	0.491804
H69	H	-3.116765	0.123249	0.363311
H70	H	-3.069574	0.153048	0.481388
H71	H	-3.063213	0.036474	0.457405
C72	C	-4.165999	0.779960	0.535522
C73	C	-4.154110	0.688260	0.478051
C74	C	-4.305607	0.690040	0.418403
H75	H	-4.143033	0.839406	0.472150
H76	H	-4.299812	0.783907	0.597430
H77	H	-4.020329	0.684325	0.416149
H78	H	-4.177099	0.628800	0.541395
H79	H	-4.439420	0.693987	0.480311
H80	H	-4.282628	0.749490	0.355038
H81	H	-4.297574	0.627819	0.379412
H82	H	-4.237245	0.786865	0.804440
C83	C	-4.136186	0.419188	-0.481364
C84	C	-4.021044	0.451194	-0.609606
C85	C	-4.154683	0.463419	-0.682258
H86	H	-4.236514	0.470753	-0.450467
H87	H	-4.204596	0.354192	-0.474567
H88	H	-3.952668	0.516181	-0.616396
H89	H	-3.920723	0.399642	-0.640541
H90	H	-4.223093	0.398423	-0.675462
H91	H	-4.255004	0.514982	-0.651350
H92	H	-4.076576	0.485126	-0.769280
H93	H	-3.750535	0.775463	0.742683
C94	C	-3.637241	0.770043	0.596380
C95	C	-3.671770	0.682230	0.689561
C96	C	-3.520330	0.679963	0.749302
H97	H	-3.644875	0.832114	0.635578
H98	H	-3.503444	0.765981	0.534493
H99	H	-3.805532	0.686301	0.751438
H100	H	-3.664117	0.620145	0.650396
H101	H	-3.386533	0.675901	0.687415
H102	H	-3.527976	0.742038	0.788492
H103	H	-3.543725	0.620378	0.812523
H104	H	-3.990637	0.102676	0.902719
H105	H	-4.244119	0.358183	-0.222229
H106	H	-3.713100	0.451391	-0.569412
H107	H	-3.469991	0.429242	-0.438061
