data_functionalizedCrystal
_audit_creation_method	'MofGen! by Chris Wilmer'
_symmetry_space_group_name_H-M	'P1'
_symmetry_Int_Tables_number	1
_symmetry_cell_setting	triclinic
loop_
_symmetry_equiv_pos_as_xyz
  x,y,z
_cell_length_a	27.732064
_cell_length_b	15.944551
_cell_length_c	14.421503
_cell_angle_alpha	90.011571
_cell_angle_beta	89.994262
_cell_angle_gamma	96.925919
loop_
_atom_site_label
_atom_site_type_symbol
_atom_site_fract_x
_atom_site_fract_y
_atom_site_fract_z
O1	O	0.062336	-1.113702	0.077006
O2	O	0.562336	-0.613702	0.577006
O3	O	0.070022	-0.869053	0.077028
O4	O	0.570022	-0.369053	0.577028
O5	O	-0.004184	-0.998968	0.077020
O6	O	0.495816	-0.498968	0.577020
O7	O	0.136543	-0.983786	0.077014
O8	O	0.636543	-0.483786	0.577014
O9	O	-0.004179	-0.998984	-0.077203
O10	O	0.495821	-0.498984	0.422797
O11	O	0.070027	-0.869068	-0.077195
O12	O	0.570027	-0.369068	0.422805
O13	O	0.062341	-1.113718	-0.077217
O14	O	0.562341	-0.613718	0.422783
Cu15	Cu	0.066185	-0.991394	-0.091288
Cu16	Cu	0.566185	-0.491394	0.408712
Cu17	Cu	0.066179	-0.991376	0.091099
Cu18	Cu	0.566179	-0.491376	0.591099
O19	O	0.136547	-0.983802	-0.077209
O20	O	0.636547	-0.483802	0.422791
C21	C	0.069706	-0.837771	-0.000080
C22	C	0.569706	-0.337771	0.499920
C23	C	0.068749	-0.744537	-0.000072
C24	C	0.568749	-0.244537	0.499928
C25	C	0.062658	-1.145000	-0.000106
C26	C	0.562658	-0.645000	0.499894
C27	C	0.063614	-1.238233	-0.000109
C28	C	0.563614	-0.738233	0.499891
C29	C	-0.022190	-0.998655	-0.000088
C30	C	0.477810	-0.498655	0.499912
C31	C	-0.075848	-0.997689	-0.000080
C32	C	0.424152	-0.497689	0.499920
C33	C	-0.453282	-0.914339	-0.000069
C34	C	0.046718	-0.414339	0.499931
C35	C	-0.251606	-0.917895	-0.000068
C36	C	0.248394	-0.417895	0.499932
O37	O	-0.220634	-0.853217	-0.000025
O38	O	0.279366	-0.353217	0.499975
N39	N	-0.232145	-0.994932	-0.000075
N40	N	0.267855	-0.494932	0.499925
C41	C	-0.263107	-1.071086	-0.000075
C42	C	0.236893	-0.571086	0.499925
O43	O	-0.241926	-1.136693	-0.000072
O44	O	0.258074	-0.636693	0.499928
C45	C	-0.464781	-1.067530	-0.000070
C46	C	0.035219	-0.567530	0.499930
C47	C	-0.484239	-0.990487	-0.000072
C48	C	0.015761	-0.490487	0.499928
C49	C	-0.472741	-0.837303	-0.000070
C50	C	0.027259	-0.337303	0.499930
C51	C	-0.523157	-0.836414	-0.000075
C52	C	-0.023157	-0.336414	0.499925
C53	C	-0.554114	-0.912563	-0.000079
C54	C	-0.054114	-0.412563	0.499921
C55	C	-0.534655	-0.989599	-0.000078
C56	C	-0.034655	-0.489599	0.499922
C57	C	-0.495742	-1.143683	-0.000064
C58	C	0.004258	-0.643683	0.499936
C59	C	-0.546163	-1.142787	-0.000060
C60	C	-0.046163	-0.642787	0.499940
C61	C	-0.565621	-1.065744	-0.000063
C62	C	-0.065621	-0.565744	0.499937
C63	C	-0.616029	-1.064859	-0.000087
C64	C	-0.116029	-0.564859	0.499913
N65	N	-0.635490	-0.987822	-0.000080
N66	N	-0.135490	-0.487822	0.499920
C67	C	-0.604532	-0.911673	-0.000076
C68	C	-0.104532	-0.411673	0.499924
C69	C	-0.157224	-1.072948	-0.000080
C70	C	0.342776	-0.572948	0.499920
C71	C	-0.106806	-1.073837	-0.000083
C72	C	0.393194	-0.573837	0.499917
C73	C	-0.095309	-0.920645	-0.000074
C74	C	0.404691	-0.420645	0.499926
C75	C	-0.145728	-0.919757	-0.000077
C76	C	0.354272	-0.419757	0.499923
C77	C	-0.176685	-0.995910	-0.000074
C78	C	0.323315	-0.495910	0.499926
C79	C	-0.710410	-0.909814	-0.000088
C80	C	-0.210410	-0.409814	0.499912
C81	C	-0.760831	-0.908933	-0.000097
C82	C	-0.260831	-0.408933	0.499903
C83	C	-0.772323	-1.062124	-0.000102
C84	C	-0.272323	-0.562124	0.499898
C85	C	-0.721907	-1.063006	-0.000097
C86	C	-0.221907	-0.563006	0.499903
C87	C	-0.690951	-0.986844	-0.000087
C88	C	-0.190951	-0.486844	0.499913
O89	O	-0.647030	-1.129502	-0.000119
O90	O	-0.147030	-0.629502	0.499881
O91	O	-0.625722	-0.846076	-0.000059
O92	O	-0.125722	-0.346076	0.499941
C93	C	-0.402866	-0.915227	-0.000063
C94	C	0.097134	-0.415227	0.499937
C95	C	-0.383408	-0.992263	-0.000062
C96	C	0.116592	-0.492263	0.499938
C97	C	-0.414365	-1.068412	-0.000066
C98	C	0.085635	-0.568412	0.499934
C99	C	-0.332989	-0.993153	-0.000065
C100	C	0.167011	-0.493153	0.499935
C101	C	-0.302032	-0.917004	-0.000061
C102	C	0.197968	-0.417004	0.499939
C103	C	-0.321493	-0.839967	-0.000054
C104	C	0.178507	-0.339967	0.499946
C105	C	-0.371909	-0.839079	-0.000060
C106	C	0.128091	-0.339079	0.499940
C107	C	-0.394904	-1.145449	-0.000072
C108	C	0.105096	-0.645449	0.499928
C109	C	-0.344487	-1.146331	-0.000068
C110	C	0.155513	-0.646331	0.499932
C111	C	-0.313530	-1.070183	-0.000064
C112	C	0.186470	-0.570183	0.499936
C113	C	0.154553	-0.984115	-0.000098
C114	C	0.654553	-0.484115	0.499902
C115	C	0.208212	-0.985081	-0.000101
C116	C	0.708212	-0.485081	0.499899
N117	N	0.066188	-0.991413	-0.219569
N118	N	0.566188	-0.491413	0.280431
C119	C	0.020466	-0.530307	-0.000088
C120	C	0.520466	-0.030307	0.499912
C121	C	0.042885	-0.468988	0.075952
C122	C	0.542885	0.031012	0.575952
C123	C	0.067018	-0.573834	-0.000082
C124	C	0.567018	-0.073834	0.499918
C125	C	0.042900	-0.469026	-0.076100
C126	C	0.542900	0.030974	0.423900
C127	C	0.065343	-0.408943	-0.000097
C128	C	0.565343	0.091057	0.499903
C129	C	0.089450	-0.513743	0.076020
C130	C	0.589450	-0.013743	0.576020
C131	C	0.089459	-0.513787	-0.076101
C132	C	0.589459	-0.013787	0.423899
C133	C	0.111911	-0.452485	-0.000043
C134	C	0.611911	0.047515	0.499957
C135	C	0.067982	-0.668823	-0.000073
C136	C	0.567982	-0.168823	0.499927
C137	C	0.064383	-0.313954	-0.000100
C138	C	0.564383	0.186046	0.499900
C139	C	0.031868	-1.051499	-0.469202
C140	C	0.531868	-0.551499	0.030798
C141	C	0.022478	-0.975722	-0.530991
C142	C	0.522478	-0.475722	-0.030991
C143	C	0.066182	-0.991395	-0.408731
C144	C	0.566182	-0.491395	0.091269
C145	C	0.075544	-1.067155	-0.531035
C146	C	0.575544	-0.567155	-0.031035
C147	C	0.066176	-0.991384	-0.591452
C148	C	0.566176	-0.491384	-0.091452
C149	C	0.056771	-0.915579	-0.469159
C150	C	0.556771	-0.415579	0.030841
C151	C	0.109856	-1.007062	-0.469198
C152	C	0.609856	-0.507062	0.030802
C153	C	0.100485	-0.931229	-0.530959
C154	C	0.600485	-0.431229	-0.030959
C155	C	0.066185	-0.991402	-0.303469
C156	C	0.566185	-0.491402	0.196531
C157	C	0.066173	-0.991367	-0.696711
C158	C	0.566173	-0.491367	-0.196711
N159	N	0.066171	-0.991364	0.219380
N160	N	0.566171	-0.491364	0.719380
H161	H	-0.776671	-0.846193	-0.000103
H162	H	-0.276671	-0.346193	0.499897
Br163	Br	0.043498	-0.808760	-0.424057
Br164	Br	0.543498	-0.308760	0.075943
Br165	Br	0.010067	-0.435887	0.183106
Br166	Br	0.510067	0.064113	0.683106
H167	H	-0.685211	-0.847796	-0.000079
H168	H	-0.185211	-0.347796	0.499921
H169	H	0.146781	-1.020348	-0.442034
H170	H	0.646781	-0.520348	0.057966
H171	H	0.083465	-1.131229	-0.558214
H172	H	0.583465	-0.631229	-0.058214
H173	H	-0.420105	-1.207460	-0.000074
H174	H	0.079895	-0.707460	0.499926
H175	H	-0.182426	-1.134965	-0.000079
H176	H	0.317574	-0.634965	0.499921
Br177	Br	0.122241	-0.546614	0.183284
Br178	Br	0.622241	-0.046614	0.683284
H179	H	-0.447540	-0.775290	-0.000064
H180	H	0.052460	-0.275290	0.499936
Br181	Br	-0.172130	-0.815196	-0.000081
Br182	Br	0.327870	-0.315196	0.499919
Br183	Br	-0.549556	-0.731851	-0.000069
Br184	Br	-0.049556	-0.231851	0.499931
Br185	Br	-0.039085	-0.953606	-0.576222
Br186	Br	0.460915	-0.453606	-0.076222
H187	H	0.002833	-1.102275	-0.442084
H188	H	0.502833	-0.602275	0.057916
H189	H	-0.479908	-1.206419	-0.000061
H190	H	0.020092	-0.706419	0.499939
Br191	Br	0.176370	-0.396378	0.000019
Br192	Br	0.676370	0.103622	0.500019
Br193	Br	0.122254	-0.546929	-0.183257
Br194	Br	0.622254	-0.046929	0.316743
Br195	Br	0.010074	-0.435983	-0.183244
Br196	Br	0.510074	0.064017	0.316756
H197	H	0.129502	-0.880341	-0.557904
H198	H	0.629502	-0.380341	-0.057904
H199	H	-0.070095	-0.858642	-0.000075
H200	H	0.429905	-0.358642	0.499925
H201	H	-0.090968	-1.136573	-0.000096
H202	H	0.409032	-0.636573	0.499904
H203	H	-0.706063	-1.125741	-0.000109
H204	H	-0.206063	-0.625741	0.499891
Br205	Br	-0.814346	-1.165463	-0.000116
Br206	Br	-0.314346	-0.665463	0.499884
Br207	Br	-0.398308	-0.734515	-0.000063
Br208	Br	0.101692	-0.234515	0.499937
Br209	Br	-0.588173	-1.246145	-0.000048
Br210	Br	-0.088173	-0.746145	0.499952
Br211	Br	-0.279469	-0.736624	-0.000055
Br212	Br	0.220531	-0.236624	0.499945
Br213	Br	-0.318087	-1.250899	-0.000066
Br214	Br	0.181913	-0.750899	0.499934
Br215	Br	-0.043937	-0.586657	0.000034
Br216	Br	0.456063	-0.086657	0.500034
