data_functionalizedCrystal
_audit_creation_method	'MofGen! by Chris Wilmer'
_symmetry_space_group_name_H-M	'P1'
_symmetry_Int_Tables_number	1
_symmetry_cell_setting	triclinic
loop_
_symmetry_equiv_pos_as_xyz
  x,y,z
_cell_length_a	19.121215
_cell_length_b	19.120786
_cell_length_c	17.077396
_cell_angle_alpha	87.528765
_cell_angle_beta	87.534563
_cell_angle_gamma	94.789602
loop_
_atom_site_label
_atom_site_type_symbol
_atom_site_fract_x
_atom_site_fract_y
_atom_site_fract_z
Zn1	Zn	1.063759	-0.234353	-0.483512
Zn2	Zn	1.058650	-0.352035	-0.346383
Zn3	Zn	0.946090	-0.239386	-0.346394
Zn4	Zn	0.941038	-0.356998	-0.471747
O5	O	1.002384	-0.295693	-0.412009
O6	O	1.161547	-0.245780	-0.470240
O7	O	1.043695	-0.337120	-0.236535
O8	O	0.965951	-0.140247	-0.369510
O9	O	1.157793	-0.332240	-0.369493
O10	O	1.052402	-0.136549	-0.470250
O11	O	0.960997	-0.254358	-0.236543
O12	O	0.846954	-0.259171	-0.358103
O13	O	0.957341	-0.340701	-0.583157
O14	O	0.843243	-0.345580	-0.450200
O15	O	1.047504	-0.250594	-0.591801
O16	O	1.038796	-0.451165	-0.358086
O17	O	0.952388	-0.454811	-0.450190
C18	C	0.819567	-0.303461	-0.402876
C19	C	0.741356	-0.306801	-0.398987
C20	C	0.994509	-0.478520	-0.402878
C21	C	0.991204	-0.556731	-0.399001
C22	C	0.298914	-0.327946	-0.374382
C23	C	0.372402	-0.324804	-0.378030
C24	C	0.411098	-0.278291	-0.432386
C25	C	0.376304	-0.234913	-0.483092
C26	C	0.302818	-0.238052	-0.479439
C27	C	0.633076	-0.266562	-0.446040
C28	C	0.706567	-0.263427	-0.449691
C29	C	0.702659	-0.353318	-0.344627
C30	C	0.629172	-0.356456	-0.340982
C31	C	0.594385	-0.313075	-0.391685
C32	C	0.486214	-0.275080	-0.436119
C33	C	0.519270	-0.316283	-0.387949
C34	C	1.034628	-0.591491	-0.449669
C35	C	1.031520	-0.664979	-0.446028
C36	C	0.984991	-0.703705	-0.391714
C37	C	0.941562	-0.668941	-0.341044
C38	C	0.944667	-0.595454	-0.344690
C39	C	0.973363	-0.925686	-0.378084
C40	C	0.970262	-0.999178	-0.374440
C41	C	1.060220	-0.995211	-0.479425
C42	C	1.063324	-0.921723	-0.483063
C43	C	1.019892	-0.886965	-0.432396
C44	C	0.981814	-0.778822	-0.387989
C45	C	1.023066	-0.811850	-0.436125
C46	C	1.185915	-0.287895	-0.421178
C47	C	1.264125	-0.284572	-0.425085
C48	C	1.002429	-0.295639	-0.616758
C49	C	1.002448	-0.295617	-0.704010
C50	C	1.010309	-0.112152	-0.421194
C51	C	1.013687	-0.033937	-0.425108
C52	C	1.049397	-0.248694	-0.749502
C53	C	1.049407	-0.248670	-0.831484
C54	C	1.002470	-0.295573	-0.867973
C55	C	0.955515	-0.342498	-0.822474
C56	C	0.955503	-0.342517	-0.740494
C57	C	0.955546	-0.342454	-0.993348
C58	C	0.955559	-0.342435	-1.075334
C59	C	1.049449	-0.248607	-1.084338
C60	C	1.049437	-0.248627	-1.002358
C61	C	1.002483	-0.295553	-0.956865
C62	C	1.002382	-0.295694	-0.208061
C63	C	1.002508	-0.295513	-0.120826
H64	H	0.267412	-0.365825	-0.330122
H65	H	0.487760	-0.354151	-0.343690
H66	H	0.400723	-0.360122	-0.336741
C67	C	0.586611	-0.407614	-0.281176
N68	N	0.554555	-0.446145	-0.236127
C69	C	1.101068	-0.197030	-0.962223
N70	N	1.139955	-0.158164	-0.931993
H71	H	0.517729	-0.237211	-0.480377
H72	H	1.072520	-0.559964	-0.493893
C73	C	1.079300	-0.703210	-0.501756
N74	N	1.115293	-0.732006	-0.543731
H75	H	1.101212	-0.890193	-0.527289
H76	H	0.274494	-0.202730	-0.520725
C77	C	0.890422	-0.711541	-0.281253
N78	N	0.851920	-0.743626	-0.236199
H79	H	0.730991	-0.388636	-0.303348
C80	C	0.896897	-0.557219	-0.288951
N81	N	0.860914	-0.528421	-0.246968
C82	C	0.925570	-0.887462	-0.322365
N83	N	0.889564	-0.858670	-0.280401
C84	C	0.418874	-0.183746	-0.542882
N85	N	0.450936	-0.145208	-0.587919
C86	C	0.594819	-0.218846	-0.501821
N87	N	0.566002	-0.182906	-0.543839
H88	H	1.060947	-0.780316	-0.480350
C89	C	1.101032	-0.197096	-0.709373
N90	N	1.139922	-0.158228	-0.679150
C91	C	0.749132	-0.212256	-0.509488
N92	N	0.781193	-0.173717	-0.554526
C93	C	1.107987	-1.033451	-0.535160
N94	N	1.143964	-1.062254	-0.577144
H95	H	0.943932	-0.810361	-0.343765
H96	H	0.932369	-1.030707	-0.330211
C97	C	1.101098	-0.196987	-1.134382
N98	N	1.140001	-0.158111	-1.172078
H99	H	1.087639	-0.210463	-0.868521
H100	H	0.917337	-0.380626	-1.105040
H101	H	0.917300	-0.380656	-0.956310
H102	H	0.917296	-0.380684	-0.852190
H103	H	0.917265	-0.380720	-0.703455
