data_functionalizedCrystal
_audit_creation_method	'MofGen! by Chris Wilmer'
_symmetry_space_group_name_H-M	'P1'
_symmetry_Int_Tables_number	1
_symmetry_cell_setting	triclinic
loop_
_symmetry_equiv_pos_as_xyz
  x,y,z
_cell_length_a	23.532407
_cell_length_b	23.532357
_cell_length_c	14.421503
_cell_angle_alpha	89.998741
_cell_angle_beta	89.995102
_cell_angle_gamma	82.838519
loop_
_atom_site_label
_atom_site_type_symbol
_atom_site_fract_x
_atom_site_fract_y
_atom_site_fract_z
O1	O	0.755251	0.069129	-0.077064
O2	O	0.589385	0.079132	-0.077080
O3	O	0.677334	-0.008803	-0.077053
O4	O	0.667301	0.157064	-0.077092
O5	O	0.677320	-0.008790	0.077171
O6	O	0.589371	0.079146	0.077143
O7	O	0.755236	0.069142	0.077159
Cu8	Cu	0.672302	0.074145	0.091233
Cu9	Cu	0.672319	0.074130	-0.091154
O10	O	0.667287	0.157078	0.077132
C11	C	0.568162	0.078884	0.000029
C12	C	0.504945	0.078118	0.000024
C13	C	0.677076	-0.030013	0.000062
C14	C	0.676322	-0.093232	0.000070
C15	C	0.238788	0.022922	0.000062
C16	C	0.298188	0.023633	0.000062
O17	O	0.334940	-0.020154	0.000104
N18	N	0.320805	0.075911	0.000043
C19	C	0.284018	0.127480	0.000035
O20	O	0.308710	0.172012	0.000020
C21	C	0.224619	0.126768	0.000042
C22	C	0.202006	0.074487	0.000051
C23	C	0.216174	-0.029355	0.000073
C24	C	0.156778	-0.030066	0.000071
C25	C	0.119996	0.021499	0.000060
C26	C	0.142610	0.073776	0.000049
C27	C	0.187833	0.178337	0.000039
C28	C	0.128431	0.177620	0.000047
C29	C	0.105818	0.125339	0.000056
C30	C	0.046431	0.124630	0.000037
N31	N	0.023815	0.072353	0.000055
C32	C	0.060597	0.020787	0.000067
C33	C	0.408760	0.128971	0.000021
C34	C	0.468158	0.129684	0.000008
C35	C	0.482324	0.025837	0.000037
C36	C	0.422925	0.025125	0.000044
C37	C	0.386143	0.076694	0.000040
C38	C	-0.064140	0.019297	0.000063
C39	C	-0.123542	0.018591	0.000058
C40	C	-0.137702	0.122438	0.000034
C41	C	-0.078306	0.123145	0.000034
C42	C	-0.041525	0.071570	0.000052
O43	O	0.009644	0.168394	-0.000002
O44	O	0.035897	-0.023737	0.000094
C45	C	0.671593	-0.485250	-0.084047
C46	C	0.670876	-0.544649	-0.084053
O47	O	0.670492	-0.575372	-0.155549
N48	N	0.670512	-0.574354	0.000013
C49	C	0.670860	-0.544654	0.084090
O50	O	0.670484	-0.575374	0.155594
C51	C	0.671573	-0.485255	0.084095
C52	C	0.671942	-0.455555	0.000023
C53	C	0.671962	-0.455550	-0.168112
C54	C	0.672680	-0.396154	-0.168106
C55	C	0.673029	-0.366460	-0.084036
C56	C	0.672661	-0.396160	0.000029
C57	C	0.671917	-0.455557	0.168170
C58	C	0.672630	-0.396154	0.168168
C59	C	0.672999	-0.366453	0.084096
C60	C	0.673729	-0.307070	0.084105
N61	N	0.674092	-0.277366	0.000039
C62	C	0.673743	-0.307061	-0.084031
C63	C	0.669361	-0.669396	0.084075
C64	C	0.668652	-0.728794	0.084071
C65	C	0.668667	-0.728785	-0.084072
C66	C	0.669380	-0.669386	-0.084068
C67	C	0.669725	-0.639692	0.000009
C68	C	0.675252	-0.182327	-0.084013
C69	C	0.675972	-0.122926	-0.084000
C70	C	0.675954	-0.122940	0.084143
C71	C	0.675237	-0.182336	0.084130
C72	C	0.674883	-0.212027	0.000045
O73	O	0.674110	-0.276309	0.155564
O74	O	0.674111	-0.276333	-0.155524
C75	C	0.776459	0.069390	0.000047
C76	C	0.839676	0.070156	0.000046
C77	C	0.667545	0.178288	0.000015
C78	C	0.668300	0.241506	0.000000
N79	N	0.672294	0.074156	0.219514
N80	N	0.672332	0.074114	-0.219435
C81	C	0.631619	0.114799	0.469155
C82	C	0.683017	0.125562	0.530960
C83	C	0.672308	0.074142	0.408676
C84	C	0.620924	0.063392	0.530965
C85	C	0.672317	0.074130	0.591397
C86	C	0.723731	0.084930	0.469119
C87	C	0.661605	0.022738	0.469119
C88	C	0.713039	0.033479	0.530896
C89	C	0.672302	0.074150	0.303414
C90	C	0.672329	0.074121	0.696656
H91	H	-0.034199	-0.022700	0.000077
O92	O	-0.056271	0.173895	0.000149
C93	C	-0.022361	0.177425	0.080043
H94	H	-0.007311	0.132452	0.106677
H95	H	0.016409	0.199906	0.062090
H96	H	-0.048761	0.202771	0.135967
O97	O	0.754104	-0.007616	0.562929
C98	C	0.743177	-0.061625	0.530044
H99	H	0.715885	-0.055797	0.464622
H100	H	0.785459	-0.088889	0.513467
H101	H	0.719352	-0.083864	0.585448
O102	O	0.693747	0.177414	0.563486
C103	C	0.647392	0.201436	0.618622
H104	H	0.623067	0.165888	0.645728
H105	H	0.664216	0.225257	0.679595
H106	H	0.617408	0.232587	0.575132
O107	O	0.671700	-0.484463	-0.249726
C108	C	0.720628	-0.525541	-0.254769
H109	H	0.736957	-0.536695	-0.181776
H110	H	0.709040	-0.565792	-0.290372
H111	H	0.755452	-0.507355	-0.296237
O112	O	0.517979	-0.024308	0.000016
C113	C	0.485288	-0.070608	0.000057
H114	H	0.440870	-0.055904	-0.029147
H115	H	0.507413	-0.106721	-0.044704
H116	H	0.481146	-0.086639	0.074052
O117	O	0.134746	-0.080816	0.000212
C118	C	0.100821	-0.084336	0.080101
H119	H	0.085765	-0.039360	0.106716
H120	H	0.062054	-0.106820	0.062148
H121	H	0.127210	-0.109675	0.136038
H122	H	0.767199	0.094070	0.442067
H123	H	0.246117	-0.071348	0.000085
H124	H	0.668380	-0.752973	-0.152527
O125	O	0.209695	0.229174	0.000079
C126	C	0.164483	0.274526	0.000055
H127	H	0.124220	0.258788	0.029250
H128	H	0.176679	0.311049	0.044831
H129	H	0.155989	0.290415	-0.073934
O130	O	0.650676	-0.029075	0.436723
C131	C	0.596434	-0.040241	0.468198
H132	H	0.569157	0.001901	0.485574
H133	H	0.574479	-0.063382	0.411615
H134	H	0.601805	-0.068270	0.532854
H135	H	0.577466	0.054305	0.558133
O136	O	0.092644	0.227679	-0.000084
C137	C	0.057877	0.230378	-0.079970
H138	H	0.055128	0.185189	-0.106591
H139	H	0.013109	0.251857	-0.062011
H140	H	0.077278	0.256270	-0.135906
O141	O	0.668276	-0.757551	0.165821
C142	C	0.668754	-0.718599	0.240018
H143	H	0.651235	-0.673797	0.215365
H144	H	0.640888	-0.731983	0.298815
H145	H	0.714524	-0.718521	0.265871
H146	H	-0.167661	0.164421	0.000020
H147	H	0.669644	-0.645222	0.152544
H148	H	-0.141950	-0.023984	0.000063
H149	H	0.404518	-0.017447	0.000052
O150	O	0.676303	-0.094161	-0.165754
C151	C	0.675853	-0.133114	-0.239955
H152	H	0.657306	-0.172992	-0.215309
H153	H	0.648412	-0.112176	-0.298756
H154	H	0.721475	-0.145671	-0.265800
O155	O	0.669708	-0.640622	-0.165817
C156	C	0.669264	-0.679578	-0.240014
H157	H	0.650722	-0.719459	-0.215365
H158	H	0.641821	-0.658646	-0.298817
H159	H	0.714887	-0.692131	-0.265857
O160	O	0.490026	0.180520	0.000029
C161	C	0.444817	0.225876	-0.000007
H162	H	0.404553	0.210145	0.029194
H163	H	0.457016	0.262403	0.044758
H164	H	0.436325	0.241757	-0.074000
O165	O	0.372975	0.179033	-0.000122
C166	C	0.338206	0.181728	-0.080007
H167	H	0.335453	0.136538	-0.106618
H168	H	0.293440	0.203213	-0.062051
H169	H	0.357610	0.207614	-0.135949
O170	O	0.674984	-0.211232	-0.165638
C171	C	0.723907	-0.252315	-0.170694
H172	H	0.740238	-0.263477	-0.097705
H173	H	0.712311	-0.292561	-0.206303
H174	H	0.758732	-0.234131	-0.212163
H175	H	0.672979	-0.371978	-0.236566
H176	H	0.674941	-0.206519	0.152588
O177	O	0.671530	-0.484306	0.249922
C178	C	0.672001	-0.445349	0.324113
H179	H	0.654485	-0.400548	0.299449
H180	H	0.644129	-0.458728	0.382906
H181	H	0.717769	-0.445269	0.349977
O182	O	0.672864	-0.367267	0.249816
C183	C	0.623954	-0.326165	0.254827
H184	H	0.589265	-0.339356	0.207110
H185	H	0.607393	-0.323231	0.329178
H186	H	0.635653	-0.282670	0.232247
H187	H	0.676242	-0.098752	0.152591
H188	H	0.597245	0.149208	0.442046
