data_functionalizedCrystal
_audit_creation_method	'MofGen! by Chris Wilmer'
_symmetry_space_group_name_H-M	'P1'
_symmetry_Int_Tables_number	1
_symmetry_cell_setting	triclinic
loop_
_symmetry_equiv_pos_as_xyz
  x,y,z
_cell_length_a	16.992694
_cell_length_b	9.065218
_cell_length_c	15.455301
_cell_angle_alpha	87.037741
_cell_angle_beta	92.821270
_cell_angle_gamma	92.157946
loop_
_atom_site_label
_atom_site_type_symbol
_atom_site_fract_x
_atom_site_fract_y
_atom_site_fract_z
O1	O	1.045717	-0.319205	0.072016
O2	O	0.817409	-0.315772	0.072042
O3	O	0.936282	-0.103284	0.072027
O4	O	0.926844	-0.531693	0.072032
O5	O	0.930057	-0.091016	-0.072235
O6	O	0.811183	-0.303505	-0.072220
O7	O	1.039492	-0.306937	-0.072246
Cu8	Cu	0.924769	-0.304101	-0.085405
Cu9	Cu	0.932131	-0.318609	0.085202
O10	O	0.920619	-0.519426	-0.072230
C11	C	0.785052	-0.305220	-0.000086
C12	C	0.697915	-0.292037	-0.000076
C13	C	0.648578	-0.419243	-0.000075
C14	C	0.566703	-0.406846	-0.000087
C15	C	0.534166	-0.267241	-0.000094
C16	C	0.583510	-0.140026	-0.000097
C17	C	0.665383	-0.152424	-0.000091
C18	C	0.290203	-0.215856	-0.000117
C19	C	0.208323	-0.203467	-0.000121
C20	C	0.191522	-0.470288	-0.000113
C21	C	0.273398	-0.482675	-0.000101
C22	C	0.322733	-0.355459	-0.000109
N23	N	0.450477	-0.254566	-0.000103
N24	N	0.406421	-0.368135	-0.000106
C25	C	0.932262	-0.042079	-0.000102
C26	C	0.929550	0.122015	-0.000098
C27	C	1.071848	-0.317490	-0.000116
C28	C	1.158986	-0.330673	-0.000120
C29	C	0.924638	-0.580630	-0.000099
C30	C	0.927351	-0.744725	-0.000098
N31	N	0.919597	-0.293897	-0.205400
C32	C	0.965870	-0.385256	-0.250795
C33	C	0.961969	-0.377531	-0.341603
C34	C	0.911790	-0.278453	-0.387014
C35	C	0.865516	-0.187083	-0.341613
C36	C	0.869421	-0.194802	-0.250807
C37	C	0.894941	-0.245151	-0.658596
C38	C	0.891037	-0.237442	-0.749408
C39	C	0.987492	-0.427889	-0.749392
C40	C	0.991389	-0.435606	-0.658584
C41	C	0.945118	-0.344230	-0.613191
N42	N	0.907799	-0.270557	-0.479835
N43	N	0.949113	-0.352119	-0.520372
N44	N	0.937310	-0.328802	0.205197
H45	H	0.705553	-0.048839	-0.000091
H46	H	1.006726	-0.465945	-0.213828
H47	H	0.999650	-0.451924	-0.378560
H48	H	0.850171	-0.156760	-0.786379
H49	H	1.032252	-0.516282	-0.621616
H50	H	0.857264	-0.170746	-0.621647
H51	H	1.025164	-0.502281	-0.786361
H52	H	0.824663	-0.106404	-0.378594
H53	H	0.831741	-0.120407	-0.213847
H54	H	0.151344	-0.573860	-0.000108
H55	H	0.675062	-0.532924	-0.000069
H56	H	0.299882	-0.596356	-0.000086
H57	H	0.181836	-0.089779	-0.000125
H58	H	0.330363	-0.112266	-0.000125
H59	H	0.526535	-0.510431	-0.000086
H60	H	0.557012	-0.026356	-0.000115
