data_functionalizedCrystal
_audit_creation_method	'MofGen! by Chris Wilmer'
_symmetry_space_group_name_H-M	'P1'
_symmetry_Int_Tables_number	1
_symmetry_cell_setting	triclinic
loop_
_symmetry_equiv_pos_as_xyz
  x,y,z
_cell_length_a	29.839135
_cell_length_b	21.395362
_cell_length_c	21.395355
_cell_angle_alpha	89.980094
_cell_angle_beta	89.972219
_cell_angle_gamma	90.030029
loop_
_atom_site_label
_atom_site_type_symbol
_atom_site_fract_x
_atom_site_fract_y
_atom_site_fract_z
Zn1	Zn	0.686818	-0.249469	-0.354309
Zn2	Zn	1.020151	0.083865	-0.020976
Zn3	Zn	1.353484	0.417198	0.312357
Zn4	Zn	0.686752	-0.354229	-0.249529
Zn5	Zn	1.020085	-0.020895	0.083804
Zn6	Zn	1.353419	0.312438	0.417137
Zn7	Zn	0.611684	-0.249474	-0.249540
Zn8	Zn	0.945018	0.083860	0.083793
Zn9	Zn	1.278351	0.417193	0.417127
Zn10	Zn	0.611666	-0.354217	-0.354264
Zn11	Zn	0.945000	-0.020884	-0.020930
Zn12	Zn	1.278333	0.312450	0.312403
O13	O	0.649230	-0.301847	-0.301911
O14	O	0.982563	0.031486	0.031423
O15	O	1.315897	0.364820	0.364756
O16	O	0.749676	-0.263368	-0.340425
O17	O	1.083009	0.069965	-0.007091
O18	O	1.416343	0.403298	0.326242
O19	O	0.676774	-0.340339	-0.161853
O20	O	1.010107	-0.007006	0.171480
O21	O	1.343441	0.326327	0.504814
O22	O	0.621686	-0.161795	-0.263462
O23	O	0.955019	0.171538	0.069872
O24	O	1.288353	0.504872	0.403205
O25	O	0.749628	-0.340335	-0.263443
O26	O	1.082961	-0.007001	0.069890
O27	O	1.416294	0.326332	0.403223
O28	O	0.676886	-0.161792	-0.340435
O29	O	1.010219	0.171542	-0.007102
O30	O	1.343553	0.504875	0.326232
O31	O	0.621622	-0.263376	-0.161861
O32	O	0.954955	0.069957	0.171473
O33	O	1.288289	0.403290	0.504806
O34	O	0.548815	-0.263365	-0.263417
O35	O	0.882148	0.069968	0.069916
O36	O	1.215481	0.403302	0.403249
O37	O	0.621655	-0.340315	-0.441948
O38	O	0.954989	-0.006982	-0.108614
O39	O	1.288322	0.326351	0.224719
O40	O	0.548802	-0.340320	-0.340357
O41	O	0.882135	-0.006986	-0.007024
O42	O	1.215468	0.326347	0.326309
O43	O	0.676869	-0.263357	-0.441981
O44	O	1.010202	0.069976	-0.108648
O45	O	1.343535	0.403310	0.224685
O46	O	0.676757	-0.441905	-0.263399
O47	O	1.010090	-0.108572	0.069934
O48	O	1.343423	0.224762	0.403268
O49	O	0.621592	-0.441897	-0.340347
O50	O	0.954925	-0.108563	-0.007013
O51	O	1.288258	0.224770	0.326320
C52	C	0.649177	-0.464635	-0.301880
C53	C	0.982511	-0.131301	0.031453
C54	C	1.315844	0.202032	0.364786
C55	C	0.649196	-0.534276	-0.301888
C56	C	0.982529	-0.200943	0.031445
C57	C	1.315862	0.132391	0.364778
C58	C	0.532507	-0.301842	-0.301884
C59	C	0.865841	0.031491	0.031449
C60	C	1.199174	0.364824	0.364783
C61	C	0.482573	-0.301855	-0.301887
C62	C	0.815906	0.031478	0.031446
C63	C	1.149240	0.364811	0.364779
C64	C	0.678063	-1.036056	-0.261946
C65	C	1.011396	-0.702722	0.071388
C66	C	1.344729	-0.369389	0.404721
C67	C	0.678046	-0.970620	-0.261931
C68	C	1.011379	-0.637287	0.071402
C69	C	1.344712	-0.303953	0.404736
C70	C	0.649294	-0.937914	-0.301955
C71	C	0.982627	-0.604581	0.031378
C72	C	1.315960	-0.271247	0.364711
C73	C	0.620549	-0.970649	-0.341986
C74	C	0.953882	-0.637316	-0.008653
C75	C	1.287215	-0.303982	0.324680
C76	C	0.620563	-1.036083	-0.341995
C77	C	0.953897	-0.702750	-0.008662
C78	C	1.287230	-0.369416	0.324671
C79	C	0.645703	-0.834224	-0.358386
C80	C	0.979036	-0.500890	-0.025052
C81	C	1.312370	-0.167557	0.308281
C82	C	0.645691	-0.768791	-0.358378
C83	C	0.979025	-0.435457	-0.025044
C84	C	1.312358	-0.102124	0.308289
C85	C	0.649246	-0.736093	-0.301927
C86	C	0.982579	-0.402760	0.031406
C87	C	1.315913	-0.069427	0.364740
C88	C	0.652821	-0.768837	-0.245483
C89	C	0.986155	-0.435504	0.087850
C90	C	1.319488	-0.102170	0.421184
C91	C	0.652836	-0.834271	-0.245492
C92	C	0.986169	-0.500938	0.087841
C93	C	1.319503	-0.167605	0.421175
C94	C	0.649274	-0.866962	-0.301950
C95	C	0.982608	-0.533628	0.031384
C96	C	1.315941	-0.200295	0.364717
C97	C	0.677969	-0.632414	-0.261880
C98	C	1.011302	-0.299081	0.071453
C99	C	1.344635	0.034253	0.404787
C100	C	0.677948	-0.566977	-0.261864
C101	C	1.011282	-0.233644	0.071469
C102	C	1.344615	0.099689	0.404803
C103	C	0.620454	-0.567007	-0.341925
C104	C	0.953787	-0.233674	-0.008592
C105	C	1.287120	0.099659	0.324742
C106	C	0.620472	-0.632443	-0.341935
C107	C	0.953805	-0.299109	-0.008602
C108	C	1.287138	0.034224	0.324732
C109	C	0.649231	-0.665142	-0.301913
C110	C	0.982565	-0.331809	0.031420
C111	C	1.315898	0.001525	0.364753
C112	C	0.172952	-0.261831	-0.342054
C113	C	0.506285	0.071502	-0.008721
C114	C	0.839618	0.404835	0.324613
C115	C	-0.014721	-0.261836	-0.342072
C116	C	0.318612	0.071498	-0.008738
C117	C	0.651945	0.404831	0.324595
O118	O	-0.038967	-0.227791	-0.376193
O119	O	0.294366	0.105542	-0.042860
O120	O	0.627699	0.438875	0.290474
N121	N	-0.038212	-0.301848	-0.301934
N122	N	0.295121	0.031486	0.031400
N123	N	0.628455	0.364819	0.364733
C124	C	-0.014782	-0.341859	-0.261785
C125	C	0.318552	-0.008525	0.071548
C126	C	0.651885	0.324808	0.404881
O127	O	-0.039068	-0.375887	-0.227641
O128	O	0.294265	-0.042554	0.105692
O129	O	0.627598	0.290780	0.439025
C130	C	0.172890	-0.341851	-0.261765
C131	C	0.506224	-0.008517	0.071569
C132	C	0.839557	0.324816	0.404902
C133	C	0.196379	-0.301840	-0.301910
C134	C	0.529712	0.031493	0.031423
C135	C	0.863046	0.364826	0.364757
C136	C	0.196440	-0.221824	-0.382195
C137	C	0.529774	0.111510	-0.048862
C138	C	0.863107	0.444843	0.284471
C139	C	0.243356	-0.221825	-0.382193
C140	C	0.576689	0.111508	-0.048860
C141	C	0.910022	0.444841	0.284474
C142	C	0.266783	-0.261835	-0.342049
C143	C	0.600116	0.071499	-0.008716
C144	C	0.933449	0.404832	0.324618
C145	C	0.243294	-0.301842	-0.301908
C146	C	0.576628	0.031491	0.031426
C147	C	0.909961	0.364824	0.364759
C148	C	0.196320	-0.381858	-0.221614
C149	C	0.529653	-0.048525	0.111720
C150	C	0.862987	0.284809	0.445053
C151	C	0.243241	-0.381851	-0.221611
C152	C	0.576574	-0.048518	0.111722
C153	C	0.909908	0.284815	0.445056
C154	C	0.266729	-0.341841	-0.261756
C155	C	0.600063	-0.008508	0.071577
C156	C	0.933396	0.324826	0.404910
C157	C	0.313637	-0.341853	-0.261761
C158	C	0.646970	-0.008520	0.071572
C159	C	0.980303	0.324814	0.404906
N160	N	0.337128	-0.301841	-0.301899
N161	N	0.670461	0.031492	0.031434
N162	N	1.003794	0.364826	0.364767
C163	C	0.313701	-0.261832	-0.342043
C164	C	0.647034	0.071502	-0.008710
C165	C	0.980367	0.404835	0.324624
C166	C	-0.113312	-0.341861	-0.261800
C167	C	0.220021	-0.008528	0.071534
C168	C	0.553354	0.324806	0.404867
C169	C	-0.160230	-0.341864	-0.261806
C170	C	0.173103	-0.008530	0.071528
C171	C	0.506436	0.324803	0.404861
C172	C	-0.160166	-0.261840	-0.342091
C173	C	0.173167	0.071494	-0.008758
C174	C	0.506500	0.404827	0.324575
C175	C	-0.113248	-0.261840	-0.342088
C176	C	0.220086	0.071493	-0.008755
C177	C	0.553419	0.404826	0.324578
C178	C	-0.089822	-0.301849	-0.301938
C179	C	0.243512	0.031485	0.031395
C180	C	0.576845	0.364818	0.364729
C181	C	0.412226	-0.261839	-0.342035
C182	C	0.745560	0.071494	-0.008702
C183	C	1.078893	0.404828	0.324631
C184	C	0.459146	-0.261846	-0.342031
C185	C	0.792479	0.071487	-0.008698
C186	C	1.125813	0.404821	0.324636
C187	C	0.459078	-0.341867	-0.261743
C188	C	0.792412	-0.008534	0.071590
C189	C	1.125745	0.324799	0.404923
C190	C	0.412163	-0.341863	-0.261750
C191	C	0.745496	-0.008530	0.071584
C192	C	1.078829	0.324804	0.404917
C193	C	0.388738	-0.301844	-0.301898
C194	C	0.722071	0.031490	0.031436
C195	C	1.055405	0.364823	0.364769
O196	O	0.337912	-0.375874	-0.227653
O197	O	0.671245	-0.042541	0.105681
O198	O	1.004578	0.290792	0.439014
O199	O	0.337995	-0.227799	-0.376172
O200	O	0.671329	0.105535	-0.042839
O201	O	1.004662	0.438868	0.290494
C202	C	0.126036	-0.261829	-0.342056
C203	C	0.459370	0.071504	-0.008723
C204	C	0.792703	0.404837	0.324610
C205	C	0.102548	-0.301837	-0.301915
C206	C	0.435881	0.031496	0.031418
C207	C	0.769215	0.364830	0.364752
C208	C	0.125975	-0.341846	-0.261771
C209	C	0.459308	-0.008513	0.071562
C210	C	0.792642	0.324820	0.404896
C211	C	0.055630	-0.301840	-0.301921
C212	C	0.388963	0.031493	0.031413
C213	C	0.722297	0.364827	0.364746
C214	C	0.032203	-0.261831	-0.342065
C215	C	0.365536	0.071503	-0.008731
C216	C	0.698870	0.404836	0.324602
C217	C	0.055694	-0.221819	-0.382203
C218	C	0.389027	0.111515	-0.048869
C219	C	0.722361	0.444848	0.284464
C220	C	0.102609	-0.221820	-0.382200
C221	C	0.435943	0.111513	-0.048867
C222	C	0.769276	0.444846	0.284466
C223	C	0.102484	-0.381858	-0.221633
C224	C	0.435817	-0.048525	0.111700
C225	C	0.769151	0.284808	0.445034
C226	C	0.055569	-0.381854	-0.221639
C227	C	0.388902	-0.048520	0.111694
C228	C	0.722235	0.284813	0.445028
C229	C	0.032142	-0.341845	-0.261783
C230	C	0.365475	-0.008511	0.071550
C231	C	0.698808	0.324822	0.404884
C232	C	0.766408	-0.301852	-0.301938
C233	C	1.099742	0.031481	0.031396
C234	C	1.433075	0.364814	0.364729
C235	C	0.816343	-0.301855	-0.301949
C236	C	1.149676	0.031479	0.031384
C237	C	1.483009	0.364812	0.364717
C238	C	0.649267	-0.301834	-0.465334
C239	C	0.982601	0.031499	-0.132001
C240	C	1.315934	0.364832	0.201333
C241	C	0.649283	-0.301829	-0.534975
C242	C	0.982617	0.031504	-0.201642
C243	C	1.315950	0.364838	0.131691
C244	C	0.649295	-0.138424	-0.301955
C245	C	0.982629	0.194910	0.031379
C246	C	1.315962	0.528243	0.364712
C247	C	0.649323	-0.068782	-0.301974
C248	C	0.982656	0.264551	0.031360
C249	C	1.315990	0.597884	0.364693
C250	C	0.678032	-0.261755	-0.567707
C251	C	1.011365	0.071578	-0.234374
C252	C	1.344698	0.404912	0.098960
C253	C	0.678031	-0.261728	-0.633142
C254	C	1.011364	0.071605	-0.299809
C255	C	1.344698	0.404938	0.033524
C256	C	0.649287	-0.301786	-0.665844
C257	C	0.982620	0.031547	-0.332510
C258	C	1.315953	0.364880	0.000823
C259	C	0.620533	-0.341863	-0.633104
C260	C	0.953866	-0.008529	-0.299771
C261	C	1.287199	0.324804	0.033563
C262	C	0.620531	-0.341884	-0.567670
C263	C	0.953864	-0.008551	-0.234337
C264	C	1.287198	0.324783	0.098997
C265	C	0.645721	-0.358202	-0.769508
C266	C	0.979054	-0.024868	-0.436174
C267	C	1.312388	0.308465	-0.102841
C268	C	0.645726	-0.358181	-0.834941
C269	C	0.979059	-0.024848	-0.501607
C270	C	1.312393	0.308485	-0.168274
C271	C	0.649290	-0.301720	-0.867664
C272	C	0.982623	0.031613	-0.534331
C273	C	1.315956	0.364947	-0.200998
C274	C	0.652858	-0.245277	-0.834947
C275	C	0.986191	0.088056	-0.501614
C276	C	1.319524	0.421390	-0.168281
C277	C	0.652856	-0.245298	-0.769513
C278	C	0.986189	0.088035	-0.436180
C279	C	1.319522	0.421368	-0.102847
C280	C	0.649285	-0.301767	-0.736796
C281	C	0.982619	0.031566	-0.403463
C282	C	1.315952	0.364899	-0.070129
C283	C	0.678039	-0.261614	-0.971349
C284	C	1.011372	0.071720	-0.638015
C285	C	1.344705	0.405053	-0.304682
C286	C	0.678035	-0.261586	-1.036785
C287	C	1.011368	0.071748	-0.703452
C288	C	1.344702	0.405081	-0.370119
C289	C	0.620539	-0.341726	-1.036746
C290	C	0.953873	-0.008393	-0.703413
C291	C	1.287206	0.324941	-0.370079
C292	C	0.620541	-0.341748	-0.971310
C293	C	0.953874	-0.008415	-0.637977
C294	C	1.287207	0.324918	-0.304644
C295	C	0.649293	-0.301693	-0.938616
C296	C	0.982626	0.031640	-0.605282
C297	C	1.315959	0.364974	-0.271949
C298	C	0.649219	-0.301814	-0.139123
C299	C	0.982552	0.031519	0.194210
C300	C	1.315885	0.364852	0.527544
C301	C	0.649290	-0.301643	-0.069482
C302	C	0.982623	0.031690	0.263851
C303	C	1.315957	0.365023	0.597185
H304	H	0.701480	-1.062675	-0.229355
H305	H	1.034813	-0.729342	0.103979
H306	H	1.368146	-0.396009	0.437312
H307	H	0.177204	-0.414438	-0.188922
H308	H	0.510537	-0.081105	0.144411
H309	H	0.843870	0.252229	0.477744
Br310	Br	0.275226	-0.167521	-0.436677
Br311	Br	0.608559	0.165812	-0.103344
Br312	Br	0.941892	0.499145	0.229989
H313	H	0.597119	-0.374516	-0.541020
H314	H	0.930452	-0.041183	-0.207687
H315	H	1.263785	0.292150	0.125647
Br316	Br	0.717038	-0.207323	-0.677574
Br317	Br	1.050371	0.126010	-0.344241
Br318	Br	1.383705	0.459344	-0.010907
Br319	Br	0.717057	-0.207253	-0.926974
Br320	Br	1.050390	0.126081	-0.593640
Br321	Br	1.383723	0.459414	-0.260307
H322	H	0.642783	-0.742134	-0.404336
H323	H	0.976116	-0.408800	-0.071003
H324	H	1.309450	-0.075467	0.262330
Br325	Br	0.717061	-0.207204	-1.081209
Br326	Br	1.050394	0.126129	-0.747875
Br327	Br	1.383728	0.459462	-0.414542
Br328	Br	0.640807	-0.878592	-0.434995
Br329	Br	0.974141	-0.545258	-0.101662
Br330	Br	1.307474	-0.211925	0.231672
H331	H	0.701450	-0.943969	-0.229334
H332	H	1.034783	-0.610636	0.103999
H333	H	1.368116	-0.277302	0.437333
H334	H	0.655746	-0.860929	-0.199533
H335	H	0.989079	-0.527595	0.133800
H336	H	1.322413	-0.194262	0.467133
H337	H	0.597131	-0.374336	-1.063371
H338	H	0.930464	-0.041002	-0.730037
H339	H	1.263797	0.292331	-0.396704
Br340	Br	-0.081526	-0.396156	-0.207297
Br341	Br	0.251807	-0.062823	0.126036
Br342	Br	0.585140	0.270510	0.459369
Br343	Br	0.275031	-0.436152	-0.167118
Br344	Br	0.608364	-0.102819	0.166215
Br345	Br	0.941698	0.230515	0.499548
H346	H	0.597160	-1.062729	-0.374593
H347	H	0.930493	-0.729396	-0.041260
H348	H	1.263827	-0.396062	0.292074
H349	H	0.597042	-0.540379	-0.374511
H350	H	0.930375	-0.207045	-0.041178
H351	H	1.263708	0.126288	0.292156
H352	H	0.655760	-0.199341	-0.742878
H353	H	0.989093	0.133993	-0.409544
H354	H	1.322426	0.467326	-0.076211
H355	H	0.642823	-0.404141	-0.861574
H356	H	0.976157	-0.070807	-0.528240
H357	H	1.309490	0.262526	-0.194907
Br358	Br	0.657698	-0.168645	-0.879350
Br359	Br	0.991031	0.164688	-0.546016
Br360	Br	1.324364	0.498021	-0.212683
H361	H	0.597133	-0.374384	-0.944660
H362	H	0.930467	-0.041051	-0.611327
H363	H	1.263800	0.292282	-0.277993
Br364	Br	0.657649	-0.724471	-0.168866
Br365	Br	0.990983	-0.391138	0.164467
Br366	Br	1.324316	-0.057804	0.497800
H367	H	0.393037	-0.374450	-0.229067
H368	H	0.726371	-0.041116	0.104266
H369	H	1.059704	0.292217	0.437599
Br370	Br	0.716996	-0.676796	-0.207563
Br371	Br	1.050330	-0.343462	0.125770
Br372	Br	1.383663	-0.010129	0.459103
H373	H	0.597138	-0.944016	-0.374574
H374	H	0.930471	-0.610683	-0.041240
H375	H	1.263804	-0.277350	0.292093
H376	H	0.597128	-0.374476	-0.659734
H377	H	0.930461	-0.041143	-0.326400
H378	H	1.263794	0.292190	0.006933
Br379	Br	-0.192101	-0.396173	-0.207328
Br380	Br	0.141232	-0.062840	0.126005
Br381	Br	0.474565	0.270493	0.459338
Br382	Br	0.717050	-0.207392	-0.523338
Br383	Br	1.050384	0.125941	-0.190005
Br384	Br	1.383717	0.459274	0.143328
H385	H	0.177371	-0.189240	-0.414885
H386	H	0.510704	0.144093	-0.081552
H387	H	0.844038	0.477427	0.251781
Br388	Br	-0.081376	-0.207539	-0.396572
Br389	Br	0.251958	0.125795	-0.063239
Br390	Br	0.585291	0.459128	0.270094
Br391	Br	0.640898	-0.434837	-0.725103
Br392	Br	0.974231	-0.101503	-0.391770
Br393	Br	1.307565	0.231830	-0.058436
H394	H	0.393160	-0.229249	-0.374726
H395	H	0.726493	0.104084	-0.041393
H396	H	1.059826	0.437417	0.291941
Br397	Br	0.716955	-0.522561	-0.207534
Br398	Br	1.050288	-0.189227	0.125800
Br399	Br	1.383621	0.144106	0.459133
Br400	Br	0.023891	-0.167524	-0.436687
Br401	Br	0.357224	0.165809	-0.103353
Br402	Br	0.690557	0.499143	0.229980
H403	H	0.478268	-0.229264	-0.374724
H404	H	0.811602	0.104069	-0.041391
H405	H	1.144935	0.437402	0.291942
Br406	Br	0.581470	-0.676861	-0.396268
Br407	Br	0.914803	-0.343528	-0.062934
Br408	Br	1.248136	-0.010194	0.270399
Br409	Br	-0.191969	-0.207541	-0.396571
Br410	Br	0.141364	0.125793	-0.063238
Br411	Br	0.474698	0.459126	0.270095
Br412	Br	0.490881	-0.396165	-0.207266
Br413	Br	0.824214	-0.062831	0.126067
Br414	Br	1.157548	0.270502	0.459400
H415	H	0.121729	-0.189239	-0.414890
H416	H	0.455063	0.144094	-0.081557
H417	H	0.788396	0.477427	0.251776
Br418	Br	0.023697	-0.436159	-0.167151
Br419	Br	0.357031	-0.102825	0.166183
Br420	Br	0.690364	0.230508	0.499516
H421	H	0.121554	-0.414438	-0.188941
H422	H	0.454887	-0.081105	0.144392
H423	H	0.788220	0.252228	0.477725
