data_functionalizedCrystal
_audit_creation_method	'MofGen! by Chris Wilmer'
_symmetry_space_group_name_H-M	'P1'
_symmetry_Int_Tables_number	1
_symmetry_cell_setting	triclinic
loop_
_symmetry_equiv_pos_as_xyz
  x,y,z
_cell_length_a	16.109301
_cell_length_b	14.586319
_cell_length_c	16.109301
_cell_angle_alpha	89.995549
_cell_angle_beta	83.461481
_cell_angle_gamma	90.003133
loop_
_atom_site_label
_atom_site_type_symbol
_atom_site_fract_x
_atom_site_fract_y
_atom_site_fract_z
O1	O	1.103134	0.076173	0.106861
O2	O	0.861072	0.076186	0.120161
O3	O	0.988753	0.076184	-0.007520
O4	O	0.975453	0.076175	0.234542
O5	O	0.988737	-0.076297	-0.007512
O6	O	0.861057	-0.076295	0.120168
O7	O	1.103119	-0.076308	0.106869
Cu8	Cu	0.982086	-0.090224	0.113519
Cu9	Cu	0.982105	0.090102	0.113510
O10	O	0.975438	-0.076306	0.234550
C11	C	0.830090	-0.000052	0.119626
C12	C	0.737794	-0.000047	0.118011
N13	N	0.982079	-0.217056	0.113525
C14	C	0.988206	-0.000053	-0.038491
C15	C	0.986591	-0.000044	-0.130786
C16	C	0.515522	-0.000060	0.190018
C17	C	0.428801	-0.000066	0.188494
C18	C	0.448676	-0.000057	0.037006
C19	C	0.535394	-0.000057	0.038530
C20	C	0.568815	-0.000054	0.115039
C21	C	0.395376	-0.000059	0.111990
C22	C	0.301350	-0.000066	0.110337
C23	C	0.662847	-0.000050	0.116693
C24	C	1.134101	-0.000067	0.107404
C25	C	1.226397	-0.000067	0.109019
C26	C	1.032502	-0.452067	0.163954
C27	C	1.032511	-0.548048	0.163948
C28	C	0.931693	-0.548048	0.063064
C29	C	0.931690	-0.452069	0.063066
C30	C	0.982092	-0.404081	0.113515
C31	C	0.982105	-0.596041	0.113508
C32	C	0.982114	-0.700108	0.113501
C33	C	0.982085	-0.300007	0.113521
N34	N	0.982118	0.216934	0.113498
C35	C	0.975984	-0.000066	0.265521
C36	C	0.977600	-0.000070	0.357816
C37	C	0.905592	-0.000053	0.580088
C38	C	0.907116	-0.000046	0.666809
C39	C	1.058605	-0.000058	0.646934
C40	C	1.057080	-0.000059	0.560216
C41	C	0.980571	-0.000060	0.526795
C42	C	0.983620	-0.000053	0.700234
C43	C	0.985273	-0.000046	0.794260
C44	C	0.978917	-0.000066	0.432763
H45	H	0.385413	-0.000072	0.249550
O46	O	0.416347	-0.000088	-0.037384
C47	C	0.481984	-0.000060	-0.103236
H48	H	0.540884	-0.028935	-0.079945
H49	H	0.463874	-0.044319	-0.156653
H50	H	0.494270	0.073096	-0.126359
H51	H	1.073560	-0.587115	0.205019
O52	O	1.132869	0.000058	0.679502
C53	C	1.138303	0.079038	0.729047
H54	H	1.072772	0.105374	0.750662
H55	H	1.171427	0.061272	0.785825
H56	H	1.175103	0.134334	0.690720
O57	O	0.587253	0.000073	-0.034254
C58	C	0.638001	0.079055	-0.037913
H59	H	0.642363	0.105378	0.028078
H60	H	0.703187	0.061295	-0.068894
H61	H	0.609490	0.134357	-0.075882
O62	O	1.129996	-0.000107	0.508559
C63	C	1.197852	-0.000090	0.556650
H64	H	1.176734	-0.028958	0.621382
H65	H	1.250379	-0.044362	0.524644
H66	H	1.221312	0.073061	0.562811
H67	H	0.890656	-0.587132	0.021990
O68	O	0.834204	-0.000082	0.718459
C69	C	0.766354	-0.000059	0.670361
H70	H	0.787470	-0.028931	0.605636
H71	H	0.713815	-0.044323	0.702371
H72	H	0.742910	0.073095	0.664184
O73	O	0.547849	-0.000106	0.264408
C74	C	0.482211	-0.000090	0.330259
H75	H	0.423307	-0.028956	0.306965
H76	H	0.500314	-0.044365	0.383674
H77	H	0.469936	0.073060	0.353387
O78	O	1.081544	-0.405593	0.212975
C79	C	1.126023	-0.468534	0.257507
H80	H	1.130886	-0.536946	0.223087
H81	H	1.191395	-0.440797	0.262682
H82	H	1.091757	-0.478753	0.322759
H83	H	0.890639	-0.412997	0.021988
H84	H	0.843293	-0.000057	0.552881
