data_functionalizedCrystal
_audit_creation_method	'MofGen! by Chris Wilmer'
_symmetry_space_group_name_H-M	'P1'
_symmetry_Int_Tables_number	1
_symmetry_cell_setting	triclinic
loop_
_symmetry_equiv_pos_as_xyz
  x,y,z
_cell_length_a	19.188933
_cell_length_b	19.188928
_cell_length_c	13.448316
_cell_angle_alpha	90.009631
_cell_angle_beta	89.992918
_cell_angle_gamma	96.855309
loop_
_atom_site_label
_atom_site_type_symbol
_atom_site_fract_x
_atom_site_fract_y
_atom_site_fract_z
O1	O	0.926148	-0.087171	-0.082675
O2	O	1.426148	0.412829	0.417325
O3	O	0.722836	-0.098904	-0.082686
O4	O	1.222836	0.401096	0.417314
O5	O	0.830360	0.008618	-0.082655
O6	O	1.330360	0.508618	0.417345
O7	O	0.818624	-0.194693	-0.082706
O8	O	1.318624	0.305307	0.417294
O9	O	0.830342	0.008615	0.082729
O10	O	1.330342	0.508615	0.582729
O11	O	0.722818	-0.098907	0.082698
O12	O	1.222818	0.401093	0.582698
O13	O	0.926130	-0.087174	0.082709
O14	O	1.426130	0.412826	0.582709
Cu15	Cu	0.824472	-0.093041	0.097804
Cu16	Cu	1.324472	0.406959	0.597804
Cu17	Cu	0.824494	-0.093037	-0.097781
Cu18	Cu	1.324494	0.406963	0.402219
O19	O	0.818606	-0.194696	0.082678
O20	O	1.318606	0.305304	0.582678
C21	C	0.696816	-0.098525	0.000005
C22	C	1.196816	0.401475	0.500005
C23	C	0.619312	-0.097384	0.000001
C24	C	1.119312	0.402616	0.500001
C25	C	0.829971	0.034628	0.000041
C26	C	1.329971	0.534628	0.500041
C27	C	0.828831	0.112132	0.000054
C28	C	1.328831	0.612132	0.500054
C29	C	0.066066	-0.089237	-0.090137
C30	C	0.566066	0.410763	0.409863
C31	C	0.138891	-0.090305	-0.090141
C32	C	0.638891	0.409695	0.409859
C33	C	0.175298	-0.090844	0.000010
C34	C	0.675298	0.409156	0.500010
C35	C	0.138877	-0.090297	0.090171
C36	C	0.638877	0.409703	0.590171
C37	C	0.066055	-0.089222	0.090172
C38	C	0.566055	0.410778	0.590172
N39	N	0.284310	-0.132264	0.067102
N40	N	0.784310	0.367736	0.567102
N41	N	0.353488	-0.133287	0.067095
N42	N	0.853488	0.366713	0.567095
C43	C	0.394706	-0.094082	0.000010
C44	C	0.894706	0.405918	0.500010
N45	N	0.364133	-0.053825	-0.067081
N46	N	0.864133	0.446175	0.432919
N47	N	0.294949	-0.052805	-0.067076
N48	N	0.794949	0.447195	0.432924
C49	C	0.254261	-0.092010	0.000018
C50	C	0.754261	0.407990	0.500018
C51	C	0.510083	-0.095782	-0.090149
C52	C	1.010083	0.404218	0.409851
C53	C	0.582910	-0.096846	-0.090150
C54	C	1.082910	0.403154	0.409850
C55	C	0.582894	-0.096845	0.090164
C56	C	1.082894	0.403155	0.590164
C57	C	0.510070	-0.095774	0.090162
C58	C	1.010070	0.404226	0.590162
C59	C	0.473669	-0.095246	0.000002
C60	C	0.973669	0.404754	0.500002
C61	C	0.891922	0.157056	0.000065
C62	C	1.391922	0.657056	0.500065
C63	C	0.890851	0.229880	0.000053
C64	C	1.390851	0.729880	0.500053
C65	C	0.826685	0.257777	0.000050
C66	C	1.326685	0.757777	0.500050
C67	C	0.763586	0.212844	0.000034
C68	C	1.263586	0.712844	0.500034
C69	C	0.764659	0.140021	0.000036
C70	C	1.264659	0.640021	0.500036
N71	N	0.777633	0.365781	0.056337
N72	N	1.277633	0.865781	0.556337
N73	N	0.776618	0.434960	0.056337
N74	N	1.276618	0.934960	0.556337
C75	C	0.823449	0.477186	0.000043
C76	C	1.323449	0.977186	0.500043
N77	N	0.871344	0.447621	-0.056240
N78	N	1.371344	0.947621	0.443760
N79	N	0.872361	0.378436	-0.056236
N80	N	1.372361	0.878436	0.443764
C81	C	0.825515	0.336740	0.000048
C82	C	1.325515	0.836740	0.500048
C83	C	0.885383	0.601074	0.000039
C84	C	1.385383	1.101074	0.500039
C85	C	0.884310	0.673899	0.000021
C86	C	1.384310	1.173899	0.500021
C87	C	0.757043	0.656861	0.000012
C88	C	1.257043	1.156861	0.500012
C89	C	0.758118	0.584038	0.000020
C90	C	1.258118	1.084038	0.500020
C91	C	0.822290	0.556149	0.000038
C92	C	1.322290	1.056149	0.500038
C93	C	0.952150	-0.087553	0.000016
C94	C	1.452150	0.412447	0.500016
C95	C	1.029654	-0.088694	0.000013
C96	C	1.529654	0.411306	0.500013
C97	C	0.818997	0.779295	-0.000006
C98	C	1.318997	1.279295	0.499994
C99	C	0.820143	0.701791	0.000017
C100	C	1.320143	1.201791	0.500017
N101	N	0.824462	-0.093043	0.235368
N102	N	1.324462	0.406957	0.735368
N103	N	0.824509	-0.093030	-0.235346
N104	N	1.324509	0.406970	0.264654
C105	C	0.872127	-0.045438	0.712601
C106	C	1.372127	0.454562	1.212601
C107	C	0.872121	-0.045443	0.608497
C108	C	1.372121	0.454557	1.108497
C109	C	0.824494	-0.093036	0.556450
C110	C	1.324494	0.406964	1.056450
C111	C	0.776873	-0.140633	0.608511
C112	C	1.276873	0.359367	1.108511
C113	C	0.776883	-0.140631	0.712612
C114	C	1.276883	0.359369	1.212612
C115	C	0.776855	-0.140633	0.391531
C116	C	1.276855	0.359367	0.891531
C117	C	0.776844	-0.140634	0.287422
C118	C	1.276844	0.359366	0.787422
C119	C	0.872094	-0.045445	0.287416
C120	C	1.372094	0.454555	0.787416
C121	C	0.872103	-0.045443	0.391517
C122	C	1.372103	0.454557	0.891517
C123	C	0.824482	-0.093039	0.443571
C124	C	1.324482	0.406961	0.943571
H125	H	0.036433	-0.088805	-0.163552
H126	H	0.536433	0.411195	0.336448
H127	H	0.944176	0.134354	0.000076
H128	H	1.444176	0.634354	0.500076
H129	H	0.612536	-0.097281	0.163566
H130	H	1.112536	0.402719	0.663566
H131	H	0.480422	-0.095334	0.163571
H132	H	0.980422	0.404666	0.663571
H133	H	0.168543	-0.090752	-0.163553
H134	H	0.668543	0.409248	0.336447
Cl135	Cl	0.966055	0.566010	0.000067
Cl136	Cl	1.466055	1.066010	0.500067
H137	H	0.910896	-0.006691	0.566116
H138	H	1.410896	0.493309	1.066116
Cl139	Cl	0.628687	-0.097522	-0.203491
Cl140	Cl	1.128687	0.402478	0.296509
Cl141	Cl	0.020277	-0.088542	0.203512
Cl142	Cl	0.520277	0.411458	0.703512
Cl143	Cl	0.678799	0.527559	0.000011
Cl144	Cl	1.178799	1.027559	0.500011
H145	H	0.910882	-0.006685	0.433894
H146	H	1.410882	0.493315	0.933894
Cl147	Cl	0.717019	-0.200466	0.778050
Cl148	Cl	1.217019	0.299534	1.278050
Cl149	Cl	0.931958	0.014390	0.221974
Cl150	Cl	1.431958	0.514390	0.721974
H151	H	0.480444	-0.095350	-0.163563
H152	H	0.980444	0.404650	0.336437
Cl153	Cl	0.970172	0.286366	0.000065
Cl154	Cl	1.470172	0.786366	0.500065
Cl155	Cl	0.682920	0.247913	0.000023
Cl156	Cl	1.182920	0.747913	0.500023
Cl157	Cl	0.184645	-0.090971	0.203503
Cl158	Cl	0.684645	0.409029	0.703503
Cl159	Cl	0.716988	-0.200471	0.456966
Cl160	Cl	1.216988	0.299529	0.956966
Cl161	Cl	0.685337	0.083543	0.000023
Cl162	Cl	1.185337	0.583543	0.500023
Cl163	Cl	0.716968	-0.200470	0.221999
Cl164	Cl	1.216968	0.299530	0.721999
H165	H	0.935688	0.710476	0.000024
H166	H	1.435688	1.210476	0.500024
H167	H	0.704798	0.679574	0.000005
H168	H	1.204798	1.179574	0.500005
H169	H	0.910909	-0.006679	0.754971
H170	H	1.410909	0.493321	1.254971
Cl171	Cl	0.717000	-0.200469	0.543082
Cl172	Cl	1.217000	0.299531	1.043082
