data_functionalizedCrystal
_audit_creation_method	'MofGen! by Chris Wilmer'
_symmetry_space_group_name_H-M	'P1'
_symmetry_Int_Tables_number	1
_symmetry_cell_setting	triclinic
loop_
_symmetry_equiv_pos_as_xyz
  x,y,z
_cell_length_a	19.288856
_cell_length_b	14.044220
_cell_length_c	17.766277
_cell_angle_alpha	89.993125
_cell_angle_beta	90.011354
_cell_angle_gamma	91.839180
loop_
_atom_site_label
_atom_site_type_symbol
_atom_site_fract_x
_atom_site_fract_y
_atom_site_fract_z
O1	O	-0.928950	0.118176	-0.062631
O2	O	-0.428950	0.618176	0.437369
O3	O	-0.727713	0.134131	-0.062625
O4	O	-0.227713	0.634131	0.437375
O5	O	-0.825311	-0.011818	-0.062621
O6	O	-0.325311	0.488182	0.437379
O7	O	-0.831352	0.264125	-0.062636
O8	O	-0.331352	0.764125	0.437364
O9	O	-0.825292	-0.011826	0.062568
O10	O	-0.325292	0.488174	0.562568
O11	O	-0.727694	0.134124	0.062563
O12	O	-0.227694	0.634124	0.562563
O13	O	-0.928931	0.118168	0.062558
O14	O	-0.428931	0.618168	0.562558
Cu15	Cu	-0.828311	0.126145	0.073991
Cu16	Cu	-0.328311	0.626145	0.573991
Cu17	Cu	-0.828333	0.126154	-0.074059
Cu18	Cu	-0.328333	0.626154	0.425941
O19	O	-0.831333	0.264118	0.062553
O20	O	-0.331333	0.764118	0.562553
C21	C	-0.701794	0.133615	-0.000030
C22	C	-0.201794	0.633615	0.499970
C23	C	-0.624592	0.132078	-0.000028
C24	C	-0.124592	0.632078	0.499972
C25	C	-0.065385	0.207316	-0.000021
C26	C	0.434615	0.707316	0.499979
C27	C	-0.137925	0.208769	-0.000027
C28	C	0.362075	0.708769	0.499973
C29	C	-0.177129	0.123133	-0.000021
C30	C	0.322871	0.623133	0.499979
C31	C	-0.143788	0.036038	-0.000030
C32	C	0.356212	0.536038	0.499970
C33	C	-0.071249	0.034587	-0.000032
C34	C	0.428751	0.534587	0.499968
C35	C	-0.294289	0.059262	0.043841
C36	C	0.205711	0.559262	0.543841
C37	C	-0.366826	0.060716	0.043848
C38	C	0.133174	0.560716	0.543848
C39	C	-0.400862	0.127602	-0.000019
C40	C	0.099138	0.627602	0.499981
C41	C	-0.362352	0.193050	-0.043882
C42	C	0.137648	0.693050	0.456118
C43	C	-0.289813	0.191600	-0.043884
C44	C	0.210187	0.691600	0.456116
C45	C	-0.255785	0.124696	-0.000020
C46	C	0.244215	0.624696	0.499980
C47	C	-0.512851	0.216266	-0.000021
C48	C	-0.012851	0.716266	0.499979
C49	C	-0.585392	0.217715	-0.000032
C50	C	-0.085392	0.717715	0.499968
C51	C	-0.591254	0.044981	-0.000027
C52	C	-0.091254	0.544981	0.499973
C53	C	-0.518714	0.043535	-0.000025
C54	C	-0.018714	0.543535	0.499975
C55	C	-0.479517	0.129180	-0.000018
C56	C	0.020483	0.629180	0.499982
C57	C	-0.822657	-0.047125	-0.000026
C58	C	-0.322657	0.452875	0.499974
C59	C	-0.814769	-0.152317	-0.000025
C60	C	-0.314769	0.347683	0.499975
C61	C	-0.800349	-0.344916	-0.000035
C62	C	-0.300349	0.155084	0.499965
C63	C	-0.856292	-0.402790	-0.000039
C64	C	-0.356292	0.097210	0.499961
C65	C	-0.848268	-0.509959	-0.000045
C66	C	-0.348268	-0.009959	0.499955
C67	C	-0.808372	-0.237737	-0.000029
C68	C	-0.308372	0.262263	0.499971
C69	C	0.045150	0.118687	-0.000034
C70	C	0.545150	0.618687	0.499966
C71	C	-0.032052	0.120233	-0.000025
C72	C	0.467948	0.620233	0.499975
C73	C	-0.833987	0.299424	-0.000043
C74	C	-0.333987	0.799424	0.499957
C75	C	-0.841875	0.404616	-0.000050
C76	C	-0.341875	0.904616	0.499950
N77	N	-0.828300	0.126139	0.178121
N78	N	-0.328300	0.626139	0.678121
N79	N	-0.828349	0.126153	-0.178189
N80	N	-0.328349	0.626153	0.321811
C81	C	-0.871533	0.061544	0.217510
C82	C	-0.371533	0.561544	0.717510
C83	C	-0.871537	0.061539	0.296312
C84	C	-0.371537	0.561539	0.796312
C85	C	-0.828315	0.126146	0.335722
C86	C	-0.328315	0.626146	0.835722
C87	C	-0.785073	0.190746	0.296324
C88	C	-0.285073	0.690746	0.796324
C89	C	-0.785065	0.190742	0.217523
C90	C	-0.285065	0.690742	0.717523
C91	C	-0.824564	0.212489	0.460555
C92	C	-0.324564	0.712489	0.960555
C93	C	-0.824576	0.212494	0.539354
C94	C	-0.324576	0.712494	1.039354
C95	C	-0.828334	0.126158	0.578768
C96	C	-0.328334	0.626158	1.078768
C97	C	-0.832094	0.039812	0.539374
C98	C	-0.332094	0.539812	1.039374
C99	C	-0.832087	0.039808	0.460574
C100	C	-0.332087	0.539808	0.960574
C101	C	-0.828318	0.126157	0.421168
C102	C	-0.328318	0.626157	0.921168
C103	C	-0.871574	0.061553	0.703603
C104	C	-0.371574	0.561553	1.203603
C105	C	-0.871573	0.061547	0.782406
C106	C	-0.371573	0.561547	1.282406
C107	C	-0.785112	0.190762	0.782416
C108	C	-0.285112	0.690762	1.282416
C109	C	-0.785110	0.190759	0.703615
C110	C	-0.285110	0.690759	1.203615
C111	C	-0.828344	0.126156	0.664213
C112	C	-0.328344	0.626156	1.164213
H113	H	-0.266583	0.004791	0.079564
H114	H	0.233417	0.504791	0.579564
O115	O	-0.927717	-0.361813	-0.000040
O116	O	-0.427717	0.138187	0.499960
H117	H	-0.967462	-0.420744	-0.000049
H118	H	-0.467462	0.079256	0.499951
O119	O	-0.820501	0.305625	0.418059
O120	O	-0.320501	0.805625	0.918059
H121	H	-0.773374	0.307968	0.382184
H122	H	-0.273374	0.807968	0.882184
H123	H	-0.480935	0.286004	-0.000018
H124	H	0.019065	0.786004	0.499982
H125	H	-0.746432	-0.375853	-0.000036
H126	H	-0.246432	0.124147	0.499964
H127	H	-0.612530	0.288632	-0.000034
H128	H	-0.112530	0.788632	0.499966
O129	O	-0.633527	-0.047388	-0.000019
O130	O	-0.133527	0.452612	0.499981
H131	H	-0.689569	-0.031752	-0.000012
H132	H	-0.189569	0.468248	0.499988
H133	H	-0.906735	0.008938	0.185432
H134	H	-0.406735	0.508938	0.685432
O135	O	-0.820530	0.305624	0.581834
O136	O	-0.320530	0.805624	1.081834
H137	H	-0.773422	0.307970	0.617760
H138	H	-0.273422	0.807970	1.117760
H139	H	-0.749908	0.243362	0.671542
H140	H	-0.249908	0.743362	1.171542
O141	O	-0.399049	0.265193	-0.091207
O142	O	0.100951	0.765193	0.408793
H143	H	-0.455959	0.255200	-0.083848
H144	H	0.044041	0.755200	0.416152
H145	H	-0.749917	0.243362	0.814503
H146	H	-0.249917	0.743362	1.314503
H147	H	-0.906744	0.008937	0.328389
H148	H	-0.406744	0.508937	0.828389
O149	O	-0.836129	-0.053312	0.418080
O150	O	-0.336129	0.446688	0.918080
H151	H	-0.838738	-0.113352	0.458719
H152	H	-0.338738	0.386648	0.958719
O153	O	-0.918172	-0.008152	0.661090
O154	O	-0.418172	0.491848	1.161090
H155	H	-0.954396	0.031598	0.625166
H156	H	-0.454396	0.531598	1.125166
O157	O	-0.482755	-0.050391	-0.000011
O158	O	0.017245	0.449609	0.499989
H159	H	-0.522201	-0.109698	0.000000
H160	H	-0.022201	0.390302	0.500000
O161	O	-0.248280	0.262182	-0.091195
O162	O	0.251720	0.762182	0.408805
H163	H	-0.192122	0.249938	-0.083820
H164	H	0.307878	0.749938	0.416180
O165	O	-0.836151	-0.053326	0.581862
O166	O	-0.336151	0.446674	1.081862
H167	H	-0.789393	-0.059260	0.617771
H168	H	-0.289393	0.440740	1.117771
H169	H	-0.749879	0.243348	0.328415
H170	H	-0.249879	0.743348	0.828415
H171	H	-0.398176	0.007429	0.079569
H172	H	0.101824	0.507429	0.579569
H173	H	-0.175713	-0.033688	-0.000028
H174	H	0.324287	0.466312	0.499972
O175	O	-0.035291	-0.059342	-0.000024
O176	O	0.464709	0.440658	0.499976
H177	H	-0.074735	-0.118649	-0.000016
H178	H	0.425265	0.381351	0.499984
H179	H	-0.906776	0.008941	0.814478
H180	H	-0.406776	0.508941	1.314478
H181	H	-0.749859	0.243344	0.185452
H182	H	-0.249859	0.743344	0.685452
H183	H	-0.033474	0.277056	-0.000019
H184	H	0.466526	0.777056	0.499981
H185	H	-0.165069	0.279685	-0.000016
H186	H	0.334931	0.779685	0.499984
