data_functionalizedCrystal
_audit_creation_method	'MofGen! by Chris Wilmer'
_symmetry_space_group_name_H-M	'P1'
_symmetry_Int_Tables_number	1
_symmetry_cell_setting	triclinic
loop_
_symmetry_equiv_pos_as_xyz
  x,y,z
_cell_length_a	19.188931
_cell_length_b	8.559649
_cell_length_c	7.681452
_cell_angle_alpha	97.064711
_cell_angle_beta	83.555085
_cell_angle_gamma	103.538277
loop_
_atom_site_label
_atom_site_type_symbol
_atom_site_fract_x
_atom_site_fract_y
_atom_site_fract_z
O1	O	0.910535	-0.186115	0.146358
O2	O	1.410535	0.313885	0.646358
O3	O	0.705819	-0.212977	0.146375
O4	O	1.205819	0.287023	0.646375
O5	O	0.826213	0.033182	0.146363
O6	O	1.326213	0.533182	0.646363
O7	O	0.790141	-0.432274	0.146370
O8	O	1.290141	0.067726	0.646370
O9	O	0.836560	0.006287	-0.146495
O10	O	1.336560	0.506287	0.353505
O11	O	0.716166	-0.239872	-0.146484
O12	O	1.216166	0.260128	0.353516
O13	O	0.920882	-0.213010	-0.146500
O14	O	1.420882	0.286990	0.353500
Zn15	Zn	0.820167	-0.230711	-0.192990
Zn16	Zn	1.320167	0.269289	0.307010
Zn17	Zn	0.806534	-0.195276	0.192864
Zn18	Zn	1.306534	0.304724	0.692864
O19	O	0.800488	-0.459169	-0.146489
O20	O	1.300488	0.040831	0.353511
C21	C	0.685027	-0.225555	-0.000052
C22	C	1.185027	0.274445	0.499948
C23	C	0.607658	-0.222943	-0.000046
C24	C	1.107658	0.277057	0.499954
C25	C	0.941674	-0.200432	-0.000069
C26	C	1.441674	0.299568	0.499931
C27	C	1.019042	-0.203043	-0.000064
C28	C	1.519042	0.296957	0.499936
C29	C	0.834120	0.079283	-0.000063
C30	C	1.334120	0.579283	0.499937
C31	C	0.842256	0.256721	-0.000054
C32	C	1.342256	0.756721	0.499946
C33	C	1.071517	-0.058603	-0.000051
C34	C	1.571517	0.441397	0.499949
C35	C	1.144213	-0.061058	-0.000062
C36	C	1.644213	0.438942	0.499938
C37	C	1.164429	-0.207957	-0.000050
C38	C	1.664429	0.292043	0.499950
C39	C	1.111943	-0.352417	-0.000073
C40	C	1.611943	0.147583	0.499927
C41	C	1.039249	-0.349960	-0.000080
C42	C	1.539249	0.150040	0.499920
N43	N	1.263030	-0.311089	0.099646
N44	N	1.763030	0.188911	0.599646
N45	N	1.332087	-0.313412	0.099657
N46	N	1.832087	0.186588	0.599657
C47	C	1.383449	-0.215369	-0.000032
C48	C	1.883449	0.284631	0.499968
N49	N	1.363148	-0.114887	-0.099710
N50	N	1.863148	0.385113	0.400290
N51	N	1.294085	-0.112558	-0.099713
N52	N	1.794085	0.387442	0.400287
C53	C	1.243251	-0.210637	-0.000043
C54	C	1.743251	0.289363	0.499957
C55	C	1.514751	-0.073580	-0.000033
C56	C	2.014751	0.426420	0.499967
C57	C	1.587448	-0.076042	-0.000055
C58	C	2.087448	0.423958	0.499945
C59	C	1.555175	-0.367403	-0.000048
C60	C	2.055175	0.132597	0.499952
C61	C	1.482480	-0.364939	-0.000045
C62	C	1.982480	0.135061	0.499955
C63	C	1.462273	-0.218023	-0.000029
C64	C	1.962273	0.281977	0.499971
C65	C	0.792581	-0.505270	-0.000059
C66	C	1.292581	-0.005270	0.499941
C67	C	0.784444	-0.682707	-0.000056
C68	C	1.284444	-0.182707	0.499944
N69	N	0.829476	-0.254894	-0.456325
N70	N	1.329476	0.245106	0.043675
N71	N	0.797231	-0.171080	0.456199
N72	N	1.297231	0.328920	0.956199
H73	H	1.055071	0.061027	-0.000044
H74	H	1.555071	0.561027	0.499956
F75	F	0.872501	-0.366706	-0.554615
F76	F	1.372501	0.133294	-0.054615
H77	H	0.728724	0.233407	-0.000057
H78	H	1.228724	0.733407	0.499943
H79	H	0.897981	0.340615	-0.000072
H80	H	1.397981	0.840615	0.499928
F81	F	1.200071	0.092681	-0.000044
F82	F	1.700071	0.592681	0.499956
F83	F	0.983398	-0.503699	-0.000092
F84	F	1.483398	-0.003699	0.499908
H85	H	1.498298	0.046047	-0.000028
H86	H	1.998298	0.546047	0.499972
H87	H	1.128407	-0.472024	-0.000068
H88	H	1.628407	0.027976	0.499932
F89	F	1.643299	0.077698	-0.000058
F90	F	2.143299	0.577698	0.499942
F91	F	1.576685	-0.523748	-0.000059
F92	F	2.076685	-0.023748	0.499941
H93	H	0.764305	-0.085547	-0.468590
H94	H	1.264305	0.414453	0.031410
F95	F	1.426628	-0.518673	-0.000042
F96	F	1.926628	-0.018673	0.499958
