data_functionalizedCrystal
_audit_creation_method	'MofGen! by Chris Wilmer'
_symmetry_space_group_name_H-M	'P1'
_symmetry_Int_Tables_number	1
_symmetry_cell_setting	triclinic
loop_
_symmetry_equiv_pos_as_xyz
  x,y,z
_cell_length_a	15.995350
_cell_length_b	10.908891
_cell_length_c	10.065918
_cell_angle_alpha	78.549094
_cell_angle_beta	99.814207
_cell_angle_gamma	108.211768
loop_
_atom_site_label
_atom_site_type_symbol
_atom_site_fract_x
_atom_site_fract_y
_atom_site_fract_z
O1	O	-0.120752	-1.720705	0.113487
O2	O	0.379248	-1.220705	0.613487
O3	O	-0.055364	-1.346841	0.113489
O4	O	0.444636	-0.846841	0.613489
O5	O	-0.211369	-1.543993	0.113487
O6	O	0.288631	-1.043993	0.613487
O7	O	0.035253	-1.523553	0.113489
O8	O	0.535253	-1.023553	0.613489
O9	O	-0.228529	-1.510275	-0.113502
O10	O	0.271471	-1.010275	0.386498
O11	O	-0.072525	-1.313123	-0.113499
O12	O	0.427475	-0.813123	0.386501
O13	O	-0.137912	-1.686987	-0.113501
O14	O	0.362088	-1.186987	0.386499
Zn15	Zn	-0.107943	-1.494702	-0.149540
Zn16	Zn	0.392057	-0.994702	0.350460
Zn17	Zn	-0.085333	-1.539127	0.149527
Zn18	Zn	0.414667	-1.039127	0.649527
O19	O	0.018092	-1.489835	-0.113499
O20	O	0.518092	-0.989835	0.386501
C21	C	-0.057834	-1.282140	-0.000005
C22	C	0.442166	-0.782140	0.499995
C23	C	-0.039635	-1.139588	-0.000004
C24	C	0.460365	-0.639588	0.499996
C25	C	-0.106035	-1.090579	-0.000004
C26	C	0.393965	-0.590579	0.499996
C27	C	-0.087228	-0.943244	-0.000003
C28	C	0.412772	-0.443244	0.499997
C29	C	-0.251026	-1.526289	-0.000005
C30	C	0.248974	-1.026289	0.499995
C31	C	-0.343623	-1.523757	0.000003
C32	C	0.156377	-1.023757	0.500003
C33	C	-0.680104	-1.514658	-0.000002
C34	C	-0.180104	-1.014658	0.499998
C35	C	-0.613080	-1.374326	0.000508
C36	C	-0.113080	-0.874326	0.500508
C37	C	-0.516781	-1.376784	-0.000003
C38	C	-0.016781	-0.876784	0.499997
C39	C	-0.513172	-1.519171	0.000001
C40	C	-0.013172	-1.019171	0.500001
C41	C	-0.573692	-1.569171	-0.129618
C42	C	-0.073692	-1.069171	0.370382
C43	C	-0.669845	-1.565628	-0.129727
C44	C	-0.169845	-1.065628	0.370273
C45	C	-0.651092	-1.606872	0.128402
C46	C	-0.151092	-1.106872	0.628402
C47	C	-0.554012	-1.607093	0.130115
C48	C	-0.054012	-1.107093	0.630115
C49	C	-0.418831	-1.521729	-0.000001
C50	C	0.081169	-1.021729	0.499999
C51	C	-0.774447	-1.512104	-0.000008
C52	C	-0.274447	-1.012104	0.499992
C53	C	0.057750	-1.507539	-0.000004
C54	C	0.557750	-1.007539	0.499996
C55	C	0.150347	-1.510073	-0.000003
C56	C	0.650347	-1.010073	0.499997
C57	C	-0.135442	-0.751688	-0.000006
C58	C	0.364558	-0.251688	0.499994
C59	C	-0.153636	-0.894240	-0.000004
C60	C	0.346364	-0.394240	0.499996
N61	N	-0.123376	-1.464392	-0.353645
N62	N	0.376624	-0.964392	0.146355
C63	C	-0.090701	-1.528572	-0.421424
C64	C	0.409299	-1.028572	0.078576
C65	C	-0.102588	-1.505256	-0.578591
C66	C	0.397412	-1.005256	-0.078591
N67	N	-0.069909	-1.569446	0.353633
N68	N	0.430091	-1.069446	0.853633
H69	H	-0.016452	-0.876130	0.000003
H70	H	0.483548	-0.376130	0.500003
H71	H	-0.224411	-0.961354	0.000006
H72	H	0.275589	-0.461354	0.500006
H73	H	-0.160152	-1.392187	-0.411972
H74	H	0.339848	-0.892187	0.088028
H75	H	-0.139367	-1.433047	-0.636913
H76	H	0.360633	-0.933047	-0.136913
H77	H	-0.176805	-1.157698	0.000002
H78	H	0.323195	-0.657698	0.500002
H79	H	0.031135	-1.072470	0.000003
H80	H	0.531135	-0.572470	0.500003
H81	H	-0.631882	-1.304725	-0.091926
H82	H	-0.131882	-0.804725	0.408074
H83	H	-0.616770	-1.332014	0.093461
H84	H	-0.116770	-0.832014	0.593461
H85	H	-0.473754	-1.336148	0.092913
H86	H	0.026246	-0.836148	0.592913
H87	H	-0.488322	-1.308154	-0.093078
H88	H	0.011678	-0.808154	0.406922
H89	H	-0.053932	-1.600786	-0.363098
H90	H	0.446068	-1.100786	0.136902
H91	H	-0.512464	-1.570704	0.226004
H92	H	-0.012464	-1.070704	0.726004
H93	H	-0.552517	-1.712091	0.137945
H94	H	-0.052517	-1.212091	0.637945
H95	H	-0.688440	-1.500734	-0.226622
H96	H	-0.188440	-1.000734	0.273378
H97	H	-0.716892	-1.667840	-0.135604
H98	H	-0.216892	-1.167840	0.364396
H99	H	-0.574497	-1.673064	-0.134435
H100	H	-0.074497	-1.173064	0.365565
H101	H	-0.033135	-1.641663	-0.588048
H102	H	0.466865	-1.141663	-0.088048
H103	H	-0.697202	-1.710524	0.129276
H104	H	-0.197202	-1.210524	0.629276
H105	H	-0.545905	-1.506742	-0.226080
H106	H	-0.045905	-1.006742	0.273920
H107	H	-0.657812	-1.575560	0.226646
H108	H	-0.157812	-1.075560	0.726646
