data_functionalizedCrystal
_audit_creation_method	'MofGen! by Chris Wilmer'
_symmetry_space_group_name_H-M	'P1'
_symmetry_Int_Tables_number	1
_symmetry_cell_setting	triclinic
loop_
_symmetry_equiv_pos_as_xyz
  x,y,z
_cell_length_a	34.490303
_cell_length_b	34.489386
_cell_length_c	34.485816
_cell_angle_alpha	60.004462
_cell_angle_beta	60.008900
_cell_angle_gamma	59.994399
loop_
_atom_site_label
_atom_site_type_symbol
_atom_site_fract_x
_atom_site_fract_y
_atom_site_fract_z
O1	O	0.053846	-0.566517	0.473678
O2	O	0.553846	-0.066517	0.973678
O3	O	0.020329	-0.441078	0.381663
O4	O	0.520329	0.058922	0.881663
O5	O	0.099768	-0.520436	0.381578
O6	O	0.599768	-0.020436	0.881578
O7	O	-0.025592	-0.487159	0.473762
O8	O	0.474408	0.012841	0.973762
O9	O	0.126127	-0.494082	0.407849
O10	O	0.626127	0.005918	0.907849
O11	O	0.046689	-0.414724	0.407933
O12	O	0.546689	0.085276	0.907933
O13	O	0.080206	-0.540163	0.499949
O14	O	0.580206	-0.040163	0.999949
Zn15	Zn	0.067632	-0.473259	0.458112
Zn16	Zn	0.567632	0.026741	0.958112
Zn17	Zn	0.032903	-0.507982	0.423499
Zn18	Zn	0.532903	-0.007982	0.923499
O19	O	0.000767	-0.460805	0.500033
O20	O	0.500767	0.039195	1.000033
N21	N	0.091336	-0.449565	0.481736
N22	N	0.591336	0.050435	0.981736
N23	N	0.009203	-0.531680	0.399875
N24	N	0.509203	-0.031680	0.899875
C25	C	0.142510	-0.268211	0.532817
C26	C	0.642510	0.231789	1.032817
C27	C	0.142641	-0.398441	0.662987
C28	C	0.642641	0.101559	1.162987
C29	C	0.142524	-0.398421	0.532817
C30	C	0.642524	0.101579	1.032817
C31	C	0.272762	-0.398394	0.532723
C32	C	0.772762	0.101606	1.032723
C33	C	0.156853	-0.311177	0.547124
C34	C	0.656853	0.188823	1.047124
C35	C	0.156928	-0.384109	0.620020
C36	C	0.656928	0.115891	1.120020
C37	C	0.229794	-0.384081	0.547073
C38	C	0.729794	0.115919	1.047073
C39	C	0.156863	-0.384097	0.547124
C40	C	0.656863	0.115903	1.047124
C41	C	0.124253	-0.213522	0.514606
C42	C	0.624253	0.286478	1.014606
C43	C	0.124277	-0.416652	0.514606
C44	C	0.624277	0.083348	1.014606
C45	C	0.175110	-0.365866	0.565335
C46	C	0.675110	0.134134	1.065335
C47	C	0.352285	-0.384669	0.490824
C48	C	0.852285	0.115331	0.990824
C49	C	0.401998	-0.401229	0.474223
C50	C	0.901998	0.098771	0.974223
C51	C	0.402027	-0.481671	0.504898
C52	C	0.902027	0.018329	1.004898
C53	C	0.352316	-0.465109	0.521500
C54	C	0.852316	0.034891	1.021500
C55	C	0.136220	-0.188652	0.465734
C56	C	0.636220	0.311348	0.965734
C57	C	0.119621	-0.138936	0.449181
C58	C	0.619621	0.361064	0.949181
C59	C	0.079092	-0.138961	0.530374
C60	C	0.579092	0.361039	1.030374
C61	C	0.095691	-0.188678	0.546927
C62	C	0.595691	0.311322	1.046927
C63	C	0.075398	-0.404656	0.526651
C64	C	0.575398	0.095344	1.026651
C65	C	0.058814	-0.421229	0.510091
C66	C	0.558814	0.078771	1.010091
C67	C	0.139984	-0.461794	0.469452
C68	C	0.639984	0.038206	0.969452
C69	C	0.156570	-0.445221	0.486007
C70	C	0.656570	0.054779	0.986007
C71	C	0.075593	-0.404694	0.742565
C72	C	0.575593	0.095306	1.242565
C73	C	0.059066	-0.421281	0.792280
C74	C	0.559066	0.078719	1.292280
C75	C	0.140274	-0.461856	0.792215
C76	C	0.640274	0.038144	1.292215
C77	C	0.156800	-0.445269	0.742499
C78	C	0.656800	0.054731	1.242499
C79	C	0.124458	-0.416687	0.717675
C80	C	0.624458	0.083313	1.217675
C81	C	0.327446	-0.416608	0.514460
C82	C	0.827446	0.083392	1.014460
C83	C	-0.023585	-0.564792	0.161919
C84	C	0.476415	-0.064792	0.661919
C85	C	-0.023910	-0.769260	0.366530
C86	C	0.476090	-0.269260	0.866530
C87	C	-0.023880	-0.564780	0.366623
C88	C	0.476120	-0.064780	0.866623
C89	C	-0.228325	-0.564561	0.366222
C90	C	0.271675	-0.064561	0.866222
C91	C	-0.129610	-0.597564	0.333467
C92	C	0.370390	-0.097564	0.833467
C93	C	-0.056729	-0.597644	0.333613
C94	C	0.443271	-0.097644	0.833613
C95	C	-0.074925	-0.615849	0.315324
C96	C	0.425075	-0.115849	0.815324
C97	C	-0.088689	-0.695351	0.357144
C98	C	0.411311	-0.195351	0.857144
C99	C	-0.072155	-0.745068	0.373736
C100	C	0.427845	-0.245068	0.873736
C101	C	0.008283	-0.745150	0.343188
C102	C	0.508283	-0.245150	0.843188
C103	C	-0.008252	-0.695435	0.326596
C104	C	0.491748	-0.195435	0.826596
C105	C	-0.154529	-0.609541	0.382326
C106	C	0.345471	-0.109541	0.882326
C107	C	-0.204241	-0.592916	0.398818
C108	C	0.295759	-0.092916	0.898818
C109	C	-0.204114	-0.552341	0.317588
C110	C	0.295886	-0.052341	0.817588
C111	C	-0.154401	-0.568966	0.301096
C112	C	0.345599	-0.068966	0.801096
C113	C	-0.068707	-0.548770	0.321590
C114	C	0.431293	-0.048770	0.821590
C115	C	-0.052166	-0.532225	0.338221
C116	C	0.447834	-0.032225	0.838221
C117	C	-0.011669	-0.613425	0.378886
C118	C	0.488331	-0.113425	0.878886
C119	C	-0.028210	-0.629972	0.362261
C120	C	0.471790	-0.129972	0.862261
C121	C	-0.068581	-0.548777	0.235758
C122	C	0.431419	-0.048777	0.735758
C123	C	-0.051939	-0.532234	0.186043
C124	C	0.448061	-0.032234	0.686043
C125	C	-0.011379	-0.613438	0.186090
C126	C	0.488621	-0.113438	0.686090
C127	C	-0.028020	-0.629981	0.235806
C128	C	0.471980	-0.129981	0.735806
C129	C	-0.056622	-0.597649	0.260639
C130	C	0.443378	-0.097649	0.760639
C131	C	-0.056739	-0.670537	0.333576
C132	C	0.443261	-0.170537	0.833576
C133	C	-0.005614	-0.545951	0.107238
C134	C	0.494386	-0.045951	0.607238
C135	C	-0.006360	-0.823943	0.385033
C136	C	0.493640	-0.323943	0.885033
C137	C	-0.005995	-0.545937	0.384582
C138	C	0.494005	-0.045937	0.884582
C139	C	-0.283006	-0.545971	0.383725
C140	C	0.216994	-0.045971	0.883725
N141	N	0.426163	-0.449489	0.481488
N142	N	0.926163	0.050511	0.981488
O143	O	0.588601	-0.457377	0.364497
O144	O	1.088601	0.042623	0.864497
O145	O	0.588789	-0.549696	0.489801
O146	O	1.088789	-0.049696	0.989801
O147	O	0.588709	-0.549485	0.410335
O148	O	1.088709	-0.049485	0.910335
O149	O	0.588681	-0.457588	0.443963
O150	O	1.088681	0.042412	0.943963
O151	O	0.509731	-0.523223	0.436741
O152	O	1.009731	-0.023223	0.936741
O153	O	0.509811	-0.523434	0.516207
O154	O	1.009811	-0.023434	1.016207
O155	O	0.509624	-0.431115	0.390903
O156	O	1.009624	0.068885	0.890903
Zn157	Zn	0.497178	-0.473105	0.457747
Zn158	Zn	0.997178	0.026895	0.957747
Zn159	Zn	0.601234	-0.507706	0.422956
Zn160	Zn	1.101234	-0.007706	0.922956
O161	O	0.509704	-0.431326	0.470368
O162	O	1.009704	0.068674	0.970368
N163	N	0.672250	-0.531322	0.399211
N164	N	1.172250	-0.031322	0.899211
N165	N	0.091303	-0.114798	0.481730
N166	N	0.591303	0.385202	0.981730
O167	O	-0.025603	0.047729	0.473733
O168	O	0.474397	0.547729	0.973733
O169	O	0.099703	0.047764	0.381394
O170	O	0.599703	0.547764	0.881394
O171	O	0.020199	0.047731	0.381655
O172	O	0.520199	0.547731	0.881655
O173	O	0.053901	0.047761	0.473472
O174	O	0.553901	0.547761	0.973472
O175	O	0.046564	-0.031252	0.407974
O176	O	0.546564	0.468748	0.907974
O177	O	0.126068	-0.031219	0.407713
O178	O	0.626068	0.468781	0.907713
O179	O	0.000762	-0.031254	0.500052
O180	O	0.500762	0.468746	1.000052
Zn181	Zn	0.067601	-0.043777	0.458061
Zn182	Zn	0.567601	0.456223	0.958061
Zn183	Zn	0.032864	0.060287	0.423385
Zn184	Zn	0.532864	0.560287	0.923385
O185	O	0.080266	-0.031222	0.499791
O186	O	0.580266	0.468778	0.999791
N187	N	0.009156	0.131307	0.399717
N188	N	0.509156	0.631307	0.899717
N189	N	0.091635	-0.449614	0.816396
N190	N	0.591635	0.050386	1.316396
O191	O	0.083664	-0.566502	0.978913
O192	O	0.583664	-0.066502	1.478913
O193	O	-0.008637	-0.441152	0.978954
O194	O	0.491363	0.058848	1.478954
O195	O	-0.008421	-0.520640	0.978930
O196	O	0.491579	-0.020640	1.478930
O197	O	0.083448	-0.487013	0.978936
O198	O	0.583448	0.012987	1.478936
O199	O	0.017877	-0.494296	0.899950
O200	O	0.517877	0.005704	1.399950
O201	O	0.017661	-0.414807	0.899974
O202	O	0.517661	0.085193	1.399974
O203	O	0.109961	-0.540157	0.899933
O204	O	0.609961	-0.040157	1.399933
Zn205	Zn	0.067986	-0.473299	0.887414
Zn206	Zn	0.567986	0.026701	1.387414
Zn207	Zn	0.033338	-0.508010	0.991473
Zn208	Zn	0.533338	-0.008010	1.491473
O209	O	0.109746	-0.460669	0.899956
O210	O	0.609746	0.039331	1.399956
N211	N	0.009689	-0.531700	1.062491
N212	N	0.509689	-0.031700	1.562491
C213	C	0.030367	-0.412095	0.382120
C214	C	0.530367	0.087905	0.882120
C215	C	0.128741	-0.510370	0.382016
C216	C	0.628741	-0.010370	0.882016
C217	C	0.070168	-0.569147	0.499490
C218	C	0.570168	-0.069147	0.999490
C219	C	-0.028207	-0.470871	0.499595
C220	C	0.471793	0.029129	0.999595
C221	C	0.549323	-0.549278	0.518791
C222	C	1.049323	-0.049278	1.018791
C223	C	0.549225	-0.549017	0.420381
C224	C	1.049225	-0.049017	0.920381
C225	C	0.549087	-0.431532	0.361914
C226	C	1.049087	0.068468	0.861914
C227	C	0.549188	-0.431794	0.460322
C228	C	1.049188	0.068206	0.960322
C229	C	0.128638	0.008374	0.381806
C230	C	0.628638	0.508374	0.881806
C231	C	0.030215	0.008236	0.382161
C232	C	0.530215	0.508236	0.882161
C233	C	-0.028206	0.008233	0.499608
C234	C	0.471794	0.508233	0.999608
C235	C	0.070250	0.008272	0.499285
C236	C	0.570250	0.508272	0.999285
C237	C	-0.008199	-0.412187	0.939469
C238	C	0.491801	0.087813	1.439469
C239	C	-0.007927	-0.510619	0.939425
C240	C	0.492073	-0.010619	1.439425
C241	C	0.109523	-0.569121	0.939417
C242	C	0.609523	-0.069121	1.439417
C243	C	0.109257	-0.470684	0.939444
C244	C	0.609257	0.029316	1.439444
H245	H	0.019274	-0.411508	0.812539
H246	H	0.519274	0.088492	1.312539
C247	C	0.020584	0.008320	0.343650
C248	C	0.520584	0.508320	0.843650
C249	C	0.025787	0.048962	0.303906
C250	C	0.525787	0.548962	0.803906
C251	C	0.016910	0.049057	0.268426
C252	C	0.516910	0.549057	0.768426
H253	H	0.042477	-0.019190	0.334940
H254	H	0.542477	0.480810	0.834940
H255	H	-0.010868	0.008334	0.355252
H256	H	0.489132	0.508334	0.855252
H257	H	0.057235	0.048944	0.292305
H258	H	0.557235	0.548944	0.792305
H259	H	0.003895	0.076479	0.312601
H260	H	0.503895	0.576479	0.812601
H261	H	-0.014542	0.049071	0.280028
H262	H	0.485458	0.549071	0.780028
H263	H	0.038805	0.021545	0.259720
H264	H	0.538805	0.521545	0.759720
H265	H	0.020435	0.076634	0.241457
H266	H	0.520435	0.576634	0.741457
H267	H	-0.036776	-0.517804	0.939391
H268	H	0.463224	-0.017804	1.439391
C269	C	0.549165	-0.587532	0.410881
C270	C	1.049165	-0.087532	0.910881
C271	C	0.508574	-0.600236	0.443264
C272	C	1.008574	-0.100236	0.943264
C273	C	0.508506	-0.635718	0.434532
C274	C	1.008506	-0.135718	0.934532
H275	H	0.549101	-0.575975	0.379467
H276	H	1.049101	-0.075975	0.879467
H277	H	0.576716	-0.614545	0.414414
H278	H	1.076716	-0.114545	0.914414
H279	H	0.481030	-0.573228	0.439728
H280	H	0.981030	-0.073228	0.939728
H281	H	0.508629	-0.611801	0.474682
H282	H	1.008629	-0.111801	0.974682
H283	H	0.536057	-0.662732	0.438064
H284	H	1.036057	-0.162732	0.938064
H285	H	0.508443	-0.624158	0.403116
H286	H	1.008443	-0.124158	0.903116
H287	H	0.480968	-0.644346	0.456505
H288	H	0.980968	-0.144346	0.956505
H289	H	0.159477	-0.208876	0.439413
H290	H	0.659477	0.291124	0.939413
C291	C	0.176570	0.008606	0.343124
C292	C	0.676570	0.508606	0.843124
C293	C	0.212275	-0.031924	0.359092
C294	C	0.712275	0.468076	0.859092
C295	C	0.256437	-0.031725	0.323476
C296	C	0.756437	0.468275	0.823476
H297	H	0.176650	0.008638	0.315524
H298	H	0.676650	0.508638	0.815524
H299	H	0.182232	0.036202	0.335738
H300	H	0.682232	0.536202	0.835738
H301	H	0.206615	-0.059513	0.366472
H302	H	0.706615	0.440487	0.866472
H303	H	0.212210	-0.031965	0.386688
H304	H	0.712210	0.468035	0.886688
H305	H	0.262098	-0.004129	0.316090
H306	H	0.762098	0.495871	0.816090
H307	H	0.256512	-0.031691	0.295878
H308	H	0.756512	0.468309	0.795878
H309	H	0.280668	-0.059221	0.334307
H310	H	0.780668	0.440779	0.834307
H311	H	0.023205	-0.376060	0.353221
H312	H	0.523205	0.123940	0.853221
C313	C	-0.076231	0.008326	0.538212
C314	C	0.423769	0.508326	1.038212
C315	C	-0.111765	0.048961	0.522064
C316	C	0.388235	0.548961	1.022064
C317	C	-0.156011	0.049069	0.557616
C318	C	0.343989	0.549069	1.057616
H319	H	-0.082094	-0.019189	0.545725
H320	H	0.417906	0.480811	1.045725
H321	H	-0.076280	0.008360	0.565769
H322	H	0.423720	0.508360	1.065769
H323	H	-0.111717	0.048924	0.494516
H324	H	0.388283	0.548924	0.994516
H325	H	-0.105919	0.076483	0.514555
H326	H	0.394081	0.576483	1.014555
H327	H	-0.156060	0.049103	0.585173
H328	H	0.343940	0.549103	1.085173
H329	H	-0.161869	0.021552	0.565126
H330	H	0.338131	0.521552	1.065126
H331	H	-0.180126	0.076641	0.546666
H332	H	0.319874	0.576641	1.046666
H333	H	0.164745	-0.517463	0.353068
H334	H	0.664745	-0.017463	0.853068
H335	H	-0.064213	-0.463781	0.528541
H336	H	0.435787	0.036219	1.028541
C337	C	0.079828	0.008204	0.537823
C338	C	0.579828	0.508204	1.037823
C339	C	0.074596	-0.032430	0.577569
C340	C	0.574596	0.467570	1.077569
C341	C	0.083409	-0.032507	0.613082
C342	C	0.583409	0.467493	1.113082
H343	H	0.111267	0.008190	0.526273
H344	H	0.611267	0.508190	1.026273
H345	H	0.057908	0.035730	0.546508
H346	H	0.557908	0.535730	1.046508
H347	H	0.096516	-0.059948	0.568884
H348	H	0.596516	0.440052	1.068884
H349	H	0.043161	-0.032424	0.589132
H350	H	0.543161	0.467576	1.089132
H351	H	0.061488	-0.004981	0.621768
H352	H	0.561488	0.495019	1.121768
H353	H	0.114847	-0.032520	0.601528
H354	H	0.614847	0.467480	1.101528
H355	H	0.079856	-0.060074	0.640055
H356	H	0.579856	0.439926	1.140055
C357	C	-0.046825	-0.364162	0.939386
C358	C	0.453175	0.135838	1.439386
C359	C	-0.059458	-0.343318	0.898750
C360	C	0.440542	0.156682	1.398750
C361	C	-0.095033	-0.299075	0.898654
C362	C	0.404967	0.200925	1.398654
H363	H	-0.073843	-0.368262	0.966898
H364	H	0.426157	0.131738	1.466898
H365	H	-0.035364	-0.344184	0.939365
H366	H	0.464636	0.155816	1.439365
H367	H	-0.070919	-0.363291	0.898775
H368	H	0.429081	0.136709	1.398775
H369	H	-0.032451	-0.339206	0.871231
H370	H	0.467549	0.160794	1.371231
H371	H	-0.083572	-0.279097	0.898633
H372	H	0.416428	0.220903	1.398633
H373	H	-0.122048	-0.303179	0.926167
H374	H	0.377952	0.196821	1.426167
H375	H	-0.103606	-0.284925	0.871080
H376	H	0.396394	0.215075	1.371080
H377	H	0.138503	-0.605120	0.939399
H378	H	0.638503	-0.105120	1.439399
H379	H	0.077330	-0.605181	0.528391
H380	H	0.577330	-0.105181	1.028391
H381	H	0.138119	-0.463487	0.939440
H382	H	0.638119	0.036513	1.439440
C383	C	0.549416	-0.587873	0.566798
C384	C	1.049416	-0.087873	1.066798
C385	C	0.549444	-0.570853	0.596101
C386	C	1.049444	-0.070853	1.096101
C387	C	0.549536	-0.606395	0.640327
C388	C	1.049536	-0.106395	1.140327
H389	H	0.521898	-0.596552	0.581087
H390	H	1.021898	-0.096552	1.081087
H391	H	0.576984	-0.614848	0.562633
H392	H	1.076984	-0.114848	1.062633
H393	H	0.521878	-0.543887	0.600268
H394	H	1.021878	-0.043887	1.100268
H395	H	0.576959	-0.562177	0.581828
H396	H	1.076959	-0.062177	1.081828
H397	H	0.577104	-0.633370	0.636161
H398	H	1.077104	-0.133370	1.136161
H399	H	0.522018	-0.615072	0.654610
H400	H	1.022018	-0.115072	1.154610
H401	H	0.549559	-0.594854	0.660213
H402	H	1.049559	-0.094854	1.160213
H403	H	0.049253	-0.381417	0.722357
H404	H	0.549253	0.118583	1.222357
H405	H	0.166284	-0.485062	0.446169
H406	H	0.666284	0.014938	0.946169
C407	C	0.549103	-0.393230	0.469870
C408	C	1.049103	0.106770	0.969870
C409	C	0.508443	-0.353504	0.464653
C410	C	1.008443	0.146496	0.964653
C411	C	0.508353	-0.317968	0.473437
C412	C	1.008353	0.182032	0.973437
H413	H	0.549120	-0.404770	0.501300
H414	H	1.049120	0.095230	1.001300
H415	H	0.576607	-0.384527	0.447928
H416	H	1.076607	0.115473	0.947928
H417	H	0.480946	-0.362207	0.486593
H418	H	0.980946	0.137793	0.986593
H419	H	0.508417	-0.341950	0.433226
H420	H	1.008417	0.158050	0.933226
H421	H	0.535856	-0.309264	0.451496
H422	H	1.035856	0.190736	0.951496
H423	H	0.508371	-0.329512	0.504867
H424	H	1.008371	0.170488	1.004867
H425	H	0.480767	-0.291008	0.469895
H426	H	0.980767	0.208992	0.969895
C427	C	0.175463	-0.492900	0.819081
C428	C	0.675463	0.007100	1.319081
C429	C	0.221796	-0.499863	0.786644
C430	C	0.721796	0.000137	1.286644
C431	C	0.254224	-0.528469	0.811375
C432	C	0.754224	-0.028469	1.311375
H433	H	0.170767	-0.477768	0.838479
H434	H	0.670767	0.022232	1.338479
H435	H	0.170733	-0.522721	0.838459
H436	H	0.670733	-0.022721	1.338459
H437	H	0.226525	-0.470048	0.767274
H438	H	0.726525	0.029952	1.267274
H439	H	0.226508	-0.515001	0.767245
H440	H	0.726508	-0.015001	1.267245
H441	H	0.249493	-0.558290	0.830753
H442	H	0.749493	-0.058290	1.330753
H443	H	0.249523	-0.513334	0.830772
H444	H	0.749523	-0.013334	1.330772
H445	H	0.285664	-0.533201	0.789370
H446	H	0.785664	-0.033201	1.289370
C447	C	0.209839	-0.458259	0.715391
C448	C	0.709839	0.041741	1.215391
C449	C	0.217393	-0.437628	0.666540
C450	C	0.717393	0.062372	1.166540
C451	C	0.266245	-0.449589	0.641555
C452	C	0.766245	0.050411	1.141555
H453	H	0.223864	-0.446827	0.723468
H454	H	0.723864	0.053173	1.223468
H455	H	0.223829	-0.491804	0.723499
H456	H	0.723829	0.008196	1.223499
H457	H	0.203409	-0.404090	0.658436
H458	H	0.703409	0.095910	1.158436
H459	H	0.203380	-0.449058	0.658449
H460	H	0.703380	0.050942	1.158449
H461	H	0.280235	-0.483134	0.649663
H462	H	0.780235	0.016866	1.149663
H463	H	0.280266	-0.438156	0.649636
H464	H	0.780266	0.061844	1.149636
H465	H	0.271377	-0.435597	0.608407
H466	H	0.771377	0.064403	1.108407
C467	C	0.040262	-0.373621	0.557672
C468	C	0.540262	0.126379	1.057672
C469	C	-0.006094	-0.366650	0.564661
C470	C	0.493906	0.133350	1.064661
C471	C	-0.038474	-0.338057	0.593231
C472	C	0.461526	0.161943	1.093231
H473	H	0.045001	-0.388766	0.587486
H474	H	0.545001	0.111234	1.087486
H475	H	0.044997	-0.343802	0.542493
H476	H	0.544997	0.156198	1.042493
H477	H	-0.010827	-0.396463	0.579841
H478	H	0.489173	0.103537	1.079841
H479	H	-0.010849	-0.351499	0.534856
H480	H	0.489151	0.148501	1.034856
H481	H	-0.033739	-0.308238	0.578051
H482	H	0.466261	0.191762	1.078051
H483	H	-0.033730	-0.353205	0.623042
H484	H	0.466270	0.146795	1.123042
H485	H	-0.069930	-0.333320	0.597972
H486	H	0.430070	0.166680	1.097972
C487	C	0.005758	-0.408307	0.523188
C488	C	0.505758	0.091693	1.023188
C489	C	-0.006093	-0.449826	0.548021
C490	C	0.493907	0.050174	1.048021
C491	C	-0.054961	-0.437942	0.560086
C492	C	0.445039	0.062058	1.060086
H493	H	-0.011158	-0.388941	0.542616
H494	H	0.488842	0.111059	1.042616
H495	H	-0.002433	-0.391453	0.495095
H496	H	0.497567	0.108547	0.995095
H497	H	0.002093	-0.466673	0.576109
H498	H	0.502093	0.033327	1.076109
H499	H	0.010811	-0.469197	0.528602
H500	H	0.510811	0.030803	1.028602
H501	H	-0.063153	-0.421088	0.531993
H502	H	0.436847	0.078912	1.031993
H503	H	-0.071874	-0.418575	0.579513
H504	H	0.428126	0.081425	1.079513
H505	H	-0.063009	-0.466110	0.576933
H506	H	0.436991	0.033890	1.076933
H507	H	0.196371	-0.454985	0.476195
H508	H	0.696371	0.045015	0.976195
H509	H	0.332093	-0.491119	0.540748
H510	H	0.832093	0.008881	1.040748
C511	C	0.548935	-0.392899	0.313935
C512	C	1.048935	0.107101	0.813935
C513	C	0.508287	-0.382020	0.305555
C514	C	1.008287	0.117980	0.805555
C515	C	0.508133	-0.346438	0.261360
C516	C	1.008133	0.153562	0.761360
H517	H	0.548891	-0.365288	0.313839
H518	H	1.048891	0.134712	0.813839
H519	H	0.576447	-0.403759	0.289733
H520	H	1.076447	0.096241	0.789733
H521	H	0.480782	-0.371159	0.329750
H522	H	0.980782	0.128841	0.829750
H523	H	0.508322	-0.409620	0.305641
H524	H	1.008322	0.090380	0.805641
H525	H	0.535644	-0.357297	0.237158
H526	H	1.035644	0.142703	0.737158
H527	H	0.508090	-0.318830	0.261268
H528	H	1.008090	0.181170	0.761268
H529	H	0.480556	-0.339055	0.255666
H530	H	0.980556	0.160945	0.755666
C531	C	0.428944	-0.534349	0.512604
C532	C	0.928944	-0.034349	1.012604
C533	C	0.396550	-0.558779	0.536869
C534	C	0.896550	-0.058779	1.036869
C535	C	0.421330	-0.607308	0.543980
C536	C	0.921330	-0.107308	1.043980
H537	H	0.448318	-0.539018	0.482759
H538	H	0.948318	-0.039018	0.982759
H539	H	0.448348	-0.546030	0.530823
H540	H	0.948348	-0.046030	1.030823
H541	H	0.377154	-0.547102	0.518650
H542	H	0.877154	-0.047102	1.018650
H543	H	0.377174	-0.554123	0.566717
H544	H	0.877174	-0.054123	1.066717
H545	H	0.440734	-0.618988	0.562199
H546	H	0.940734	-0.118988	1.062199
H547	H	0.440703	-0.611972	0.514133
H548	H	0.940703	-0.111972	1.014133
H549	H	0.399354	-0.623890	0.560448
H550	H	0.899354	-0.123890	1.060448
H551	H	0.332037	-0.345175	0.485091
H552	H	0.832037	0.154825	0.985091
C553	C	0.428885	-0.366474	0.448546
C554	C	0.928885	0.133526	0.948546
C555	C	0.396467	-0.320452	0.445923
C556	C	0.896467	0.179548	0.945923
C557	C	0.421218	-0.288424	0.422265
C558	C	0.921218	0.211576	0.922265
H559	H	0.448302	-0.374725	0.465435
H560	H	0.948302	0.125275	0.965435
H561	H	0.448245	-0.367711	0.417382
H562	H	0.948245	0.132289	0.917382
H563	H	0.377116	-0.319216	0.477081
H564	H	0.877116	0.180784	0.977081
H565	H	0.377049	-0.312187	0.429031
H566	H	0.877049	0.187813	0.929031
H567	H	0.440578	-0.289660	0.391101
H568	H	0.940578	0.210340	0.891101
H569	H	0.440635	-0.296678	0.439155
H570	H	0.940635	0.203322	0.939155
H571	H	0.399226	-0.257193	0.420478
H572	H	0.899226	0.242807	0.920478
H573	H	0.055841	-0.118733	0.556693
H574	H	0.555841	0.381267	1.056693
C575	C	0.132587	-0.111990	0.396106
C576	C	0.632587	0.388010	0.896106
C577	C	0.115676	-0.124095	0.375664
C578	C	0.615676	0.375905	0.875664
C579	C	0.127614	-0.099289	0.326771
C580	C	0.627614	0.400711	0.826771
H581	H	0.118618	-0.078816	0.390811
H582	H	0.618618	0.421184	0.890811
H583	H	0.166129	-0.120134	0.382099
H584	H	0.666129	0.379866	0.882099
H585	H	0.082140	-0.115948	0.389667
H586	H	0.582140	0.384052	0.889667
H587	H	0.129642	-0.157265	0.380945
H588	H	0.629642	0.342735	0.880945
H589	H	0.161157	-0.107432	0.312764
H590	H	0.661157	0.392568	0.812764
H591	H	0.113645	-0.066115	0.321481
H592	H	0.613645	0.433885	0.821481
H593	H	0.116146	-0.107502	0.312894
H594	H	0.616146	0.392498	0.812894
C595	C	0.082666	-0.215592	0.600006
C596	C	0.582666	0.284408	1.100006
C597	C	0.054108	-0.183191	0.624766
C598	C	0.554108	0.316809	1.124766
C599	C	0.042103	-0.207968	0.673665
C600	C	0.542103	0.292032	1.173665
H601	H	0.065780	-0.234995	0.608232
H602	H	0.565780	0.265005	1.108232
H603	H	0.110783	-0.234970	0.608158
H604	H	0.610783	0.265030	1.108158
H605	H	0.025995	-0.163821	0.616618
H606	H	0.525995	0.336179	1.116618
H607	H	0.070983	-0.163787	0.616555
H608	H	0.570983	0.336213	1.116555
H609	H	0.070221	-0.227346	0.681816
H610	H	0.570221	0.272654	1.181816
H611	H	0.025220	-0.227370	0.681886
H612	H	0.525220	0.272630	1.181886
H613	H	0.022730	-0.185988	0.690470
H614	H	0.522730	0.314012	1.190470
H615	H	-0.061683	-0.492436	0.165791
H616	H	0.438317	0.007564	0.665791
H617	H	-0.091873	-0.522445	0.255974
H618	H	0.408127	-0.022445	0.755974
H619	H	-0.018278	-0.669778	0.256062
H620	H	0.481722	-0.169778	0.756062
C621	C	0.019681	-0.648618	0.159219
C622	C	0.519681	-0.148618	0.659219
C623	C	0.026597	-0.694958	0.191652
C624	C	0.526597	-0.194958	0.691652
C625	C	0.055213	-0.727380	0.166916
C626	C	0.555213	-0.227380	0.666916
H627	H	0.004576	-0.643890	0.139780
H628	H	0.504576	-0.143890	0.639780
H629	H	0.049513	-0.643909	0.139881
H630	H	0.549513	-0.143909	0.639881
H631	H	-0.003229	-0.699666	0.210981
H632	H	0.496771	-0.199666	0.710981
H633	H	0.041708	-0.699701	0.211092
H634	H	0.541708	-0.199701	0.711092
H635	H	0.085044	-0.722670	0.147578
H636	H	0.585044	-0.222670	0.647578
H637	H	0.040105	-0.722647	0.147478
H638	H	0.540105	-0.222647	0.647478
H639	H	0.059913	-0.758825	0.188918
H640	H	0.559913	-0.258825	0.688918
H641	H	-0.091926	-0.522444	0.298262
H642	H	0.408074	-0.022444	0.798262
H643	H	0.011557	-0.639751	0.402207
H644	H	0.511557	-0.139751	0.902207
C645	C	-0.065089	-0.479157	0.325069
C646	C	0.434911	0.020843	0.825069
C647	C	-0.048097	-0.458737	0.275620
C648	C	0.451903	0.041263	0.775620
C649	C	-0.059981	-0.409855	0.263485
C650	C	0.440019	0.090145	0.763485
H651	H	-0.098623	-0.465086	0.336398
H652	H	0.401377	0.034914	0.836398
H653	H	-0.051135	-0.473919	0.339048
H654	H	0.448865	0.026081	0.839048
H655	H	-0.062053	-0.463971	0.261647
H656	H	0.437947	0.036029	0.761647
H657	H	-0.014564	-0.472794	0.264280
H658	H	0.485436	0.027206	0.764280
H659	H	-0.046026	-0.404618	0.277464
H660	H	0.453974	0.095382	0.777464
H661	H	-0.093514	-0.395789	0.274817
H662	H	0.406486	0.104211	0.774817
H663	H	-0.048449	-0.395995	0.229934
H664	H	0.451551	0.104005	0.729934
C665	C	-0.015134	-0.683054	0.375341
C666	C	0.484866	-0.183054	0.875341
C667	C	0.013394	-0.707825	0.403977
C668	C	0.513394	-0.207825	0.903977
C669	C	0.025455	-0.756725	0.416029
C670	C	0.525455	-0.256725	0.916029
H671	H	-0.043218	-0.691236	0.392184
H672	H	0.456782	-0.191236	0.892184
H673	H	0.001791	-0.691241	0.347243
H674	H	0.501791	-0.191241	0.847243
H675	H	-0.003531	-0.699643	0.432071
H676	H	0.496469	-0.199643	0.932071
H677	H	0.041484	-0.699658	0.387143
H678	H	0.541484	-0.199658	0.887143
H679	H	0.042380	-0.764911	0.387931
H680	H	0.542380	-0.264911	0.887931
H681	H	-0.002631	-0.764902	0.432870
H682	H	0.497369	-0.264902	0.932870
H683	H	0.044816	-0.773538	0.435456
H684	H	0.544816	-0.273538	0.935456
H685	H	0.017768	-0.675232	0.307405
H686	H	0.517768	-0.175232	0.807405
H687	H	0.047765	-0.765423	0.337508
H688	H	0.547765	-0.265423	0.837508
H689	H	-0.098172	-0.765271	0.392919
H690	H	0.401828	-0.265271	0.892919
H691	H	-0.134345	-0.632833	0.408685
H692	H	0.365655	-0.132833	0.908685
C693	C	-0.141321	-0.668339	0.364632
C694	C	0.358679	-0.168339	0.864632
C695	C	-0.156301	-0.680408	0.342376
C696	C	0.343699	-0.180408	0.842376
C697	C	-0.204780	-0.655525	0.349251
C698	C	0.295220	-0.155525	0.849251
H699	H	-0.158760	-0.676435	0.397663
H700	H	0.341240	-0.176435	0.897663
H701	H	-0.146603	-0.635172	0.351353
H702	H	0.353397	-0.135172	0.851353
H703	H	-0.151024	-0.713567	0.355658
H704	H	0.348976	-0.213567	0.855658
H705	H	-0.138875	-0.672311	0.309344
H706	H	0.361125	-0.172311	0.809344
H707	H	-0.210062	-0.622358	0.335971
H708	H	0.289938	-0.122358	0.835971
H709	H	-0.222215	-0.663623	0.382283
H710	H	0.277785	-0.163623	0.882283
H711	H	-0.214950	-0.663707	0.334148
H712	H	0.285050	-0.163707	0.834148
C713	C	-0.231214	-0.605995	0.451887
C714	C	0.268786	-0.105995	0.951887
C715	C	-0.198863	-0.634611	0.476706
C716	C	0.301137	-0.134611	0.976706
C717	C	-0.223692	-0.646676	0.525593
C718	C	0.276308	-0.146676	1.025593
H719	H	-0.250611	-0.577913	0.460089
H720	H	0.249389	-0.077913	0.960089
H721	H	-0.250600	-0.622859	0.460013
H722	H	0.249400	-0.122859	0.960013
H723	H	-0.179485	-0.617746	0.468583
H724	H	0.320515	-0.117746	0.968583
H725	H	-0.179465	-0.662698	0.468518
H726	H	0.320535	-0.162698	0.968518
H727	H	-0.243078	-0.663541	0.533719
H728	H	0.256922	-0.163541	1.033719
H729	H	-0.243087	-0.618592	0.533790
H730	H	0.256913	-0.118592	1.033790
H731	H	-0.201745	-0.666097	0.542438
H732	H	0.298255	-0.166097	1.042438
H733	H	-0.224299	-0.529059	0.291228
H734	H	0.275701	-0.029059	0.791228
H735	H	-0.134111	-0.559208	0.261309
H736	H	0.365889	-0.059208	0.761309
