data_functionalizedCrystal
_audit_creation_method	'MofGen! by Chris Wilmer'
_symmetry_space_group_name_H-M	'P1'
_symmetry_Int_Tables_number	1
_symmetry_cell_setting	triclinic
loop_
_symmetry_equiv_pos_as_xyz
  x,y,z
_cell_length_a	18.215407
_cell_length_b	16.120444
_cell_length_c	18.215399
_cell_angle_alpha	87.129468
_cell_angle_beta	90.016899
_cell_angle_gamma	92.923917
loop_
_atom_site_label
_atom_site_type_symbol
_atom_site_fract_x
_atom_site_fract_y
_atom_site_fract_z
Zn1	Zn	1.110204	-0.331973	0.430910
Zn2	Zn	1.443538	0.001360	0.764243
Zn3	Zn	1.776871	0.334693	1.097576
Zn4	Zn	1.103869	-0.471395	0.314081
Zn5	Zn	1.437202	-0.138062	0.647414
Zn6	Zn	1.770535	0.195271	0.980747
Zn7	Zn	0.987136	-0.331993	0.307864
Zn8	Zn	1.320469	0.001340	0.641198
Zn9	Zn	1.653803	0.334673	0.974531
Zn10	Zn	0.980861	-0.471342	0.437110
Zn11	Zn	1.314194	-0.138008	0.770443
Zn12	Zn	1.647528	0.195325	1.103776
O13	O	1.045517	-0.401676	0.372491
O14	O	1.378851	-0.068343	0.705824
O15	O	1.712184	0.264991	1.039158
O16	O	1.212347	-0.350482	0.415419
O17	O	1.545681	-0.017149	0.748752
O18	O	1.879014	0.316185	1.082086
O19	O	1.088358	-0.452934	0.210273
O20	O	1.421692	-0.119601	0.543607
O21	O	1.755025	0.213733	0.876940
O22	O	1.008739	-0.215325	0.318990
O23	O	1.342072	0.118009	0.652324
O24	O	1.675405	0.451342	0.985657
O25	O	1.207693	-0.452915	0.329585
O26	O	1.541026	-0.119581	0.662919
O27	O	1.874359	0.213752	0.996252
O28	O	1.099157	-0.215310	0.409391
O29	O	1.432490	0.118023	0.742725
O30	O	1.765823	0.451357	1.076058
O31	O	1.002595	-0.350516	0.205706
O32	O	1.335929	-0.017183	0.539039
O33	O	1.669262	0.316150	0.872373
O34	O	0.883320	-0.350464	0.325002
O35	O	1.216653	-0.017131	0.658335
O36	O	1.549987	0.316202	0.991669
O37	O	0.998044	-0.452823	0.539270
O38	O	1.331377	-0.119490	0.872603
O39	O	1.664711	0.213843	1.205937
O40	O	0.878710	-0.452843	0.419958
O41	O	1.212043	-0.119509	0.753291
O42	O	1.545376	0.213824	1.086625
O43	O	1.093072	-0.350430	0.534715
O44	O	1.426405	-0.017097	0.868048
O45	O	1.759739	0.316237	1.201382
O46	O	1.082274	-0.588054	0.335597
O47	O	1.415607	-0.254721	0.668930
O48	O	1.748940	0.078612	1.002264
O49	O	0.991901	-0.588015	0.425986
O50	O	1.325234	-0.254681	0.759319
O51	O	1.658567	0.078652	1.092652
C52	C	0.854312	-0.401650	0.372479
C53	C	1.187646	-0.068317	0.705812
C54	C	1.520979	0.265016	1.039145
C55	C	0.772513	-0.401659	0.372492
C56	C	1.105846	-0.068326	0.705825
C57	C	1.439180	0.265007	1.039158
C58	C	0.505070	-0.455072	0.421874
C59	C	0.838403	-0.121739	0.755207
C60	C	1.171736	0.211595	1.088541
C61	C	0.581929	-0.455065	0.421870
C62	C	0.915262	-0.121731	0.755203
C63	C	1.248595	0.211602	1.088537
C64	C	0.586706	-0.348299	0.323122
C65	C	0.920039	-0.014965	0.656455
C66	C	1.253372	0.318368	0.989789
C67	C	0.509848	-0.348311	0.323123
C68	C	0.843181	-0.014977	0.656456
C69	C	1.176515	0.318356	0.989790
C70	C	0.469032	-0.401696	0.372503
C71	C	0.802365	-0.068363	0.705836
C72	C	1.135698	0.264971	1.039170
C73	C	0.622749	-0.401677	0.372498
C74	C	0.956082	-0.068344	0.705832
C75	C	1.289415	0.264990	1.039165
C76	C	0.706083	-0.401669	0.372494
C77	C	1.039416	-0.068335	0.705827
C78	C	1.372749	0.264998	1.039160
C79	C	0.385692	-0.401705	0.372507
C80	C	0.719026	-0.068372	0.705840
C81	C	1.052359	0.264961	1.039174
C82	C	1.035739	-0.618285	0.382155
C83	C	1.369072	-0.284951	0.715488
C84	C	1.702405	0.048382	1.048821
C85	C	1.031623	-0.710951	0.386314
C86	C	1.364956	-0.377618	0.719647
C87	C	1.698289	-0.044284	1.052980
C88	C	1.067050	-0.921893	0.351076
C89	C	1.400383	-0.588560	0.684409
C90	C	1.733716	-0.255226	1.017742
C91	C	1.024121	-0.880608	0.393914
C92	C	1.357455	-0.547274	0.727248
C93	C	1.690788	-0.213941	1.060581
C94	C	1.028296	-0.786202	0.389684
C95	C	1.361630	-0.452868	0.723017
C96	C	1.694963	-0.119535	1.056351
C97	C	1.062876	-1.016307	0.355305
C98	C	1.396209	-0.682974	0.688638
C99	C	1.729542	-0.349641	1.021972
C100	C	1.237469	-0.401702	0.372504
C101	C	1.570802	-0.068369	0.705837
C102	C	1.904136	0.264964	1.039171
C103	C	1.319268	-0.401713	0.372510
C104	C	1.652601	-0.068380	0.705843
C105	C	1.985934	0.264953	1.039176
C106	C	1.045565	-0.401618	0.564442
C107	C	1.378898	-0.068285	0.897775
C108	C	1.712231	0.265048	1.231108
C109	C	1.045585	-0.401594	0.646239
C110	C	1.378918	-0.068261	0.979573
C111	C	1.712252	0.265073	1.312906
C112	C	1.055354	-0.184221	0.362806
C113	C	1.388688	0.149112	0.696139
C114	C	1.722021	0.482445	1.029472
C115	C	1.059546	-0.091555	0.358678
C116	C	1.392880	0.241778	0.692012
C117	C	1.726213	0.575112	1.025345
C118	C	1.045515	-0.401673	0.181285
C119	C	1.378849	-0.068340	0.514618
C120	C	1.712182	0.264994	0.847951
C121	C	1.045648	-0.401463	0.099477
C122	C	1.378981	-0.068129	0.432810
C123	C	1.712315	0.265204	0.766143
C124	C	1.095085	-0.348228	0.832061
C125	C	1.428419	-0.014895	1.165394
C126	C	1.761752	0.318439	1.498727
C127	C	1.095095	-0.348204	0.908918
C128	C	1.428428	-0.014870	1.242252
C129	C	1.761762	0.318463	1.575585
C130	C	0.996143	-0.454831	0.913650
C131	C	1.329476	-0.121498	1.246984
C132	C	1.662809	0.211836	1.580317
C133	C	0.996130	-0.454850	0.836794
C134	C	1.329463	-0.121517	1.170127
C135	C	1.662797	0.211816	1.503461
C136	C	1.045605	-0.401550	0.796001
C137	C	1.378939	-0.068217	1.129334
C138	C	1.712272	0.265116	1.462668
C139	C	1.045628	-0.401506	0.949715
C140	C	1.378961	-0.068173	1.283049
C141	C	1.712295	0.265160	1.616382
C142	C	1.045638	-0.401480	1.033048
C143	C	1.378972	-0.068147	1.366381
C144	C	1.712305	0.265186	1.699714
C145	C	1.045594	-0.401575	0.712663
C146	C	1.378928	-0.068241	1.045996
C147	C	1.712261	0.265092	1.379330
H148	H	0.611267	-0.498530	0.462072
H149	H	0.944600	-0.165196	0.795405
H150	H	1.277933	0.168137	1.128739
Br151	Br	0.642103	-0.275847	0.256112
Br152	Br	0.975437	0.057486	0.589445
Br153	Br	1.308770	0.390819	0.922779
Br154	Br	1.162229	-0.275891	0.776701
Br155	Br	1.495562	0.057443	1.110034
Br156	Br	1.828895	0.390776	1.443367
H157	H	0.955863	-0.498228	0.946873
H158	H	1.289196	-0.164895	1.280207
H159	H	1.622530	0.168439	1.613540
H160	H	0.984234	-0.916163	0.433767
H161	H	1.317567	-0.582830	0.767100
H162	H	1.650900	-0.249497	1.100433
Br163	Br	0.460934	-0.275872	0.256110
Br164	Br	0.794268	0.057461	0.589443
Br165	Br	1.127601	0.390795	0.922777
Br166	Br	0.928967	-0.527214	0.787851
Br167	Br	1.262300	-0.193881	1.121184
Br168	Br	1.595634	0.139452	1.454517
Br169	Br	1.133528	-0.862634	0.284655
Br170	Br	1.466861	-0.529301	0.617988
Br171	Br	1.800194	-0.195968	0.951322
H172	H	1.135386	-0.304782	0.938274
H173	H	1.468719	0.028551	1.271608
H174	H	1.802052	0.361885	1.604941
H175	H	0.471839	-0.498542	0.462082
H176	H	0.805172	-0.165209	0.795416
H177	H	1.138506	0.168125	1.128749
