data_functionalizedCrystal
_audit_creation_method	'MofGen! by Chris Wilmer'
_symmetry_space_group_name_H-M	'P1'
_symmetry_Int_Tables_number	1
_symmetry_cell_setting	triclinic
loop_
_symmetry_equiv_pos_as_xyz
  x,y,z
_cell_length_a	13.897448
_cell_length_b	14.908571
_cell_length_c	14.908308
_cell_angle_alpha	89.824947
_cell_angle_beta	93.267188
_cell_angle_gamma	93.286109
loop_
_atom_site_label
_atom_site_type_symbol
_atom_site_fract_x
_atom_site_fract_y
_atom_site_fract_z
Zn1	Zn	-0.503381	-1.345318	-0.587582
Zn2	Zn	-0.655952	-1.353905	-0.437223
Zn3	Zn	-0.484854	-1.203632	-0.428580
Zn4	Zn	-0.654806	-1.194933	-0.578874
O5	O	-0.574748	-1.274447	-0.508065
O6	O	-0.531853	-1.472283	-0.574898
O7	O	-0.625981	-1.341206	-0.310251
O8	O	-0.352335	-1.222474	-0.449699
O9	O	-0.643947	-1.478592	-0.464429
O10	O	-0.365946	-1.326570	-0.566518
O11	O	-0.500276	-1.230801	-0.303902
O12	O	-0.499165	-1.076652	-0.441256
O13	O	-0.641993	-1.207647	-0.705854
O14	O	-0.624028	-1.070260	-0.551676
O15	O	-0.530742	-1.318134	-0.712252
O16	O	-0.790777	-1.332770	-0.455986
O17	O	-0.789935	-1.215974	-0.560056
C18	C	-0.825357	-1.274383	-0.508035
C19	C	-0.932575	-1.274436	-0.508057
C20	C	-0.559463	-1.040831	-0.494584
C21	C	-0.552948	-0.940888	-0.488838
C22	C	-0.588307	-1.260963	-0.742590
C23	C	-0.594084	-1.255216	-0.842531
C24	C	-1.128880	-1.274527	-0.508119
C25	C	-1.019642	-1.274474	-0.508087
C26	C	-0.323164	-1.274535	-0.508116
C27	C	-0.215954	-1.274572	-0.508138
C28	C	-0.590094	-1.508975	-0.521599
C29	C	-0.596634	-1.608918	-0.527367
C30	C	-0.670908	-0.746485	-0.592867
C31	C	-0.664790	-0.652579	-0.587471
C32	C	-0.534590	-0.659168	-0.472656
C33	C	-0.540708	-0.753074	-0.478051
C34	C	-0.608870	-0.796729	-0.538158
C35	C	-0.614992	-0.890637	-0.543549
C36	C	-0.484788	-0.897224	-0.428738
C37	C	-0.478670	-0.803318	-0.423343
C38	C	-0.489073	-1.359466	-1.036993
C39	C	-0.494498	-1.354070	-1.130897
C40	C	-0.610355	-1.239023	-1.124242
C41	C	-0.604930	-1.244420	-1.030339
C42	C	-0.544287	-1.304644	-0.986718
C43	C	-0.538868	-1.310044	-0.892813
C44	C	-0.654719	-1.194994	-0.886160
C45	C	-0.660144	-1.189597	-0.980064
C46	C	-0.561177	-1.287931	-0.274455
C47	C	-0.555139	-1.293851	-0.174525
H48	H	-0.670495	-0.926180	-0.592489
N49	N	-0.740547	-0.791070	-0.654253
N50	N	-0.795942	-0.746198	-0.703089
H51	H	-0.845129	-0.777685	-0.746443
H52	H	-0.479089	-0.623607	-0.423726
N53	N	-0.711108	-1.138973	-0.834807
N54	N	-0.699889	-1.055403	-0.840511
H55	H	-0.739714	-1.015839	-0.804243
N56	N	-0.427137	-1.420993	-0.992445
N57	N	-0.377848	-1.469943	-1.037345
H58	H	-0.334105	-1.513399	-1.005885
H59	H	-0.434274	-0.938142	-0.384188
N60	N	-0.409048	-0.758707	-0.361959
N61	N	-0.403590	-0.674863	-0.357151
H62	H	-0.354420	-0.643356	-0.313796
H63	H	-0.449534	-1.398709	-1.171828
H64	H	-0.659727	-1.189991	-1.159775
N65	N	-0.476926	-1.371568	-0.848267
N66	N	-0.427631	-1.420509	-0.893172
H67	H	-0.383880	-1.463961	-0.861714
H68	H	-0.715306	-0.611674	-0.632022
N69	N	-0.722074	-1.128083	-1.024639
N70	N	-0.726908	-1.123268	-1.108481
H71	H	-0.770649	-1.079823	-1.139962
