data_functionalizedCrystal
_audit_creation_method	'MofGen! by Chris Wilmer'
_symmetry_space_group_name_H-M	'P1'
_symmetry_Int_Tables_number	1
_symmetry_cell_setting	triclinic
loop_
_symmetry_equiv_pos_as_xyz
  x,y,z
_cell_length_a	14.519709
_cell_length_b	11.792254
_cell_length_c	10.868271
_cell_angle_alpha	89.995741
_cell_angle_beta	89.993918
_cell_angle_gamma	83.939371
loop_
_atom_site_label
_atom_site_type_symbol
_atom_site_fract_x
_atom_site_fract_y
_atom_site_fract_z
O1	O	0.126460	1.506199	-0.102324
O2	O	0.459793	1.839532	0.231009
O3	O	0.793127	2.172865	0.564343
O4	O	0.139475	1.175787	-0.102327
O5	O	0.472808	1.509121	0.231006
O6	O	0.806142	1.842454	0.564340
O7	O	-0.001238	1.349754	-0.102314
O8	O	0.332095	1.683087	0.231019
O9	O	0.665428	2.016420	0.564352
O10	O	0.267174	1.332233	-0.102337
O11	O	0.600507	1.665566	0.230997
O12	O	0.933840	1.998899	0.564330
O13	O	-0.001244	1.349739	0.102330
O14	O	0.332089	1.683073	0.435664
O15	O	0.665423	2.016406	0.768997
O16	O	0.139470	1.175773	0.102318
O17	O	0.472803	1.509106	0.435651
O18	O	0.806136	1.842440	0.768984
O19	O	0.126455	1.506184	0.102321
O20	O	0.459788	1.839518	0.435654
O21	O	0.793121	2.172851	0.768987
Zn22	Zn	0.132961	1.340977	0.134811
Zn23	Zn	0.466294	1.674310	0.468144
Zn24	Zn	0.799628	2.007643	0.801478
Zn25	Zn	0.132968	1.340995	-0.134817
Zn26	Zn	0.466302	1.674329	0.198516
Zn27	Zn	0.799635	2.007662	0.531849
O28	O	0.267168	1.332218	0.102308
O29	O	0.600501	1.665552	0.435641
O30	O	0.933835	1.998885	0.768975
C31	C	0.138652	1.133494	-0.000005
C32	C	0.471986	1.466827	0.333328
C33	C	0.805319	1.800161	0.666662
C34	C	0.136199	1.007495	-0.000006
C35	C	0.469532	1.340828	0.333328
C36	C	0.802865	1.674161	0.666661
C37	C	0.134205	0.905169	-0.000011
C38	C	0.467538	1.238503	0.333322
C39	C	0.800871	1.571836	0.666656
C40	C	0.131711	0.776796	-0.000011
C41	C	0.465045	1.110130	0.333322
C42	C	0.798378	1.443463	0.666655
C43	C	-0.035604	1.348930	0.000008
C44	C	0.297729	1.682263	0.333341
C45	C	0.631063	2.015596	0.666675
C46	C	-0.137994	1.346483	0.000009
C47	C	0.195339	1.679816	0.333342
C48	C	0.528672	2.013150	0.666675
C49	C	-0.512923	1.337475	-0.000023
C50	C	-0.179590	1.670808	0.333310
C51	C	0.153743	2.004142	0.666643
C52	C	-0.408606	1.339976	-0.000014
C53	C	-0.075273	1.673310	0.333319
C54	C	0.258060	2.006643	0.666653
C55	C	-0.325462	1.341979	-0.000006
C56	C	0.007871	1.675312	0.333327
C57	C	0.341204	2.008645	0.666661
C58	C	-0.221138	1.344481	0.000001
C59	C	0.112195	1.677814	0.333334
C60	C	0.445528	2.011147	0.666668
C61	C	0.301534	1.333042	-0.000017
C62	C	0.634867	1.666375	0.333316
C63	C	0.968200	1.999709	0.666649
C64	C	0.403924	1.335489	-0.000026
C65	C	0.737257	1.668822	0.333307
C66	C	1.070591	2.002156	0.666641
C67	C	0.127277	1.548478	-0.000004
C68	C	0.460610	1.881811	0.333329
C69	C	0.793944	2.215144	0.666663
C70	C	0.129731	1.674477	-0.000011
C71	C	0.463064	2.007811	0.333322
C72	C	0.796398	2.341144	0.666655
N73	N	0.132956	1.340972	0.318825
N74	N	0.466289	1.674305	0.652158
N75	N	0.799622	2.007639	0.985492
N76	N	0.132967	1.341009	-0.318831
N77	N	0.466300	1.674342	0.014502
N78	N	0.799633	2.007676	0.347835
C79	C	0.132967	1.340989	0.569831
C80	C	0.466300	1.674323	0.903164
C81	C	0.799633	2.007656	1.236498
C82	C	0.132963	1.340976	0.430153
C83	C	0.466296	1.674309	0.763487
C84	C	0.799630	2.007643	1.096820
