data_functionalizedCrystal
_audit_creation_method	'MofGen! by Chris Wilmer'
_symmetry_space_group_name_H-M	'P1'
_symmetry_Int_Tables_number	1
_symmetry_cell_setting	triclinic
loop_
_symmetry_equiv_pos_as_xyz
  x,y,z
_cell_length_a	12.594517
_cell_length_b	18.101280
_cell_length_c	12.594504
_cell_angle_alpha	90.078278
_cell_angle_beta	89.966474
_cell_angle_gamma	90.132917
loop_
_atom_site_label
_atom_site_type_symbol
_atom_site_fract_x
_atom_site_fract_y
_atom_site_fract_z
Zn1	Zn	1.626605	-0.294670	-0.602592
Zn2	Zn	1.626051	-0.418592	-0.425038
Zn3	Zn	1.448540	-0.294759	-0.424651
Zn4	Zn	1.448215	-0.418467	-0.602998
O5	O	1.537353	-0.356622	-0.513820
O6	O	1.775477	-0.311124	-0.579030
O7	O	1.602408	-0.402255	-0.276041
O8	O	1.472528	-0.191113	-0.447923
O9	O	1.775070	-0.402169	-0.448582
O10	O	1.603352	-0.191048	-0.578655
O11	O	1.471991	-0.311275	-0.275757
O12	O	1.299551	-0.311153	-0.448318
O13	O	1.471975	-0.401955	-0.751890
O14	O	1.299313	-0.402041	-0.579348
O15	O	1.603037	-0.311002	-0.751591
O16	O	1.602094	-0.522209	-0.448977
O17	O	1.471438	-0.522117	-0.579723
C18	C	1.260812	-0.356594	-0.513836
C19	C	1.142507	-0.356600	-0.513868
C20	C	1.073154	-0.406130	-0.584999
C21	C	1.002561	-0.338598	-0.610945
C22	C	1.002301	-0.424188	-0.487898
C23	C	1.073471	-0.289031	-0.539865
C24	C	1.073218	-0.374667	-0.416773
C25	C	1.002656	-0.307088	-0.442683
C26	C	1.536700	-0.549034	-0.514459
C27	C	1.536518	-0.631349	-0.514769
C28	C	1.537532	-0.356455	-0.791440
C29	C	1.537608	-0.356384	-0.909746
C30	C	1.814974	-0.356650	-0.513804
C31	C	1.933279	-0.356663	-0.513798
C32	C	1.538038	-0.163458	-0.513201
C33	C	1.538330	-0.081143	-0.512937
C34	C	1.537722	0.069563	-0.513551
C35	C	1.619907	0.100958	-0.595927
C36	C	1.619320	0.186573	-0.596598
C37	C	1.537125	0.217944	-0.514155
C38	C	1.425014	0.186376	-0.544115
C39	C	1.425835	0.100732	-0.544363
C40	C	1.566539	0.101554	-0.401137
C41	C	1.568670	0.187211	-0.402088
C42	C	1.536781	0.301803	-0.514495
C43	C	1.538058	-0.014295	-0.513214
C44	C	1.537236	-0.356735	-0.237279
C45	C	1.537367	-0.356597	-0.118973
C46	C	1.465998	-0.307406	-0.049621
C47	C	1.563062	-0.288738	0.020992
C48	C	1.440556	-0.375017	0.021213
C49	C	1.634480	-0.337896	-0.049919
C50	C	1.511909	-0.424206	-0.049704
C51	C	1.609040	-0.405564	0.020877
H52	H	0.971040	-0.481320	-0.465965
H53	H	1.401429	0.080434	-0.626541
O54	O	1.393848	-0.257955	-0.086621
C55	C	1.316945	-0.295187	-0.148083
H56	H	1.314100	-0.355834	-0.123945
H57	H	1.235850	-0.269020	-0.134268
H58	H	1.338699	-0.290814	-0.235732
O59	O	0.965697	-0.320416	-0.708938
C60	C	1.052155	-0.308247	-0.777948
H61	H	1.124982	-0.338492	-0.746668
H62	H	1.031605	-0.329882	-0.860483
H63	H	1.069789	-0.246529	-0.782497
H64	H	1.703466	0.080713	-0.577274
O65	O	1.395306	0.211489	-0.641359
C66	C	1.470010	0.188568	-0.717967
H67	H	1.513968	0.137810	-0.687697
H68	H	1.427203	0.174269	-0.795057
H69	H	1.529265	0.235088	-0.733096
H70	H	1.361932	0.206674	-0.486130
O71	O	1.110149	-0.456089	-0.656698
C72	C	1.171587	-0.509682	-0.603897
H73	H	1.147439	-0.511933	-0.516711
H74	H	1.157757	-0.566014	-0.642107
H75	H	1.259241	-0.494437	-0.610175
H76	H	1.651189	0.207881	-0.379480
H77	H	1.647077	0.080320	-0.373599
H78	H	1.506667	0.081255	-0.339780
H79	H	0.971894	-0.265180	-0.382500
O80	O	1.110772	-0.220905	-0.566183
C81	C	1.222712	-0.221697	-0.565920
H82	H	1.251856	-0.280709	-0.577825
H83	H	1.253738	-0.185368	-0.633037
H84	H	1.253058	-0.199654	-0.486689
H85	H	1.584705	-0.231470	0.052046
H86	H	1.358583	-0.390689	0.052446
O87	O	1.110233	-0.393020	-0.318912
C88	C	1.072377	-0.463746	-0.291020
H89	H	1.051285	-0.495837	-0.366072
H90	H	1.136529	-0.494645	-0.245376
H91	H	0.998709	-0.457948	-0.239058
O92	O	1.597233	0.074886	-0.694683
C93	C	1.507446	0.028353	-0.689649
H94	H	1.458578	0.042701	-0.616279
H95	H	1.456953	0.036402	-0.763814
H96	H	1.534200	-0.031671	-0.684786
H97	H	1.362482	0.079940	-0.486962
H98	H	1.490237	-0.481457	-0.080782
H99	H	1.702451	0.207939	-0.577893
O100	O	1.732376	-0.319139	-0.086844
C101	C	1.800975	-0.305891	-0.000428
H102	H	1.769825	-0.335959	0.072753
H103	H	1.883821	-0.326967	-0.020530
H104	H	1.804751	-0.244038	0.016371
H105	H	1.600057	0.206755	-0.680072
O106	O	1.502168	0.212754	-0.325336
C107	C	1.425331	0.259227	-0.371497
H108	H	1.416759	0.245210	-0.459351
H109	H	1.345841	0.250748	-0.329868
H110	H	1.451258	0.319300	-0.362600
H111	H	1.669566	-0.447072	0.051639
