data_functionalizedCrystal
_audit_creation_method	'MofGen! by Chris Wilmer'
_symmetry_space_group_name_H-M	'P1'
_symmetry_Int_Tables_number	1
_symmetry_cell_setting	triclinic
loop_
_symmetry_equiv_pos_as_xyz
  x,y,z
_cell_length_a	10.654562
_cell_length_b	9.065215
_cell_length_c	9.730223
_cell_angle_alpha	89.999584
_cell_angle_beta	89.996961
_cell_angle_gamma	84.752401
loop_
_atom_site_label
_atom_site_type_symbol
_atom_site_fract_x
_atom_site_fract_y
_atom_site_fract_z
O1	O	1.668644	0.207318	-0.114377
O2	O	1.303245	0.227042	-0.114360
O3	O	1.493499	0.002497	-0.114363
O4	O	1.478390	0.431864	-0.114374
O5	O	1.493497	0.002502	0.114217
O6	O	1.303243	0.227048	0.114220
O7	O	1.668642	0.207324	0.114203
Zn8	Zn	1.485942	0.217187	0.150503
Zn9	Zn	1.485945	0.217179	-0.150661
O10	O	1.478388	0.431869	0.114206
C11	C	1.256441	0.225593	-0.000068
C12	C	1.116981	0.221248	-0.000061
C13	C	1.051441	0.219225	0.124527
C14	C	0.920403	0.215154	0.124504
C15	C	0.920455	0.215137	-0.124706
C16	C	1.051492	0.219197	-0.124682
C17	C	1.051409	0.219241	0.268407
C18	C	0.920371	0.215171	0.268384
C19	C	1.492047	-0.052479	-0.000075
C20	C	1.487708	-0.216299	-0.000079
C21	C	1.715446	0.208773	-0.000093
C22	C	1.854906	0.213118	-0.000108
C23	C	1.479840	0.486845	-0.000086
C24	C	1.484180	0.650665	-0.000091
N25	N	1.485949	0.217191	0.356040
N26	N	1.485948	0.217163	-0.356197
C27	C	1.570216	0.117796	0.427964
C28	C	1.570212	0.117778	0.571847
C29	C	1.401672	0.316563	0.571868
C30	C	1.401670	0.316573	0.427988
C31	C	1.667525	0.003033	0.427953
C32	C	1.667522	0.003015	0.571836
H33	H	1.104852	0.220822	-0.226134
Cl34	Cl	1.122217	0.061821	0.353715
H35	H	1.645634	-0.110375	0.388903
H36	H	0.874487	0.317141	0.323617
Cl37	Cl	0.838120	0.212542	-0.281363
Cl38	Cl	0.874006	0.049188	0.337612
Cl39	Cl	1.097737	0.385376	0.337328
Cl40	Cl	1.295727	0.441493	0.662326
Cl41	Cl	1.816678	0.042040	0.632130
Cl42	Cl	1.295716	0.441509	0.337567
H43	H	1.758850	0.038974	0.383322
Cl44	Cl	1.619749	-0.162436	0.640738
