data_functionalizedCrystal
_audit_creation_method	'MofGen! by Chris Wilmer'
_symmetry_space_group_name_H-M	'P1'
_symmetry_Int_Tables_number	1
_symmetry_cell_setting	triclinic
loop_
_symmetry_equiv_pos_as_xyz
  x,y,z
_cell_length_a	29.839131
_cell_length_b	16.959455
_cell_length_c	16.959447
_cell_angle_alpha	90.023646
_cell_angle_beta	89.966085
_cell_angle_gamma	89.963588
loop_
_atom_site_label
_atom_site_type_symbol
_atom_site_fract_x
_atom_site_fract_y
_atom_site_fract_z
Zn1	Zn	-0.178904	-1.208267	-0.447086
Zn2	Zn	0.321096	-0.708267	0.052914
Zn3	Zn	-0.254038	-1.208140	-0.314899
Zn4	Zn	0.245962	-0.708140	0.185101
Zn5	Zn	-0.178916	-1.076095	-0.314901
Zn6	Zn	0.321084	-0.576095	0.185099
Zn7	Zn	-0.254002	-1.076010	-0.447016
Zn8	Zn	0.245998	-0.576010	0.052984
O9	O	-0.216465	-1.142128	-0.380975
O10	O	0.283535	-0.642128	0.119025
O11	O	-0.188881	-1.318861	-0.429579
O12	O	0.311119	-0.818861	0.070421
O13	O	-0.244093	-1.190606	-0.204288
O14	O	0.255907	-0.690606	0.295712
O15	O	-0.116047	-1.093716	-0.332466
O16	O	0.383953	-0.593716	0.167534
O17	O	-0.244081	-1.318767	-0.332461
O18	O	0.255919	-0.818767	0.167539
O19	O	-0.116039	-1.190822	-0.429581
O20	O	0.383961	-0.690822	0.070419
O21	O	-0.188901	-1.093593	-0.204290
O22	O	0.311099	-0.593593	0.295710
O23	O	-0.188866	-0.965473	-0.332399
O24	O	0.311134	-0.465473	0.167601
O25	O	-0.244020	-1.093572	-0.557636
O26	O	0.255980	-0.593572	-0.057636
O27	O	-0.244031	-0.965411	-0.429462
O28	O	0.255969	-0.465411	0.070538
O29	O	-0.188846	-1.190740	-0.557687
O30	O	0.311154	-0.690740	-0.057687
O31	O	-0.316900	-1.190524	-0.332394
O32	O	0.183100	-0.690524	0.167606
O33	O	-0.316874	-1.093449	-0.429460
O34	O	0.183126	-0.593449	0.070540
C35	C	-0.216446	-0.936762	-0.380924
C36	C	0.283554	-0.436762	0.119076
C37	C	-0.216449	-0.848905	-0.380920
C38	C	0.283551	-0.348905	0.119080
C39	C	-0.245166	-0.477370	-0.330343
C40	C	0.254834	0.022630	0.169657
C41	C	-0.187775	-0.477489	-0.431628
C42	C	0.312225	0.022511	0.068372
C43	C	-0.187769	-0.560034	-0.431614
C44	C	0.312231	-0.060034	0.068386
C45	C	-0.216463	-0.601252	-0.380964
C46	C	0.283537	-0.101252	0.119036
C47	C	-0.245162	-0.559924	-0.330328
C48	C	0.254838	-0.059924	0.169672
C49	C	-0.159073	-0.601369	-0.482254
C50	C	0.340927	-0.101369	0.017746
C51	C	-0.159067	-0.683920	-0.482242
C52	C	0.340933	-0.183920	0.017758
C53	C	-0.187758	-0.725139	-0.431588
C54	C	0.312242	-0.225139	0.068412
C55	C	-0.216459	-0.683806	-0.380949
C56	C	0.283541	-0.183806	0.119051
C57	C	-0.245152	-0.725023	-0.330299
C58	C	0.254848	-0.225023	0.169701
C59	C	-0.273850	-0.683692	-0.279657
C60	C	0.226150	-0.183692	0.220343
C61	C	-0.273854	-0.601143	-0.279674
C62	C	0.226146	-0.101143	0.220326
C63	C	-0.187755	-0.807687	-0.431570
C64	C	0.312245	-0.307687	0.068430
C65	C	-0.245148	-0.807577	-0.330285
C66	C	0.254852	-0.307577	0.169715
C67	C	-0.333188	-1.141985	-0.380936
C68	C	0.166812	-0.641985	0.119064
C69	C	-0.383122	-1.141996	-0.380946
C70	C	0.116878	-0.641996	0.119054
C71	C	-0.692766	-1.192767	-0.330507
C72	C	-0.192766	-0.692767	0.169493
C73	C	-0.880440	-1.192864	-0.330538
C74	C	-0.380440	-0.692864	0.169462
O75	O	-0.904705	-1.235918	-0.287623
O76	O	-0.404705	-0.735918	0.212377
N77	N	-0.903907	-1.142292	-0.381035
N78	N	-0.403907	-0.642292	0.118965
C79	C	-0.880453	-1.091695	-0.431532
C80	C	-0.380453	-0.591695	0.068468
O81	O	-0.904720	-1.048688	-0.474489
O82	O	-0.404720	-0.548688	0.025511
C83	C	-0.692781	-1.091602	-0.431505
C84	C	-0.192781	-0.591602	0.068495
C85	C	-0.669316	-1.142172	-0.380998
C86	C	-0.169316	-0.642172	0.119002
C87	C	-0.669301	-1.243333	-0.280006
C88	C	-0.169301	-0.743333	0.219994
C89	C	-0.622386	-1.243305	-0.279995
C90	C	-0.122386	-0.743305	0.220005
C91	C	-0.598936	-1.192711	-0.330487
C92	C	-0.098936	-0.692711	0.169513
C93	C	-0.622401	-1.142144	-0.380988
C94	C	-0.122401	-0.642144	0.119012
C95	C	-0.669328	-1.041010	-0.482005
C96	C	-0.169328	-0.541010	0.017995
C97	C	-0.622407	-1.040993	-0.481995
C98	C	-0.122407	-0.540993	0.018005
C99	C	-0.598942	-1.091563	-0.431489
C100	C	-0.098942	-0.591563	0.068511
C101	C	-0.552035	-1.091522	-0.431469
C102	C	-0.052035	-0.591522	0.068531
N103	N	-0.528567	-1.142094	-0.380972
N104	N	-0.028567	-0.642094	0.119028
C105	C	-0.552018	-1.192689	-0.330481
C106	C	-0.052018	-0.692689	0.169519
C107	C	-0.978984	-1.091746	-0.431541
C108	C	-0.478984	-0.591746	0.068459
C109	C	-1.025902	-1.091768	-0.431547
C110	C	-0.525902	-0.591768	0.068453
C111	C	-1.025885	-1.192939	-0.330554
C112	C	-0.525885	-0.692939	0.169446
C113	C	-0.978966	-1.192912	-0.330545
C114	C	-0.478966	-0.692912	0.169455
C115	C	-0.955516	-1.142319	-0.381044
C116	C	-0.455516	-0.642319	0.118956
C117	C	-0.453492	-1.192626	-0.330463
C118	C	0.046508	-0.692626	0.169537
C119	C	-0.406572	-1.192591	-0.330455
C120	C	0.093428	-0.692591	0.169545
C121	C	-0.406593	-1.091424	-0.431450
C122	C	0.093407	-0.591424	0.068550
C123	C	-0.453509	-1.091455	-0.431456
C124	C	0.046491	-0.591455	0.068544
C125	C	-0.476957	-1.142063	-0.380959
C126	C	0.023043	-0.642063	0.119041
O127	O	-0.527740	-1.048497	-0.474368
O128	O	-0.027740	-0.548497	0.025632
O129	O	-0.527743	-1.235702	-0.287542
O130	O	-0.027743	-0.735702	0.212458
C131	C	-0.739682	-1.192795	-0.330517
C132	C	-0.239682	-0.692795	0.169483
C133	C	-0.763147	-1.142228	-0.381019
C134	C	-0.263147	-0.642228	0.118981
C135	C	-0.739697	-1.091634	-0.431510
C136	C	-0.239697	-0.591634	0.068490
C137	C	-0.810065	-1.142250	-0.381025
C138	C	-0.310065	-0.642250	0.118975
C139	C	-0.833515	-1.192845	-0.330533
C140	C	-0.333515	-0.692845	0.169467
C141	C	-0.810048	-1.243417	-0.280036
C142	C	-0.310048	-0.743417	0.219964
C143	C	-0.763132	-1.243389	-0.280026
C144	C	-0.263132	-0.743389	0.219974
C145	C	-0.763164	-1.041061	-0.482007
C146	C	-0.263164	-0.541061	0.017993
C147	C	-0.810080	-1.041093	-0.482013
C148	C	-0.310080	-0.541093	0.017987
C149	C	-0.833530	-1.091687	-0.431521
C150	C	-0.333530	-0.591687	0.068479
C151	C	-0.099287	-1.142293	-0.381032
C152	C	0.400713	-0.642293	0.118968
C153	C	-0.049352	-1.142363	-0.381056
C154	C	0.450648	-0.642363	0.118944
C155	C	-0.216428	-1.142161	-0.587144
C156	C	0.283572	-0.642161	-0.087144
C157	C	-0.216412	-1.142175	-0.675000
C158	C	0.283588	-0.642175	-0.175000
C159	C	-0.216479	-0.348296	-0.381013
C160	C	0.283521	0.151704	0.118987
C161	C	-0.216472	-0.436153	-0.380993
C162	C	0.283528	0.063847	0.119007
C163	C	-0.245091	-1.091678	-1.046452
C164	C	0.254909	-0.591678	-0.546452
C165	C	-0.187638	-1.192860	-1.046500
C166	C	0.312362	-0.692860	-0.546500
C167	C	-0.187648	-1.192839	-0.963954
C168	C	0.312352	-0.692839	-0.463954
C169	C	-0.216380	-1.142238	-0.922653
C170	C	0.283620	-0.642238	-0.422653
C171	C	-0.245102	-1.091657	-0.963898
C172	C	0.254898	-0.591657	-0.463898
C173	C	-0.158929	-1.243424	-0.922703
C174	C	0.341071	-0.743424	-0.422703
C175	C	-0.158938	-1.243406	-0.840152
C176	C	0.341062	-0.743406	-0.340152
C177	C	-0.187668	-1.192800	-0.798850
C178	C	0.312332	-0.692800	-0.298850
C179	C	-0.216391	-1.142217	-0.840100
C180	C	0.283609	-0.642217	-0.340100
C181	C	-0.245123	-1.091615	-0.798799
C182	C	0.254877	-0.591615	-0.298799
C183	C	-0.273844	-1.041028	-0.840047
C184	C	0.226156	-0.541028	-0.340047
C185	C	-0.273832	-1.041051	-0.922596
C186	C	0.226168	-0.541051	-0.422596
C187	C	-0.187680	-1.192776	-0.716301
C188	C	0.312320	-0.692776	-0.216301
C189	C	-0.245134	-1.091595	-0.716245
C190	C	0.254866	-0.591595	-0.216245
C191	C	-0.216470	-1.142141	-0.175609
C192	C	0.283530	-0.642141	0.324391
C193	C	-0.216359	-1.142280	-0.087753
C194	C	0.283641	-0.642280	0.412247
H195	H	-0.297218	-0.567483	-0.238443
H196	H	0.202782	-0.067483	0.261557
H197	H	-0.164416	-0.443924	-0.472870
H198	H	0.335584	0.056076	0.027130
N199	N	-0.156811	-0.852261	-0.486197
N200	N	0.343189	-0.352261	0.013803
H201	H	-0.175099	-0.886508	-0.522758
H202	H	0.324901	-0.386508	-0.022758
H203	H	-0.138647	-0.813569	-0.518236
H204	H	0.361353	-0.313569	-0.018236
N205	N	-0.156713	-1.247338	-0.671806
N206	N	0.343287	-0.747338	-0.171806
H207	H	-0.124608	-1.235124	-0.686182
H208	H	0.375392	-0.735124	-0.186182
H209	H	-0.161122	-1.239616	-0.613261
H210	H	0.338878	-0.739616	-0.113261
H211	H	-0.268530	-0.443714	-0.289108
H212	H	0.231470	0.056286	0.210892
H213	H	-0.135715	-0.567803	-0.523495
H214	H	0.364285	-0.067803	-0.023495
N215	N	-0.478821	-1.036911	-0.485925
N216	N	0.021179	-0.536911	0.014075
H217	H	-0.498323	-1.000314	-0.453770
H218	H	0.001677	-0.500314	0.046230
H219	H	-0.456816	-1.004906	-0.517895
H220	H	0.043184	-0.504906	-0.017895
N221	N	-0.953698	-1.037164	-0.486006
N222	N	-0.453698	-0.537164	0.013994
H223	H	-0.934264	-1.000545	-0.453842
H224	H	-0.434264	-0.500545	0.046158
H225	H	-0.934227	-1.069300	-0.522666
H226	H	-0.434227	-0.569300	-0.022666
H227	H	-0.135540	-1.284626	-0.956337
H228	H	0.364460	-0.784626	-0.456337
N229	N	-0.953663	-1.247465	-0.276076
N230	N	-0.453663	-0.747465	0.223924
H231	H	-0.934167	-1.284067	-0.308236
H232	H	-0.434167	-0.784067	0.191764
H233	H	-0.934251	-1.215308	-0.239416
H234	H	-0.434251	-0.715308	0.260584
N235	N	-0.128116	-0.728496	-0.536860
N236	N	0.371884	-0.228496	-0.036860
H237	H	-0.109940	-0.689858	-0.568948
H238	H	0.390060	-0.189858	-0.068948
H239	H	-0.107300	-0.762745	-0.504744
H240	H	0.392700	-0.262745	-0.004744
H241	H	-0.603283	-1.284486	-0.238871
H242	H	-0.103283	-0.784486	0.261129
H243	H	-0.387469	-1.233771	-0.289324
H244	H	0.112531	-0.733771	0.210676
H245	H	-0.268528	-1.050381	-0.682624
H246	H	0.231472	-0.550381	-0.182624
H247	H	-0.297217	-0.999868	-0.956188
H248	H	0.202783	-0.499868	-0.456188
N249	N	-0.737873	-0.986485	-0.536462
N250	N	-0.237873	-0.486485	-0.036462
H251	H	-0.746010	-0.998723	-0.592954
H252	H	-0.246010	-0.498723	-0.092954
H253	H	-0.746089	-0.930047	-0.524052
H254	H	-0.246089	-0.430047	-0.024052
H255	H	-0.688390	-1.284538	-0.238889
H256	H	-0.188390	-0.784538	0.261111
N257	N	-0.381296	-1.036851	-0.485902
N258	N	0.118704	-0.536851	0.014098
H259	H	-0.348014	-1.044513	-0.478229
H260	H	0.151986	-0.544513	0.021771
H261	H	-0.389466	-1.049122	-0.542369
H262	H	0.110534	-0.549122	-0.042369
H263	H	-0.472578	-1.233837	-0.289345
H264	H	0.027422	-0.733837	0.210655
N265	N	-1.051182	-1.247508	-0.276092
N266	N	-0.551182	-0.747508	0.223908
H267	H	-1.084464	-1.239843	-0.283764
H268	H	-0.584464	-0.739843	0.216236
H269	H	-1.042949	-1.303948	-0.288458
H270	H	-0.542949	-0.803948	0.211542
H271	H	-0.297240	-0.999832	-0.806409
H272	H	0.202760	-0.499832	-0.306409
N273	N	-1.051208	-1.037212	-0.486008
N274	N	-0.551208	-0.537212	0.013992
H275	H	-1.029229	-1.005160	-0.517991
H276	H	-0.529229	-0.505160	-0.017991
H277	H	-1.070644	-1.069367	-0.522628
H278	H	-0.570644	-0.569367	-0.022628
H279	H	-0.688425	-0.999826	-0.523129
H280	H	-0.188425	-0.499826	-0.023129
H281	H	-0.603317	-0.999794	-0.523120
H282	H	-0.103317	-0.499794	-0.023120
N283	N	-0.276059	-1.037102	-1.090934
N284	N	0.223941	-0.537102	-0.590934
H285	H	-0.271691	-1.044785	-1.149496
H286	H	0.228309	-0.544785	-0.649496
H287	H	-0.308150	-1.049343	-1.076495
H288	H	0.191850	-0.549343	-0.576495
H289	H	-0.164248	-1.234062	-1.080133
H290	H	0.335752	-0.734062	-0.580133
H291	H	-0.829149	-1.284611	-0.238922
H292	H	-0.329149	-0.784611	0.261078
N293	N	-0.276093	-0.852031	-0.275648
N294	N	0.223907	-0.352031	0.224352
H295	H	-0.294272	-0.813320	-0.243571
H296	H	0.205728	-0.313320	0.256429
H297	H	-0.296907	-0.886279	-0.307748
H298	H	0.203093	-0.386279	0.192252
N299	N	-0.304799	-0.728147	-0.225027
N300	N	0.195201	-0.228147	0.274973
H301	H	-0.325639	-0.762393	-0.257079
H302	H	0.174361	-0.262393	0.242921
H303	H	-0.286481	-0.762350	-0.188466
H304	H	0.213519	-0.262350	0.311534
H305	H	-0.744030	-1.284568	-0.238899
H306	H	-0.244030	-0.784568	0.261101
H307	H	-0.135551	-1.284597	-0.806575
H308	H	0.364449	-0.784597	-0.306575
N309	N	-0.835386	-0.986538	-0.536483
N310	N	-0.335386	-0.486538	-0.036483
H311	H	-0.813406	-0.954486	-0.568465
H312	H	-0.313406	-0.454486	-0.068465
H313	H	-0.854819	-1.018699	-0.573104
H314	H	-0.354819	-0.518699	-0.073104
