data_functionalizedCrystal
_audit_creation_method	'MofGen! by Chris Wilmer'
_symmetry_space_group_name_H-M	'P1'
_symmetry_Int_Tables_number	1
_symmetry_cell_setting	triclinic
loop_
_symmetry_equiv_pos_as_xyz
  x,y,z
_cell_length_a	25.639242
_cell_length_b	25.639239
_cell_length_c	19.805399
_cell_angle_alpha	89.971274
_cell_angle_beta	89.980422
_cell_angle_gamma	90.030990
loop_
_atom_site_label
_atom_site_type_symbol
_atom_site_fract_x
_atom_site_fract_y
_atom_site_fract_z
Zn1	Zn	0.799252	-0.208270	-0.382714
Zn2	Zn	1.299252	0.291730	0.117286
Zn3	Zn	0.799167	-0.295704	-0.269524
Zn4	Zn	1.299167	0.204296	0.230476
Zn5	Zn	0.711820	-0.208273	-0.269539
Zn6	Zn	1.211820	0.291727	0.230461
Zn7	Zn	0.711773	-0.295665	-0.382670
Zn8	Zn	1.211773	0.204335	0.117330
O9	O	0.755503	-0.251978	-0.326112
O10	O	1.255503	0.248022	0.173888
O11	O	0.872406	-0.219884	-0.367711
O12	O	1.372406	0.280116	0.132289
O13	O	0.787565	-0.284124	-0.174809
O14	O	1.287565	0.215876	0.325191
O15	O	0.723473	-0.135107	-0.284576
O16	O	1.223473	0.364893	0.215424
O17	O	0.872344	-0.284121	-0.284551
O18	O	1.372344	0.215879	0.215449
O19	O	0.787709	-0.135105	-0.367726
O20	O	1.287709	0.364895	0.132274
O21	O	0.723391	-0.219889	-0.174820
O22	O	1.223391	0.280111	0.325180
O23	O	0.638649	-0.219850	-0.284534
O24	O	1.138649	0.280150	0.215466
O25	O	0.723393	-0.284054	-0.477393
O26	O	1.223393	0.215946	0.022607
O27	O	0.638614	-0.284057	-0.367651
O28	O	1.138614	0.215943	0.132349
O29	O	0.787664	-0.219846	-0.477425
O30	O	1.287664	0.280154	0.022575
O31	O	0.787519	-0.368864	-0.284508
O32	O	1.287519	0.131136	0.215492
O33	O	0.723311	-0.368835	-0.367637
O34	O	1.223311	0.131165	0.132363
C35	C	0.619661	-0.251950	-0.326090
C36	C	1.119661	0.248050	0.173910
C37	C	0.561547	-0.251950	-0.326097
C38	C	1.061547	0.248050	0.173903
C39	C	0.755415	-0.387821	-0.326081
C40	C	1.255415	0.112179	0.173919
C41	C	0.755426	-0.445935	-0.326090
C42	C	1.255426	0.054065	0.173910
C43	C	0.310394	-0.218589	-0.369493
C44	C	0.810394	0.281411	0.130507
C45	C	0.364998	-0.218584	-0.369489
C46	C	0.864998	0.281416	0.130511
O47	O	0.393269	-0.190196	-0.406381
O48	O	0.893269	0.309804	0.093619
N49	N	0.392273	-0.251972	-0.326120
N50	N	0.892273	0.248028	0.173880
C51	C	0.364941	-0.285371	-0.282756
C52	C	0.864941	0.214629	0.217244
O53	O	0.393154	-0.313770	-0.245868
O54	O	0.893154	0.186230	0.254132
C55	C	0.310337	-0.285379	-0.282764
C56	C	0.810337	0.214621	0.217236
C57	C	0.283065	-0.251985	-0.326131
C58	C	0.783065	0.248015	0.173869
C59	C	0.283122	-0.185198	-0.412857
C60	C	0.783122	0.314802	0.087143
C61	C	0.228521	-0.185203	-0.412859
C62	C	0.728521	0.314797	0.087141
C63	C	0.201193	-0.218598	-0.369498
C64	C	0.701193	0.281402	0.130502
C65	C	0.228465	-0.251989	-0.326134
C66	C	0.728465	0.248011	0.173866
C67	C	0.283006	-0.318780	-0.239405
C68	C	0.783006	0.181220	0.260595
C69	C	0.228399	-0.318785	-0.239417
C70	C	0.728399	0.181215	0.260583
C71	C	0.201127	-0.285391	-0.282784
C72	C	0.701127	0.214609	0.217216
C73	C	0.146536	-0.285389	-0.282775
C74	C	0.646536	0.214611	0.217225
N75	N	0.119261	-0.252001	-0.326145
N76	N	0.619261	0.247999	0.173855
C77	C	0.146589	-0.218606	-0.369506
C78	C	0.646589	0.281394	0.130494
C79	C	0.479611	-0.285354	-0.282744
C80	C	0.979611	0.214646	0.217256
C81	C	0.534214	-0.285344	-0.282732
C82	C	1.034214	0.214656	0.217268
C83	C	0.534267	-0.218557	-0.369466
C84	C	1.034267	0.281443	0.130534
C85	C	0.479664	-0.218565	-0.369474
C86	C	0.979664	0.281435	0.130526
C87	C	0.452336	-0.251966	-0.326113
C88	C	0.952336	0.248034	0.173887
C89	C	0.031924	-0.218618	-0.369508
C90	C	0.531924	0.281382	0.130492
C91	C	-0.022681	-0.218624	-0.369505
C92	C	0.477319	0.281376	0.130495
C93	C	-0.022730	-0.285412	-0.282774
C94	C	0.477270	0.214588	0.217226
C95	C	0.031870	-0.285404	-0.282775
C96	C	0.531870	0.214596	0.217225
C97	C	0.059196	-0.252005	-0.326147
C98	C	0.559196	0.247995	0.173853
O99	O	0.118230	-0.313764	-0.245904
O100	O	0.618230	0.186236	0.254096
O101	O	0.118369	-0.190216	-0.406395
O102	O	0.618369	0.309784	0.093605
C103	C	0.789024	-0.806300	-0.282901
C104	C	1.289024	-0.306300	0.217099
C105	C	0.789044	-0.860905	-0.282910
C106	C	1.289044	-0.360905	0.217090
O107	O	0.817519	-0.889143	-0.246154
O108	O	1.317519	-0.389143	0.253846
N109	N	0.755595	-0.888217	-0.326157
N110	N	1.255595	-0.388217	0.173843
C111	C	0.722128	-0.860922	-0.369402
C112	C	1.222128	-0.360922	0.130598
O113	O	0.693679	-0.889168	-0.406189
O114	O	1.193679	-0.389168	0.093811
C115	C	0.722111	-0.806319	-0.369396
C116	C	1.222111	-0.306319	0.130604
C117	C	0.755558	-0.779009	-0.326141
C118	C	1.255558	-0.279009	0.173859
C119	C	0.822469	-0.778990	-0.239650
C120	C	1.322469	-0.278990	0.260350
C121	C	0.822447	-0.724390	-0.239640
C122	C	1.322447	-0.224390	0.260360
C123	C	0.788981	-0.697099	-0.282881
C124	C	1.288981	-0.197099	0.217119
C125	C	0.755537	-0.724409	-0.326132
C126	C	1.255537	-0.224409	0.173868
C127	C	0.688646	-0.779026	-0.412645
C128	C	1.188646	-0.279026	0.087355
C129	C	0.688632	-0.724419	-0.412635
C130	C	1.188632	-0.224419	0.087365
C131	C	0.722079	-0.697109	-0.369381
C132	C	1.222079	-0.197109	0.130619
C133	C	0.722050	-0.642518	-0.369363
C134	C	1.222050	-0.142518	0.130637
N135	N	0.755498	-0.615205	-0.326116
N136	N	1.255498	-0.115205	0.173884
C137	C	0.788964	-0.642496	-0.282875
C138	C	1.288964	-0.142496	0.217125
C139	C	0.722167	-0.975593	-0.369413
C140	C	1.222167	-0.475593	0.130587
C141	C	0.722181	-1.030195	-0.369416
C142	C	1.222181	-0.530195	0.130584
C143	C	0.789098	-1.030174	-0.282924
C144	C	1.289098	-0.530174	0.217076
C145	C	0.789081	-0.975570	-0.282918
C146	C	1.289081	-0.475570	0.217082
C147	C	0.755616	-0.948281	-0.326166
C148	C	1.255616	-0.448281	0.173834
C149	C	0.788917	-0.527831	-0.282857
C150	C	1.288917	-0.027831	0.217143
C151	C	0.788892	-0.473225	-0.282849
C152	C	1.288892	0.026775	0.217151
C153	C	0.721977	-0.473252	-0.369343
C154	C	1.221977	0.026748	0.130657
C155	C	0.722000	-0.527853	-0.369349
C156	C	1.222000	-0.027853	0.130651
C157	C	0.755475	-0.555141	-0.326104
C158	C	1.255475	-0.055141	0.173896
O159	O	0.693591	-0.614244	-0.406101
O160	O	1.193591	-0.114244	0.093899
O161	O	0.817413	-0.614244	-0.246101
O162	O	1.317413	-0.114244	0.253899
C163	C	0.891876	-0.252007	-0.326134
C164	C	1.391876	0.247993	0.173866
C165	C	0.949990	-0.252019	-0.326144
C166	C	1.449990	0.247981	0.173856
C167	C	0.755533	-0.251945	-0.502655
C168	C	1.255533	0.248055	-0.002655
C169	C	0.755545	-0.251931	-0.577887
C170	C	1.255545	0.248069	-0.077887
C171	C	0.755606	-0.115605	-0.326158
C172	C	1.255606	0.384395	0.173842
C173	C	0.755650	-0.057491	-0.326177
C174	C	1.255650	0.442509	0.173823
C175	C	0.789011	-0.218496	-0.613249
C176	C	1.289011	0.281504	-0.113249
C177	C	0.789017	-0.218481	-0.683937
C178	C	1.289017	0.281519	-0.183937
C179	C	0.755558	-0.251904	-0.719262
C180	C	1.255558	0.248096	-0.219262
C181	C	0.722088	-0.285340	-0.683895
C182	C	1.222088	0.214660	-0.183895
C183	C	0.722081	-0.285352	-0.613208
C184	C	1.222081	0.214648	-0.113208
C185	C	0.722118	-0.285291	-0.968969
C186	C	1.222118	0.214709	-0.468969
C187	C	0.722129	-0.285278	-1.039661
C188	C	1.222129	0.214722	-0.539661
C189	C	0.789054	-0.218420	-1.039698
C190	C	1.289054	0.281580	-0.539698
C191	C	0.789046	-0.218432	-0.969011
C192	C	1.289046	0.281568	-0.469011
C193	C	0.755575	-0.251866	-0.933650
C194	C	1.255575	0.248134	-0.433650
C195	C	0.755569	-0.251882	-0.857001
C196	C	1.255569	0.248118	-0.357001
C197	C	0.755567	-0.251891	-0.795909
C198	C	1.255567	0.248109	-0.295909
C199	C	0.755504	-0.251973	-0.150256
C200	C	1.255504	0.248027	0.349744
C201	C	0.755593	-0.251840	-0.075024
C202	C	1.255593	0.248160	0.424976
H203	H	-0.044884	-0.191428	-0.404820
H204	H	0.455116	0.308572	0.095180
C205	C	0.061871	-0.322137	-0.235066
C206	C	0.561871	0.177863	0.264934
N207	N	0.084463	-0.349809	-0.199136
N208	N	0.584463	0.150191	0.300864
C209	C	0.825867	-0.181635	-1.078601
C210	C	1.325867	0.318365	-0.578601
N211	N	0.853594	-0.153929	-1.107902
N212	N	1.353594	0.346071	-0.607902
C213	C	0.825877	-0.945535	-0.235337
C214	C	1.325877	-0.445535	0.264663
N215	N	0.853594	-0.922915	-0.199498
N216	N	1.353594	-0.422915	0.300502
H217	H	0.694824	-0.312573	-0.584417
H218	H	1.194824	0.187427	-0.084417
C219	C	0.685296	-0.322069	-0.930081
C220	C	1.185296	0.177931	-0.430081
N221	N	0.657560	-0.349770	-0.900789
N222	N	1.157560	0.150230	-0.400789
C223	C	0.198529	-0.148471	-0.460574
C224	C	0.698529	0.351529	0.039426
N225	N	0.175942	-0.120805	-0.496517
N226	N	0.675942	0.379195	0.003483
C227	C	0.825819	-0.181727	-0.574397
C228	C	1.325819	0.318273	-0.074397
N229	N	0.853541	-0.154030	-0.545137
N230	N	1.353541	0.345970	-0.045137
C231	C	0.825851	-0.181663	-0.930157
C232	C	1.325851	0.318337	-0.430157
N233	N	0.853571	-0.153964	-0.900893
N234	N	1.353571	0.346036	-0.400893
C235	C	0.061975	-0.181874	-0.417216
C236	C	0.561975	0.318126	0.082784
N237	N	0.084608	-0.154195	-0.453145
N238	N	0.584608	0.345805	0.046855
H239	H	0.661407	-0.801252	-0.447864
H240	H	1.161407	-0.301252	0.052136
C241	C	0.685168	-0.443222	-0.416909
C242	C	1.185168	0.056778	0.083091
N243	N	0.657447	-0.420601	-0.452740
N244	N	1.157447	0.079399	0.047260
H245	H	0.305367	-0.158003	-0.448170
H246	H	0.805367	0.341997	0.051830
H247	H	0.457364	-0.312552	-0.247429
H248	H	0.957364	0.187448	0.252571
C249	C	0.685278	-0.322101	-0.722756
C250	C	1.185278	0.177899	-0.222756
N251	N	0.657552	-0.349789	-0.752025
N252	N	1.157552	0.150211	-0.252025
H253	H	0.556528	-0.191365	-0.404773
H254	H	1.056528	0.308635	0.095227
C255	C	0.449670	-0.181833	-0.417185
C256	C	0.949670	0.318167	0.082815
N257	N	0.427081	-0.154166	-0.453125
N258	N	0.927081	0.345834	0.046875
H259	H	0.849723	-0.801205	-0.204438
H260	H	1.349723	-0.301205	0.295562
H261	H	0.694911	-0.953376	-0.404628
H262	H	1.194911	-0.453376	0.095372
C263	C	0.685317	-0.322044	-1.078517
C264	C	1.185317	0.177956	-0.578517
N265	N	0.657591	-0.349734	-1.107784
N266	N	1.157591	0.150266	-0.607784
C267	C	0.825833	-0.181701	-0.722832
C268	C	1.325833	0.318299	-0.222832
N269	N	0.853565	-0.153996	-0.752127
N270	N	1.353565	0.346004	-0.252127
C271	C	0.825738	-0.557840	-0.235281
C272	C	1.325738	-0.057840	0.264719
N273	N	0.853468	-0.580442	-0.199443
N274	N	1.353468	-0.080442	0.300557
C275	C	0.198342	-0.355528	-0.191713
C276	C	0.698342	0.144472	0.308287
N277	N	0.175704	-0.383201	-0.155780
N278	N	0.675704	0.116799	0.344220
C279	C	-0.052802	-0.322146	-0.235080
C280	C	0.447198	0.177854	0.264920
N281	N	-0.075454	-0.349817	-0.199160
N282	N	0.424546	0.150183	0.300840
C283	C	0.564207	-0.322075	-0.235019
C284	C	1.064207	0.177925	0.264981
N285	N	0.586796	-0.349745	-0.199082
N286	N	1.086796	0.150255	0.300918
C287	C	0.825685	-0.443188	-0.235261
C288	C	1.325685	0.056812	0.264739
N289	N	0.853397	-0.420566	-0.199417
N290	N	1.353397	0.079434	0.300583
C291	C	0.651817	-0.694403	-0.460213
C292	C	1.151817	-0.194403	0.039787
N293	N	0.624087	-0.671797	-0.496047
N294	N	1.124087	-0.171797	0.003953
H295	H	0.305202	-0.345973	-0.204091
H296	H	0.805202	0.154027	0.295909
H297	H	0.849684	-0.702158	-0.204421
H298	H	1.349684	-0.202158	0.295579
C299	C	0.685205	-0.557894	-0.416929
C300	C	1.185205	-0.057894	0.083071
N301	N	0.657494	-0.580518	-0.452772
N302	N	1.157494	-0.080518	0.047228
H303	H	0.816350	-1.052404	-0.247717
H304	H	1.316350	-0.552404	0.252283
H305	H	0.694940	-1.052426	-0.404632
H306	H	1.194940	-0.552426	0.095368
