data_functionalizedCrystal
_audit_creation_method	'MofGen! by Chris Wilmer'
_symmetry_space_group_name_H-M	'P1'
_symmetry_Int_Tables_number	1
_symmetry_cell_setting	triclinic
loop_
_symmetry_equiv_pos_as_xyz
  x,y,z
_cell_length_a	13.330367
_cell_length_b	10.654541
_cell_length_c	10.654545
_cell_angle_alpha	84.484678
_cell_angle_beta	89.997736
_cell_angle_gamma	89.993794
loop_
_atom_site_label
_atom_site_type_symbol
_atom_site_fract_x
_atom_site_fract_y
_atom_site_fract_z
O1	O	0.083387	-1.667850	-0.176384
O2	O	0.083395	-1.302371	-0.193193
O3	O	0.083390	-1.493513	-0.002049
O4	O	0.083392	-1.476709	-0.367528
O5	O	-0.083457	-1.493485	-0.002044
O6	O	-0.083452	-1.302343	-0.193188
O7	O	-0.083460	-1.667822	-0.176379
Cu8	Cu	-0.098690	-1.485080	-0.184783
Cu9	Cu	0.098626	-1.485113	-0.184789
O10	O	-0.083455	-1.476681	-0.367523
C11	C	-0.000027	-1.255559	-0.191957
C12	C	-0.000024	-1.116116	-0.188266
N13	N	-0.237472	-1.485066	-0.184779
C14	C	-0.000031	-1.492265	0.044751
C15	C	-0.000025	-1.488572	0.184195
C16	C	-0.710093	-1.400472	-0.269394
C17	C	-0.710065	-1.569789	-0.100174
C18	C	-0.605047	-1.569774	-0.100170
C19	C	-0.552546	-1.485109	-0.184780
C20	C	-0.605064	-1.400458	-0.269395
C21	C	-0.552521	-1.654433	-0.015566
C22	C	-0.447496	-1.654423	-0.015560
C23	C	-0.394994	-1.569750	-0.100165
C24	C	-0.447518	-1.485095	-0.184782
C25	C	-0.395018	-1.400429	-0.269392
C26	C	-0.447541	-1.315766	-0.354004
C27	C	-0.552562	-1.315785	-0.354000
C28	C	-0.289972	-1.569732	-0.100168
C29	C	-0.289990	-1.400415	-0.269393
N30	N	0.237407	-1.485137	-0.184783
C31	C	-0.000035	-1.714634	-0.177615
C32	C	-0.000032	-1.854078	-0.181306
C33	C	-0.000010	-1.088146	-0.416831
C34	C	0.000001	-1.008652	-0.529374
C35	C	0.000002	-0.877634	-0.525898
C36	C	-0.000011	-0.826108	-0.409867
C37	C	-0.000022	-0.905602	-0.297324
C38	C	-0.000020	-1.036622	-0.300812
C39	C	-0.000043	-0.933572	-0.068763
C40	C	-0.000037	-1.064590	-0.072235
C41	C	-0.000056	-0.882046	0.047269
C42	C	-0.000060	-0.961540	0.159814
C43	C	-0.000059	-1.092565	0.156334
C44	C	-0.000048	-1.144084	0.040308
C45	C	-0.000031	-1.477929	-0.414323
C46	C	-0.000031	-1.481621	-0.553766
C47	C	0.181877	-1.488618	0.184198
C48	C	0.272827	-1.486911	0.249710
C49	C	0.272828	-1.483442	0.380729
C50	C	0.181869	-1.481676	0.446238
C51	C	0.090919	-1.483383	0.380726
C52	C	0.090927	-1.486856	0.249705
C53	C	-0.090981	-1.483329	0.380722
C54	C	-0.090985	-1.486807	0.249704
C55	C	-0.181940	-1.481563	0.446231
C56	C	-0.272893	-1.483279	0.380721
C57	C	-0.272890	-1.486750	0.249694
C58	C	-0.181935	-1.488514	0.184192
H59	H	-0.247251	-1.331465	-0.338289
C60	C	-0.610338	-1.222678	-0.447073
H61	H	-0.680404	-1.234826	-0.434963
H62	H	-0.593149	-1.138738	-0.432663
H63	H	-0.593118	-1.237054	-0.531023
C64	C	0.372870	-1.481593	0.452798
H65	H	0.427042	-1.483156	0.395026
H66	H	0.376670	-1.407142	0.494984
H67	H	0.376623	-1.553370	0.512836
H68	H	-0.752859	-1.331537	-0.338280
C69	C	0.000021	-1.065326	-0.657002
H70	H	0.000020	-0.999217	-0.723528
H71	H	0.058205	-1.115863	-0.663102
H72	H	-0.058169	-1.115846	-0.663120
H73	H	0.346884	-1.488347	0.196357
H74	H	-0.404738	-1.723358	0.053336
H75	H	-0.595270	-1.723371	0.053315
H76	H	-0.181924	-1.491346	0.077511
H77	H	-0.404783	-1.246836	-0.422900
C78	C	-0.767812	-1.662913	-0.007112
H79	H	-0.837882	-1.650793	-0.019226
H80	H	-0.750584	-1.746845	-0.021523
H81	H	-0.750609	-1.648533	0.076841
H82	H	0.181878	-1.478836	0.552919
H83	H	-0.000023	-0.719425	-0.407048
H84	H	-0.247213	-1.638668	-0.031285
H85	H	0.181885	-1.491457	0.077517
C86	C	-0.000003	-1.232261	-0.420659
H87	H	0.000002	-1.251563	-0.505877
H88	H	0.058176	-1.267071	-0.379228
H89	H	-0.058198	-1.267058	-0.379251
H90	H	0.000003	-0.812909	-0.617541
C91	C	-0.181946	-1.477743	0.590348
H92	H	-0.249141	-1.476927	0.619976
H93	H	-0.148365	-1.550077	0.628931
H94	H	-0.148349	-1.403850	0.611045
C95	C	-0.372933	-1.481337	0.452781
H96	H	-0.359906	-1.479027	0.540193
H97	H	-0.410301	-1.408791	0.422365
H98	H	-0.410307	-1.555018	0.440259
H99	H	-0.000061	-0.775363	0.050090
C100	C	-0.000072	-0.904860	0.287430
H101	H	-0.000069	-0.815446	0.273381
H102	H	-0.058255	-0.932073	0.333819
H103	H	0.058119	-0.932077	0.333817
C104	C	-0.000050	-1.288198	0.036474
H105	H	-0.000050	-1.307495	-0.048745
H106	H	0.058125	-1.323020	0.077902
H107	H	-0.058249	-1.322988	0.077882
H108	H	-0.000072	-1.157283	0.247981
C109	C	-0.372938	-1.488627	0.177641
H110	H	-0.427103	-1.487086	0.235426
H111	H	-0.376712	-1.416874	0.117586
H112	H	-0.376729	-1.563101	0.135478
