data_functionalizedCrystal
_audit_creation_method	'MofGen! by Chris Wilmer'
_symmetry_space_group_name_H-M	'P1'
_symmetry_Int_Tables_number	1
_symmetry_cell_setting	triclinic
loop_
_symmetry_equiv_pos_as_xyz
  x,y,z
_cell_length_a	13.339070
_cell_length_b	15.944551
_cell_length_c	12.376457
_cell_angle_alpha	101.276265
_cell_angle_beta	75.589755
_cell_angle_gamma	99.564016
loop_
_atom_site_label
_atom_site_type_symbol
_atom_site_fract_x
_atom_site_fract_y
_atom_site_fract_z
O1	O	1.361721	0.409519	-0.094056
O2	O	1.067189	0.354248	-0.094048
O3	O	1.222496	0.261484	-0.094042
O4	O	1.206414	0.502283	-0.094062
O5	O	1.183683	0.284634	0.093969
O6	O	1.028376	0.377398	0.093963
O7	O	1.322908	0.432670	0.093955
Zn8	Zn	1.169480	0.408710	0.123810
Zn9	Zn	1.220618	0.378208	-0.123903
O10	O	1.167601	0.525433	0.093949
C11	C	1.010092	0.356487	-0.000041
C12	C	0.897788	0.328657	-0.000038
C13	C	0.533017	0.545045	-0.000074
C14	C	0.638533	0.571195	-0.000081
C15	C	0.703352	0.510563	-0.000069
C16	C	0.662645	0.423776	-0.000053
C17	C	0.557120	0.397623	-0.000055
C18	C	0.727455	0.363140	-0.000050
C19	C	0.686748	0.276354	-0.000033
C20	C	0.581233	0.250205	-0.000035
C21	C	0.516415	0.310837	-0.000046
C22	C	0.832979	0.389294	-0.000048
C23	C	0.857082	0.241871	-0.000029
C24	C	0.751566	0.215722	-0.000022
C25	C	1.202422	0.241610	-0.000036
C26	C	1.200420	0.147897	-0.000036
C27	C	1.099369	-0.090507	-0.000048
C28	C	1.127158	-0.129176	0.092651
C29	C	1.196799	-0.023674	-0.000044
C30	C	1.165448	-0.151979	-0.092713
C31	C	1.193296	-0.189405	-0.000057
C32	C	1.224599	-0.061099	0.092732
C33	C	1.262892	-0.083908	-0.092715
C34	C	1.290747	-0.122540	0.000007
C35	C	1.198814	0.071800	-0.000036
C36	C	1.191287	-0.284874	-0.000058
C37	C	1.380005	0.430431	-0.000054
C38	C	1.492311	0.458260	-0.000065
C39	C	1.187676	0.545308	-0.000059
C40	C	1.189680	0.639019	-0.000067
N41	N	1.134587	0.429527	0.292867
N42	N	1.255518	0.357386	-0.292960
C43	C	1.336516	0.309045	0.647859
C44	C	1.360931	0.294473	0.529520
C45	C	1.304347	0.328235	0.470351
C46	C	1.223343	0.376572	0.529532
C47	C	1.198930	0.391151	0.647883
C48	C	1.166762	0.410341	0.470375
C49	C	1.085758	0.458678	0.529556
C50	C	1.061349	0.473254	0.647895
C51	C	1.117933	0.439492	0.707064
C52	C	1.191175	0.395762	0.352024
C53	C	1.053590	0.477868	0.352048
C54	C	1.029174	0.492440	0.470387
H55	H	0.480235	0.594401	-0.000092
O56	O	0.920169	0.183026	-0.000168
C57	C	1.002018	0.181740	-0.097552
H58	H	1.014061	0.245658	-0.130020
H59	H	1.076799	0.171631	-0.075648
H60	H	0.981381	0.126891	-0.165734
H61	H	1.249577	-0.021853	0.171188
H62	H	1.007515	0.505362	0.303873
O63	O	0.950426	0.539287	0.528008
C64	C	0.873888	0.488150	0.596460
H65	H	0.910527	0.434013	0.614177
H66	H	0.840722	0.529718	0.679685
H67	H	0.808526	0.459368	0.550874
O68	O	1.058846	-0.153126	0.186228
C69	C	1.112547	-0.185472	0.250847
H70	H	1.198633	-0.158740	0.230132
H71	H	1.078251	-0.165009	0.344607
H72	H	1.104182	-0.258822	0.230056
O73	O	1.002930	-0.073220	-0.000146
C74	C	1.007767	-0.038512	-0.097982
H75	H	1.078220	-0.058918	-0.166084
H76	H	0.933571	-0.063363	-0.130183
H77	H	1.015421	0.034809	-0.076793
H78	H	1.382585	0.281565	0.696043
H79	H	0.548096	0.179536	-0.000034
O80	O	1.387334	-0.139643	-0.000160
C81	C	1.422970	-0.198425	-0.097977
H82	H	1.380508	-0.194947	-0.166035
H83	H	1.510423	-0.181352	-0.130268
H84	H	1.406799	-0.266507	-0.076728
H85	H	1.426885	0.255119	0.481339
H86	H	0.866111	0.459956	-0.000057
O87	O	0.678155	0.655457	-0.000315
C88	C	0.758581	0.662987	-0.097686
H89	H	0.747673	0.604881	-0.165717
H90	H	0.755852	0.724436	-0.130403
H91	H	0.837252	0.665732	-0.075676
H92	H	0.789267	0.531859	-0.000078
O93	O	1.331191	-0.060023	-0.186329
C94	C	1.299710	-0.106917	-0.283876
H95	H	1.212648	-0.130165	-0.261664
H96	H	1.316069	-0.063698	-0.351145
H97	H	1.344955	-0.164806	-0.317699
O98	O	1.135430	-0.198826	-0.186175
C99	C	1.034482	-0.182889	-0.185801
H100	H	1.018430	-0.117938	-0.131531
H101	H	1.028844	-0.181930	-0.275952
H102	H	0.974545	-0.235911	-0.149621
O103	O	1.269732	0.348653	0.294633
C104	C	1.247281	0.265251	0.323648
H105	H	1.159568	0.249963	0.356173
H106	H	1.274975	0.216196	0.245861
H107	H	1.289145	0.262153	0.392371
O108	O	1.328163	0.313964	0.355398
C109	C	1.411807	0.264079	0.315850
H110	H	1.415390	0.226567	0.384053
H111	H	1.399640	0.217064	0.236691
H112	H	1.488026	0.308264	0.294826
H113	H	0.430494	0.289550	-0.000040
O114	O	0.982599	0.520102	0.705507
C115	C	0.906057	0.468969	0.773962
H116	H	0.942692	0.414836	0.791691
H117	H	0.872885	0.510543	0.857180
H118	H	0.840699	0.440183	0.728370
O119	O	0.712170	0.131376	-0.000166
C120	C	0.765370	0.080934	-0.097548
H121	H	0.845262	0.116878	-0.130013
H122	H	0.775477	0.017092	-0.075642
H123	H	0.718390	0.068043	-0.165733
O124	O	1.094205	0.453802	0.822022
C125	C	1.106635	0.543204	0.861553
H126	H	1.099977	0.579455	0.793354
H127	H	1.043371	0.559188	0.940732
H128	H	1.186605	0.563262	0.882538
