data_functionalizedCrystal
_audit_creation_method	'MofGen! by Chris Wilmer'
_symmetry_space_group_name_H-M	'P1'
_symmetry_Int_Tables_number	1
_symmetry_cell_setting	triclinic
loop_
_symmetry_equiv_pos_as_xyz
  x,y,z
_cell_length_a	18.760492
_cell_length_b	14.560438
_cell_length_c	14.560438
_cell_angle_alpha	90.001361
_cell_angle_beta	60.000218
_cell_angle_gamma	59.999288
loop_
_atom_site_label
_atom_site_type_symbol
_atom_site_fract_x
_atom_site_fract_y
_atom_site_fract_z
Zr1	Zr	0.780263	-0.120547	0.884718
O2	O	0.928972	-0.267203	0.738066
O3	O	0.631552	-0.075584	0.929679
O4	O	0.780262	-0.267192	0.929674
O5	O	0.780264	0.075544	0.738070
O6	O	0.780264	-0.267190	1.080812
O7	O	0.780262	-0.075595	0.738071
O8	O	0.514249	0.075562	1.080821
O9	O	1.046279	-0.267208	0.738061
O10	O	0.692721	-0.056412	1.061642
O11	O	0.692721	0.056379	0.948848
O12	O	0.867808	-0.169215	0.948842
O13	O	0.867808	-0.056424	0.836048
Zr14	Zr	0.780269	0.120505	1.125764
Zr15	Zr	0.780266	-0.120543	1.125766
Zr16	Zr	0.780266	0.120501	0.884716
Zr17	Zr	0.967354	-0.120556	0.884709
Zr18	Zr	0.593178	0.120514	1.125772
O19	O	0.928981	0.075542	1.080802
O20	O	0.928976	-0.267197	1.080805
O21	O	0.928976	0.075537	0.738063
O22	O	0.631561	0.267160	1.272415
O23	O	0.631556	-0.075579	1.272418
O24	O	0.631556	0.267155	0.929676
O25	O	0.780269	-0.075586	1.272412
O26	O	0.780271	0.267150	1.080807
O27	O	0.780269	0.267148	0.929669
O28	O	0.780271	0.075552	1.272410
O29	O	1.046281	-0.267205	0.929662
O30	O	0.514251	0.267163	1.080820
O31	O	0.514254	0.267166	1.272421
O32	O	0.514251	0.075565	1.272422
O33	O	1.046281	-0.075607	0.738059
O34	O	1.046284	-0.075604	0.929660
O35	O	0.692724	0.169173	1.061639
O36	O	0.692724	0.056382	1.174433
O37	O	0.867811	-0.056421	1.061634
O38	O	0.867811	0.056370	0.948840
C39	C	0.546244	-0.000010	1.005251
C40	C	0.466818	-0.000006	1.005255
C41	C	0.780262	-0.000026	0.703726
C42	C	0.780261	-0.000028	0.601395
C43	C	0.780270	0.301493	1.005238
C44	C	0.780271	0.403824	1.005237
C45	C	0.131024	0.058845	0.946349
C46	C	0.131028	-0.058911	1.064107
C47	C	0.205644	-0.058905	1.064116
C48	C	0.242954	-0.000024	1.005239
C49	C	0.205648	0.058850	0.946353
C50	C	0.242962	-0.117787	1.122991
C51	C	0.317583	-0.117784	1.123001
C52	C	0.354889	-0.058896	1.064130
C53	C	0.317578	-0.000018	1.005243
C54	C	0.354888	0.058862	0.946365
C55	C	0.317574	0.117747	0.887484
C56	C	0.242955	0.117738	0.887481
C57	C	0.429508	-0.058887	1.064132
C58	C	0.429513	0.058868	0.946369
C59	C	1.014289	-0.000032	1.005230
C60	C	1.093714	-0.000036	1.005226
C61	C	0.780262	-0.301535	1.005243
C62	C	0.780261	-0.403867	1.005244
C63	C	0.871663	0.393021	0.946362
C64	C	0.871658	0.489176	0.946362
C65	C	0.688862	0.606935	1.064121
C66	C	0.688868	0.510781	1.064114
C67	C	0.977200	0.325035	0.878379
C68	C	0.977195	0.421190	0.878379
C69	C	0.688869	0.058854	0.612197
C70	C	0.688874	0.058864	0.516042
C71	C	0.871670	-0.058898	0.398287
C72	C	0.871664	-0.058901	0.494440
C73	C	0.583333	0.126839	0.680181
C74	C	0.583337	0.126849	0.584026
C75	C	0.780270	-0.000016	1.306755
C76	C	0.780271	-0.000015	1.409086
C77	C	0.546248	-0.000005	1.306766
C78	C	0.466824	0.000000	1.409101
C79	C	0.546248	0.301504	1.005249
C80	C	0.466824	0.403839	1.005251
C81	C	0.546252	0.301509	1.306763
C82	C	0.466829	0.403846	1.409097
C83	C	1.014281	-0.301552	0.703718
C84	C	1.093703	-0.403888	0.601384
C85	C	1.014285	-0.000037	0.703716
C86	C	1.093708	-0.000043	0.601381
C87	C	1.014285	-0.301547	1.005233
C88	C	1.093708	-0.403882	1.005230
C89	C	0.429524	-0.058885	1.398282
C90	C	0.354907	-0.058902	1.494427
C91	C	0.317587	-0.000027	1.601390
C92	C	0.354894	0.058860	1.612207
C93	C	0.429514	0.058870	1.516062
C94	C	0.429527	0.510785	1.064129
C95	C	0.354911	0.606949	1.064127
C96	C	0.317587	0.596165	1.005254
C97	C	0.354891	0.489208	0.946369
C98	C	0.429511	0.393047	0.946365
C99	C	0.429532	0.393029	1.516041
C100	C	0.354916	0.489176	1.612204
C101	C	0.317595	0.596139	1.601420
C102	C	0.354900	0.606954	1.494464
C103	C	0.429519	0.510808	1.398304
C104	C	1.131010	-0.393071	0.494440
C105	C	1.205648	-0.489218	0.398277
C106	C	1.242974	-0.596181	0.409061
C107	C	1.205664	-0.606996	0.516017
C108	C	1.131032	-0.510850	0.612177
C109	C	1.131016	0.058833	0.612199
C110	C	1.205653	0.058823	0.516054
C111	C	1.242977	-0.000055	0.409091
C112	C	1.205666	-0.058937	0.398275
C113	C	1.131035	-0.058934	0.494419
C114	C	1.131008	-0.393062	1.064115
C115	C	1.205626	-0.489207	1.064134
C116	C	1.242946	-0.596171	1.005262
C117	C	1.205639	-0.606989	0.946375
C118	C	1.131018	-0.510845	0.946363
H119	H	0.459884	0.106819	0.898426
F120	F	0.469233	0.522287	1.126798
H121	H	0.100653	-0.106857	1.112037
F122	F	0.530400	0.077394	0.584006
F123	F	1.091297	-0.279241	0.482937
F124	F	0.238167	-0.000047	1.703707
F125	F	0.315162	0.121518	1.726054
H126	H	1.017712	0.421183	0.916202
H127	H	1.236013	-0.480390	0.311199
F128	F	1.245396	-0.121593	0.284428
F129	F	0.469201	0.522338	1.284488
H130	H	1.236019	0.106777	0.524883
H131	H	0.256835	0.674418	1.679729
H132	H	0.459908	0.305942	1.524843
F133	F	0.469193	0.279230	0.883702
F134	F	0.315224	0.477642	1.726023
H135	H	0.324501	0.694056	1.485700
H136	H	0.946084	-0.106844	0.485636
H137	H	0.256826	0.674475	1.005266
H138	H	0.324546	0.694028	1.112082
H139	H	0.542879	0.216860	0.732340
F140	F	1.322404	-0.698500	0.306708
H141	H	0.946088	-0.106831	0.311195
H142	H	0.550590	0.081976	0.731091
F143	F	0.315157	0.477748	0.883717
F144	F	1.245397	-0.720844	0.527477
H145	H	1.100657	-0.519671	0.699254
H146	H	1.100633	0.106786	0.699285
H147	H	1.303746	-0.000048	0.330814
F148	F	1.245375	-0.720838	0.883715
F149	F	1.091332	-0.121594	0.482888
H150	H	1.100633	-0.305975	1.112056
F151	F	1.245322	-0.477670	1.126806
F152	F	1.322368	-0.698488	1.005282
H153	H	1.100657	-0.519670	0.898407
F154	F	0.357296	0.180403	0.824817
F155	F	0.203229	0.180412	0.824832
H156	H	0.550586	0.213907	0.575310
F157	F	0.091302	0.121523	0.883698
F158	F	0.591589	0.720770	1.126777
F159	F	0.203258	-0.180457	1.185639
H160	H	0.459874	0.106828	1.524887
H161	H	0.459891	-0.106836	1.112067
F162	F	0.357289	-0.180452	1.185668
H163	H	0.614448	0.519586	1.112044
H164	H	1.009943	0.274117	0.923240
F165	F	1.030167	0.256804	0.760704
H166	H	0.459910	-0.106842	1.311196
F167	F	0.315213	-0.121576	1.482892
F168	F	1.019916	0.432652	0.764616
