data_functionalizedCrystal
_audit_creation_method	'MofGen! by Chris Wilmer'
_symmetry_space_group_name_H-M	'P1'
_symmetry_Int_Tables_number	1
_symmetry_cell_setting	triclinic
loop_
_symmetry_equiv_pos_as_xyz
  x,y,z
_cell_length_a	15.944493
_cell_length_b	10.654549
_cell_length_c	9.730217
_cell_angle_alpha	89.997829
_cell_angle_beta	89.999156
_cell_angle_gamma	83.980981
loop_
_atom_site_label
_atom_site_type_symbol
_atom_site_fract_x
_atom_site_fract_y
_atom_site_fract_z
O1	O	1.115488	0.161617	-0.114268
O2	O	0.871048	0.181662	-0.114275
O3	O	0.998886	-0.011174	-0.114266
O4	O	0.987650	0.354453	-0.114277
O5	O	0.998882	-0.011176	0.114314
O6	O	0.871044	0.181660	0.114305
O7	O	1.115484	0.161615	0.114312
Zn8	Zn	0.993264	0.171637	0.150600
Zn9	Zn	0.993269	0.171639	-0.150564
O10	O	0.987646	0.354451	0.114303
C11	C	0.839747	0.180841	0.000014
C12	C	0.746484	0.178385	0.000012
C13	C	0.998058	-0.057962	0.000022
C14	C	0.995588	-0.197372	0.000018
C15	C	1.143814	-0.489321	0.000029
C16	C	1.221410	-0.438812	0.000033
C17	C	1.223734	-0.307825	0.000032
C18	C	1.148455	-0.227342	0.000029
C19	C	1.070859	-0.277851	0.000024
C20	C	1.068543	-0.408842	0.000022
C21	C	0.917992	-0.247881	0.000013
C22	C	0.915665	-0.378868	0.000005
C23	C	0.842712	-0.167398	0.000010
C24	C	0.765114	-0.217907	-0.000004
C25	C	0.762793	-0.348903	-0.000004
C26	C	0.838070	-0.429377	-0.000000
C27	C	0.511382	0.291893	0.000008
C28	C	0.460467	0.230682	0.112717
C29	C	0.575736	0.173834	0.000015
C30	C	0.460475	0.230656	-0.112645
C31	C	0.410801	0.169447	0.000012
C32	C	0.526050	0.112655	0.112818
C33	C	0.526061	0.112646	-0.112646
C34	C	0.475178	0.051348	0.000091
C35	C	0.670751	0.176365	0.000018
C36	C	0.315790	0.166907	0.000018
C37	C	1.146786	0.162435	0.000019
C38	C	1.240049	0.164891	0.000013
C39	C	0.988474	0.401239	0.000012
C40	C	0.990945	0.540649	0.000007
N41	N	0.993266	0.171635	0.356137
N42	N	0.993273	0.171632	-0.356100
C43	C	1.106513	0.000928	0.356135
C44	C	1.163143	-0.084422	0.428074
C45	C	1.163151	-0.084423	0.571954
C46	C	1.106523	0.000933	0.643898
C47	C	1.049894	0.086283	0.571959
C48	C	1.049893	0.086277	0.428076
C49	C	0.936644	0.256982	0.571961
C50	C	0.936638	0.256991	0.428081
C51	C	0.880015	0.342337	0.643905
C52	C	0.823389	0.427695	0.571966
C53	C	0.823383	0.427694	0.428077
C54	C	0.880008	0.342340	0.356142
H55	H	1.141929	-0.595979	0.000012
C56	C	0.533300	0.429270	0.000154
N57	N	0.549812	0.532740	0.000272
H58	H	0.880021	0.342328	0.761059
H59	H	1.209248	-0.153921	0.369485
H60	H	0.777265	0.497191	0.369512
H61	H	0.699605	-0.390017	0.000006
C62	C	1.225445	-0.178312	0.651089
N63	N	1.272366	-0.249028	0.710693
C64	C	0.421753	0.298039	0.241432
N65	N	0.392593	0.348781	0.338374
C66	C	0.564598	0.045352	0.241684
N67	N	0.593634	-0.005334	0.338748
H68	H	0.554720	0.062826	-0.207934
H69	H	0.459122	-0.050423	0.000159
C70	C	0.421782	0.298040	-0.241363
N71	N	0.392641	0.348801	-0.338310
C72	C	0.845271	-0.023309	0.000013
N73	N	0.847197	0.085221	0.000011
C74	C	0.880007	0.342329	0.197870
N75	N	0.880005	0.342312	0.078658
H76	H	1.282701	-0.504355	0.000040
H77	H	1.286919	-0.266702	0.000043
C78	C	1.106520	0.000904	0.802170
N79	N	1.106515	0.000879	0.921382
H80	H	0.777282	0.497180	0.630552
C81	C	1.151016	-0.083253	0.000045
N82	N	1.152945	0.025276	0.000058
H83	H	0.703828	-0.152369	0.000003
H84	H	0.836187	-0.536036	-0.000008
H85	H	1.106519	0.000930	0.238981
