data_functionalizedCrystal
_audit_creation_method	'MofGen! by Chris Wilmer'
_symmetry_space_group_name_H-M	'P1'
_symmetry_Int_Tables_number	1
_symmetry_cell_setting	triclinic
loop_
_symmetry_equiv_pos_as_xyz
  x,y,z
_cell_length_a	6.817900
_cell_length_b	7.190401
_cell_length_c	12.908942
_cell_angle_alpha	88.326548
_cell_angle_beta	79.139444
_cell_angle_gamma	119.389243
loop_
_atom_site_label
_atom_site_type_symbol
_atom_site_fract_x
_atom_site_fract_y
_atom_site_fract_z
V1	V	4.209291	0.663825	-0.144162
O2	O	4.207559	0.652409	0.008670
O3	O	4.145876	0.658110	-0.287525
O4	O	4.246742	0.953877	-0.141180
O5	O	4.105994	0.354595	-0.138688
V6	V	4.683741	0.626981	-0.125972
O7	O	4.490453	0.744644	-0.184063
O8	O	4.852776	0.546161	-0.086070
O9	O	4.523950	0.632695	0.017391
O10	O	4.802871	0.638397	-0.278804
O11	O	4.904435	0.936211	-0.131446
O12	O	4.423084	0.336928	-0.128954
C13	C	3.984446	0.647335	-0.322497
C14	C	4.014455	0.644596	-0.439694
C15	C	4.227032	1.266183	-0.134321
C16	C	4.113107	1.024610	-0.135828
C17	C	4.440398	0.660692	-0.670606
C18	C	4.468604	0.658119	-0.780722
C19	C	4.099083	0.636894	-0.770046
C20	C	4.070877	0.639466	-0.659930
C21	C	4.241541	0.651363	-0.610213
C22	C	4.213325	0.653920	-0.500094
C23	C	3.843814	0.632710	-0.489421
C24	C	3.872020	0.630137	-0.599537
C25	C	4.348720	0.643465	0.052358
C26	C	4.297953	0.646217	0.169554
H27	H	4.352283	0.663591	-0.459615
H28	H	3.681885	0.625110	-0.440237
Cl29	Cl	4.718608	0.669855	-0.856642
H30	H	4.579344	0.670346	-0.630124
H31	H	3.960156	0.627228	-0.810546
H32	H	3.733081	0.620459	-0.640033
