data_functionalizedCrystal
_audit_creation_method	'MofGen! by Chris Wilmer'
_symmetry_space_group_name_H-M	'P1'
_symmetry_Int_Tables_number	1
_symmetry_cell_setting	triclinic
loop_
_symmetry_equiv_pos_as_xyz
  x,y,z
_cell_length_a	14.044202
_cell_length_b	8.559649
_cell_length_c	7.088929
_cell_angle_alpha	95.325015
_cell_angle_beta	96.800065
_cell_angle_gamma	98.514317
loop_
_atom_site_label
_atom_site_type_symbol
_atom_site_fract_x
_atom_site_fract_y
_atom_site_fract_z
O1	O	0.021003	2.100734	-0.158950
O2	O	-0.027448	1.642436	-0.158975
O3	O	0.134264	1.864704	-0.158911
O4	O	-0.140710	1.878467	-0.159014
O5	O	0.155919	1.894401	0.159073
O6	O	-0.005794	1.672134	0.159009
O7	O	0.042658	2.130432	0.159033
Cu8	Cu	0.020409	1.903995	0.188055
Cu9	Cu	-0.005200	1.868874	-0.187997
O10	O	-0.119055	1.908165	0.158969
C11	C	0.179968	1.873529	0.000090
C12	C	0.283888	1.855562	0.000116
C13	C	-0.020293	1.598279	0.000014
C14	C	-0.031222	1.422456	0.000008
C15	C	0.541056	1.950139	0.000072
C16	C	0.474152	1.822731	0.000073
C17	C	0.368280	1.841002	0.000097
C18	C	0.646939	1.931870	0.000048
C19	C	0.835242	1.899338	-0.000010
C20	C	0.731326	1.917301	0.000029
C21	C	0.035502	2.174589	0.000040
C22	C	0.046431	2.350410	0.000034
N23	N	0.038423	1.928708	0.452551
N24	N	-0.023205	1.844172	-0.452492
H25	H	0.496388	1.699932	0.000059
Cl26	Cl	-0.121811	1.708899	0.421416
H27	H	0.518822	2.072929	0.000095
Cl28	Cl	0.161987	1.462846	0.000066
Cl29	Cl	-0.146786	1.310012	-0.000055
Cl30	Cl	0.137025	2.064005	0.578649
