data_functionalizedCrystal
_audit_creation_method	'MofGen! by Chris Wilmer'
_symmetry_space_group_name_H-M	'P1'
_symmetry_Int_Tables_number	1
_symmetry_cell_setting	triclinic
loop_
_symmetry_equiv_pos_as_xyz
  x,y,z
_cell_length_a	12.594517
_cell_length_b	12.594516
_cell_length_c	12.594509
_cell_angle_alpha	89.973801
_cell_angle_beta	90.014305
_cell_angle_gamma	89.983990
loop_
_atom_site_label
_atom_site_type_symbol
_atom_site_fract_x
_atom_site_fract_y
_atom_site_fract_z
Zn1	Zn	1.627267	0.423711	0.601676
Zn2	Zn	1.627158	0.601722	0.423703
Zn3	Zn	1.449271	0.423757	0.423726
Zn4	Zn	1.449253	0.601648	0.601655
O5	O	1.538237	0.512710	0.512690
O6	O	1.776198	0.447336	0.578066
O7	O	1.603522	0.578164	0.274761
O8	O	1.472935	0.274805	0.447350
O9	O	1.776118	0.578120	0.447311
O10	O	1.603708	0.274772	0.578088
O11	O	1.472830	0.447415	0.274777
O12	O	1.300323	0.447343	0.447330
O13	O	1.472905	0.577994	0.750604
O14	O	1.300310	0.578039	0.578054
O15	O	1.603691	0.447265	0.750619
O16	O	1.603505	0.750658	0.447291
O17	O	1.472799	0.750604	0.578031
C18	C	1.261696	0.512689	0.512693
C19	C	1.143391	0.512706	0.512719
C20	C	1.003398	0.583920	0.583688
C21	C	1.074168	0.609828	0.486547
C22	C	1.074192	0.486845	0.609849
C23	C	1.003376	0.538698	0.415495
C24	C	1.003393	0.415671	0.538863
C25	C	1.074131	0.441542	0.441655
C26	C	1.538167	0.789251	0.512680
C27	C	1.538235	0.907556	0.512711
C28	C	1.538308	0.512616	0.790311
C29	C	1.538339	0.512577	0.908617
C30	C	1.815858	0.512731	0.512688
C31	C	1.934163	0.512740	0.512687
C32	C	1.538336	0.235089	0.512724
C33	C	1.538378	0.116783	0.512738
C34	C	1.467137	0.976818	0.583771
C35	C	1.441204	1.047684	0.486651
C36	C	1.564265	1.047490	0.609847
C37	C	1.512250	0.976863	0.415539
C38	C	1.635357	0.976663	0.538802
C39	C	1.609460	1.047496	0.441615
C40	C	1.538227	0.512726	0.236149
C41	C	1.538403	0.512466	0.117844
C42	C	1.467227	0.583640	0.977862
C43	C	1.564347	0.609646	1.048641
C44	C	1.441294	0.486506	1.048636
C45	C	1.635510	0.538634	0.977838
C46	C	1.512391	0.415449	0.977827
C47	C	1.609579	0.441418	1.048574
H48	H	0.972281	0.333620	0.561024
O49	O	1.486112	0.940066	0.317457
C50	C	1.560760	0.976940	0.242632
H51	H	1.638266	0.997131	0.284797
H52	H	1.575919	0.912538	0.180890
H53	H	1.528457	1.050967	0.201705
O54	O	1.681129	1.084424	0.369795
C55	C	1.628567	1.147502	0.293642
H56	H	1.551158	1.178779	0.328593
H57	H	1.681489	1.217158	0.270419
H58	H	1.610552	1.097579	0.220338
H59	H	1.359198	0.464502	1.079736
H60	H	1.586224	1.078513	0.691984
H61	H	1.105298	0.464958	0.692004
H62	H	1.406904	0.945784	0.643776
O63	O	1.343230	1.084855	0.460502
C64	C	1.268430	1.048830	0.535587
H65	H	1.310701	1.028880	0.613121
H66	H	1.207023	1.113651	0.550467
H67	H	1.227081	0.974830	0.503889
H68	H	0.972340	0.644175	0.643642
H69	H	1.717406	0.945447	0.560894
H70	H	1.586329	0.691738	1.079746
O71	O	1.111212	0.707804	0.460313
C72	C	1.075156	0.782635	0.535332
H73	H	1.055309	0.740405	0.612904
H74	H	1.139918	0.844089	0.550158
H75	H	1.001087	0.823920	0.503599
O76	O	1.733404	0.565035	0.940725
C77	C	1.732182	0.564794	0.828783
H78	H	1.647350	0.576639	0.799487
H79	H	1.784392	0.631958	0.797874
H80	H	1.763816	0.485593	0.798468
O81	O	1.395659	0.655584	0.940862
C82	C	1.423440	0.757821	0.976971
H83	H	1.511733	0.759826	0.996819
H84	H	1.405643	0.818574	0.912239
H85	H	1.375410	0.777734	1.051049
O86	O	1.681515	0.369657	1.085208
C87	C	1.732278	0.320179	0.998589
H88	H	1.726652	0.373671	0.925762
H89	H	1.819327	0.305776	1.018837
H90	H	1.691905	0.241084	0.981127
O91	O	0.966383	0.565110	0.317523
C92	C	0.904066	0.657835	0.324850
H93	H	0.927599	0.704172	0.398939
H94	H	0.917608	0.709209	0.251548
H95	H	0.816605	0.635107	0.329986
O96	O	1.110912	0.369834	0.369819
C97	C	1.074610	0.397498	0.267572
H98	H	1.054835	0.485805	0.265400
H99	H	1.139197	0.379553	0.206766
H100	H	1.000447	0.349506	0.247870
H101	H	1.490381	0.333381	0.946698
