data_functionalizedCrystal
_audit_creation_method	'MofGen! by Chris Wilmer'
_symmetry_space_group_name_H-M	'P1'
_symmetry_Int_Tables_number	1
_symmetry_cell_setting	triclinic
loop_
_symmetry_equiv_pos_as_xyz
  x,y,z
_cell_length_a	17.699083
_cell_length_b	18.366186
_cell_length_c	19.288865
_cell_angle_alpha	89.988521
_cell_angle_beta	83.209632
_cell_angle_gamma	89.996982
loop_
_atom_site_label
_atom_site_type_symbol
_atom_site_fract_x
_atom_site_fract_y
_atom_site_fract_z
O1	O	1.003957	-0.060456	0.087837
O2	O	1.503957	0.439544	0.587837
O3	O	0.783563	-0.060481	0.099265
O4	O	1.283563	0.439519	0.599265
O5	O	0.900128	-0.060453	-0.007572
O6	O	1.400128	0.439547	0.492428
O7	O	0.887392	-0.060484	0.194674
O8	O	1.387392	0.439516	0.694674
O9	O	0.900109	0.060646	-0.007577
O10	O	1.400109	0.560646	0.492423
O11	O	0.783543	0.060618	0.099260
O12	O	1.283543	0.560618	0.599260
O13	O	1.003937	0.060643	0.087832
O14	O	1.503937	0.560643	0.587832
Zn15	Zn	0.893737	0.079858	0.093545
Zn16	Zn	1.393737	0.579858	0.593545
Zn17	Zn	0.893763	-0.079696	0.093552
Zn18	Zn	1.393763	0.420304	0.593552
O19	O	0.887372	0.060616	0.194668
O20	O	1.387372	0.560616	0.694668
C21	C	0.755356	0.000066	0.098853
C22	C	1.255356	0.500066	0.598853
C23	C	0.671340	0.000057	0.097624
C24	C	1.171340	0.500057	0.597624
N25	N	0.893725	0.188749	0.093540
N26	N	1.393725	0.688749	0.593540
N27	N	0.893781	-0.188587	0.093551
N28	N	1.393781	0.311413	0.593551
C29	C	0.622631	0.000048	0.160335
C30	C	1.122631	0.500048	0.660335
C31	C	0.543689	0.000057	0.159177
C32	C	1.043689	0.500057	0.659177
C33	C	0.513458	0.000071	0.095307
C34	C	1.013458	0.500071	0.595307
C35	C	0.562174	0.000082	0.032591
C36	C	1.062174	0.500082	0.532591
C37	C	0.641114	0.000078	0.033750
C38	C	1.141114	0.500078	0.533750
C39	C	0.243817	0.000101	0.027915
C40	C	0.743817	0.500101	0.527915
C41	C	0.164871	0.000103	0.026761
C42	C	0.664871	0.500103	0.526761
C43	C	0.146393	0.000080	0.153342
C44	C	0.646393	0.500080	0.653342
C45	C	0.225333	0.000076	0.154501
C46	C	0.725333	0.500076	0.654501
C47	C	0.274041	0.000091	0.091785
C48	C	0.774041	0.500091	0.591785
C49	C	0.359639	0.000082	0.093042
C50	C	0.859639	0.500082	0.593042
C51	C	0.427862	0.000075	0.094049
C52	C	0.927862	0.500075	0.594049
C53	C	1.032144	0.000095	0.088244
C54	C	1.532144	0.500095	0.588244
C55	C	1.116160	0.000099	0.089472
C56	C	1.616160	0.500099	0.589472
C57	C	0.899709	0.000098	-0.033451
C58	C	1.399709	0.500098	0.466549
C59	C	0.898478	0.000105	-0.110556
C60	C	1.398478	0.500105	0.389444
C61	C	0.945357	0.226862	0.046256
C62	C	1.445357	0.726862	0.546256
C63	C	0.945362	0.303090	0.046253
C64	C	1.445362	0.803090	0.546253
C65	C	0.893742	0.341202	0.093545
C66	C	1.393742	0.841202	0.593545
C67	C	0.842100	0.303080	0.140833
C68	C	1.342100	0.803080	0.640833
C69	C	0.842092	0.226854	0.140830
C70	C	1.342092	0.726854	0.640830
C71	C	0.883610	0.461952	0.156821
C72	C	1.383610	0.961952	0.656821
C73	C	0.883624	0.538177	0.156825
C74	C	1.383624	1.038177	0.656825
C75	C	0.893763	0.576309	0.093554
C76	C	1.393763	1.076309	0.593554
C77	C	0.903905	0.538207	0.030277
C78	C	1.403905	1.038207	0.530277
C79	C	0.903897	0.461981	0.030274
C80	C	1.403897	0.961981	0.530274
C81	C	0.893745	0.423857	0.093554
C82	C	1.393745	0.923857	0.593554
C83	C	0.945403	0.697077	0.046263
C84	C	1.445403	1.197077	0.546263
C85	C	0.945403	0.773306	0.046259
C86	C	1.445403	1.273306	0.546259
C87	C	0.842145	0.773295	0.140845
C88	C	1.342145	1.273295	0.640845
C89	C	0.842141	0.697067	0.140843
C90	C	1.342141	1.197067	0.640843
C91	C	0.893775	0.658963	0.093553
C92	C	1.393775	1.158963	0.593553
C93	C	0.966874	0.000116	-0.155172
C94	C	1.466874	0.500116	0.344828
C95	C	0.965718	0.000104	-0.227620
C96	C	1.465718	0.500104	0.272380
C97	C	0.896163	0.000096	-0.255450
C98	C	1.396163	0.500096	0.244550
C99	C	0.827759	0.000081	-0.210825
C100	C	1.327759	0.500081	0.289175
C101	C	0.828916	0.000085	-0.138378
C102	C	1.328916	0.500085	0.361622
C103	C	0.841478	0.042508	-0.363804
C104	C	1.341478	0.542508	0.136196
C105	C	0.840323	0.042509	-0.436250
C106	C	1.340323	0.542509	0.063750
C107	C	0.892589	0.000079	-0.478900
C108	C	1.392589	0.500079	0.021100
C109	C	0.946024	-0.042341	-0.449097
C110	C	1.446024	0.457659	0.050903
C111	C	0.947181	-0.042336	-0.376650
C112	C	1.447181	0.457664	0.123350
C113	C	0.894900	0.000091	-0.334006
C114	C	1.394900	0.500091	0.165994
C115	C	0.959736	0.000077	-0.602073
C116	C	1.459736	0.500077	-0.102073
C117	C	0.958578	0.000061	-0.674522
C118	C	1.458578	0.500061	-0.174522
C119	C	0.820616	0.000044	-0.657725
C120	C	1.320616	0.500044	-0.157725
C121	C	0.821777	0.000053	-0.585277
C122	C	1.321777	0.500053	-0.085277
C123	C	0.891339	0.000073	-0.557456
C124	C	1.391339	0.500073	-0.057456
C125	C	0.887792	0.000062	0.220548
C126	C	1.387792	0.500062	0.720548
C127	C	0.889022	0.000051	0.297653
C128	C	1.389022	0.500051	0.797653
H129	H	0.647238	0.000036	0.212346
H130	H	1.147238	0.500036	0.712346
Br131	Br	0.477586	0.000042	0.244288
Br132	Br	0.977586	0.500042	0.744288
H133	H	0.987444	0.666051	0.007754
H134	H	1.487444	1.166051	0.507754
Br135	Br	0.869924	0.410209	0.242699
Br136	Br	1.369924	0.910209	0.742699
Br137	Br	1.015474	0.825035	-0.017923
Br138	Br	1.515474	1.325035	0.482077
Br139	Br	0.772069	0.645337	0.205020
Br140	Br	1.272069	1.145337	0.705020
H141	H	0.680773	0.000085	-0.017316
H142	H	1.180773	0.500085	0.482684
Br143	Br	0.266357	0.000051	0.241184
Br144	Br	0.766357	0.500051	0.741184
Br145	Br	0.123844	0.000119	-0.059926
Br146	Br	0.623844	0.500119	0.440074
H147	H	0.800112	0.804326	0.179350
H148	H	1.300112	1.304326	0.679350
H149	H	0.987398	0.195839	0.007747
H150	H	1.487398	0.695839	0.507747
H151	H	0.800069	0.334115	0.179339
H152	H	1.300069	0.834115	0.679339
H153	H	0.990688	-0.076877	-0.352387
H154	H	1.490688	0.423123	0.147613
Br155	Br	0.767811	0.100082	-0.476690
Br156	Br	1.267811	0.600082	0.023310
Br157	Br	0.917676	0.589948	-0.055597
Br158	Br	1.417676	1.089948	0.444403
Br159	Br	1.016963	-0.099927	-0.506970
Br160	Br	1.516963	0.400073	-0.006970
Br161	Br	1.015439	0.354823	-0.017925
Br162	Br	1.515439	0.854823	0.482075
H163	H	0.912153	0.430962	-0.021249
H164	H	1.412153	0.930962	0.478751
Br165	Br	0.309912	0.000123	-0.057199
Br166	Br	0.809912	0.500123	0.442801
H167	H	0.875370	0.569194	0.208349
H168	H	1.375370	1.069194	0.708349
Br169	Br	0.736087	0.000068	-0.077824
Br170	Br	1.236087	0.500068	0.422176
Br171	Br	0.733362	0.000060	-0.248592
Br172	Br	1.233362	0.500060	0.251408
Br173	Br	1.054139	0.000111	-0.564310
Br174	Br	1.554139	0.500111	-0.064310
Br175	Br	0.772013	0.175125	0.205006
Br176	Br	1.272013	0.675125	0.705006
Br177	Br	1.061279	0.000123	-0.117417
Br178	Br	1.561279	0.500123	0.382583
H179	H	0.106724	0.000072	0.204407
H180	H	0.606724	0.500072	0.704407
Br181	Br	0.728949	0.000039	-0.524724
Br182	Br	1.228949	0.500039	-0.024724
H183	H	0.763983	0.000034	-0.680383
H184	H	1.263983	0.500034	-0.180383
H185	H	1.021416	0.000111	-0.263953
H186	H	1.521416	0.500111	0.236047
Br187	Br	0.770538	0.100096	-0.305929
Br188	Br	1.270538	0.600096	0.194071
Br189	Br	0.521147	0.000108	-0.054091
Br190	Br	1.021147	0.500108	0.445909
Br191	Br	1.051408	0.000068	-0.735074
Br192	Br	1.551408	0.500068	-0.235074
