data_functionalizedCrystal
_audit_creation_method	'MofGen! by Chris Wilmer'
_symmetry_space_group_name_H-M	'P1'
_symmetry_Int_Tables_number	1
_symmetry_cell_setting	triclinic
loop_
_symmetry_equiv_pos_as_xyz
  x,y,z
_cell_length_a	16.994737
_cell_length_b	12.827893
_cell_length_c	12.827892
_cell_angle_alpha	90.015362
_cell_angle_beta	89.973112
_cell_angle_gamma	89.989826
loop_
_atom_site_label
_atom_site_type_symbol
_atom_site_fract_x
_atom_site_fract_y
_atom_site_fract_z
Zn1	Zn	0.445982	-1.597576	0.416013
Zn2	Zn	0.314085	-1.597498	0.590782
Zn3	Zn	0.314095	-1.422845	0.416055
Zn4	Zn	0.445952	-1.422802	0.590713
O5	O	0.380028	-1.510180	0.503391
O6	O	0.428494	-1.743801	0.439208
O7	O	0.203705	-1.574315	0.567650
O8	O	0.331607	-1.446074	0.269814
O9	O	0.331590	-1.743744	0.567610
O10	O	0.428503	-1.574448	0.269783
O11	O	0.203713	-1.445998	0.439279
O12	O	0.331578	-1.276603	0.439213
O13	O	0.556337	-1.446001	0.567492
O14	O	0.428452	-1.276572	0.567533
O15	O	0.556359	-1.574407	0.439141
O16	O	0.331561	-1.574273	0.737009
O17	O	0.428442	-1.445926	0.736958
C18	C	0.380015	-1.510115	0.774901
C19	C	0.380035	-1.510182	0.891054
C20	C	0.380013	-1.238670	0.503371
C21	C	0.380026	-1.122517	0.503387
C22	C	0.675089	-1.510242	0.503280
C23	C	0.585767	-1.510215	0.503313
C24	C	0.175089	-1.510210	0.503394
C25	C	0.085767	-1.510405	0.503131
Zn26	Zn	0.945949	-1.597887	0.590312
Zn27	Zn	0.945985	-1.422904	0.415916
Zn28	Zn	0.814109	-1.423096	0.590711
Zn29	Zn	0.814073	-1.597538	0.415681
O30	O	0.880029	-1.510356	0.503155
O31	O	1.056335	-1.574741	0.567109
O32	O	0.928521	-1.276693	0.439369
O33	O	0.831597	-1.446509	0.736894
O34	O	1.056361	-1.446181	0.438982
O35	O	0.928460	-1.574927	0.736600
O36	O	0.831632	-1.276834	0.567790
O37	O	0.703723	-1.446170	0.567561
O38	O	0.831536	-1.743820	0.438580
O39	O	0.703696	-1.574332	0.438967
O40	O	0.928425	-1.744077	0.566881
O41	O	0.928487	-1.445842	0.269649
O42	O	0.831572	-1.574145	0.269476
C43	C	0.380044	-1.782750	0.503412
C44	C	0.380051	-1.898903	0.503421
C45	C	0.427888	-1.070745	0.566983
C46	C	0.427902	-0.950694	0.567002
C47	C	0.380060	-1.510274	0.230821
C48	C	0.380073	-1.510314	0.114667
C49	C	0.332148	-1.573768	0.942829
C50	C	0.332168	-1.573840	1.062879
C51	C	0.880030	-1.509931	0.231645
C52	C	0.880051	-1.509715	0.115492
C53	C	0.879973	-1.782926	0.502659
C54	C	0.879949	-1.899079	0.502448
C55	C	0.879981	-1.510840	0.775724
C56	C	0.879841	-1.511206	0.891877
C57	C	0.880129	-1.238847	0.503722
C58	C	0.880300	-1.122695	0.504221
C59	C	0.928051	-1.446189	0.063828
C60	C	0.928073	-1.445964	-0.056222
C61	C	0.927877	-1.950990	0.565835
C62	C	0.927853	-2.071041	0.565618
H63	H	0.468858	-1.115297	0.621413
H64	H	0.969132	-1.391972	0.108473
Br65	Br	0.311748	-1.048271	0.412647
Br66	Br	0.263825	-1.664571	1.137084
Br67	Br	0.496197	-0.876494	0.657765
Br68	Br	0.263794	-1.664430	0.868587
H69	H	0.838976	-1.563940	0.070849
Br70	Br	0.448405	-1.419562	1.040470
Br71	Br	0.996565	-1.355300	-0.130268
H72	H	0.838993	-1.563685	-0.063697
Br73	Br	0.996286	-1.876943	0.656578
Br74	Br	0.996255	-2.145440	0.656064
H75	H	0.339069	-0.943420	0.448975
Br76	Br	0.811513	-2.048300	0.411577
H77	H	0.838896	-1.943512	0.448024
H78	H	0.421050	-1.455801	0.935604
