data_functionalizedCrystal
_audit_creation_method	'MofGen! by Chris Wilmer'
_symmetry_space_group_name_H-M	'P1'
_symmetry_Int_Tables_number	1
_symmetry_cell_setting	triclinic
loop_
_symmetry_equiv_pos_as_xyz
  x,y,z
_cell_length_a	10.686220
_cell_length_b	15.297327
_cell_length_c	15.297738
_cell_angle_alpha	69.242341
_cell_angle_beta	96.100065
_cell_angle_gamma	103.240265
loop_
_atom_site_label
_atom_site_type_symbol
_atom_site_fract_x
_atom_site_fract_y
_atom_site_fract_z
Zn1	Zn	1.960165	-0.331130	0.459985
Zn2	Zn	2.460165	0.168870	0.959985
Zn3	Zn	1.897752	-0.463886	0.335507
Zn4	Zn	2.397752	0.036114	0.835507
Zn5	Zn	1.718032	-0.320322	0.320537
Zn6	Zn	2.218032	0.179678	0.820537
Zn7	Zn	1.717944	-0.502677	0.502875
Zn8	Zn	2.217944	-0.002677	1.002875
O9	O	1.823473	-0.404504	0.404726
O10	O	2.323473	0.095496	0.904726
O11	O	2.128470	-0.337029	0.431788
O12	O	2.628470	0.162971	0.931788
O13	O	1.847829	-0.424085	0.205118
O14	O	2.347829	0.075915	0.705118
O15	O	1.776309	-0.189881	0.314821
O16	O	2.276309	0.310119	0.814821
O17	O	2.082615	-0.434565	0.340334
O18	O	2.582615	0.065435	0.840334
O19	O	1.954203	-0.197821	0.417272
O20	O	2.454203	0.302179	0.917272
O21	O	1.715790	-0.318609	0.194119
O22	O	2.215790	0.181391	0.694119
O23	O	1.541437	-0.356223	0.356410
O24	O	2.041437	0.143777	0.856410
O25	O	1.776158	-0.500678	0.625589
O26	O	2.276158	-0.000678	1.125589
O27	O	1.541372	-0.490198	0.490373
O28	O	2.041372	0.009802	0.990373
O29	O	1.954117	-0.374643	0.594078
O30	O	2.454117	0.125357	1.094078
O31	O	1.847743	-0.600907	0.381923
O32	O	2.347743	-0.100907	0.881923
O33	O	1.715638	-0.629406	0.504888
O34	O	2.215638	-0.129406	1.004888
C35	C	1.495618	-0.426248	0.426422
C36	C	1.995618	0.073752	0.926422
C37	C	1.355360	-0.435576	0.435729
C38	C	1.855360	0.064424	0.935729
C39	C	1.774946	-0.649351	0.449702
C40	C	2.274946	-0.149351	0.949702
C41	C	1.754308	-0.754095	0.468966
C42	C	2.254308	-0.254095	0.968966
C43	C	1.971562	-0.989881	0.267323
C44	C	2.471562	-0.489881	0.767323
C45	C	1.990952	-0.891468	0.249219
C46	C	2.490952	-0.391468	0.749219
C47	C	1.931793	-0.857120	0.304154
C48	C	2.431793	-0.357120	0.804154
C49	C	1.853241	-0.921194	0.377196
C50	C	2.353241	-0.421194	0.877196
C51	C	1.833842	-1.019617	0.395297
C52	C	2.333842	-0.519617	0.895297
C53	C	1.794072	-0.886856	0.432129
C54	C	2.294072	-0.386856	0.932129
C55	C	1.715520	-0.950930	0.505171
C56	C	2.215520	-0.450930	1.005171
C57	C	1.696125	-1.049343	0.523269
C58	C	2.196125	-0.549343	1.023269
C59	C	1.755284	-1.083691	0.468334
C60	C	2.255284	-0.583691	0.968334
C61	C	1.813471	-0.788433	0.414028
C62	C	2.313471	-0.288433	0.914028
C63	C	1.675750	-0.818169	0.542002
C64	C	2.175750	-0.318169	1.042002
C65	C	1.656361	-0.916582	0.560106
C66	C	2.156361	-0.416582	1.060106
C67	C	2.152609	-0.382676	0.382947
C68	C	2.652609	0.117324	0.882947
C69	C	2.292867	-0.373374	0.373666
C70	C	2.792867	0.126626	0.873666
C71	C	1.872090	-0.443193	0.644058
C72	C	2.372090	0.056807	1.144058
C73	C	1.892807	-0.459680	0.746047
C74	C	2.392807	0.040320	1.246047
C75	C	1.872228	-0.158701	0.359592
C76	C	2.372228	0.341299	0.859592
C77	C	1.893005	-0.053955	0.340359
C78	C	2.393005	0.446045	0.840359
C79	C	1.775132	-0.365892	0.166308
C80	C	2.275132	0.134108	0.666308
C81	C	1.754712	-0.349124	0.064254
C82	C	2.254712	0.150876	0.564254
C83	C	1.971285	-0.522343	0.799690
C84	C	2.471285	-0.022343	1.299690
C85	C	1.990759	-0.537824	0.895512
C86	C	2.490759	-0.037824	1.395512
C87	C	1.931749	-0.490651	0.937702
C88	C	2.431749	0.009349	1.437702
C89	C	1.853262	-0.427992	0.884061
C90	C	2.353262	0.072008	1.384061
C91	C	1.833794	-0.412503	0.788228
C92	C	2.333794	0.087497	1.288228
C93	C	1.794257	-0.380811	0.926241
C94	C	2.294257	0.119189	1.426241
C95	C	1.715770	-0.318153	0.872599
C96	C	2.215770	0.181847	1.372599
C97	C	1.696305	-0.302667	0.776776
C98	C	2.196305	0.197333	1.276776
C99	C	1.755316	-0.349840	0.734586
C100	C	2.255316	0.150160	1.234586
C101	C	1.813725	-0.396301	1.022073
C102	C	2.313725	0.103699	1.522073
C103	C	1.676234	-0.286461	1.010612
C104	C	2.176234	0.213539	1.510612
C105	C	1.656760	-0.270979	0.914790
C106	C	2.156760	0.229021	1.414790
H107	H	1.877429	-0.736272	0.354556
H108	H	2.377429	-0.236272	0.854556
H109	H	1.947610	-0.503260	1.015725
H110	H	2.447610	-0.003260	1.515725
Cl111	Cl	2.045920	-1.033067	0.198269
Cl112	Cl	2.545920	-0.533067	0.698269
H113	H	1.947583	-0.776986	0.289408
H114	H	2.447583	-0.276986	0.789408
Cl115	Cl	1.375923	-0.280132	0.280631
Cl116	Cl	1.875923	0.219868	0.780631
H117	H	1.632406	-0.251639	0.733102
H118	H	2.132406	0.248361	1.233102
Cl119	Cl	1.597367	-1.129891	0.615090
Cl120	Cl	2.097367	-0.629891	1.115090
Cl121	Cl	2.089415	-0.616598	0.962940
Cl122	Cl	2.589415	-0.116598	1.462940
H123	H	1.301553	-0.495975	0.495984
H124	H	1.801553	0.004025	0.995984
H125	H	1.592403	-0.968765	0.619578
H126	H	2.092403	-0.468765	1.119578
Cl127	Cl	1.602051	-0.227149	1.063643
Cl128	Cl	2.102051	0.272851	1.563643
H129	H	1.627575	-0.790205	0.586734
H130	H	2.127575	-0.290205	1.086734
H131	H	1.877631	-0.447317	1.065739
H132	H	2.377631	0.052683	1.565739
H133	H	2.054907	-0.839302	0.189748
H134	H	2.554907	-0.339302	0.689748
H135	H	2.019331	-0.560739	0.765328
H136	H	2.519331	-0.060739	1.265328
Cl137	Cl	1.730325	-1.207387	0.490751
Cl138	Cl	2.230325	-0.707387	0.990751
H139	H	1.739464	-0.337238	0.656560
H140	H	2.239464	0.162762	1.156560
H141	H	1.592855	-0.219961	0.871102
H142	H	2.092855	0.280039	1.371102
