data_functionalizedCrystal
_audit_creation_method	'MofGen! by Chris Wilmer'
_symmetry_space_group_name_H-M	'P1'
_symmetry_Int_Tables_number	1
_symmetry_cell_setting	triclinic
loop_
_symmetry_equiv_pos_as_xyz
  x,y,z
_cell_length_a	17.077404
_cell_length_b	17.077402
_cell_length_c	17.077396
_cell_angle_alpha	90.027528
_cell_angle_beta	90.019777
_cell_angle_gamma	90.018878
loop_
_atom_site_label
_atom_site_type_symbol
_atom_site_fract_x
_atom_site_fract_y
_atom_site_fract_z
Zn1	Zn	1.200051	-0.312605	0.443854
Zn2	Zn	1.700051	0.187395	0.943854
Zn3	Zn	1.199957	-0.443880	0.312590
Zn4	Zn	1.699957	0.056120	0.812590
Zn5	Zn	1.068783	-0.312621	0.312601
Zn6	Zn	1.568783	0.187379	0.812601
Zn7	Zn	1.068750	-0.443822	0.443813
Zn8	Zn	1.568750	0.056178	0.943813
O9	O	1.134385	-0.378232	0.378214
O10	O	1.634385	0.121768	0.878214
O11	O	1.309886	-0.330036	0.426454
O12	O	1.809886	0.169964	0.926454
O13	O	1.182531	-0.426499	0.202744
O14	O	1.682531	0.073501	0.702744
O15	O	1.086250	-0.202772	0.330034
O16	O	1.586250	0.297228	0.830034
O17	O	1.309816	-0.426483	0.330015
O18	O	1.809816	0.073517	0.830015
O19	O	1.182692	-0.202760	0.426464
O20	O	1.682692	0.297240	0.926464
O21	O	1.086158	-0.330064	0.202753
O22	O	1.586158	0.169936	0.702753
O23	O	0.958932	-0.330008	0.329994
O24	O	1.458932	0.169992	0.829994
O25	O	1.086193	-0.426385	0.553665
O26	O	1.586193	0.073615	1.053665
O27	O	0.958907	-0.426401	0.426395
O28	O	1.458907	0.073599	0.926395
O29	O	1.182659	-0.329980	0.553695
O30	O	1.682659	0.170020	1.053695
O31	O	1.182499	-0.553719	0.329975
O32	O	1.682499	-0.053719	0.829975
O33	O	1.086101	-0.553677	0.426384
O34	O	1.586101	-0.053677	0.926384
C35	C	0.930437	-0.378200	0.378192
C36	C	1.430437	0.121800	0.878192
C37	C	0.843188	-0.378206	0.378201
C38	C	1.343188	0.121794	0.878201
C39	C	0.467381	-0.428536	0.428354
C40	C	0.967381	0.071464	0.928354
C41	C	0.549361	-0.428526	0.428342
C42	C	1.049361	0.071474	0.928342
C43	C	0.590339	-0.378253	0.378227
C44	C	1.090339	0.121747	0.878227
C45	C	0.549331	-0.327992	0.328115
C46	C	1.049331	0.172008	0.828115
C47	C	0.467352	-0.328007	0.328123
C48	C	0.967352	0.171993	0.828123
C49	C	0.720201	-0.327964	0.328102
C50	C	1.220201	0.172036	0.828102
C51	C	0.802186	-0.327948	0.328094
C52	C	1.302186	0.172052	0.828094
C53	C	0.802210	-0.428482	0.428320
C54	C	1.302210	0.071518	0.928320
C55	C	0.720231	-0.428497	0.428329
C56	C	1.220231	0.071503	0.928329
C57	C	0.679230	-0.378235	0.378218
C58	C	1.179230	0.121765	0.878218
C59	C	1.134307	-0.582180	0.378191
C60	C	1.634307	-0.082180	0.878191
C61	C	1.134346	-0.669430	0.378207
C62	C	1.634346	-0.169430	0.878207
C63	C	1.184536	-0.710346	0.428459
C64	C	1.684536	-0.210346	0.928459
C65	C	1.184569	-0.792326	0.428476
C66	C	1.684569	-0.292326	0.928476
C67	C	1.134415	-0.833389	0.378236
C68	C	1.634415	-0.333389	0.878236
C69	C	1.084220	-0.792467	0.327982
C70	C	1.584220	-0.292467	0.827982
C71	C	1.084183	-0.710488	0.327970
C72	C	1.584183	-0.210488	0.827970
C73	C	1.084300	-0.963337	0.328009
C74	C	1.584300	-0.463337	0.828009
C75	C	1.084337	-1.045321	0.328020
C76	C	1.584337	-0.545321	0.828020
C77	C	1.184686	-1.045175	0.428515
C78	C	1.684686	-0.545175	0.928515
C79	C	1.184649	-0.963196	0.428503
C80	C	1.684649	-0.463196	0.928503
C81	C	1.134455	-0.922280	0.378248
C82	C	1.634455	-0.422280	0.878248
C83	C	1.339130	-0.378264	0.378237
C84	C	1.839130	0.121736	0.878237
C85	C	1.426379	-0.378278	0.378247
C86	C	1.926379	0.121722	0.878247
C87	C	1.134433	-0.378174	0.582959
C88	C	1.634433	0.121826	1.082959
C89	C	1.134453	-0.378149	0.670209
C90	C	1.634453	0.121851	1.170209
C91	C	1.134485	-0.173488	0.378255
C92	C	1.634485	0.326512	0.878255
C93	C	1.134527	-0.086238	0.378272
C94	C	1.634527	0.413762	0.878272
C95	C	1.134383	-0.378233	0.174266
C96	C	1.634383	0.121767	0.674266
C97	C	1.134515	-0.378036	0.087017
C98	C	1.634515	0.121964	0.587017
C99	C	1.184685	-0.327947	0.711216
C100	C	1.684685	0.172053	1.211216
C101	C	1.184694	-0.327921	0.793196
C102	C	1.684694	0.172079	1.293196
C103	C	1.134475	-0.378102	0.834168
C104	C	1.634475	0.121898	1.334168
C105	C	1.084238	-0.428306	0.793155
C106	C	1.584238	0.071694	1.293155
C107	C	1.084225	-0.428328	0.711176
C108	C	1.584225	0.071672	1.211176
C109	C	1.084269	-0.428259	0.964025
C110	C	1.584269	0.071741	1.464025
C111	C	1.084283	-0.428238	1.046010
C112	C	1.584283	0.071762	1.546010
C113	C	1.184739	-0.327852	1.046045
C114	C	1.684739	0.172148	1.546045
C115	C	1.184726	-0.327874	0.964066
C116	C	1.684726	0.172126	1.464066
C117	C	1.134489	-0.378080	0.923059
C118	C	1.634489	0.121920	1.423059
H119	H	0.434023	-0.469470	0.469168
H120	H	0.934023	0.030530	0.969168
H121	H	0.433970	-0.287080	0.287324
H122	H	0.933970	0.212920	0.787324
H123	H	1.225582	-0.287087	0.677862
H124	H	1.725582	0.212913	1.177862
C125	C	0.594460	-0.483816	0.483460
C126	C	1.094460	0.016184	0.983460
N127	N	0.628427	-0.525465	0.524976
N128	N	1.128427	-0.025465	1.024976
H129	H	1.225600	-0.287043	0.826580
H130	H	1.725600	0.212957	1.326580
C131	C	1.028988	-0.483498	0.838227
C132	C	1.528988	0.016502	1.338227
N133	N	0.987373	-0.525069	0.872175
N134	N	1.487373	-0.025069	1.372175
H135	H	1.225492	-0.929763	0.469408
H136	H	1.725492	-0.429763	0.969408
H137	H	1.225623	-0.287017	0.930709
H138	H	1.725623	0.212983	1.430709
H139	H	1.225380	-0.676918	0.469367
H140	H	1.725380	-0.176918	0.969367
C141	C	1.029034	-0.483435	1.091078
C142	C	1.529034	0.016565	1.591078
N143	N	0.987419	-0.525008	1.125022
N144	N	1.487419	-0.025008	1.625022
C145	C	0.847314	-0.483773	0.483441
C146	C	1.347314	0.016227	0.983441
N147	N	0.881289	-0.525415	0.524958
N148	N	1.381289	-0.025415	1.024958
C149	C	0.594409	-0.272686	0.272994
C150	C	1.094409	0.227314	0.772994
N151	N	0.628361	-0.231023	0.231480
N152	N	1.128361	0.268977	0.731480
H153	H	1.225642	-0.286972	1.079437
H154	H	1.725642	0.213028	1.579437
C155	C	1.239792	-0.837331	0.483747
C156	C	1.739792	-0.337331	0.983747
N157	N	1.281392	-0.871227	0.525376
N158	N	1.781392	-0.371227	1.025376
C159	C	0.847259	-0.272652	0.272959
C160	C	1.347259	0.227348	0.772959
N161	N	0.881209	-0.231004	0.231428
N162	N	1.381209	0.268996	0.731428
H163	H	1.043349	-0.469129	0.930640
H164	H	1.543349	0.030871	1.430640
C165	C	1.028967	-0.483555	0.666069
C166	C	1.528967	0.016445	1.166069
N167	N	0.987344	-0.525153	0.632095
N168	N	1.487344	-0.025153	1.132095
H169	H	1.225556	-1.078493	0.469436
H170	H	1.725556	-0.578493	0.969436
H171	H	0.686820	-0.287034	0.287298
H172	H	1.186820	0.212966	0.787298
C173	C	1.029160	-1.090489	0.272760
C174	C	1.529160	-0.590489	0.772760
N175	N	0.987598	-1.124509	0.231138
N176	N	1.487598	-0.624509	0.731138
C177	C	1.029097	-0.837639	0.272670
C178	C	1.529097	-0.337639	0.772670
N179	N	0.987598	-0.871661	0.230988
N180	N	1.487598	-0.371661	0.730988
H181	H	0.686870	-0.469430	0.469141
H182	H	1.186870	0.030570	0.969141
C183	C	1.028971	-0.665480	0.272688
C184	C	1.528971	-0.165480	0.772688
N185	N	0.987381	-0.631582	0.231050
N186	N	1.487381	-0.131582	0.731050
H187	H	1.043423	-0.930025	0.287089
H188	H	1.543423	-0.430025	0.787089
