data_functionalizedCrystal
_audit_creation_method	'MofGen! by Chris Wilmer'
_symmetry_space_group_name_H-M	'P1'
_symmetry_Int_Tables_number	1
_symmetry_cell_setting	triclinic
loop_
_symmetry_equiv_pos_as_xyz
  x,y,z
_cell_length_a	18.266242
_cell_length_b	8.559649
_cell_length_c	8.559649
_cell_angle_alpha	69.778664
_cell_angle_beta	89.994811
_cell_angle_gamma	89.991098
loop_
_atom_site_label
_atom_site_type_symbol
_atom_site_fract_x
_atom_site_fract_y
_atom_site_fract_z
O1	O	0.060869	-2.126892	0.055034
O2	O	0.060872	-1.651407	-0.028747
O3	O	0.060870	-1.931040	0.250886
O4	O	0.060872	-1.847259	-0.224599
O5	O	-0.060892	-1.930999	0.250893
O6	O	-0.060890	-1.651366	-0.028740
O7	O	-0.060893	-2.126851	0.055041
Zn8	Zn	-0.080223	-1.889102	0.013152
Zn9	Zn	0.080203	-1.889156	0.013142
O10	O	-0.060890	-1.847218	-0.224592
C11	C	-0.000008	-1.591077	-0.035093
C12	C	-0.000007	-1.411378	-0.053992
N13	N	-0.189710	-1.889077	0.013161
C14	C	-0.000010	-1.937369	0.311198
C15	C	-0.000006	-1.956268	0.490898
C16	C	-0.228020	-2.012928	0.136933
C17	C	-0.304665	-2.012940	0.136942
C18	C	-0.342997	-1.889112	0.013153
C19	C	-0.304678	-1.765239	-0.110630
C20	C	-0.228035	-1.765222	-0.110626
N21	N	-0.463329	-1.850848	-0.132928
N22	N	-0.536137	-1.850875	-0.132926
C23	C	-0.573920	-1.889154	0.013135
N24	N	-0.536144	-1.927439	0.159202
N25	N	-0.463329	-1.927420	0.159199
C26	C	-0.426104	-1.889116	0.013135
C27	C	-0.695337	-2.013025	0.136926
C28	C	-0.771983	-2.013025	0.136936
C29	C	-0.771994	-1.765331	-0.110649
C30	C	-0.695350	-1.765324	-0.110646
C31	C	-0.657025	-1.889180	0.013141
N32	N	0.189690	-1.889195	0.013147
C33	C	-0.000010	-2.187180	0.061387
C34	C	-0.000007	-2.366879	0.080286
C35	C	-0.000009	-1.840889	-0.284904
C36	C	-0.000008	-1.821990	-0.464604
H37	H	-0.196819	-2.113775	0.237731
F38	F	0.000000	-1.281477	-0.223166
F39	F	-0.812787	-1.633535	-0.242386
H40	H	-0.664156	-1.664479	-0.211438
F41	F	-0.000009	-1.652825	0.405504
H42	H	-0.335863	-2.113797	0.237736
F43	F	-0.000015	-2.125442	0.620799
H44	H	-0.335892	-1.664414	-0.211419
F45	F	-0.187261	-1.633398	-0.242366
F46	F	-0.654548	-2.144837	0.268677
F47	F	-0.000003	-1.496772	0.249451
F48	F	-0.812757	-2.144842	0.268684
