data_functionalizedCrystal
_audit_creation_method	'MofGen! by Chris Wilmer'
_symmetry_space_group_name_H-M	'P1'
_symmetry_Int_Tables_number	1
_symmetry_cell_setting	triclinic
loop_
_symmetry_equiv_pos_as_xyz
  x,y,z
_cell_length_a	15.995300
_cell_length_b	15.995292
_cell_length_c	15.072220
_cell_angle_alpha	90.002061
_cell_angle_beta	89.985917
_cell_angle_gamma	83.470212
loop_
_atom_site_label
_atom_site_type_symbol
_atom_site_fract_x
_atom_site_fract_y
_atom_site_fract_z
O1	O	1.111000	0.107723	-0.073809
O2	O	1.611000	0.607723	0.426191
O3	O	0.867216	0.121095	-0.073803
O4	O	1.367216	0.621095	0.426197
O5	O	0.995797	-0.007483	-0.073807
O6	O	1.495797	0.492517	0.426193
O7	O	0.982418	0.236301	-0.073804
O8	O	1.482418	0.736301	0.426196
O9	O	0.995765	-0.007476	0.073758
O10	O	1.495765	0.492524	0.573758
O11	O	0.867184	0.121102	0.073763
O12	O	1.367184	0.621102	0.573763
O13	O	1.110968	0.107730	0.073756
O14	O	1.610968	0.607730	0.573756
Zn15	Zn	0.989071	0.114418	0.097189
Zn16	Zn	1.489071	0.614418	0.597189
Zn17	Zn	0.989113	0.114408	-0.097235
Zn18	Zn	1.489113	0.614408	0.402765
O19	O	0.982387	0.236309	0.073761
O20	O	1.482387	0.736309	0.573761
C21	C	0.836005	0.120553	-0.000019
C22	C	1.336005	0.620553	0.499981
C23	C	0.743052	0.118918	-0.000017
C24	C	1.243052	0.618918	0.499983
C25	C	0.572870	0.115899	-0.000024
C26	C	1.072870	0.615899	0.499976
C27	C	0.525385	0.207449	-0.000021
C28	C	1.025385	0.707449	0.499979
C29	C	0.428698	0.205779	-0.000358
C30	C	0.928698	0.705779	0.499642
C31	C	0.405314	0.112927	-0.000030
C32	C	0.905314	0.612927	0.499970
C33	C	0.446474	0.067501	-0.084131
C34	C	0.946474	0.567501	0.415869
C35	C	0.543107	0.069818	-0.084199
C36	C	1.043107	0.569818	0.415801
C37	C	0.543350	0.068471	0.083616
C38	C	1.043350	0.568471	0.583616
C39	C	0.446406	0.068479	0.084719
C40	C	0.946406	0.568479	0.584719
C41	C	0.310619	0.111242	-0.000036
C42	C	0.810619	0.611242	0.499964
C43	C	0.667565	0.117580	-0.000024
C44	C	1.167565	0.617580	0.499976
C45	C	0.995237	-0.038675	-0.000027
C46	C	1.495237	0.461325	0.499973
C47	C	0.993604	-0.131627	-0.000033
C48	C	1.493604	0.368373	0.499967
C49	C	0.987603	-0.469365	-0.000025
C50	C	1.487603	0.030635	0.499975
C51	C	1.080409	-0.446069	0.000302
C52	C	1.580409	0.053931	0.500302
C53	C	1.082173	-0.349394	-0.000034
C54	C	1.582173	0.150606	0.499966
C55	C	0.990581	-0.301809	-0.000029
C56	C	1.490581	0.198191	0.499971
C57	C	0.944200	-0.330906	-0.084292
C58	C	1.444200	0.169094	0.415708
C59	C	0.943083	-0.427697	-0.084359
C60	C	1.443083	0.072303	0.415641
C61	C	0.941152	-0.427545	0.083450
C62	C	1.441152	0.072455	0.583450
C63	C	0.944591	-0.331053	0.084561
C64	C	1.444591	0.168947	0.584561
C65	C	0.992259	-0.207114	-0.000034
C66	C	1.492259	0.292886	0.499966
C67	C	0.985922	-0.564060	-0.000026
C68	C	1.485922	-0.064060	0.499974
C69	C	1.142179	0.108272	-0.000029
C70	C	1.642179	0.608272	0.499971
C71	C	1.235131	0.109907	-0.000037
C72	C	1.735131	0.609907	0.499963
C73	C	0.982947	0.267500	-0.000021
C74	C	1.482947	0.767500	0.499979
C75	C	0.984579	0.360453	-0.000020
C76	C	1.484579	0.860453	0.499980
N77	N	0.989048	0.114423	0.229877
N78	N	1.489048	0.614423	0.729877
N79	N	0.989142	0.114396	-0.229924
N80	N	1.489142	0.614396	0.270076
C81	C	0.989111	0.114405	0.589079
C82	C	1.489111	0.614405	1.089079
C83	C	0.920079	0.182974	0.551474
C84	C	1.420079	0.682974	1.051474
C85	C	0.920237	0.183224	0.448649
C86	C	1.420237	0.683224	0.948649
C87	C	0.989079	0.114414	0.410875
C88	C	1.489079	0.614414	0.910875
C89	C	1.076442	0.133481	0.448164
C90	C	1.576442	0.633481	0.948164
C91	C	1.076055	0.133968	0.551022
C92	C	1.576055	0.633968	1.051022
C93	C	0.971560	0.026566	0.551179
C94	C	1.471560	0.526566	1.051179
C95	C	0.969555	0.027152	0.448315
C96	C	1.469555	0.527152	0.948315
C97	C	0.989067	0.114418	0.310162
C98	C	1.489067	0.614418	0.810162
C99	C	0.989129	0.114403	0.689792
C100	C	1.489129	0.614403	1.189792
H101	H	0.418096	0.098638	-0.146954
H102	H	0.918096	0.598638	0.353046
H103	H	1.091525	0.198027	0.575004
H104	H	1.591525	0.698027	1.075004
C105	C	1.128728	-0.483898	0.081928
C106	C	1.628728	0.016102	0.581928
H107	H	1.184587	-0.469111	0.080886
H108	H	1.684587	0.030889	0.580886
H109	H	1.130140	-0.543421	0.080810
H110	H	1.630140	-0.043421	0.580810
H111	H	1.101270	-0.462489	0.134453
H112	H	1.601270	0.037511	0.634453
H113	H	0.563830	0.098615	0.147380
H114	H	1.063830	0.598615	0.647380
C115	C	0.853153	-0.287836	-0.088536
C116	C	1.353153	0.212164	0.411464
H117	H	0.826272	-0.306322	-0.139979
H118	H	1.326272	0.193678	0.360021
H119	H	0.853652	-0.228554	-0.091065
H120	H	1.353652	0.271446	0.408935
H121	H	0.823361	-0.302072	-0.037185
H122	H	1.323361	0.197928	0.462815
C123	C	1.147501	0.067817	0.415108
C124	C	1.647501	0.567817	0.915108
H125	H	1.199759	0.080532	0.438443
H126	H	1.699759	0.580532	0.938443
H127	H	1.149501	0.068999	0.352135
H128	H	1.649501	0.568999	0.852135
H129	H	1.137086	0.013404	0.434369
H130	H	1.637086	0.513404	0.934369
H131	H	0.905290	0.012682	0.423945
H132	H	1.405290	0.512682	0.923945
H133	H	0.909239	0.008228	0.577170
H134	H	1.409239	0.508228	1.077170
H135	H	1.092282	0.196810	0.422395
H136	H	1.592282	0.696810	0.922395
C137	C	0.567868	0.114042	-0.169441
C138	C	1.067868	0.614042	0.330559
H139	H	0.518890	0.130429	-0.203700
H140	H	1.018890	0.630429	0.296300
H141	H	0.605882	0.076530	-0.202996
H142	H	1.105882	0.576530	0.297004
H143	H	0.594092	0.162465	-0.154211
H144	H	1.094092	0.662465	0.345789
H145	H	0.976434	-0.310855	-0.147003
H146	H	1.476434	0.189145	0.352997
H147	H	1.016570	-0.026263	0.422605
H148	H	1.516570	0.473737	0.922605
C149	C	0.391075	0.253775	-0.082274
C150	C	0.891075	0.753775	0.417726
H151	H	0.331785	0.252924	-0.082756
H152	H	0.831785	0.752924	0.417244
H153	H	0.414609	0.227641	-0.134595
H154	H	0.914609	0.727641	0.365405
H155	H	0.403611	0.310382	-0.079999
H156	H	0.903611	0.810382	0.420001
H157	H	0.875037	-0.442235	-0.088173
H158	H	1.375037	0.057765	0.411827
C159	C	0.425708	-0.022972	0.091923
C160	C	0.925708	0.477028	0.591923
H161	H	0.451318	-0.048254	0.143688
H162	H	0.951318	0.451746	0.643688
H163	H	0.446573	-0.053671	0.041077
H164	H	0.946573	0.446329	0.541077
H165	H	0.366460	-0.023411	0.095459
H166	H	0.866460	0.476589	0.595459
H167	H	0.872839	-0.441523	0.084021
H168	H	1.372839	0.058477	0.584021
H169	H	0.544999	0.243690	-0.060239
H170	H	1.044999	0.743690	0.439761
H171	H	0.419046	0.101651	0.146938
H172	H	0.919046	0.601651	0.646938
H173	H	0.575145	0.000972	0.084424
H174	H	1.075145	0.500972	0.584424
C175	C	0.980403	-0.465714	0.169734
C176	C	1.480403	0.034286	0.669734
H177	H	0.951457	-0.439610	0.219296
H178	H	1.451457	0.060390	0.719296
H179	H	1.038026	-0.456663	0.172319
H180	H	1.538026	0.043337	0.672319
H181	H	0.975931	-0.524423	0.170820
H182	H	1.475931	-0.024423	0.670820
C183	C	0.832497	0.167941	0.414584
C184	C	1.332497	0.667941	0.914584
H185	H	0.832473	0.168086	0.351552
H186	H	1.332473	0.668086	0.851552
H187	H	0.791830	0.211271	0.435724
H188	H	1.291830	0.711271	0.935724
H189	H	0.819059	0.115039	0.435453
H190	H	1.319059	0.615039	0.935453
H191	H	1.118499	-0.330373	0.060368
H192	H	1.618499	0.169627	0.560368
C193	C	0.832067	0.167896	0.584935
C194	C	1.332067	0.667896	1.084935
H195	H	0.836630	0.119653	0.622144
H196	H	1.336630	0.619653	1.122144
H197	H	0.796981	0.159152	0.535740
H198	H	1.296981	0.659152	1.035740
H199	H	0.808297	0.215584	0.617588
H200	H	1.308297	0.715584	1.117588
H201	H	0.931130	0.247791	0.577313
H202	H	1.431130	0.747791	1.077313
C203	C	0.550321	0.257160	0.081443
C204	C	1.050321	0.757160	0.581443
H205	H	0.520975	0.312230	0.080208
H206	H	1.020975	0.812230	0.580208
H207	H	0.609197	0.260675	0.080331
H208	H	1.109197	0.760675	0.580331
H209	H	0.536157	0.229244	0.134057
H210	H	1.036157	0.729244	0.634057
H211	H	1.115996	-0.475096	-0.059789
H212	H	1.615996	0.024904	0.440211
C213	C	0.586730	-0.020993	-0.089067
C214	C	1.086730	0.479007	0.410933
H215	H	0.545369	-0.059136	-0.090999
H216	H	1.045369	0.440864	0.409001
H217	H	0.621223	-0.032383	-0.038216
H218	H	1.121223	0.467617	0.461784
H219	H	0.620497	-0.027487	-0.141011
H220	H	1.120497	0.472513	0.358989
H221	H	0.432389	-0.000724	-0.087023
H222	H	0.932389	0.499276	0.412977
C223	C	1.131560	-0.324536	-0.081782
C224	C	1.631560	0.175464	0.418218
H225	H	1.150615	-0.373551	-0.114920
H226	H	1.650615	0.126449	0.385080
H227	H	1.178543	-0.297715	-0.062999
H228	H	1.678543	0.202285	0.437001
H229	H	1.095979	-0.287016	-0.117874
H230	H	1.595979	0.212984	0.382126
C231	C	0.986470	-0.463935	-0.169475
C232	C	1.486470	0.036065	0.330525
H233	H	1.004619	-0.419482	-0.203682
H234	H	1.504619	0.080518	0.296318
H235	H	0.947869	-0.491942	-0.203137
H236	H	1.447869	0.008058	0.296863
H237	H	1.033690	-0.502725	-0.154123
H238	H	1.533690	-0.002725	0.345877
C239	C	0.935379	0.271278	0.415391
C240	C	1.435379	0.771278	0.915391
H241	H	0.941466	0.307034	0.464744
H242	H	1.441466	0.807034	0.964744
H243	H	0.888875	0.294036	0.380414
H244	H	1.388875	0.794036	0.880414
H245	H	0.985156	0.267090	0.380508
H246	H	1.485156	0.767090	0.880508
H247	H	0.978363	-0.312491	0.146898
H248	H	1.478363	0.187509	0.646898
C249	C	0.854278	-0.286495	0.091450
C250	C	1.354278	0.213505	0.591450
H251	H	0.843387	-0.249313	0.042605
H252	H	1.343387	0.250687	0.542605
H253	H	0.848255	-0.255430	0.145234
H254	H	1.348255	0.244570	0.645234
H255	H	0.815472	-0.327254	0.090741
H256	H	1.315472	0.172746	0.590741
C257	C	1.147528	0.069066	0.584629
C258	C	1.647528	0.569066	1.084629
H259	H	1.176676	0.042525	0.535417
H260	H	1.676676	0.542525	1.035417
H261	H	1.124514	0.027924	0.619659
H262	H	1.624514	0.527924	1.119659
H263	H	1.185499	0.096719	0.619531
H264	H	1.685499	0.596719	1.119531
C265	C	1.039555	-0.042373	0.584034
C266	C	1.539555	0.457627	1.084034
H267	H	1.028615	-0.095302	0.560910
H268	H	1.528615	0.404698	1.060910
H269	H	1.038735	-0.044279	0.647018
H270	H	1.538735	0.455721	1.147018
H271	H	1.093266	-0.030066	0.564431
H272	H	1.593266	0.469934	1.064431
C273	C	0.390213	0.253999	0.081061
C274	C	0.890213	0.753999	0.581061
H275	H	0.433666	0.274792	0.114640
H276	H	0.933666	0.774792	0.614640
H277	H	0.361920	0.217212	0.116843
H278	H	0.861920	0.717212	0.616843
H279	H	0.351322	0.299762	0.061926
H280	H	0.851322	0.799762	0.561926
