data_functionalizedCrystal
_audit_creation_method	'MofGen! by Chris Wilmer'
_symmetry_space_group_name_H-M	'P1'
_symmetry_Int_Tables_number	1
_symmetry_cell_setting	triclinic
loop_
_symmetry_equiv_pos_as_xyz
  x,y,z
_cell_length_a	16.625548
_cell_length_b	12.594516
_cell_length_c	16.625539
_cell_angle_alpha	90.021462
_cell_angle_beta	90.017055
_cell_angle_gamma	90.017121
loop_
_atom_site_label
_atom_site_type_symbol
_atom_site_fract_x
_atom_site_fract_y
_atom_site_fract_z
Zn1	Zn	1.232688	-0.423729	0.455937
Zn2	Zn	1.482688	-0.173729	0.705937
Zn3	Zn	1.732688	0.076271	0.955937
Zn4	Zn	1.982688	0.326271	1.205937
Zn5	Zn	1.232615	-0.601725	0.321116
Zn6	Zn	1.482615	-0.351725	0.571116
Zn7	Zn	1.732615	-0.101725	0.821116
Zn8	Zn	1.982615	0.148275	1.071116
Zn9	Zn	1.097859	-0.423764	0.321118
Zn10	Zn	1.347859	-0.173764	0.571118
Zn11	Zn	1.597859	0.076236	0.821118
Zn12	Zn	1.847859	0.326236	1.071118
Zn13	Zn	1.097836	-0.601670	0.455906
Zn14	Zn	1.347836	-0.351670	0.705906
Zn15	Zn	1.597836	-0.101670	0.955906
Zn16	Zn	1.847836	0.148330	1.205906
O17	O	1.165249	-0.512722	0.388519
O18	O	1.415249	-0.262722	0.638519
O19	O	1.665249	-0.012722	0.888519
O20	O	1.915249	0.237278	1.138519
O21	O	1.345511	-0.447350	0.438065
O22	O	1.595511	-0.197350	0.688065
O23	O	1.845511	0.052650	0.938065
O24	O	2.095511	0.302650	1.188065
O25	O	1.214718	-0.578156	0.208284
O26	O	1.464718	-0.328156	0.458284
O27	O	1.714718	-0.078156	0.708284
O28	O	1.964718	0.171844	0.958284
O29	O	1.115784	-0.274814	0.339016
O30	O	1.365784	-0.024814	0.589016
O31	O	1.615784	0.225186	0.839016
O32	O	1.865784	0.475186	1.089016
O33	O	1.345457	-0.578122	0.339013
O34	O	1.595457	-0.328122	0.589013
O35	O	1.845457	-0.078122	0.839013
O36	O	2.095457	0.171878	1.089013
O37	O	1.214843	-0.274788	0.438067
O38	O	1.464843	-0.024788	0.688067
O39	O	1.714843	0.225212	0.938067
O40	O	1.964843	0.475212	1.188067
O41	O	1.115713	-0.447409	0.208285
O42	O	1.365713	-0.197409	0.458285
O43	O	1.615713	0.052591	0.708285
O44	O	1.865713	0.302591	0.958285
O45	O	0.985023	-0.447355	0.338985
O46	O	1.235023	-0.197355	0.588985
O47	O	1.485023	0.052645	0.838985
O48	O	1.735023	0.302645	1.088985
O49	O	1.115745	-0.578028	0.568743
O50	O	1.365745	-0.328028	0.818743
O51	O	1.615745	-0.078028	1.068743
O52	O	1.865745	0.171972	1.318743
O53	O	0.985006	-0.578062	0.438014
O54	O	1.235006	-0.328062	0.688014
O55	O	1.485006	-0.078062	0.938014
O56	O	1.735006	0.171938	1.188014
O57	O	1.214821	-0.447296	0.568766
O58	O	1.464821	-0.197296	0.818766
O59	O	1.714821	0.052704	1.068766
O60	O	1.964821	0.302704	1.318766
O61	O	1.214696	-0.750663	0.338983
O62	O	1.464696	-0.500663	0.588983
O63	O	1.714696	-0.250663	0.838983
O64	O	1.964696	-0.000663	1.088983
O65	O	1.115674	-0.750623	0.438012
O66	O	1.365674	-0.500623	0.688012
O67	O	1.615674	-0.250623	0.938012
O68	O	1.865674	-0.000623	1.188012
C69	C	0.955759	-0.512707	0.388497
C70	C	1.205759	-0.262707	0.638497
C71	C	1.455759	-0.012707	0.888497
C72	C	1.705759	0.237293	1.138497
C73	C	0.866137	-0.512726	0.388506
C74	C	1.116137	-0.262726	0.638506
C75	C	1.366137	-0.012726	0.888506
C76	C	1.616137	0.237274	1.138506
C77	C	0.537962	-0.512733	0.388541
C78	C	0.787962	-0.262733	0.638541
C79	C	1.037962	-0.012733	0.888541
C80	C	1.287962	0.237267	1.138541
C81	C	0.629270	-0.512728	0.388529
C82	C	0.879270	-0.262728	0.638529
C83	C	1.129270	-0.012728	0.888529
C84	C	1.379270	0.237272	1.138529
C85	C	0.702047	-0.512730	0.388523
C86	C	0.952047	-0.262730	0.638523
C87	C	1.202047	-0.012730	0.888523
C88	C	1.452047	0.237270	1.138523
C89	C	0.793361	-0.512724	0.388512
C90	C	1.043361	-0.262724	0.638512
C91	C	1.293361	-0.012724	0.888512
C92	C	1.543361	0.237276	1.138512
C93	C	1.165197	-0.789263	0.388511
C94	C	1.415197	-0.539263	0.638511
C95	C	1.665197	-0.289263	0.888511
C96	C	1.915197	-0.039263	1.138511
C97	C	1.165248	-0.907568	0.388535
C98	C	1.415248	-0.657568	0.638535
C99	C	1.665248	-0.407568	0.888535
C100	C	1.915248	-0.157568	1.138535
C101	C	1.111385	-0.976838	0.442359
C102	C	1.361385	-0.726838	0.692359
C103	C	1.611385	-0.476838	0.942359
C104	C	1.861385	-0.226838	1.192359
C105	C	1.091744	-1.047696	0.368785
C106	C	1.341744	-0.797696	0.618785
C107	C	1.591744	-0.547696	0.868785
C108	C	1.841744	-0.297696	1.118785
C109	C	1.184962	-1.047510	0.462122
C110	C	1.434962	-0.797510	0.712122
C111	C	1.684962	-0.547510	0.962122
C112	C	1.934962	-0.297510	1.212122
C113	C	1.145568	-0.976868	0.314921
C114	C	1.395568	-0.726868	0.564921
C115	C	1.645568	-0.476868	0.814921
C116	C	1.895568	-0.226868	1.064921
C117	C	1.238820	-0.976675	0.408308
C118	C	1.488820	-0.726675	0.658308
C119	C	1.738820	-0.476675	0.908308
C120	C	1.988820	-0.226675	1.158308
C121	C	1.219208	-1.047501	0.334683
C122	C	1.469208	-0.797501	0.584683
C123	C	1.719208	-0.547501	0.834683
C124	C	1.969208	-0.297501	1.084683
C125	C	1.375558	-0.512738	0.388542
C126	C	1.625558	-0.262738	0.638542
C127	C	1.875558	-0.012738	0.888542
C128	C	2.125558	0.237262	1.138542
C129	C	1.465179	-0.512745	0.388552
C130	C	1.715179	-0.262745	0.638552
C131	C	1.965179	-0.012745	0.888552
C132	C	2.215179	0.237255	1.138552
C133	C	1.165289	-0.512652	0.598828
C134	C	1.415289	-0.262652	0.848828
C135	C	1.665289	-0.012652	1.098828
C136	C	1.915289	0.237348	1.348828
C137	C	1.165306	-0.512622	0.688449
C138	C	1.415306	-0.262622	0.938449
C139	C	1.665306	-0.012622	1.188449
C140	C	1.915306	0.237378	1.438449
C141	C	1.165324	-0.235101	0.388545
C142	C	1.415324	0.014899	0.638545
C143	C	1.665324	0.264899	0.888545
C144	C	1.915324	0.514899	1.138545
C145	C	1.165356	-0.116796	0.388556
C146	C	1.415356	0.133204	0.638556
C147	C	1.665356	0.383204	0.888556
C148	C	1.915356	0.633204	1.138556
C149	C	1.165256	-0.512715	0.179028
C150	C	1.415256	-0.262715	0.429028
C151	C	1.665256	-0.012715	0.679028
C152	C	1.915256	0.237285	0.929028
C153	C	1.165396	-0.512445	0.089408
C154	C	1.415396	-0.262445	0.339408
C155	C	1.665396	-0.012445	0.589408
C156	C	1.915396	0.237555	0.839408
C157	C	1.165319	-0.512598	0.761232
C158	C	1.415319	-0.262598	1.011232
C159	C	1.665319	-0.012598	1.261232
C160	C	1.915319	0.237402	1.511232
C161	C	1.165338	-0.512559	0.852540
C162	C	1.415338	-0.262559	1.102540
C163	C	1.665338	-0.012559	1.352540
C164	C	1.915338	0.237441	1.602540
C165	C	1.165357	-0.512521	0.925317
C166	C	1.415357	-0.262521	1.175317
C167	C	1.665357	-0.012521	1.425317
C168	C	1.915357	0.237479	1.675317
C169	C	1.165377	-0.512483	1.016631
C170	C	1.415377	-0.262483	1.266631
C171	C	1.665377	-0.012483	1.516631
C172	C	1.915377	0.237517	1.766631
H173	H	1.065753	-0.945810	0.487811
H174	H	1.315753	-0.695810	0.737811
H175	H	1.565753	-0.445810	0.987811
H176	H	1.815753	-0.195810	1.237811
H177	H	1.128866	-0.945966	0.252681
H178	H	1.378866	-0.695966	0.502681
H179	H	1.628866	-0.445966	0.752681
H180	H	1.878866	-0.195966	1.002681
H181	H	1.201592	-1.078540	0.524346
H182	H	1.451592	-0.828540	0.774346
H183	H	1.701592	-0.578540	1.024346
H184	H	1.951592	-0.328540	1.274346
H185	H	1.300974	-0.945460	0.425051
H186	H	1.550974	-0.695460	0.675051
H187	H	1.800974	-0.445460	0.925051
H188	H	2.050974	-0.195460	1.175051
H189	H	1.029576	-1.078915	0.352077
H190	H	1.279576	-0.828915	0.602077
H191	H	1.529576	-0.578915	0.852077
H192	H	1.779576	-0.328915	1.102077
H193	H	1.264804	-1.078333	0.289122
H194	H	1.514804	-0.828333	0.539122
H195	H	1.764804	-0.578333	0.789122
H196	H	2.014804	-0.328333	1.039122
