data_functionalizedCrystal
_audit_creation_method	'MofGen! by Chris Wilmer'
_symmetry_space_group_name_H-M	'P1'
_symmetry_Int_Tables_number	1
_symmetry_cell_setting	triclinic
loop_
_symmetry_equiv_pos_as_xyz
  x,y,z
_cell_length_a	6.394989
_cell_length_b	14.971482
_cell_length_c	14.048226
_cell_angle_alpha	89.994098
_cell_angle_beta	90.003392
_cell_angle_gamma	94.944840
loop_
_atom_site_label
_atom_site_type_symbol
_atom_site_fract_x
_atom_site_fract_y
_atom_site_fract_z
O1	O	-0.272175	1.189893	-0.079142
O2	O	-0.304781	0.929845	-0.079146
O3	O	0.015577	1.063560	-0.079145
O4	O	-0.592533	1.056177	-0.079143
O5	O	0.015596	1.063543	0.079177
O6	O	-0.304762	0.929828	0.079175
O7	O	-0.272156	1.189876	0.079179
Zn8	Zn	-0.288456	1.059849	0.104314
Zn9	Zn	-0.288481	1.059871	-0.104281
O10	O	-0.592514	1.056161	0.079178
C11	C	-0.303315	0.896496	0.000014
C12	C	-0.298949	0.797151	0.000012
C13	C	-0.296883	0.750475	0.086314
C14	C	-0.292747	0.657132	0.086315
C15	C	-0.290694	0.610466	0.000014
C16	C	-0.292754	0.657149	-0.086295
C17	C	-0.296874	0.750491	-0.086295
C18	C	-0.284171	0.462594	-0.086289
C19	C	-0.280054	0.369245	-0.086289
C20	C	-0.280044	0.369235	0.086322
C21	C	-0.284165	0.462577	0.086322
C22	C	-0.286229	0.509253	0.000013
C23	C	0.093412	1.062092	0.000012
C24	C	0.329657	1.057631	0.000012
C25	C	-0.273622	1.223225	0.000017
C26	C	-0.277988	1.322569	0.000013
N27	N	-0.288438	1.059841	0.246675
N28	N	-0.288483	1.059887	-0.246642
C29	C	-0.146642	1.119069	0.296494
C30	C	-0.146641	1.119076	0.396151
C31	C	-0.288447	1.059856	0.445988
C32	C	-0.430250	1.000621	0.396163
C33	C	-0.430239	1.000611	0.296507
C34	C	-0.430265	1.000647	0.603877
C35	C	-0.430279	1.000658	0.703540
C36	C	-0.146666	1.119111	0.703521
C37	C	-0.146656	1.119101	0.603866
C38	C	-0.288462	1.059867	0.554047
H39	H	-0.285850	0.500570	0.156596
H40	H	-0.031203	1.167341	0.744090
H41	H	-0.291030	0.619134	0.156591
H42	H	-0.545704	0.952399	0.436746
N43	N	-0.583220	0.936759	0.550149
H44	H	-0.675831	0.971976	0.508788
H45	H	-0.503095	0.896265	0.508870
N46	N	0.006296	1.182948	0.242744
H47	H	0.096124	1.220468	0.289430
H48	H	0.098778	1.147663	0.201408
H49	H	-0.278364	0.331227	0.156598
N50	N	-0.583193	0.936783	0.757306
H51	H	-0.675817	0.972008	0.798639
H52	H	-0.672881	0.899261	0.710575
H53	H	-0.545701	0.952380	0.255946
H54	H	-0.285852	0.500595	-0.156571
H55	H	-0.278384	0.331252	-0.156564
H56	H	-0.298561	0.788493	-0.156571
N57	N	-0.299120	0.800804	0.179398
H58	H	-0.297180	0.757067	0.234070
H59	H	-0.171442	0.845330	0.183160
N60	N	-0.290520	0.606814	-0.179375
H61	H	-0.418199	0.562291	-0.183224
H62	H	-0.292370	0.650606	-0.233996
N63	N	0.006224	1.182989	0.449885
H64	H	0.096024	1.220517	0.403192
H65	H	-0.073990	1.223418	0.491202
H66	H	-0.031197	1.167326	0.563288
