data_functionalizedCrystal
_audit_creation_method	'MofGen! by Chris Wilmer'
_symmetry_space_group_name_H-M	'P1'
_symmetry_Int_Tables_number	1
_symmetry_cell_setting	triclinic
loop_
_symmetry_equiv_pos_as_xyz
  x,y,z
_cell_length_a	21.295417
_cell_length_b	12.827893
_cell_length_c	12.827885
_cell_angle_alpha	89.980728
_cell_angle_beta	89.961900
_cell_angle_gamma	90.030477
loop_
_atom_site_label
_atom_site_type_symbol
_atom_site_fract_x
_atom_site_fract_y
_atom_site_fract_z
Zn1	Zn	-0.250579	1.597560	-0.590788
Zn2	Zn	-0.355861	1.597408	-0.416023
Zn3	Zn	-0.250610	1.422801	-0.416062
Zn4	Zn	-0.355814	1.422740	-0.590723
O5	O	-0.303216	1.510127	-0.503399
O6	O	-0.264552	1.743776	-0.567616
O7	O	-0.341932	1.574208	-0.269792
O8	O	-0.162516	1.446072	-0.439283
O9	O	-0.341902	1.743664	-0.439217
O10	O	-0.162494	1.574467	-0.567654
O11	O	-0.264604	1.445925	-0.269821
O12	O	-0.264559	1.276557	-0.439220
O13	O	-0.341822	1.445969	-0.736968
O14	O	-0.341852	1.276512	-0.567543
O15	O	-0.264506	1.574408	-0.737016
O16	O	-0.443944	1.574149	-0.439154
O17	O	-0.443910	1.445821	-0.567505
C18	C	-0.303204	1.238617	-0.503379
C19	C	-0.303214	1.122464	-0.503396
C20	C	-0.341521	1.070685	-0.566796
C21	C	-0.341532	0.950635	-0.566814
C22	C	-0.466768	1.509990	-0.503341
C23	C	-0.536736	1.510027	-0.503351
C24	C	-0.569600	1.576907	-0.436587
C25	C	-0.635342	1.576956	-0.436611
C26	C	-0.668218	1.510107	-0.503387
C27	C	-0.635347	1.443222	-0.570165
C28	C	-0.569606	1.443183	-0.570147
N29	N	-0.771484	1.418690	-0.511347
N30	N	-0.833935	1.418731	-0.511358
C31	C	-0.866293	1.510224	-0.503447
N32	N	-0.833840	1.601676	-0.495504
N33	N	-0.771383	1.601635	-0.495488
C34	C	-0.739504	1.510143	-0.503415
C35	C	-0.970442	1.577162	-0.436705
C36	C	-1.036186	1.577213	-0.436736
C37	C	-1.036189	1.443470	-0.570284
C38	C	-0.970447	1.443429	-0.570259
C39	C	-0.937577	1.510273	-0.503464
C40	C	-0.139026	1.510293	-0.503480
C41	C	-0.069058	1.510364	-0.503515
C42	C	-0.303156	1.510198	-0.775969
C43	C	-0.303130	1.510229	-0.892123
C44	C	-0.303229	1.782697	-0.503420
C45	C	-0.303234	1.898851	-0.503428
C46	C	-0.264864	1.573791	-0.943931
C47	C	-0.264837	1.573824	-1.063982
C48	C	-0.303231	1.510117	-0.231889
C49	C	-0.303079	1.510289	-0.115737
H50	H	-0.374330	0.906106	-0.621090
H51	H	-0.374306	1.115232	-0.621065
H52	H	-0.542839	1.631338	-0.382202
H53	H	-0.662119	1.388795	-0.624536
H54	H	-0.270439	0.943373	-0.449143
H55	H	-0.270424	1.077918	-0.449134
H56	H	-0.232078	1.628246	-1.108535
H57	H	-0.662105	1.631421	-0.382244
H58	H	-1.062942	1.631680	-0.382371
H59	H	-0.943679	1.631594	-0.382320
H60	H	-0.335844	1.455871	-1.071189
H61	H	-0.335866	1.455828	-0.936644
H62	H	-0.542847	1.388721	-0.624515
H63	H	-1.062957	1.389045	-0.624660
H64	H	-0.943688	1.388965	-0.624620
H65	H	-0.232122	1.628182	-0.899409
