data_functionalizedCrystal
_audit_creation_method	'MofGen! by Chris Wilmer'
_symmetry_space_group_name_H-M	'P1'
_symmetry_Int_Tables_number	1
_symmetry_cell_setting	triclinic
loop_
_symmetry_equiv_pos_as_xyz
  x,y,z
_cell_length_a	25.639234
_cell_length_b	21.395362
_cell_length_c	21.395361
_cell_angle_alpha	90.046585
_cell_angle_beta	90.023281
_cell_angle_gamma	90.030391
loop_
_atom_site_label
_atom_site_type_symbol
_atom_site_fract_x
_atom_site_fract_y
_atom_site_fract_z
Zn1	Zn	-0.295883	-0.957776	0.249235
Zn2	Zn	-0.208444	-0.957703	0.353998
Zn3	Zn	-0.208431	-0.853015	0.249267
Zn4	Zn	-0.295817	-0.852960	0.354007
O5	O	-0.252144	-0.905363	0.301627
O6	O	-0.284317	-1.045444	0.263114
O7	O	-0.135277	-0.943809	0.340114
O8	O	-0.220053	-0.866966	0.161585
O9	O	-0.220075	-1.045390	0.340083
O10	O	-0.284304	-0.943933	0.161561
O11	O	-0.135267	-0.866895	0.263169
O12	O	-0.219990	-0.765330	0.263179
O13	O	-0.368991	-0.866871	0.340100
O14	O	-0.284192	-0.765289	0.340131
O15	O	-0.369039	-0.943879	0.263124
O16	O	-0.220012	-0.943755	0.441677
O17	O	-0.284205	-0.866800	0.441684
C18	C	-0.252083	-0.742576	0.301660
C19	C	-0.252069	-0.672934	0.301689
C20	C	-0.252114	-0.905281	0.464414
C21	C	-0.252119	-0.905303	0.534056
C22	C	-0.388517	-0.905377	0.301609
C23	C	-0.446631	-0.905383	0.301601
C24	C	-0.697794	-0.865326	0.341604
C25	C	-0.643189	-0.865315	0.341618
O26	O	-0.614926	-0.831198	0.375692
N27	N	-0.615905	-0.905406	0.301551
C28	C	-0.643227	-0.945506	0.261462
O29	O	-0.615006	-0.979606	0.227383
C30	C	-0.697831	-0.945514	0.261445
C31	C	-0.725112	-0.905425	0.301520
C32	C	-0.725075	-0.825240	0.381675
C33	C	-0.779676	-0.825252	0.381661
C34	C	-0.806995	-0.865350	0.341577
C35	C	-0.779713	-0.905437	0.301506
C36	C	-0.725152	-0.985610	0.221354
C37	C	-0.779759	-0.985614	0.221340
C38	C	-0.807041	-0.945525	0.261415
C39	C	-0.861632	-0.945547	0.261409
N40	N	-0.888917	-0.905456	0.301476
C41	C	-0.861598	-0.865358	0.341560
C42	C	-0.528557	-0.945487	0.261500
C43	C	-0.473954	-0.945483	0.261519
C44	C	-0.473920	-0.865291	0.341675
C45	C	-0.528523	-0.865299	0.341658
C46	C	-0.555841	-0.905396	0.301567
C47	C	-0.976263	-0.865386	0.341530
C48	C	-1.030869	-0.865404	0.341514
C49	C	-1.030898	-0.945593	0.261357
C50	C	-0.976297	-0.945578	0.261374
C51	C	-0.948981	-0.905470	0.301463
O52	O	-0.889930	-0.979645	0.227350
O53	O	-0.889826	-0.831258	0.375628
C54	C	-0.116301	-0.905386	0.301599
C55	C	-0.058187	-0.905502	0.301430
C56	C	-0.252205	-1.068787	0.301594
C57	C	-0.252231	-1.138428	0.301580
C58	C	-0.285450	-0.640217	0.341811
C59	C	-0.285473	-0.574781	0.341796
C60	C	-0.252107	-0.542066	0.301665
C61	C	-0.218724	-0.574792	0.261535
C62	C	-0.218705	-0.640226	0.261547
C63	C	-0.205038	-0.438355	0.296619
C64	C	-0.205056	-0.372922	0.296612
C65	C	-0.252164	-0.340246	0.301624
C66	C	-0.299257	-0.373010	0.306657
C67	C	-0.299238	-0.438444	0.306670
C68	C	-0.252123	-0.471114	0.301647
C69	C	-0.285573	-0.236575	0.341732
C70	C	-0.285597	-0.171138	0.341712
C71	C	-0.218843	-0.171151	0.261454
C72	C	-0.218824	-0.236586	0.261471
C73	C	-0.252188	-0.269294	0.301613
C74	C	-0.252184	-0.905464	0.138203
C75	C	-0.252202	-0.905506	0.068562
C76	C	-0.218728	-0.945408	0.566744
C77	C	-0.218740	-0.945437	0.632180
C78	C	-0.252137	-0.905350	0.664924
C79	C	-0.285535	-0.865241	0.632227
C80	C	-0.285526	-0.865218	0.566793
C81	C	-0.256219	-0.848934	0.768655
C82	C	-0.256224	-0.848956	0.834088
C83	C	-0.252168	-0.905423	0.866745
C84	C	-0.248096	-0.961868	0.833961
C85	C	-0.248087	-0.961845	0.768527
C86	C	-0.252151	-0.905371	0.735876
C87	C	-0.218788	-0.945563	0.970386
C88	C	-0.218803	-0.945593	1.035822
C89	C	-0.285595	-0.865392	1.035869
C90	C	-0.285583	-0.865367	0.970434
C91	C	-0.252176	-0.905452	0.937696
H92	H	-1.053079	-0.832758	0.374150
O93	O	-0.949673	-0.826518	0.380504
C94	C	-0.888040	-0.818035	0.465148
C95	C	-0.918112	-0.862116	0.421035
H96	H	-0.862524	-0.846799	0.497937
H97	H	-0.862434	-0.785291	0.436436
H98	H	-0.916933	-0.789375	0.493756
H99	H	-0.889257	-0.890817	0.392417
H100	H	-0.943726	-0.894818	0.449782
O101	O	-0.318114	-0.826517	1.067640
C102	C	-0.407021	-0.796008	1.087601
C103	C	-0.370250	-0.840081	1.051590
H104	H	-0.449180	-0.806950	1.074629
H105	H	-0.401340	-0.802916	1.139992
H106	H	-0.397757	-0.745494	1.074809
H107	H	-0.379491	-0.890612	1.064330
H108	H	-0.375938	-0.833119	0.999208
O109	O	-0.345031	-0.341310	0.311628
C110	C	-0.421578	-0.321341	0.373812
C111	C	-0.369747	-0.357269	0.368273
H112	H	-0.441581	-0.334240	0.419600
H113	H	-0.413538	-0.268937	0.372975
H114	H	-0.448003	-0.334281	0.332931
H115	H	-0.343296	-0.344382	0.409144
H116	H	-0.377825	-0.409664	0.369081
H117	H	-0.702838	-0.792583	0.414316
O118	O	-0.260089	-0.794136	0.865961
C119	C	-0.220067	-0.723991	0.939981
C120	C	-0.215615	-0.786083	0.903913
H121	H	-0.184120	-0.717467	0.970684
H122	H	-0.222941	-0.683600	0.905433
H123	H	-0.256459	-0.724961	0.970562
H124	H	-0.179225	-0.785175	0.873332
H125	H	-0.212770	-0.826448	0.938495
O126	O	-0.159224	-0.469996	0.291780
C127	C	-0.065793	-0.463003	0.281799
C128	C	-0.117635	-0.427092	0.287287
H129	H	-0.032156	-0.428331	0.278152
H130	H	-0.060167	-0.493567	0.324897
H131	H	-0.066682	-0.493703	0.238236
H132	H	-0.116783	-0.396358	0.330825
H133	H	-0.123241	-0.396567	0.244158
H134	H	-0.312657	-0.548137	0.374468
H135	H	-0.191678	-0.144515	0.228776
H136	H	-0.451746	-0.978135	0.228893
H137	H	-0.312728	-0.832603	0.658892
H138	H	-0.550795	-0.978144	0.228854
O139	O	-0.698740	-1.024570	0.182363
C140	C	-0.704561	-1.104123	0.102873
C141	C	-0.734536	-1.060021	0.146993
H142	H	-0.733489	-1.132806	0.074274
H143	H	-0.679009	-1.075402	0.070081
H144	H	-0.678988	-1.136843	0.131639
H145	H	-0.760137	-1.027292	0.118277
H146	H	-0.760055	-1.088781	0.179787
H147	H	-0.801884	-0.792606	0.414293
H148	H	-0.550732	-0.832654	0.374289
O149	O	-0.317979	-0.826196	0.535133
C150	C	-0.384252	-0.746681	0.542085
C151	C	-0.347518	-0.790831	0.578018
H152	H	-0.408153	-0.718087	0.576741
H153	H	-0.360234	-0.713886	0.511524
H154	H	-0.411592	-0.775423	0.511378
H155	H	-0.320171	-0.762140	0.608759
H156	H	-0.371569	-0.823628	0.608539
H157	H	-0.337582	-0.465119	0.310766
H158	H	-0.191558	-0.548151	0.228859
H159	H	-0.451667	-0.832640	0.374312
O160	O	-0.806318	-1.024478	0.182329
C161	C	-0.868002	-1.032973	0.097741
C162	C	-0.837950	-0.988888	0.141869
H163	H	-0.893592	-1.004217	0.065026
H164	H	-0.839144	-1.061609	0.069059
H165	H	-0.893548	-1.065737	0.126503
H166	H	-0.812403	-0.956086	0.113155
H167	H	-0.866837	-0.960296	0.170553
O168	O	-0.186250	-0.672081	0.222661
C169	C	-0.115629	-0.745862	0.214131
C170	C	-0.152361	-0.709835	0.258238
H171	H	-0.088214	-0.776385	0.242878
H172	H	-0.139645	-0.776599	0.181429
H173	H	-0.091809	-0.711231	0.185429
H174	H	-0.176189	-0.744421	0.286981
H175	H	-0.128315	-0.679088	0.290899
O176	O	-0.186345	-0.268275	0.222480
C177	C	-0.120161	-0.261380	0.142848
C178	C	-0.156908	-0.225415	0.186988
H179	H	-0.096359	-0.226743	0.114132
H180	H	-0.092734	-0.291940	0.171542
H181	H	-0.144216	-0.292089	0.110161
H182	H	-0.132895	-0.194671	0.219683
H183	H	-0.184336	-0.194894	0.158255
O184	O	-0.159316	-0.341073	0.291841
C185	C	-0.100675	-0.267072	0.339633
C186	C	-0.152484	-0.303108	0.345119
H187	H	-0.095140	-0.236358	0.382696
H188	H	-0.066981	-0.301640	0.336085
H189	H	-0.101565	-0.236504	0.296027
H190	H	-0.151645	-0.333676	0.388723
H191	H	-0.186155	-0.268505	0.348632
O192	O	-0.186267	-0.984411	0.535041
C193	C	-0.120001	-1.063937	0.541903
C194	C	-0.156743	-1.019807	0.577887
H195	H	-0.096113	-1.092556	0.576528
H196	H	-0.144012	-1.096709	0.511234
H197	H	-0.092650	-1.035177	0.511301
H198	H	-0.184101	-1.048516	0.608523
H199	H	-0.132699	-0.987033	0.608516
H200	H	-0.954084	-0.978227	0.228747
O201	O	-0.318071	-0.826492	0.938649
C202	C	-0.388620	-0.817969	0.864705
C203	C	-0.351865	-0.862067	0.900672
H204	H	-0.415945	-0.846713	0.833982
H205	H	-0.412531	-0.789332	0.899319
H206	H	-0.364565	-0.785205	0.834154
H207	H	-0.375880	-0.894869	0.931224
H208	H	-0.327953	-0.890660	0.866024
H209	H	-0.244773	-1.007804	0.741835
O210	O	-1.057360	-0.984600	0.222399
C211	C	-1.051647	-1.064099	0.142857
C212	C	-1.021612	-1.019972	0.186961
H213	H	-1.022758	-1.092700	0.114185
H214	H	-1.077205	-1.096890	0.171577
H215	H	-1.077219	-1.035339	0.110128
H216	H	-0.996012	-1.048682	0.219699
H217	H	-0.996088	-0.987180	0.158202
O218	O	-0.317938	-0.671958	0.380733
C219	C	-0.406822	-0.692002	0.411331
C220	C	-0.370087	-0.656026	0.367205
H221	H	-0.448992	-0.679124	0.400418
H222	H	-0.401124	-0.744399	0.404448
H223	H	-0.397538	-0.679083	0.461830
H224	H	-0.379349	-0.668893	0.316689
H225	H	-0.375792	-0.603639	0.374141
H226	H	-0.312742	-0.263208	0.374415
O227	O	-0.186264	-0.984301	0.664004
C228	C	-0.115653	-0.992775	0.737870
C229	C	-0.152415	-0.948698	0.701886
H230	H	-0.088270	-0.964007	0.768496
H231	H	-0.139649	-1.025527	0.768501
H232	H	-0.091801	-1.021425	0.703211
H233	H	-0.176275	-0.920007	0.736500
H234	H	-0.128389	-0.915987	0.671245
H235	H	-0.312782	-0.144501	0.374383
H236	H	-0.244793	-1.007849	0.860549
O237	O	-0.186324	-0.984561	0.938677
C238	C	-0.120053	-1.064081	0.945535
C239	C	-0.156801	-1.019960	0.981521
H240	H	-0.096165	-1.092703	0.980159
H241	H	-0.144059	-1.096851	0.914858
H242	H	-0.092701	-1.035314	0.914940
H243	H	-0.184159	-1.048677	1.012149
H244	H	-0.132762	-0.987188	1.012158
O245	O	-0.186464	-0.984673	1.067578
C246	C	-0.179604	-1.069363	1.141295
C247	C	-0.216273	-1.025121	1.105378
H248	H	-0.203689	-1.102068	1.171875
H249	H	-0.155767	-1.098049	1.106649
H250	H	-0.152201	-1.040689	1.171985
H251	H	-0.243706	-1.053747	1.074687
H252	H	-0.240073	-0.996433	1.140058
H253	H	-0.259524	-0.802949	0.742072
