data_functionalizedCrystal
_audit_creation_method	'MofGen! by Chris Wilmer'
_symmetry_space_group_name_H-M	'P1'
_symmetry_Int_Tables_number	1
_symmetry_cell_setting	triclinic
loop_
_symmetry_equiv_pos_as_xyz
  x,y,z
_cell_length_a	8.497365
_cell_length_b	11.169416
_cell_length_c	11.169417
_cell_angle_alpha	89.988973
_cell_angle_beta	90.031044
_cell_angle_gamma	89.951407
loop_
_atom_site_label
_atom_site_type_symbol
_atom_site_fract_x
_atom_site_fract_y
_atom_site_fract_z
Zn1	Zn	-0.891925	-0.477478	-1.835097
Zn2	Zn	-0.391925	0.022522	-1.335097
Zn3	Zn	-0.628141	-0.678279	-1.834948
Zn4	Zn	-0.128141	-0.178279	-1.334948
Zn5	Zn	-0.628159	-0.477611	-1.634343
Zn6	Zn	-0.128159	0.022389	-1.134343
Zn7	Zn	-0.891879	-0.678121	-1.634391
Zn8	Zn	-0.391879	-0.178121	-1.134391
O9	O	-0.760026	-0.577872	-1.734695
O10	O	-0.260026	-0.077872	-1.234695
O11	O	-0.856945	-0.504125	-2.003027
O12	O	-0.356945	-0.004125	-1.503027
O13	O	-0.407380	-0.651782	-1.808255
O14	O	0.092620	-0.151782	-1.308255
O15	O	-0.663175	-0.309644	-1.661016
O16	O	-0.163175	0.190356	-1.161016
O17	O	-0.663144	-0.651652	-2.002917
O18	O	-0.163144	-0.151652	-1.502917
O19	O	-0.856963	-0.309546	-1.808509
O20	O	-0.356963	0.190454	-1.308509
O21	O	-0.407394	-0.504352	-1.660872
O22	O	0.092606	-0.004352	-1.160872
O23	O	-0.663131	-0.504199	-1.466400
O24	O	-0.163131	-0.004199	-0.966400
O25	O	-1.112648	-0.651383	-1.661097
O26	O	-0.612648	-0.151383	-1.161097
O27	O	-0.856885	-0.651512	-1.466435
O28	O	-0.356885	-0.151512	-0.966435
O29	O	-1.112682	-0.503971	-1.808555
O30	O	-0.612682	-0.003971	-1.308555
O31	O	-0.663099	-0.846207	-1.808301
O32	O	-0.163099	-0.346207	-1.308301
O33	O	-0.856867	-0.846091	-1.660953
O34	O	-0.356867	-0.346091	-1.160953
C35	C	-0.760011	-0.889697	-1.734648
C36	C	-0.260011	-0.389697	-1.234648
C37	C	-0.760057	-1.023097	-1.734738
C38	C	-0.260057	-0.523097	-1.234738
C39	C	-0.760006	-0.577854	-1.422870
C40	C	-0.260006	-0.077854	-0.922870
C41	C	-0.760035	-0.577875	-1.289470
C42	C	-0.260035	-0.077875	-0.789470
C43	C	-0.350146	-0.578003	-1.734608
C44	C	0.149854	-0.078003	-1.234608
C45	C	-0.171503	-0.577757	-1.734779
C46	C	0.328497	-0.077757	-1.234779
C47	C	-0.760047	-0.577891	-2.047737
C48	C	-0.260047	-0.077891	-1.547737
C49	C	-0.760056	-0.577899	-2.181137
C50	C	-0.260056	-0.077899	-1.681137
C51	C	-0.760076	-0.264830	-1.734774
C52	C	-0.260076	0.235170	-1.234774
C53	C	-0.760098	-0.131430	-1.734808
C54	C	-0.260098	0.368570	-1.234808
