data_functionalizedCrystal
_audit_creation_method	'MofGen! by Chris Wilmer'
_symmetry_space_group_name_H-M	'P1'
_symmetry_Int_Tables_number	1
_symmetry_cell_setting	triclinic
loop_
_symmetry_equiv_pos_as_xyz
  x,y,z
_cell_length_a	16.625548
_cell_length_b	21.295417
_cell_length_c	16.625539
_cell_angle_alpha	90.032326
_cell_angle_beta	90.020568
_cell_angle_gamma	90.030770
loop_
_atom_site_label
_atom_site_type_symbol
_atom_site_fract_x
_atom_site_fract_y
_atom_site_fract_z
Zn1	Zn	1.232640	-0.250590	0.455887
Zn2	Zn	1.732640	0.249410	0.955887
Zn3	Zn	1.232526	-0.355864	0.321045
Zn4	Zn	1.732526	0.144136	0.821045
Zn5	Zn	1.097802	-0.250614	0.321067
Zn6	Zn	1.597802	0.249386	0.821067
Zn7	Zn	1.097755	-0.355827	0.455834
Zn8	Zn	1.597755	0.144173	0.955834
O9	O	1.165181	-0.303224	0.388458
O10	O	1.665181	0.196776	0.888458
O11	O	1.345457	-0.264560	0.438012
O12	O	1.845457	0.235440	0.938012
O13	O	1.214627	-0.341927	0.208215
O14	O	1.714627	0.158073	0.708215
O15	O	1.115755	-0.162522	0.338983
O16	O	1.615755	0.337478	0.838983
O17	O	1.345374	-0.341904	0.338944
O18	O	1.845374	0.158096	0.838944
O19	O	1.214820	-0.162504	0.438034
O20	O	1.714820	0.337496	0.938034
O21	O	1.115645	-0.264601	0.208232
O22	O	1.615645	0.235399	0.708232
O23	O	0.984963	-0.264566	0.338932
O24	O	1.484963	0.235434	0.838932
O25	O	1.115676	-0.341842	0.568674
O26	O	1.615676	0.158158	1.068674
O27	O	0.984929	-0.341866	0.437945
O28	O	1.484929	0.158134	0.937945
O29	O	1.214775	-0.264525	0.568712
O30	O	1.714775	0.235475	1.068712
O31	O	1.214581	-0.443948	0.338893
O32	O	1.714581	0.056052	0.838893
O33	O	1.115566	-0.443922	0.437923
O34	O	1.615566	0.056078	0.937923
C35	C	0.955690	-0.303215	0.388436
C36	C	1.455690	0.196785	0.888436
C37	C	0.866069	-0.303226	0.388445
C38	C	1.366069	0.196774	0.888445
C39	C	0.537893	-0.303230	0.388480
C40	C	1.037893	0.196770	0.888480
C41	C	0.629202	-0.303227	0.388468
C42	C	1.129202	0.196773	0.888468
C43	C	0.701978	-0.303229	0.388462
C44	C	1.201978	0.196771	0.888462
C45	C	0.793292	-0.303225	0.388451
C46	C	1.293292	0.196775	0.888451
C47	C	1.165078	-0.466775	0.388417
C48	C	1.665078	0.033225	0.888417
C49	C	1.165108	-0.536744	0.388427
C50	C	1.665108	-0.036744	0.888427
C51	C	1.216661	-0.569544	0.440040
C52	C	1.716661	-0.069544	0.940040
C53	C	1.216690	-0.635286	0.440060
C54	C	1.716690	-0.135286	0.940060
C55	C	1.165173	-0.668226	0.388452
C56	C	1.665173	-0.168226	0.888452
C57	C	1.113609	-0.635418	0.336836
C58	C	1.613609	-0.135418	0.836836
C59	C	1.113577	-0.569677	0.336823
C60	C	1.613577	-0.069677	0.836823
N61	N	1.159082	-0.771490	0.317887
N62	N	1.659082	-0.271490	0.817887
N63	N	1.159117	-0.833941	0.317901
N64	N	1.659117	-0.333941	0.817901
C65	C	1.165267	-0.866301	0.388489
C66	C	1.665267	-0.366301	0.888489
N67	N	1.171396	-0.833850	0.459063
N68	N	1.671396	-0.333850	0.959063
N69	N	1.171364	-0.771392	0.459047
N70	N	1.671364	-0.271392	0.959047
C71	C	1.165203	-0.739511	0.388461
C72	C	1.665203	-0.239511	0.888461
C73	C	1.216855	-0.970387	0.440128
C74	C	1.716855	-0.470387	0.940128
C75	C	1.216877	-1.036130	0.440149
C76	C	1.716877	-0.536130	0.940149
C77	C	1.113801	-1.036260	0.336918
C78	C	1.613801	-0.536260	0.836918
C79	C	1.113774	-0.970518	0.336904
C80	C	1.613774	-0.470518	0.836904
C81	C	1.165305	-0.937585	0.388508
C82	C	1.665305	-0.437585	0.888508
C83	C	1.375490	-0.303233	0.388481
C84	C	1.875490	0.196767	0.888481
C85	C	1.465111	-0.303237	0.388491
C86	C	1.965111	0.196763	0.888491
C87	C	1.165233	-0.303177	0.598767
C88	C	1.665233	0.196823	1.098767
C89	C	1.165256	-0.303157	0.688388
C90	C	1.665256	0.196843	1.188388
C91	C	1.165306	-0.139033	0.388517
C92	C	1.665306	0.360967	0.888517
C93	C	1.165359	-0.069065	0.388542
C94	C	1.665359	0.430935	0.888542
C95	C	1.165175	-0.303225	0.178967
C96	C	1.665175	0.196775	0.678967
C97	C	1.165309	-0.303068	0.089347
C98	C	1.665309	0.196932	0.589347
C99	C	1.165293	-0.303086	1.016564
C100	C	1.665293	0.196914	1.516564
C101	C	1.165280	-0.303108	0.925256
C102	C	1.665280	0.196892	1.425256
C103	C	1.165275	-0.303122	0.852479
C104	C	1.665275	0.196878	1.352479
C105	C	1.165261	-0.303143	0.761165
C106	C	1.665261	0.196857	1.261165
H107	H	1.258664	-0.661998	0.482098
H108	H	1.758664	-0.161998	0.982098
N109	N	1.060910	-0.536161	0.284110
N110	N	1.560910	-0.036161	0.784110
N111	N	1.009500	-0.499498	0.312431
N112	N	1.509500	0.000502	0.812431
H113	H	0.972301	-0.475827	0.275203
H114	H	1.472301	0.024173	0.775203
N115	N	1.060986	-0.669071	0.284130
N116	N	1.560986	-0.169071	0.784130
N117	N	1.061022	-0.727768	0.284148
N118	N	1.561022	-0.227768	0.784148
H119	H	1.023852	-0.751537	0.246926
H120	H	1.523852	-0.251537	0.746926
H121	H	1.258812	-0.943571	0.482149
H122	H	1.758812	-0.443571	0.982149
N123	N	1.269330	-0.535911	0.492724
N124	N	1.769330	-0.035911	0.992724
N125	N	1.320714	-0.499226	0.464364
N126	N	1.820714	0.000774	0.964364
H127	H	1.357926	-0.475477	0.501565
H128	H	1.857926	0.024523	1.001565
H129	H	1.071850	-1.063079	0.294903
H130	H	1.571850	-0.563079	0.794903
H131	H	1.258858	-1.062835	0.482182
H132	H	1.758858	-0.562835	0.982182
H133	H	1.071798	-0.943810	0.294872
H134	H	1.571798	-0.443810	0.794872
