data_functionalizedCrystal
_audit_creation_method	'MofGen! by Chris Wilmer'
_symmetry_space_group_name_H-M	'P1'
_symmetry_Int_Tables_number	1
_symmetry_cell_setting	triclinic
loop_
_symmetry_equiv_pos_as_xyz
  x,y,z
_cell_length_a	14.853568
_cell_length_b	15.500227
_cell_length_c	14.853568
_cell_angle_alpha	92.836706
_cell_angle_beta	83.635187
_cell_angle_gamma	87.154330
loop_
_atom_site_label
_atom_site_type_symbol
_atom_site_fract_x
_atom_site_fract_y
_atom_site_fract_z
O1	O	-1.200549	0.071879	-0.113531
O2	O	-0.938091	0.071892	-0.127551
O3	O	-1.076331	0.071889	0.010689
O4	O	-1.062309	0.071881	-0.251771
O5	O	-1.067942	-0.071999	0.002334
O6	O	-0.929702	-0.071997	-0.135906
O7	O	-1.192160	-0.072010	-0.121886
Cu8	Cu	-1.060165	-0.085141	-0.129659
Cu9	Cu	-1.070086	0.085024	-0.119778
O10	O	-1.053921	-0.072007	-0.260126
C11	C	-0.900308	-0.000051	-0.131093
C12	C	-0.800224	-0.000045	-0.129189
N13	N	-1.053194	-0.204826	-0.136609
C14	C	-0.387689	-0.000063	-0.039023
C15	C	-0.366409	-0.000067	-0.203256
C16	C	-0.460442	-0.000064	-0.205046
C17	C	-0.518104	-0.000059	-0.123823
C18	C	-0.481732	-0.000057	-0.040811
C19	C	-0.496822	-0.000057	-0.288057
C20	C	-0.590861	-0.000053	-0.289851
C21	C	-0.648525	-0.000055	-0.208627
C22	C	-0.612147	-0.000054	-0.125611
C23	C	-0.669809	-0.000049	-0.044388
C24	C	-0.633433	-0.000054	0.038628
C25	C	-0.539396	-0.000059	0.040413
C26	C	-0.742562	-0.000050	-0.210411
C27	C	-0.763852	-0.000043	-0.046176
C28	C	-1.111792	-0.250104	-0.078054
C29	C	-1.106528	-0.340677	-0.083318
C30	C	-1.042670	-0.385970	-0.147143
C31	C	-0.984066	-0.340686	-0.205701
C32	C	-0.989327	-0.250115	-0.200431
C33	C	-1.023721	-0.659437	-0.166110
C34	C	-1.018467	-0.750014	-0.171376
C35	C	-1.140928	-0.749998	-0.048992
C36	C	-1.146186	-0.659426	-0.043732
C37	C	-1.087579	-0.614149	-0.102287
C38	C	-1.037290	-0.478550	-0.152527
C39	C	-1.092955	-0.521571	-0.096897
C40	C	-0.229944	-0.000066	-0.118343
C41	C	-0.330027	-0.000068	-0.120246
C42	C	-1.071501	-0.000052	0.040100
C43	C	-1.069597	-0.000043	0.140184
N44	N	-1.077064	0.204708	-0.112821
C45	C	-0.979430	-0.000049	0.552718
C46	C	-1.143663	-0.000057	0.573998
C47	C	-1.145453	-0.000054	0.479965
C48	C	-1.064231	-0.000049	0.422303
C49	C	-0.981218	-0.000048	0.458675
C50	C	-1.228464	-0.000063	0.443585
C51	C	-1.230258	-0.000060	0.349546
C52	C	-1.149035	-0.000050	0.291883
C53	C	-1.066019	-0.000048	0.328261
C54	C	-0.984797	-0.000043	0.270599
C55	C	-0.901780	-0.000035	0.306975
C56	C	-0.899996	-0.000038	0.401012
C57	C	-1.150820	-0.000048	0.197846
C58	C	-0.986585	-0.000042	0.176557
C59	C	-1.058750	-0.000061	0.710463
C60	C	-1.060653	-0.000054	0.610379
H61	H	-0.810795	-0.000043	0.019967
O62	O	-0.968427	-0.527405	-0.221377
H63	H	-0.922174	-0.568686	-0.185748
O64	O	-0.434637	-0.000056	-0.375659
H65	H	-0.444180	-0.058696	-0.418790
O66	O	-0.960515	-0.610612	-0.229270
H67	H	-1.000913	-0.569333	-0.270752
O68	O	-1.316061	-0.000082	0.505775
H69	H	-1.322603	0.058566	0.552533
H70	H	-0.620470	-0.000049	-0.357448
H71	H	-0.966463	-0.786888	-0.223354
O72	O	-0.348457	-0.000073	0.050511
H73	H	-0.404354	-0.000075	0.106686
H74	H	-0.835649	-0.000038	0.260015
H75	H	-1.297855	-0.000066	0.319937
O76	O	-1.180664	-0.201252	-0.009210
H77	H	-1.220518	-0.247957	0.030629
H78	H	-1.209790	-0.000068	0.620951
H79	H	-0.932067	-0.377569	-0.257665
H80	H	-0.772175	-0.000047	-0.278002
H81	H	-1.154242	-0.377541	-0.035637
H82	H	-1.198184	-0.622549	0.008239
H83	H	-0.941609	-0.213251	-0.248112
O84	O	-1.161810	-0.472716	-0.028045
H85	H	-1.208067	-0.431435	-0.063670
O86	O	-1.204130	-0.798829	0.014170
H87	H	-1.189742	-0.869418	-0.000208
O88	O	-0.898979	-0.000045	0.114364
H89	H	-0.840958	-0.000048	0.155459
O90	O	-1.240346	-0.000050	0.158607
H91	H	-1.296524	-0.000051	0.214501
O92	O	-0.810464	-0.000048	0.440250
H93	H	-0.809139	0.058589	0.486006
O94	O	-0.695627	-0.000055	0.126233
H95	H	-0.767126	-0.000054	0.111036
O96	O	-0.500163	-0.000064	0.129946
H97	H	-0.461249	0.058585	0.138098
H98	H	-0.911841	-0.000040	0.582340
O99	O	-0.304223	-0.000081	-0.290859
H100	H	-0.232721	-0.000092	-0.275670
