data_functionalizedCrystal
_audit_creation_method	'MofGen! by Chris Wilmer'
_symmetry_space_group_name_H-M	'P1'
_symmetry_Int_Tables_number	1
_symmetry_cell_setting	triclinic
loop_
_symmetry_equiv_pos_as_xyz
  x,y,z
_cell_length_a	10.540539
_cell_length_b	19.188930
_cell_length_c	9.016244
_cell_angle_alpha	89.992636
_cell_angle_beta	89.994699
_cell_angle_gamma	83.835137
loop_
_atom_site_label
_atom_site_type_symbol
_atom_site_fract_x
_atom_site_fract_y
_atom_site_fract_z
O1	O	1.683725	0.098388	-0.123289
O2	O	1.314108	0.107659	-0.123309
O3	O	1.509583	0.001439	-0.123270
O4	O	1.488250	0.204608	-0.123329
O5	O	1.509554	0.001441	0.123411
O6	O	1.314079	0.107661	0.123372
O7	O	1.683697	0.098391	0.123392
Cu8	Cu	1.498885	0.103026	0.145905
Cu9	Cu	1.498919	0.103023	-0.145823
O10	O	1.488222	0.204611	0.123352
C11	C	1.266806	0.106965	0.000029
C12	C	1.125904	0.104885	0.000023
C13	C	0.944233	0.025184	0.000622
C14	C	1.090805	0.027292	0.000050
C15	C	1.063424	0.142224	-0.140849
C16	C	0.916938	0.139576	-0.140951
C17	C	0.916383	0.141157	0.139570
C18	C	1.063349	0.141872	0.141417
C19	C	1.508878	-0.024575	0.000075
C20	C	1.506804	-0.102094	0.000088
C21	C	1.621502	-0.146253	0.000101
C22	C	1.619554	-0.219090	0.000077
C23	C	1.502901	-0.247764	0.000070
C24	C	1.388187	-0.203595	0.000048
C25	C	1.390139	-0.130760	0.000057
N26	N	1.413724	-0.356363	0.084015
N27	N	1.411878	-0.425553	0.084010
C28	C	1.497014	-0.467212	0.000039
N29	N	1.584085	-0.437067	-0.083907
N30	N	1.585935	-0.367870	-0.083895
C31	C	1.500772	-0.326741	0.000059
C32	C	1.609608	-0.590350	0.000025
C33	C	1.607655	-0.663188	-0.000008
C34	C	1.376285	-0.647691	-0.000023
C35	C	1.378241	-0.574855	-0.000004
C36	C	1.494906	-0.546189	0.000026
C37	C	1.730998	0.099085	0.000050
C38	C	1.871901	0.101165	0.000047
C39	C	1.488927	0.230625	0.000004
C40	C	1.491000	0.308143	-0.000018
N41	N	1.498871	0.103028	0.351092
N42	N	1.498944	0.103016	-0.351009
C43	C	1.393992	0.159658	0.586103
C44	C	1.394216	0.159870	0.414212
C45	C	1.631229	0.119601	0.413432
C46	C	1.630654	0.120002	0.585376
C47	C	1.472714	0.029640	0.585655
C48	C	1.469658	0.030115	0.413700
H49	H	1.134054	-0.002088	0.101034
H50	H	1.133214	-0.002297	-0.101092
H51	H	1.284841	-0.538899	-0.000007
N52	N	1.091380	0.217701	-0.147837
H53	H	1.139370	0.225729	-0.242200
H54	H	1.008512	0.249450	-0.146394
H55	H	0.867921	0.197202	0.140506
H56	H	1.716500	-0.122918	0.000121
H57	H	1.711168	0.079472	0.372542
N58	N	1.737143	0.067472	0.640532
H59	H	1.723606	0.019217	0.603106
H60	H	1.821546	0.080734	0.602883
N61	N	1.263877	0.146682	0.358355
H62	H	1.271475	0.102739	0.295904
H63	H	1.205819	0.140708	0.445505
H64	H	1.410466	0.213789	0.629282
H65	H	1.541159	-0.014060	0.370740
N66	N	1.266429	-0.083121	0.000071
H67	H	1.262091	-0.052545	-0.091363
H68	H	1.192297	-0.112380	0.000119
H69	H	1.712958	-0.255051	0.000082
H70	H	1.281303	-0.671037	-0.000036
N71	N	1.263234	0.146661	0.640927
H72	H	1.270754	0.103932	0.707067
H73	H	1.224723	0.188761	0.698873
N74	N	1.415997	0.232028	0.359671
H75	H	1.425533	0.263816	0.447326
H76	H	1.496136	0.228850	0.297530
H77	H	0.889348	0.111977	-0.246239
N78	N	0.851727	0.213484	-0.149409
H79	H	0.877040	0.241111	-0.060866
H80	H	0.878318	0.236472	-0.243550
N81	N	1.262367	-0.234517	0.000032
H82	H	1.278534	-0.287359	0.000033
H83	H	1.212179	-0.218408	0.091475
H84	H	1.704603	-0.567009	0.000043
H85	H	1.701060	-0.699142	-0.000006
H86	H	1.653829	0.173535	0.625451
H87	H	1.654960	0.172529	0.370340
N88	N	0.905113	-0.015247	-0.132429
H89	H	0.982606	-0.030090	-0.195345
H90	H	0.865747	-0.058148	-0.097913
H91	H	1.086328	0.198442	0.149905
H92	H	1.378325	0.013867	0.629103
N93	N	0.907259	-0.015421	0.134450
H94	H	0.843257	0.015039	0.196006
H95	H	0.868178	-0.058542	0.100745
H96	H	1.372297	0.017553	0.372957
H97	H	1.106597	0.116284	-0.245674
N98	N	1.574094	-0.026208	0.639516
H99	H	1.636718	-0.004125	0.704624
H100	H	1.532751	-0.062466	0.698317
H101	H	0.885377	0.116048	0.246350
H102	H	1.104900	0.114594	0.245633
