data_functionalizedCrystal
_audit_creation_method	'MofGen! by Chris Wilmer'
_symmetry_space_group_name_H-M	'P1'
_symmetry_Int_Tables_number	1
_symmetry_cell_setting	triclinic
loop_
_symmetry_equiv_pos_as_xyz
  x,y,z
_cell_length_a	14.519709
_cell_length_b	10.540539
_cell_length_c	13.596369
_cell_angle_alpha	89.996161
_cell_angle_beta	90.000291
_cell_angle_gamma	84.102818
loop_
_atom_site_label
_atom_site_type_symbol
_atom_site_fract_x
_atom_site_fract_y
_atom_site_fract_z
O1	O	1.224765	0.166400	-0.081658
O2	O	1.724765	0.666400	0.418342
O3	O	0.956394	0.185995	-0.081688
O4	O	1.456394	0.685995	0.418312
O5	O	1.096702	-0.008572	-0.081671
O6	O	1.596702	0.491428	0.418329
O7	O	1.084457	0.360966	-0.081675
O8	O	1.584457	0.860966	0.418325
O9	O	1.096688	-0.008582	0.081912
O10	O	1.596688	0.491418	0.581912
O11	O	0.956380	0.185985	0.081895
O12	O	1.456380	0.685985	0.581895
O13	O	1.224751	0.166389	0.081924
O14	O	1.724751	0.666389	0.581924
Zn15	Zn	1.090563	0.176185	0.107882
Zn16	Zn	1.590563	0.676185	0.607882
Zn17	Zn	1.090582	0.176199	-0.107646
Zn18	Zn	1.590582	0.676199	0.392354
O19	O	1.084442	0.360956	0.081908
O20	O	1.584442	0.860956	0.581908
C21	C	0.922022	0.185077	0.000100
C22	C	1.422022	0.685077	0.500100
C23	C	0.819626	0.182340	0.000088
C24	C	1.319626	0.682340	0.500088
C25	C	1.095777	-0.055870	0.000118
C26	C	1.595777	0.444130	0.500118
C27	C	1.093029	-0.196790	0.000113
C28	C	1.593029	0.303210	0.500113
C29	C	0.444676	0.172265	0.000133
C30	C	0.944676	0.672265	0.500133
C31	C	0.548999	0.175063	0.000120
C32	C	1.048999	0.675063	0.500120
C33	C	0.632148	0.177303	0.000110
C34	C	1.132148	0.677303	0.500110
C35	C	0.736477	0.180101	0.000099
C36	C	1.236477	0.680101	0.500099
C37	C	0.987750	-0.379142	-0.000266
C38	C	1.487750	0.120858	0.499734
C39	C	0.990535	-0.232553	0.000102
C40	C	1.490535	0.267447	0.500102
C41	C	1.142346	-0.258957	0.093532
C42	C	1.642346	0.241043	0.593532
C43	C	1.138848	-0.405466	0.093610
C44	C	1.638848	0.094534	0.593610
C45	C	1.140949	-0.405994	-0.092414
C46	C	1.640949	0.094006	0.407586
C47	C	1.141893	-0.259022	-0.093649
C48	C	1.641893	0.240978	0.406351
C49	C	1.259123	0.167308	0.000135
C50	C	1.759123	0.667308	0.500135
C51	C	1.361519	0.170044	0.000140
C52	C	1.861519	0.670044	0.500140
C53	C	1.085368	0.408255	0.000116
C54	C	1.585368	0.908255	0.500116
C55	C	1.088115	0.549175	0.000115
C56	C	1.588115	1.049175	0.500115
N57	N	1.090557	0.176175	0.254974
N58	N	1.590557	0.676175	0.754974
N59	N	1.090595	0.176199	-0.254737
N60	N	1.590595	0.676199	0.245263
C61	C	1.090580	0.176200	0.656265
C62	C	1.590580	0.676200	1.156265
C63	C	1.090571	0.176198	0.544613
C64	C	1.590571	0.676198	1.044613
C65	C	1.090569	0.176189	0.455623
C66	C	1.590569	0.676189	0.955623
C67	C	1.090559	0.176184	0.343964
C68	C	1.590559	0.676184	0.843964
H69	H	0.947268	-0.407325	-0.067259
H70	H	1.447268	0.092675	0.432741
N71	N	1.096970	-0.202065	0.185614
N72	N	1.596970	0.297935	0.685614
H73	H	1.044478	-0.136039	0.167029
H74	H	1.544478	0.363961	0.667029
H75	H	1.072028	-0.271650	0.225653
H76	H	1.572028	0.228350	0.725653
H77	H	1.105808	-0.217791	-0.162758
H78	H	1.605808	0.282209	0.337242
N79	N	1.240879	-0.227959	-0.101118
N80	N	1.740879	0.272041	0.398882
H81	H	1.255518	-0.172864	-0.043569
H82	H	1.755518	0.327136	0.456431
H83	H	1.283841	-0.309633	-0.100311
H84	H	1.783841	0.190367	0.399689
H85	H	0.951729	-0.189549	-0.066865
H86	H	1.451729	0.310451	0.433135
H87	H	1.107782	-0.437204	-0.163219
H88	H	1.607782	0.062796	0.336781
N89	N	0.938772	-0.176712	0.088952
N90	N	1.438772	0.323288	0.588952
H91	H	0.940367	-0.081145	0.089560
H92	H	1.440367	0.418855	0.589560
H93	H	0.872389	-0.197195	0.086019
H94	H	1.372389	0.302805	0.586019
H95	H	1.214980	-0.453976	-0.093034
H96	H	1.714980	0.046024	0.406966
N97	N	0.934329	-0.418596	0.087969
N98	N	1.434329	0.081404	0.587969
H99	H	0.869940	-0.372113	0.087165
H100	H	1.369940	0.127887	0.587165
H101	H	0.930147	-0.513601	0.085619
H102	H	1.430147	-0.013601	0.585619
N103	N	1.090552	-0.442335	0.186099
N104	N	1.590552	0.057665	0.686099
H105	H	1.025600	-0.397694	0.187669
H106	H	1.525600	0.102306	0.687669
H107	H	1.087866	-0.537693	0.187022
H108	H	1.587866	-0.037693	0.687022
H109	H	1.212560	-0.454188	0.097856
H110	H	1.712560	0.045812	0.597856
H111	H	1.217615	-0.237372	0.097013
H112	H	1.717615	0.262628	0.597013
