data_functionalizedCrystal
_audit_creation_method	'MofGen! by Chris Wilmer'
_symmetry_space_group_name_H-M	'P1'
_symmetry_Int_Tables_number	1
_symmetry_cell_setting	triclinic
loop_
_symmetry_equiv_pos_as_xyz
  x,y,z
_cell_length_a	16.109302
_cell_length_b	16.109301
_cell_length_c	15.186229
_cell_angle_alpha	89.994833
_cell_angle_beta	89.994701
_cell_angle_gamma	83.461631
loop_
_atom_site_label
_atom_site_type_symbol
_atom_site_fract_x
_atom_site_fract_y
_atom_site_fract_z
O1	O	1.103130	0.106869	-0.073271
O2	O	1.603130	0.606869	0.426729
O3	O	0.861068	0.120168	-0.073264
O4	O	1.361068	0.620168	0.426736
O5	O	0.988749	-0.007513	-0.073259
O6	O	1.488749	0.492487	0.426741
O7	O	0.975450	0.234549	-0.073276
O8	O	1.475450	0.734549	0.426724
O9	O	0.988740	-0.007514	0.073198
O10	O	1.488740	0.492486	0.573198
O11	O	0.861060	0.120166	0.073193
O12	O	1.361060	0.620166	0.573193
O13	O	1.103122	0.106867	0.073186
O14	O	1.603122	0.606867	0.573186
Zn15	Zn	0.982089	0.113516	0.096443
Zn16	Zn	1.482089	0.613516	0.596443
Zn17	Zn	0.982101	0.113519	-0.096521
Zn18	Zn	1.482101	0.613519	0.403479
O19	O	0.975441	0.234547	0.073181
O20	O	1.475441	0.734547	0.573181
C21	C	0.830089	0.119628	-0.000035
C22	C	1.330089	0.619628	0.499965
C23	C	0.737794	0.118013	-0.000032
C24	C	1.237794	0.618013	0.499968
C25	C	0.525448	0.114276	0.079793
C26	C	1.025448	0.614276	0.579793
C27	C	0.438728	0.112750	0.079790
C28	C	0.938728	0.612750	0.579790
C29	C	0.438748	0.112756	-0.079885
C30	C	0.938748	0.612756	0.420115
C31	C	0.525467	0.114277	-0.079881
C32	C	1.025467	0.614277	0.420119
C33	C	0.568815	0.115041	-0.000039
C34	C	1.068815	0.615041	0.499961
C35	C	0.395375	0.111994	-0.000046
C36	C	0.895375	0.611994	0.499954
C37	C	0.301350	0.110338	-0.000050
C38	C	0.801350	0.610338	0.499950
C39	C	0.662847	0.116695	-0.000035
C40	C	1.162847	0.616695	0.499965
C41	C	0.988206	-0.038488	-0.000030
C42	C	1.488206	0.461512	0.499970
C43	C	0.986591	-0.130784	-0.000028
C44	C	1.486591	0.369216	0.499972
C45	C	1.058599	-0.353056	-0.000044
C46	C	1.558599	0.146944	0.499956
C47	C	1.057074	-0.439776	-0.000052
C48	C	1.557074	0.060224	0.499948
C49	C	0.905586	-0.419902	-0.000044
C50	C	1.405586	0.080098	0.499956
C51	C	0.907111	-0.333184	-0.000043
C52	C	1.407111	0.166816	0.499957
C53	C	0.983620	-0.299763	-0.000039
C54	C	1.483620	0.200237	0.499961
C55	C	0.980571	-0.473202	-0.000047
C56	C	1.480571	0.026798	0.499953
C57	C	0.978918	-0.567228	-0.000055
C58	C	1.478918	-0.067228	0.499945
C59	C	0.985273	-0.205731	-0.000033
C60	C	1.485273	0.294269	0.499967
C61	C	1.134101	0.107407	-0.000045
C62	C	1.634101	0.607407	0.499955
C63	C	1.226396	0.109022	-0.000054
C64	C	1.726396	0.609022	0.499946
C65	C	0.975984	0.265523	-0.000050
C66	C	1.475984	0.765523	0.499950
C67	C	0.977599	0.357819	-0.000057
C68	C	1.477599	0.857819	0.499943
N69	N	0.982088	0.113514	0.228136
N70	N	1.482088	0.613514	0.728136
N71	N	0.982109	0.113514	-0.228214
N72	N	1.482109	0.613514	0.271786
C73	C	1.038644	0.056996	0.453861
C74	C	1.538644	0.556996	0.953861
C75	C	1.038647	0.056994	0.546051
C76	C	1.538647	0.556994	1.046051
C77	C	0.925547	0.170035	0.546055
C78	C	1.425547	0.670035	1.046055
C79	C	0.925541	0.170032	0.453867
C80	C	1.425541	0.670032	0.953867
C81	C	0.982094	0.113514	0.407772
C82	C	1.482094	0.613514	0.907772
C83	C	0.982103	0.113514	0.592150
C84	C	1.482103	0.613514	1.092150
C85	C	0.982105	0.113513	0.692106
C86	C	1.482105	0.613513	1.192106
C87	C	0.982091	0.113514	0.307810
C88	C	1.482091	0.613514	0.807810
H89	H	0.403444	0.112134	-0.144890
H90	H	0.903444	0.612134	0.355110
Cl91	Cl	0.384214	0.111790	0.180157
Cl92	Cl	0.884214	0.611790	0.680157
H93	H	0.843295	-0.447124	-0.000046
H94	H	1.343295	0.052876	0.499954
Cl95	Cl	1.109739	-0.014061	0.603988
Cl96	Cl	1.609739	0.485939	1.103988
H97	H	0.560777	0.114897	-0.144895
H98	H	1.060777	0.614897	0.355105
Cl99	Cl	0.812843	-0.266182	-0.000044
Cl100	Cl	1.312843	0.233818	0.499956
H101	H	0.560739	0.114899	0.144806
H102	H	1.060739	0.614899	0.644806
H103	H	1.084692	0.010975	0.416333
H104	H	1.584692	0.510975	0.916333
H105	H	1.120897	-0.325848	-0.000043
H106	H	1.620897	0.174152	0.499957
H107	H	1.118130	-0.483165	-0.000058
H108	H	1.618130	0.016835	0.499942
H109	H	0.879503	0.216052	0.583594
H110	H	1.379503	0.716052	1.083594
Cl111	Cl	0.854440	0.241084	0.395921
Cl112	Cl	1.354440	0.741084	0.895921
