data_functionalizedCrystal
_audit_creation_method	'MofGen! by Chris Wilmer'
_symmetry_space_group_name_H-M	'P1'
_symmetry_Int_Tables_number	1
_symmetry_cell_setting	triclinic
loop_
_symmetry_equiv_pos_as_xyz
  x,y,z
_cell_length_a	15.298183
_cell_length_b	18.215405
_cell_length_c	18.215399
_cell_angle_alpha	89.968171
_cell_angle_beta	80.327443
_cell_angle_gamma	99.638840
loop_
_atom_site_label
_atom_site_type_symbol
_atom_site_fract_x
_atom_site_fract_y
_atom_site_fract_z
Zn1	Zn	-1.378971	-0.487464	-0.221085
Zn2	Zn	-0.878971	0.012536	0.278915
Zn3	Zn	-1.378869	-0.610526	-0.098030
Zn4	Zn	-0.878869	-0.110526	0.401970
Zn5	Zn	-1.228136	-0.466218	-0.119364
Zn6	Zn	-0.728136	0.033782	0.380636
Zn7	Zn	-1.228089	-0.589213	-0.242379
Zn8	Zn	-0.728089	-0.089213	0.257621
O9	O	-1.303516	-0.538355	-0.170214
O10	O	-0.803516	-0.038355	0.329786
O11	O	-1.505184	-0.521599	-0.186921
O12	O	-1.005184	-0.021599	0.313079
O13	O	-1.358851	-0.591412	0.002121
O14	O	-0.858851	-0.091412	0.502121
O15	O	-1.248207	-0.366061	-0.132874
O16	O	-0.748207	0.133939	0.367126
O17	O	-1.505110	-0.612012	-0.096513
O18	O	-1.005110	-0.112012	0.403487
O19	O	-1.359024	-0.381670	-0.207608
O20	O	-0.859024	0.118330	0.292392
O21	O	-1.248108	-0.485389	-0.013553
O22	O	-0.748108	0.014611	0.486447
O23	O	-1.101903	-0.464723	-0.153523
O24	O	-0.601903	0.035277	0.346477
O25	O	-1.248127	-0.575687	-0.342535
O26	O	-0.748127	-0.075687	0.157465
O27	O	-1.101868	-0.555087	-0.243901
O28	O	-0.601868	-0.055087	0.256099
O29	O	-1.358979	-0.500933	-0.326890
O30	O	-0.858979	-0.000933	0.173110
O31	O	-1.358806	-0.710674	-0.117161
O32	O	-0.858806	-0.210674	0.382839
O33	O	-1.248028	-0.695016	-0.223214
O34	O	-0.748028	-0.195016	0.276786
C35	C	-1.069156	-0.505287	-0.203338
C36	C	-0.569156	-0.005287	0.296662
C37	C	-0.968896	-0.491158	-0.217526
C38	C	-0.468896	0.008842	0.282474
C39	C	-0.921839	-0.437520	-0.271339
C40	C	-0.421839	0.062480	0.228661
C41	C	-0.827640	-0.424238	-0.284671
C42	C	-0.327640	0.075762	0.215329
C43	C	-0.780488	-0.464597	-0.244195
C44	C	-0.280488	0.035403	0.255805
C45	C	-0.827545	-0.518240	-0.190385
C46	C	-0.327545	-0.018240	0.309615
C47	C	-0.921754	-0.531519	-0.177047
C48	C	-0.421754	-0.031519	0.322953
C49	C	-0.780403	-0.558597	-0.149904
C50	C	-0.280403	-0.058597	0.350096
C51	C	-0.827460	-0.612240	-0.096093
C52	C	-0.327460	-0.112240	0.403907
C53	C	-0.921659	-0.625517	-0.082759
C54	C	-0.421659	-0.125517	0.417241
C55	C	-0.968811	-0.585158	-0.123234
C56	C	-0.468811	-0.085158	0.376766
C57	C	-0.686194	-0.545318	-0.163241
C58	C	-0.186194	-0.045318	0.336759
C59	C	-0.686108	-0.639317	-0.068950
C60	C	-0.186108	-0.139317	0.431050
C61	C	-0.780308	-0.652599	-0.055618
C62	C	-0.280308	-0.152599	0.444382
C63	C	-1.303425	-0.729549	-0.170195
C64	C	-0.803425	-0.229549	0.329805
C65	C	-1.303469	-0.811354	-0.170200
C66	C	-0.803469	-0.311354	0.329800
C67	C	-0.538791	-0.571548	-0.136954
C68	C	-0.038791	-0.071548	0.363046
C69	C	-0.639052	-0.585679	-0.122763
C70	C	-0.139052	-0.085679	0.377237
C71	C	-1.361320	-1.084564	-0.115054
C72	C	-0.861320	-0.584564	0.384946
C73	C	-1.361283	-1.007700	-0.115043
C74	C	-0.861283	-0.507700	0.384957
C75	C	-1.245824	-0.991421	-0.225408
C76	C	-0.745824	-0.491421	0.274592
C77	C	-1.245858	-1.068283	-0.225416
C78	C	-0.745858	-0.568283	0.274584
C79	C	-1.303611	-1.114853	-0.170240
C80	C	-0.803611	-0.614853	0.329760
C81	C	-1.303540	-0.961127	-0.170220
C82	C	-0.803540	-0.461127	0.329780
C83	C	-1.303499	-0.877788	-0.170208
C84	C	-0.803499	-0.377788	0.329792
C85	C	-1.303650	-1.198198	-0.170251
C86	C	-0.803650	-0.698198	0.329749
C87	C	-1.303559	-0.538302	-0.362161
C88	C	-0.803559	-0.038302	0.137839
C89	C	-1.303577	-0.538280	-0.443958
C90	C	-0.803577	-0.038280	0.056042
C91	C	-1.303632	-0.346419	-0.170246
C92	C	-0.803632	0.153581	0.329754
C93	C	-1.303682	-0.264627	-0.170259
C94	C	-0.803682	0.235373	0.329741
C95	C	-1.245962	-0.483049	-0.640307
C96	C	-0.745962	0.016951	-0.140307
C97	C	-1.245978	-0.483037	-0.717164
C98	C	-0.745978	0.016963	-0.217164
C99	C	-1.361300	-0.593438	-0.700831
C100	C	-0.861300	-0.093438	-0.200831
C101	C	-1.361279	-0.593453	-0.623976
C102	C	-0.861279	-0.093453	-0.123976
C103	C	-1.303612	-0.538255	-0.593716
C104	C	-0.803612	-0.038255	-0.093716
C105	C	-1.303648	-0.538227	-0.747427
C106	C	-0.803648	-0.038227	-0.247427
C107	C	-1.303665	-0.538214	-0.830759
C108	C	-0.803665	-0.038214	-0.330759
C109	C	-1.303593	-0.538269	-0.510380
C110	C	-0.803593	-0.038269	-0.010380
C111	C	-1.303526	-0.538362	0.020993
C112	C	-0.803526	-0.038362	0.520993
C113	C	-1.303682	-0.538202	0.102814
C114	C	-0.803682	-0.038202	0.602814
H115	H	-0.960239	-0.404662	-0.304285
H116	H	-0.460239	0.095338	0.195715
H117	H	-1.045516	-0.595978	-0.112392
H118	H	-0.545516	-0.095978	0.387608
H119	H	-1.198805	-0.953496	-0.270333
H120	H	-0.698805	-0.453496	0.229667
O121	O	-1.423616	-1.134785	-0.055541
O122	O	-0.923616	-0.634785	0.444459
H123	H	-1.469504	-1.176209	-0.082037
H124	H	-0.969504	-0.676209	0.417963
H125	H	-1.408227	-0.638411	-0.586040
H126	H	-0.908227	-0.138411	-0.086040
O127	O	-1.423538	-0.975036	-0.055525
O128	O	-0.923538	-0.475036	0.444475
H129	H	-1.413811	-0.913764	-0.064783
H130	H	-0.913811	-0.413764	0.435217
O131	O	-1.423497	-0.652972	-0.733468
O132	O	-0.923497	-0.152972	-0.233468
H133	H	-1.494295	-0.650347	-0.708706
H134	H	-0.994295	-0.150347	-0.208706
O135	O	-1.183613	-1.100961	-0.284941
O136	O	-0.683613	-0.600961	0.215059
H137	H	-1.143458	-1.055667	-0.323315
H138	H	-0.643458	-0.555667	0.176685
O139	O	-1.183764	-0.423516	-0.607670
O140	O	-0.683764	0.076484	-0.107670
H141	H	-1.137848	-0.449981	-0.579128
H142	H	-0.637848	0.050019	-0.079128
O143	O	-0.635445	-0.487462	-0.221274
O144	O	-0.135445	0.012538	0.278726
H145	H	-0.592528	-0.514394	-0.264730
H146	H	-0.092528	-0.014394	0.235270
O147	O	-1.183806	-0.423490	-0.767418
O148	O	-0.683806	0.076510	-0.267418
H149	H	-1.143711	-0.385109	-0.733460
H150	H	-0.643711	0.114891	-0.233460
H151	H	-0.703787	-0.453777	-0.255051
H152	H	-0.203787	0.046223	0.244949
H153	H	-0.959970	-0.669191	-0.038937
H154	H	-0.459970	-0.169191	0.461063
O155	O	-0.776887	-0.366383	-0.342703
O156	O	-0.276887	0.133617	0.157297
H157	H	-0.794987	-0.381630	-0.397878
H158	H	-0.294987	0.118370	0.102122
O159	O	-0.831068	-0.710446	0.002428
O160	O	-0.331068	-0.210446	0.502428
H161	H	-0.873999	-0.753977	-0.024363
H162	H	-0.373999	-0.253977	0.475637
O163	O	-0.635266	-0.682855	-0.025289
O164	O	-0.135266	-0.182855	0.474711
H165	H	-0.561856	-0.664616	-0.043609
H166	H	-0.061856	-0.164616	0.456391
