data_functionalizedCrystal
_audit_creation_method	'MofGen! by Chris Wilmer'
_symmetry_space_group_name_H-M	'P1'
_symmetry_Int_Tables_number	1
_symmetry_cell_setting	triclinic
loop_
_symmetry_equiv_pos_as_xyz
  x,y,z
_cell_length_a	10.686220
_cell_length_b	19.121175
_cell_length_c	10.686285
_cell_angle_alpha	92.138587
_cell_angle_beta	89.654569
_cell_angle_gamma	91.730287
loop_
_atom_site_label
_atom_site_type_symbol
_atom_site_fract_x
_atom_site_fract_y
_atom_site_fract_z
Zn1	Zn	1.980474	-0.296776	0.372977
Zn2	Zn	1.986132	-0.170532	0.573880
Zn3	Zn	1.761820	-0.188303	0.381497
Zn4	Zn	1.786685	-0.295391	0.598701
O5	O	1.878778	-0.237750	0.481764
O6	O	2.156200	-0.273172	0.385674
O7	O	1.948338	-0.075239	0.541539
O8	O	1.778050	-0.210709	0.205388
O9	O	2.160357	-0.180421	0.533277
O10	O	1.938694	-0.290404	0.199128
O11	O	1.783537	-0.088295	0.400196
O12	O	1.590142	-0.209366	0.424263
O13	O	1.820430	-0.393225	0.575579
O14	O	1.608411	-0.288043	0.583841
O15	O	1.962806	-0.394243	0.409741
O16	O	1.972449	-0.179078	0.752152
O17	O	1.825917	-0.270811	0.770387
C18	C	1.553907	-0.250483	0.507671
C19	C	1.414930	-0.255945	0.518785
C20	C	1.893761	-0.419761	0.494478
C21	C	1.900145	-0.497323	0.499897
C22	C	1.817346	-0.540559	0.428854
C23	C	1.823341	-0.613437	0.433955
C24	C	1.912142	-0.643077	0.510094
C25	C	1.994946	-0.599836	0.581145
C26	C	1.988944	-0.526959	0.576050
C27	C	1.934552	-0.862776	0.529168
C28	C	1.940550	-0.935658	0.534256
C29	C	1.768942	-0.949254	0.387067
C30	C	1.762953	-0.876376	0.381972
C31	C	1.845752	-0.833141	0.453028
C32	C	1.918275	-0.717570	0.515308
C33	C	1.839613	-0.758650	0.447820
C34	C	2.204917	-0.224969	0.455756
C35	C	2.343898	-0.219522	0.444673
C36	C	1.902530	-0.222879	0.806638
C37	C	1.912808	-0.216536	0.945613
C38	C	1.863918	-0.056449	0.469002
C39	C	1.857750	0.021106	0.463213
C40	C	1.854968	-0.252693	0.155619
C41	C	1.844821	-0.259061	0.016635
H42	H	1.389407	-0.184160	0.372721
H43	H	1.978872	-0.175268	0.991135
H44	H	1.369415	-0.291304	0.590750
H45	H	2.056377	-0.491757	0.633890
H46	H	1.745040	-0.516432	0.366846
H47	H	1.990577	-0.741711	0.577302
H48	H	1.701531	-0.984464	0.329218
H49	H	1.755912	-0.648637	0.376110
H50	H	2.012868	-0.959788	0.596258
H51	H	1.690638	-0.852248	0.319975
H52	H	1.778753	-0.300323	0.971121
H53	H	2.001960	-0.827582	0.587042
H54	H	2.067244	-0.623974	0.643146
H55	H	1.767307	-0.734513	0.385833
