data_functionalizedCrystal
_audit_creation_method	'MofGen! by Chris Wilmer'
_symmetry_space_group_name_H-M	'P1'
_symmetry_Int_Tables_number	1
_symmetry_cell_setting	triclinic
loop_
_symmetry_equiv_pos_as_xyz
  x,y,z
_cell_length_a	18.215407
_cell_length_b	18.215405
_cell_length_c	18.215407
_cell_angle_alpha	90.011538
_cell_angle_beta	90.009795
_cell_angle_gamma	90.025333
loop_
_atom_site_label
_atom_site_type_symbol
_atom_site_fract_x
_atom_site_fract_y
_atom_site_fract_z
Zn1	Zn	1.124999	-0.293121	0.416102
Zn2	Zn	1.124929	-0.416152	0.293030
Zn3	Zn	1.001953	-0.293104	0.293050
Zn4	Zn	1.001897	-0.416151	0.416055
O5	O	1.063445	-0.354632	0.354559
O6	O	1.227974	-0.309448	0.399788
O7	O	1.108610	-0.399822	0.190049
O8	O	1.018328	-0.190122	0.309401
O9	O	1.227923	-0.399838	0.309368
O10	O	1.108729	-0.190135	0.399807
O11	O	1.018260	-0.309420	0.190063
O12	O	0.898961	-0.309420	0.309355
O13	O	1.018233	-0.399838	0.519046
O14	O	0.898921	-0.399822	0.399727
O15	O	1.108675	-0.309448	0.519080
O16	O	1.108556	-0.519136	0.309322
O17	O	1.018165	-0.519136	0.399708
C18	C	0.872238	-0.354620	0.354538
C19	C	0.790439	-0.354632	0.354547
C20	C	0.602244	-0.401778	0.401544
C21	C	0.525385	-0.401781	0.401553
C22	C	0.525398	-0.307499	0.307591
C23	C	0.602255	-0.307494	0.307586
C24	C	0.640676	-0.354638	0.354561
C25	C	0.486960	-0.354645	0.354576
C26	C	0.403626	-0.354647	0.354585
C27	C	0.724015	-0.354635	0.354553
C28	C	1.063367	-0.545838	0.354524
C29	C	1.063401	-0.627637	0.354534
C30	C	1.110578	-0.815807	0.307556
C31	C	1.110611	-0.892666	0.307574
C32	C	1.016405	-0.892705	0.401616
C33	C	1.016377	-0.815848	0.401601
C34	C	1.063462	-0.777401	0.354567
C35	C	1.063524	-0.931117	0.354600
C36	C	1.063559	-1.014450	0.354619
C37	C	1.063428	-0.694062	0.354548
C38	C	1.255398	-0.354645	0.354581
C39	C	1.337196	-0.354651	0.354590
C40	C	1.063456	-0.354645	0.546512
C41	C	1.063461	-0.354651	0.628311
C42	C	1.063543	-0.162679	0.354611
C43	C	1.063584	-0.080880	0.354633
C44	C	1.110495	-0.401708	0.893366
C45	C	1.110496	-0.401712	0.816507
C46	C	1.016406	-0.307581	0.816505
C47	C	1.016401	-0.307582	0.893362
C48	C	1.063449	-0.354645	0.931791
C49	C	1.063456	-0.354647	0.778075
C50	C	1.063458	-0.354650	0.694741
C51	C	1.063447	-0.354642	1.015130
C52	C	1.063433	-0.354638	1.163353
C53	C	1.063445	-0.354641	1.081554
H54	H	0.633524	-0.440164	0.439797
H55	H	0.494106	-0.269118	0.269344
C56	C	1.162249	-0.453479	0.774243
H57	H	1.190270	-0.481502	0.808139
H58	H	1.134088	-0.485547	0.744248
H59	H	1.194330	-0.425322	0.744274
C60	C	0.483109	-0.453635	0.453232
H61	H	0.431832	-0.446883	0.446515
H62	H	0.495682	-0.503064	0.442373
H63	H	0.495723	-0.442938	0.502699
C64	C	0.644534	-0.255638	0.255901
H65	H	0.610645	-0.227569	0.227918
H66	H	0.674535	-0.223616	0.284109
H67	H	0.674497	-0.283742	0.223782
C68	C	1.162376	-0.773517	0.255828
H69	H	1.190446	-0.807401	0.227839
H70	H	1.134242	-0.743569	0.223728
H71	H	1.194410	-0.743500	0.284012
C72	C	1.162429	-0.934913	0.255855
H73	H	1.155708	-0.986193	0.262601
H74	H	1.151686	-0.922343	0.206398
H75	H	1.211867	-0.922273	0.266668
H76	H	0.978101	-0.269264	0.785207
C77	C	1.162240	-0.453478	0.935638
H78	H	1.155505	-0.446734	0.986916
H79	H	1.151448	-0.502924	0.923030
H80	H	1.211694	-0.442703	0.923055
C81	C	0.964609	-0.935000	0.453341
H82	H	0.971367	-0.986274	0.446612
H83	H	0.975331	-0.922378	0.502797
H84	H	0.915164	-0.922446	0.442513
H85	H	0.978009	-0.784576	0.439886
C86	C	0.964650	-0.255807	0.935633
H87	H	0.936638	-0.227771	0.901740
H88	H	0.932572	-0.283960	0.965602
H89	H	0.992821	-0.223741	0.965627
