data_functionalizedCrystal
_audit_creation_method	'MofGen! by Chris Wilmer'
_symmetry_space_group_name_H-M	'P1'
_symmetry_Int_Tables_number	1
_symmetry_cell_setting	triclinic
loop_
_symmetry_equiv_pos_as_xyz
  x,y,z
_cell_length_a	11.792241
_cell_length_b	17.038272
_cell_length_c	10.868271
_cell_angle_alpha	89.994627
_cell_angle_beta	89.999893
_cell_angle_gamma	87.652486
loop_
_atom_site_label
_atom_site_type_symbol
_atom_site_fract_x
_atom_site_fract_y
_atom_site_fract_z
O1	O	1.516303	0.107207	-0.102203
O2	O	1.186930	0.118256	-0.102232
O3	O	1.349659	-0.001093	-0.102208
O4	O	1.353574	0.226555	-0.102227
O5	O	1.349644	-0.001097	0.102436
O6	O	1.186915	0.118251	0.102412
O7	O	1.516288	0.107202	0.102441
Zn8	Zn	1.351599	0.112726	0.134919
Zn9	Zn	1.351618	0.112732	-0.134710
O10	O	1.353559	0.226551	0.102417
C11	C	1.144571	0.117559	0.000086
C12	C	1.018375	0.115482	0.000076
C13	C	0.787328	0.111662	0.000111
C14	C	0.915899	0.113785	0.000092
C15	C	1.346090	-0.030239	0.000114
C16	C	1.335466	-0.117079	0.000112
C17	C	1.433006	-0.166762	0.000122
C18	C	1.423017	-0.248357	0.000110
C19	C	1.315487	-0.280267	0.000096
C20	C	1.217940	-0.230577	0.000083
C21	C	1.227930	-0.148984	0.000086
C22	C	1.280194	-0.526181	0.000076
C23	C	1.270211	-0.607780	0.000076
C24	C	1.475289	-0.625554	0.000101
C25	C	1.485270	-0.543958	0.000112
C26	C	1.387723	-0.494276	0.000092
C27	C	1.305274	-0.363669	0.000087
C28	C	1.397937	-0.410875	0.000092
C29	C	1.558647	0.107899	0.000120
C30	C	1.684843	0.109976	0.000122
C31	C	1.357127	0.255697	0.000093
C32	C	1.367751	0.342537	0.000086
N33	N	1.351594	0.112721	0.318933
N34	N	1.351632	0.112731	-0.318724
C35	C	1.351612	0.112730	0.569939
C36	C	1.351599	0.112728	0.430261
H37	H	1.520568	-0.140788	0.000141
H38	H	1.217723	-0.389660	0.000079
F39	F	1.599718	-0.510004	0.000095
H40	H	1.554706	-0.666014	0.000115
F41	F	1.155758	-0.641738	0.000068
F42	F	1.176374	-0.473315	0.000052
H43	H	1.502445	-0.288806	0.000120
H44	H	1.130387	-0.256565	0.000064
H45	H	1.148503	-0.108532	0.000078
H46	H	1.485487	-0.384890	0.000076
