data_functionalizedCrystal
_audit_creation_method	'MofGen! by Chris Wilmer'
_symmetry_space_group_name_H-M	'P1'
_symmetry_Int_Tables_number	1
_symmetry_cell_setting	triclinic
loop_
_symmetry_equiv_pos_as_xyz
  x,y,z
_cell_length_a	9.065218
_cell_length_b	15.186229
_cell_length_c	9.065218
_cell_angle_alpha	89.997568
_cell_angle_beta	94.984115
_cell_angle_gamma	90.004035
loop_
_atom_site_label
_atom_site_type_symbol
_atom_site_fract_x
_atom_site_fract_y
_atom_site_fract_z
O1	O	1.960400	0.073227	-0.216356
O2	O	2.460400	0.573227	0.283644
O3	O	1.531116	0.073228	-0.234102
O4	O	2.031116	0.573228	0.265898
O5	O	1.754631	0.073226	-0.010587
O6	O	2.254631	0.573226	0.489413
O7	O	1.736885	0.073229	-0.439872
O8	O	2.236885	0.573229	0.060128
O9	O	1.754614	-0.073232	-0.010581
O10	O	2.254614	0.426768	0.489419
O11	O	1.531098	-0.073229	-0.234097
O12	O	2.031098	0.426771	0.265903
O13	O	1.960383	-0.073230	-0.216350
O14	O	2.460383	0.426770	0.283650
Zn15	Zn	1.745738	-0.096483	-0.225223
Zn16	Zn	2.245738	0.403517	0.274777
Zn17	Zn	1.745761	0.096481	-0.225230
Zn18	Zn	2.245761	0.596481	0.274770
O19	O	1.736867	-0.073228	-0.439866
O20	O	2.236867	0.426772	0.060134
C21	C	1.476120	-0.000001	-0.232394
C22	C	1.976120	0.499999	0.267606
C23	C	1.312277	-0.000000	-0.227294
C24	C	1.812277	0.500000	0.272706
N25	N	1.745733	-0.228176	-0.225217
N26	N	2.245733	0.271824	0.274783
C27	C	1.844747	-0.546095	-0.126278
C28	C	2.344747	-0.046095	0.373722
C29	C	1.844742	-0.453906	-0.126279
C30	C	2.344742	0.046094	0.373721
C31	C	1.646759	-0.453914	-0.324174
C32	C	2.146759	0.046086	0.175826
C33	C	1.646771	-0.546102	-0.324179
C34	C	2.146771	-0.046102	0.175821
C35	C	1.745763	-0.592190	-0.225223
C36	C	2.245763	-0.092190	0.274777
C37	C	1.745747	-0.407812	-0.225218
C38	C	2.245747	0.092188	0.274782
C39	C	1.745742	-0.307856	-0.225219
C40	C	2.245742	0.192144	0.274781
C41	C	1.745771	-0.692153	-0.225223
C42	C	2.245771	-0.192153	0.274777
C43	C	2.015378	0.000000	-0.218059
C44	C	2.515378	0.500000	0.281941
C45	C	2.179221	0.000005	-0.223158
C46	C	2.679221	0.500005	0.276842
C47	C	1.752917	-0.000002	0.044403
C48	C	2.252917	0.499998	0.544403
C49	C	1.747817	0.000003	0.208245
C50	C	2.247817	0.500003	0.708245
N51	N	1.745777	0.228173	-0.225224
N52	N	2.245777	0.728173	0.274776
C53	C	1.738582	0.000001	-0.494855
C54	C	2.238582	0.500001	0.005145
C55	C	1.743681	0.000003	-0.658698
C56	C	2.243681	0.500003	-0.158698
H57	H	1.925354	-0.583618	-0.045704
H58	H	2.425354	-0.083618	0.454296
O59	O	1.550646	-0.409005	-0.420142
O60	O	2.050646	0.090995	0.079858
C61	C	1.462932	-0.266989	-0.507890
C62	C	1.962932	0.233011	-0.007890
C63	C	1.571841	-0.317735	-0.399107
C64	C	2.071841	0.182265	0.100893
H65	H	1.480050	-0.193188	-0.490943
H66	H	1.980050	0.306812	0.009057
H67	H	1.344466	-0.285063	-0.487018
H68	H	1.844466	0.214937	0.012982
H69	H	1.483722	-0.285157	-0.626330
H70	H	1.983722	0.214843	-0.126330
H71	H	1.551185	-0.299593	-0.280626
H72	H	2.051185	0.200407	0.219374
H73	H	1.690269	-0.299656	-0.420108
H74	H	2.190269	0.200344	0.079892
H75	H	1.925345	-0.416378	-0.045711
H76	H	2.425345	0.083622	0.454289
H77	H	1.566167	-0.583635	-0.404759
H78	H	2.066167	-0.083635	0.095241
