data_functionalizedCrystal
_audit_creation_method	'MofGen! by Chris Wilmer'
_symmetry_space_group_name_H-M	'P1'
_symmetry_Int_Tables_number	1
_symmetry_cell_setting	triclinic
loop_
_symmetry_equiv_pos_as_xyz
  x,y,z
_cell_length_a	19.077236
_cell_length_b	21.295417
_cell_length_c	19.077174
_cell_angle_alpha	87.731654
_cell_angle_beta	94.705718
_cell_angle_gamma	92.323097
loop_
_atom_site_label
_atom_site_type_symbol
_atom_site_fract_x
_atom_site_fract_y
_atom_site_fract_z
Zn1	Zn	1.093711	-0.227283	0.441951
Zn2	Zn	1.088884	-0.328490	0.324053
Zn3	Zn	0.971092	-0.227292	0.319334
Zn4	Zn	0.975773	-0.336575	0.437156
O5	O	1.032365	-0.279910	0.380623
O6	O	1.191724	-0.237321	0.430293
O7	O	1.069279	-0.311686	0.224777
O8	O	0.987419	-0.139201	0.335631
O9	O	1.188177	-0.311677	0.343673
O10	O	1.077507	-0.139194	0.425717
O11	O	0.982738	-0.237337	0.221310
O12	O	0.873060	-0.245176	0.330982
O13	O	0.995397	-0.325456	0.536442
O14	O	0.876499	-0.325466	0.417545
O15	O	1.082045	-0.245160	0.539965
O16	O	1.073818	-0.417653	0.339024
O17	O	0.990716	-0.423592	0.422121
C18	C	0.849200	-0.286200	0.373232
C19	C	0.770841	-0.288906	0.370086
C20	C	0.735878	-0.251531	0.413775
C21	C	0.662252	-0.254071	0.410814
C22	C	0.623590	-0.293990	0.364166
C23	C	0.658558	-0.331367	0.320472
C24	C	0.732183	-0.328823	0.323431
C25	C	0.403197	-0.305738	0.350471
C26	C	0.329568	-0.308281	0.347518
C27	C	0.333267	-0.230983	0.437859
C28	C	0.406893	-0.228446	0.440816
C29	C	0.441854	-0.265820	0.397119
N30	N	0.548333	-0.296589	0.361139
N31	N	0.517110	-0.263218	0.400143
C32	C	1.032271	-0.443463	0.380581
C33	C	1.032296	-0.513431	0.380589
C34	C	1.075609	-0.543184	0.337368
C35	C	1.075643	-0.608926	0.337385
C36	C	1.032351	-0.644912	0.380615
C37	C	0.989035	-0.615152	0.423844
C38	C	0.989008	-0.549411	0.423831
N39	N	0.970895	-0.750485	0.383500
N40	N	0.970923	-0.812936	0.383509
C41	C	1.032431	-0.842986	0.380659
N42	N	1.093912	-0.808225	0.377786
N43	N	1.093883	-0.745768	0.377773
C44	C	1.032376	-0.716197	0.380634
C45	C	1.075785	-0.944023	0.337454
C46	C	1.075820	-1.009767	0.337476
C47	C	0.989205	-1.015991	0.423932
C48	C	0.989177	-0.950249	0.423914
C49	C	1.032465	-0.914269	0.380671
C50	C	1.216246	-0.273596	0.388044
C51	C	1.294605	-0.270905	0.391207
C52	C	1.039782	-0.286209	0.564497
C53	C	1.042943	-0.288893	0.642854
C54	C	1.032479	-0.115718	0.380683
C55	C	1.032528	-0.045749	0.380708
C56	C	1.025018	-0.273588	0.197466
C57	C	1.021994	-0.270722	0.119116
C58	C	0.999372	-0.251445	0.677860
C59	C	1.002339	-0.253973	0.751484
C60	C	1.048881	-0.293945	0.790100
C61	C	1.092453	-0.331397	0.755089
C62	C	1.089482	-0.328873	0.681466
C63	C	1.062595	-0.305650	1.010482
C64	C	1.065564	-0.308170	1.084110
C65	C	0.975449	-0.230746	1.080500
C66	C	0.972485	-0.228222	1.006876
C67	C	1.016055	-0.265677	0.971871
N68	N	1.051916	-0.296528	0.865356
N69	N	1.013015	-0.263097	0.896616
H70	H	0.633789	-0.223637	0.446392
H71	H	0.953788	-0.644456	0.459044
O72	O	0.437184	-0.341953	0.307960
C73	C	0.477959	-0.303026	0.264223
H74	H	0.455621	-0.254062	0.259076
H75	H	0.476585	-0.323834	0.209958
H76	H	0.534642	-0.299706	0.288266
H77	H	0.438366	-0.195942	0.478804
H78	H	0.627074	-0.363867	0.282487
H79	H	0.760649	-0.359258	0.287854
H80	H	0.298091	-0.340791	0.309531
O81	O	1.131773	-0.365341	0.647533
C82	C	1.117032	-0.429226	0.664864
H83	H	1.092091	-0.433292	0.717228
H84	H	1.167991	-0.455796	0.669421
H85	H	1.079095	-0.450250	0.621960
O86	O	1.117731	-0.508328	0.295351
C87	C	1.155957	-0.548692	0.257195
H88	H	1.159553	-0.596448	0.286178
H89	H	1.211200	-0.527492	0.251962
H90	H	1.128028	-0.554775	0.202594
O91	O	0.299228	-0.194768	0.480329
C92	C	0.258480	-0.233697	0.524089
H93	H	0.246417	-0.280895	0.498685
H94	H	0.207103	-0.210182	0.531509
H95	H	0.288967	-0.241494	0.577457
O96	O	0.959933	-0.217692	0.785511
C97	C	0.916099	-0.256560	0.826249
H98	H	0.910828	-0.305528	0.803867
H99	H	0.861891	-0.235690	0.824891
H100	H	0.940134	-0.259890	0.882929
O101	O	0.773323	-0.212700	0.459110
C102	C	0.726673	-0.180268	0.497048
H103	H	0.673023	-0.178872	0.466066
H104	H	0.748275	-0.130207	0.505529
H105	H	0.720997	-0.205499	0.550224
O106	O	1.104951	-0.341934	0.976405
C107	C	1.148801	-0.303070	0.935682
H108	H	1.123524	-0.255841	0.923669
H109	H	1.156142	-0.326611	0.884282
H110	H	1.202195	-0.295330	0.966165
O111	O	1.137758	-0.370190	0.792526
C112	C	1.207306	-0.353394	0.777387
H113	H	1.206627	-0.327314	0.724000
H114	H	1.238784	-0.397654	0.776127
H115	H	1.232746	-0.321634	0.819792
H116	H	1.110916	-0.633155	0.302190
H117	H	0.953737	-0.525186	0.459027
H118	H	1.111035	-0.914727	0.302246
H119	H	1.111095	-1.033990	0.302283
O120	O	0.947173	-1.051035	0.465863
C121	C	0.956501	-1.115440	0.456625
H122	H	0.977441	-1.121766	0.403174
H123	H	0.903894	-1.142447	0.459242
H124	H	0.995708	-1.134188	0.499987
H125	H	0.953904	-0.926023	0.459105
H126	H	0.961477	-0.218892	0.646424
O127	O	0.927214	-0.189377	0.969473
C128	C	0.889407	-0.156852	1.016159
H129	H	0.889059	-0.184521	1.068530
H130	H	0.833010	-0.151309	0.992646
H131	H	0.915578	-0.108428	1.025053
H132	H	1.103467	-0.340721	1.115549
O133	O	0.933050	-0.194463	1.114532
C134	C	0.889222	-0.233327	1.155280
H135	H	0.883941	-0.282296	1.132899
H136	H	0.835016	-0.212453	1.153933
H137	H	0.913267	-0.236659	1.211957
