data_functionalizedCrystal
_audit_creation_method	'MofGen! by Chris Wilmer'
_symmetry_space_group_name_H-M	'P1'
_symmetry_Int_Tables_number	1
_symmetry_cell_setting	triclinic
loop_
_symmetry_equiv_pos_as_xyz
  x,y,z
_cell_length_a	19.288867
_cell_length_b	14.044220
_cell_length_c	18.366186
_cell_angle_alpha	89.993222
_cell_angle_beta	89.992441
_cell_angle_gamma	88.162973
loop_
_atom_site_label
_atom_site_type_symbol
_atom_site_fract_x
_atom_site_fract_y
_atom_site_fract_z
O1	O	0.928948	0.118224	-0.060526
O2	O	0.727712	0.134168	-0.060533
O3	O	0.825309	-0.011776	-0.060523
O4	O	0.831350	0.264168	-0.060537
O5	O	0.825291	-0.011783	0.060577
O6	O	0.727693	0.134161	0.060566
O7	O	0.928929	0.118216	0.060573
Zn8	Zn	0.828308	0.126188	0.079797
Zn9	Zn	0.828333	0.126197	-0.079757
O10	O	0.831332	0.264161	0.060563
C11	C	0.701793	0.133652	0.000016
C12	C	0.624591	0.132110	0.000013
C13	C	0.822656	-0.047082	0.000027
C14	C	0.814768	-0.152275	0.000028
C15	C	0.068322	0.121014	-0.065989
C16	C	0.140862	0.122456	-0.065992
C17	C	0.177128	0.123178	0.000019
C18	C	0.140847	0.122433	0.066038
C19	C	0.068309	0.120981	0.066039
C20	C	0.290161	0.180977	0.050589
C21	C	0.362698	0.182435	0.050585
C22	C	0.400861	0.127652	0.000019
C23	C	0.366477	0.071423	-0.050556
C24	C	0.293938	0.069971	-0.050555
C25	C	0.255783	0.124752	0.000025
C26	C	0.515789	0.129954	-0.065999
C27	C	0.588331	0.131390	-0.065999
C28	C	0.588314	0.131377	0.066033
C29	C	0.515774	0.129931	0.066031
C30	C	0.479515	0.129224	0.000013
C31	C	0.800347	-0.344875	0.000017
C32	C	0.856291	-0.402746	0.000017
C33	C	0.848267	-0.509915	0.000011
C34	C	0.808370	-0.237695	0.000023
C35	C	0.954848	0.118733	0.000023
C36	C	1.032050	0.120274	0.000021
C37	C	0.833986	0.299467	0.000011
C38	C	0.841873	0.404660	0.000006
N39	N	0.828297	0.126181	0.188688
N40	N	0.828350	0.126197	-0.188648
C41	C	0.871530	0.061588	0.226793
C42	C	0.871534	0.061584	0.303021
C43	C	0.828313	0.126189	0.341141
C44	C	0.785070	0.190786	0.303026
C45	C	0.785062	0.190782	0.226800
C46	C	0.824562	0.212532	0.461896
C47	C	0.824575	0.212537	0.538121
C48	C	0.828333	0.126200	0.576248
C49	C	0.832093	0.039855	0.538141
C50	C	0.832085	0.039851	0.461914
C51	C	0.828316	0.126200	0.423795
C52	C	0.871573	0.061598	0.697008
C53	C	0.871573	0.061593	0.773238
C54	C	0.785112	0.190803	0.773242
C55	C	0.785109	0.190800	0.697014
C56	C	0.828344	0.126199	0.658902
H57	H	0.038805	0.120435	-0.119746
H58	H	0.038777	0.120382	0.119794
C59	C	0.737513	0.261845	0.184879
H60	H	0.743698	0.252589	0.134023
H61	H	0.748972	0.325063	0.197365
H62	H	0.690528	0.251711	0.197379
H63	H	0.397547	0.026817	-0.091734
C64	C	0.628196	0.132170	0.138644
H65	H	0.676593	0.133145	0.129191
H66	H	0.618179	0.076682	0.165770
H67	H	0.614431	0.187186	0.165765
C68	C	0.820440	0.307509	0.580036
H69	H	0.820992	0.295148	0.630894
H70	H	0.778734	0.341447	0.567552
H71	H	0.859056	0.344519	0.567528
C72	C	0.836221	-0.055121	0.580070
H73	H	0.835678	-0.042756	0.630925
H74	H	0.877922	-0.089070	0.567575
H75	H	0.797599	-0.092122	0.567586
H76	H	0.170400	0.123064	-0.119747
H77	H	0.906776	0.008989	0.804263
C78	C	0.919117	-0.009469	0.655079
H79	H	0.912926	-0.000213	0.604223
H80	H	0.907657	-0.072687	0.667581
H81	H	0.966103	0.000663	0.667559
C82	C	0.737568	0.261868	0.815161
H83	H	0.711816	0.300337	0.781546
H84	H	0.764991	0.301230	0.844887
H85	H	0.706550	0.227874	0.844906
C86	C	0.628230	0.132205	-0.138614
H87	H	0.596243	0.131585	-0.177928
H88	H	0.658401	0.077522	-0.141363
H89	H	0.654653	0.188026	-0.141353
H90	H	0.910211	-0.371805	-0.000030
C91	C	0.400514	0.244260	0.106229
H92	H	0.367399	0.276658	0.136358
H93	H	0.427307	0.289471	0.081206
H94	H	0.430159	0.204777	0.135468
H95	H	0.746431	-0.375814	0.000013
C96	C	0.737560	0.261863	0.655096
H97	H	0.711823	0.300345	0.688714
H98	H	0.706541	0.227875	0.625370
H99	H	0.764986	0.301225	0.625351
H100	H	0.835144	-0.030454	0.430891
C101	C	0.475858	0.129455	0.138641
H102	H	0.427461	0.128580	0.129187
H103	H	0.485954	0.185038	0.165603
H104	H	0.489526	0.074532	0.165925
H105	H	0.265946	0.024186	-0.091734
H106	H	0.821490	0.282842	0.430860
C107	C	0.919095	-0.009465	0.344949
H108	H	0.912904	-0.000212	0.395805
H109	H	0.966074	0.000671	0.332444
H110	H	0.907637	-0.072691	0.332471
C111	C	0.737530	0.261852	0.344955
H112	H	0.743732	0.252610	0.395811
H113	H	0.690547	0.251721	0.332478
H114	H	0.748991	0.325073	0.332449
C115	C	0.475902	0.129181	-0.138614
H116	H	0.507897	0.129818	-0.177929
H117	H	0.445736	0.183870	-0.141353
H118	H	0.449474	0.073365	-0.141362
C119	C	0.919078	-0.009480	0.184874
H120	H	0.944822	-0.047956	0.218490
H121	H	0.950091	0.024503	0.155123
H122	H	0.891647	-0.048848	0.155154
H123	H	0.259095	0.225584	0.091774
H124	H	0.170379	0.123019	0.119784
