data_functionalizedCrystal
_audit_creation_method	'MofGen! by Chris Wilmer'
_symmetry_space_group_name_H-M	'P1'
_symmetry_Int_Tables_number	1
_symmetry_cell_setting	triclinic
loop_
_symmetry_equiv_pos_as_xyz
  x,y,z
_cell_length_a	19.188930
_cell_length_b	9.065218
_cell_length_c	7.540329
_cell_angle_alpha	89.998628
_cell_angle_beta	89.984519
_cell_angle_gamma	84.080333
loop_
_atom_site_label
_atom_site_type_symbol
_atom_site_fract_x
_atom_site_fract_y
_atom_site_fract_z
O1	O	-0.927573	-0.184174	0.148046
O2	O	-0.427573	0.315826	0.648046
O3	O	-0.724454	-0.208967	0.147924
O4	O	-0.224454	0.291033	0.647924
O5	O	-0.830212	0.018218	0.147984
O6	O	-0.330212	0.518218	0.647984
O7	O	-0.821815	-0.411358	0.147986
O8	O	-0.321815	0.088642	0.647986
O9	O	-0.830208	0.018219	-0.146981
O10	O	-0.330208	0.518219	0.353019
O11	O	-0.724451	-0.208965	-0.147041
O12	O	-0.224451	0.291035	0.352959
O13	O	-0.927569	-0.184172	-0.146919
O14	O	-0.427569	0.315828	0.353081
Cu15	Cu	-0.826010	-0.196569	-0.173912
Cu16	Cu	-0.326010	0.303431	0.326088
Cu17	Cu	-0.826014	-0.196570	0.174918
Cu18	Cu	-0.326014	0.303430	0.674918
O19	O	-0.821811	-0.411357	-0.146979
O20	O	-0.321811	0.088643	0.353021
C21	C	-0.698435	-0.208163	0.000426
C22	C	-0.198435	0.291837	0.500426
C23	C	-0.620912	-0.205753	0.000379
C24	C	-0.120912	0.294247	0.500379
C25	C	-0.829403	0.073177	0.000504
C26	C	-0.329403	0.573177	0.500504
C27	C	-0.826990	0.236936	0.000511
C28	C	-0.326990	0.736936	0.500511
C29	C	-0.953588	-0.184976	0.000583
C30	C	-0.453588	0.315024	0.500583
C31	C	-1.031112	-0.187386	0.000642
C32	C	-0.531112	0.312614	0.500642
C33	C	-0.577024	-0.339058	0.000408
C34	C	-0.077024	0.160942	0.500408
C35	C	-0.504182	-0.336793	0.000427
C36	C	-0.004182	0.163207	0.500427
C37	C	-0.475232	-0.201217	0.000454
C38	C	0.024768	0.298783	0.500454
C39	C	-0.519130	-0.067895	0.000415
C40	C	-0.019130	0.432105	0.500415
C41	C	-0.591970	-0.070163	0.000378
C42	C	-0.091970	0.429837	0.500378
N43	N	-0.366448	-0.097586	0.100914
N44	N	0.133552	0.402414	0.600914
N45	N	-0.297253	-0.095441	0.100953
N46	N	0.202747	0.404559	0.600953
C47	C	-0.255771	-0.194375	0.000562
C48	C	0.244229	0.305625	0.500562
N49	N	-0.286096	-0.295558	-0.099847
N50	N	0.213904	0.204442	0.400153
N51	N	-0.355298	-0.297708	-0.099878
N52	N	0.144702	0.202292	0.400122
C53	C	-0.396251	-0.198742	0.000493
C54	C	0.103749	0.301258	0.500493
C55	C	-0.132899	-0.325234	0.000610
C56	C	0.367101	0.174766	0.500610
C57	C	-0.060056	-0.322964	0.000618
C58	C	0.439944	0.177036	0.500618
C59	C	-0.075006	-0.054061	0.000624
C60	C	0.424994	0.445939	0.500624
C61	C	-0.147847	-0.056335	0.000598
C62	C	0.352153	0.443665	0.500598
C63	C	-0.176789	-0.191925	0.000599
C64	C	0.323211	0.308075	0.500599
C65	C	-0.822620	-0.466316	0.000505
C66	C	-0.322620	0.033684	0.500505
C67	C	-0.825033	-0.630075	0.000510
C68	C	-0.325033	-0.130075	0.500510
N69	N	-0.826012	-0.196566	-0.419261
N70	N	-0.326012	0.303434	0.080739
N71	N	-0.826017	-0.196561	0.420266
N72	N	-0.326017	0.303439	0.920266
H73	H	-0.468442	-0.445349	0.000446
H74	H	0.031558	0.054651	0.500446
N75	N	-0.045446	0.084431	0.000604
N76	N	0.454554	0.584431	0.500604
N77	N	-0.006451	0.115693	-0.123725
N78	N	0.493549	0.615693	0.376275
H79	H	0.014428	0.213509	-0.123752
H80	H	0.514428	0.713509	0.376248
H81	H	-0.627705	0.038393	0.000356
H82	H	-0.127705	0.538393	0.500356
H83	H	-0.024323	-0.431521	0.000631
H84	H	0.475677	0.068479	0.500631
H85	H	-0.495555	0.042493	0.000461
H86	H	0.004445	0.542493	0.500461
N87	N	-0.192672	0.079848	0.000574
N88	N	0.307328	0.579848	0.500574
N89	N	-0.166818	0.200891	0.000590
N90	N	0.333182	0.700891	0.500590
H91	H	-0.198476	0.297079	0.000567
H92	H	0.301524	0.797079	0.500567
H93	H	-0.156464	-0.435639	0.000584
H94	H	0.343536	0.064361	0.500584
N95	N	-0.606574	-0.477568	0.000415
N96	N	-0.106574	0.022432	0.500415
N97	N	-0.567374	-0.596582	0.000442
N98	N	-0.067374	-0.096582	0.500442
H99	H	-0.588245	-0.694408	0.000447
H100	H	-0.088245	-0.194408	0.500447
