data_functionalizedCrystal
_audit_creation_method	'MofGen! by Chris Wilmer'
_symmetry_space_group_name_H-M	'P1'
_symmetry_Int_Tables_number	1
_symmetry_cell_setting	triclinic
loop_
_symmetry_equiv_pos_as_xyz
  x,y,z
_cell_length_a	6.817900
_cell_length_b	17.982959
_cell_length_c	17.982968
_cell_angle_alpha	95.926238
_cell_angle_beta	102.451960
_cell_angle_gamma	102.451857
loop_
_atom_site_label
_atom_site_type_symbol
_atom_site_fract_x
_atom_site_fract_y
_atom_site_fract_z
V1	V	-4.009936	-0.106127	-0.237869
O2	O	-4.003034	0.004365	-0.233013
O3	O	-3.956505	-0.209726	-0.236557
O4	O	-3.956507	-0.104817	-0.341468
O5	O	-4.003032	-0.101270	-0.127376
V6	V	-4.494867	-0.092873	-0.224615
O7	O	-4.268105	-0.135201	-0.266943
O8	O	-4.686896	-0.063799	-0.195541
O9	O	-4.325092	0.010726	-0.225927
O10	O	-4.619167	-0.203366	-0.229470
O11	O	-4.619168	-0.097730	-0.335108
O12	O	-4.325090	-0.094183	-0.121016
C13	C	-3.800445	-0.234971	-0.232886
C14	C	-3.838012	-0.319667	-0.232503
C15	C	-3.800446	-0.101148	-0.366709
C16	C	-3.838012	-0.100762	-0.451404
C17	C	-4.037393	-0.363349	-0.236136
C18	C	-4.072682	-0.442930	-0.235781
C19	C	-3.908585	-0.478826	-0.231789
C20	C	-3.709188	-0.435138	-0.228158
C21	C	-3.673905	-0.355560	-0.228518
C22	C	-3.851479	-0.756070	-0.226707
C23	C	-3.886778	-0.835654	-0.226345
C24	C	-4.250256	-0.843439	-0.233970
C25	C	-4.214973	-0.763861	-0.234330
C26	C	-4.015583	-0.720181	-0.230704
C27	C	-3.977322	-0.633891	-0.231090
C28	C	-3.946841	-0.565114	-0.231397
C29	C	-4.037396	-0.104399	-0.495087
C30	C	-4.072681	-0.104036	-0.574666
C31	C	-3.908583	-0.100042	-0.610563
C32	C	-3.709182	-0.096403	-0.566874
C33	C	-3.673896	-0.096760	-0.487295
C34	C	-3.851479	-0.094960	-0.887806
C35	C	-3.886782	-0.094605	-0.967391
C36	C	-4.250264	-0.102236	-0.975178
C37	C	-4.214978	-0.102593	-0.895599
C38	C	-4.015580	-0.098950	-0.851916
C39	C	-3.977321	-0.099342	-0.765627
C40	C	-3.946842	-0.099655	-0.696851
C41	C	-4.144494	0.035967	-0.229596
C42	C	-4.086164	0.120662	-0.229983
C43	C	-4.144493	-0.097854	-0.095770
C44	C	-4.086166	-0.098236	-0.011075
H45	H	-4.235035	-0.478493	-0.238741
H46	H	-3.511552	-0.319995	-0.225564
O47	O	-3.727584	-0.870628	-0.222576
C48	C	-3.771590	-0.926954	-0.288470
H49	H	-3.946168	-0.945766	-0.313833
H50	H	-3.711739	-0.978897	-0.271686
H51	H	-3.692449	-0.901747	-0.333173
O52	O	-4.374627	-0.729119	-0.238247
C53	C	-4.558170	-0.784737	-0.241359
H54	H	-4.542643	-0.844174	-0.264226
H55	H	-4.694405	-0.770375	-0.281311
H56	H	-4.585880	-0.784636	-0.181058
O57	O	-3.657828	-0.713550	-0.223071
C58	C	-3.592056	-0.656764	-0.156716
H59	H	-3.733078	-0.644704	-0.137978
H60	H	-3.498044	-0.601528	-0.170264
H61	H	-3.491861	-0.678140	-0.108250
O62	O	-4.443812	-0.885937	-0.237394
C63	C	-4.440635	-0.921650	-0.171083
H64	H	-4.276635	-0.926682	-0.145611
H65	H	-4.550132	-0.981626	-0.187359
H66	H	-4.492572	-0.885522	-0.126658
O67	O	-3.480186	-0.093100	-0.444803
C68	C	-3.414449	-0.026767	-0.387990
H69	H	-3.504115	0.017535	-0.406819
H70	H	-3.241732	-0.001140	-0.380101
H71	H	-3.444340	-0.043058	-0.331108
H72	H	-3.575582	-0.464372	-0.224912
H73	H	-4.171022	-0.334127	-0.239380
H74	H	-4.348609	-0.105850	-0.866377
H75	H	-3.575570	-0.093146	-0.596106
O76	O	-4.197024	-0.108385	-0.460323
C77	C	-4.350657	-0.176949	-0.492662
H78	H	-4.336087	-0.197716	-0.552846
H79	H	-4.510377	-0.165509	-0.496581
H80	H	-4.329743	-0.223064	-0.454711
H81	H	-4.235033	-0.106993	-0.610229
H82	H	-4.412626	-0.105199	-1.010753
O83	O	-3.657963	-0.091505	-0.845279
C84	C	-3.662025	-0.092751	-0.767354
H85	H	-3.800612	-0.071729	-0.755933
H86	H	-3.513077	-0.053385	-0.728695
H87	H	-3.675667	-0.154144	-0.754420
O88	O	-3.727114	-0.090681	-1.002134
C89	C	-3.543560	-0.087558	-0.946518
H90	H	-3.559083	-0.064688	-0.887081
H91	H	-3.407339	-0.047603	-0.960885
H92	H	-3.515829	-0.147856	-0.946615
