data_functionalizedCrystal
_audit_creation_method	'MofGen! by Chris Wilmer'
_symmetry_space_group_name_H-M	'P1'
_symmetry_Int_Tables_number	1
_symmetry_cell_setting	triclinic
loop_
_symmetry_equiv_pos_as_xyz
  x,y,z
_cell_length_a	11.026607
_cell_length_b	17.000371
_cell_length_c	9.482900
_cell_angle_alpha	98.589545
_cell_angle_beta	78.636152
_cell_angle_gamma	92.092632
loop_
_atom_site_label
_atom_site_type_symbol
_atom_site_fract_x
_atom_site_fract_y
_atom_site_fract_z
O1	O	1.595075	0.318675	-0.120907
O2	O	1.245757	0.281293	-0.120907
O3	O	1.442104	0.187226	-0.120897
O4	O	1.398728	0.412742	-0.120917
O5	O	1.402211	0.206432	0.120894
O6	O	1.205864	0.300499	0.120883
O7	O	1.555182	0.337880	0.120884
Cu8	Cu	1.376881	0.320943	0.142961
Cu9	Cu	1.424059	0.298230	-0.142984
O10	O	1.358835	0.431947	0.120873
C11	C	1.181336	0.284000	-0.000012
C12	C	1.048816	0.263442	-0.000012
C13	C	0.968954	0.320205	-0.000018
C14	C	0.831987	0.298959	-0.000018
C15	C	1.424488	0.167509	-0.000002
C16	C	1.431416	0.080143	-0.000003
C17	C	1.324797	0.032840	-0.000010
C18	C	1.331313	-0.049249	-0.000006
C19	C	1.444452	-0.084034	-0.000006
C20	C	1.551079	-0.036725	0.000005
C21	C	1.544560	0.045363	0.000012
C22	C	1.469632	-0.331573	-0.000016
C23	C	1.476145	-0.413668	-0.000026
C24	C	1.256377	-0.426186	-0.000035
C25	C	1.249869	-0.344096	-0.000037
C26	C	1.356495	-0.296794	-0.000019
C27	C	1.451117	-0.167942	-0.000006
C28	C	1.349827	-0.212886	-0.000008
C29	C	1.619604	0.335173	-0.000015
C30	C	1.752126	0.355730	-0.000024
C31	C	1.376452	0.451664	-0.000025
C32	C	1.369525	0.539029	-0.000033
N33	N	1.343707	0.336918	0.344079
N34	N	1.457242	0.282250	-0.344103
C35	C	1.414266	0.302937	0.416282
C36	C	1.386673	0.316236	0.583698
H37	H	1.015793	0.199113	-0.000043
Cl38	Cl	1.593344	-0.211679	-0.000000
H39	H	0.785145	0.420062	-0.000021
Cl40	Cl	1.182558	0.076561	-0.000019
H41	H	0.798970	0.234626	-0.000050
Cl42	Cl	1.261853	0.376354	0.679600
Cl43	Cl	1.197271	-0.108712	-0.000018
Cl44	Cl	1.538823	0.242604	0.320376
Cl45	Cl	1.122342	-0.485656	-0.000054
Cl46	Cl	1.582294	0.222331	0.560000
Cl47	Cl	1.107634	-0.300374	-0.000054
Cl48	Cl	1.618389	-0.457397	-0.000036
H49	H	1.262867	0.375853	0.406205
Cl50	Cl	1.603686	-0.272122	-0.000043
H51	H	1.643198	-0.065052	0.000015
H52	H	1.001981	0.384532	-0.000016
Cl53	Cl	1.678600	0.104832	0.000035
H54	H	1.257709	-0.184560	0.000001
