data_functionalizedCrystal
_audit_creation_method	'MofGen! by Chris Wilmer'
_symmetry_space_group_name_H-M	'P1'
_symmetry_Int_Tables_number	1
_symmetry_cell_setting	triclinic
loop_
_symmetry_equiv_pos_as_xyz
  x,y,z
_cell_length_a	16.959455
_cell_length_b	14.908932
_cell_length_c	14.910749
_cell_angle_alpha	89.767961
_cell_angle_beta	93.222740
_cell_angle_gamma	93.296731
loop_
_atom_site_label
_atom_site_type_symbol
_atom_site_fract_x
_atom_site_fract_y
_atom_site_fract_z
Zn1	Zn	1.164690	-0.387146	-0.487661
Zn2	Zn	1.165376	-0.528917	-0.328684
Zn3	Zn	1.040415	-0.378565	-0.337353
Zn4	Zn	1.025354	-0.537457	-0.478967
O5	O	1.098959	-0.458021	-0.408166
O6	O	1.275391	-0.405969	-0.466583
O7	O	1.155389	-0.501808	-0.204036
O8	O	1.062917	-0.253875	-0.364558
O9	O	1.275894	-0.510128	-0.349783
O10	O	1.154221	-0.260179	-0.474989
O11	O	1.063581	-0.391345	-0.210405
O12	O	0.927807	-0.399626	-0.356128
O13	O	1.037247	-0.524683	-0.605918
O14	O	0.916742	-0.516363	-0.460171
O15	O	1.139617	-0.414250	-0.612306
O16	O	1.140785	-0.655879	-0.341352
O17	O	1.037912	-0.662153	-0.451764
C18	C	0.893595	-0.457990	-0.408147
C19	C	0.805737	-0.458000	-0.408159
C20	C	1.087809	-0.691643	-0.394694
C21	C	1.083110	-0.791589	-0.388960
C22	C	1.086675	-0.471376	-0.642642
C23	C	1.081441	-0.477067	-0.742562
C24	C	0.439993	-0.397196	-0.354114
C25	C	0.428521	-0.518924	-0.462265
C26	C	0.511067	-0.518910	-0.462261
C27	C	0.558081	-0.458040	-0.408181
C28	C	0.522548	-0.397183	-0.354105
C29	C	0.546607	-0.579772	-0.516328
C30	C	0.629158	-0.579762	-0.516325
C31	C	0.676174	-0.518887	-0.462249
C32	C	0.640636	-0.458027	-0.408172
C33	C	0.687649	-0.397156	-0.354092
C34	C	0.652113	-0.336291	-0.300019
C35	C	0.569563	-0.336307	-0.300029
C36	C	0.758723	-0.518871	-0.462239
C37	C	0.770204	-0.397143	-0.354084
C38	C	1.305124	-0.458053	-0.408185
C39	C	1.392980	-0.458066	-0.408194
C40	C	1.110172	-0.223489	-0.421710
C41	C	1.114951	-0.123545	-0.427482
C42	C	1.028837	0.070827	-0.323339
C43	C	1.033324	0.164733	-0.328760
C44	C	1.128409	0.158176	-0.443747
C45	C	1.123921	0.064270	-0.438327
C46	C	1.074135	0.020598	-0.378120
C47	C	1.069652	-0.073309	-0.372696
C48	C	1.164732	-0.079865	-0.487687
C49	C	1.169219	0.014041	-0.493107
C50	C	1.111243	-0.444653	-0.174606
C51	C	1.116642	-0.438709	-0.074701
C52	C	1.020895	-0.543334	0.120223
C53	C	1.025965	-0.537752	0.214092
C54	C	1.131849	-0.421958	0.206908
C55	C	1.126778	-0.427541	0.113039
C56	C	1.071300	-0.488232	0.069700
C57	C	1.066234	-0.493818	-0.024171
C58	C	1.172114	-0.378020	-0.031354
C59	C	1.177184	-0.372438	0.062516
H60	H	0.690402	-0.286734	-0.255983
H61	H	1.213159	-0.333153	-0.072500
H62	H	0.390237	-0.568486	-0.506289
H63	H	0.411056	-0.347639	-0.310092
H64	H	0.540622	-0.286755	-0.256005
C65	C	1.193907	-0.117442	-0.638245
C66	C	1.214535	-0.135072	-0.547905
H67	H	1.224661	-0.151520	-0.675415
H68	H	1.139385	-0.133589	-0.650511
H69	H	1.203701	-0.055261	-0.650077
H70	H	1.204736	-0.197252	-0.536071
H71	H	1.269070	-0.118931	-0.535634
C72	C	0.953671	-0.513430	-0.128720
C73	C	1.005256	-0.560526	-0.071816
H74	H	0.916028	-0.554615	-0.158136
H75	H	0.927028	-0.472330	-0.094384
H76	H	0.982975	-0.481416	-0.172242
H77	H	0.975952	-0.592535	-0.028290
H78	H	1.031901	-0.601642	-0.106155
C79	C	1.231978	-0.312473	0.203222
C80	C	1.238169	-0.305736	0.110160
H81	H	1.269635	-0.271299	0.232633
H82	H	1.180240	-0.298812	0.217943
H83	H	1.241875	-0.371877	0.222206
H84	H	1.228266	-0.246334	0.091175
H85	H	1.289919	-0.319392	0.095433
H86	H	0.808478	-0.347569	-0.310050
H87	H	0.508323	-0.629336	-0.560351
H88	H	0.658085	-0.629322	-0.560355
C89	C	0.997981	0.311594	-0.286014
C90	C	0.983533	0.219946	-0.268543
H91	H	0.967235	0.345678	-0.248841
H92	H	1.052506	0.327722	-0.273744
H93	H	0.983987	0.323537	-0.347305
H94	H	0.997532	0.208002	-0.207253
H95	H	0.928995	0.203812	-0.280807
C96	C	0.739087	-0.639196	-0.569139
C97	C	0.797785	-0.585764	-0.521673
H98	H	0.763204	-0.680490	-0.605838
H99	H	0.707310	-0.671301	-0.527937
H100	H	0.706948	-0.602033	-0.605847
H101	H	0.829922	-0.622927	-0.484960
H102	H	0.829576	-0.553657	-0.562880
C103	C	0.916748	-0.657237	0.136749
C104	C	0.959919	-0.610046	0.072578
H105	H	0.879100	-0.698419	0.107334
H106	H	0.951752	-0.689172	0.175343
H107	H	0.890101	-0.616123	0.171080
H108	H	0.986570	-0.651160	0.038252
H109	H	0.924909	-0.578109	0.033968
H110	H	0.984915	-0.582617	0.255225
C111	C	0.976108	-0.057393	-0.259591
C112	C	1.014923	-0.121316	-0.306523
H113	H	0.942315	-0.087031	-0.218744
H114	H	1.014094	-0.018816	-0.227318
H115	H	0.945579	-0.022990	-0.300884
H116	H	1.045457	-0.155714	-0.265229
H117	H	0.976932	-0.159909	-0.338797
H118	H	0.988303	0.035269	-0.274312
H119	H	1.168938	0.193745	-0.492772
H120	H	1.177012	-0.372542	0.242211
C121	C	1.218322	0.155083	-0.552470
C122	C	1.223947	0.062050	-0.559280
H123	H	1.252115	0.184718	-0.593318
H124	H	1.165267	0.169724	-0.566520
H125	H	1.233782	0.173901	-0.492953
H126	H	1.208480	0.043231	-0.618795
H127	H	1.277013	0.047403	-0.545235
