data_functionalizedCrystal
_audit_creation_method	'MofGen! by Chris Wilmer'
_symmetry_space_group_name_H-M	'P1'
_symmetry_Int_Tables_number	1
_symmetry_cell_setting	triclinic
loop_
_symmetry_equiv_pos_as_xyz
  x,y,z
_cell_length_a	12.759401
_cell_length_b	18.215405
_cell_length_c	12.759393
_cell_angle_alpha	90.033485
_cell_angle_beta	90.019676
_cell_angle_gamma	90.023158
loop_
_atom_site_label
_atom_site_type_symbol
_atom_site_fract_x
_atom_site_fract_y
_atom_site_fract_z
Zn1	Zn	1.606208	-0.292940	0.593963
Zn2	Zn	1.939541	0.040393	0.927296
Zn3	Zn	2.272874	0.373726	1.260630
Zn4	Zn	1.606074	-0.416024	0.418274
Zn5	Zn	1.939408	-0.082691	0.751607
Zn6	Zn	2.272741	0.250642	1.084941
Zn7	Zn	1.430506	-0.292977	0.418302
Zn8	Zn	1.763840	0.040356	0.751635
Zn9	Zn	2.097173	0.373690	1.084969
Zn10	Zn	1.430474	-0.415971	0.593915
Zn11	Zn	1.763807	-0.082637	0.927248
Zn12	Zn	2.097140	0.250696	1.260582
O13	O	1.518316	-0.354478	0.506113
O14	O	1.851649	-0.021145	0.839447
O15	O	2.184982	0.312189	1.172780
O16	O	1.753211	-0.309275	0.570666
O17	O	2.086544	0.024059	0.903999
O18	O	2.419878	0.357392	1.237332
O19	O	1.582743	-0.399740	0.271256
O20	O	1.916076	-0.066406	0.604590
O21	O	2.249409	0.266927	0.937923
O22	O	1.453883	-0.189988	0.441636
O23	O	1.787217	0.143345	0.774969
O24	O	2.120550	0.476679	1.108302
O25	O	1.753113	-0.399704	0.441588
O26	O	2.086446	-0.066371	0.774921
O27	O	2.419780	0.266963	1.108254
O28	O	1.582970	-0.189961	0.570693
O29	O	1.916303	0.143372	0.904026
O30	O	2.249637	0.476706	1.237360
O31	O	1.453754	-0.309337	0.271277
O32	O	1.787087	0.023996	0.604610
O33	O	2.120420	0.357329	0.937944
O34	O	1.283481	-0.309285	0.441589
O35	O	1.616814	0.024048	0.774922
O36	O	1.950148	0.357381	1.108256
O37	O	1.453827	-0.399612	0.740942
O38	O	1.787161	-0.066279	1.074276
O39	O	2.120494	0.267054	1.407609
O40	O	1.283457	-0.399648	0.570611
O41	O	1.616790	-0.066315	0.903944
O42	O	1.950124	0.267019	1.237278
O43	O	1.582938	-0.309223	0.740978
O44	O	1.916272	0.024111	1.074311
O45	O	2.249605	0.357444	1.407644
O46	O	1.582711	-0.519001	0.441541
O47	O	1.916044	-0.185668	0.774875
O48	O	2.249377	0.147665	1.108208
O49	O	1.453698	-0.518962	0.570584
O50	O	1.787031	-0.185629	0.903917
O51	O	2.120365	0.147705	1.237251
C52	C	1.245348	-0.354465	0.506099
C53	C	1.578681	-0.021132	0.839432
C54	C	1.912015	0.312201	1.172765
C55	C	1.128572	-0.354478	0.506117
C56	C	1.461905	-0.021144	0.839450
C57	C	1.795238	0.312189	1.172784
C58	C	1.073761	-0.307476	0.573432
C59	C	1.407095	0.025857	0.906765
C60	C	1.740428	0.359190	1.240098
C61	C	0.964037	-0.307484	0.573439
C62	C	1.297371	0.025850	0.906772
C63	C	1.630704	0.359183	1.240105
C64	C	0.963943	-0.401500	0.438814
C65	C	1.297277	-0.068167	0.772147
C66	C	1.630610	0.265166	1.105480
C67	C	1.073665	-0.401489	0.438802
C68	C	1.406999	-0.068155	0.772135
C69	C	1.740332	0.265178	1.105469
C70	C	1.518215	-0.545684	0.506077
C71	C	1.851548	-0.212351	0.839411
C72	C	2.184881	0.120982	1.172744
C73	C	1.518268	-0.627483	0.506097
C74	C	1.851601	-0.294150	0.839430
C75	C	2.184935	0.039183	1.172764
C76	C	1.585515	-0.815602	0.573388
C77	C	1.918849	-0.482269	0.906721
C78	C	2.252182	-0.148935	1.240055
C79	C	1.585554	-0.892461	0.573408
C80	C	1.918887	-0.559127	0.906741
C81	C	2.252220	-0.225794	1.240074
C82	C	1.451245	-0.892602	0.438904
C83	C	1.784579	-0.559269	0.772237
C84	C	2.117912	-0.225935	1.105571
C85	C	1.451203	-0.815745	0.438890
C86	C	1.784536	-0.482411	0.772224
C87	C	2.117870	-0.149078	1.105557
C88	C	1.518344	-0.777247	0.506131
C89	C	1.851677	-0.443913	0.839464
C90	C	2.185010	-0.110580	1.172797
C91	C	1.518425	-0.930963	0.506164
C92	C	1.851758	-0.597629	0.839497
C93	C	2.185091	-0.264296	1.172831
C94	C	1.518465	-1.014296	0.506185
C95	C	1.851799	-0.680963	0.839518
C96	C	2.185132	-0.347630	1.172852
C97	C	1.518302	-0.693908	0.506112
C98	C	1.851635	-0.360574	0.839445
C99	C	2.184969	-0.027241	1.172778
C100	C	1.792349	-0.354491	0.506129
C101	C	2.125682	-0.021158	0.839462
C102	C	2.459015	0.312175	1.172796
C103	C	1.909125	-0.354497	0.506136
C104	C	2.242459	-0.021164	0.839469
C105	C	2.575792	0.312170	1.172802
C106	C	1.518394	-0.354407	0.780147
C107	C	1.851727	-0.021074	1.113480
C108	C	2.185061	0.312259	1.446814
C109	C	1.518428	-0.354377	0.896924
C110	C	1.851761	-0.021044	1.230257
C111	C	2.185094	0.312289	1.563590
C112	C	1.518445	-0.162525	0.506173
C113	C	1.851779	0.170808	0.839506
C114	C	2.185112	0.504142	1.172839
C115	C	1.518500	-0.080726	0.506198
C116	C	1.851834	0.252607	0.839531
C117	C	2.185167	0.585940	1.172865
C118	C	1.518298	-0.354495	0.233146
C119	C	1.851631	-0.021162	0.566479
C120	C	2.184964	0.312171	0.899813
C121	C	1.518468	-0.354318	0.116370
C122	C	1.851801	-0.020985	0.449703
C123	C	2.185134	0.312349	0.783037
C124	C	1.585661	-0.307304	0.951806
C125	C	1.918994	0.026030	1.285139
C126	C	2.252327	0.359363	1.618472
C127	C	1.585679	-0.307272	1.061530
C128	C	1.919012	0.026061	1.394863
C129	C	2.252345	0.359395	1.728196
C130	C	1.451227	-0.401394	1.061480
C131	C	1.784561	-0.068060	1.394814
C132	C	2.117894	0.265273	1.728147
C133	C	1.451205	-0.401421	0.951758
C134	C	1.784538	-0.068088	1.285091
C135	C	2.117872	0.265246	1.618425
H136	H	1.118293	-0.439764	0.383981
H137	H	1.451626	-0.106430	0.717314
H138	H	1.784960	0.226903	1.050648
F139	F	1.379637	-0.451522	0.893345
F140	F	1.712971	-0.118189	1.226678
F141	F	2.046304	0.215144	1.560012
H142	H	1.118463	-0.269194	0.628241
H143	H	1.451796	0.064139	0.961574
H144	H	1.785129	0.397472	1.294907
H145	H	0.919416	-0.269209	0.628251
H146	H	1.252749	0.064124	0.961585
H147	H	1.586082	0.397457	1.294918
H148	H	0.919225	-0.439776	0.384009
H149	H	1.252559	-0.106443	0.717342
H150	H	1.585892	0.226891	1.050676
H151	H	1.640395	-0.268996	0.907163
H152	H	1.973728	0.064338	1.240496
H153	H	2.307062	0.397671	1.573829
H154	H	1.640184	-0.784259	0.628141
H155	H	1.973517	-0.450925	0.961474
H156	H	2.306851	-0.117592	1.294807
H157	H	1.640425	-0.268939	1.106210
H158	H	1.973758	0.064394	1.439543
H159	H	2.307091	0.397728	1.772877
H160	H	1.640249	-0.923686	0.628178
H161	H	1.973582	-0.590353	0.961511
H162	H	2.306916	-0.257020	1.294844
F163	F	1.379699	-0.774922	0.367309
F164	F	1.713032	-0.441588	0.700642
F165	F	2.046366	-0.108255	1.033975
F166	F	1.379792	-0.933581	0.367347
F167	F	1.713125	-0.600247	0.700681
F168	F	2.046459	-0.266914	1.034014
H169	H	1.396499	-0.439697	1.106140
H170	H	1.729832	-0.106363	1.439473
H171	H	2.063166	0.226970	1.772806
