data_functionalizedCrystal
_audit_creation_method	'MofGen! by Chris Wilmer'
_symmetry_space_group_name_H-M	'P1'
_symmetry_Int_Tables_number	1
_symmetry_cell_setting	triclinic
loop_
_symmetry_equiv_pos_as_xyz
  x,y,z
_cell_length_a	17.077402
_cell_length_b	17.077404
_cell_length_c	17.077396
_cell_angle_alpha	90.019699
_cell_angle_beta	89.970962
_cell_angle_gamma	89.977703
loop_
_atom_site_label
_atom_site_type_symbol
_atom_site_fract_x
_atom_site_fract_y
_atom_site_fract_z
Zn1	Zn	-0.312570	-1.200042	-0.443844
Zn2	Zn	-0.443844	-1.199944	-0.312576
Zn3	Zn	-0.312590	-1.068774	-0.312591
Zn4	Zn	-0.443791	-1.068736	-0.443800
O5	O	-0.378199	-1.134374	-0.378203
O6	O	-0.329997	-1.309876	-0.426443
O7	O	-0.426464	-1.182518	-0.202731
O8	O	-0.202740	-1.086243	-0.330027
O9	O	-0.426445	-1.309803	-0.330002
O10	O	-0.202725	-1.182686	-0.426458
O11	O	-0.330032	-1.086148	-0.202742
O12	O	-0.329980	-0.958922	-0.329984
O13	O	-0.426353	-1.086180	-0.553652
O14	O	-0.426373	-0.958894	-0.426382
O15	O	-0.329945	-1.182649	-0.553685
O16	O	-0.553684	-1.182482	-0.329959
O17	O	-0.553645	-1.086084	-0.426368
C18	C	-0.378173	-0.930426	-0.378180
C19	C	-0.378181	-0.843176	-0.378189
C20	C	-0.328050	-0.802224	-0.428482
C21	C	-0.328054	-0.720244	-0.428484
C22	C	-0.378193	-0.679217	-0.378196
C23	C	-0.428327	-0.720174	-0.327898
C24	C	-0.428318	-0.802153	-0.327893
C25	C	-0.428342	-0.549304	-0.327913
C26	C	-0.428351	-0.467320	-0.327919
C27	C	-0.328077	-0.467395	-0.428505
C28	C	-0.328069	-0.549374	-0.428499
C29	C	-0.378204	-0.590326	-0.378202
C30	C	-0.582147	-1.134290	-0.378174
C31	C	-0.669396	-1.134326	-0.378188
C32	C	-1.045139	-1.184677	-0.428506
C33	C	-0.963159	-1.184642	-0.428487
C34	C	-0.922245	-1.134450	-0.378235
C35	C	-0.963316	-1.084295	-0.327992
C36	C	-1.045295	-1.084335	-0.328007
C37	C	-0.792446	-1.084214	-0.327965
C38	C	-0.710462	-1.084173	-0.327951
C39	C	-0.710310	-1.184521	-0.428446
C40	C	-0.792289	-1.184561	-0.428461
C41	C	-0.833354	-1.134405	-0.378218
C42	C	-0.173454	-1.134480	-0.378249
C43	C	-0.086204	-1.134525	-0.378268
C44	C	-0.378141	-1.134421	-0.582947
C45	C	-0.378116	-1.134442	-0.670197
C46	C	-0.378221	-0.339118	-0.378220
C47	C	-0.378220	-0.426368	-0.378212
C48	C	-0.327913	-1.184675	-0.711205
C49	C	-0.327886	-1.184685	-0.793186
C50	C	-0.378068	-1.134464	-0.834157
C51	C	-0.428274	-1.084225	-0.793142
C52	C	-0.428296	-1.084212	-0.711163
C53	C	-0.428227	-1.084256	-0.964013
C54	C	-0.428207	-1.084270	-1.045997
C55	C	-0.327818	-1.184729	-1.046035
C56	C	-0.327839	-1.184716	-0.964056
C57	C	-0.378046	-1.134478	-0.923048
C58	C	-0.378200	-1.134372	-0.174255
C59	C	-0.378003	-1.134504	-0.087006
H60	H	-0.287222	-0.835623	-0.469435
H61	H	-0.469180	-0.433918	-0.286971
C62	C	-1.090137	-1.239893	-0.483782
H63	H	-1.053936	-1.269762	-0.513693
H64	H	-1.122122	-1.209867	-0.517966
H65	H	-1.122105	-1.274129	-0.453782
H66	H	-0.825879	-1.043373	-0.287051
H67	H	-1.078729	-1.043495	-0.287098
H68	H	-0.287233	-0.686905	-0.469439
H69	H	-0.676870	-1.225360	-0.469354
H70	H	-0.286981	-1.225615	-0.930700
C71	C	-0.483462	-0.847204	-0.272573
H72	H	-0.476271	-0.901903	-0.279766
H73	H	-0.536221	-0.833760	-0.283964
H74	H	-0.471900	-0.833749	-0.219851
H75	H	-0.930000	-1.043430	-0.287071
C76	C	-0.272916	-0.594503	-0.483813
H77	H	-0.243053	-0.558374	-0.513764
H78	H	-0.302983	-0.626490	-0.517958
H79	H	-0.238671	-0.626478	-0.453836
C80	C	-0.272600	-1.239999	-1.091140
H81	H	-0.279769	-1.232813	-1.145832
H82	H	-0.284112	-1.292728	-1.077708
H83	H	-0.219853	-1.228545	-1.077719
C84	C	-0.917990	-1.239818	-0.483741
H85	H	-0.954098	-1.269712	-0.513675
H86	H	-0.886008	-1.274020	-0.453730
H87	H	-0.886007	-1.209760	-0.517915
C88	C	-0.272708	-1.239915	-0.666145
H89	H	-0.242799	-1.269827	-0.702312
H90	H	-0.302743	-1.274099	-0.634161
H91	H	-0.238508	-1.209891	-0.634171
H92	H	-0.825598	-1.225430	-0.469383
C93	C	-0.665458	-1.028964	-0.272673
H94	H	-0.701654	-0.999106	-0.242745
H95	H	-0.633489	-0.994730	-0.302665
H96	H	-0.633473	-1.059002	-0.238493
C97	C	-0.483401	-1.029024	-1.091064
H98	H	-0.513298	-0.999094	-1.054901
H99	H	-0.517600	-1.059037	-1.123041
H100	H	-0.453350	-0.994846	-1.123045
C101	C	-0.272666	-1.239945	-0.838292
H102	H	-0.242791	-1.269860	-0.802150
H103	H	-0.238448	-1.209945	-0.870274
H104	H	-0.302697	-1.274137	-0.870270
H105	H	-0.469099	-1.043335	-0.930626
H106	H	-0.469130	-1.043331	-0.826507
C107	C	-0.272928	-0.422352	-0.483829
H108	H	-0.280106	-0.367652	-0.476625
H109	H	-0.284485	-0.435804	-0.536549
H110	H	-0.220167	-0.435800	-0.472433
H111	H	-0.469169	-1.043299	-0.677776
C112	C	-0.483481	-0.675050	-0.272582
H113	H	-0.513332	-0.711183	-0.242623
H114	H	-0.517725	-0.643074	-0.302550
H115	H	-0.453409	-0.643065	-0.238432
H116	H	-0.469165	-0.582645	-0.286954
