data_functionalizedCrystal
_audit_creation_method	'MofGen! by Chris Wilmer'
_symmetry_space_group_name_H-M	'P1'
_symmetry_Int_Tables_number	1
_symmetry_cell_setting	triclinic
loop_
_symmetry_equiv_pos_as_xyz
  x,y,z
_cell_length_a	12.478026
_cell_length_b	12.477989
_cell_length_c	20.875619
_cell_angle_alpha	54.209502
_cell_angle_beta	81.730355
_cell_angle_gamma	61.136354
loop_
_atom_site_label
_atom_site_type_symbol
_atom_site_fract_x
_atom_site_fract_y
_atom_site_fract_z
Zr1	Zr	1.130874	1.178096	-0.192722
O2	O	0.982715	1.402634	-0.295731
O3	O	1.165502	0.953556	-0.154462
O4	O	1.192777	1.178094	-0.298564
O5	O	0.946200	1.178099	-0.045559
O6	O	1.370753	1.178094	-0.308400
O7	O	0.955440	1.178097	-0.151628
O8	O	1.321964	0.776437	-0.050627
O9	O	0.994990	1.579755	-0.303332
O10	O	1.326130	1.045913	-0.153558
O11	O	1.186413	1.045914	-0.067059
O12	O	1.218525	1.310279	-0.236721
O13	O	1.078808	1.310280	-0.150222
Zr14	Zr	1.399989	1.178099	-0.039240
Zr15	Zr	1.414726	1.178095	-0.208409
Zr16	Zr	1.116138	1.178099	-0.023553
Zr17	Zr	1.150452	1.460583	-0.204845
Zr18	Zr	1.380412	0.895611	-0.027118
O19	O	1.365362	1.402638	-0.077500
O20	O	1.386315	1.402634	-0.318037
O21	O	0.961761	1.402639	-0.055195
O22	O	1.548149	0.953560	0.063769
O23	O	1.569102	0.953556	-0.176767
O24	O	1.144549	0.953561	0.086074
O25	O	1.584664	1.178096	-0.186403
O26	O	1.338087	1.178101	0.066602
O27	O	1.160111	1.178101	0.076438
O28	O	1.575424	1.178098	-0.080334
O29	O	1.220614	1.579755	-0.315802
O30	O	1.310250	0.776439	0.083839
O31	O	1.535874	0.776439	0.071370
O32	O	1.547588	0.776437	-0.063097
O33	O	0.983276	1.579758	-0.168866
O34	O	1.208900	1.579757	-0.181335
O35	O	1.312339	1.045916	0.004759
O36	O	1.452056	1.045914	-0.081740
O37	O	1.344451	1.310280	-0.164903
O38	O	1.204734	1.310281	-0.078404
C39	C	1.240944	0.824748	-0.100817
C40	C	1.232632	0.704825	-0.095671
C41	C	0.910377	1.178098	-0.096359
C42	C	0.789875	1.178098	-0.089699
C43	C	1.620487	1.178097	-0.135604
C44	C	1.740989	1.178097	-0.142263
C45	C	1.283865	1.178093	-0.327585
C46	C	1.290121	1.178092	-0.399402
C47	C	1.289920	1.531446	-0.131145
C48	C	1.298231	1.651370	-0.136291
C49	C	1.335852	1.178106	-0.804242
C50	C	1.329970	1.178112	-0.736764
C51	C	1.228982	1.178103	-0.697602
C52	C	1.133864	1.178105	-0.725927
C53	C	1.139743	1.178110	-0.793407
C54	C	1.200882	1.178098	-0.495206
C55	C	1.195012	1.178088	-0.427721
C56	C	1.391117	1.178099	-0.438563
C57	C	1.396991	1.178094	-0.506041
C58	C	1.301870	1.178103	-0.534362
N59	N	1.222969	1.178105	-0.628627
N60	N	1.307880	1.178113	-0.603340
C61	C	1.246999	1.178101	0.095623
C62	C	1.240743	1.178103	0.167440
C63	C	1.595998	0.824748	-0.120440
C64	C	1.708190	0.704824	-0.121953
C65	C	1.222511	0.824752	0.110787
C66	C	1.207944	0.704830	0.187750
C67	C	1.577565	0.824752	0.091164
C68	C	1.683501	0.704829	0.161468
C69	C	0.953298	1.531443	-0.323127
C70	C	0.847363	1.651365	-0.393430
C71	C	0.934865	1.531447	-0.111522
C72	C	0.822674	1.651370	-0.110009
C73	C	1.308353	1.531442	-0.342749
C74	C	1.322920	1.651364	-0.419712
C75	C	1.266834	0.648514	0.261388
C76	C	1.253142	0.535850	0.333709
C77	C	1.180567	0.479497	0.332390
C78	C	1.121669	0.535824	0.258744
C79	C	1.135354	0.648493	0.186425
C80	C	1.806192	0.648512	0.149331
C81	C	1.905742	0.535848	0.215380
C82	C	1.882597	0.479496	0.293567
C83	C	1.759894	0.535825	0.305703
C84	C	1.660347	0.648494	0.239653
C85	C	0.724673	1.707696	-0.381293
C86	C	0.625125	1.820395	-0.447345
C87	C	0.648270	1.876753	-0.525531
C88	C	0.770973	1.820417	-0.537667
C89	C	0.870519	1.707728	-0.471617
C90	C	1.395505	1.707682	-0.418367
C91	C	1.409217	1.820347	-0.490677
C92	C	1.350335	1.876699	-0.564330
C93	C	1.277748	1.820370	-0.565673
C94	C	1.264044	1.707700	-0.493364
H95	H	1.170103	0.658855	-0.056962
N96	N	1.214238	1.881170	-0.645117
H97	H	1.166171	1.828404	-0.635006
H98	H	1.279143	1.861558	-0.677587
H99	H	1.831146	0.697328	-0.055912
N100	N	1.381073	0.712249	-0.187567
H101	H	1.375481	0.792151	-0.184094
H102	H	1.352951	0.758981	-0.245358
N103	N	2.038076	0.475105	0.202281
H104	H	2.037622	0.527895	0.142728
H105	H	2.077960	0.361991	0.230571
H106	H	0.791326	1.178088	-0.192361
H107	H	1.825060	0.694377	0.085673
H108	H	0.739538	1.178090	-0.039593
H109	H	1.468560	1.178093	-0.415498
N110	N	0.699677	1.646945	-0.296973
H111	H	0.742330	1.666546	-0.270400
H112	H	0.733098	1.533856	-0.264765
N113	N	1.734945	0.475016	0.390036
H114	H	1.642114	0.527780	0.387712
H115	H	1.777670	0.494623	0.416562
N116	N	1.071760	0.709243	0.107020
H117	H	1.102687	0.623278	0.102379
H118	H	1.091409	0.789220	0.061428
N119	N	1.694302	0.643925	-0.163126
H120	H	1.779102	0.564014	-0.158409
H121	H	1.655265	0.729929	-0.221847
H122	H	0.525224	1.866245	-0.437448
H123	H	1.062294	1.178110	-0.816464
H124	H	1.204934	1.661859	-0.494470
N125	N	1.528012	0.709224	0.252744
H126	H	1.518045	0.755970	0.281136
H127	H	1.508958	0.623167	0.286809
N128	N	1.444774	1.178119	-0.846479
H129	H	1.504128	1.178130	-0.818300
H130	H	1.413272	1.271974	-0.904233
N131	N	1.459021	1.646902	-0.338930
H132	H	1.428074	1.732865	-0.334285
H133	H	1.552208	1.600121	-0.336013
N134	N	0.540897	1.998295	-0.596767
H135	H	0.459664	2.025417	-0.577207
H136	H	0.541054	1.958999	-0.627534
H137	H	1.112770	1.178080	-0.395837
N138	N	1.432550	1.178119	-0.706220
H139	H	1.497420	1.178116	-0.741265
H140	H	1.472581	1.084271	-0.648936
H141	H	1.479223	1.178101	-0.537926
H142	H	0.789804	1.866318	-0.601334
H143	H	1.123432	1.178101	-0.518259
H144	H	1.051632	1.178107	-0.694040
H145	H	1.325932	0.694385	0.262477
H146	H	1.301111	0.490002	0.393667
H147	H	1.169433	0.387754	0.391283
N148	N	1.989972	0.357974	0.364802
H149	H	2.071205	0.330853	0.345242
H150	H	1.980616	0.264545	0.401264
N151	N	1.043405	0.475026	0.257325
H152	H	0.972719	0.494626	0.286498
H153	H	1.096990	0.361934	0.284812
N154	N	1.002848	1.646970	-0.484712
H155	H	1.002392	1.699777	-0.544267
H156	H	1.042718	1.533862	-0.456434
H157	H	1.468321	1.866198	-0.489567
H158	H	1.361503	1.968443	-0.623202
