data_functionalizedCrystal
_audit_creation_method	'MofGen! by Chris Wilmer'
_symmetry_space_group_name_H-M	'P1'
_symmetry_Int_Tables_number	1
_symmetry_cell_setting	triclinic
loop_
_symmetry_equiv_pos_as_xyz
  x,y,z
_cell_length_a	18.101398
_cell_length_b	18.101395
_cell_length_c	18.101389
_cell_angle_alpha	89.983159
_cell_angle_beta	89.975673
_cell_angle_gamma	90.026371
loop_
_atom_site_label
_atom_site_type_symbol
_atom_site_fract_x
_atom_site_fract_y
_atom_site_fract_z
Zn1	Zn	1.132121	-0.295001	-0.418847
Zn2	Zn	1.132017	-0.418826	-0.295009
Zn3	Zn	1.008280	-0.294993	-0.295008
Zn4	Zn	1.008231	-0.418795	-0.418797
O5	O	1.070162	-0.356904	-0.356915
O6	O	1.235740	-0.311443	-0.402440
O7	O	1.115580	-0.402410	-0.191376
O8	O	1.024772	-0.191361	-0.311456
O9	O	1.235664	-0.402417	-0.311457
O10	O	1.115757	-0.191367	-0.402440
O11	O	1.024671	-0.311430	-0.191375
O12	O	0.904641	-0.311399	-0.311408
O13	O	1.024688	-0.402363	-0.522437
O14	O	0.904604	-0.402356	-0.402355
O15	O	1.115710	-0.311412	-0.522473
O16	O	1.115532	-0.522455	-0.311409
O17	O	1.024587	-0.522432	-0.402356
C18	C	0.877752	-0.356874	-0.356877
C19	C	0.795437	-0.356879	-0.356878
C20	C	0.496347	-0.356925	-0.356940
C21	C	0.527670	-0.299412	-0.299997
C22	C	0.613288	-0.299566	-0.299754
C23	C	0.644729	-0.356901	-0.356909
C24	C	0.613611	-0.434909	-0.335587
C25	C	0.527966	-0.434590	-0.335191
C26	C	0.527961	-0.337109	-0.435339
C27	C	0.613612	-0.335371	-0.434911
C28	C	0.728589	-0.356893	-0.356893
C29	C	0.412487	-0.356939	-0.356954
C30	C	1.070063	-0.549314	-0.356893
C31	C	1.070088	-0.631628	-0.356909
C32	C	1.070251	-0.930719	-0.356949
C33	C	1.013163	-0.899410	-0.414312
C34	C	1.012892	-0.813792	-0.414133
C35	C	1.070170	-0.782337	-0.356930
C36	C	1.049041	-0.813472	-0.278878
C37	C	1.048673	-0.899117	-0.279221
C38	C	1.148593	-0.899073	-0.376950
C39	C	1.148132	-0.813422	-0.378661
C40	C	1.070126	-0.698477	-0.356914
C41	C	1.070293	-1.014579	-0.356959
C42	C	1.263324	-0.356934	-0.356954
C43	C	1.345638	-0.356948	-0.356971
C44	C	1.070205	-0.356885	-0.550077
C45	C	1.070223	-0.356877	-0.632391
C46	C	1.070282	-0.163742	-0.356953
C47	C	1.070333	-0.081428	-0.356970
C48	C	1.070266	-0.356738	-0.931482
C49	C	1.012801	-0.413780	-0.900134
C50	C	1.012956	-0.414045	-0.814516
C51	C	1.070244	-0.356807	-0.783100
C52	C	1.148270	-0.377998	-0.814206
C53	C	1.147949	-0.378372	-0.899851
C54	C	1.050385	-0.278379	-0.899905
C55	C	1.048649	-0.278832	-0.814254
C56	C	1.070237	-0.356845	-0.699240
C57	C	1.070279	-0.356702	-1.015342
C58	C	1.070162	-0.356869	-0.164505
C59	C	1.070287	-0.356668	-0.082191
H60	H	0.506389	-0.281216	-0.454725
H61	H	0.634329	-0.241719	-0.313119
H62	H	0.955448	-0.920990	-0.401230
Cl63	Cl	1.108563	-0.209730	-0.781249
Cl64	Cl	1.111215	-0.782017	-0.211087
H65	H	0.507099	-0.241388	-0.313215
H66	H	1.191125	-0.919319	-0.335170
Cl67	Cl	0.496686	-0.401782	-0.500844
H68	H	0.506120	-0.312363	-0.242242
Cl69	Cl	0.645034	-0.246749	-0.459745
Cl70	Cl	0.923627	-0.393568	-0.782039
Cl71	Cl	0.644872	-0.319786	-0.210062
Cl72	Cl	0.495969	-0.502991	-0.396425
H73	H	0.633975	-0.478909	-0.375763
Cl74	Cl	1.115005	-0.212763	-0.931206
H75	H	0.994478	-0.259074	-0.921490
Cl76	Cl	0.646669	-0.461310	-0.248053
Cl77	Cl	0.923197	-0.393514	-0.931909
Cl78	Cl	0.497066	-0.460535	-0.246703
Cl79	Cl	1.033298	-0.781286	-0.503487
Cl80	Cl	0.646653	-0.395338	-0.503926
Cl81	Cl	0.959992	-0.254161	-0.782872
H82	H	1.026252	-0.919970	-0.472374
H83	H	0.954823	-0.793362	-0.400884
Cl84	Cl	0.960257	-0.930054	-0.253066
Cl85	Cl	1.033264	-0.503710	-0.782890
Cl86	Cl	1.032820	-0.502898	-0.933424
H87	H	1.088449	-0.919830	-0.235023
H88	H	0.992380	-0.792080	-0.261633
Cl89	Cl	1.173969	-0.466810	-0.930710
H90	H	1.167856	-0.920633	-0.432895
Cl91	Cl	1.172736	-0.782003	-0.467347
Cl92	Cl	1.217278	-0.780354	-0.318863
Cl93	Cl	1.216153	-0.315871	-0.782795
H94	H	1.192217	-0.338629	-0.920590
H95	H	1.165415	-0.434671	-0.792765
