data_functionalizedCrystal
_audit_creation_method	'MofGen! by Chris Wilmer'
_symmetry_space_group_name_H-M	'P1'
_symmetry_Int_Tables_number	1
_symmetry_cell_setting	triclinic
loop_
_symmetry_equiv_pos_as_xyz
  x,y,z
_cell_length_a	15.944551
_cell_length_b	23.532407
_cell_length_c	15.021413
_cell_angle_alpha	89.999348
_cell_angle_beta	89.997174
_cell_angle_gamma	83.173708
loop_
_atom_site_label
_atom_site_type_symbol
_atom_site_fract_x
_atom_site_fract_y
_atom_site_fract_z
O1	O	1.113910	0.073442	-0.073949
O2	O	0.869284	0.082498	-0.073972
O3	O	0.998974	-0.004933	-0.073943
O4	O	0.984220	0.160873	-0.073977
O5	O	0.998953	-0.004921	0.074121
O6	O	0.869263	0.082510	0.074092
O7	O	1.113889	0.073455	0.074116
Zn8	Zn	0.991573	0.077985	0.097612
Zn9	Zn	0.991600	0.077968	-0.097469
O10	O	0.984200	0.160886	0.074087
C11	C	0.837983	0.082128	0.000057
C12	C	0.744746	0.081001	0.000049
C13	C	0.530369	0.024113	0.000078
C14	C	0.469137	0.050524	-0.072931
C15	C	0.574038	0.078962	0.000060
C16	C	0.469138	0.050549	0.073049
C17	C	0.409142	0.076989	0.000075
C18	C	0.514033	0.105388	-0.073009
C19	C	0.514041	0.105405	0.073036
C20	C	0.452826	0.131856	0.000010
C21	C	0.669030	0.080097	0.000051
C22	C	0.314150	0.075858	0.000077
C23	C	0.998588	-0.026144	0.000091
C24	C	0.997458	-0.089366	0.000098
C25	C	1.067121	-0.488199	0.000056
C26	C	1.066072	-0.547603	0.000049
O27	O	1.130650	-0.584098	0.000022
N28	N	0.988971	-0.570528	0.000042
C29	C	0.912915	-0.534045	0.000033
O30	O	0.847239	-0.558999	0.000026
C31	C	0.913965	-0.474642	0.000034
C32	C	0.991071	-0.451721	0.000049
C33	C	1.144220	-0.465277	0.000070
C34	C	1.145269	-0.405877	0.000079
C35	C	1.069219	-0.369399	0.000073
C36	C	0.992120	-0.392320	0.000058
C37	C	0.837910	-0.438160	0.000018
C38	C	0.838967	-0.378754	0.000018
C39	C	0.916072	-0.355832	0.000034
C40	C	0.917118	-0.296442	0.000060
N41	N	0.994219	-0.273517	0.000067
C42	C	1.070269	-0.309995	0.000073
C43	C	0.910716	-0.658796	0.000031
C44	C	0.909664	-0.718198	0.000037
C45	C	1.062821	-0.731752	0.000050
C46	C	1.063872	-0.672349	0.000051
C47	C	0.987816	-0.635871	0.000037
C48	C	1.072466	-0.185250	0.000092
C49	C	1.073508	-0.125844	0.000104
C50	C	0.920352	-0.112295	0.000085
C51	C	0.919309	-0.171696	0.000078
C52	C	0.995373	-0.208173	0.000078
O53	O	0.852574	-0.259913	0.000083
O54	O	1.135935	-0.285033	0.000069
C55	C	1.145190	0.073824	0.000084
C56	C	1.238427	0.074951	0.000087
C57	C	0.984586	0.182097	0.000051
C58	C	0.985715	0.245318	0.000038
N59	N	0.991561	0.077995	0.230750
N60	N	0.991619	0.077953	-0.230606
C61	C	0.931583	0.118404	0.470420
C62	C	1.007390	0.129461	0.529759
C63	C	0.991582	0.077981	0.412357
C64	C	0.915796	0.066938	0.529760
C65	C	0.991596	0.077969	0.587781
C66	C	1.067428	0.089063	0.470389
C67	C	0.975783	0.026518	0.470385
C68	C	1.051645	0.037552	0.529697
C69	C	0.991573	0.077990	0.311300
C70	C	0.991614	0.077960	0.688836
H71	H	0.533969	0.128590	0.134754
C72	C	1.152835	0.101730	0.435749
C73	C	1.142221	0.151535	0.383958
C74	C	1.220874	0.163243	0.352054
H75	H	1.177242	0.070584	0.400433
H76	H	1.188979	0.107046	0.484563
H77	H	1.106091	0.146216	0.335151
H78	H	1.117828	0.182692	0.419256
H79	H	1.257018	0.168559	0.400868
H80	H	1.245275	0.132093	0.316742
H81	H	1.213685	0.197039	0.316918
C82	C	1.226773	-0.504903	-0.000104
C83	C	1.230683	-0.539395	-0.076289
C84	C	1.306728	-0.575895	-0.076479
H85	H	1.229626	-0.528411	0.051470
H86	H	1.272856	-0.482754	-0.000144
H87	H	1.184612	-0.561542	-0.076240
H88	H	1.227844	-0.515903	-0.127875
H89	H	1.352812	-0.553747	-0.076519
H90	H	1.309575	-0.599399	-0.024901
H91	H	1.309395	-0.599298	-0.128173
H92	H	1.124746	-0.761464	0.000052
H93	H	1.020766	0.172977	0.555839
C94	C	0.575418	-0.036556	-0.000139
C95	C	0.626565	-0.044678	-0.075922
C96	C	0.668089	-0.100555	-0.076151
H97	H	0.534881	-0.063048	-0.000748
H98	H	0.609444	-0.042455	0.051722
H99	H	0.592541	-0.038786	-0.127769
H100	H	0.667117	-0.018200	-0.075329
H101	H	0.702115	-0.106453	-0.024290
H102	H	0.627546	-0.127042	-0.076758
H103	H	0.702802	-0.106071	-0.127564
H104	H	1.102446	0.003360	0.555561
H105	H	0.846878	-0.736855	0.000039
C106	C	0.957744	-0.031461	0.435622
C107	C	0.878270	-0.042793	0.465632
C108	C	0.861609	-0.096193	0.433615
H109	H	0.999743	-0.060310	0.456780
H110	H	0.958339	-0.031143	0.372381
H111	H	0.877682	-0.043116	0.528860
H112	H	0.836255	-0.013958	0.444477
H113	H	0.862204	-0.095876	0.370374
H114	H	0.903613	-0.125038	0.454775
H115	H	0.807682	-0.103887	0.453965
C116	C	1.147562	-0.647434	0.000242
C117	C	1.152646	-0.613738	0.076427
C118	C	1.229737	-0.590787	0.076636
H119	H	1.151249	-0.624506	-0.051332
H120	H	1.192724	-0.677657	0.000295
H121	H	1.107496	-0.583519	0.076366
H122	H	1.148974	-0.636653	0.128013
H123	H	1.274900	-0.621010	0.076689
H124	H	1.233417	-0.567862	0.025059
H125	H	1.233200	-0.567926	0.128330
H126	H	0.777032	-0.349056	0.000006
C127	C	0.540255	0.136330	-0.155439
C128	C	0.468657	0.154501	-0.206583
C129	C	0.492779	0.183011	-0.282517
H130	H	0.578480	0.111095	-0.189661
H131	H	0.566951	0.168587	-0.138031
H132	H	0.441974	0.122248	-0.223992
H133	H	0.430424	0.179743	-0.172389
H134	H	0.519475	0.215268	-0.265109
H135	H	0.531005	0.157773	-0.316731
H136	H	0.444204	0.195348	-0.317223
H137	H	0.856524	-0.190359	0.000090
C138	C	0.830249	0.054565	0.564407
C139	C	0.767675	0.097017	0.534351
C140	C	0.688857	0.085638	0.566235
H141	H	0.830906	0.054316	0.627638
H142	H	0.818564	0.018298	0.543175
H143	H	0.779357	0.133274	0.555586
H144	H	0.766991	0.097272	0.471123
H145	H	0.677172	0.049371	0.545004
H146	H	0.689523	0.085389	0.629465
H147	H	0.646391	0.114437	0.545840
C148	C	0.837759	-0.072712	0.000255
C149	C	0.791289	-0.083057	0.076430
C150	C	0.715204	-0.046598	0.076613
H151	H	0.806035	-0.079627	-0.051326
H152	H	0.849396	-0.034043	0.000305
H153	H	0.779649	-0.121716	0.076372
H154	H	0.822986	-0.076138	0.128023
H155	H	0.726842	-0.007929	0.076663
H156	H	0.683489	-0.053516	0.025029
H157	H	0.683669	-0.053608	0.128300
H158	H	0.419284	0.177423	-0.000040
H159	H	0.880895	0.152617	0.444393
H160	H	1.136300	-0.107185	0.000119
C161	C	0.442416	0.019636	-0.155193
C162	C	0.354637	0.019461	-0.154513
C163	C	0.329996	-0.008983	-0.230283
H164	H	0.469152	-0.018653	-0.155193
H165	H	0.458498	0.038759	-0.207056
H166	H	0.338564	0.000336	-0.102663
H167	H	0.327880	0.057742	-0.154526
H168	H	0.346078	0.010140	-0.282147
H169	H	0.356737	-0.047270	-0.230277
H170	H	0.270436	-0.009101	-0.229836
H171	H	0.848778	-0.629098	0.000027
H172	H	0.775123	-0.456812	0.000000
H173	H	1.134405	-0.214943	0.000089
C174	C	0.442736	0.019523	0.155319
C175	C	0.482401	-0.036849	0.154984
C176	C	0.458111	-0.065449	0.230756
H177	H	0.383207	0.019272	0.155088
H178	H	0.458897	0.038610	0.207182
H179	H	0.466234	-0.055930	0.103134
H180	H	0.541930	-0.036615	0.155228
H181	H	0.474272	-0.046363	0.282619
H182	H	0.398582	-0.065695	0.230518
H183	H	0.485026	-0.103698	0.230543
C184	C	1.229072	-0.381106	0.000042
C185	C	1.295439	-0.425776	0.000021
C186	C	1.372654	-0.402984	-0.000028
H187	H	1.232787	-0.358225	0.051662
H188	H	1.232721	-0.358232	-0.051611
H189	H	1.291792	-0.448641	0.051669
H190	H	1.291752	-0.448661	-0.051595
H191	H	1.376304	-0.380110	-0.051681
H192	H	1.376360	-0.380103	0.051593
H193	H	1.417694	-0.433289	-0.000050
