data_functionalizedCrystal
_audit_creation_method	'MofGen! by Chris Wilmer'
_symmetry_space_group_name_H-M	'P1'
_symmetry_Int_Tables_number	1
_symmetry_cell_setting	triclinic
loop_
_symmetry_equiv_pos_as_xyz
  x,y,z
_cell_length_a	18.050591
_cell_length_b	18.101395
_cell_length_c	18.101389
_cell_angle_alpha	89.983159
_cell_angle_beta	90.025013
_cell_angle_gamma	89.972890
loop_
_atom_site_label
_atom_site_type_symbol
_atom_site_fract_x
_atom_site_fract_y
_atom_site_fract_z
Zn1	Zn	1.135308	0.294986	0.418860
Zn2	Zn	1.135203	0.418812	0.295022
Zn3	Zn	1.011118	0.294980	0.295020
Zn4	Zn	1.011069	0.418782	0.418809
O5	O	1.073174	0.356890	0.356928
O6	O	1.239218	0.311427	0.402455
O7	O	1.118720	0.402395	0.191389
O8	O	1.027656	0.191348	0.311468
O9	O	1.239142	0.402401	0.311472
O10	O	1.118898	0.191352	0.402453
O11	O	1.027555	0.311417	0.191387
O12	O	0.907187	0.311387	0.311419
O13	O	1.027572	0.402350	0.522449
O14	O	0.907151	0.402344	0.402366
O15	O	1.118850	0.311398	0.522487
O16	O	1.118672	0.522441	0.311422
O17	O	1.027471	0.522419	0.402368
C18	C	0.880222	0.356862	0.356887
C19	C	0.797676	0.356868	0.356887
C20	C	1.073075	0.549301	0.356906
C21	C	1.073100	0.631615	0.356922
C22	C	1.073217	0.356871	0.550090
C23	C	1.073236	0.356863	0.632404
C24	C	0.598224	0.307349	0.307544
C25	C	0.548800	0.374893	0.289321
C26	C	0.646546	0.356891	0.356921
C27	C	0.548889	0.289370	0.375142
C28	C	0.500561	0.356907	0.356952
C29	C	0.598209	0.424471	0.338662
C30	C	0.598302	0.338902	0.424515
C31	C	0.548900	0.406493	0.406317
C32	C	0.730644	0.356881	0.356901
C33	C	0.416464	0.356924	0.356971
C34	C	1.266880	0.356918	0.356970
C35	C	1.349426	0.356930	0.356987
C36	C	1.073294	0.163728	0.356966
C37	C	1.073345	0.081414	0.356982
C38	C	1.073263	0.930706	0.356962
C39	C	1.016015	0.899397	0.414324
C40	C	1.015743	0.813779	0.414145
C41	C	1.073182	0.782323	0.356942
C42	C	1.051994	0.813459	0.278891
C43	C	1.051625	0.899104	0.279234
C44	C	1.151826	0.899058	0.376964
C45	C	1.151364	0.813408	0.378675
C46	C	1.073138	0.698464	0.356927
C47	C	1.073306	1.014565	0.356972
C48	C	1.073174	0.356855	0.164518
C49	C	1.073300	0.356655	0.082204
C50	C	1.073279	0.356724	0.931495
C51	C	1.015652	0.413767	0.900146
C52	C	1.015807	0.414032	0.814528
C53	C	1.073257	0.356793	0.783113
C54	C	1.151502	0.377983	0.814220
C55	C	1.151181	0.378357	0.899865
C56	C	1.053341	0.278365	0.899917
C57	C	1.051600	0.278818	0.814266
C58	C	1.073249	0.356831	0.699253
C59	C	1.073292	0.356689	1.015355
H60	H	0.619881	0.265498	0.265742
C61	C	1.209448	0.926413	0.320525
N62	N	1.252843	0.947022	0.278015
H63	H	0.527057	0.390120	0.232171
C64	C	0.519623	0.212219	0.395948
N65	N	0.497584	0.154107	0.411614
C66	C	0.937027	0.396033	0.927948
N67	N	0.877805	0.382675	0.948894
C68	C	0.519818	0.463166	0.462742
N69	N	0.497910	0.505855	0.505238
C70	C	1.105503	0.927087	0.219519
N71	N	1.146079	0.948161	0.174538
C72	C	0.627352	0.501643	0.317765
N73	N	0.649305	0.559767	0.302021
C74	C	1.177921	0.928179	0.452547
N75	N	1.197568	0.950113	0.509480
C76	C	1.172969	0.785882	0.456261
N77	N	1.189245	0.765136	0.514694
C78	C	1.211068	0.323623	0.786729
N79	N	1.255933	0.282678	0.766021
H80	H	1.095315	0.235866	0.920192
H81	H	0.620063	0.323654	0.481647
C82	C	0.973826	0.257212	0.786767
N83	N	0.915251	0.240935	0.766040
C84	C	0.975228	0.784567	0.255594
N85	N	0.917406	0.762808	0.238051
H86	H	1.028970	0.472114	0.794048
H87	H	1.196273	0.791991	0.339941
H88	H	0.994196	0.919140	0.262291
C89	C	1.033740	0.927178	0.492764
N90	N	1.047091	0.948109	0.551847
H91	H	1.195573	0.338614	0.920605
C92	C	1.174008	0.455744	0.926866
N93	N	1.191199	0.514034	0.947199
H94	H	1.029000	0.792727	0.472019
H95	H	0.957785	0.400771	0.793495
H96	H	1.028684	0.471495	0.921674
C97	C	1.174729	0.454548	0.785261
N98	N	1.192220	0.512219	0.763451
H99	H	1.090511	0.234062	0.792881
H100	H	0.958137	0.920977	0.401241
H101	H	0.997277	0.259061	0.921502
H102	H	0.957511	0.793350	0.400895
H103	H	1.092379	0.793083	0.234985
