data_functionalizedCrystal
_audit_creation_method	'MofGen! by Chris Wilmer'
_symmetry_space_group_name_H-M	'P1'
_symmetry_Int_Tables_number	1
_symmetry_cell_setting	triclinic
loop_
_symmetry_equiv_pos_as_xyz
  x,y,z
_cell_length_a	14.971486
_cell_length_b	16.109301
_cell_length_c	14.048226
_cell_angle_alpha	89.992144
_cell_angle_beta	89.998499
_cell_angle_gamma	83.537805
loop_
_atom_site_label
_atom_site_type_symbol
_atom_site_fract_x
_atom_site_fract_y
_atom_site_fract_z
O1	O	1.186791	0.108348	-0.079054
O2	O	0.926372	0.121323	-0.079081
O3	O	1.063735	-0.006187	-0.079057
O4	O	1.049427	0.235857	-0.079078
O5	O	1.063719	-0.006194	0.079264
O6	O	0.926355	0.121315	0.079241
O7	O	1.186774	0.108340	0.079267
Zn8	Zn	1.056562	0.114826	0.104391
Zn9	Zn	1.056584	0.114836	-0.104204
O10	O	1.049411	0.235850	0.079244
C11	C	0.893040	0.120739	0.000077
C12	C	0.793745	0.119000	0.000067
C13	C	1.063147	-0.037166	0.000104
C14	C	1.061410	-0.129464	0.000105
C15	C	0.736412	0.193908	0.000062
C16	C	0.643115	0.192269	0.000076
C17	C	0.607153	0.115721	0.000089
C18	C	0.664494	0.040807	0.000097
C19	C	0.757789	0.042447	0.000089
C20	C	0.470036	0.037395	0.000110
C21	C	0.376734	0.035755	0.000116
C22	C	0.355362	0.187217	0.000097
C23	C	0.448657	0.188857	0.000090
C24	C	0.505991	0.113942	0.000096
C25	C	1.138878	-0.351640	0.000098
C26	C	1.137239	-0.438362	0.000090
C27	C	0.974262	-0.418691	0.000077
C28	C	0.975902	-0.331970	0.000078
C29	C	1.058213	-0.298447	0.000094
C30	C	1.054933	-0.471890	0.000085
C31	C	1.053155	-0.565918	0.000076
C32	C	1.059992	-0.204413	0.000101
C33	C	1.220106	0.108924	0.000108
C34	C	1.319401	0.110663	0.000111
C35	C	1.049999	0.266829	0.000080
C36	C	1.051736	0.359127	0.000073
N37	N	1.056554	0.114819	0.246752
N38	N	1.056599	0.114837	-0.246565
C39	C	1.117397	0.058381	0.296580
C40	C	1.117403	0.058381	0.396238
C41	C	1.056570	0.114823	0.446065
C42	C	0.995719	0.171263	0.396230
C43	C	0.995710	0.171259	0.296574
C44	C	0.995745	0.171269	0.603944
C45	C	0.995756	0.171275	0.703607
C46	C	1.117439	0.058391	0.703608
C47	C	1.117429	0.058387	0.603952
C48	C	1.056580	0.114829	0.554123
H49	H	0.765684	0.256242	0.000051
C50	C	1.238947	0.040272	0.491576
C51	C	1.184080	-0.003757	0.549048
H52	H	1.280031	0.001873	0.457647
H53	H	1.202694	0.073984	0.447750
H54	H	1.271337	0.074810	0.530360
H55	H	1.151684	-0.038291	0.510264
H56	H	1.220337	-0.037484	0.592879
H57	H	0.804470	-0.018551	0.000093
C58	C	1.136912	-0.054745	0.815681
C59	C	1.184325	-0.003658	0.758370
H60	H	1.178208	-0.093051	0.849485
H61	H	1.100693	-0.021135	0.859617
H62	H	1.099693	-0.084707	0.776804
H63	H	1.221539	0.026309	0.797248
H64	H	1.220560	-0.037272	0.714428
C65	C	1.299808	-0.379797	0.000092
C66	C	1.229353	-0.314790	0.000097
H67	H	1.355664	-0.357048	0.000082
H68	H	1.295780	-0.413216	0.055300
H69	H	1.295769	-0.413207	-0.055121
H70	H	1.233388	-0.281383	0.055314
H71	H	1.233383	-0.281358	-0.055116
H72	H	0.635206	-0.021520	0.000121
C73	C	0.873993	0.189127	0.491892
C74	C	0.928858	0.233312	0.549172
H75	H	0.832701	0.227432	0.458084
H76	H	0.910220	0.155520	0.447959
H77	H	0.841839	0.154474	0.530791
H78	H	0.961018	0.267961	0.510272
H79	H	0.892627	0.266934	0.593110
C80	C	0.883194	-0.223032	0.081455
C81	C	0.887230	-0.273490	0.000072
H82	H	0.828457	-0.186926	0.081442
H83	H	0.885927	-0.257276	0.136656
H84	H	0.932455	-0.190662	0.081449
H85	H	0.837972	-0.305864	0.000082
H86	H	0.884488	-0.239242	-0.055143
H87	H	1.202924	-0.481669	0.000092
C88	C	1.169940	-0.085477	0.265975
C89	C	1.184267	-0.003683	0.241838
H90	H	1.211219	-0.123800	0.232184
H91	H	1.178640	-0.093525	0.332455
H92	H	1.110246	-0.094581	0.249640
H93	H	1.243959	0.005423	0.258180
H94	H	1.175574	0.004368	0.175344
H95	H	1.166946	0.012424	0.436808
C96	C	0.875446	0.282829	0.693601
C97	C	0.928870	0.233301	0.758379
H98	H	0.834147	0.321114	0.727418
H99	H	0.912649	0.312807	0.654727
H100	H	0.843298	0.248153	0.654737
H101	H	0.961023	0.267976	0.797239
H102	H	0.891662	0.203320	0.797270
C103	C	0.899381	-0.542894	0.000082
C104	C	0.883789	-0.455543	0.000075
H105	H	0.843524	-0.565641	0.000089
H106	H	0.932588	-0.561137	-0.055124
H107	H	0.932593	-0.561143	0.055297
H108	H	0.850582	-0.437293	-0.055144
H109	H	0.850567	-0.437292	0.055286
C110	C	0.631360	0.342145	0.000044
C111	C	0.580094	0.274611	0.000066
H112	H	0.592452	0.392981	0.000033
H113	H	0.668196	0.339635	0.055247
H114	H	0.668192	0.339627	-0.055174
H115	H	0.543267	0.277126	0.055288
H116	H	0.543243	0.277123	-0.055142
C117	C	0.943138	0.315110	0.265858
C118	C	0.928833	0.233300	0.241796
H119	H	0.901851	0.353410	0.232036
H120	H	0.934434	0.323187	0.332331
H121	H	1.002828	0.324220	0.249510
H122	H	0.869145	0.224188	0.258151
H123	H	0.937530	0.225221	0.175308
C124	C	0.202860	0.251966	0.000108
C125	C	0.292343	0.269566	0.000092
H126	H	0.163955	0.302803	0.000106
H127	H	0.191963	0.220584	-0.055090
H128	H	0.191974	0.220584	0.055331
H129	H	0.303231	0.300943	-0.055134
H130	H	0.303244	0.300961	0.055296
C131	C	0.366218	-0.093853	-0.081239
C132	C	0.337200	-0.048386	0.000136
H133	H	0.341813	-0.145799	-0.081222
H134	H	0.346536	-0.063007	-0.136445
H135	H	0.429987	-0.103599	-0.081229
H136	H	0.273430	-0.038634	0.000122
H137	H	0.356877	-0.079238	0.055357
C138	C	0.587356	-0.048620	-0.081276
C139	C	0.533064	-0.044949	0.000114
H140	H	0.626270	-0.099452	-0.081272
H141	H	0.550512	-0.046113	-0.136472
H142	H	0.622117	-0.002790	-0.081271
H143	H	0.498298	-0.090776	0.000106
H144	H	0.569913	-0.047465	0.055325
H145	H	0.477934	0.251189	0.000070
H146	H	0.946183	0.217217	0.436805
