data_functionalizedCrystal
_audit_creation_method	'MofGen! by Chris Wilmer'
_symmetry_space_group_name_H-M	'P1'
_symmetry_Int_Tables_number	1
_symmetry_cell_setting	triclinic
loop_
_symmetry_equiv_pos_as_xyz
  x,y,z
_cell_length_a	16.992694
_cell_length_b	14.044220
_cell_length_c	16.053802
_cell_angle_alpha	92.799619
_cell_angle_beta	87.249047
_cell_angle_gamma	91.928550
loop_
_atom_site_label
_atom_site_type_symbol
_atom_site_fract_x
_atom_site_fract_y
_atom_site_fract_z
O1	O	1.057564	0.198305	-0.069327
O2	O	0.829125	0.196087	-0.069352
O3	O	0.939916	0.058952	-0.069331
O4	O	0.946774	0.335440	-0.069347
O5	O	0.933815	0.066468	0.069526
O6	O	0.823025	0.203602	0.069506
O7	O	1.051464	0.205821	0.069531
Zn8	Zn	0.936276	0.205905	0.091565
Zn9	Zn	0.944313	0.196003	-0.091386
O10	O	0.940673	0.342955	0.069511
C11	C	0.796663	0.196993	0.000074
C12	C	0.709024	0.188484	0.000065
C13	C	0.664526	0.270580	0.000061
C14	C	0.582179	0.262581	0.000073
C15	C	0.544333	0.172483	0.000083
C16	C	0.588837	0.090381	0.000090
C17	C	0.671182	0.098382	0.000084
C18	C	0.298414	0.139322	0.000107
C19	C	0.216063	0.131327	0.000111
C20	C	0.209412	0.303528	0.000096
C21	C	0.291759	0.311521	0.000085
C22	C	0.336255	0.229419	0.000096
N23	N	0.460161	0.164304	0.000093
N24	N	0.420425	0.237599	0.000092
C25	C	0.933863	0.027168	0.000098
C26	C	0.924909	-0.078736	0.000098
C27	C	0.908540	-0.272638	0.000084
C28	C	0.972046	-0.325460	0.000088
C29	C	0.962938	-0.433354	0.000080
C30	C	0.917647	-0.164734	0.000091
C31	C	1.083926	0.204915	0.000103
C32	C	1.171565	0.213424	0.000107
C33	C	0.946726	0.374740	0.000080
C34	C	0.955680	0.480643	0.000074
N35	N	0.930796	0.212662	0.216425
N36	N	0.949799	0.189239	-0.216245
C37	C	0.977958	0.154335	0.260127
C38	C	0.974132	0.159071	0.347533
C39	C	0.923149	0.222140	0.391235
C40	C	0.875982	0.280470	0.347526
C41	C	0.879804	0.275728	0.260122
C42	C	0.906453	0.242827	0.652642
C43	C	0.902637	0.247566	0.740052
C44	C	1.000787	0.126165	0.740053
C45	C	1.004608	0.121433	0.652647
C46	C	0.957438	0.179759	0.608946
N47	N	0.919240	0.226985	0.480578
N48	N	0.961343	0.174909	0.519604
H49	H	0.322568	0.384887	0.000067
C50	C	0.547893	-0.007525	0.000140
C51	C	0.604490	-0.077708	0.000163
C52	C	0.566804	-0.167911	0.000216
H53	H	0.518032	-0.016980	-0.048269
H54	H	0.513805	-0.011655	0.048583
H55	H	0.638564	-0.073581	-0.048275
H56	H	0.634353	-0.068285	0.048569
H57	H	0.532715	-0.172041	0.048659
H58	H	0.536944	-0.177355	-0.048193
H59	H	0.605198	-0.215540	0.000240
H60	H	0.173174	0.370371	0.000089
H61	H	1.046122	0.070077	0.617066
H62	H	1.039190	0.078678	0.775642
C63	C	0.847191	0.316061	0.787351
C64	C	0.806679	0.366104	0.730374
C65	C	0.755590	0.429194	0.773915
H66	H	0.876737	0.359836	0.821443
H67	H	0.810457	0.281129	0.821439
H68	H	0.843409	0.401034	0.696301
H69	H	0.777118	0.322354	0.696280
H70	H	0.718856	0.394262	0.808002
H71	H	0.785142	0.472963	0.808005
H72	H	0.728091	0.463149	0.735262
C73	C	0.346582	0.050069	0.000073
C74	C	0.295810	-0.030544	0.000058
C75	C	0.340158	-0.112785	0.000016
H76	H	0.376729	0.052095	0.048482
H77	H	0.380951	0.046931	-0.048370
H78	H	0.261455	-0.027407	0.048496
H79	H	0.265662	-0.032602	-0.048347
H80	H	0.374527	-0.115923	-0.048426
H81	H	0.370303	-0.110749	0.048426
H82	H	0.305716	-0.167491	-0.000001
H83	H	0.185251	0.057955	0.000118
H84	H	0.834466	0.331819	0.383114
C85	C	1.053623	-0.277604	-0.000022
C86	C	1.065670	-0.224642	-0.071443
C87	C	1.140801	-0.180530	-0.071564
H88	H	1.092346	-0.324835	-0.000060
H89	H	1.057687	-0.236358	0.048381
H90	H	1.061613	-0.265884	-0.119833
H91	H	1.026965	-0.177395	-0.071420
H92	H	1.144865	-0.139284	-0.023161
H93	H	1.179519	-0.227767	-0.071600
H94	H	1.148982	-0.144583	-0.120018
H95	H	0.707411	0.031530	0.000086
H96	H	0.868047	0.290320	0.617067
H97	H	0.545952	0.329433	0.000069
H98	H	0.847335	-0.308444	0.000075
C99	C	1.033334	0.085761	0.212834
C100	C	1.073801	0.035676	0.269820
C101	C	1.124811	-0.027514	0.226287
H102	H	1.070103	0.120592	0.178724
H103	H	1.003710	0.042025	0.178766
H104	H	1.103422	0.079406	0.303873
H105	H	1.037051	0.000826	0.303931
H106	H	1.095187	-0.071251	0.192219
H107	H	1.161575	0.007324	0.192179
H108	H	1.152268	-0.061511	0.264945
C109	C	1.025208	0.095628	0.395020
C110	C	0.976954	0.036777	0.445196
C111	C	1.023980	-0.021691	0.488942
H112	H	1.058936	0.134160	0.429176
H113	H	1.056104	0.057340	0.356497
H114	H	0.946071	0.075061	0.483715
H115	H	0.943226	-0.001774	0.411061
H116	H	1.054876	-0.059979	0.450418
H117	H	1.057706	0.016848	0.523093
H118	H	0.991247	-0.061635	0.522985
H119	H	0.841398	0.323224	0.224540
H120	H	0.695334	0.343947	0.000052
