data_functionalizedCrystal
_audit_creation_method	'MofGen! by Chris Wilmer'
_symmetry_space_group_name_H-M	'P1'
_symmetry_Int_Tables_number	1
_symmetry_cell_setting	triclinic
loop_
_symmetry_equiv_pos_as_xyz
  x,y,z
_cell_length_a	17.699077
_cell_length_b	10.654550
_cell_length_c	9.130313
_cell_angle_alpha	89.999890
_cell_angle_beta	90.000329
_cell_angle_gamma	83.882740
loop_
_atom_site_label
_atom_site_type_symbol
_atom_site_fract_x
_atom_site_fract_y
_atom_site_fract_z
O1	O	1.005084	0.158764	-0.121776
O2	O	0.784836	0.179434	-0.121783
O3	O	0.900024	-0.013729	-0.121774
O4	O	0.889896	0.351927	-0.121785
O5	O	0.900022	-0.013724	0.121825
O6	O	0.784835	0.179439	0.121816
O7	O	1.005082	0.158770	0.121823
Cu8	Cu	0.894958	0.169105	0.144062
Cu9	Cu	0.894960	0.169099	-0.144022
O10	O	0.889895	0.351932	0.121814
C11	C	0.756634	0.178697	0.000016
C12	C	0.672601	0.176479	0.000013
C13	C	0.899279	-0.060511	0.000024
C14	C	0.897055	-0.199916	0.000018
C15	C	0.964875	-0.280591	0.000025
C16	C	0.962780	-0.411575	0.000015
C17	C	0.825038	-0.381196	-0.000002
C18	C	0.827134	-0.250214	-0.000003
C19	C	1.044400	-0.298131	0.000041
C20	C	1.042305	-0.429115	0.000031
C21	C	0.633126	0.175437	0.132800
C22	C	0.554170	0.173332	0.132802
C23	C	0.514690	0.172280	0.000015
C24	C	0.554171	0.173318	-0.132783
C25	C	0.633126	0.175413	-0.132783
C26	C	0.235754	0.164867	-0.132785
C27	C	0.156793	0.162776	-0.132775
C28	C	0.156798	0.162786	0.132800
C29	C	0.235753	0.164881	0.132799
C30	C	0.275228	0.165913	0.000003
C31	C	0.360841	0.168192	0.000003
C32	C	0.429078	0.170009	0.000013
C33	C	1.033285	0.159506	0.000021
C34	C	1.117317	0.161724	0.000014
C35	C	0.890639	0.398715	0.000013
C36	C	0.892864	0.538119	0.000008
N37	N	0.894963	0.169108	0.346684
N38	N	0.894962	0.169085	-0.346645
C39	C	0.945981	0.083605	0.423340
C40	C	0.945979	0.083590	0.576677
C41	C	0.843938	0.254593	0.576689
C42	C	0.843937	0.254601	0.423355
C43	C	1.004896	-0.015119	0.423335
C44	C	1.004894	-0.015134	0.576672
H45	H	0.771907	-0.184532	-0.000028
H46	H	0.768110	-0.422165	-0.000021
F47	F	0.789629	0.345589	0.341772
F48	F	0.512161	0.172240	0.274133
F49	F	1.077488	-0.252133	0.137528
H50	H	0.267894	0.165745	0.240929
H51	H	0.991974	-0.111425	0.381717
H52	H	0.665265	0.176304	0.240931
H53	H	1.066339	-0.475182	-0.105148
F54	F	1.081466	-0.484388	0.133277
H55	H	1.075505	-0.269321	-0.101896
H56	H	0.124649	0.161940	0.240929
H57	H	0.124650	0.161917	-0.240913
F58	F	0.277755	0.165967	-0.274120
H59	H	0.522020	0.172452	-0.240901
H60	H	1.059846	0.014505	0.375777
H61	H	1.063054	0.005364	0.618289
F62	F	0.789635	0.345575	0.658298
F63	F	0.675138	0.176518	-0.274113
F64	F	0.980854	-0.133940	0.638830
