data_functionalizedCrystal
_audit_creation_method	'MofGen! by Chris Wilmer'
_symmetry_space_group_name_H-M	'P1'
_symmetry_Int_Tables_number	1
_symmetry_cell_setting	triclinic
loop_
_symmetry_equiv_pos_as_xyz
  x,y,z
_cell_length_a	10.723024
_cell_length_b	10.723024
_cell_length_c	9.198806
_cell_angle_alpha	89.998891
_cell_angle_beta	89.997255
_cell_angle_gamma	84.467869
loop_
_atom_site_label
_atom_site_type_symbol
_atom_site_fract_x
_atom_site_fract_y
_atom_site_fract_z
O1	O	1.657188	0.175024	-0.120845
O2	O	2.157188	0.675024	0.379155
O3	O	1.294035	0.191778	-0.120856
O4	O	1.794035	0.691778	0.379144
O5	O	1.483988	0.001825	-0.120849
O6	O	1.983988	0.501825	0.379151
O7	O	1.467235	0.364977	-0.120853
O8	O	1.967235	0.864977	0.379147
O9	O	1.483973	0.001824	0.120937
O10	O	1.983973	0.501824	0.620937
O11	O	1.294020	0.191777	0.120929
O12	O	1.794020	0.691777	0.620929
O13	O	1.657173	0.175024	0.120940
O14	O	2.157173	0.675024	0.620940
Cu15	Cu	1.475595	0.183401	0.143011
Cu16	Cu	1.975595	0.683401	0.643011
Cu17	Cu	1.475613	0.183401	-0.142928
Cu18	Cu	1.975613	0.683401	0.357072
O19	O	1.467220	0.364977	0.120932
O20	O	1.967220	0.864977	0.620932
C21	C	1.482762	-0.044675	0.000041
C22	C	1.982762	0.455325	0.500041
C23	C	1.479114	-0.183229	0.000034
C24	C	1.979114	0.316771	0.500034
C25	C	1.703680	0.176243	0.000045
C26	C	2.203680	0.676243	0.500045
C27	C	1.842234	0.179891	0.000040
C28	C	2.342234	0.679891	0.500040
C29	C	1.468447	0.411477	0.000039
C30	C	1.968447	0.911477	0.500039
C31	C	1.472094	0.550031	0.000037
C32	C	1.972094	1.050031	0.500037
C33	C	1.247528	0.190558	0.000035
C34	C	1.747528	0.690558	0.500035
C35	C	1.108974	0.186911	0.000030
C36	C	1.608974	0.686911	0.500030
C37	C	1.917217	0.073603	0.000040
C38	C	2.417217	0.573603	0.500040
C39	C	2.060420	0.077371	0.000034
C40	C	2.560420	0.577371	0.500034
N41	N	1.475592	0.183399	0.344125
N42	N	1.975592	0.683399	0.844125
C43	C	1.365807	0.625014	0.000033
C44	C	1.865807	1.125014	0.500033
C45	C	1.369574	0.768217	0.000031
C46	C	1.869574	1.268217	0.500031
N47	N	1.475626	0.183393	-0.344042
N48	N	1.975626	0.683393	0.155958
C49	C	1.555347	0.103292	0.416325
C50	C	2.055347	0.603292	0.916325
C51	C	1.555367	0.103288	0.583738
C52	C	2.055367	0.603288	1.083738
H53	H	1.875395	-0.020182	0.000065
H54	H	2.375395	0.479818	0.500065
C55	C	1.239101	0.568520	0.000042
C56	C	1.739101	1.068520	0.500042
N57	N	1.143663	0.525972	0.000056
N58	N	1.643663	1.025972	0.500056
C59	C	2.021939	0.309845	0.000032
C60	C	2.521939	0.809845	0.500032
N61	N	1.956375	0.402439	0.000037
N62	N	2.456375	0.902439	0.500037
H63	H	1.278584	0.832650	0.000037
H64	H	1.778584	1.332650	0.500037
C65	C	1.602048	0.729736	0.000039
C66	C	2.102048	1.229736	0.500039
N67	N	1.694642	0.664172	0.000042
N68	N	2.194642	1.164172	0.500042
C69	C	1.647556	0.010619	0.332402
C70	C	2.147556	0.510619	0.832402
N71	N	1.717004	-0.059191	0.269192
N72	N	2.217004	0.440809	0.769192
C73	C	1.647615	0.010631	0.667615
C74	C	2.147615	0.510631	1.167615
N75	N	1.717098	-0.059163	0.730795
N76	N	2.217098	0.440837	1.230795
C77	C	1.383373	0.276052	0.572091
C78	C	1.883373	0.776052	1.072091
N79	N	1.313886	0.345842	0.508911
N80	N	1.813886	0.845842	1.008911
H81	H	1.407319	0.251975	0.406250
H82	H	1.907319	0.751975	0.906250
H83	H	2.124853	-0.013619	0.000025
H84	H	2.624853	0.486381	0.500025
H85	H	1.884056	0.273677	0.000045
H86	H	2.384056	0.773677	0.500045
H87	H	1.565880	0.591853	-0.000013
H88	H	2.065880	1.091853	0.499987
