data_functionalizedCrystal
_audit_creation_method	'MofGen! by Chris Wilmer'
_symmetry_space_group_name_H-M	'P1'
_symmetry_Int_Tables_number	1
_symmetry_cell_setting	triclinic
loop_
_symmetry_equiv_pos_as_xyz
  x,y,z
_cell_length_a	27.440280
_cell_length_b	17.052862
_cell_length_c	17.052862
_cell_angle_alpha	61.493325
_cell_angle_beta	90.004253
_cell_angle_gamma	70.263485
loop_
_atom_site_label
_atom_site_type_symbol
_atom_site_fract_x
_atom_site_fract_y
_atom_site_fract_z
Zr1	Zr	0.564821	0.816610	-0.200353
O2	O	0.511001	0.944511	-0.328491
O3	O	0.569470	0.665888	-0.146161
O4	O	0.595584	0.783687	-0.306969
O5	O	0.477766	0.860640	-0.057797
O6	O	0.675785	0.783677	-0.306953
O7	O	0.484886	0.826712	-0.167684
O8	O	0.629070	0.572955	-0.019297
O9	O	0.524480	1.071362	-0.345453
O10	O	0.645621	0.736326	-0.141052
O11	O	0.580455	0.761654	-0.059057
O12	O	0.611202	0.900348	-0.248387
O13	O	0.546035	0.925676	-0.166392
Zr14	Zr	0.681375	0.870704	-0.025072
Zr15	Zr	0.692731	0.816593	-0.200328
Zr16	Zr	0.553464	0.870721	-0.025097
Zr17	Zr	0.586319	1.018921	-0.227405
Zr18	Zr	0.659877	0.668393	0.001980
O19	O	0.676726	1.021426	-0.079264
O20	O	0.692873	0.944487	-0.328455
O21	O	0.494854	1.021450	-0.079300
O22	O	0.735195	0.742803	0.103066
O23	O	0.751342	0.665864	-0.146125
O24	O	0.553323	0.742827	0.103031
O25	O	0.768430	0.826674	-0.167628
O26	O	0.650611	0.903627	0.081544
O27	O	0.570411	0.903637	0.081528
O28	O	0.761309	0.860602	-0.057741
O29	O	0.626152	1.071348	-0.345433
O30	O	0.620044	0.615966	0.120008
O31	O	0.721715	0.615952	0.120028
O32	O	0.730742	0.572941	-0.019277
O33	O	0.515453	1.114373	-0.206147
O34	O	0.617125	1.114359	-0.206128
O35	O	0.634994	0.786966	0.022962
O36	O	0.700160	0.761638	-0.059033
O37	O	0.665740	0.925660	-0.166368
O38	O	0.600574	0.950988	-0.084373
C39	C	0.596207	0.590596	-0.078875
C40	C	0.587081	0.504710	-0.067391
C41	C	0.697419	0.209731	-0.206234
C42	C	0.705993	0.290429	-0.217030
C43	C	0.676266	0.344003	-0.179621
C44	C	0.637963	0.316872	-0.131414
C45	C	0.629386	0.236171	-0.120624
C46	C	0.608232	0.370442	-0.094010
C47	C	0.569929	0.343312	-0.045804
C48	C	0.561354	0.262618	-0.035015
C49	C	0.591081	0.209044	-0.072424
C50	C	0.616810	0.451143	-0.104801
C51	C	0.548776	0.477583	-0.019191
C52	C	0.540202	0.396885	-0.008395
C53	C	0.463101	0.843678	-0.112744
C54	C	0.408800	0.843685	-0.112755
C55	C	0.090059	0.758028	-0.056660
C56	C	0.039040	0.758025	-0.056652
O57	O	0.027930	0.685218	-0.008977
N58	N	-0.004444	0.843641	-0.112680
C59	C	0.003093	0.929269	-0.168714
O60	O	-0.038578	1.002092	-0.216369
C61	C	0.054112	0.929273	-0.168716
C62	C	0.097594	0.843649	-0.112691
C63	C	0.133540	0.672412	-0.000638
C64	C	0.184556	0.672415	-0.000648
C65	C	0.192091	0.758036	-0.056679
C66	C	0.148610	0.843653	-0.112700
C67	C	0.061648	1.014901	-0.224744
C68	C	0.112671	1.014898	-0.224741
C69	C	0.156154	0.929274	-0.168716
C70	C	0.207161	0.929277	-0.168741
N71	N	0.250645	0.843661	-0.112712
C72	C	0.243110	0.758040	-0.056681
C73	C	-0.104048	0.929253	-0.168703
C74	C	-0.155065	0.929249	-0.168705
C75	C	-0.119115	0.758005	-0.056642
C76	C	-0.068097	0.758009	-0.056645
C77	C	-0.060564	0.843637	-0.112674
C78	C	0.350246	0.758054	-0.056706
C79	C	0.401265	0.758065	-0.056723
C80	C	0.365311	0.929309	-0.168783
C81	C	0.314296	0.929298	-0.168770
C82	C	0.306766	0.843664	-0.112724
O83	O	0.218311	1.002047	-0.216388
O84	O	0.284784	0.685232	-0.009025
C85	C	0.783094	0.843636	-0.112681
C86	C	0.837395	0.843629	-0.112670
C87	C	0.637303	0.775973	-0.331931
C88	C	0.642124	0.753001	-0.406332
C89	C	0.649988	1.096718	-0.146550
C90	C	0.659115	1.182604	-0.158034
C91	C	0.583838	1.030727	-0.840172
C92	C	0.579305	1.052313	-0.770271
C93	C	0.595010	0.977487	-0.679284
C94	C	0.615247	0.881071	-0.658203
C95	C	0.619777	0.859483	-0.728111
C96	C	0.630948	0.806243	-0.567222
C97	C	0.651186	0.709827	-0.546141
C98	C	0.655714	0.688243	-0.616044
C99	C	0.640010	0.763069	-0.707031
C100	C	0.626419	0.827831	-0.497314
C101	C	0.662357	0.656587	-0.385253
C102	C	0.666890	0.635001	-0.455154
C103	C	0.608893	0.911342	0.106506
C104	C	0.604072	0.934313	0.180907
C105	C	0.756203	0.590575	-0.078844
C106	C	0.801378	0.504681	-0.067349
C107	C	0.582002	0.658281	0.140344
C108	C	0.568055	0.595366	0.226229
C109	C	0.741998	0.658260	0.140375
C110	C	0.782352	0.595338	0.226271
C111	C	0.504197	1.029054	-0.365800
C112	C	0.463843	1.091977	-0.451696
C113	C	0.489992	1.096739	-0.146581
C114	C	0.444817	1.182633	-0.158076
C115	C	0.664193	1.029033	-0.365769
C116	C	0.678141	1.091948	-0.451654
C117	C	0.794125	0.451130	-0.104771
C118	C	0.836568	0.370430	-0.093988
C119	C	0.886265	0.343279	-0.045778
C120	C	0.893518	0.396839	-0.008355
C121	C	0.851075	0.477541	-0.019144
C122	C	0.589973	0.579035	0.309381
C123	C	0.576866	0.519933	0.390085
C124	C	0.541844	0.477157	0.387634
C125	C	0.519924	0.493493	0.304472
C126	C	0.533027	0.552600	0.223770
C127	C	0.835324	0.552568	0.223808
C128	C	0.873248	0.493455	0.304507
C129	C	0.858197	0.477107	0.387670
C130	C	0.805220	0.519885	0.390131
C131	C	0.767298	0.579002	0.309431
C132	C	0.410872	1.134756	-0.449234
C133	C	0.372951	1.193894	-0.529937
C134	C	0.388003	1.210246	-0.613100
C135	C	0.440979	1.167463	-0.615560
C136	C	0.478899	1.108332	-0.534859
C137	C	0.452072	1.236190	-0.120662
C138	C	0.409632	1.316907	-0.131467
C139	C	0.359936	1.344060	-0.179681
C140	C	0.352682	1.290497	-0.217100
C141	C	0.395123	1.209786	-0.206300
C142	C	0.713164	1.134707	-0.449173
C143	C	0.726280	1.193813	-0.529863
C144	C	0.704368	1.210166	-0.613033
C145	C	0.669342	1.167400	-0.615511
C146	C	0.656230	1.108289	-0.534821
H147	H	0.683249	0.409709	-0.188414
N148	N	0.851571	0.570179	0.134124
H149	H	0.878089	0.601639	0.123103
H150	H	0.819488	0.614088	0.083418
H151	H	0.591318	0.995068	-0.622370
H152	H	0.329818	1.228719	-0.527916
H153	H	0.278891	0.999017	-0.214401
N154	N	0.527714	0.413406	0.474681
H155	H	0.546918	0.409554	0.527727
H156	H	0.538376	0.346482	0.483596
N157	N	0.788994	0.502235	0.479836
H158	H	0.762478	0.470769	0.490865
H159	H	0.772598	0.565851	0.478108
N160	N	0.828739	0.312673	-0.134355
H161	H	0.790815	0.342118	-0.166524
H162	H	0.837394	0.243794	-0.084220
H163	H	0.647996	0.473226	-0.144052
H164	H	0.675143	0.595658	-0.311167
H165	H	0.562828	1.130815	-0.787441
N166	N	0.600522	0.502307	0.479773
H167	H	0.586909	0.458376	0.530531
H168	H	0.590255	0.565942	0.477997
N169	N	0.347100	1.274023	-0.700139
H170	H	0.311260	1.298636	-0.685952
H171	H	0.346312	1.235501	-0.729994
N172	N	0.764058	1.239930	-0.527179
H173	H	0.775943	1.220604	-0.462246
H174	H	0.745743	1.312564	-0.565157
N175	N	0.718520	1.273918	-0.700052
H176	H	0.707860	1.340870	-0.709030
H177	H	0.699326	1.277719	-0.753072
H178	H	0.453229	1.180785	-0.683282
H179	H	0.530161	0.240537	0.004230
N180	N	0.736802	1.117068	-0.359471
H181	H	0.726538	1.180659	-0.361154
H182	H	0.776520	1.085565	-0.348488
N183	N	0.448161	0.665705	0.003713
H184	H	0.467467	0.674597	0.047379
H185	H	0.472755	0.649219	-0.035022
H186	H	0.916381	0.458629	0.302488
H187	H	0.325383	1.409782	-0.188468
H188	H	0.737178	0.312516	-0.256280
H189	H	0.683367	0.556499	-0.438001
H190	H	0.753665	0.473231	-0.144039
H191	H	0.522030	1.073498	-0.536873
N192	N	0.644751	0.739788	-0.782428
H193	H	0.659903	0.667357	-0.755270
H194	H	0.668787	0.768212	-0.821393
N195	N	0.342126	0.665694	0.003726
H196	H	0.319097	0.674571	0.047404
H197	H	0.377437	0.611505	0.039148
N198	N	0.482154	0.447348	0.301836
H199	H	0.477185	0.407423	0.365583
H200	H	0.497014	0.404371	0.275406
H201	H	0.920820	0.277563	-0.036999
N202	N	0.947120	0.367550	0.043641
H203	H	0.972901	0.308296	0.044795
H204	H	0.944419	0.352599	0.107980
H205	H	0.398606	1.121446	-0.381525
N206	N	0.505669	1.206915	-0.068659
H207	H	0.503818	1.253103	-0.046607
H208	H	0.532237	1.208818	-0.109841
H209	H	0.651504	1.180724	-0.683239
H210	H	-0.032696	0.688289	-0.011016
N211	N	0.710161	0.625114	0.312092
H212	H	0.697951	0.697760	0.274164
H213	H	0.706424	0.605708	0.377047
N214	N	-0.201958	1.021603	-0.229140
H215	H	-0.226591	1.038133	-0.190467
H216	H	-0.221224	1.012652	-0.272800
H217	H	0.415548	1.360506	-0.100991
N218	N	0.299078	1.319776	-0.269082
H219	H	0.273296	1.379026	-0.270231
H220	H	0.286350	1.265082	-0.238347
H221	H	0.856988	0.521136	0.011337
N222	N	0.677547	0.584253	-0.593306
H223	H	0.654575	0.550567	-0.556641
H224	H	0.714665	0.550674	-0.556678
N225	N	0.387294	1.152023	-0.246656
H226	H	0.349371	1.181478	-0.278834
H227	H	0.395941	1.083149	-0.196516
N228	N	0.618453	1.062175	-0.537503
H229	H	0.606563	1.081510	-0.602438
H230	H	0.586773	1.084609	-0.512258
N231	N	0.566896	1.111423	-0.938301
H232	H	0.572835	1.083115	-0.979383
H233	H	0.588304	1.152587	-0.950554
H234	H	0.618490	0.613859	0.311394
H235	H	0.889080	0.428968	0.453374
H236	H	0.584105	0.143328	-0.063631
N237	N	0.729471	0.151964	-0.246594
H238	H	0.718222	0.096731	-0.232447
H239	H	0.768158	0.125468	-0.219649
N240	N	0.498892	0.367618	0.043600
H241	H	0.497972	0.308368	0.044758
H242	H	0.463204	0.422313	0.012878
H243	H	0.524569	0.521205	0.011268
H244	H	0.127414	0.602686	0.044994
N245	N	0.231452	0.580063	0.059777
H246	H	0.218929	0.525830	0.095269
H247	H	0.250741	0.589037	0.103392
N248	N	-0.127251	0.665658	0.003793
H249	H	-0.150283	0.674559	0.047458
H250	H	-0.091946	0.611457	0.039229
N251	N	-0.095925	1.021612	-0.229149
H252	H	-0.131216	1.075841	-0.264640
H253	H	-0.072877	1.012630	-0.272763
H254	H	0.515179	0.565886	0.156067
H255	H	0.026251	1.084626	-0.270365
H256	H	0.118798	1.084632	-0.270358
H257	H	0.371456	0.999019	-0.214405
H258	H	0.609940	0.906334	-0.514487
