data_functionalizedCrystal
_audit_creation_method	'MofGen! by Chris Wilmer'
_symmetry_space_group_name_H-M	'P1'
_symmetry_Int_Tables_number	1
_symmetry_cell_setting	triclinic
loop_
_symmetry_equiv_pos_as_xyz
  x,y,z
_cell_length_a	16.974885
_cell_length_b	16.992695
_cell_length_c	16.053942
_cell_angle_alpha	92.749749
_cell_angle_beta	83.790486
_cell_angle_gamma	87.023153
loop_
_atom_site_label
_atom_site_type_symbol
_atom_site_fract_x
_atom_site_fract_y
_atom_site_fract_z
O1	O	1.055529	0.099814	-0.001823
O2	O	1.388862	0.433147	0.331510
O3	O	1.722196	0.766481	0.664843
O4	O	0.825432	0.113288	0.013711
O5	O	1.158765	0.446621	0.347044
O6	O	1.492099	0.779954	0.680378
O7	O	0.939558	-0.007588	0.005999
O8	O	1.272892	0.325745	0.339333
O9	O	1.606225	0.659079	0.672666
O10	O	0.941403	0.220690	0.005888
O11	O	1.274736	0.554023	0.339221
O12	O	1.608069	0.887356	0.672555
O13	O	0.945804	-0.014218	-0.133279
O14	O	1.279137	0.319116	0.200055
O15	O	1.612471	0.652449	0.533388
O16	O	0.831678	0.106658	-0.125567
O17	O	1.165011	0.439991	0.207766
O18	O	1.498344	0.773325	0.541099
O19	O	1.061775	0.093185	-0.141102
O20	O	1.395108	0.426518	0.192232
O21	O	1.728441	0.759851	0.525565
Zn22	Zn	0.947718	0.098869	-0.155448
Zn23	Zn	1.281051	0.432202	0.177886
Zn24	Zn	1.614385	0.765535	0.511219
Zn25	Zn	0.939489	0.107603	0.028057
Zn26	Zn	1.272822	0.440937	0.361390
Zn27	Zn	1.606155	0.774270	0.694724
O28	O	0.947648	0.214060	-0.133390
O29	O	1.280982	0.547394	0.199943
O30	O	1.614315	0.880727	0.533277
C31	C	0.798977	0.109585	-0.053931
C32	C	1.132310	0.442918	0.279402
C33	C	1.465643	0.776251	0.612735
C34	C	0.710842	0.108418	-0.047981
C35	C	1.044175	0.441751	0.285352
C36	C	1.377509	0.775085	0.618685
C37	C	0.214372	0.102216	-0.006282
C38	C	0.547706	0.435549	0.327051
C39	C	0.881039	0.768883	0.660384
C40	C	0.297185	0.103312	-0.011884
C41	C	0.630518	0.436645	0.321449
C42	C	0.963851	0.769978	0.654782
C43	C	0.341987	0.100252	-0.090606
C44	C	0.675320	0.433585	0.242727
C45	C	1.008654	0.766918	0.576060
C46	C	0.303974	0.096087	-0.163732
C47	C	0.637307	0.429421	0.169602
C48	C	0.970640	0.762754	0.502935
C49	C	0.221163	0.094986	-0.158129
C50	C	0.554496	0.428320	0.175204
C51	C	0.887830	0.761653	0.508538
C52	C	0.590018	0.103153	-0.115504
C53	C	0.923352	0.436486	0.217830
C54	C	1.256685	0.769819	0.551163
C55	C	0.672834	0.104257	-0.121101
C56	C	1.006167	0.437590	0.212232
C57	C	1.339501	0.770923	0.545566
C58	C	0.666039	0.111479	0.030747
C59	C	0.999373	0.444813	0.364080
C60	C	1.332706	0.778146	0.697414
C61	C	0.583227	0.110382	0.036343
C62	C	0.916561	0.443716	0.369676
C63	C	1.249894	0.777049	0.703009
C64	C	0.545222	0.106214	-0.036782
C65	C	0.878555	0.439548	0.296551
C66	C	1.211888	0.772881	0.629884
N67	N	0.426634	0.101374	-0.096334
N68	N	0.759968	0.434707	0.236999
N69	N	1.093301	0.768040	0.570332
N70	N	0.460576	0.105086	-0.031054
N71	N	0.793909	0.438420	0.302280
N72	N	1.127243	0.771753	0.635613
C73	C	0.940308	-0.040105	-0.063479
C74	C	1.273641	0.293228	0.269854
C75	C	1.606975	0.626561	0.603187
C76	C	0.933227	-0.127119	-0.063001
C77	C	1.266560	0.206215	0.270332
C78	C	1.599894	0.539548	0.603666
C79	C	1.001549	-0.177654	-0.067615
C80	C	1.334882	0.155679	0.265719
C81	C	1.668216	0.489013	0.599052
C82	C	0.994890	-0.259412	-0.067157
C83	C	1.328224	0.073922	0.266176
C84	C	1.661557	0.407255	0.599510
C85	C	0.919910	-0.290632	-0.062092
C86	C	1.253243	0.042701	0.271241
C87	C	1.586576	0.376034	0.604575
C88	C	0.851583	-0.240091	-0.057476
C89	C	1.184916	0.093243	0.275857
C90	C	1.518249	0.426576	0.609191
C91	C	0.858242	-0.158334	-0.057927
C92	C	1.191575	0.174999	0.275406
C93	C	1.524908	0.508332	0.608739
C94	C	0.892311	-0.534111	-0.060217
C95	C	1.225645	-0.200777	0.273116
C96	C	1.558978	0.132556	0.606449
C97	C	0.885658	-0.615873	-0.059769
C98	C	1.218991	-0.282540	0.273565
C99	C	1.552324	0.050793	0.606898
C100	C	1.028966	-0.635189	-0.069448
C101	C	1.362299	-0.301855	0.263885
C102	C	1.695633	0.031478	0.597218
C103	C	1.035618	-0.553430	-0.069905
C104	C	1.368952	-0.220097	0.263429
C105	C	1.702285	0.113236	0.596762
C106	C	0.967291	-0.502895	-0.065284
C107	C	1.300625	-0.169562	0.268049
C108	C	1.633958	0.163771	0.601383
N109	N	0.913102	-0.374202	-0.061627
N110	N	1.246435	-0.040868	0.271706
N111	N	1.579769	0.292465	0.605040
N112	N	0.974099	-0.419327	-0.065743
N113	N	1.307433	-0.085994	0.267590
N114	N	1.640766	0.247339	0.600924
C115	C	1.088230	0.096888	-0.073457
C116	C	1.421563	0.430221	0.259876
C117	C	1.754897	0.763554	0.593209
C118	C	1.176364	0.098055	-0.079402
C119	C	1.509698	0.431388	0.253931
C120	C	1.843031	0.764721	0.587265
C121	C	0.946899	0.246578	-0.063909
C122	C	1.280232	0.579911	0.269424
C123	C	1.613565	0.913244	0.602757
C124	C	0.953979	0.333591	-0.064382
C125	C	1.287313	0.666925	0.268951
C126	C	1.620646	1.000258	0.602284
N127	N	0.953340	0.092907	-0.280685
N128	N	1.286673	0.426241	0.052648
N129	N	1.620007	0.759574	0.385981
C130	C	0.982445	0.062145	-0.806272
C131	C	1.315778	0.395479	-0.472939
C132	C	1.649111	0.728812	-0.139605
C133	C	0.978494	0.066325	-0.718600
C134	C	1.311827	0.399659	-0.385267
C135	C	1.645161	0.732992	-0.051933
C136	C	0.925967	0.121916	-0.671363
C137	C	1.259300	0.455249	-0.338030
C138	C	1.592634	0.788583	-0.004696
C139	C	0.877393	0.173335	-0.711803
C140	C	1.210726	0.506668	-0.378469
C141	C	1.544060	0.840002	-0.045136
C142	C	0.881348	0.169158	-0.799473
C143	C	1.214682	0.502491	-0.466140
C144	C	1.548015	0.835825	-0.132807
C145	C	0.908721	0.140149	-0.408796
C146	C	1.242054	0.473482	-0.075462
C147	C	1.575388	0.806816	0.257871
C148	C	0.904768	0.144321	-0.321119
C149	C	1.238101	0.477654	0.012214
C150	C	1.571434	0.810987	0.345547
C151	C	1.005871	0.037312	-0.327922
C152	C	1.339204	0.370645	0.005411
C153	C	1.672537	0.703978	0.338744
C154	C	1.009818	0.033136	-0.415594
C155	C	1.343151	0.366470	-0.082261
C156	C	1.676484	0.699803	0.251072
C157	C	0.961247	0.084558	-0.456027
C158	C	1.294580	0.417891	-0.122693
C159	C	1.627913	0.751225	0.210640
N160	N	0.921926	0.126189	-0.581748
N161	N	1.255259	0.459522	-0.248415
N162	N	1.588592	0.792855	0.084919
N163	N	0.965293	0.080289	-0.545640
N164	N	1.298626	0.413622	-0.212307
N165	N	1.631959	0.746955	0.121026
N166	N	0.933873	0.113559	0.153294
N167	N	1.267206	0.446892	0.486628
N168	N	1.600539	0.780225	0.819961
H169	H	0.696993	0.114872	0.090281
H170	H	1.030326	0.448205	0.423614
H171	H	1.363660	0.781538	0.756948
H172	H	0.190218	0.091606	-0.217671
H173	H	0.523551	0.424939	0.115663
H174	H	0.856885	0.758272	0.448996
F175	F	1.038348	0.002974	-0.856537
F176	F	1.371681	0.336307	-0.523203
F177	F	1.705015	0.669640	-0.189870
H178	H	0.790531	-0.265517	-0.053347
H179	H	1.123865	0.067817	0.279987
H180	H	1.457198	0.401150	0.613320
H181	H	0.328127	0.106695	0.047658
H182	H	0.661460	0.440029	0.380991
H183	H	0.994794	0.773362	0.714324
F184	F	0.720515	0.100999	-0.204892
F185	F	1.053848	0.434332	0.128442
F186	F	1.387182	0.767665	0.461775
H187	H	0.869171	0.182017	-0.441709
H188	H	1.202504	0.515351	-0.108375
H189	H	1.535838	0.848684	0.224958
H190	H	1.018046	0.024461	-0.685679
H191	H	1.351379	0.357794	-0.352346
H192	H	1.684712	0.691128	-0.019013
F193	F	0.535551	0.113640	0.120130
F194	F	0.868884	0.446973	0.453463
F195	F	1.202218	0.780307	0.786796
F196	F	1.065722	-0.026030	-0.465866
F197	F	1.399055	0.307304	-0.132533
F198	F	1.732388	0.640637	0.200800
F199	F	0.549579	0.098733	-0.193331
F200	F	0.882912	0.432066	0.140003
F201	F	1.216246	0.765400	0.473336
F202	F	0.351658	0.092828	-0.247514
F203	F	0.684991	0.426162	0.085819
F204	F	1.018325	0.759495	0.419153
F205	F	1.057562	-0.017410	-0.284886
F206	F	1.390895	0.315924	0.048447
F207	F	1.724228	0.649257	0.381780
F208	F	1.081355	-0.144435	-0.073013
F209	F	1.414688	0.188898	0.260320
F210	F	1.748021	0.522232	0.593653
H211	H	1.050526	-0.300555	-0.070916
H212	H	1.383859	0.032778	0.262418
H213	H	1.717192	0.366112	0.595751
H214	H	0.861991	0.189592	-0.282662
H215	H	1.195324	0.522925	0.050671
H216	H	1.528657	0.856258	0.384004
H217	H	1.096676	-0.528017	-0.074029
H218	H	1.430009	-0.194683	0.259304
H219	H	1.763342	0.138650	0.592638
F220	F	1.101679	-0.688976	-0.074365
F221	F	1.435013	-0.355643	0.258969
F222	F	1.768346	-0.022310	0.592302
H223	H	0.834627	0.218602	-0.673338
H224	H	1.167960	0.551935	-0.340004
H225	H	1.501294	0.885269	-0.006671
H226	H	0.836674	-0.492974	-0.056455
H227	H	1.170007	-0.159641	0.276878
H228	H	1.503341	0.173692	0.610212
H229	H	0.802606	-0.117189	-0.054170
H230	H	1.135940	0.216145	0.279163
H231	H	1.469273	0.549478	0.612496
F232	F	0.166697	0.105479	0.077505
F233	F	0.500030	0.438812	0.410839
F234	F	0.833364	0.772146	0.744172
F235	F	0.805849	-0.649098	-0.054382
F236	F	1.139183	-0.315765	0.278951
F237	F	1.472516	0.017568	0.612285
H238	H	0.841797	0.211025	-0.832393
H239	H	1.175130	0.544359	-0.499060
H240	H	1.508463	0.877692	-0.165727
