data_functionalizedCrystal
_audit_creation_method	'MofGen! by Chris Wilmer'
_symmetry_space_group_name_H-M	'P1'
_symmetry_Int_Tables_number	1
_symmetry_cell_setting	triclinic
loop_
_symmetry_equiv_pos_as_xyz
  x,y,z
_cell_length_a	19.077105
_cell_length_b	13.897447
_cell_length_c	13.897449
_cell_angle_alpha	90.008998
_cell_angle_beta	92.303612
_cell_angle_gamma	87.715989
loop_
_atom_site_label
_atom_site_type_symbol
_atom_site_fract_x
_atom_site_fract_y
_atom_site_fract_z
Zn1	Zn	1.075917	-0.443531	0.604590
Zn2	Zn	1.075866	-0.604792	0.443293
Zn3	Zn	0.958246	-0.437024	0.436834
Zn4	Zn	0.958198	-0.598291	0.598071
O5	O	1.017057	-0.520910	0.520697
O6	O	1.174401	-0.470366	0.588625
O7	O	1.060262	-0.582535	0.307454
O8	O	0.973896	-0.302908	0.459113
O9	O	1.174363	-0.588844	0.470121
O10	O	1.060349	-0.307688	0.582363
O11	O	0.973847	-0.459277	0.302709
O12	O	0.859749	-0.452973	0.452791
O13	O	0.973815	-0.577764	0.733917
O14	O	0.859714	-0.571455	0.571251
O15	O	1.060303	-0.464062	0.738707
O16	O	1.060216	-0.738909	0.463799
O17	O	0.973766	-0.734133	0.577513
C18	C	0.834194	-0.510804	0.510613
C19	C	0.755964	-0.506503	0.506322
C20	C	0.719212	-0.566263	0.565885
C21	C	0.645707	-0.562210	0.561858
C22	C	0.608956	-0.498401	0.498262
C23	C	0.645713	-0.438635	0.438697
C24	C	0.719217	-0.442684	0.442730
C25	C	0.389124	-0.479662	0.479602
C26	C	0.315615	-0.475619	0.475572
C27	C	0.315614	-0.599194	0.598735
C28	C	0.389119	-0.603242	0.602758
C29	C	0.425870	-0.543472	0.543196
N30	N	0.533822	-0.494259	0.494142
N31	N	0.501003	-0.547610	0.547322
C32	C	1.016999	-0.771521	0.520671
C33	C	1.017039	-0.878737	0.520696
C34	C	1.017073	-0.965809	0.520720
C35	C	1.017123	-1.075044	0.520748
C36	C	1.200633	-0.531056	0.530821
C37	C	1.278863	-0.535380	0.535135
C38	C	1.017059	-0.520914	0.772290
C39	C	1.017060	-0.520916	0.879504
C40	C	1.017133	-0.269321	0.520745
C41	C	1.017166	-0.162109	0.520765
C42	C	1.017043	-0.520919	1.075798
C43	C	1.017050	-0.520920	0.966566
C44	C	1.017047	-0.520925	1.270082
C45	C	1.017042	-0.520917	1.162868
H46	H	0.749130	-0.618227	0.617668
H47	H	0.615787	-0.610874	0.610359
H48	H	0.419037	-0.431000	0.431096
H49	H	0.419037	-0.655204	0.654542
C50	C	0.275183	-0.664930	0.664255
N51	N	0.244729	-0.714441	0.713611
H52	H	0.285694	-0.423647	0.423791
C53	C	0.605284	-0.368441	0.368743
N54	N	0.574833	-0.315572	0.316051
C55	C	0.759644	-0.376945	0.377204
N56	N	0.790092	-0.327426	0.327849
