data_functionalizedCrystal
_audit_creation_method	'MofGen! by Chris Wilmer'
_symmetry_space_group_name_H-M	'P1'
_symmetry_Int_Tables_number	1
_symmetry_cell_setting	triclinic
loop_
_symmetry_equiv_pos_as_xyz
  x,y,z
_cell_length_a	16.109302
_cell_length_b	17.699092
_cell_length_c	14.586319
_cell_angle_alpha	89.997896
_cell_angle_beta	89.994552
_cell_angle_gamma	83.374074
loop_
_atom_site_label
_atom_site_type_symbol
_atom_site_fract_x
_atom_site_fract_y
_atom_site_fract_z
O1	O	1.102966	0.097287	-0.076278
O2	O	0.860884	0.109393	-0.076270
O3	O	0.988761	-0.006839	-0.076272
O4	O	0.975089	0.213519	-0.076276
O5	O	0.988752	-0.006841	0.076208
O6	O	0.860875	0.109391	0.076210
O7	O	1.102957	0.097285	0.076203
Cu8	Cu	0.981915	0.103338	0.090129
Cu9	Cu	0.981926	0.103340	-0.090197
O10	O	0.975080	0.213517	0.076205
C11	C	0.829905	0.108902	-0.000029
C12	C	0.737612	0.107431	-0.000026
C13	C	0.525272	0.104030	0.083082
C14	C	0.438555	0.102640	0.083079
C15	C	0.438575	0.102646	-0.083164
C16	C	0.525292	0.104030	-0.083160
C17	C	0.568638	0.104726	-0.000034
C18	C	0.395203	0.101952	-0.000041
C19	C	0.301180	0.100445	-0.000046
C20	C	0.662667	0.106232	-0.000030
C21	C	0.988265	-0.035037	-0.000033
C22	C	0.986792	-0.119057	-0.000037
C23	C	0.986107	-0.158525	-0.083156
C24	C	0.984717	-0.237470	-0.083157
C25	C	0.984019	-0.276946	-0.000039
C26	C	0.984702	-0.237473	0.083086
C27	C	0.986085	-0.158529	0.083086
C28	C	0.979121	-0.555846	0.083088
C29	C	0.977740	-0.634796	0.083081
C30	C	0.977753	-0.634787	-0.083155
C31	C	0.979136	-0.555843	-0.083155
C32	C	0.979815	-0.516376	-0.000031
C33	C	0.981320	-0.430775	-0.000031
C34	C	0.982520	-0.362547	-0.000038
C35	C	1.133936	0.097776	-0.000041
C36	C	1.226228	0.099247	-0.000049
C37	C	0.975576	0.241716	-0.000036
C38	C	0.977049	0.325736	-0.000038
N39	N	0.981914	0.103336	0.216961
N40	N	0.981934	0.103336	-0.217029
C41	C	1.038556	0.051886	0.451967
C42	C	1.038559	0.051884	0.547948
C43	C	0.925285	0.154789	0.547959
C44	C	0.925279	0.154786	0.451980
C45	C	0.981920	0.103336	0.403986
C46	C	0.981928	0.103336	0.595947
C47	C	0.981930	0.103335	0.700014
C48	C	0.981917	0.103336	0.299912
H49	H	0.403250	0.102074	0.150760
Br50	Br	0.379746	0.101679	-0.195972
Br51	Br	0.987011	-0.104964	0.195894
Br52	Br	0.584152	0.104966	-0.195969
Br53	Br	0.987063	-0.104958	-0.195966
Br54	Br	0.980091	-0.502272	-0.195962
H55	H	0.984163	-0.269601	-0.150840
Br56	Br	1.115424	-0.017941	0.386836
H57	H	0.879171	0.196680	0.587045
H58	H	0.560562	0.104597	0.150768
H59	H	0.879155	0.196684	0.412911
Br60	Br	0.976832	-0.688353	-0.195969
H61	H	0.977169	-0.666936	0.150770
Br62	Br	0.980025	-0.502292	0.195899
Br63	Br	0.983741	-0.291046	0.195891
H64	H	1.084677	0.009988	0.587011
