data_functionalizedCrystal
_audit_creation_method	'MofGen! by Chris Wilmer'
_symmetry_space_group_name_H-M	'P1'
_symmetry_Int_Tables_number	1
_symmetry_cell_setting	triclinic
loop_
_symmetry_equiv_pos_as_xyz
  x,y,z
_cell_length_a	10.654559
_cell_length_b	9.130313
_cell_length_c	17.699083
_cell_angle_alpha	89.991737
_cell_angle_beta	96.114151
_cell_angle_gamma	90.000468
loop_
_atom_site_label
_atom_site_type_symbol
_atom_site_fract_x
_atom_site_fract_y
_atom_site_fract_z
O1	O	1.665966	0.121833	-0.106332
O2	O	1.300312	0.121836	-0.116453
O3	O	1.493470	0.121799	-0.001269
O4	O	1.472808	0.121870	-0.221516
O5	O	1.493467	-0.121800	-0.001272
O6	O	1.300309	-0.121763	-0.116456
O7	O	1.665964	-0.121766	-0.106336
Cu8	Cu	1.483136	-0.144007	-0.111396
Cu9	Cu	1.483139	0.144077	-0.111392
O10	O	1.472806	-0.121729	-0.221519
C11	C	1.253526	0.000037	-0.115710
C12	C	1.114122	0.000036	-0.113482
N13	N	1.483144	-0.346630	-0.111398
C14	C	1.063806	0.000010	-0.043570
C15	C	0.932821	0.000020	-0.041482
C16	C	0.902477	0.000077	-0.179224
C17	C	1.033461	0.000078	-0.181311
C18	C	1.144468	-0.000031	0.024259
C19	C	1.094153	-0.000059	0.094176
C20	C	0.963167	-0.000049	0.096265
C21	C	0.882497	-0.000011	0.028436
C22	C	1.568695	-0.423298	-0.060412
C23	C	1.568692	-0.576635	-0.060403
C24	C	1.397581	-0.576621	-0.162372
C25	C	1.397579	-0.423287	-0.162377
C26	C	1.654260	-0.346641	-0.009433
C27	C	1.739819	-0.423309	0.041556
C28	C	1.739816	-0.576646	0.041565
C29	C	1.654253	-0.653314	-0.009415
C30	C	1.712750	0.000037	-0.107079
C31	C	1.852153	0.000046	-0.109306
C32	C	1.492728	-0.000007	0.026931
C33	C	1.490507	-0.000025	0.110963
N34	N	1.483142	0.346700	-0.111384
C35	C	1.603887	-0.000037	0.158861
C36	C	1.601792	-0.000041	0.237818
C37	C	1.486317	-0.000042	0.268875
C38	C	1.372929	-0.000025	0.220971
C39	C	1.375024	-0.000011	0.142016
C40	C	1.364475	-0.000079	0.539388
C41	C	1.362388	-0.000098	0.618349
C42	C	1.591242	-0.000109	0.635190
C43	C	1.593338	-0.000095	0.556235
C44	C	1.479951	-0.000070	0.508338
C45	C	1.482223	-0.000064	0.422724
C46	C	1.484043	-0.000059	0.354487
C47	C	1.473547	0.000028	0.750281
C48	C	1.475768	-0.000100	0.666249
H49	H	1.251124	-0.000044	0.022566
Cl50	Cl	1.749064	-0.000051	0.119826
H51	H	1.268348	-0.000102	0.643632
H52	H	0.775840	0.000010	0.030142
H53	H	1.327914	-0.360863	-0.203894
Cl54	Cl	1.744333	-0.000061	0.298029
Cl55	Cl	1.221930	-0.000045	0.479185
Cl56	Cl	0.899917	-0.000058	0.184159
H57	H	1.687370	-0.000101	0.530953
H58	H	0.836786	0.000106	-0.234447
H59	H	1.654272	-0.221786	-0.009437
H60	H	1.278907	-0.000017	0.246264
H61	H	1.074428	0.000086	-0.238240
Cl62	Cl	1.733789	-0.000134	0.695408
Cl63	Cl	1.195564	-0.000091	0.179442
Cl64	Cl	1.290028	-0.673004	-0.226460
Cl65	Cl	1.847364	-0.673028	0.105670
Cl66	Cl	1.232484	0.000010	0.081800
Cl67	Cl	1.847367	-0.326931	0.105649
H68	H	1.654249	-0.778172	-0.009398
