data_functionalizedCrystal
_audit_creation_method	'MofGen! by Chris Wilmer'
_symmetry_space_group_name_H-M	'P1'
_symmetry_Int_Tables_number	1
_symmetry_cell_setting	triclinic
loop_
_symmetry_equiv_pos_as_xyz
  x,y,z
_cell_length_a	16.625547
_cell_length_b	29.839126
_cell_length_c	16.625546
_cell_angle_alpha	90.022454
_cell_angle_beta	89.977595
_cell_angle_gamma	89.975854
loop_
_atom_site_label
_atom_site_type_symbol
_atom_site_fract_x
_atom_site_fract_y
_atom_site_fract_z
Zn1	Zn	1.232675	-0.254065	0.321065
Zn2	Zn	1.566008	0.079269	0.654398
Zn3	Zn	1.899342	0.412602	0.987731
Zn4	Zn	1.232580	-0.178937	0.455889
Zn5	Zn	1.565913	0.154397	0.789222
Zn6	Zn	1.899247	0.487730	1.122556
Zn7	Zn	1.097839	-0.178941	0.321074
Zn8	Zn	1.431172	0.154392	0.654407
Zn9	Zn	1.764505	0.487725	0.987741
Zn10	Zn	1.097807	-0.254032	0.455859
Zn11	Zn	1.431141	0.079301	0.789192
Zn12	Zn	1.764474	0.412634	1.122526
O13	O	1.165225	-0.216494	0.388472
O14	O	1.498559	0.116840	0.721805
O15	O	1.831892	0.450173	1.055138
O16	O	1.345495	-0.244110	0.338958
O17	O	1.678828	0.089223	0.672292
O18	O	2.012162	0.422556	1.005625
O19	O	1.214679	-0.116070	0.438022
O20	O	1.548013	0.217263	0.771356
O21	O	1.881346	0.550596	1.104689
O22	O	1.115778	-0.188922	0.208240
O23	O	1.449111	0.144411	0.541574
O24	O	1.782444	0.477745	0.874907
O25	O	1.345425	-0.188914	0.438013
O26	O	1.678758	0.144419	0.771346
O27	O	2.012092	0.477753	1.104680
O28	O	1.214842	-0.244115	0.208234
O29	O	1.548175	0.089219	0.541567
O30	O	1.881508	0.422552	0.874900
O31	O	1.115685	-0.116074	0.338974
O32	O	1.449019	0.217260	0.672307
O33	O	1.782352	0.550593	1.005641
O34	O	0.985002	-0.188891	0.338945
O35	O	1.318335	0.144443	0.672278
O36	O	1.651669	0.477776	1.005611
O37	O	1.115725	-0.316904	0.437962
O38	O	1.449058	0.016430	0.771295
O39	O	1.782391	0.349763	1.104628
O40	O	0.984979	-0.244060	0.437971
O41	O	1.318312	0.089274	0.771304
O42	O	1.651646	0.422607	1.104637
O43	O	1.214811	-0.316927	0.338929
O44	O	1.548145	0.016406	0.672262
O45	O	1.881478	0.349739	1.005596
O46	O	1.214649	-0.188883	0.568718
O47	O	1.547982	0.144450	0.902051
O48	O	1.881316	0.477784	1.235384
O49	O	1.115632	-0.244055	0.568695
O50	O	1.448966	0.089278	0.902029
O51	O	1.782299	0.422611	1.235362
C52	C	0.955734	-0.216473	0.388456
C53	C	1.289068	0.116861	0.721789
C54	C	1.622401	0.450194	1.055123
C55	C	0.866113	-0.216474	0.388469
C56	C	1.199447	0.116859	0.721802
C57	C	1.532780	0.450193	1.055135
C58	C	0.793331	-0.216480	0.388470
C59	C	1.126664	0.116854	0.721804
C60	C	1.459997	0.450187	1.055137
C61	C	0.702022	-0.216491	0.388475
C62	C	1.035356	0.116842	0.721808
C63	C	1.368689	0.450176	1.055141
C64	C	0.629246	-0.216502	0.388482
C65	C	0.962579	0.116831	0.721815
C66	C	1.295913	0.450164	1.055149
C67	C	0.537932	-0.216513	0.388488
C68	C	0.871265	0.116820	0.721821
C69	C	1.204598	0.450154	1.055154
C70	C	1.165275	-0.333672	0.388441
C71	C	1.498608	-0.000339	0.721774
C72	C	1.831942	0.332995	1.055107
C73	C	1.165296	-0.383607	0.388428
C74	C	1.498630	-0.050273	0.721761
C75	C	1.831963	0.283060	1.055094
C76	C	1.113766	-0.693255	0.336773
C77	C	1.447100	-0.359921	0.670106
C78	C	1.780433	-0.026588	1.003439
C79	C	1.113789	-0.880928	0.336717
C80	C	1.447122	-0.547595	0.670050
C81	C	1.780456	-0.214261	1.003383
O82	O	1.069936	-0.905197	0.292878
O83	O	1.403269	-0.571863	0.626211
O84	O	1.736603	-0.238530	0.959545
N85	N	1.165335	-0.904392	0.388276
N86	N	1.498668	-0.571059	0.721610
N87	N	1.832001	-0.237725	1.054943
C88	C	1.216874	-0.880935	0.439857
C89	C	1.550208	-0.547601	0.773191
C90	C	1.883541	-0.214268	1.106524
O91	O	1.260711	-0.905199	0.483717
O92	O	1.594045	-0.571865	0.817050
O93	O	1.927378	-0.238532	1.150383
C94	C	1.216847	-0.693262	0.439917
C95	C	1.550180	-0.359929	0.773250
C96	C	1.883513	-0.026596	1.106584
C97	C	1.165304	-0.669801	0.388348
C98	C	1.498637	-0.336468	0.721681
C99	C	1.831970	-0.003134	1.055015
C100	C	1.062227	-0.669793	0.285209
C101	C	1.395560	-0.336460	0.618542
C102	C	1.728894	-0.003126	0.951875
C103	C	1.062225	-0.622878	0.285220
C104	C	1.395558	-0.289544	0.618553
C105	C	1.728891	0.043789	0.951887
C106	C	1.113762	-0.599424	0.336795
C107	C	1.447096	-0.266090	0.670129
C108	C	1.780429	0.067243	1.003462
C109	C	1.165302	-0.622885	0.388359
C110	C	1.498635	-0.289552	0.721693
C111	C	1.831968	0.043781	1.055026
C112	C	1.268382	-0.669806	0.491501
C113	C	1.601715	-0.336473	0.824835
C114	C	1.935048	-0.003139	1.158168
C115	C	1.268369	-0.622885	0.491513
C116	C	1.601702	-0.289552	0.824846
C117	C	1.935036	0.043782	1.158180
C118	C	1.216826	-0.599424	0.439944
C119	C	1.550159	-0.266090	0.773278
C120	C	1.883493	0.067243	1.106611
C121	C	1.216837	-0.552516	0.439946
C122	C	1.550170	-0.219183	0.773280
C123	C	1.883504	0.114151	1.106613
N124	N	1.165292	-0.529052	0.388387
N125	N	1.498625	-0.195719	0.721720
N126	N	1.831958	0.137615	1.055053
C127	C	1.113754	-0.552506	0.336811
C128	C	1.447087	-0.219173	0.670145
C129	C	1.780421	0.114161	1.003478
C130	C	1.216886	-0.979465	0.439821
C131	C	1.550220	-0.646132	0.773155
C132	C	1.883553	-0.312799	1.106488
C133	C	1.216894	-1.026383	0.439806
C134	C	1.550228	-0.693050	0.773139
C135	C	1.883561	-0.359717	1.106472
C136	C	1.113808	-1.026373	0.336666
C137	C	1.447141	-0.693040	0.669999
C138	C	1.780474	-0.359706	1.003332
C139	C	1.113804	-0.979454	0.336678
C140	C	1.447138	-0.646121	0.670011
C141	C	1.780471	-0.312788	1.003345
C142	C	1.165341	-0.956001	0.388262
C143	C	1.498674	-0.622668	0.721595
C144	C	1.832007	-0.289335	1.054928
C145	C	1.113754	-0.453980	0.336839
C146	C	1.447087	-0.120647	0.670172
C147	C	1.780421	0.212687	1.003505
C148	C	1.113759	-0.407060	0.336852
C149	C	1.447092	-0.073727	0.670186
C150	C	1.780426	0.259606	1.003519
C151	C	1.216842	-0.407075	0.439995
C152	C	1.550175	-0.073741	0.773328
C153	C	1.883509	0.259592	1.106661
C154	C	1.216841	-0.453990	0.439978
C155	C	1.550174	-0.120657	0.773312
C156	C	1.883507	0.212677	1.106645
C157	C	1.165290	-0.477442	0.388398
C158	C	1.498623	-0.144108	0.721731
C159	C	1.831957	0.189225	1.055064
O160	O	1.260661	-0.528218	0.483768
O161	O	1.593994	-0.194885	0.817102
O162	O	1.927327	0.138448	1.150435
O163	O	1.069911	-0.528234	0.292971
O164	O	1.403244	-0.194901	0.626304
O165	O	1.736578	0.138433	0.959638
C166	C	1.113768	-0.740170	0.336761
C167	C	1.447102	-0.406837	0.670095
C168	C	1.780435	-0.073504	1.003428
C169	C	1.165308	-0.763632	0.388325
C170	C	1.498641	-0.430298	0.721659
C171	C	1.831975	-0.096965	1.054992
C172	C	1.216845	-0.740178	0.439901
C173	C	1.550179	-0.406845	0.773234
C174	C	1.883512	-0.073511	1.106567
C175	C	1.165316	-0.810550	0.388309
C176	C	1.498649	-0.477216	0.721643
C177	C	1.831983	-0.143883	1.054976
C178	C	1.113779	-0.834004	0.336734
C179	C	1.447112	-0.500670	0.670067
C180	C	1.780445	-0.167337	1.003401
C181	C	1.062233	-0.810539	0.285174
C182	C	1.395566	-0.477206	0.618508
C183	C	1.728900	-0.143873	0.951841
C184	C	1.062231	-0.763624	0.285186
C185	C	1.395564	-0.430291	0.618519
C186	C	1.728898	-0.096957	0.951853
C187	C	1.268391	-0.763642	0.491460
C188	C	1.601724	-0.430309	0.824794
C189	C	1.935057	-0.096975	1.158127
C190	C	1.268389	-0.810557	0.491444
C191	C	1.601723	-0.477224	0.824777
C192	C	1.935056	-0.143891	1.158111
C193	C	1.216852	-0.834011	0.439869
C194	C	1.550185	-0.500678	0.773202
C195	C	1.883519	-0.167345	1.106535
C196	C	1.375534	-0.216515	0.388488
C197	C	1.708867	0.116818	0.721821
C198	C	2.042201	0.450151	1.055155
C199	C	1.465155	-0.216524	0.388495
C200	C	1.798489	0.116809	0.721828
C201	C	2.131822	0.450142	1.055162
C202	C	1.165149	-0.216475	0.597963
C203	C	1.498482	0.116858	0.931296
C204	C	1.831816	0.450192	1.264629
C205	C	1.165190	-0.216482	0.687584
C206	C	1.498523	0.116851	1.020917
C207	C	1.831857	0.450185	1.354250
C208	C	1.165222	-0.099771	0.388444
C209	C	1.498555	0.233562	0.721778
C210	C	1.831889	0.566895	1.055111
C211	C	1.165357	-0.049837	0.388230
C212	C	1.498690	0.283496	0.721564
C213	C	1.832023	0.616830	1.054897
C214	C	1.165324	-0.216522	0.178163
C215	C	1.498657	0.116811	0.511496
C216	C	1.831990	0.450144	0.844829
C217	C	1.165366	-0.216535	0.088542
C218	C	1.498699	0.116799	0.421875
C219	C	1.832032	0.450132	0.755208
C220	C	1.165331	-0.216529	1.015759
C221	C	1.498664	0.116805	1.349093
C222	C	1.831997	0.450138	1.682426
C223	C	1.165289	-0.216517	0.924451
C224	C	1.498622	0.116816	1.257784
C225	C	1.831956	0.450150	1.591117
C226	C	1.165260	-0.216505	0.851674
C227	C	1.498593	0.116828	1.185008
C228	C	1.831926	0.450162	1.518341
C229	C	1.165219	-0.216494	0.760360
C230	C	1.498553	0.116840	1.093693
C231	C	1.831886	0.450173	1.427027
H232	H	1.071787	-0.387960	0.294855
H233	H	1.405120	-0.054627	0.628188
H234	H	1.738453	0.278707	0.961522
F235	F	1.271763	-1.051348	0.494683
F236	F	1.605096	-0.718014	0.828016
F237	F	1.938430	-0.384681	1.161349
F238	F	1.323248	-0.738687	0.546356
F239	F	1.656581	-0.405354	0.879690
F240	F	1.989915	-0.072020	1.213023
H241	H	1.310342	-0.603792	0.533515
H242	H	1.643675	-0.270459	0.866848
H243	H	1.977009	0.062875	1.200181
F244	F	1.271711	-0.478961	0.494851
F245	F	1.605044	-0.145627	0.828184
F246	F	1.938377	0.187706	1.161517
H247	H	1.071778	-0.473069	0.294836
H248	H	1.405111	-0.139735	0.628169
H249	H	1.738444	0.193598	0.961503
H250	H	1.020273	-0.829644	0.243177
H251	H	1.353606	-0.496310	0.576510
H252	H	1.686939	-0.162977	0.909843
F253	F	1.007371	-0.738660	0.230299
F254	F	1.340704	-0.405327	0.563633
F255	F	1.674038	-0.071994	0.896966
H256	H	1.020255	-0.688884	0.243209
H257	H	1.353588	-0.355551	0.576543
H258	H	1.686921	-0.022218	0.909876
F259	F	1.271693	-0.382105	0.494878
F260	F	1.605026	-0.048772	0.828211
F261	F	1.938360	0.284562	1.161545
F262	F	1.323237	-0.694766	0.546394
F263	F	1.656571	-0.361432	0.879727
F264	F	1.989904	-0.028099	1.213061
F265	F	1.323255	-0.835522	0.546332
F266	F	1.656589	-0.502189	0.879665
F267	F	1.989922	-0.168855	1.212999
H268	H	1.020250	-0.603779	0.243231
H269	H	1.353583	-0.270446	0.576564
H270	H	1.686917	0.062887	0.909897
F271	F	1.058945	-0.954489	0.281793
F272	F	1.392278	-0.621156	0.615126
F273	F	1.725612	-0.287822	0.948460
H274	H	1.071846	-1.045477	0.294669
H275	H	1.405179	-0.712144	0.628003
H276	H	1.738513	-0.378811	0.961336
F277	F	1.271745	-0.954511	0.494725
F278	F	1.605078	-0.621177	0.828058
F279	F	1.938411	-0.287844	1.161392
