data_functionalizedCrystal
_audit_creation_method	'MofGen! by Chris Wilmer'
_symmetry_space_group_name_H-M	'P1'
_symmetry_Int_Tables_number	1
_symmetry_cell_setting	triclinic
loop_
_symmetry_equiv_pos_as_xyz
  x,y,z
_cell_length_a	12.759395
_cell_length_b	19.121063
_cell_length_c	12.759387
_cell_angle_alpha	92.403602
_cell_angle_beta	89.979491
_cell_angle_gamma	92.470426
loop_
_atom_site_label
_atom_site_type_symbol
_atom_site_fract_x
_atom_site_fract_y
_atom_site_fract_z
Zn1	Zn	1.588336	-0.279547	-0.611793
Zn2	Zn	1.580692	-0.397015	-0.443587
Zn3	Zn	1.412632	-0.279586	-0.436132
Zn4	Zn	1.405095	-0.396965	-0.619223
O5	O	1.496689	-0.338278	-0.527684
O6	O	1.734343	-0.295134	-0.589490
O7	O	1.558353	-0.381475	-0.295580
O8	O	1.442293	-0.181296	-0.453204
O9	O	1.728726	-0.381437	-0.465911
O10	O	1.571382	-0.181268	-0.582261
O11	O	1.434881	-0.295200	-0.290102
O12	O	1.264611	-0.295151	-0.460409
O13	O	1.429447	-0.381352	-0.765256
O14	O	1.259074	-0.381389	-0.594925
O15	O	1.564074	-0.295086	-0.759797
O16	O	1.551045	-0.495293	-0.473116
O17	O	1.422034	-0.495256	-0.602155
C18	C	1.223722	-0.338270	-0.527665
C19	C	1.106944	-0.338283	-0.527683
C20	C	1.101207	-0.428228	-0.667547
C21	C	1.043477	-0.473206	-0.737482
C22	C	0.933755	-0.473214	-0.737496
C23	C	0.881761	-0.428239	-0.667569
C24	C	0.939490	-0.383261	-0.597633
C25	C	1.049215	-0.383258	-0.597625
C26	C	0.945228	-0.293313	-0.457776
C27	C	1.054950	-0.293307	-0.457756
C28	C	0.893233	-0.248337	-0.387849
C29	C	0.950963	-0.203362	-0.317907
C30	C	1.060691	-0.203356	-0.317895
C31	C	1.112679	-0.248329	-0.387821
C32	C	1.484921	-0.520758	-0.539274
C33	C	1.479982	-0.598824	-0.544267
C34	C	1.544883	-0.635495	-0.479485
C35	C	1.540245	-0.708846	-0.484187
C36	C	1.470700	-0.745525	-0.553667
C37	C	1.405796	-0.708848	-0.618456
C38	C	1.410440	-0.635499	-0.613759
C39	C	1.453319	-0.966994	-0.571215
C40	C	1.448677	-1.040349	-0.575905
C41	C	1.583128	-1.040341	-0.441637
C42	C	1.587762	-0.966990	-0.436941
C43	C	1.522862	-0.930320	-0.501734
C44	C	1.465955	-0.820501	-0.558473
C45	C	1.527613	-0.855345	-0.496933
C46	C	1.770721	-0.338287	-0.527703
C47	C	1.887498	-0.338291	-0.527711
C48	C	1.496772	-0.338209	-0.801713
C49	C	1.496808	-0.338180	-0.918488
C50	C	1.508531	-0.155086	-0.516072
C51	C	1.513578	-0.077020	-0.511123
C52	C	1.637004	-0.248357	-0.912823
C53	C	1.707117	-0.203435	-0.964851
C54	C	1.707144	-0.203409	-1.074571
C55	C	1.637048	-0.248309	-1.132266
C56	C	1.566935	-0.293231	-1.080238
C57	C	1.566918	-0.293253	-0.970516
C58	C	1.426736	-0.383050	-1.085903
C59	C	1.426712	-0.383080	-0.976183
C60	C	1.356641	-0.427949	-1.143598
C61	C	1.286531	-0.472876	-1.091570
C62	C	1.286507	-0.472900	-0.981843
C63	C	1.356599	-0.428002	-0.924155
C64	C	1.496669	-0.338296	-0.254717
C65	C	1.496849	-0.338128	-0.137931
H66	H	0.803891	-0.248344	-0.387869
H67	H	1.409329	-0.850373	-0.615042
H68	H	1.400473	-0.937143	-0.623970
H69	H	0.886752	-0.509836	-0.794448
C70	C	1.272984	-0.199349	-0.311659
C71	C	1.233287	-0.248324	-0.387808
H72	H	1.347443	-0.199350	-0.311652
H73	H	1.251094	-0.154049	-0.327076
H74	H	1.247348	-0.211441	-0.244602
H75	H	1.258917	-0.236228	-0.454866
H76	H	1.255187	-0.293633	-0.372397
C77	C	0.721462	-0.477221	-0.743737
C78	C	0.761152	-0.428247	-0.667584
H79	H	0.647003	-0.477228	-0.743738
H80	H	0.747090	-0.465127	-0.810785
H81	H	0.743362	-0.522525	-0.728320
H82	H	0.739258	-0.382941	-0.683005
H83	H	0.735514	-0.440337	-0.600521
C84	C	1.713309	-0.199494	-0.752564
C85	C	1.636981	-0.248387	-0.792217
H86	H	1.713290	-0.199511	-0.678107
H87	H	1.780313	-0.211646	-0.778166
H88	H	1.698076	-0.154165	-0.774515
H89	H	1.652218	-0.293718	-0.770273
H90	H	1.569962	-0.236240	-0.766605
C91	C	0.785313	-0.163434	-0.255832
C92	C	0.893809	-0.153931	-0.241047
H93	H	0.750028	-0.132920	-0.208375
H94	H	0.768035	-0.153211	-0.325794
H95	H	0.764293	-0.210615	-0.243337
H96	H	0.914831	-0.106751	-0.253550
H97	H	0.911095	-0.164149	-0.171069
H98	H	1.349175	-0.738718	-0.675033
H99	H	1.392058	-1.070210	-0.632503
H100	H	1.764186	-0.166877	-0.917864
C101	C	1.277076	-0.642869	-0.746947
C102	C	1.339101	-0.595187	-0.684971
H103	H	1.233034	-0.617981	-0.790911
H104	H	1.321023	-0.671431	-0.788996
H105	H	1.235094	-0.671524	-0.702963
H106	H	1.381090	-0.566535	-0.728956
H107	H	1.295149	-0.566612	-0.642918
C108	C	1.224208	-0.512824	-0.816167
C109	C	1.209434	-0.522280	-0.924657
H110	H	1.176619	-0.543306	-0.780868
H111	H	1.294118	-0.523119	-0.798854
H112	H	1.211887	-0.465634	-0.795202
H113	H	1.221762	-0.569468	-0.945623
H114	H	1.139507	-0.511990	-0.941977
C115	C	1.379119	-0.494735	-1.305001
C116	C	1.356667	-0.427924	-1.264204
H117	H	1.379129	-0.494721	-1.379459
H118	H	1.446119	-0.506885	-1.280961
H119	H	1.327324	-0.527906	-1.282263
H120	H	1.408467	-0.394753	-1.286935
H121	H	1.289658	-0.415766	-1.288254
H122	H	1.584241	-0.825479	-0.440366
H123	H	1.107689	-0.166724	-0.260952
C124	C	1.654570	-0.854549	-0.370117
C125	C	1.664206	-0.926674	-0.360565
H126	H	1.701757	-0.829661	-0.322956
H127	H	1.670680	-0.842484	-0.439938
H128	H	1.584739	-0.842586	-0.353916
H129	H	1.734035	-0.938638	-0.376773
H130	H	1.648102	-0.938744	-0.290727
H131	H	1.635967	-1.070206	-0.388888
C132	C	1.227654	-0.591791	-1.132881
C133	C	1.209487	-0.522226	-1.154985
H134	H	1.180085	-0.622257	-1.172030
H135	H	1.297573	-0.602065	-1.151534
H136	H	1.217606	-0.598230	-1.060088
H137	H	1.219542	-0.515785	-1.227777
H138	H	1.139551	-0.511948	-1.136339
C139	C	1.677318	-0.642863	-0.347245
C140	C	1.621330	-0.595182	-0.403109
H141	H	1.724519	-0.617975	-0.300099
H142	H	1.629750	-0.671519	-0.308855
H143	H	1.715671	-0.671426	-0.394897
H144	H	1.582971	-0.566623	-0.355456
H145	H	1.668905	-0.566514	-0.441501
H146	H	1.190548	-0.428231	-0.667536
C147	C	1.455366	-0.445942	-0.768141
C148	C	1.356586	-0.428024	-0.803549
H149	H	1.455360	-0.445948	-0.693683
H150	H	1.470585	-0.491261	-0.795826
H151	H	1.507143	-0.412761	-0.790889
H152	H	1.304810	-0.461208	-0.780807
H153	H	1.341355	-0.382699	-0.775853
H154	H	1.085824	-0.509823	-0.794417
H155	H	1.764230	-0.166825	-1.116932
H156	H	1.637068	-0.248278	-1.221605
H157	H	1.593093	-0.738701	-0.431434
