data_functionalizedCrystal
_audit_creation_method	'MofGen! by Chris Wilmer'
_symmetry_space_group_name_H-M	'P1'
_symmetry_Int_Tables_number	1
_symmetry_cell_setting	triclinic
loop_
_symmetry_equiv_pos_as_xyz
  x,y,z
_cell_length_a	14.908795
_cell_length_b	14.908520
_cell_length_c	14.908791
_cell_angle_alpha	83.236714
_cell_angle_beta	96.783856
_cell_angle_gamma	96.791092
loop_
_atom_site_label
_atom_site_type_symbol
_atom_site_fract_x
_atom_site_fract_y
_atom_site_fract_z
Zn1	Zn	1.396097	-0.314043	0.608884
Zn2	Zn	1.896097	0.185957	1.108884
Zn3	Zn	1.379464	-0.457546	0.465341
Zn4	Zn	1.879464	0.042454	0.965341
Zn5	Zn	1.236034	-0.314009	0.448789
Zn6	Zn	1.736034	0.185991	0.948789
Zn7	Zn	1.235954	-0.474083	0.608811
Zn8	Zn	1.735954	0.025917	1.108811
O9	O	1.311887	-0.389920	0.532956
O10	O	1.811887	0.110080	1.032956
O11	O	1.520937	-0.326172	0.596800
O12	O	2.020937	0.173828	1.096800
O13	O	1.353510	-0.431570	0.336102
O14	O	1.853510	0.068430	0.836102
O15	O	1.264261	-0.186966	0.463130
O16	O	1.764261	0.313034	0.963130
O17	O	1.508717	-0.431603	0.491340
O18	O	2.008717	0.068397	0.991340
O19	O	1.381859	-0.186991	0.580751
O20	O	1.881859	0.313009	1.080751
O21	O	1.248133	-0.326114	0.323942
O22	O	1.748133	0.173886	0.823942
O23	O	1.108976	-0.342150	0.463059
O24	O	1.608976	0.157850	0.963059
O25	O	1.264124	-0.459789	0.735864
O26	O	1.764124	0.040211	1.235864
O27	O	1.108917	-0.459756	0.580627
O28	O	1.608917	0.040244	1.080627
O29	O	1.381781	-0.342208	0.735918
O30	O	1.881781	0.157792	1.235918
O31	O	1.353433	-0.586788	0.491269
O32	O	1.853433	-0.086788	0.991269
O33	O	1.247996	-0.598938	0.596676
O34	O	1.747996	-0.098938	1.096676
C35	C	1.076005	-0.402745	0.520040
C36	C	1.576005	0.097255	1.020040
C37	C	0.975094	-0.408254	0.514537
C38	C	1.475094	0.091746	1.014537
C39	C	1.298926	-0.625804	0.545782
C40	C	1.798926	-0.125804	1.045782
C41	C	1.293466	-0.726714	0.551304
C42	C	1.793466	-0.226714	1.051304
C43	C	0.826503	-0.470809	0.451778
C44	C	1.326503	0.029191	0.951778
C45	C	0.921318	-0.465637	0.456948
C46	C	1.421318	0.034363	0.956948
C47	C	0.934048	-0.356038	0.566956
C48	C	1.434048	0.143962	1.066956
C49	C	0.839233	-0.361211	0.561786
C50	C	1.339233	0.138789	1.061786
C51	C	0.785464	-0.418599	0.504196
C52	C	1.285464	0.081401	1.004196
C53	C	0.690647	-0.423777	0.499031
C54	C	1.190647	0.076223	0.999031
C55	C	0.703378	-0.314174	0.609033
C56	C	1.203378	0.185826	1.109033
C57	C	0.798193	-0.309001	0.614204
C58	C	1.298193	0.190999	1.114204
C59	C	1.393122	-0.903619	0.452019
C60	C	1.893122	-0.403619	0.952019
C61	C	1.387995	-0.998432	0.457205
C62	C	1.887995	-0.498432	0.957205
C63	C	1.278090	-1.011154	0.566864
C64	C	1.778090	-0.511154	1.066864
C65	C	1.283217	-0.916341	0.561679
C66	C	1.783217	-0.416341	1.061679
C67	C	1.340734	-0.862577	0.504253
C68	C	1.840734	-0.362577	1.004253
C69	C	1.345856	-0.767762	0.499064
C70	C	1.845856	-0.267762	0.999064
C71	C	1.235957	-0.780486	0.608727
C72	C	1.735957	-0.280486	1.108727
C73	C	1.230830	-0.875299	0.613913
C74	C	1.730830	-0.375299	1.113913
C75	C	1.548690	-0.377047	0.545924
C76	C	2.048690	0.122953	1.045924
C77	C	1.649601	-0.371561	0.551450
C78	C	2.149601	0.128439	1.051450
C79	C	1.324799	-0.402847	0.769753
C80	C	1.824799	0.097153	1.269753
C81	C	1.330301	-0.408356	0.870661
C82	C	1.830301	0.091644	1.370661
C83	C	1.324924	-0.153115	0.520102
C84	C	1.824924	0.346885	1.020102
C85	C	1.330480	-0.052203	0.514624
C86	C	1.830480	0.447797	1.014624
C87	C	1.230890	-0.308899	1.047617
C88	C	1.730890	0.191101	1.547617
C89	C	1.236057	-0.314072	1.142429
C90	C	1.736057	0.185928	1.642429
C91	C	1.345797	-0.423879	1.155099
C92	C	1.845797	0.076121	1.655099
C93	C	1.340630	-0.418706	1.060287
C94	C	1.840630	0.081294	1.560287
C95	C	1.283175	-0.361213	1.006549
C96	C	1.783175	0.138787	1.506549
C97	C	1.278014	-0.356036	0.911735
C98	C	1.778014	0.143964	1.411735
C99	C	1.387749	-0.465847	0.924407
C100	C	1.887749	0.034153	1.424407
C101	C	1.392916	-0.471020	1.019219
C102	C	1.892916	0.028980	1.519219
C103	C	1.299016	-0.377065	1.297082
C104	C	1.799016	0.122935	1.797082
C105	C	1.293509	-0.371559	1.196173
C106	C	1.793509	0.128441	1.696173
H107	H	0.646869	-0.470508	0.452141
H108	H	1.146869	0.029492	0.952141
H109	H	1.193296	-0.747060	0.651257
H110	H	1.693296	-0.247060	1.151257
Cl111	Cl	1.158530	-0.942897	0.686103
Cl112	Cl	1.658530	-0.442897	1.186103
Cl113	Cl	0.758905	-0.542971	0.379400
Cl114	Cl	1.258905	-0.042971	0.879400
Cl115	Cl	0.865797	-0.236860	0.686599
Cl116	Cl	1.365797	0.263140	1.186599
H117	H	1.193480	-0.271473	1.175862
H118	H	1.693480	0.228527	1.675862
Cl119	Cl	1.205789	-0.283758	0.844180
Cl120	Cl	1.705789	0.216242	1.344180
Cl121	Cl	1.453485	-0.531615	0.872774
Cl122	Cl	1.953485	-0.031615	1.372774
Cl123	Cl	0.972908	-0.531272	0.391046
Cl124	Cl	1.472908	-0.031272	0.891046
Cl125	Cl	1.158674	-0.236615	0.980057
Cl126	Cl	1.658674	0.263385	1.480057
H127	H	1.392560	-0.470699	1.198869
H128	H	1.892560	0.029301	1.698869
H129	H	0.977843	-0.309310	0.613838
H130	H	1.477843	0.190690	1.113838
Cl131	Cl	1.465412	-0.836026	0.379816
Cl132	Cl	1.965412	-0.336026	0.879816
H133	H	1.439690	-0.517832	1.062986
H134	H	1.939690	-0.017832	1.562986
H135	H	1.392687	-0.723987	0.452303
H136	H	1.892687	-0.223987	0.952303
Cl137	Cl	0.651781	-0.248537	0.674937
Cl138	Cl	1.151781	0.251463	1.174937
H139	H	1.430656	-1.031844	0.414672
H140	H	1.930656	-0.531844	0.914672
H141	H	1.231269	-1.054946	0.613623
H142	H	1.731269	-0.554946	1.113623
