data_functionalizedCrystal
_audit_creation_method	'MofGen! by Chris Wilmer'
_symmetry_space_group_name_H-M	'P1'
_symmetry_Int_Tables_number	1
_symmetry_cell_setting	triclinic
loop_
_symmetry_equiv_pos_as_xyz
  x,y,z
_cell_length_a	10.654541
_cell_length_b	15.186229
_cell_length_c	16.109301
_cell_angle_alpha	89.988022
_cell_angle_beta	96.027295
_cell_angle_gamma	90.003747
loop_
_atom_site_label
_atom_site_type_symbol
_atom_site_fract_x
_atom_site_fract_y
_atom_site_fract_z
O1	O	1.666260	0.073205	-0.116771
O2	O	1.300630	0.073213	-0.127899
O3	O	1.493489	0.073200	-0.001364
O4	O	1.473401	0.073218	-0.243307
O5	O	1.493472	-0.073258	-0.001346
O6	O	1.300613	-0.073245	-0.127881
O7	O	1.666243	-0.073253	-0.116753
Zn8	Zn	1.483426	-0.096502	-0.122314
Zn9	Zn	1.483447	0.096462	-0.122338
O10	O	1.473384	-0.073239	-0.243288
C11	C	1.253835	-0.000015	-0.127073
C12	C	1.114424	-0.000012	-0.124630
N13	N	1.483420	-0.228194	-0.122298
C14	C	1.492667	-0.000030	0.029625
C15	C	1.490227	-0.000031	0.121935
C16	C	1.084401	0.000010	-0.275937
C17	C	1.003896	0.000025	-0.350439
C18	C	0.872909	0.000026	-0.348139
C19	C	0.822426	0.000009	-0.271327
C20	C	0.902931	-0.000006	-0.196825
C21	C	1.033919	-0.000004	-0.199134
C22	C	0.932954	-0.000035	-0.045520
C23	C	1.063941	-0.000029	-0.047819
C24	C	0.882471	-0.000051	0.031291
C25	C	0.962976	-0.000060	0.105795
C26	C	1.093970	-0.000059	0.103491
C27	C	1.144446	-0.000044	0.026683
C28	C	1.713038	-0.000023	-0.117579
C29	C	1.852449	-0.000020	-0.120022
N30	N	1.483463	0.228155	-0.122348
C31	C	1.569003	0.546067	-0.066409
C32	C	1.569008	0.453878	-0.066416
C33	C	1.397871	0.453899	-0.178239
C34	C	1.397860	0.546087	-0.178228
C35	C	1.483433	0.592169	-0.122314
C36	C	1.483450	0.407791	-0.122332
C37	C	1.483456	0.307835	-0.122339
C38	C	1.483426	0.692131	-0.122305
C39	C	1.474206	-0.000008	-0.274277
C40	C	1.476646	-0.000001	-0.366587
C41	C	1.598994	-0.000019	0.343561
C42	C	1.596692	-0.000012	0.430295
C43	C	1.367871	-0.000010	0.411780
C44	C	1.370174	-0.000011	0.325047
C45	C	1.485739	-0.000020	0.290941
C46	C	1.481134	-0.000012	0.464407
C47	C	1.478637	-0.000004	0.558448
C48	C	1.488237	-0.000026	0.196894
H49	H	1.191055	0.000029	-0.277818
Cl50	Cl	1.227785	-0.000005	0.258891
H51	H	1.328202	0.416371	-0.223765
H52	H	1.328173	0.583626	-0.223753
Cl53	Cl	1.744275	-0.000028	0.300687
H54	H	1.251100	-0.000033	0.024800
H55	H	1.688915	-0.000009	0.473136
H56	H	1.273781	-0.000005	0.439561
H57	H	0.921861	-0.000073	0.168329
Cl58	Cl	0.771699	0.000036	-0.441799
H59	H	0.715768	-0.000001	-0.269461
Cl60	Cl	0.717800	-0.000055	0.034184
Cl61	Cl	1.067366	0.000047	-0.446997
H62	H	1.159511	-0.000075	0.164161
H63	H	1.638685	0.416344	-0.020892
H64	H	1.638679	0.583585	-0.020879
