data_functionalizedCrystal
_audit_creation_method	'MofGen! by Chris Wilmer'
_symmetry_space_group_name_H-M	'P1'
_symmetry_Int_Tables_number	1
_symmetry_cell_setting	triclinic
loop_
_symmetry_equiv_pos_as_xyz
  x,y,z
_cell_length_a	29.839131
_cell_length_b	25.639242
_cell_length_c	25.639233
_cell_angle_alpha	90.023283
_cell_angle_beta	89.980415
_cell_angle_gamma	89.963922
loop_
_atom_site_label
_atom_site_type_symbol
_atom_site_fract_x
_atom_site_fract_y
_atom_site_fract_z
Zn1	Zn	-0.178972	-0.799215	-0.295755
Zn2	Zn	0.071028	-0.549215	-0.045755
Zn3	Zn	0.321028	-0.299215	0.204245
Zn4	Zn	0.571028	-0.049215	0.454245
Zn5	Zn	-0.254086	-0.799134	-0.208318
Zn6	Zn	-0.004086	-0.549134	0.041682
Zn7	Zn	0.245914	-0.299134	0.291682
Zn8	Zn	0.495914	-0.049134	0.541682
Zn9	Zn	-0.178964	-0.711791	-0.208317
Zn10	Zn	0.071036	-0.461791	0.041683
Zn11	Zn	0.321036	-0.211791	0.291683
Zn12	Zn	0.571036	0.038209	0.541683
Zn13	Zn	-0.254069	-0.711732	-0.295706
Zn14	Zn	-0.004069	-0.461732	-0.045706
Zn15	Zn	0.245931	-0.211732	0.204294
Zn16	Zn	0.495931	0.038268	0.454294
O17	O	-0.216523	-0.755468	-0.252024
O18	O	0.033477	-0.505468	-0.002024
O19	O	0.283477	-0.255468	0.247976
O20	O	0.533477	-0.005468	0.497976
O21	O	-0.188947	-0.872370	-0.284177
O22	O	0.061053	-0.622370	-0.034177
O23	O	0.311053	-0.372370	0.215823
O24	O	0.561053	-0.122370	0.465823
O25	O	-0.244126	-0.787539	-0.135153
O26	O	0.005874	-0.537539	0.114847
O27	O	0.255874	-0.287539	0.364847
O28	O	0.505874	-0.037539	0.614847
O29	O	-0.116098	-0.723447	-0.219936
O30	O	0.133902	-0.473447	0.030064
O31	O	0.383902	-0.223447	0.280064
O32	O	0.633902	0.026553	0.530064
O33	O	-0.244133	-0.872310	-0.219937
O34	O	0.005867	-0.622310	0.030063
O35	O	0.255867	-0.372310	0.280063
O36	O	0.505867	-0.122310	0.530063
O37	O	-0.116104	-0.787677	-0.284176
O38	O	0.133896	-0.537677	-0.034176
O39	O	0.383896	-0.287677	0.215824
O40	O	0.633896	-0.037677	0.465824
O41	O	-0.188934	-0.723369	-0.135152
O42	O	0.061066	-0.473369	0.114848
O43	O	0.311066	-0.223369	0.364848
O44	O	0.561066	0.026631	0.614848
O45	O	-0.188916	-0.638618	-0.219889
O46	O	0.061084	-0.388618	0.030111
O47	O	0.311084	-0.138618	0.280111
O48	O	0.561084	0.111382	0.530111
O49	O	-0.244103	-0.723346	-0.368878
O50	O	0.005897	-0.473346	-0.118878
O51	O	0.255897	-0.223346	0.131122
O52	O	0.505897	0.026654	0.381122
O53	O	-0.244095	-0.638575	-0.284093
O54	O	0.005905	-0.388575	-0.034093
O55	O	0.255905	-0.138575	0.215907
O56	O	0.505905	0.111425	0.465907
O57	O	-0.188930	-0.787619	-0.368914
O58	O	0.061070	-0.537619	-0.118914
O59	O	0.311070	-0.287619	0.131086
O60	O	0.561070	-0.037619	0.381086
O61	O	-0.316951	-0.787482	-0.219890
O62	O	-0.066951	-0.537482	0.030110
O63	O	0.183049	-0.287482	0.280110
O64	O	0.433049	-0.037482	0.530110
O65	O	-0.316938	-0.723268	-0.284094
O66	O	-0.066938	-0.473268	-0.034094
O67	O	0.183062	-0.223268	0.215906
O68	O	0.433062	0.026732	0.465906
C69	C	-0.216503	-0.619626	-0.251986
C70	C	0.033497	-0.369626	-0.001986
C71	C	0.283497	-0.119626	0.248014
C72	C	0.533497	0.130374	0.498014
C73	C	-0.216506	-0.561512	-0.251982
C74	C	0.033494	-0.311512	-0.001982
C75	C	0.283494	-0.061512	0.248018
C76	C	0.533494	0.188488	0.498018
C77	C	-0.187742	-0.310332	-0.218637
C78	C	0.062258	-0.060332	0.031363
C79	C	0.312258	0.189668	0.281363
C80	C	0.562258	0.439668	0.531363
C81	C	-0.187738	-0.364936	-0.218632
C82	C	0.062262	-0.114936	0.031368
C83	C	0.312262	0.135064	0.281368
C84	C	0.562262	0.385064	0.531368
O85	O	-0.163256	-0.393185	-0.190259
O86	O	0.086744	-0.143185	0.059741
O87	O	0.336744	0.106815	0.309741
O88	O	0.586744	0.356815	0.559741
N89	N	-0.216511	-0.392238	-0.252003
N90	N	0.033489	-0.142238	-0.002003
N91	N	0.283489	0.107762	0.247997
N92	N	0.533489	0.357762	0.497997
C93	C	-0.245287	-0.364932	-0.285385
C94	C	0.004713	-0.114932	-0.035385
C95	C	0.254713	0.135068	0.214615
C96	C	0.504713	0.385068	0.464615
O97	O	-0.269760	-0.393168	-0.313770
O98	O	-0.019760	-0.143168	-0.063770
O99	O	0.230240	0.106832	0.186230
O100	O	0.480240	0.356832	0.436230
C101	C	-0.245288	-0.310329	-0.285392
C102	C	0.004712	-0.060329	-0.035392
C103	C	0.254712	0.189671	0.214608
C104	C	0.504712	0.439671	0.464608
C105	C	-0.216516	-0.283030	-0.252016
C106	C	0.033484	-0.033030	-0.002016
C107	C	0.283484	0.216970	0.247984
C108	C	0.533484	0.466970	0.497984
C109	C	-0.158972	-0.283033	-0.185264
C110	C	0.091028	-0.033033	0.064736
C111	C	0.341028	0.216967	0.314736
C112	C	0.591028	0.466967	0.564736
C113	C	-0.158977	-0.228433	-0.185268
C114	C	0.091023	0.021567	0.064732
C115	C	0.341023	0.271567	0.314732
C116	C	0.591023	0.521567	0.564732
C117	C	-0.187751	-0.201131	-0.218646
C118	C	0.062249	0.048869	0.031354
C119	C	0.312249	0.298869	0.281354
C120	C	0.562249	0.548869	0.531354
C121	C	-0.216521	-0.228430	-0.252020
C122	C	0.033479	0.021570	-0.002020
C123	C	0.283479	0.271570	0.247980
C124	C	0.533479	0.521570	0.497980
C125	C	-0.274061	-0.283024	-0.318776
C126	C	-0.024061	-0.033024	-0.068776
C127	C	0.225939	0.216976	0.181224
C128	C	0.475939	0.466976	0.431224
C129	C	-0.274060	-0.228417	-0.318781
C130	C	-0.024060	0.021583	-0.068781
C131	C	0.225940	0.271583	0.181219
C132	C	0.475940	0.521583	0.431219
C133	C	-0.245288	-0.201118	-0.285404
C134	C	0.004712	0.048882	-0.035404
C135	C	0.254712	0.298882	0.214596
C136	C	0.504712	0.548882	0.464596
C137	C	-0.245300	-0.146527	-0.285403
C138	C	0.004700	0.103473	-0.035403
C139	C	0.254700	0.353473	0.214597
C140	C	0.504700	0.603473	0.464597
N141	N	-0.216527	-0.119226	-0.252032
N142	N	0.033473	0.130774	-0.002032
N143	N	0.283473	0.380774	0.247968
N144	N	0.533473	0.630774	0.497968
C145	C	-0.187752	-0.146528	-0.218654
C146	C	0.062248	0.103472	0.031346
C147	C	0.312248	0.353472	0.281346
C148	C	0.562248	0.603472	0.531346
C149	C	-0.245281	-0.479603	-0.285368
C150	C	0.004719	-0.229603	-0.035368
C151	C	0.254719	0.020397	0.214632
C152	C	0.504719	0.270397	0.464632
C153	C	-0.245282	-0.534205	-0.285358
C154	C	0.004718	-0.284205	-0.035358
C155	C	0.254718	-0.034205	0.214642
C156	C	0.504718	0.215795	0.464642
C157	C	-0.187733	-0.534206	-0.218606
C158	C	0.062267	-0.284206	0.031394
C159	C	0.312267	-0.034206	0.281394
C160	C	0.562267	0.215794	0.531394
C161	C	-0.187734	-0.479602	-0.218613
C162	C	0.062266	-0.229602	0.031387
C163	C	0.312266	0.020398	0.281387
C164	C	0.562266	0.270398	0.531387
C165	C	-0.216508	-0.452301	-0.251997
C166	C	0.033492	-0.202301	-0.001997
C167	C	0.283492	0.047699	0.248003
C168	C	0.533492	0.297699	0.498003
C169	C	-0.187765	-0.031863	-0.218665
C170	C	0.062235	0.218137	0.031335
C171	C	0.312235	0.468137	0.281335
C172	C	0.562235	0.718137	0.531335
C173	C	-0.187773	0.022743	-0.218671
C174	C	0.062227	0.272743	0.031329
C175	C	0.312227	0.522743	0.281329
C176	C	0.562227	0.772743	0.531329
C177	C	-0.245321	0.022739	-0.285425
C178	C	0.004679	0.272739	-0.035425
C179	C	0.254679	0.522739	0.214575
C180	C	0.504679	0.772739	0.464575
C181	C	-0.245314	-0.031862	-0.285417
C182	C	0.004686	0.218138	-0.035417
C183	C	0.254686	0.468138	0.214583
C184	C	0.504686	0.718138	0.464583
C185	C	-0.216532	-0.059161	-0.252036
C186	C	0.033468	0.190839	-0.002036
C187	C	0.283468	0.440839	0.247964
C188	C	0.533468	0.690839	0.497964
O189	O	-0.269768	-0.118244	-0.313763
O190	O	-0.019768	0.131756	-0.063763
O191	O	0.230232	0.381756	0.186237
O192	O	0.480232	0.631756	0.436237
O193	O	-0.163279	-0.118285	-0.190279
O194	O	0.086721	0.131715	0.059721
O195	O	0.336721	0.381715	0.309721
O196	O	0.586721	0.631715	0.559721
C197	C	-0.333245	-0.755374	-0.251998
C198	C	-0.083245	-0.505374	-0.001998
C199	C	0.166755	-0.255374	0.248002
C200	C	0.416755	-0.005374	0.498002
C201	C	-0.383180	-0.755381	-0.252004
C202	C	-0.133180	-0.505381	-0.002004
C203	C	0.116820	-0.255381	0.247996
C204	C	0.366820	-0.005381	0.497996
C205	C	-0.692817	-0.788965	-0.218642
C206	C	-0.442817	-0.538965	0.031358
C207	C	-0.192817	-0.288965	0.281358
C208	C	0.057183	-0.038965	0.531358
C209	C	-0.880490	-0.789030	-0.218662
C210	C	-0.630490	-0.539030	0.031338
C211	C	-0.380490	-0.289030	0.281338
C212	C	-0.130490	-0.039030	0.531338
O213	O	-0.904750	-0.817509	-0.190276
O214	O	-0.654750	-0.567509	0.059724
O215	O	-0.404750	-0.317509	0.309724
O216	O	-0.154750	-0.067509	0.559724
N217	N	-0.903965	-0.755577	-0.252063
N218	N	-0.653965	-0.505577	-0.002063
N219	N	-0.403965	-0.255577	0.247937
N220	N	-0.153965	-0.005577	0.497937
C221	C	-0.880518	-0.722108	-0.285464
C222	C	-0.630518	-0.472108	-0.035464
C223	C	-0.380518	-0.222108	0.214536
C224	C	-0.130518	0.027892	0.464536
O225	O	-0.904791	-0.693659	-0.313878
O226	O	-0.654791	-0.443659	-0.063878
O227	O	-0.404791	-0.193659	0.186122
O228	O	-0.154791	0.056341	0.436122
C229	C	-0.692846	-0.722046	-0.285446
C230	C	-0.442846	-0.472046	-0.035446
C231	C	-0.192846	-0.222046	0.214554
C232	C	0.057154	0.027954	0.464554
C233	C	-0.669374	-0.755498	-0.252039
C234	C	-0.419374	-0.505498	-0.002039
C235	C	-0.169374	-0.255498	0.247961
C236	C	0.080626	-0.005498	0.497961
C237	C	-0.669345	-0.822415	-0.185238
C238	C	-0.419345	-0.572415	0.064762
C239	C	-0.169345	-0.322415	0.314762
C240	C	0.080655	-0.072415	0.564762
C241	C	-0.622430	-0.822396	-0.185231
C242	C	-0.372430	-0.572396	0.064769
C243	C	-0.122430	-0.322396	0.314769
C244	C	0.127570	-0.072396	0.564769
C245	C	-0.598987	-0.788928	-0.218628
C246	C	-0.348987	-0.538928	0.031372
C247	C	-0.098987	-0.288928	0.281372
C248	C	0.151013	-0.038928	0.531372
C249	C	-0.622459	-0.755479	-0.252032
C250	C	-0.372459	-0.505479	-0.002032
C251	C	-0.122459	-0.255479	0.247968
C252	C	0.127541	-0.005479	0.497968
C253	C	-0.669400	-0.688580	-0.318849
C254	C	-0.419400	-0.438580	-0.068849
C255	C	-0.169400	-0.188580	0.181151
C256	C	0.080600	0.061420	0.431151
C257	C	-0.622479	-0.688568	-0.318843
C258	C	-0.372479	-0.438568	-0.068843
C259	C	-0.122479	-0.188568	0.181157
C260	C	0.127521	0.061432	0.431157
C261	C	-0.599007	-0.722020	-0.285436
C262	C	-0.349007	-0.472020	-0.035436
C263	C	-0.099007	-0.222020	0.214564
C264	C	0.150993	0.027980	0.464564
C265	C	-0.552100	-0.721993	-0.285423
C266	C	-0.302100	-0.471993	-0.035423
C267	C	-0.052100	-0.221993	0.214577
C268	C	0.197900	0.028007	0.464577
N269	N	-0.528625	-0.755446	-0.252022
N270	N	-0.278625	-0.505446	-0.002022
N271	N	-0.028625	-0.255446	0.247978
N272	N	0.221375	-0.005446	0.497978
C273	C	-0.552069	-0.788914	-0.218624
C274	C	-0.302069	-0.538914	0.031376
C275	C	-0.052069	-0.288914	0.281376
C276	C	0.197931	-0.038914	0.531376
C277	C	-0.979049	-0.722141	-0.285471
C278	C	-0.729049	-0.472141	-0.035471
C279	C	-0.479049	-0.222141	0.214529
C280	C	-0.229049	0.027859	0.464529
C281	C	-1.025967	-0.722156	-0.285475
C282	C	-0.775967	-0.472156	-0.035475
C283	C	-0.525967	-0.222156	0.214525
C284	C	-0.275967	0.027844	0.464525
C285	C	-1.025936	-0.789079	-0.218673
C286	C	-0.775936	-0.539079	0.031327
C287	C	-0.525936	-0.289079	0.281327
C288	C	-0.275936	-0.039079	0.531327
C289	C	-0.979017	-0.789062	-0.218667
C290	C	-0.729017	-0.539062	0.031333
C291	C	-0.479017	-0.289062	0.281333
C292	C	-0.229017	-0.039062	0.531333
C293	C	-0.955574	-0.755595	-0.252069
C294	C	-0.705574	-0.505595	-0.002069
C295	C	-0.455574	-0.255595	0.247931
C296	C	-0.205574	-0.005595	0.497931
C297	C	-0.453543	-0.788872	-0.218612
C298	C	-0.203543	-0.538872	0.031388
C299	C	0.046457	-0.288872	0.281388
C300	C	0.296457	-0.038872	0.531388
C301	C	-0.406623	-0.788849	-0.218607
C302	C	-0.156623	-0.538849	0.031393
C303	C	0.093377	-0.288849	0.281393
C304	C	0.343377	-0.038849	0.531393
C305	C	-0.406658	-0.721928	-0.285410
C306	C	-0.156658	-0.471928	-0.035410
C307	C	0.093342	-0.221928	0.214590
C308	C	0.343342	0.028072	0.464590
C309	C	-0.453574	-0.721949	-0.285414
C310	C	-0.203574	-0.471949	-0.035414
C311	C	0.046426	-0.221949	0.214586
C312	C	0.296426	0.028051	0.464586
C313	C	-0.477015	-0.755425	-0.252013
C314	C	-0.227015	-0.505425	-0.002013
C315	C	0.022985	-0.255425	0.247987
C316	C	0.272985	-0.005425	0.497987
O317	O	-0.527811	-0.693533	-0.313798
O318	O	-0.277811	-0.443533	-0.063798
O319	O	-0.027811	-0.193533	0.186202
O320	O	0.222189	0.056467	0.436202
O321	O	-0.527788	-0.817366	-0.190223
O322	O	-0.277788	-0.567366	0.059777
O323	O	-0.027788	-0.317366	0.309777
O324	O	0.222212	-0.067366	0.559777
C325	C	-0.739733	-0.788984	-0.218649
C326	C	-0.489733	-0.538984	0.031351
C327	C	-0.239733	-0.288984	0.281351
C328	C	0.010267	-0.038984	0.531351
C329	C	-0.763205	-0.755535	-0.252053
C330	C	-0.513205	-0.505535	-0.002053
C331	C	-0.263205	-0.255535	0.247947
C332	C	-0.013205	-0.005535	0.497947
C333	C	-0.739762	-0.722067	-0.285450
C334	C	-0.489762	-0.472067	-0.035450
C335	C	-0.239762	-0.222067	0.214550
C336	C	0.010238	0.027933	0.464550
C337	C	-0.810123	-0.755549	-0.252057
C338	C	-0.560123	-0.505549	-0.002057
C339	C	-0.310123	-0.255549	0.247943
C340	C	-0.060123	-0.005549	0.497943
C341	C	-0.833566	-0.789017	-0.218659
C342	C	-0.583566	-0.539017	0.031341
C343	C	-0.333566	-0.289017	0.281341
C344	C	-0.083566	-0.039017	0.531341
C345	C	-0.810092	-0.822470	-0.185258
C346	C	-0.560092	-0.572470	0.064742
C347	C	-0.310092	-0.322470	0.314742
C348	C	-0.060092	-0.072470	0.564742
C349	C	-0.763176	-0.822451	-0.185251
C350	C	-0.513176	-0.572451	0.064749
C351	C	-0.263176	-0.322451	0.314749
C352	C	-0.013176	-0.072451	0.564749
C353	C	-0.763236	-0.688614	-0.318851
C354	C	-0.513236	-0.438614	-0.068851
C355	C	-0.263236	-0.188614	0.181149
C356	C	-0.013236	0.061386	0.431149
C357	C	-0.810151	-0.688635	-0.318855
C358	C	-0.560151	-0.438635	-0.068855
C359	C	-0.310151	-0.188635	0.181145
C360	C	-0.060151	0.061365	0.431145
C361	C	-0.833595	-0.722102	-0.285457
C362	C	-0.583595	-0.472102	-0.035457
C363	C	-0.333595	-0.222102	0.214543
C364	C	-0.083595	0.027898	0.464543
C365	C	-0.099344	-0.755577	-0.252061
C366	C	0.150656	-0.505577	-0.002061
C367	C	0.400656	-0.255577	0.247939
C368	C	0.650656	-0.005577	0.497939
C369	C	-0.049410	-0.755624	-0.252077
C370	C	0.200590	-0.505624	-0.002077
C371	C	0.450590	-0.255624	0.247923
C372	C	0.700590	-0.005624	0.497923
C373	C	-0.216515	-0.755485	-0.388397
C374	C	0.033485	-0.505485	-0.138397
C375	C	0.283485	-0.255485	0.111603
C376	C	0.533485	-0.005485	0.361603
C377	C	-0.216512	-0.755492	-0.446511
C378	C	0.033488	-0.505492	-0.196511
C379	C	0.283488	-0.255492	0.053489
C380	C	0.533488	-0.005492	0.303489
C381	C	-0.216542	0.108159	-0.252055
C382	C	0.033458	0.358159	-0.002055
C383	C	0.283458	0.608159	0.247945
C384	C	0.533458	0.858159	0.497945
C385	C	-0.216548	0.050045	-0.252049
C386	C	0.033452	0.300045	-0.002049
C387	C	0.283452	0.550045	0.247951
C388	C	0.533452	0.800045	0.497951
C389	C	-0.187698	-0.789002	-0.806899
C390	C	0.062302	-0.539002	-0.556899
C391	C	0.312302	-0.289002	-0.306899
C392	C	0.562302	-0.039002	-0.056899
C393	C	-0.187685	-0.789008	-0.861503
C394	C	0.062315	-0.539008	-0.611503
C395	C	0.312315	-0.289008	-0.361503
C396	C	0.562315	-0.039008	-0.111503
O397	O	-0.163239	-0.817457	-0.889760
O398	O	0.086761	-0.567457	-0.639760
O399	O	0.336761	-0.317457	-0.389760
O400	O	0.586761	-0.067457	-0.139760
N401	N	-0.216406	-0.755550	-0.888794
N402	N	0.033594	-0.505550	-0.638794
N403	N	0.283594	-0.255550	-0.388794
N404	N	0.533594	-0.005550	-0.138794
C405	C	-0.245139	-0.722079	-0.861477
C406	C	0.004861	-0.472079	-0.611477
C407	C	0.254861	-0.222079	-0.361477
C408	C	0.504861	0.027921	-0.111477
O409	O	-0.269567	-0.693621	-0.889704
O410	O	-0.019567	-0.443621	-0.639704
O411	O	0.230433	-0.193621	-0.389704
O412	O	0.480433	0.056379	-0.139704
C413	C	-0.245148	-0.722071	-0.806874
C414	C	0.004852	-0.472071	-0.556874
C415	C	0.254852	-0.222071	-0.306874
C416	C	0.504852	0.027929	-0.056874
C417	C	-0.216429	-0.755535	-0.779586
C418	C	0.033571	-0.505535	-0.529586
C419	C	0.283571	-0.255535	-0.279586
C420	C	0.533571	-0.005535	-0.029586
C421	C	-0.158980	-0.822463	-0.779610
C422	C	0.091020	-0.572463	-0.529610
C423	C	0.341020	-0.322463	-0.279610
C424	C	0.591020	-0.072463	-0.029610
C425	C	-0.158993	-0.822457	-0.725010
C426	C	0.091007	-0.572457	-0.475010
C427	C	0.341007	-0.322457	-0.225010
C428	C	0.591007	-0.072457	0.024990
C429	C	-0.187724	-0.788990	-0.697697
C430	C	0.062276	-0.538990	-0.447697
C431	C	0.312276	-0.288990	-0.197697
C432	C	0.562276	-0.038990	0.052303
C433	C	-0.216442	-0.755529	-0.724985
C434	C	0.033558	-0.505529	-0.474985
C435	C	0.283558	-0.255529	-0.224985
C436	C	0.533558	-0.005529	0.025015
C437	C	-0.273878	-0.688598	-0.779559
C438	C	-0.023878	-0.438598	-0.529559
C439	C	0.226122	-0.188598	-0.279559
C440	C	0.476122	0.061402	-0.029559
C441	C	-0.273885	-0.688592	-0.724952
C442	C	-0.023885	-0.438592	-0.474952
C443	C	0.226115	-0.188592	-0.224952
C444	C	0.476115	0.061408	0.025048
C445	C	-0.245165	-0.722056	-0.697664
C446	C	0.004835	-0.472056	-0.447664
C447	C	0.254835	-0.222056	-0.197664
C448	C	0.504835	0.027944	0.052336
C449	C	-0.245186	-0.722056	-0.643072
C450	C	0.004814	-0.472056	-0.393072
C451	C	0.254814	-0.222056	-0.143072
C452	C	0.504814	0.027944	0.106928
N453	N	-0.216465	-0.755514	-0.615782
N454	N	0.033535	-0.505514	-0.365782
N455	N	0.283535	-0.255514	-0.115782
N456	N	0.533535	-0.005514	0.134218
C457	C	-0.187734	-0.788981	-0.643094
C458	C	0.062266	-0.538981	-0.393094
C459	C	0.312266	-0.288981	-0.143094
C460	C	0.562266	-0.038981	0.106906
C461	C	-0.245115	-0.722100	-0.976148
C462	C	0.004885	-0.472100	-0.726148
C463	C	0.254885	-0.222100	-0.476148
C464	C	0.504885	0.027900	-0.226148
C465	C	-0.245108	-0.722110	-1.030750
C466	C	0.004892	-0.472110	-0.780750
C467	C	0.254892	-0.222110	-0.530750
C468	C	0.504892	0.027890	-0.280750
C469	C	-0.187654	-0.789039	-1.030772
C470	C	0.062346	-0.539039	-0.780772
C471	C	0.312346	-0.289039	-0.530772
C472	C	0.562346	-0.039039	-0.280772
C473	C	-0.187664	-0.789030	-0.976169
C474	C	0.062336	-0.539030	-0.726169
C475	C	0.312336	-0.289030	-0.476169
C476	C	0.562336	-0.039030	-0.226169
C477	C	-0.216394	-0.755558	-0.948857
C478	C	0.033606	-0.505558	-0.698857
C479	C	0.283606	-0.255558	-0.448857
C480	C	0.533606	-0.005558	-0.198857
C481	C	-0.187764	-0.788967	-0.528429
C482	C	0.062236	-0.538967	-0.278429
C483	C	0.312236	-0.288967	-0.028429
C484	C	0.562236	-0.038967	0.221571
C485	C	-0.187781	-0.788959	-0.473824
C486	C	0.062219	-0.538959	-0.223824
C487	C	0.312219	-0.288959	0.026176
C488	C	0.562219	-0.038959	0.276176
C489	C	-0.245233	-0.722029	-0.473807
C490	C	0.004767	-0.472029	-0.223807
C491	C	0.254767	-0.222029	0.026193
C492	C	0.504767	0.027971	0.276193
C493	C	-0.245218	-0.722038	-0.528407
C494	C	0.004782	-0.472038	-0.278407
C495	C	0.254782	-0.222038	-0.028407
C496	C	0.504782	0.027962	0.221593
C497	C	-0.216480	-0.755509	-0.555717
C498	C	0.033520	-0.505509	-0.305717
C499	C	0.283520	-0.255509	-0.055717
C500	C	0.533520	-0.005509	0.194283
O501	O	-0.269618	-0.693620	-0.614780
O502	O	-0.019618	-0.443620	-0.364780
O503	O	0.230382	-0.193620	-0.114780
O504	O	0.480382	0.056380	0.135220
O505	O	-0.163305	-0.817430	-0.614860
O506	O	0.086695	-0.567430	-0.364860
O507	O	0.336695	-0.317430	-0.114860
O508	O	0.586695	-0.067430	0.135140
C509	C	-0.216498	-0.755482	-0.116181
C510	C	0.033502	-0.505482	0.133819
C511	C	0.283502	-0.255482	0.383819
C512	C	0.533502	-0.005482	0.633819
C513	C	-0.216375	-0.755576	-0.058068
C514	C	0.033625	-0.505576	0.191932
C515	C	0.283625	-0.255576	0.441932
C516	C	0.533625	-0.005576	0.691932
H517	H	-0.164326	-0.054083	-0.191485
H518	H	0.085674	0.195917	0.058515
H519	H	0.335674	0.445917	0.308515
H520	H	0.585674	0.695917	0.558515
H521	H	-0.268499	-0.694866	-1.052964
H522	H	-0.018499	-0.444866	-0.802964
H523	H	0.231501	-0.194866	-0.552964
H524	H	0.481501	0.055134	-0.302964
Cl525	Cl	-0.151674	-0.831033	-0.439522
Cl526	Cl	0.098326	-0.581033	-0.189522
Cl527	Cl	0.348326	-0.331033	0.060478
Cl528	Cl	0.598326	-0.081033	0.310478
Cl529	Cl	-0.281348	-0.679957	-0.439461
Cl530	Cl	-0.031348	-0.429957	-0.189461
Cl531	Cl	0.218652	-0.179957	0.060539
Cl532	Cl	0.468652	0.070043	0.310539
Cl533	Cl	-0.151533	-0.831111	-1.065118
Cl534	Cl	0.098467	-0.581111	-0.815118
Cl535	Cl	0.348467	-0.331111	-0.565118
Cl536	Cl	0.598467	-0.081111	-0.315118
Cl537	Cl	-0.281241	-0.680020	-0.941819
Cl538	Cl	-0.031241	-0.430020	-0.691819
Cl539	Cl	0.218759	-0.180020	-0.441819
Cl540	Cl	0.468759	0.069980	-0.191819
H541	H	-0.829187	-0.849719	-0.158064
H542	H	-0.579187	-0.599719	0.091936
H543	H	-0.329187	-0.349719	0.341936
H544	H	-0.079187	-0.099719	0.591936
Cl545	Cl	-0.151558	-0.568538	-0.176645
Cl546	Cl	0.098442	-0.318538	0.073355
Cl547	Cl	0.348442	-0.068538	0.323355
Cl548	Cl	0.598442	0.181462	0.573355
H549	H	-0.472686	-0.694712	-0.312618
H550	H	-0.222686	-0.444712	-0.062618
H551	H	0.027314	-0.194712	0.187382
H552	H	0.277314	0.055288	0.437382
H553	H	-0.297265	-0.661347	-0.801767
H554	H	-0.047265	-0.411347	-0.551767
H555	H	0.202735	-0.161347	-0.301767
H556	H	0.452735	0.088653	-0.051767
Cl557	Cl	-1.055416	-0.831152	-0.176688
Cl558	Cl	-0.805416	-0.581152	0.073312
Cl559	Cl	-0.555416	-0.331152	0.323312
Cl560	Cl	-0.305416	-0.081152	0.573312
Cl561	Cl	-0.839653	-0.646576	-0.360856
Cl562	Cl	-0.589653	-0.396576	-0.110856
Cl563	Cl	-0.339653	-0.146576	0.139144
Cl564	Cl	-0.089653	0.103424	0.389144
H565	H	-0.164277	-0.816279	-0.953954
H566	H	0.085723	-0.566279	-0.703954
H567	H	0.335723	-0.316279	-0.453954
H568	H	0.585723	-0.066279	-0.203954
H569	H	-0.268716	-0.457378	-0.312552
H570	H	-0.018716	-0.207378	-0.062552
H571	H	0.231284	0.042622	0.187448
H572	H	0.481284	0.292622	0.437448
H573	H	-0.268750	0.044978	-0.312599
H574	H	-0.018750	0.294978	-0.062599
H575	H	0.231250	0.544978	0.187401
H576	H	0.481250	0.794978	0.437401
H577	H	-0.688503	-0.661337	-0.346051
H578	H	-0.438503	-0.411337	-0.096051
H579	H	-0.188503	-0.161337	0.153949
H580	H	0.061497	0.088663	0.403949
Cl581	Cl	-0.310233	-0.317329	-0.360740
Cl582	Cl	-0.060233	-0.067329	-0.110740
Cl583	Cl	0.189767	0.182671	0.139260
Cl584	Cl	0.439767	0.432671	0.389260
Cl585	Cl	-0.733772	-0.646535	-0.360840
Cl586	Cl	-0.483772	-0.396535	-0.110840
Cl587	Cl	-0.233772	-0.146535	0.139160
Cl588	Cl	0.016228	0.103465	0.389160
Cl589	Cl	-0.733676	-0.864510	-0.143254
Cl590	Cl	-0.483676	-0.614510	0.106746
Cl591	Cl	-0.233676	-0.364510	0.356746
Cl592	Cl	0.016324	-0.114510	0.606746
Cl593	Cl	-0.151600	0.057058	-0.176708
Cl594	Cl	0.098400	0.307058	0.073292
Cl595	Cl	0.348400	0.557058	0.323292
Cl596	Cl	0.598400	0.807058	0.573292
Cl597	Cl	-0.151633	-0.831042	-0.562753
Cl598	Cl	0.098367	-0.581042	-0.312753
Cl599	Cl	0.348367	-0.331042	-0.062753
Cl600	Cl	0.598367	-0.081042	0.187247
Cl601	Cl	-0.949585	-0.680063	-0.327466
Cl602	Cl	-0.699585	-0.430063	-0.077466
Cl603	Cl	-0.449585	-0.180063	0.172534
Cl604	Cl	-0.199585	0.069937	0.422534
Cl605	Cl	-0.310005	-0.646509	-0.690621
Cl606	Cl	-0.060005	-0.396509	-0.440621
Cl607	Cl	0.189995	-0.146509	-0.190621
Cl608	Cl	0.439995	0.103491	0.059379
Cl609	Cl	-0.122883	-0.864525	-0.690713
Cl610	Cl	0.127117	-0.614525	-0.440713
Cl611	Cl	0.377117	-0.364525	-0.190713
Cl612	Cl	0.627117	-0.114525	0.059287
H613	H	-0.297490	-0.206191	-0.345968
H614	H	-0.047490	0.043809	-0.095968
H615	H	0.202510	0.293809	0.154032
H616	H	0.452510	0.543809	0.404032
H617	H	-0.268716	-0.556427	-0.312532
H618	H	-0.018716	-0.306427	-0.062532
H619	H	0.231284	-0.056427	0.187468
H620	H	0.481284	0.193573	0.437468
Cl621	Cl	-0.281489	-0.066181	-0.327372
Cl622	Cl	-0.031489	0.183819	-0.077372
Cl623	Cl	0.218511	0.433819	0.172628
Cl624	Cl	0.468511	0.683819	0.422628
H625	H	-0.135538	-0.305257	-0.158083
H626	H	0.114462	-0.055257	0.091917
H627	H	0.364462	0.194743	0.341917
H628	H	0.614462	0.444743	0.591917
Cl629	Cl	-0.377118	-0.830906	-0.176607
Cl630	Cl	-0.127118	-0.580906	0.073393
Cl631	Cl	0.122882	-0.330906	0.323393
Cl632	Cl	0.372882	-0.080906	0.573393
Cl633	Cl	-0.483004	-0.830956	-0.176622
Cl634	Cl	-0.233004	-0.580956	0.073378
Cl635	Cl	0.016996	-0.330956	0.323378
Cl636	Cl	0.266996	-0.080956	0.573378
H637	H	-0.603322	-0.849637	-0.158030
H638	H	-0.353322	-0.599637	0.091970
H639	H	-0.103322	-0.349637	0.341970
H640	H	0.146678	-0.099637	0.591970
H641	H	-0.135547	-0.206211	-0.158089
H642	H	0.114453	0.043789	0.091911
H643	H	0.364453	0.293789	0.341911
H644	H	0.614453	0.543789	0.591911
Cl645	Cl	-0.698809	-0.864494	-0.143247
Cl646	Cl	-0.448809	-0.614494	0.106753
Cl647	Cl	-0.198809	-0.364494	0.356753
Cl648	Cl	0.051191	-0.114494	0.606753
H649	H	-0.268608	-0.694794	-0.550626
H650	H	-0.018608	-0.444794	-0.300626
H651	H	0.231392	-0.194794	-0.050626
H652	H	0.481392	0.055206	0.199374
H653	H	-0.135581	-0.849716	-0.801843
H654	H	0.114419	-0.599716	-0.551843
H655	H	0.364419	-0.349716	-0.301843
H656	H	0.614419	-0.099716	-0.051843
H657	H	-0.164304	-0.457379	-0.191437
H658	H	0.085696	-0.207379	0.058563
H659	H	0.335696	0.042621	0.308563
H660	H	0.585696	0.292621	0.558563
H661	H	-0.959909	-0.816301	-0.191464
H662	H	-0.709909	-0.566301	0.058536
H663	H	-0.459909	-0.316301	0.308536
H664	H	-0.209909	-0.066301	0.558536
Cl665	Cl	-1.055469	-0.680095	-0.327468
Cl666	Cl	-0.805469	-0.430095	-0.077468
Cl667	Cl	-0.555469	-0.180095	0.172532
Cl668	Cl	-0.305469	0.069905	0.422532
Cl669	Cl	-0.593012	-0.646494	-0.360838
Cl670	Cl	-0.343012	-0.396494	-0.110838
Cl671	Cl	-0.093012	-0.146494	0.139162
Cl672	Cl	0.156988	0.103506	0.389162
Cl673	Cl	-0.377178	-0.679859	-0.327396
Cl674	Cl	-0.127178	-0.429859	-0.077396
Cl675	Cl	0.122822	-0.179859	0.172604
Cl676	Cl	0.372822	0.070141	0.422604
