data_functionalizedCrystal
_audit_creation_method	'MofGen! by Chris Wilmer'
_symmetry_space_group_name_H-M	'P1'
_symmetry_Int_Tables_number	1
_symmetry_cell_setting	triclinic
loop_
_symmetry_equiv_pos_as_xyz
  x,y,z
_cell_length_a	10.686220
_cell_length_b	16.959454
_cell_length_c	10.686551
_cell_angle_alpha	94.404578
_cell_angle_beta	89.691918
_cell_angle_gamma	94.401635
loop_
_atom_site_label
_atom_site_type_symbol
_atom_site_fract_x
_atom_site_fract_y
_atom_site_fract_z
Zn1	Zn	1.972261	-0.192706	0.562392
Zn2	Zn	1.956011	-0.335773	0.352638
Zn3	Zn	1.746376	-0.212926	0.368710
Zn4	Zn	1.762442	-0.334171	0.578415
O5	O	1.859272	-0.268894	0.465539
O6	O	2.145648	-0.203892	0.521135
O7	O	1.914679	-0.328610	0.179225
O8	O	1.776417	-0.099628	0.394423
O9	O	2.133710	-0.309003	0.367030
O10	O	1.942373	-0.084773	0.536720
O11	O	1.760661	-0.238355	0.191033
O12	O	1.572964	-0.236801	0.409960
O13	O	1.803798	-0.306273	0.751835
O14	O	1.584768	-0.325880	0.564030
O15	O	1.957951	-0.202339	0.740063
O16	O	1.930257	-0.446176	0.382567
O17	O	1.788042	-0.444999	0.548445
C18	C	1.533350	-0.283361	0.490478
C19	C	1.393921	-0.289568	0.501177
C20	C	1.859166	-0.474266	0.465525
C21	C	1.859238	-0.562118	0.465553
C22	C	1.785337	-0.933005	0.551894
C23	C	1.933567	-0.934158	0.379285
C24	C	1.933522	-0.851615	0.379276
C25	C	1.859382	-0.809763	0.465577
C26	C	1.785287	-0.850454	0.551886
C27	C	2.007607	-0.810918	0.292961
C28	C	2.007564	-0.728369	0.292948
C29	C	1.933430	-0.686515	0.379256
C30	C	1.859333	-0.727212	0.465569
C31	C	1.785193	-0.685360	0.551870
C32	C	1.711101	-0.726054	0.638190
C33	C	1.711153	-0.808600	0.638193
C34	C	1.933378	-0.603970	0.379252
C35	C	1.785143	-0.602809	0.551862
C36	C	2.186468	-0.254371	0.440502
C37	C	2.325899	-0.248182	0.429834
C38	C	1.884480	-0.251872	0.792738
C39	C	1.895221	-0.244618	0.932171
C40	C	1.859416	-0.062717	0.465577
C41	C	1.859477	0.025143	0.465593
C42	C	1.834236	-0.285790	0.139606
C43	C	1.823737	-0.292810	0.000156
H44	H	1.374330	-0.208002	0.360567
O45	O	1.335951	-0.337447	0.583790
C46	C	1.204972	-0.333210	0.576425
H47	H	1.184054	-0.275081	0.536851
H48	H	1.162342	-0.335971	0.674156
H49	H	1.162606	-0.385151	0.512317
O50	O	1.740757	-0.348621	0.942501
C51	C	1.618168	-0.335247	0.983973
H52	H	1.622830	-0.300078	1.079342
H53	H	1.562219	-0.394571	0.992624
H54	H	1.570326	-0.300280	0.913489
O55	O	1.977940	-0.188789	0.990190
C56	C	1.970631	-0.193737	1.121160
H57	H	1.875160	-0.223012	1.146337
H58	H	1.982974	-0.131584	1.170404
H59	H	2.047845	-0.230613	1.152644
H60	H	1.724774	-0.568738	0.622143
H61	H	1.650730	-0.691970	0.708451
H62	H	1.650830	-0.841741	0.708469
H63	H	1.993921	-0.968239	0.309016
O64	O	1.713398	-0.972656	0.635619
C65	C	1.729362	-1.054486	0.617153
H66	H	1.763076	-1.068967	0.517229
H67	H	1.636061	-1.089636	0.632783
H68	H	1.801855	-1.071026	0.686514
H69	H	2.067958	-0.845000	0.222691
H70	H	2.067894	-0.695241	0.222664
O71	O	2.005260	-0.564537	0.295240
C72	C	1.968290	-0.592443	0.172286
H73	H	1.919903	-0.654679	0.173344
H74	H	2.054536	-0.594130	0.109168
H75	H	1.900538	-0.551085	0.134920
