data_functionalizedCrystal
_audit_creation_method	'MofGen! by Chris Wilmer'
_symmetry_space_group_name_H-M	'P1'
_symmetry_Int_Tables_number	1
_symmetry_cell_setting	triclinic
loop_
_symmetry_equiv_pos_as_xyz
  x,y,z
_cell_length_a	15.944480
_cell_length_b	10.268362
_cell_length_c	11.792241
_cell_angle_alpha	89.998512
_cell_angle_beta	83.831632
_cell_angle_gamma	89.996308
loop_
_atom_site_label
_atom_site_type_symbol
_atom_site_fract_x
_atom_site_fract_y
_atom_site_fract_z
O1	O	-1.115221	0.108273	-0.145992
O2	O	-0.615221	0.608273	0.354008
O3	O	-0.870745	0.108282	-0.164123
O4	O	-0.370745	0.608282	0.335877
O5	O	-0.998915	0.108268	0.010164
O6	O	-0.498915	0.608268	0.510164
O7	O	-0.987050	0.108287	-0.320279
O8	O	-0.487050	0.608287	0.179721
O9	O	-0.998903	-0.108333	0.010158
O10	O	-0.498903	0.391667	0.510158
O11	O	-0.870732	-0.108319	-0.164129
O12	O	-0.370732	0.391681	0.335871
O13	O	-1.115208	-0.108328	-0.145998
O14	O	-0.615208	0.391672	0.354002
Cu15	Cu	-0.992969	-0.128101	-0.155064
Cu16	Cu	-0.492969	0.371899	0.344936
Cu17	Cu	-0.992984	0.128055	-0.155057
Cu18	Cu	-0.492984	0.628055	0.344943
O19	O	-0.987038	-0.108314	-0.320285
O20	O	-0.487038	0.391686	0.179715
C21	C	-0.839440	-0.000018	-0.163387
C22	C	-0.339440	0.499982	0.336613
C23	C	-0.746181	-0.000015	-0.161173
C24	C	-0.246181	0.499985	0.338827
N25	N	-0.992965	-0.308267	-0.155068
N26	N	-0.492965	0.191733	0.344932
C27	C	-0.510883	-0.000006	-0.263772
C28	C	-0.010883	0.499994	0.236228
C29	C	-0.460068	-0.106809	-0.208458
C30	C	0.039932	0.393191	0.291542
C31	C	-0.575440	-0.000016	-0.157070
C32	C	-0.075440	0.499984	0.342930
C33	C	-0.460085	0.106742	-0.208427
C34	C	0.039915	0.606742	0.291573
C35	C	-0.410512	-0.000011	-0.153115
C36	C	0.089488	0.499989	0.346885
C37	C	-0.525854	-0.106907	-0.101785
C38	C	-0.025854	0.393093	0.398215
C39	C	-0.525874	0.106740	-0.101770
C40	C	-0.025874	0.606740	0.398230
C41	C	-0.475093	-0.000090	-0.046378
C42	C	0.024907	0.499910	0.453622
C43	C	-0.670451	-0.000019	-0.159352
C44	C	-0.170451	0.499981	0.340648
C45	C	-0.315504	-0.000017	-0.150826
C46	C	0.184496	0.499983	0.349174
C47	C	-0.992971	-0.426109	-0.155069
C48	C	-0.492971	0.073891	0.344931
C49	C	-0.992982	-0.573947	-0.155058
C50	C	-0.492982	-0.073947	0.344942
C51	C	-0.146511	-0.000023	-0.146749
C52	C	0.353489	0.499977	0.353251
C53	C	-0.239766	-0.000011	-0.149009
C54	C	0.260234	0.499989	0.350991
C55	C	-0.998164	-0.000032	0.052446
C56	C	-0.498164	0.499968	0.552446
C57	C	-0.995933	-0.000031	0.178440
C58	C	-0.495933	0.499969	0.678440
N59	N	-0.992994	0.308220	-0.155043
N60	N	-0.492994	0.808220	0.344957
C61	C	-0.987789	-0.000011	-0.362566
C62	C	-0.487789	0.499989	0.137434
C63	C	-0.990020	-0.000004	-0.488561
C64	C	-0.490020	0.499996	0.011439
C65	C	-0.991831	-0.000009	0.409117
C66	C	-0.491831	0.499991	0.909117
C67	C	-0.994110	-0.000021	0.280752
C68	C	-0.494110	0.499979	0.780752
H69	H	-0.526921	-0.000100	-0.355680
H70	H	-0.026921	0.499900	0.144320
N71	N	-0.423991	-0.220069	-0.264972
N72	N	0.076009	0.279931	0.235028
N73	N	-0.384079	-0.300014	-0.211510
N74	N	0.115921	0.199986	0.288490
H75	H	-0.358599	-0.380000	-0.251428
H76	H	0.141401	0.120000	0.248572
N77	N	-0.424062	0.220009	-0.264983
N78	N	0.075938	0.720009	0.235017
N79	N	-0.470419	0.300366	-0.307819
N80	N	0.029581	0.800366	0.192181
H81	H	-0.444981	0.380357	-0.347769
H82	H	0.055019	0.880357	0.152231
N83	N	-0.561982	0.220022	-0.045347
N84	N	-0.061982	0.720022	0.454653
N85	N	-0.639969	0.237594	-0.037367
N86	N	-0.139969	0.737594	0.462633
H87	H	-0.665479	0.317617	0.002456
H88	H	-0.165479	0.817617	0.502456
H89	H	-0.459212	-0.000157	0.045599
H90	H	0.040788	0.499843	0.545599
H91	H	-0.554474	-0.197292	-0.056753
H92	H	-0.054474	0.302708	0.443247
