data_functionalizedCrystal
_audit_creation_method	'MofGen! by Chris Wilmer'
_symmetry_space_group_name_H-M	'P1'
_symmetry_Int_Tables_number	1
_symmetry_cell_setting	triclinic
loop_
_symmetry_equiv_pos_as_xyz
  x,y,z
_cell_length_a	16.992694
_cell_length_b	13.339070
_cell_length_c	15.455313
_cell_angle_alpha	93.394339
_cell_angle_beta	87.142206
_cell_angle_gamma	103.148759
loop_
_atom_site_label
_atom_site_type_symbol
_atom_site_fract_x
_atom_site_fract_y
_atom_site_fract_z
O1	O	1.090408	0.214131	-0.072012
O2	O	0.861603	0.211734	-0.072038
O3	O	0.949746	0.063546	-0.072026
O4	O	1.002265	0.362319	-0.072025
O5	O	0.944697	0.071983	0.072236
O6	O	0.856554	0.220171	0.072223
O7	O	1.085360	0.222568	0.072249
Cu8	Cu	0.970496	0.222140	0.085408
Cu9	Cu	0.976466	0.212163	-0.085197
O10	O	0.997216	0.370756	0.072237
C11	C	0.829195	0.212871	0.000089
C12	C	0.740151	0.203676	0.000079
C13	C	0.709211	0.292390	0.000080
C14	C	0.625543	0.283745	0.000092
C15	C	0.572817	0.186386	0.000097
C16	C	0.603762	0.097666	0.000099
C17	C	0.687429	0.106311	0.000093
C18	C	0.321423	0.150552	0.000120
C19	C	0.237751	0.141912	0.000123
C20	C	0.259538	0.327993	0.000118
C21	C	0.343205	0.336630	0.000107
C22	C	0.374143	0.247910	0.000114
N23	N	0.487295	0.177547	0.000107
N24	N	0.459663	0.256750	0.000110
C25	C	0.938350	0.029358	0.000103
C26	C	0.911906	-0.085082	0.000097
C27	C	1.117519	-0.433251	0.000120
C28	C	1.142367	-0.325728	0.000131
C29	C	1.084754	-0.265562	0.000122
C30	C	1.002289	-0.312927	0.000103
C31	C	0.977439	-0.420460	0.000099
C32	C	0.944673	-0.252771	0.000101
C33	C	0.862209	-0.300136	0.000081
C34	C	0.837363	-0.407658	0.000077
C35	C	0.894976	-0.467825	0.000086
C36	C	0.969524	-0.145238	0.000105
C37	C	0.829443	-0.132447	0.000083
C38	C	0.804596	-0.239969	0.000072
C39	C	1.117767	0.221431	0.000120
C40	C	1.206811	0.230626	0.000124
C41	C	1.008612	0.404944	0.000106
C42	C	1.035056	0.519384	0.000107
N43	N	0.966302	0.229157	0.205403
N44	N	0.980664	0.205137	-0.205192
C45	C	1.003772	0.166228	0.250803
C46	C	1.000610	0.171545	0.341610
C47	C	0.959983	0.239798	0.387017
C48	C	0.922508	0.302729	0.341611
C49	C	0.925665	0.297406	0.250805
C50	C	0.946347	0.262746	0.658596
C51	C	0.943195	0.268067	0.749408
C52	C	1.021296	0.136880	0.749401
C53	C	1.024454	0.131568	0.658594
C54	C	0.986976	0.194496	0.613196
N55	N	0.956752	0.245237	0.479836
N56	N	0.990202	0.189051	0.520378
H57	H	0.712618	0.034071	0.000092
H58	H	1.036667	-0.106684	0.000121
H59	H	0.910110	0.323650	0.786374
H60	H	0.386130	0.415910	0.000093
O61	O	0.909935	0.323982	0.614639
C62	C	0.832099	0.454622	0.624237
C63	C	0.873319	0.385344	0.674131
H64	H	0.802470	0.504236	0.672314
H65	H	0.879200	0.506455	0.581736
H66	H	0.784060	0.404402	0.581712
H67	H	0.921353	0.435484	0.716702
H68	H	0.826170	0.333505	0.716577
O69	O	1.109027	-0.161130	0.000088
C70	C	1.221545	-0.013843	0.000158
C71	C	1.194163	-0.132126	0.000181
H72	H	1.290378	0.009644	0.000251
H73	H	1.199428	0.014704	-0.060237
H74	H	1.195088	0.021694	0.060509
H75	H	1.220608	-0.167750	-0.060130
H76	H	1.216268	-0.160599	0.060616
H77	H	0.752136	0.371670	0.000076
H78	H	0.874749	-0.555379	0.000073
O79	O	0.724461	-0.285823	0.000019
C80	C	0.588138	-0.261794	0.000048
C81	C	0.678863	-0.209734	0.000089
H82	H	0.551246	-0.200299	0.000122
H83	H	0.575077	-0.315309	-0.060344
H84	H	0.570925	-0.308323	0.060403
H85	H	0.696139	-0.163151	-0.060225
H86	H	0.691876	-0.156278	0.060520
H87	H	1.036859	0.110654	0.213839
H88	H	1.209509	-0.287171	0.000148
O89	O	0.229527	0.414191	-0.000034
C90	C	0.225190	0.566251	-0.074741
C91	C	0.259219	0.468651	-0.074690
H92	H	0.249195	0.610320	-0.135085
H93	H	0.156335	0.543408	-0.074792
H94	H	0.244893	0.617318	-0.014341
H95	H	0.239577	0.417539	-0.135080
H96	H	0.328070	0.491567	-0.074595
O97	O	1.173503	-0.491640	0.000283
C98	C	1.283036	-0.531069	0.075013
C99	C	1.219654	-0.464893	0.074946
H100	H	1.320377	-0.509454	0.135362
H101	H	1.251150	-0.616069	0.075065
H102	H	1.324541	-0.516626	0.014618
H103	H	1.178131	-0.479248	0.135330
H104	H	1.251592	-0.379915	0.074848
O105	O	0.757227	-0.453507	0.000028
C106	C	0.620907	-0.429466	0.000064
C107	C	0.711634	-0.377413	0.000097
H108	H	0.584019	-0.367967	0.000138
H109	H	0.607840	-0.482985	-0.060325
H110	H	0.603696	-0.475990	0.060421
H111	H	0.728909	-0.330836	-0.060219
H112	H	0.724653	-0.323954	0.060526
O113	O	0.351432	0.064331	-0.000033
C114	C	0.360963	-0.096473	-0.074744
C115	C	0.326941	0.001141	-0.074688
H116	H	0.341161	-0.147599	-0.135086
H117	H	0.429822	-0.073647	-0.074801
H118	H	0.337045	-0.140474	-0.014343
H119	H	0.350798	0.045186	-0.135079
H120	H	0.258083	-0.021754	-0.074586
O121	O	1.037093	0.110388	0.385576
C122	C	1.114877	-0.020308	0.375987
C123	C	1.073604	0.048909	0.326088
H124	H	1.144392	-0.070047	0.327912
H125	H	1.162986	0.029859	0.418463
H126	H	1.067750	-0.072033	0.418537
H127	H	1.120671	0.100646	0.283491
H128	H	1.025479	-0.001319	0.283667
H129	H	0.560826	0.018394	0.000115
O130	O	1.063920	0.065174	0.614623
C131	C	1.141091	-0.064341	0.624203
C132	C	1.096404	0.010783	0.674107
H133	H	1.167381	-0.108320	0.672273
H134	H	1.096942	-0.121152	0.581723
H135	H	1.192085	-0.019104	0.581656
H136	H	1.045412	-0.034368	0.716700
H137	H	1.140605	0.067595	0.716532
O138	O	0.882975	0.368890	0.385814
C139	C	0.775135	0.387918	0.488314
C140	C	0.819845	0.312877	0.438326
H141	H	0.724075	0.342659	0.530768
H142	H	0.819263	0.444650	0.530874
H143	H	0.748935	0.432004	0.440251
H144	H	0.846047	0.268720	0.486326
H145	H	0.775685	0.256211	0.395752
O146	O	0.889257	0.358644	0.206836
C147	C	0.811418	0.489280	0.216420
C148	C	0.852637	0.420007	0.266321
H149	H	0.781785	0.538894	0.264493
H150	H	0.858521	0.541111	0.173920
H151	H	0.763382	0.439056	0.173894
H152	H	0.900668	0.470151	0.308894
H153	H	0.805486	0.368170	0.308767
H154	H	0.600356	0.355985	0.000092
H155	H	0.782529	-0.083459	0.000080
H156	H	0.194822	0.062627	0.000126
H157	H	1.051808	0.085646	0.786373
