data_functionalizedCrystal
_audit_creation_method	'MofGen! by Chris Wilmer'
_symmetry_space_group_name_H-M	'P1'
_symmetry_Int_Tables_number	1
_symmetry_cell_setting	triclinic
loop_
_symmetry_equiv_pos_as_xyz
  x,y,z
_cell_length_a	18.050591
_cell_length_b	21.295417
_cell_length_c	18.050582
_cell_angle_alpha	90.025708
_cell_angle_beta	90.010544
_cell_angle_gamma	90.028543
loop_
_atom_site_label
_atom_site_type_symbol
_atom_site_fract_x
_atom_site_fract_y
_atom_site_fract_z
Zn1	Zn	1.135285	-0.250669	0.419810
Zn2	Zn	1.135192	-0.355930	0.295613
Zn3	Zn	1.011104	-0.250676	0.295643
Zn4	Zn	1.011049	-0.355902	0.419771
O5	O	1.073157	-0.303294	0.357709
O6	O	1.239197	-0.264640	0.403338
O7	O	1.118716	-0.341983	0.191692
O8	O	1.027639	-0.162586	0.312143
O9	O	1.239129	-0.341975	0.312091
O10	O	1.118874	-0.162580	0.403368
O11	O	1.027549	-0.264654	0.191715
O12	O	0.907172	-0.264626	0.312105
O13	O	1.027545	-0.341927	0.523701
O14	O	0.907132	-0.341935	0.403301
O15	O	1.118820	-0.264613	0.523729
O16	O	1.118663	-0.444016	0.312054
O17	O	1.027455	-0.443995	0.403272
C18	C	0.880205	-0.303279	0.357703
C19	C	0.797660	-0.303287	0.357718
C20	C	1.073063	-0.466846	0.357672
C21	C	1.073090	-0.536814	0.357680
C22	C	0.548833	-0.345415	0.407243
C23	C	0.598203	-0.360732	0.339456
C24	C	0.500539	-0.303307	0.357717
C25	C	0.598251	-0.288010	0.425500
C26	C	0.646524	-0.303299	0.357721
C27	C	0.548821	-0.318654	0.289894
C28	C	0.548866	-0.245905	0.375984
C29	C	0.598213	-0.261201	0.308150
C30	C	0.416441	-0.303314	0.357715
C31	C	0.730621	-0.303293	0.357715
C32	C	1.120569	-0.569620	0.405215
C33	C	1.120595	-0.635363	0.405233
C34	C	1.073151	-0.668296	0.357704
C35	C	1.025662	-0.635482	0.310166
C36	C	1.025632	-0.569741	0.310154
N37	N	1.067546	-0.771554	0.292710
N38	N	1.067579	-0.834005	0.292723
C39	C	1.073237	-0.866371	0.357737
N40	N	1.078875	-0.833927	0.422739
N41	N	1.078846	-0.771469	0.422725
C42	C	1.073178	-0.739582	0.357711
C43	C	1.120747	-0.970463	0.405296
C44	C	1.120768	-1.036207	0.405315
C45	C	1.025839	-1.036325	0.310241
C46	C	1.025814	-0.970582	0.310228
C47	C	1.073272	-0.937655	0.357754
C48	C	1.266863	-0.303310	0.357716
C49	C	1.349409	-0.303317	0.357718
C50	C	1.073187	-0.303266	0.551415
C51	C	1.073199	-0.303254	0.633961
C52	C	1.073273	-0.139104	0.357763
C53	C	1.073322	-0.069136	0.357786
C54	C	1.073171	-0.303277	0.164757
C55	C	1.073303	-0.303111	0.082212
C56	C	1.023601	-0.345241	0.833396
C57	C	1.091356	-0.360629	0.882781
C58	C	1.073236	-0.303206	0.785091
C59	C	1.005518	-0.287800	0.882788
C60	C	1.073265	-0.303161	0.931076
C61	C	1.141026	-0.318625	0.833389
C62	C	1.055142	-0.245770	0.833391
C63	C	1.122944	-0.261136	0.882754
C64	C	1.073218	-0.303234	0.700993
C65	C	1.073291	-0.303133	1.015173
H66	H	0.527152	-0.381055	0.449071
O67	O	0.626913	-0.425026	0.318976
H68	H	0.607139	-0.459901	0.360162
H69	H	0.527200	-0.331648	0.232556
H70	H	1.159431	-1.062917	0.444027
H71	H	1.039801	-0.197230	0.811680
O72	O	0.626767	-0.214030	0.252617
H73	H	0.606865	-0.226875	0.196431
O74	O	1.178617	-0.214021	0.911283
H75	H	1.177900	-0.214044	0.972770
O76	O	0.974490	-0.671002	0.258903
H77	H	0.941464	-0.637142	0.225850
H78	H	0.948238	-0.274789	0.904487
H79	H	0.527177	-0.197379	0.391458
O80	O	0.974431	-0.534350	0.258873
H81	H	0.941446	-0.568293	0.225820
H82	H	1.159210	-0.542813	0.443915
H83	H	0.619964	-0.275074	0.482822
O84	O	1.171812	-0.670760	0.456498
H85	H	1.204810	-0.636819	0.489540
H86	H	0.987204	-1.063138	0.271546
O87	O	1.171924	-0.934942	0.456558
H88	H	1.204937	-0.968802	0.489625
H89	H	0.987155	-0.943869	0.271518
H90	H	0.981667	-0.380834	0.811724
H91	H	1.106677	-0.409183	0.904476
O92	O	1.217025	-0.335618	0.804778
H93	H	1.216445	-0.335408	0.743291
