data_functionalizedCrystal
_audit_creation_method	'MofGen! by Chris Wilmer'
_symmetry_space_group_name_H-M	'P1'
_symmetry_Int_Tables_number	1
_symmetry_cell_setting	triclinic
loop_
_symmetry_equiv_pos_as_xyz
  x,y,z
_cell_length_a	10.654545
_cell_length_b	9.130313
_cell_length_c	10.654550
_cell_angle_alpha	90.004369
_cell_angle_beta	84.484005
_cell_angle_gamma	90.003066
loop_
_atom_site_label
_atom_site_type_symbol
_atom_site_fract_x
_atom_site_fract_y
_atom_site_fract_z
O1	O	1.667843	0.121784	0.176372
O2	O	1.302364	0.121790	0.193184
O3	O	1.493506	0.121778	0.002038
O4	O	1.476700	0.121797	0.367517
O5	O	1.493493	-0.121821	0.002033
O6	O	1.302350	-0.121808	0.193178
O7	O	1.667830	-0.121814	0.176366
Cu8	Cu	1.485089	-0.144054	0.184772
Cu9	Cu	1.485104	0.144030	0.184778
O10	O	1.476687	-0.121802	0.367511
C11	C	1.255559	-0.000008	0.191948
C12	C	1.116115	-0.000006	0.188258
C13	C	1.050604	-0.132793	0.186518
C14	C	0.919584	-0.132793	0.183030
C15	C	0.919599	0.132792	0.183028
C16	C	1.050617	0.132791	0.186507
N17	N	1.485087	-0.346677	0.184766
C18	C	1.569754	-0.423334	0.100163
C19	C	1.569766	-0.576671	0.100163
C20	C	1.400440	-0.576679	0.269381
C21	C	1.400423	-0.423345	0.269374
C22	C	1.714634	-0.000013	0.177602
C23	C	1.854078	-0.000005	0.181292
C24	C	1.492266	-0.000021	-0.044762
C25	C	1.488574	-0.000018	-0.184206
N26	N	1.485116	0.346653	0.184774
C27	C	1.601115	-0.000020	-0.263693
C28	C	1.597639	-0.000002	-0.394714
C29	C	1.369069	0.000013	-0.366747
C30	C	1.372547	0.000005	-0.235729
C31	C	1.477927	-0.000000	0.414312
C32	C	1.481619	0.000007	0.553755
H33	H	0.866250	-0.240921	0.181614
H34	H	1.689282	0.000000	-0.459428
C35	C	1.122651	-0.278867	0.188432
C36	C	1.226043	-0.315401	0.081961
C37	C	1.298085	-0.461481	0.083872
C38	C	1.266735	-0.571026	0.192253
C39	C	1.163338	-0.534495	0.298732
C40	C	1.091296	-0.388415	0.296822
H41	H	1.249255	-0.234307	0.001723
H42	H	1.374627	-0.488523	0.005048
H43	H	1.320065	-0.679163	0.193667
H44	H	1.140126	-0.615589	0.378970
H45	H	1.014754	-0.361373	0.375645
H46	H	1.274604	0.000029	-0.408713
C47	C	1.122693	0.278865	0.188419
C48	C	1.199456	0.315390	0.299669
C49	C	1.271533	0.461455	0.301574
C50	C	1.266848	0.570995	0.192229
C51	C	1.190082	0.534472	0.080971
C52	C	1.118004	0.388407	0.079066
H53	H	1.202927	0.234300	0.380620
H54	H	1.328361	0.488491	0.383935
H55	H	1.320205	0.679121	0.193640
H56	H	1.186611	0.615563	0.000021
H57	H	1.061177	0.361371	-0.003295
C58	C	1.248742	0.000005	-0.148282
C59	C	1.219715	0.126501	-0.054356
C60	C	1.095917	0.126507	0.033089
C61	C	1.001145	0.000019	0.026608
C62	C	1.030169	-0.126486	-0.067322
C63	C	1.153967	-0.126493	-0.154767
H64	H	1.289873	0.220144	-0.049555
H65	H	1.074432	0.220155	0.102623
H66	H	0.909501	0.000024	0.091341
H67	H	0.960010	-0.220129	-0.072123
H68	H	1.175452	-0.220141	-0.224301
H69	H	1.638690	-0.360914	0.031269
H70	H	1.638708	-0.639081	0.031270
C71	C	0.847544	0.278861	0.181116
C72	C	0.770787	0.315374	0.069865
C73	C	0.698733	0.461445	0.067958
C74	C	0.703435	0.571004	0.177301
C75	C	0.780195	0.534494	0.288560
C76	C	0.852249	0.388422	0.290467
H77	H	0.767303	0.234269	-0.011084
H78	H	0.641910	0.488472	-0.014404
H79	H	0.650097	0.679135	0.175889
H80	H	0.783679	0.615598	0.369510
H81	H	0.909072	0.361395	0.372829
H82	H	1.331510	-0.639118	0.338268
H83	H	1.331471	-0.360927	0.338268
C84	C	1.728741	-0.000030	-0.207015
C85	C	1.822540	-0.126522	-0.236582
C86	C	1.950169	-0.126528	-0.179908
C87	C	1.983998	-0.000042	-0.093667
C88	C	1.890196	0.126460	-0.064095
C89	C	1.762568	0.126466	-0.120769
H90	H	1.797500	-0.220163	-0.300427
H91	H	2.019607	-0.220173	-0.201800
H92	H	2.078477	-0.000046	-0.051714
H93	H	1.915237	0.220101	-0.000250
H94	H	1.693130	0.220111	-0.098877
