data_functionalizedCrystal
_audit_creation_method	'MofGen! by Chris Wilmer'
_symmetry_space_group_name_H-M	'P1'
_symmetry_Int_Tables_number	1
_symmetry_cell_setting	triclinic
loop_
_symmetry_equiv_pos_as_xyz
  x,y,z
_cell_length_a	10.654562
_cell_length_b	14.519731
_cell_length_c	9.730223
_cell_angle_alpha	89.997677
_cell_angle_beta	89.996961
_cell_angle_gamma	84.089478
loop_
_atom_site_label
_atom_site_type_symbol
_atom_site_fract_x
_atom_site_fract_y
_atom_site_fract_z
O1	O	1.666592	0.129583	-0.114384
O2	O	1.300999	0.141911	-0.114367
O3	O	1.493475	0.001560	-0.114363
O4	O	1.474116	0.269934	-0.114387
O5	O	1.493472	0.001564	0.114217
O6	O	1.300996	0.141915	0.114213
O7	O	1.666590	0.129586	0.114196
Zn8	Zn	1.483793	0.135751	0.150497
Zn9	Zn	1.483796	0.135747	-0.150667
O10	O	1.474114	0.269937	0.114193
C11	C	1.254208	0.141006	-0.000075
C12	C	1.114792	0.138290	-0.000068
C13	C	1.049272	0.137025	0.124520
C14	C	0.918274	0.134481	0.124498
C15	C	0.918326	0.134470	-0.124713
C16	C	1.049323	0.137008	-0.124689
C17	C	1.114740	0.138307	0.249141
C18	C	1.049220	0.137044	0.373739
C19	C	0.918222	0.134499	0.373717
C20	C	0.852744	0.133219	0.249096
C21	C	1.492566	-0.032802	-0.000073
C22	C	1.489848	-0.135196	-0.000072
C23	C	1.487640	-0.218352	-0.000075
C24	C	1.484880	-0.322675	-0.000085
C25	C	1.482690	-0.405826	-0.000094
C26	C	1.479930	-0.510155	-0.000102
C27	C	1.713380	0.130492	-0.000099
C28	C	1.852797	0.133208	-0.000115
C29	C	1.475022	0.304300	-0.000101
C30	C	1.477740	0.406694	-0.000111
N31	N	1.483800	0.135754	0.356033
N32	N	1.483799	0.135737	-0.356204
C33	C	1.569050	0.073628	0.427961
C34	C	1.569047	0.073616	0.571844
C35	C	1.398539	0.197866	0.571859
C36	C	1.398537	0.197872	0.427978
C37	C	1.654313	0.011510	0.356015
C38	C	1.739571	-0.050621	0.427943
C39	C	1.739567	-0.050632	0.571826
C40	C	1.654306	0.011487	0.643781
H41	H	0.864880	0.133463	0.475171
C42	C	1.121398	0.138406	-0.261742
N43	N	1.175685	0.139460	-0.364975
H44	H	0.746077	0.131145	0.249087
C45	C	0.846294	0.133069	-0.261786
N46	N	0.792039	0.132019	-0.365032
H47	H	1.654325	0.011515	0.238859
H48	H	1.808981	-0.101201	0.369350
C49	C	1.833334	-0.118988	0.650943
N50	N	1.903963	-0.170477	0.710530
H51	H	1.654302	0.011467	0.760941
H52	H	1.329118	0.248460	0.369414
C53	C	1.258841	0.141103	0.249177
N54	N	1.367378	0.143209	0.249203
C55	C	1.304760	0.266193	0.651015
N56	N	1.234126	0.317660	0.710635
H57	H	1.102542	0.138079	0.475201
