data_functionalizedCrystal
_audit_creation_method	'MofGen! by Chris Wilmer'
_symmetry_space_group_name_H-M	'P1'
_symmetry_Int_Tables_number	1
_symmetry_cell_setting	triclinic
loop_
_symmetry_equiv_pos_as_xyz
  x,y,z
_cell_length_a	12.759395
_cell_length_b	12.594516
_cell_length_c	12.759387
_cell_angle_alpha	90.030166
_cell_angle_beta	90.020509
_cell_angle_gamma	90.013352
loop_
_atom_site_label
_atom_site_type_symbol
_atom_site_fract_x
_atom_site_fract_y
_atom_site_fract_z
Zn1	Zn	1.606290	-0.423642	0.594010
Zn2	Zn	1.606189	-0.601660	0.418332
Zn3	Zn	1.430588	-0.423700	0.418347
Zn4	Zn	1.430589	-0.601584	0.593971
O5	O	1.518414	-0.512647	0.506165
O6	O	1.753297	-0.447264	0.570716
O7	O	1.582853	-0.578109	0.271313
O8	O	1.453937	-0.274747	0.441671
O9	O	1.753224	-0.578053	0.441646
O10	O	1.583024	-0.274704	0.570730
O11	O	1.453839	-0.447363	0.271323
O12	O	1.283567	-0.447290	0.441634
O13	O	1.453939	-0.577924	0.740998
O14	O	1.283568	-0.577980	0.570664
O15	O	1.583025	-0.447191	0.741026
O16	O	1.582854	-0.750595	0.441609
O17	O	1.453841	-0.750540	0.570650
C18	C	1.245447	-0.512634	0.506147
C19	C	1.128670	-0.512654	0.506164
C20	C	1.128709	-0.648962	0.640306
C21	C	1.073868	-0.717124	0.707380
C22	C	0.964147	-0.717137	0.707393
C23	C	0.909264	-0.648978	0.640327
C24	C	0.964105	-0.580816	0.573253
C25	C	1.073829	-0.580812	0.573245
C26	C	0.964065	-0.444504	0.439118
C27	C	1.073787	-0.444495	0.439098
C28	C	0.909182	-0.376345	0.372051
C29	C	0.964023	-0.308186	0.304970
C30	C	1.073751	-0.308177	0.304959
C31	C	1.128628	-0.376332	0.372024
C32	C	1.518365	-0.789188	0.506147
C33	C	1.518441	-0.907493	0.506174
C34	C	1.588692	-0.976738	0.436063
C35	C	1.614370	-1.047430	0.531956
C36	C	1.492894	-1.047600	0.410342
C37	C	1.544167	-0.976627	0.602117
C38	C	1.422647	-0.976791	0.480438
C39	C	1.448289	-1.047451	0.576397
C40	C	1.792447	-0.512660	0.506184
C41	C	1.909224	-0.512666	0.506192
C42	C	1.518493	-0.512542	0.780199
C43	C	1.518527	-0.512498	0.896975
C44	C	1.518491	-0.235026	0.506206
C45	C	1.518525	-0.116720	0.506224
C46	C	1.518395	-0.512674	0.233197
C47	C	1.518565	-0.512418	0.116421
C48	C	1.652954	-0.376374	0.897025
C49	C	1.720182	-0.308297	0.951910
C50	C	1.720208	-0.308258	1.061632
C51	C	1.652996	-0.376302	1.116470
C52	C	1.585768	-0.444380	1.061585
C53	C	1.585752	-0.444413	0.951861
C54	C	1.451337	-0.580496	1.061536
C55	C	1.451315	-0.580542	0.951814
C56	C	1.384125	-0.648540	1.116375
C57	C	1.316901	-0.716624	1.061489
C58	C	1.316879	-0.716661	0.951761
C59	C	1.384087	-0.648619	0.896929
H60	H	0.919329	-0.252692	0.250375
H61	H	1.471253	-1.078774	0.329278
H62	H	1.217969	-0.376334	0.372018
O63	O	1.659715	-0.939736	0.365512
C64	C	1.760648	-0.975750	0.393058
H65	H	1.762592	-0.995537	0.480211
H66	H	1.780403	-1.049847	0.345667
C67	C	1.839201	-0.863967	0.262395
C68	C	1.841592	-0.888260	0.369439
H69	H	1.889133	-0.810002	0.247822
H70	H	1.771201	-0.839706	0.243833
H71	H	1.855661	-0.925722	0.222915
H72	H	1.825119	-0.826510	0.408917
H73	H	1.909591	-0.912509	0.388007
O74	O	1.251519	-0.782749	1.114595
C75	C	1.192201	-0.842873	1.042628
H76	H	1.188564	-0.799311	0.964418
H77	H	1.230646	-0.923719	1.030959
C78	C	1.084854	-0.911686	1.181489
C79	C	1.080379	-0.858178	1.085432
H80	H	1.015878	-0.921133	1.207893
H81	H	1.124820	-0.871183	1.229976
H82	H	1.116896	-0.979053	1.171752
H83	H	1.048350	-0.790809	1.095173
H84	H	1.040405	-0.898671	1.036948
O85	O	1.383984	-0.648607	1.222957
C86	C	1.310269	-0.723280	1.259586
H87	H	1.248864	-0.738191	1.196344
H88	H	1.351900	-0.800894	1.279039
C89	C	1.331874	-0.661549	1.436424
C90	C	1.256451	-0.679856	1.358753
H91	H	1.298680	-0.634767	1.497598
H92	H	1.381541	-0.611243	1.411748
H93	H	1.366561	-0.726232	1.452622
H94	H	1.221775	-0.615171	1.342547
H95	H	1.206778	-0.730150	1.383428
H96	H	0.919495	-0.772635	0.762016
H97	H	0.819922	-0.648985	0.640353
H98	H	1.695416	-1.078461	0.553752
O99	O	1.127344	-0.783299	0.772425
C100	C	1.235948	-0.768660	0.758052
H101	H	1.250902	-0.733692	0.677034
H102	H	1.267123	-0.712060	0.820470
C103	C	1.273899	-0.919311	0.866987
C104	C	1.292267	-0.876371	0.767475
H105	H	1.308642	-0.985750	0.872804
H106	H	1.200732	-0.929172	0.876673
H107	H	1.299879	-0.872134	0.918990
H108	H	1.266276	-0.923541	0.715475
H109	H	1.365433	-0.866520	0.757780
H110	H	1.341624	-0.945736	0.458614
H111	H	1.652950	-0.376409	0.807683
O112	O	1.785441	-0.242308	0.898477
C113	C	1.770993	-0.256920	0.789864
H114	H	1.736543	-0.339058	0.774858
H115	H	1.715070	-0.193783	0.758726
C116	C	1.919604	-0.146331	0.751986
C117	C	1.877299	-0.247218	0.733554
H118	H	1.985177	-0.140341	0.717249
H119	H	1.929336	-0.136483	0.825160
H120	H	1.872991	-0.093728	0.726037
H121	H	1.923906	-0.299817	0.759514
H122	H	1.867578	-0.257074	0.660382
H123	H	1.565729	-0.945584	0.683251
O124	O	0.802599	-0.376187	0.372156
C125	C	0.765961	-0.274211	0.399297
H126	H	0.829214	-0.230260	0.445176
H127	H	0.746466	-0.228004	0.325000
C128	C	0.589142	-0.338588	0.410984
C129	C	0.666827	-0.284610	0.467341
H130	H	0.527989	-0.345001	0.452952
H131	H	0.613824	-0.407291	0.392694
H132	H	0.572908	-0.300075	0.349072
H133	H	0.683069	-0.323130	0.529243
H134	H	0.642145	-0.215913	0.485642
O135	O	1.126858	-0.241931	0.239700
C136	C	1.054884	-0.181763	0.180535
H137	H	0.976662	-0.225360	0.176835
H138	H	1.043249	-0.100975	0.219153
C139	C	1.193722	-0.112729	0.073280
C140	C	1.097650	-0.166280	0.068729
H141	H	1.220103	-0.103173	0.004315
H142	H	1.242213	-0.153262	0.113143
H143	H	1.184013	-0.045412	0.105467
H144	H	1.107363	-0.233601	0.036555
H145	H	1.049161	-0.125758	0.028858
H146	H	1.218050	-0.648966	0.640295
H147	H	1.388915	-1.078304	0.635778
O148	O	1.785459	-0.241981	1.114837
C149	C	1.762516	-0.135901	1.088070
H150	H	1.722117	-0.133709	1.008397
H151	H	1.708524	-0.100028	1.149822
C152	C	1.914581	-0.074135	1.180895
C153	C	1.864970	-0.071442	1.083034
H154	H	1.977777	-0.034372	1.177793
H155	H	1.930036	-0.145603	1.198932
H156	H	1.869576	-0.044243	1.232344
H157	H	1.909968	-0.101346	1.031589
H158	H	1.849524	0.000022	1.064988
H159	H	1.262122	-0.772087	0.907079
H160	H	1.653014	-0.376255	1.205812
H161	H	1.384080	-0.648647	0.807587
