data_functionalizedCrystal
_audit_creation_method	'MofGen! by Chris Wilmer'
_symmetry_space_group_name_H-M	'P1'
_symmetry_Int_Tables_number	1
_symmetry_cell_setting	triclinic
loop_
_symmetry_equiv_pos_as_xyz
  x,y,z
_cell_length_a	12.594517
_cell_length_b	21.295417
_cell_length_c	12.594509
_cell_angle_alpha	89.963755
_cell_angle_beta	89.978673
_cell_angle_gamma	90.030306
loop_
_atom_site_label
_atom_site_type_symbol
_atom_site_fract_x
_atom_site_fract_y
_atom_site_fract_z
Zn1	Zn	1.627160	-0.250594	-0.601801
Zn2	Zn	2.127160	0.249406	-0.101801
Zn3	Zn	1.627006	-0.355872	-0.423797
Zn4	Zn	2.127006	0.144128	0.076203
Zn5	Zn	1.449164	-0.250621	-0.423830
Zn6	Zn	1.949164	0.249379	0.076170
Zn7	Zn	1.449101	-0.355829	-0.601727
Zn8	Zn	1.949101	0.144171	-0.101727
O9	O	1.538108	-0.303229	-0.512789
O10	O	2.038108	0.196771	-0.012789
O11	O	1.776085	-0.264566	-0.578205
O12	O	2.276085	0.235434	-0.078205
O13	O	1.603377	-0.341940	-0.274856
O14	O	2.103377	0.158060	0.225144
O15	O	1.472866	-0.162528	-0.447482
O16	O	1.972866	0.337472	0.052518
O17	O	1.775972	-0.341914	-0.447427
O18	O	2.275972	0.158086	0.052573
O19	O	1.603639	-0.162508	-0.578237
O20	O	2.103639	0.337492	-0.078237
O21	O	1.472717	-0.264612	-0.274879
O22	O	1.972717	0.235388	0.225121
O23	O	1.300210	-0.264570	-0.447411
O24	O	1.800210	0.235430	0.052589
O25	O	1.472759	-0.341839	-0.750683
O26	O	1.972759	0.158161	-0.250683
O27	O	1.300164	-0.341865	-0.578112
O28	O	1.800164	0.158135	-0.078112
O29	O	1.603578	-0.264524	-0.750737
O30	O	2.103578	0.235476	-0.250737
O31	O	1.603316	-0.443956	-0.447356
O32	O	2.103316	0.056044	0.052644
O33	O	1.472610	-0.443924	-0.578080
O34	O	1.972610	0.056076	-0.078080
C35	C	1.261567	-0.303216	-0.512757
C36	C	1.761567	0.196784	-0.012757
C37	C	1.143261	-0.303226	-0.512769
C38	C	1.643261	0.196774	-0.012769
C39	C	1.074002	-0.261127	-0.441817
C40	C	1.574002	0.238873	0.058183
C41	C	1.003167	-0.318547	-0.415623
C42	C	1.503167	0.181453	0.084377
C43	C	1.003298	-0.245834	-0.538981
C44	C	1.503298	0.254166	-0.038981
C45	C	1.073984	-0.360676	-0.486525
C46	C	1.573984	0.139324	0.013475
C47	C	1.074121	-0.287924	-0.609928
C48	C	1.574121	0.212076	-0.109928
C49	C	1.003318	-0.345384	-0.583771
C50	C	1.503318	0.154616	-0.083771
C51	C	1.537968	-0.466780	-0.512730
C52	C	2.037968	0.033220	-0.012730
C53	C	1.538006	-0.536748	-0.512740
C54	C	2.038006	-0.036748	-0.012740
C55	C	1.606125	-0.569611	-0.444742
C56	C	2.106125	-0.069611	0.055258
C57	C	1.606175	-0.635353	-0.444766
C58	C	2.106175	-0.135353	0.055234
C59	C	1.538087	-0.668231	-0.512777
C60	C	2.038087	-0.168231	-0.012777
C61	C	1.469963	-0.635361	-0.580789
C62	C	1.969963	-0.135361	-0.080789
C63	C	1.469923	-0.569619	-0.580770
C64	C	1.969923	-0.069619	-0.080770
N65	N	1.444976	-0.771496	-0.520881
N66	N	1.944976	-0.271496	-0.020881
N67	N	1.445018	-0.833948	-0.520892
N68	N	1.945018	-0.333948	-0.020892
C69	C	1.538206	-0.866306	-0.512838
C70	C	2.038206	-0.366306	-0.012838
N71	N	1.631353	-0.833853	-0.504752
N72	N	2.131353	-0.333853	-0.004752
N73	N	1.631311	-0.771396	-0.504735
N74	N	2.131311	-0.271396	-0.004735
C75	C	1.538123	-0.739516	-0.512805
C76	C	2.038123	-0.239516	-0.012805
C77	C	1.606385	-0.970454	-0.444862
C78	C	2.106385	-0.470454	0.055138
C79	C	1.606436	-1.036197	-0.444893
C80	C	2.106436	-0.536197	0.055107
C81	C	1.470215	-1.036203	-0.580910
C82	C	1.970215	-0.536203	-0.080910
C83	C	1.470173	-0.970461	-0.580885
C84	C	1.970173	-0.470461	-0.080885
C85	C	1.538256	-0.937590	-0.512855
C86	C	2.038256	-0.437590	-0.012855
C87	C	1.815729	-0.303242	-0.512821
C88	C	2.315729	0.196758	-0.012821
C89	C	1.934034	-0.303247	-0.512835
C90	C	2.434034	0.196753	-0.012835
C91	C	1.538179	-0.303174	-0.790410
C92	C	2.038179	0.196826	-0.290410
C93	C	1.538209	-0.303150	-0.908715
C94	C	2.038209	0.196850	-0.408715
C95	C	1.538277	-0.139038	-0.512871
C96	C	2.038277	0.360962	-0.012871
C97	C	1.538349	-0.069070	-0.512906
C98	C	2.038349	0.430930	-0.012906
C99	C	1.467079	-0.345178	-0.977939
C100	C	1.967079	0.154822	-0.477939
C101	C	1.564193	-0.360559	-1.048726
C102	C	2.064193	0.139441	-0.548726
C103	C	1.441171	-0.287731	-1.048728
C104	C	1.941171	0.212269	-0.548728
C105	C	1.635374	-0.318561	-0.977944
C106	C	2.135374	0.181439	-0.477944
C107	C	1.512287	-0.245707	-0.977939
C108	C	2.012287	0.254293	-0.477939
C109	C	1.609468	-0.261066	-1.048694
C110	C	2.109468	0.238934	-0.548694
C111	C	1.538098	-0.303238	-0.236248
C112	C	2.038098	0.196762	0.263752
C113	C	1.538274	-0.303084	-0.117943
C114	C	2.038274	0.196916	0.382057
H115	H	1.105311	-0.274950	-0.692040
H116	H	1.605311	0.225050	-0.192040
H117	H	0.972192	-0.197296	-0.561087
H118	H	1.472192	0.302704	-0.061087
F119	F	1.678678	-0.670335	-0.372389
F120	F	2.178678	-0.170335	0.127611
H121	H	1.661565	-0.542849	-0.389350
H122	H	2.161565	-0.042849	0.110650
H123	H	1.359080	-0.274717	-1.079821
H124	H	1.859080	0.225283	-0.579821
F125	F	1.742703	-0.335648	-0.937479
F126	F	2.242703	0.164352	-0.437479
H127	H	1.414781	-1.062971	-0.636291
H128	H	1.914781	-0.562971	-0.136291
H129	H	1.669717	-0.225496	-1.079565
H130	H	2.169717	0.274504	-0.579565
F131	F	1.397418	-0.534644	-0.653147
F132	F	1.897418	-0.034644	-0.153147
F133	F	1.114572	-0.214639	-0.363296
F134	F	1.614572	0.285361	0.136704
F135	F	1.397503	-0.670352	-0.653175
F136	F	1.897503	-0.170352	-0.153175
F137	F	1.397666	-0.935485	-0.653255
F138	F	1.897666	-0.435485	-0.153255
F139	F	1.678949	-1.071172	-0.372523
F140	F	2.178949	-0.571172	0.127477
F141	F	1.114395	-0.424146	-0.457458
F142	F	1.614395	0.075854	0.042542
F143	F	0.962430	-0.335483	-0.308266
F144	F	1.462430	0.164517	0.191734
H145	H	1.586154	-0.409109	-1.079819
H146	H	2.086154	0.090891	-0.579819
F147	F	1.483546	-0.182265	-0.937265
F148	F	1.983546	0.317735	-0.437265
F149	F	1.678843	-0.935468	-0.372459
F150	F	2.178843	-0.435468	0.127541
F151	F	1.388517	-0.391704	-0.937330
F152	F	1.888517	0.108296	-0.437330
H153	H	0.972477	-0.381035	-0.643801
H154	H	1.472477	0.118965	-0.143801
