data_functionalizedCrystal
_audit_creation_method	'MofGen! by Chris Wilmer'
_symmetry_space_group_name_H-M	'P1'
_symmetry_Int_Tables_number	1
_symmetry_cell_setting	triclinic
loop_
_symmetry_equiv_pos_as_xyz
  x,y,z
_cell_length_a	10.908878
_cell_length_b	10.967971
_cell_length_c	18.366186
_cell_angle_alpha	102.123864
_cell_angle_beta	89.990903
_cell_angle_gamma	72.684230
loop_
_atom_site_label
_atom_site_type_symbol
_atom_site_fract_x
_atom_site_fract_y
_atom_site_fract_z
O1	O	1.702175	-0.192374	-0.084675
O2	O	1.329164	-0.095110	-0.072475
O3	O	1.524281	-0.327172	-0.101588
O4	O	1.507059	0.039688	-0.055562
O5	O	1.524247	-0.327174	0.019511
O6	O	1.329131	-0.095112	0.048624
O7	O	1.702142	-0.192376	0.036424
Zn8	Zn	1.515631	-0.143745	0.061751
Zn9	Zn	1.515675	-0.143741	-0.097802
O10	O	1.507025	0.039686	0.065537
C11	C	1.281386	-0.086021	-0.010785
C12	C	1.139070	-0.058952	-0.007390
C13	C	1.089195	-0.157724	-0.019782
C14	C	0.942105	-0.129748	-0.016273
C15	C	1.523013	-0.373402	-0.046840
C16	C	1.519272	-0.511145	-0.064126
C17	C	1.517586	-0.572562	-0.009100
C18	C	1.513719	-0.714927	-0.026965
C19	C	1.749920	-0.201465	-0.025267
C20	C	1.892235	-0.228535	-0.028667
C21	C	1.508292	0.085916	0.010787
C22	C	1.512034	0.223659	0.028069
N23	N	1.515610	-0.143750	0.170642
N24	N	1.515706	-0.143748	-0.206694
C25	C	1.602036	-0.246471	0.195855
C26	C	1.602045	-0.246478	0.272082
C27	C	1.515638	-0.143745	0.323095
C28	C	1.429196	-0.041014	0.297874
C29	C	1.429181	-0.041016	0.221647
C30	C	1.499840	-0.026825	0.458524
C31	C	1.499863	-0.026823	0.534749
C32	C	1.515675	-0.143737	0.558204
C33	C	1.531491	-0.260663	0.505422
C34	C	1.531477	-0.260666	0.429195
C35	C	1.515644	-0.143732	0.405751
C36	C	1.602115	-0.246474	0.666070
C37	C	1.602114	-0.246481	0.742298
C38	C	1.429272	-0.041008	0.768089
C39	C	1.429266	-0.041010	0.691861
C40	C	1.515695	-0.143744	0.640856
H41	H	1.519013	-0.519750	0.051234
H42	H	1.512306	-0.767739	-0.087304
N43	N	1.051424	0.080510	0.010110
H44	H	0.995319	0.096211	-0.032810
H45	H	0.995384	0.096105	0.056989
H46	H	1.513460	-0.723535	0.088408
N47	N	1.517404	-0.581092	-0.144050
H48	H	1.514910	-0.672879	-0.145483
H49	H	1.438703	-0.531958	-0.166730
N50	N	1.548578	-0.386785	0.530700
H51	H	1.476890	-0.423993	0.512778
H52	H	1.634150	-0.451709	0.509252
N53	N	1.336068	0.069792	0.823101
H54	H	1.281312	0.134867	0.795558
H55	H	1.278999	0.033817	0.850221
N56	N	0.854442	0.009711	0.001216
H57	H	0.761793	0.009929	0.001242
H58	H	0.871493	0.056243	0.051947
N59	N	1.336004	0.069788	0.352895
H60	H	1.351526	0.155137	0.350327
H61	H	1.244949	0.074144	0.340176
H62	H	1.672426	-0.330129	0.292615
H63	H	1.544351	-0.355870	0.386223
N64	N	1.695324	-0.357274	0.611051
H65	H	1.750072	-0.422357	0.638593
H66	H	1.645771	-0.402183	0.573797
H67	H	1.672409	-0.330125	0.154328
N68	N	1.695357	-0.357263	0.769498
H69	H	1.750114	-0.422330	0.725619
H70	H	1.752421	-0.321263	0.805623
H71	H	1.155390	-0.262997	-0.032993
H72	H	0.958425	-0.333816	-0.041881
H73	H	1.358895	0.042639	0.671332
N74	N	1.482796	0.099286	0.591672
H75	H	1.485211	0.081548	0.643520
H76	H	1.554497	0.136422	0.582991
N77	N	1.482787	0.099282	0.433231
H78	H	1.472785	0.173348	0.478231
H79	H	1.560714	0.090432	0.400484
H80	H	1.358801	0.042633	0.201119
