data_functionalizedCrystal
_audit_creation_method	'MofGen! by Chris Wilmer'
_symmetry_space_group_name_H-M	'P1'
_symmetry_Int_Tables_number	1
_symmetry_cell_setting	triclinic
loop_
_symmetry_equiv_pos_as_xyz
  x,y,z
_cell_length_a	13.897449
_cell_length_b	13.897447
_cell_length_c	15.296720
_cell_angle_alpha	99.647031
_cell_angle_beta	99.662199
_cell_angle_gamma	90.020810
loop_
_atom_site_label
_atom_site_type_symbol
_atom_site_fract_x
_atom_site_fract_y
_atom_site_fract_z
Zn1	Zn	1.380231	-0.478345	-0.510059
Zn2	Zn	1.408056	-0.611751	-0.359213
Zn3	Zn	1.246854	-0.450477	-0.359225
Zn4	Zn	1.218904	-0.639596	-0.510019
O5	O	1.313511	-0.545042	-0.434629
O6	O	1.518902	-0.496051	-0.490060
O7	O	1.410013	-0.567041	-0.232977
O8	O	1.264599	-0.319196	-0.379255
O9	O	1.539344	-0.594064	-0.379234
O10	O	1.362591	-0.339671	-0.490072
O11	O	1.291579	-0.448554	-0.232986
O12	O	1.108167	-0.475555	-0.379217
O13	O	1.216963	-0.641522	-0.636262
O14	O	1.087633	-0.614500	-0.490005
O15	O	1.335490	-0.523052	-0.636291
O16	O	1.382912	-0.750422	-0.379195
O17	O	1.243944	-0.770880	-0.489992
C18	C	1.062901	-0.545026	-0.434608
C19	C	0.955685	-0.545046	-0.434621
C20	C	0.759385	-0.545054	-0.434645
C21	C	0.868620	-0.545046	-0.434629
C22	C	1.313437	-0.795653	-0.434608
C23	C	1.313488	-0.902871	-0.434629
C24	C	1.313530	-0.989944	-0.434650
C25	C	1.313594	-1.099181	-0.434673
C26	C	1.565100	-0.545060	-0.434650
C27	C	1.672313	-0.545067	-0.434659
C28	C	1.270005	-0.588502	-0.669923
C29	C	1.251465	-0.607022	-0.770192
C30	C	1.313609	-0.293457	-0.434670
C31	C	1.313650	-0.186246	-0.434687
C32	C	1.446054	-0.412509	-1.052893
C33	C	1.463479	-0.395110	-0.958686
C34	C	1.410477	-0.448086	-0.911558
C35	C	1.340047	-0.518465	-0.958646
C36	C	1.322626	-0.535871	-1.052863
C37	C	1.287049	-0.571448	-0.911527
C38	C	1.216619	-0.641826	-0.958616
C39	C	1.199200	-0.659229	-1.052823
C40	C	1.252202	-0.606252	-1.099951
C41	C	1.304470	-0.554042	-0.817311
C42	C	1.181042	-0.677404	-0.817280
C43	C	1.163617	-0.694802	-0.911488
C44	C	1.356904	-0.501682	-0.200250
C45	C	1.375630	-0.482891	-0.099982
H46	H	1.361814	-0.496738	-0.778981
H47	H	1.238018	-0.620415	-1.176663
H48	H	1.137885	-0.720543	-0.778909
H49	H	1.141859	-0.716543	-1.091160
O50	O	1.427488	-0.431031	-0.820046
C51	C	1.501031	-0.357570	-0.788590
H52	H	1.504529	-0.311251	-0.842895
H53	H	1.574438	-0.392738	-0.771868
C54	C	1.473184	-0.349281	-0.636759
C55	C	1.477475	-0.292385	-0.703456
H56	H	1.458657	-0.309073	-0.584242
H57	H	1.423639	-0.398775	-0.657950
H58	H	1.534359	-0.378584	-0.622836
H59	H	1.416298	-0.263093	-0.717386
H60	H	1.527009	-0.242884	-0.682264
O61	O	1.497422	-0.361116	-1.098812
C62	C	1.466963	-0.391595	-1.192061
H63	H	1.390129	-0.425549	-1.204912
H64	H	1.519208	-0.447913	-1.218786
C65	C	1.561274	-0.261244	-1.224676
C66	C	1.466902	-0.302939	-1.240461
H67	H	1.561241	-0.206559	-1.254533
H68	H	1.581798	-0.240712	-1.161852
H69	H	1.604802	-0.308185	-1.246947
H70	H	1.423379	-0.256003	-1.218180
H71	H	1.446371	-0.323462	-1.303282
O72	O	1.095144	-0.763177	-0.957094
C73	C	1.052112	-0.806227	-0.895306
H74	H	1.061202	-0.754317	-0.828153
H75	H	1.089258	-0.877636	-0.885278
C76	C	0.931485	-0.890668	-1.014546
C77	C	0.942643	-0.826908	-0.932070
H78	H	0.863960	-0.903430	-1.037225
H79	H	0.960478	-0.861668	-1.056175
H80	H	0.962446	-0.950169	-1.006178
H81	H	0.911693	-0.767405	-0.940441
H82	H	0.913642	-0.855899	-0.890443
H83	H	1.520826	-0.337810	-0.920353
