data_functionalizedCrystal
_audit_creation_method	'MofGen! by Chris Wilmer'
_symmetry_space_group_name_H-M	'P1'
_symmetry_Int_Tables_number	1
_symmetry_cell_setting	triclinic
loop_
_symmetry_equiv_pos_as_xyz
  x,y,z
_cell_length_a	15.944551
_cell_length_b	16.109301
_cell_length_c	15.186229
_cell_angle_alpha	90.000638
_cell_angle_beta	89.995303
_cell_angle_gamma	96.519891
loop_
_atom_site_label
_atom_site_type_symbol
_atom_site_fract_x
_atom_site_fract_y
_atom_site_fract_z
O1	O	0.107966	-1.103166	-0.073175
O2	O	0.441300	-0.769832	0.260159
O3	O	0.774633	-0.436499	0.593492
O4	O	0.121402	-0.861108	-0.073189
O5	O	0.454736	-0.527775	0.260144
O6	O	0.788069	-0.194441	0.593478
O7	O	-0.007593	-0.988747	-0.073174
O8	O	0.325741	-0.655414	0.260160
O9	O	0.659074	-0.322080	0.593493
O10	O	0.236961	-0.975527	-0.073190
O11	O	0.570295	-0.642193	0.260143
O12	O	0.903628	-0.308860	0.593476
O13	O	-0.007594	-0.988738	0.073284
O14	O	0.325739	-0.655405	0.406617
O15	O	0.659072	-0.322072	0.739950
O16	O	0.121401	-0.861099	0.073268
O17	O	0.454734	-0.527766	0.406602
O18	O	0.788067	-0.194433	0.739935
O19	O	0.107964	-1.103157	0.073282
O20	O	0.441298	-0.769824	0.406616
O21	O	0.774631	-0.436490	0.739949
Zn22	Zn	0.114682	-0.982127	0.096529
Zn23	Zn	0.448016	-0.648794	0.429862
Zn24	Zn	0.781349	-0.315460	0.763195
Zn25	Zn	0.114685	-0.982138	-0.096435
Zn26	Zn	0.448018	-0.648805	0.236898
Zn27	Zn	0.781351	-0.315471	0.570232
O28	O	0.236960	-0.975518	0.073267
O29	O	0.570293	-0.642185	0.406600
O30	O	0.903626	-0.308852	0.739934
C31	C	0.120857	-0.830129	0.000038
C32	C	0.454191	-0.496795	0.333371
C33	C	0.787524	-0.163462	0.666705
C34	C	0.119226	-0.737833	0.000033
C35	C	0.452559	-0.404499	0.333366
C36	C	0.785892	-0.071166	0.666699
C37	C	-0.038887	-0.988194	0.000055
C38	C	0.294446	-0.654860	0.333389
C39	C	0.627779	-0.321527	0.666722
C40	C	-0.132133	-0.986548	0.000056
C41	C	0.201201	-0.653215	0.333389
C42	C	0.534534	-0.319882	0.666722
C43	C	0.108510	-1.134136	0.000054
C44	C	0.441843	-0.800803	0.333387
C45	C	0.775176	-0.467470	0.666720
C46	C	0.110141	-1.226432	0.000053
C47	C	0.443475	-0.893099	0.333386
C48	C	0.776808	-0.559766	0.666720
C49	C	-0.346962	-0.903499	0.000039
C50	C	-0.013629	-0.570166	0.333372
C51	C	0.319705	-0.236832	0.666705
C52	C	-0.407993	-0.942060	0.072253
C53	C	-0.074660	-0.608727	0.405586
C54	C	0.258674	-0.275394	0.738920
C55	C	-0.302858	-0.983572	0.000049
C56	C	0.030476	-0.650238	0.333382
C57	C	0.363809	-0.316905	0.666715
C58	C	-0.407975	-0.942087	-0.072142
C59	C	-0.074641	-0.608754	0.261191
C60	C	0.258692	-0.275421	0.594524
C61	C	-0.467769	-0.980691	0.000038
C62	C	-0.134436	-0.647357	0.333371
C63	C	0.198897	-0.314024	0.666705
C64	C	-0.362660	-1.022155	0.072323
C65	C	-0.029327	-0.688822	0.405656
C66	C	0.304006	-0.355488	0.738989
C67	C	-0.362636	-1.022171	-0.072137
C68	C	-0.029302	-0.688838	0.261196
C69	C	0.304031	-0.355504	0.594529
C70	C	-0.423649	-1.060790	0.000095
C71	C	-0.090316	-0.727457	0.333428
C72	C	0.243018	-0.394124	0.666761
C73	C	-0.207856	-0.985229	0.000055
C74	C	0.125477	-0.651896	0.333389
C75	C	0.458811	-0.318563	0.666722
C76	C	-0.562770	-0.979039	0.000038
C77	C	-0.229437	-0.645706	0.333371
C78	C	0.103897	-0.312373	0.666704
C79	C	0.268254	-0.976071	0.000036
C80	C	0.601588	-0.642738	0.333370
C81	C	0.934921	-0.309405	0.666703
C82	C	0.361500	-0.977717	0.000030
C83	C	0.694833	-0.644383	0.333364
C84	C	1.028166	-0.311050	0.666697
N85	N	0.114680	-0.982125	0.228221
N86	N	0.448013	-0.648792	0.561555
N87	N	0.781347	-0.315459	0.894888
C88	C	0.191975	-0.515584	0.000038
C89	C	0.525308	-0.182251	0.333371
C90	C	0.858641	0.151083	0.666705
C91	C	0.190435	-0.428863	0.000044
C92	C	0.523768	-0.095530	0.333377
C93	C	0.857102	0.237804	0.666710
C94	C	0.037387	-0.448688	0.000050
C95	C	0.370720	-0.115355	0.333384
C96	C	0.704053	0.217979	0.666717
C97	C	0.038927	-0.535407	0.000051
C98	C	0.372260	-0.202074	0.333384
C99	C	0.705594	0.131260	0.666718
C100	C	0.116224	-0.568853	0.000040
C101	C	0.449557	-0.235519	0.333374
C102	C	0.782890	0.097814	0.666707
C103	C	0.113143	-0.395412	0.000045
C104	C	0.446477	-0.062079	0.333379
C105	C	0.779810	0.271254	0.666712
C106	C	0.111473	-0.301386	0.000052
C107	C	0.444807	0.031947	0.333385
C108	C	0.778140	0.365281	0.666718
C109	C	0.117894	-0.662885	0.000036
C110	C	0.451227	-0.329552	0.333369
C111	C	0.784561	0.003782	0.666702
N112	N	0.114680	-0.982146	-0.228128
N113	N	0.448013	-0.648813	0.105206
N114	N	0.781347	-0.315480	0.438539
C115	C	0.057580	-1.038663	0.453951
C116	C	0.390914	-0.705330	0.787284
C117	C	0.724247	-0.371996	1.120618
C118	C	0.057578	-1.038666	0.546141
C119	C	0.390912	-0.705332	0.879474
C120	C	0.724245	-0.371999	1.212807
C121	C	0.171783	-0.925603	0.546136
C122	C	0.505116	-0.592269	0.879469
C123	C	0.838449	-0.258936	1.212803
C124	C	0.171780	-0.925597	0.453948
C125	C	0.505113	-0.592263	0.787281
C126	C	0.838447	-0.258930	1.120615
C127	C	0.114680	-0.982132	0.407858
C128	C	0.448013	-0.648798	0.741191
C129	C	0.781346	-0.315465	1.074525
C130	C	0.114680	-0.982140	0.592236
C131	C	0.448014	-0.648807	0.925569
C132	C	0.781347	-0.315473	1.258902
C133	C	0.114679	-0.982143	0.692192
C134	C	0.448012	-0.648809	1.025525
C135	C	0.781345	-0.315476	1.358858
C136	C	0.114680	-0.982128	0.307895
C137	C	0.448014	-0.648795	0.641229
C138	C	0.781347	-0.315462	0.974562
H139	H	-0.313632	-0.837035	0.000107
H140	H	0.019701	-0.503702	0.333440
H141	H	0.353034	-0.170368	0.666773
H142	H	-0.428040	-0.908213	-0.133198
H143	H	-0.094706	-0.574880	0.200135
H144	H	0.238627	-0.241546	0.533468
H145	H	-0.342516	-1.056013	-0.133188
H146	H	-0.009182	-0.722680	0.200145
H147	H	0.324151	-0.389346	0.533478
H148	H	0.254914	-0.542812	0.000036
H149	H	0.588248	-0.209479	0.333369
H150	H	0.921581	0.123855	0.666703
H151	H	0.252119	-0.385495	0.000044
H152	H	0.585452	-0.052161	0.333377
H153	H	0.918786	0.281172	0.666710
H154	H	0.011085	-1.084696	0.416427
H155	H	0.344418	-0.751363	0.749760
H156	H	0.677751	-0.418029	1.083093
H157	H	0.011082	-1.084698	0.583667
H158	H	0.344415	-0.751364	0.917000
H159	H	0.677748	-0.418031	1.250334
H160	H	-0.025546	-0.421446	0.000064
H161	H	0.307788	-0.088112	0.333398
H162	H	0.641121	0.245221	0.666731
H163	H	-0.456830	-1.127313	0.000139
H164	H	-0.123496	-0.793979	0.333473
H165	H	0.209837	-0.460646	0.666806
H166	H	0.218278	-0.879558	0.416417
H167	H	0.551611	-0.546225	0.749750
H168	H	0.884944	-0.212891	1.083083
H169	H	-0.428091	-0.908189	0.133301
H170	H	-0.094758	-0.574856	0.466634
H171	H	0.238576	-0.241522	0.799968
H172	H	-0.022762	-0.578781	0.000055
H173	H	0.310571	-0.245448	0.333389
H174	H	0.643904	0.087886	0.666722
H175	H	0.218274	-0.879574	0.583672
H176	H	0.551607	-0.546241	0.917005
H177	H	0.884940	-0.212908	1.250339
H178	H	-0.342682	-1.055990	0.133442
H179	H	-0.009349	-0.722657	0.466775
H180	H	0.323985	-0.389324	0.800108
