data_functionalizedCrystal
_audit_creation_method	'MofGen! by Chris Wilmer'
_symmetry_space_group_name_H-M	'P1'
_symmetry_Int_Tables_number	1
_symmetry_cell_setting	triclinic
loop_
_symmetry_equiv_pos_as_xyz
  x,y,z
_cell_length_a	17.699077
_cell_length_b	10.540510
_cell_length_c	16.176319
_cell_angle_alpha	89.995706
_cell_angle_beta	89.993140
_cell_angle_gamma	83.896944
loop_
_atom_site_label
_atom_site_type_symbol
_atom_site_fract_x
_atom_site_fract_y
_atom_site_fract_z
O1	O	1.005115	0.160487	-0.068731
O2	O	0.784870	0.181379	-0.068735
O3	O	0.900029	-0.013868	-0.068732
O4	O	0.889956	0.355734	-0.068733
O5	O	0.900013	-0.013881	0.068761
O6	O	0.784854	0.181367	0.068759
O7	O	1.005099	0.160474	0.068762
Cu8	Cu	0.894975	0.170919	0.081315
Cu9	Cu	0.894994	0.170934	-0.081287
O10	O	0.889940	0.355722	0.068760
C11	C	0.756660	0.180625	0.000012
C12	C	0.672628	0.178383	0.000010
C13	C	0.633145	0.177320	0.074958
C14	C	0.554188	0.175193	0.074959
C15	C	0.514716	0.174139	0.000011
C16	C	0.554205	0.175198	-0.074943
C17	C	0.633160	0.177316	-0.074943
C18	C	0.235786	0.166656	-0.074945
C19	C	0.156825	0.164542	-0.074939
C20	C	0.156815	0.164534	0.074958
C21	C	0.235770	0.166651	0.074958
C22	C	0.275253	0.167704	0.000004
C23	C	0.360866	0.170008	0.000004
C24	C	0.429103	0.171844	0.000010
C25	C	0.899270	-0.061164	0.000012
C26	C	0.897025	-0.202073	0.000007
C27	C	0.977025	-0.420995	0.000324
C28	C	0.979421	-0.274443	0.000009
C29	C	0.854855	-0.246052	-0.078507
C30	C	0.853043	-0.392780	-0.078568
C31	C	0.851309	-0.392571	0.077787
C32	C	0.855217	-0.246301	0.078821
C33	C	1.033309	0.161228	0.000014
C34	C	1.117341	0.163470	0.000010
C35	C	0.890699	0.403018	0.000013
C36	C	0.892944	0.543926	0.000013
N37	N	0.894967	0.170908	0.195680
N38	N	0.895008	0.170935	-0.195652
C39	C	0.945975	0.084488	0.238945
C40	C	0.945979	0.084487	0.325492
C41	C	0.894978	0.170913	0.368772
C42	C	0.843964	0.257337	0.325501
C43	C	0.843958	0.257331	0.238956
C44	C	0.843991	0.257361	0.674529
C45	C	0.844003	0.257362	0.761081
C46	C	0.946012	0.084516	0.761066
C47	C	0.946005	0.084510	0.674520
C48	C	0.894989	0.170930	0.631257
C49	C	0.894985	0.170928	0.537412
C50	C	0.894986	0.170921	0.462615
H51	H	0.124689	0.163682	-0.135975
H52	H	0.124659	0.163671	0.135989
H53	H	0.987550	0.014145	0.796300
Cl54	Cl	0.779881	0.366019	0.815490
H55	H	0.267924	0.167509	-0.135977
H56	H	0.885901	-0.218257	0.136905
Cl57	Cl	0.900090	-0.199243	-0.168720
Cl58	Cl	1.026581	-0.486685	0.087258
Cl59	Cl	1.010125	-0.024139	0.620114
Cl60	Cl	0.891453	-0.458936	0.169667
Cl61	Cl	0.285388	0.167984	0.169182
Cl62	Cl	1.026314	-0.489054	-0.086116
H63	H	0.795061	-0.196133	0.083561
Cl64	Cl	0.779861	0.366004	0.620147
Cl65	Cl	1.010104	-0.024159	0.379884
H66	H	0.987509	0.014115	0.203712
H67	H	0.802435	0.327703	0.360745
Cl68	Cl	0.779827	0.365975	0.184566
H69	H	0.665277	0.178189	0.135990
H70	H	1.012621	-0.246641	-0.056369
Cl71	Cl	0.761205	-0.171166	-0.083024
Cl72	Cl	0.504554	0.173880	0.169185
H73	H	0.522061	0.174331	-0.135968
H74	H	0.665306	0.178184	-0.135974
Cl75	Cl	1.030345	-0.230070	0.086916
H76	H	0.881875	-0.433518	-0.137258
H77	H	0.791416	-0.414645	-0.082127
Cl78	Cl	0.755798	-0.425021	0.078605
