data_functionalizedCrystal
_audit_creation_method	'MofGen! by Chris Wilmer'
_symmetry_space_group_name_H-M	'P1'
_symmetry_Int_Tables_number	1
_symmetry_cell_setting	triclinic
loop_
_symmetry_equiv_pos_as_xyz
  x,y,z
_cell_length_a	14.044220
_cell_length_b	13.339070
_cell_length_c	13.101050
_cell_angle_alpha	85.723856
_cell_angle_beta	86.339940
_cell_angle_gamma	75.590914
loop_
_atom_site_label
_atom_site_type_symbol
_atom_site_fract_x
_atom_site_fract_y
_atom_site_fract_z
O1	O	1.327240	-0.244587	-0.085093
O2	O	1.048901	-0.235571	-0.085120
O3	O	1.156126	-0.089933	-0.085106
O4	O	1.220015	-0.390225	-0.085107
O5	O	1.148438	-0.100403	0.085322
O6	O	1.041213	-0.246041	0.085309
O7	O	1.319552	-0.255057	0.085336
Zn8	Zn	1.179162	-0.252212	0.112382
Zn9	Zn	1.189292	-0.238417	-0.112166
O10	O	1.212327	-0.400695	0.085322
C11	C	1.008705	-0.236860	0.000091
C12	C	0.900384	-0.225089	0.000081
C13	C	1.141490	-0.056505	0.000106
C14	C	1.109322	0.058700	0.000098
N15	N	1.172255	-0.261626	0.265629
C16	C	0.702062	-0.203571	0.000101
C17	C	0.666384	-0.287052	0.000106
C18	C	0.556031	-0.275080	0.000117
C19	C	0.812425	-0.215542	0.000090
C20	C	1.359748	-0.253769	0.000122
C21	C	1.468069	-0.265539	0.000126
C22	C	1.226963	-0.434124	0.000108
C23	C	1.259132	-0.549328	0.000109
C24	C	1.359447	0.400921	0.000123
C25	C	1.389674	0.292679	0.000135
C26	C	1.319588	0.234179	0.000126
C27	C	1.219271	0.283931	0.000104
C28	C	1.189041	0.392182	0.000100
C29	C	1.149182	0.225441	0.000103
C30	C	1.048865	0.275193	0.000081
C31	C	1.018641	0.383433	0.000076
C32	C	1.088726	0.441933	0.000086
C33	C	1.179412	0.117190	0.000107
C34	C	1.009007	0.108451	0.000084
C35	C	0.978780	0.216693	0.000072
C36	C	1.162861	-0.274444	0.474671
C37	C	1.205594	-0.216190	0.525552
C38	C	1.200368	-0.223322	0.641870
C39	C	1.168087	-0.267313	0.358342
N40	N	1.196203	-0.229005	0.734587
H41	H	0.649733	-0.123115	0.000107
H42	H	1.261091	0.076693	0.000125
N43	N	1.350462	0.123616	0.000111
N44	N	1.329164	0.077767	-0.071741
H45	H	1.350972	-0.000323	-0.071757
H46	H	1.471351	0.252179	0.000154
H47	H	1.246106	-0.160961	0.481754
H48	H	0.936956	0.423937	0.000067
H49	H	1.416499	0.448560	0.000139
H50	H	1.122354	-0.329671	0.518463
H51	H	0.897100	0.257216	0.000055
H52	H	0.718717	-0.367515	0.000101
H53	H	1.064120	0.530073	0.000072
H54	H	0.951937	0.060820	0.000082
