data_functionalizedCrystal
_audit_creation_method	'MofGen! by Chris Wilmer'
_symmetry_space_group_name_H-M	'P1'
_symmetry_Int_Tables_number	1
_symmetry_cell_setting	triclinic
loop_
_symmetry_equiv_pos_as_xyz
  x,y,z
_cell_length_a	14.519709
_cell_length_b	10.065875
_cell_length_c	11.026607
_cell_angle_alpha	100.731764
_cell_angle_beta	96.133081
_cell_angle_gamma	81.242070
loop_
_atom_site_label
_atom_site_type_symbol
_atom_site_fract_x
_atom_site_fract_y
_atom_site_fract_z
O1	O	1.260605	-0.113307	0.141346
O2	O	1.593938	0.220027	0.474680
O3	O	1.927272	0.553360	0.808013
O4	O	0.995219	-0.113348	0.160080
O5	O	1.328553	0.219986	0.493413
O6	O	1.661886	0.553319	0.826746
O7	O	1.105917	-0.113326	-0.025988
O8	O	1.439250	0.220008	0.307346
O9	O	1.772583	0.553341	0.640679
O10	O	1.149907	-0.113329	0.327413
O11	O	1.483241	0.220005	0.660747
O12	O	1.816574	0.553338	0.994080
O13	O	1.084832	0.113659	0.009635
O14	O	1.418165	0.446992	0.342969
O15	O	1.751499	0.780326	0.676302
O16	O	0.974135	0.113637	0.195703
O17	O	1.307468	0.446970	0.529036
O18	O	1.640801	0.780304	0.862369
O19	O	1.239520	0.113678	0.176969
O20	O	1.572853	0.447011	0.510303
O21	O	1.906187	0.780344	0.843636
Zn22	Zn	1.103480	0.149696	0.191992
Zn23	Zn	1.436813	0.483029	0.525325
Zn24	Zn	1.770146	0.816363	0.858659
Zn25	Zn	1.131260	-0.149366	0.145057
Zn26	Zn	1.464593	0.183967	0.478390
Zn27	Zn	1.797926	0.517301	0.811724
O28	O	1.128823	0.113656	0.363037
O29	O	1.462156	0.446989	0.696370
O30	O	1.795489	0.780322	1.029703
C31	C	0.950174	0.000139	0.177017
C32	C	1.283507	0.333473	0.510350
C33	C	1.616840	0.666806	0.843684
C34	C	0.847363	0.000123	0.174397
C35	C	1.180696	0.333457	0.507731
C36	C	1.514029	0.666790	0.841064
N37	N	1.084527	0.353798	0.224023
N38	N	1.417860	0.687131	0.557356
N39	N	1.751194	1.020465	0.890690
C40	C	1.087259	0.000164	-0.053405
C41	C	1.420592	0.333497	0.279928
C42	C	1.753926	0.666830	0.613262
C43	C	1.063067	0.000155	-0.188173
C44	C	1.396401	0.333488	0.145160
C45	C	1.729734	0.666822	0.478494
C46	C	0.470874	0.000186	0.164772
C47	C	0.804207	0.333519	0.498106
C48	C	1.137540	0.666852	0.831439
C49	C	0.575624	0.000168	0.167445
C50	C	0.908957	0.333501	0.500778
C51	C	1.242291	0.666835	0.834112
C52	C	0.659115	0.000153	0.169584
C53	C	0.992448	0.333487	0.502918
C54	C	1.325782	0.666820	0.836251
C55	C	0.763872	0.000138	0.172258
C56	C	1.097205	0.333471	0.505592
C57	C	1.430539	0.666805	0.838925
C58	C	1.284566	0.000188	0.160032
C59	C	1.617899	0.333521	0.493365
C60	C	1.951233	0.666854	0.826698
C61	C	1.387378	0.000195	0.162650
C62	C	1.720711	0.333528	0.495983
C63	C	2.054044	0.666861	0.829316
N64	N	1.150218	-0.353468	0.113016
N65	N	1.483551	-0.020134	0.446350
N66	N	1.816885	0.313199	0.779683
C67	C	1.124658	0.421585	0.156194
C68	C	1.457992	0.754918	0.489527
C69	C	1.791325	1.088251	0.822861
C70	C	1.110081	0.578749	0.180855
C71	C	1.443414	0.912082	0.514189
C72	C	1.776747	1.245416	0.847522
C73	C	1.129866	0.000163	-0.261832
C74	C	1.463199	0.333497	0.071501
C75	C	1.796533	0.666830	0.404834
C76	C	1.104865	0.000155	-0.401122
C77	C	1.438198	0.333488	-0.067789
C78	C	1.771531	0.666821	0.265544
C79	C	1.147480	0.000163	0.390453
C80	C	1.480814	0.333497	0.723787
C81	C	1.814147	0.666830	1.057120
C82	C	1.171673	0.000163	0.525220
C83	C	1.505006	0.333496	0.858553
C84	C	1.838340	0.666830	1.191887
H85	H	1.169805	0.363269	0.079860
H86	H	1.503138	0.696603	0.413194
H87	H	1.836472	1.029936	0.746527
H88	H	1.064923	0.637061	0.257185
H89	H	1.398257	0.970394	0.590518
H90	H	1.731590	1.303728	0.923851
H91	H	0.987370	0.000135	-0.228232
H92	H	1.320703	0.333468	0.105102
H93	H	1.654037	0.666801	0.438435
H94	H	1.205564	0.000184	-0.221773
H95	H	1.538897	0.333517	0.111560
H96	H	1.872230	0.666850	0.444893
H97	H	1.195367	0.588220	0.036678
H98	H	1.528701	0.921554	0.370011
H99	H	1.862034	1.254887	0.703345
H100	H	1.039372	0.412115	0.300348
H101	H	1.372706	0.745448	0.633681
H102	H	1.706039	1.078782	0.967014
H103	H	1.247386	0.000072	-0.434746
H104	H	1.580719	0.333405	-0.101413
H105	H	1.914053	0.666739	0.231921
H106	H	1.029162	0.000134	-0.441175
H107	H	1.362495	0.333467	-0.107842
H108	H	1.695829	0.666801	0.225491
