data_functionalizedCrystal
_audit_creation_method	'MofGen! by Chris Wilmer'
_symmetry_space_group_name_H-M	'P1'
_symmetry_Int_Tables_number	1
_symmetry_cell_setting	triclinic
loop_
_symmetry_equiv_pos_as_xyz
  x,y,z
_cell_length_a	10.685194
_cell_length_b	10.685661
_cell_length_c	10.685880
_cell_angle_alpha	81.602173
_cell_angle_beta	90.299888
_cell_angle_gamma	89.666412
loop_
_atom_site_label
_atom_site_type_symbol
_atom_site_fract_x
_atom_site_fract_y
_atom_site_fract_z
Zn1	Zn	-0.712830	1.936575	-0.806957
Zn2	Zn	-0.212830	2.436575	-0.306957
Zn3	Zn	-0.903941	1.904322	-0.578835
Zn4	Zn	-0.403941	2.404322	-0.078835
Zn5	Zn	-0.678282	1.710887	-0.581358
Zn6	Zn	-0.178282	2.210887	-0.081358
Zn7	Zn	-0.903828	1.708450	-0.774799
Zn8	Zn	-0.403828	2.208450	-0.274799
O9	O	-0.799720	1.815058	-0.685487
O10	O	-0.299720	2.315058	-0.185487
O11	O	-0.752687	2.108720	-0.789098
O12	O	-0.252687	2.608720	-0.289098
O13	O	-0.859595	1.866184	-0.402744
O14	O	-0.359595	2.366184	0.097256
O15	O	-0.508493	1.755343	-0.625798
O16	O	-0.008493	2.255343	-0.125798
O17	O	-0.893095	2.085024	-0.621498
O18	O	-0.393095	2.585024	-0.121498
O19	O	-0.533875	1.921155	-0.791544
O20	O	-0.033875	2.421155	-0.291544
O21	O	-0.693805	1.724068	-0.404598
O22	O	-0.193805	2.224068	0.095402
O23	O	-0.693696	1.534140	-0.594616
O24	O	-0.193696	2.034140	-0.094616
O25	O	-0.892903	1.751190	-0.955490
O26	O	-0.392903	2.251190	-0.455490
O27	O	-0.859403	1.532349	-0.736736
O28	O	-0.359403	2.032349	-0.236736
O29	O	-0.752578	1.918792	-0.979116
O30	O	-0.252578	2.418792	-0.479116
O31	O	-1.078298	1.863821	-0.590316
O32	O	-0.578298	2.363821	-0.090316
O33	O	-1.078215	1.719915	-0.734290
O34	O	-0.578215	2.219915	-0.234290
C35	C	-0.772789	1.487500	-0.662461
C36	C	-0.272789	1.987500	-0.162461
C37	C	-0.761301	1.347368	-0.652638
C38	C	-0.261301	1.847368	-0.152638
C39	C	-1.123474	1.788140	-0.658569
C40	C	-0.623474	2.288140	-0.158569
C41	C	-1.261991	1.776742	-0.647104
C42	C	-0.761991	2.276742	-0.147104
C43	C	-0.474707	1.842118	-0.712540
C44	C	0.025293	2.342118	-0.212540
C45	C	-0.336206	1.853650	-0.724068
C46	C	0.163794	2.353650	-0.224068
C47	C	-0.826582	1.838317	-1.014327
C48	C	-0.326582	2.338317	-0.514327
C49	C	-0.838029	1.848228	-1.154460
C50	C	-0.338029	2.348228	-0.654460
C51	C	-0.826757	2.143896	-0.708604
C52	C	-0.326757	2.643896	-0.208604
C53	C	-0.838279	2.284027	-0.718454
C54	C	-0.338279	2.784027	-0.218454
C55	C	-0.772879	1.791971	-0.357938
C56	C	-0.272879	2.291971	0.142062
C57	C	-0.761101	1.782333	-0.217853
C58	C	-0.261101	2.282333	0.282147
H59	H	-0.686600	1.294394	-0.588783
H60	H	-0.186600	1.794394	-0.088783
C61	C	-0.939195	1.355584	-0.804734
C62	C	-0.439195	1.855584	-0.304734
H63	H	-0.985940	1.297057	-0.844714
H64	H	-0.485940	1.797057	-0.344714
H65	H	-0.993632	1.399025	-0.755470
H66	H	-0.493632	1.899025	-0.255470
H67	H	-0.900262	1.414806	-0.867266
H68	H	-0.400262	1.914806	-0.367266
H69	H	-1.293772	1.928220	-0.798743
H70	H	-0.793772	2.428220	-0.298743
C71	C	-0.660294	1.695851	-1.146354
C72	C	-0.160294	2.195851	-0.646354
H73	H	-0.613577	1.655834	-1.204914
H74	H	-0.113577	2.155834	-0.704914
H75	H	-0.605815	1.744994	-1.102884
H76	H	-0.105815	2.244994	-0.602884
H77	H	-0.699311	1.633351	-1.087165
H78	H	-0.199311	2.133351	-0.587165
H79	H	-1.304420	1.702167	-0.572445
H80	H	-0.804420	2.202167	-0.072445
C81	C	-0.938833	1.934698	-1.225958
C82	C	-0.438833	2.434698	-0.725958
H83	H	-0.933557	1.930253	-1.313923
H84	H	-0.433557	2.430253	-0.813923
H85	H	-1.019303	1.907777	-1.196174
H86	H	-0.519303	2.407777	-0.696174
H87	H	-0.925811	2.019423	-1.211909
H88	H	-0.425811	2.519423	-0.711909
