data_functionalizedCrystal
_audit_creation_method	'MofGen! by Chris Wilmer'
_symmetry_space_group_name_H-M	'P1'
_symmetry_Int_Tables_number	1
_symmetry_cell_setting	triclinic
loop_
_symmetry_equiv_pos_as_xyz
  x,y,z
_cell_length_a	12.645330
_cell_length_b	10.685909
_cell_length_c	10.685986
_cell_angle_alpha	81.635045
_cell_angle_beta	85.592122
_cell_angle_gamma	94.348512
loop_
_atom_site_label
_atom_site_type_symbol
_atom_site_fract_x
_atom_site_fract_y
_atom_site_fract_z
Zn1	Zn	-0.506673	-1.885498	-0.568617
Zn2	Zn	-0.698701	-1.901619	-0.356384
Zn3	Zn	-0.506747	-1.689497	-0.372691
Zn4	Zn	-0.669182	-1.673217	-0.584879
O5	O	-0.595326	-1.787458	-0.470642
O6	O	-0.544469	-2.065251	-0.526833
O7	O	-0.685622	-1.887041	-0.180925
O8	O	-0.358393	-1.715564	-0.398700
O9	O	-0.685551	-2.077095	-0.370906
O10	O	-0.358338	-1.859565	-0.542646
O11	O	-0.544594	-1.731196	-0.192907
O12	O	-0.515971	-1.509724	-0.414469
O13	O	-0.635240	-1.687817	-0.760343
O14	O	-0.635312	-1.497763	-0.570362
O15	O	-0.515846	-1.843779	-0.748395
O16	O	-0.843129	-1.871255	-0.386675
O17	O	-0.821442	-1.703449	-0.554549
C18	C	-0.572447	-1.457690	-0.495950
C19	C	-0.562683	-1.316612	-0.506807
C20	C	-0.870750	-1.787367	-0.470632
C21	C	-0.988583	-1.787441	-0.470661
C22	C	-1.142555	-1.682255	-0.576542
C23	C	-1.019983	-1.681780	-0.576264
C24	C	-1.039963	-1.761478	-0.339672
C25	C	-1.162479	-1.760836	-0.340315
C26	C	-1.162609	-1.919269	-0.494637
C27	C	-1.039742	-1.918221	-0.497626
C28	C	-0.318826	-1.787582	-0.470678
C29	C	-0.200998	-1.787635	-0.470694
C30	C	-0.572242	-1.762184	-0.801712
C31	C	-0.562405	-1.751413	-0.942794
C32	C	-0.618285	-1.118514	-0.445228
C33	C	-0.628047	-1.259592	-0.434375
C34	C	-0.618248	-1.812707	-0.140855
C35	C	-0.627803	-1.823724	0.000245
H36	H	-0.499254	-1.257492	-0.577132
C37	C	-0.972040	-1.702037	-0.707934
C38	C	-1.045281	-1.718766	-0.814070
C39	C	-0.997341	-1.738981	-0.945758
C40	C	-0.876160	-1.742466	-0.971310
C41	C	-0.802912	-1.725736	-0.865172
C42	C	-0.850852	-1.705521	-0.733483
H43	H	-1.134992	-1.716187	-0.795157
H44	H	-1.051564	-1.751366	-1.024329
H45	H	-0.840672	-1.757431	-1.068794
H46	H	-0.713201	-1.728316	-0.884085
H47	H	-0.796629	-1.693137	-0.654913
C48	C	-0.713738	-1.339441	-0.339377
C49	C	-0.832320	-1.320547	-0.350869
C50	C	-0.918013	-1.400404	-0.255870
C51	C	-0.885123	-1.499155	-0.149379
C52	C	-0.766535	-1.518053	-0.137883
C53	C	-0.680842	-1.438196	-0.232882
H54	H	-0.856673	-1.247442	-0.429704
H55	H	-1.005800	-1.386414	-0.264381
H56	H	-0.948558	-1.558271	-0.079055
H57	H	-0.742183	-1.591159	-0.059048
H58	H	-0.593055	-1.452186	-0.224371
H59	H	-1.166607	-1.697079	-0.674333
H60	H	-1.168156	-1.585060	-0.561735
H61	H	-1.201628	-1.997654	-0.417418
H62	H	-1.019026	-2.000048	-0.425326
C63	C	-1.194780	-1.631253	-0.311305
C64	C	-1.169968	-1.586939	-0.185049
C65	C	-1.202262	-1.457351	-0.156042
C66	C	-1.259368	-1.372077	-0.253292
C67	C	-1.284184	-1.416390	-0.379557
C68	C	-1.251890	-1.545978	-0.408564
H69	H	-1.127691	-1.650065	-0.113051
H70	H	-1.183892	-1.424548	-0.062572
H71	H	-1.283274	-1.276149	-0.231819
H72	H	-1.326460	-1.353264	-0.451555
H73	H	-1.270260	-1.578780	-0.502034
H74	H	-0.985425	-1.583985	-0.561214
H75	H	-1.202127	-1.834815	-0.259315
C76	C	-1.014100	-1.862482	-0.230822
C77	C	-0.897445	-1.879397	-0.205256
C78	C	-0.871580	-1.980404	-0.096409
C79	C	-0.962370	-2.064495	-0.013126
C80	C	-1.079034	-2.047582	-0.038690
C81	C	-1.104899	-1.946576	-0.147538
H82	H	-0.830229	-1.817146	-0.266909
H83	H	-0.785217	-1.992923	-0.077485
H84	H	-0.943224	-2.139265	0.067449
H85	H	-1.146250	-2.109834	0.022963
H86	H	-1.191262	-1.934057	-0.166461
H87	H	-1.004673	-1.666620	-0.317587
H88	H	-1.189079	-1.944955	-0.587987
H89	H	-1.005643	-1.937987	-0.593976
H90	H	-0.691309	-1.893875	-0.940589
H91	H	-0.498887	-1.681267	-1.001966
