data_functionalizedCrystal
_audit_creation_method	'MofGen! by Chris Wilmer'
_symmetry_space_group_name_H-M	'P1'
_symmetry_Int_Tables_number	1
_symmetry_cell_setting	triclinic
loop_
_symmetry_equiv_pos_as_xyz
  x,y,z
_cell_length_a	14.519731
_cell_length_b	14.519709
_cell_length_c	13.596369
_cell_angle_alpha	89.993066
_cell_angle_beta	90.006433
_cell_angle_gamma	96.315501
loop_
_atom_site_label
_atom_site_type_symbol
_atom_site_fract_x
_atom_site_fract_y
_atom_site_fract_z
O1	O	-1.223856	0.120986	-0.081819
O2	O	-0.955382	0.135202	-0.081816
O3	O	-1.096737	-0.006144	-0.081808
O4	O	-1.082501	0.262332	-0.081826
O5	O	-1.096723	-0.006151	0.081774
O6	O	-0.955368	0.135195	0.081767
O7	O	-1.223842	0.120979	0.081764
Zn8	Zn	-1.089603	0.128086	0.107738
Zn9	Zn	-1.089621	0.128096	-0.107790
O10	O	-1.082487	0.262325	0.081757
C11	C	-0.921016	0.134532	-0.000024
C12	C	-0.818635	0.132536	-0.000022
C13	C	-0.735491	0.130915	-0.000024
C14	C	-0.631182	0.128888	-0.000023
C15	C	-0.548043	0.127280	-0.000021
C16	C	-0.443728	0.125253	-0.000021
C17	C	-1.096067	-0.040507	-0.000017
C18	C	-1.094079	-0.142889	-0.000016
C19	C	-1.086759	-0.517785	-0.000042
C20	C	-1.088792	-0.413477	-0.000034
C21	C	-1.090419	-0.330340	-0.000028
C22	C	-1.092452	-0.226025	-0.000022
C23	C	-0.258209	0.121649	-0.000025
C24	C	-0.360589	0.123645	-0.000019
C25	C	-1.083157	0.296688	-0.000037
C26	C	-1.085146	0.399070	-0.000044
N27	N	-1.089597	0.128078	0.254830
N28	N	-1.089635	0.128096	-0.254881
C29	C	-1.089620	0.128096	0.656121
C30	C	-1.089611	0.128095	0.544469
C31	C	-1.089609	0.128088	0.455479
C32	C	-1.089599	0.128085	0.343820
