data_functionalizedCrystal
_audit_creation_method	'MofGen! by Chris Wilmer'
_symmetry_space_group_name_H-M	'P1'
_symmetry_Int_Tables_number	1
_symmetry_cell_setting	triclinic
loop_
_symmetry_equiv_pos_as_xyz
  x,y,z
_cell_length_a	19.288840
_cell_length_b	10.723023
_cell_length_c	17.766277
_cell_angle_alpha	89.994693
_cell_angle_beta	89.983415
_cell_angle_gamma	83.796782
loop_
_atom_site_label
_atom_site_type_symbol
_atom_site_fract_x
_atom_site_fract_y
_atom_site_fract_z
O1	O	0.922376	0.155510	-0.062718
O2	O	0.720249	0.176541	-0.062692
O3	O	0.825975	-0.015650	-0.062703
O4	O	0.816650	0.347700	-0.062708
O5	O	0.825956	-0.015659	0.062486
O6	O	0.720231	0.176531	0.062496
O7	O	0.922357	0.155500	0.062470
Cu8	Cu	0.821292	0.166015	0.073914
Cu9	Cu	0.821314	0.166026	-0.074136
O10	O	0.816631	0.347690	0.062481
C11	C	0.694359	0.175864	-0.000095
C12	C	0.617241	0.173849	-0.000085
C13	C	0.581042	0.172886	-0.068327
C14	C	0.508582	0.170978	-0.068336
C15	C	0.472327	0.170008	-0.000099
C16	C	0.508535	0.170978	0.068152
C17	C	0.580992	0.172899	0.068159
C18	C	0.362496	0.093875	0.052171
C19	C	0.290041	0.091947	0.052160
C20	C	0.248845	0.164090	-0.000119
C21	C	0.280114	0.238146	-0.052400
C22	C	0.352571	0.240066	-0.052393
C23	C	0.393760	0.167926	-0.000099
C24	C	0.134077	0.161060	-0.068375
C25	C	0.061615	0.159160	-0.068382
C26	C	0.061570	0.159148	0.068108
C27	C	0.134029	0.161061	0.068113
C28	C	0.170278	0.162011	-0.000131
C29	C	0.825287	-0.062140	-0.000109
C30	C	0.823257	-0.200651	-0.000111
C31	C	0.822362	-0.262393	-0.064964
C32	C	0.820264	-0.405551	-0.064967
C33	C	0.948247	0.156177	-0.000129
C34	C	1.025365	0.158192	-0.000144
C35	C	0.817319	0.394181	-0.000115
C36	C	0.819349	0.532692	-0.000117
N37	N	0.821282	0.166006	0.178044
N38	N	0.821330	0.166025	-0.178266
C39	C	0.868112	0.080946	0.217426
C40	C	0.868116	0.080940	0.296228
C41	C	0.821296	0.166016	0.335645
C42	C	0.774457	0.251083	0.296253
C43	C	0.774449	0.251078	0.217453
C44	C	0.812737	0.279709	0.460482
C45	C	0.812749	0.279716	0.539281
C46	C	0.821315	0.166031	0.578691
C47	C	0.829883	0.052334	0.539293
C48	C	0.829876	0.052329	0.460493
C49	C	0.821299	0.166030	0.421090
C50	C	0.868153	0.080957	0.703519
C51	C	0.868152	0.080950	0.782322
C52	C	0.774495	0.251103	0.782346
C53	C	0.774493	0.251100	0.703544
C54	C	0.821325	0.166028	0.664136
H55	H	0.246573	0.296897	-0.094968
C56	C	0.255652	0.010496	0.109677
N57	N	0.229751	-0.050848	0.153003
H58	H	0.163504	0.161837	0.123683
H59	H	0.378027	0.300368	-0.094961
H60	H	0.836858	-0.040240	0.571379
H61	H	0.805777	0.372294	0.571353
C62	C	0.722993	0.344689	0.825700
N63	N	0.684199	0.415180	0.858357
C64	C	0.919643	-0.012625	0.339557
N65	N	0.958456	-0.083092	0.372191
C66	C	0.803314	0.404780	0.417138
N67	N	0.796216	0.498981	0.384493
C68	C	0.407806	0.014502	0.109684
N69	N	0.441932	-0.045281	0.153001
H70	H	0.819497	-0.458649	-0.120490
C71	C	0.468755	0.169910	-0.143411
N72	N	0.438760	0.169102	-0.199957
C73	C	0.822193	-0.272415	0.074896
N74	N	0.821391	-0.326465	0.131394
H75	H	0.736313	0.320345	0.185387
C76	C	0.919623	-0.012648	0.174082
N77	N	0.958419	-0.083148	0.141433
H78	H	0.479011	0.170191	0.123711
C79	C	0.919662	-0.012634	0.660167
N80	N	0.958458	-0.083130	0.627516
H81	H	0.906285	0.011677	0.814388
C82	C	0.839291	-0.072735	0.417158
N83	N	0.846379	-0.166935	0.384518
C84	C	0.723025	0.344764	0.660222
N85	N	0.684273	0.415344	0.627592
H86	H	0.032142	0.158383	-0.123955
H87	H	0.610465	0.173684	0.123732
H88	H	0.610551	0.173659	-0.123896
C89	C	0.173952	0.162128	-0.143444
N90	N	0.203983	0.162936	-0.199987
C91	C	0.021694	0.158083	0.143170
N92	N	-0.008345	0.157283	0.199709
C93	C	0.722951	0.344661	0.339613
N94	N	0.684153	0.415143	0.372271
H95	H	0.820123	-0.414221	0.055408
C96	C	0.823429	-0.190630	-0.139971
N97	N	0.824236	-0.136580	-0.196469
