data_functionalizedCrystal
_audit_creation_method	'MofGen! by Chris Wilmer'
_symmetry_space_group_name_H-M	'P1'
_symmetry_Int_Tables_number	1
_symmetry_cell_setting	triclinic
loop_
_symmetry_equiv_pos_as_xyz
  x,y,z
_cell_length_a	19.077105
_cell_length_b	12.759393
_cell_length_c	19.076919
_cell_angle_alpha	92.277838
_cell_angle_beta	89.923776
_cell_angle_gamma	92.288570
loop_
_atom_site_label
_atom_site_type_symbol
_atom_site_fract_x
_atom_site_fract_y
_atom_site_fract_z
Zn1	Zn	1.058326	0.508277	0.440454
Zn2	Zn	1.062985	0.677205	0.322959
Zn3	Zn	0.945542	0.494203	0.318246
Zn4	Zn	0.940806	0.676571	0.435712
O5	O	1.001915	0.589064	0.379343
O6	O	1.157277	0.536841	0.428825
O7	O	1.051337	0.647304	0.224002
O8	O	0.960536	0.349051	0.334470
O9	O	1.160699	0.660951	0.342502
O10	O	1.043398	0.359392	0.424255
O11	O	0.965053	0.512853	0.220540
O12	O	0.846582	0.512239	0.329871
O13	O	0.952464	0.659871	0.534672
O14	O	0.843102	0.646224	0.416173
O15	O	1.038805	0.536227	0.538156
O16	O	1.046745	0.824139	0.337903
O17	O	0.956981	0.823673	0.420742
C18	C	0.819345	0.577636	0.371996
C19	C	0.741241	0.572774	0.368870
C20	C	0.702756	0.640345	0.412263
C21	C	0.629369	0.635763	0.409329
C22	C	0.594467	0.563613	0.362998
C23	C	0.632956	0.496034	0.319603
C24	C	0.706342	0.500612	0.322541
C25	C	0.375177	0.542425	0.349404
C26	C	0.301785	0.537854	0.346468
C27	C	0.298203	0.677582	0.436195
C28	C	0.371591	0.682158	0.439126
C29	C	0.410074	0.614576	0.395734
N30	N	0.519452	0.558930	0.359997
N31	N	0.485087	0.619255	0.398740
C32	C	1.001873	0.862028	0.379336
C33	C	1.001918	0.978809	0.379359
C34	C	1.095454	0.979249	0.293169
C35	C	1.142240	1.034331	0.250085
C36	C	1.142280	1.144056	0.250111
C37	C	1.095531	1.198702	0.293226
C38	C	1.048745	1.143620	0.336310
C39	C	1.048709	1.033892	0.336278
C40	C	0.955214	1.143181	0.422502
C41	C	0.955169	1.033455	0.422474
C42	C	0.908465	1.197827	0.465618
C43	C	0.861674	1.142744	0.508699
C44	C	0.861635	1.033012	0.508671
C45	C	0.908383	0.978373	0.465558
C46	C	1.185197	0.600537	0.386718
C47	C	1.263301	0.605426	0.389861
C48	C	1.001975	1.315036	0.379377
C49	C	1.002000	1.198263	0.379419
C50	C	0.994587	0.599548	0.562624
C51	C	0.991464	0.604016	0.640727
C52	C	1.009255	0.578547	0.196776
C53	C	1.012514	0.573792	0.118679
C54	C	1.034948	0.541743	0.679235
C55	C	1.032005	0.545936	0.752621
C56	C	0.985581	0.612409	0.787498
C57	C	0.942092	0.674685	0.748984
C58	C	0.945032	0.670485	0.675600
C59	C	0.971965	0.631867	1.006780
C60	C	0.969030	0.636065	1.080171
C61	C	1.058942	0.507314	1.083802
C62	C	1.061881	0.503125	1.010416
C63	C	1.018389	0.565397	0.971909
N64	N	0.982573	0.616700	0.862510
N65	N	1.021394	0.561100	0.896898
H66	H	0.266863	0.732603	0.471524
H67	H	0.908352	0.889028	0.465526
Cl68	Cl	0.257910	0.447152	0.288213
H69	H	0.731168	0.699101	0.449989
H70	H	0.406501	0.487402	0.314066
H71	H	1.094349	0.456615	1.115163
Cl72	Cl	0.883728	0.758248	0.792829
Cl73	Cl	0.917290	0.710153	0.958381
Cl74	Cl	0.890362	0.748772	0.627189
H75	H	0.604533	0.437284	0.281882
Cl76	Cl	0.908230	1.335732	0.465341
H77	H	0.931224	0.690198	1.108565
H78	H	0.823618	1.187246	0.543803
H79	H	0.598038	0.690788	0.444664
Cl80	Cl	0.802819	0.963776	0.562841
H81	H	0.737675	0.445583	0.287210
Cl82	Cl	0.415463	0.772867	0.497372
Cl83	Cl	1.095298	1.336607	0.292947
H84	H	1.095417	0.889903	0.293134
H85	H	1.180381	1.188905	0.215032
Cl86	Cl	1.201010	0.965629	0.195889
Cl87	Cl	1.093315	0.458178	0.635398
H88	H	1.067416	0.495230	0.783972
Cl89	Cl	1.120245	0.419556	0.966576
