data_functionalizedCrystal
_audit_creation_method	'MofGen! by Chris Wilmer'
_symmetry_space_group_name_H-M	'P1'
_symmetry_Int_Tables_number	1
_symmetry_cell_setting	triclinic
loop_
_symmetry_equiv_pos_as_xyz
  x,y,z
_cell_length_a	14.044220
_cell_length_b	14.971486
_cell_length_c	12.503552
_cell_angle_alpha	93.522504
_cell_angle_beta	93.839943
_cell_angle_gamma	91.598497
loop_
_atom_site_label
_atom_site_type_symbol
_atom_site_fract_x
_atom_site_fract_y
_atom_site_fract_z
O1	O	0.118069	-1.201397	-0.089199
O2	O	0.132861	-0.942164	-0.089228
O3	O	-0.012523	-1.067889	-0.089203
O4	O	0.263454	-1.075672	-0.089224
O5	O	-0.001580	-1.058423	0.089437
O6	O	0.143805	-0.932698	0.089412
O7	O	0.129013	-1.191931	0.089442
Cu8	Cu	0.137408	-1.061450	0.105738
Cu9	Cu	0.124466	-1.072645	-0.105525
O10	O	0.274397	-1.066206	0.089417
C11	C	-0.042370	-1.059749	0.000117
C12	C	-0.147607	-1.049588	0.000117
C13	C	0.137671	-0.904054	0.000088
C14	C	0.135688	-0.804602	0.000077
C15	C	0.124203	-1.230041	0.000123
C16	C	0.126186	-1.329494	0.000127
C17	C	-0.340290	-1.031012	0.000100
C18	C	-0.397842	-1.103079	0.000105
C19	C	-0.505057	-1.092743	0.000095
C20	C	-0.233065	-1.041347	0.000109
C21	C	0.304244	-1.074346	0.000094
C22	C	0.409480	-1.084507	0.000087
N23	N	0.146510	-1.053582	0.254330
C24	C	0.221098	-0.754105	0.000073
C25	C	0.219230	-0.660657	0.000089
C26	C	0.131951	-0.617709	0.000102
C27	C	0.046535	-0.668212	0.000110
C28	C	0.048404	-0.761657	0.000101
C29	C	0.042645	-0.473442	0.000125
C30	C	0.040776	-0.379990	0.000132
C31	C	0.213472	-0.372442	0.000112
C32	C	0.215341	-0.465888	0.000104
C33	C	0.129924	-0.516385	0.000110
N34	N	0.115357	-1.080519	-0.254116
C35	C	0.101964	-1.092088	0.526770
C36	C	0.159899	-1.042016	0.473436
C37	C	0.152447	-1.048453	0.351514
C38	C	0.109415	-1.085652	0.648704
H39	H	-0.371539	-0.961557	0.000089
N40	N	-0.042628	-0.624359	0.000114
N41	N	-0.118881	-0.669459	0.000117
H42	H	-0.181857	-0.638491	0.000116
H43	H	-0.021146	-0.802771	0.000105
N44	N	-0.358662	-1.190226	0.000119
N45	N	-0.381724	-1.247144	-0.075170
H46	H	-0.354050	-1.308689	-0.075157
H47	H	0.292171	-0.789067	0.000061
H48	H	0.288780	-0.619547	0.000084
N49	N	0.304499	-0.509747	0.000074
N50	N	0.380756	-0.464654	0.000066
H51	H	0.443727	-0.495629	0.000046
N52	N	-0.048372	-0.336113	0.000173
N53	N	-0.064052	-0.280829	0.075484
H54	H	-0.127014	-0.249838	0.075516
N55	N	0.300717	-0.320852	0.000121
N56	N	0.299041	-0.237419	0.000145
H57	H	0.360655	-0.200978	0.000154
H58	H	0.046773	-1.139787	0.480869
H59	H	-0.026910	-0.514554	0.000132
N60	N	0.229136	-0.982176	0.531032
N61	N	0.235171	-0.976963	0.631429
H62	H	0.284069	-0.934704	0.672112
