data_functionalizedCrystal
_audit_creation_method	'MofGen! by Chris Wilmer'
_symmetry_space_group_name_H-M	'P1'
_symmetry_Int_Tables_number	1
_symmetry_cell_setting	triclinic
loop_
_symmetry_equiv_pos_as_xyz
  x,y,z
_cell_length_a	18.050583
_cell_length_b	11.169417
_cell_length_c	18.050590
_cell_angle_alpha	89.993416
_cell_angle_beta	89.972555
_cell_angle_gamma	90.012662
loop_
_atom_site_label
_atom_site_type_symbol
_atom_site_fract_x
_atom_site_fract_y
_atom_site_fract_z
Zn1	Zn	-0.419892	-1.834916	-0.295589
Zn2	Zn	0.080108	-1.334916	0.204411
Zn3	Zn	-0.295721	-1.834847	-0.419802
Zn4	Zn	0.204279	-1.334847	0.080198
Zn5	Zn	-0.295723	-1.634227	-0.295632
Zn6	Zn	0.204277	-1.134227	0.204368
Zn7	Zn	-0.419877	-1.634226	-0.419743
Zn8	Zn	0.080123	-1.134226	0.080257
O9	O	-0.357803	-1.734554	-0.357691
O10	O	0.142197	-1.234554	0.142309
O11	O	-0.403425	-2.002857	-0.312072
O12	O	0.096575	-1.502857	0.187928
O13	O	-0.191796	-1.808206	-0.403373
O14	O	0.308204	-1.308206	0.096627
O15	O	-0.312201	-1.660879	-0.191702
O16	O	0.187799	-1.160879	0.308298
O17	O	-0.312198	-2.002806	-0.403331
O18	O	0.187802	-1.502806	0.096669
O19	O	-0.403428	-1.808324	-0.191670
O20	O	0.096572	-1.308324	0.308330
O21	O	-0.191798	-1.660811	-0.312146
O22	O	0.308202	-1.160811	0.187854
O23	O	-0.312187	-1.466277	-0.312089
O24	O	0.187813	-0.966277	0.187911
O25	O	-0.523803	-1.660876	-0.403231
O26	O	-0.023803	-1.160876	0.096769
O27	O	-0.403402	-1.466276	-0.403273
O28	O	0.096598	-0.966276	0.096727
O29	O	-0.523814	-1.808323	-0.312016
O30	O	-0.023814	-1.308323	0.187984
O31	O	-0.312183	-1.808204	-0.523719
O32	O	0.187817	-1.308204	-0.023719
O33	O	-0.403400	-1.660809	-0.523676
O34	O	0.096600	-1.160809	-0.023676
C35	C	-0.357793	-1.422729	-0.357680
C36	C	0.142207	-0.922729	0.142320
C37	C	-0.357807	-1.289329	-0.357693
C38	C	0.142193	-0.789329	0.142307
C39	C	-0.357806	-1.734532	-0.550644
C40	C	0.142194	-1.234532	-0.050644
C41	C	-0.357832	-1.734632	-0.633189
C42	C	0.142168	-1.234632	-0.133189
C43	C	-0.551509	-1.734607	-0.357612
C44	C	-0.051509	-1.234607	0.142388
C45	C	-0.634054	-1.734630	-0.357578
C46	C	-0.134054	-1.234630	0.142422
C47	C	-0.833511	-1.814891	-0.307951
C48	C	-0.333511	-1.314891	0.192049
C49	C	-0.882907	-1.705417	-0.289776
C50	C	-0.382907	-1.205417	0.210224
C51	C	-0.785185	-1.734678	-0.357566
C52	C	-0.285185	-1.234678	0.142434
C53	C	-0.882871	-1.844196	-0.375694
C54	C	-0.382871	-1.344196	0.124306
C55	C	-0.931170	-1.734734	-0.357552
C56	C	-0.431170	-1.234734	0.142448
C57	C	-0.833494	-1.625146	-0.339355
C58	C	-0.333494	-1.125146	0.160645
C59	C	-0.833453	-1.763998	-0.425305
C60	C	-0.333453	-1.263998	0.074695
C61	C	-0.882826	-1.654448	-0.407155
C62	C	-0.382826	-1.154448	0.092845
C63	C	-0.701087	-1.734647	-0.357572
C64	C	-0.201087	-1.234647	0.142428
C65	C	-1.015267	-1.734752	-0.357546
C66	C	-0.515267	-1.234752	0.142454
C67	C	-0.164851	-1.734570	-0.357717
C68	C	0.335149	-1.234570	0.142283
C69	C	-0.082305	-1.734780	-0.357541
C70	C	0.417695	-1.234780	0.142459
C71	C	-0.357813	-2.047596	-0.357703
C72	C	0.142187	-1.547596	0.142297
C73	C	-0.357817	-2.180996	-0.357708
C74	C	0.142183	-1.680996	0.142292
C75	C	-0.357817	-1.734609	-0.163986
C76	C	0.142183	-1.234609	0.336014
C77	C	-0.357822	-1.734633	-0.081440
C78	C	0.142178	-1.234633	0.418560
C79	C	-0.407443	-1.814828	0.167403
C80	C	0.092557	-1.314828	0.667403
C81	C	-0.425607	-1.705338	0.118014
C82	C	0.074393	-1.205338	0.618014
C83	C	-0.357829	-1.734629	0.215680
C84	C	0.142171	-1.234629	0.715680
C85	C	-0.339697	-1.844115	0.117988
C86	C	0.160303	-1.344115	0.617988
C87	C	-0.357827	-1.734637	0.069695
C88	C	0.142173	-1.234637	0.569695
C89	C	-0.376028	-1.625082	0.167378
C90	C	0.123972	-1.125082	0.667378
C91	C	-0.290087	-1.763932	0.167357
C92	C	0.209913	-1.263932	0.667357
C93	C	-0.308224	-1.654367	0.117990
C94	C	0.191776	-1.154367	0.617990
C95	C	-0.357832	-1.734627	0.299779
C96	C	0.142168	-1.234627	0.799779
C97	C	-0.357825	-1.734627	-0.014401
C98	C	0.142175	-1.234627	0.485599
H99	H	-0.811855	-1.882614	-0.265968
H100	H	-0.311855	-1.382614	0.234032
O101	O	-0.501489	-1.672499	0.089300
O102	O	-0.001489	-1.172499	0.589300
H103	H	-0.497504	-1.589750	0.055477
H104	H	0.002496	-1.089750	0.555477
O105	O	-0.396438	-1.502402	0.195985
O106	O	0.103562	-1.002402	0.695985
H107	H	-0.396308	-1.503376	0.257473
H108	H	0.103692	-1.003376	0.757473
H109	H	-0.324327	-1.936718	0.096342
H110	H	0.175673	-1.436718	0.596342
O111	O	-0.911323	-1.564530	-0.462731
O112	O	-0.411323	-1.064530	0.037269
H113	H	-0.945142	-1.611323	-0.505132
H114	H	-0.445142	-1.111323	-0.005132
O115	O	-0.804642	-1.796878	-0.501165
O116	O	-0.304642	-1.296878	-0.001165
H117	H	-0.852039	-1.814150	-0.538833
H118	H	-0.352039	-1.314150	-0.038833
O119	O	-0.911691	-1.672582	-0.213893
O120	O	-0.411691	-1.172582	0.286107
H121	H	-0.891947	-1.739270	-0.172811
H122	H	-0.391947	-1.239270	0.327189
O123	O	-0.911610	-1.966840	-0.396016
O124	O	-0.411610	-1.466840	0.103984
H125	H	-0.890957	-1.991721	-0.451858
H126	H	-0.390957	-1.491721	0.048142
H127	H	-0.232816	-1.788754	0.189049
H128	H	0.267184	-1.288754	0.689049
O129	O	-0.804895	-1.502457	-0.318940
O130	O	-0.304895	-1.002457	0.181060
H131	H	-0.743407	-1.503410	-0.319076
H132	H	-0.243407	-1.003410	0.180924
O133	O	-0.463056	-1.904540	0.196160
O134	O	0.036944	-1.404540	0.696160
H135	H	-0.519246	-1.879923	0.176401
H136	H	-0.019246	-1.379923	0.676401
O137	O	-0.252643	-1.564443	0.089427
O138	O	0.247357	-1.064443	0.589427
H139	H	-0.267867	-1.473693	0.109316
H140	H	0.232133	-0.973693	0.609316
