data_functionalizedCrystal
_audit_creation_method	'MofGen! by Chris Wilmer'
_symmetry_space_group_name_H-M	'P1'
_symmetry_Int_Tables_number	1
_symmetry_cell_setting	triclinic
loop_
_symmetry_equiv_pos_as_xyz
  x,y,z
_cell_length_a	12.759401
_cell_length_b	12.759399
_cell_length_c	12.759393
_cell_angle_alpha	90.030211
_cell_angle_beta	90.019596
_cell_angle_gamma	90.015828
loop_
_atom_site_label
_atom_site_type_symbol
_atom_site_fract_x
_atom_site_fract_y
_atom_site_fract_z
Zn1	Zn	1.606260	-0.418208	0.593985
Zn2	Zn	1.606149	-0.593923	0.418306
Zn3	Zn	1.430559	-0.418260	0.418324
Zn4	Zn	1.430548	-0.593846	0.593947
O5	O	1.518379	-0.506059	0.506140
O6	O	1.753266	-0.441527	0.570688
O7	O	1.582814	-0.570675	0.271287
O8	O	1.453917	-0.271232	0.441649
O9	O	1.753184	-0.570625	0.441618
O10	O	1.583004	-0.271194	0.570706
O11	O	1.453809	-0.441616	0.271300
O12	O	1.283536	-0.441541	0.441613
O13	O	1.453899	-0.570493	0.740973
O14	O	1.283529	-0.570544	0.570642
O15	O	1.582994	-0.441452	0.741001
O16	O	1.582804	-0.740934	0.441581
O17	O	1.453791	-0.740877	0.570624
C18	C	1.245412	-0.506040	0.506126
C19	C	1.128635	-0.506058	0.506144
C20	C	0.964065	-0.573347	0.573232
C21	C	1.073789	-0.573336	0.573221
C22	C	1.073751	-0.438795	0.439067
C23	C	0.964029	-0.438812	0.439074
C24	C	1.518312	-0.779027	0.506120
C25	C	1.518380	-0.895803	0.506146
C26	C	1.451255	-1.060399	0.573316
C27	C	1.451190	-0.950675	0.573291
C28	C	1.585648	-0.950661	0.439029
C29	C	1.585717	-1.060383	0.439061
C30	C	1.373623	-1.060405	0.650828
C31	C	1.373558	-0.950681	0.650803
C32	C	1.792412	-0.506079	0.506155
C33	C	1.909189	-0.506087	0.506162
C34	C	1.518458	-0.505958	0.780174
C35	C	1.518491	-0.505915	0.896950
C36	C	1.518474	-0.232026	0.506184
C37	C	1.518515	-0.115249	0.506202
C38	C	1.518361	-0.506084	0.233173
C39	C	1.518531	-0.505831	0.116397
C40	C	1.585716	-0.438713	0.951828
C41	C	1.585734	-0.438668	1.061553
C42	C	1.451299	-0.573036	1.061511
C43	C	1.451277	-0.573075	0.951789
H44	H	0.919418	-0.628127	0.627859
C45	C	1.658546	-0.365571	1.121186
C46	C	1.599093	-0.298179	1.184152
C47	C	1.666132	-0.230813	1.239089
H48	H	1.704339	-0.405621	1.164080
H49	H	1.698548	-0.325520	1.072839
H50	H	1.559109	-0.338226	1.232494
H51	H	1.553304	-0.258106	1.141285
H52	H	1.706134	-0.190762	1.190741
H53	H	1.711921	-0.270871	1.281976
H54	H	1.625803	-0.185073	1.281810
C55	C	1.133180	-0.646399	0.646158
C56	C	1.061664	-0.705297	0.704926
C57	C	1.116336	-0.772608	0.772139
H58	H	1.175963	-0.692218	0.606007
H59	H	1.175985	-0.606280	0.692056
H60	H	1.018877	-0.745413	0.659034
H61	H	1.018879	-0.659505	0.745099
H62	H	1.159141	-0.732488	0.818037
H63	H	1.159117	-0.818420	0.731979
H64	H	1.067821	-0.812571	0.812028
H65	H	1.396527	-0.627799	0.907106
C66	C	1.412348	-0.904974	0.753793
C67	C	1.410232	-0.795406	0.748238
C68	C	1.445973	-0.753263	0.843082
H69	H	1.368315	-0.927841	0.809273
H70	H	1.482075	-0.927833	0.766408
H71	H	1.340516	-0.772557	0.735635
H72	H	1.454267	-0.772510	0.692778
H73	H	1.515701	-0.776121	0.855698
H74	H	1.401937	-0.776137	0.898555
H75	H	1.444552	-0.678917	0.839323
H76	H	1.118415	-0.384020	0.384448
H77	H	1.640496	-1.105039	0.384419
C78	C	1.378159	-0.645829	1.120996
C79	C	1.274210	-0.622934	1.094318
C80	C	1.206805	-0.689964	1.149101
H81	H	1.393367	-0.716464	1.103046
H82	H	1.387729	-0.636176	1.194213
H83	H	1.264645	-0.632596	1.021117
H84	H	1.258969	-0.552312	1.112270
H85	H	1.216375	-0.680312	1.222318
H86	H	1.222023	-0.760595	1.131147
H87	H	1.136269	-0.674434	1.131016
C88	C	0.904630	-0.365666	0.366211
C89	C	0.976138	-0.306720	0.307483
C90	C	0.921458	-0.239325	0.240362
H91	H	0.861801	-0.405694	0.320277
H92	H	0.861870	-0.319890	0.406460
H93	H	1.018880	-0.352491	0.267237
H94	H	1.018969	-0.266671	0.353389
H95	H	0.878698	-0.193548	0.280610
H96	H	0.878631	-0.279361	0.194435
H97	H	0.969967	-0.199315	0.200514
C98	C	1.270712	-1.105985	0.611707
C99	C	1.289486	-1.167727	0.522934
C100	C	1.194709	-1.209722	0.486860
H101	H	1.240227	-1.147942	0.665090
H102	H	1.224173	-1.050624	0.594053
H103	H	1.336008	-1.223079	0.540591
H104	H	1.319955	-1.125792	0.469530
H105	H	1.148170	-1.154362	0.469206
H106	H	1.164231	-1.251675	0.540249
H107	H	1.207432	-1.251611	0.426618
H108	H	1.640363	-0.905978	0.384365
C109	C	1.265148	-0.910944	0.621486
C110	C	1.271983	-0.850065	0.530479
C111	C	1.172145	-0.813432	0.503450
H112	H	1.219898	-0.968804	0.609266
H113	H	1.238044	-0.869509	0.677106
H114	H	1.299074	-0.891497	0.474872
H115	H	1.317214	-0.792189	0.542675
H116	H	1.145040	-0.771998	0.559070
H117	H	1.126902	-0.871299	0.491235
H118	H	1.176770	-0.772114	0.441706
C119	C	1.658721	-0.365676	0.892478
C120	C	1.717575	-0.306793	0.964028
C121	C	1.784827	-0.239486	0.909397
H122	H	1.704569	-0.405765	0.849671
H123	H	1.618561	-0.319855	0.849701
H124	H	1.757732	-0.352608	1.006788
H125	H	1.671754	-0.266683	1.006838
H126	H	1.744667	-0.193665	0.866620
H127	H	1.830669	-0.279583	0.866592
H128	H	1.824761	-0.199519	0.957935
H129	H	1.395372	-1.090095	0.732231
