data_functionalizedCrystal
_audit_creation_method	'MofGen! by Chris Wilmer'
_symmetry_space_group_name_H-M	'P1'
_symmetry_Int_Tables_number	1
_symmetry_cell_setting	triclinic
loop_
_symmetry_equiv_pos_as_xyz
  x,y,z
_cell_length_a	9.065218
_cell_length_b	18.266242
_cell_length_c	9.065218
_cell_angle_alpha	90.004434
_cell_angle_beta	85.015885
_cell_angle_gamma	90.009087
loop_
_atom_site_label
_atom_site_type_symbol
_atom_site_fract_x
_atom_site_fract_y
_atom_site_fract_z
O1	O	1.960411	0.060880	0.216359
O2	O	1.531126	0.060880	0.234106
O3	O	1.754642	0.060878	0.010590
O4	O	1.736895	0.060881	0.439875
O5	O	1.754603	-0.060884	0.010578
O6	O	1.531088	-0.060882	0.234094
O7	O	1.960372	-0.060882	0.216347
Zn8	Zn	1.745724	-0.080214	0.225218
Zn9	Zn	1.745775	0.080212	0.225234
O10	O	1.736857	-0.060881	0.439863
C11	C	1.476120	-0.000001	0.232394
C12	C	1.312277	-0.000000	0.227294
N13	N	1.745700	-0.189701	0.225207
C14	C	1.844706	-0.228011	0.126284
C15	C	1.844716	-0.304656	0.126277
C16	C	1.745733	-0.342988	0.225219
C17	C	1.646708	-0.304669	0.324149
C18	C	1.646691	-0.228026	0.324143
N19	N	1.728696	-0.463320	0.355532
N20	N	1.728721	-0.536128	0.355533
C21	C	1.745775	-0.573911	0.225241
N22	N	1.762832	-0.536135	0.094943
N23	N	1.762815	-0.463320	0.094943
C24	C	1.745739	-0.426095	0.225236
C25	C	1.844796	-0.695327	0.126302
C26	C	1.844796	-0.771974	0.126293
C27	C	1.646795	-0.771986	0.324179
C28	C	1.646789	-0.695341	0.324175
C29	C	1.745797	-0.657016	0.225238
C30	C	2.015378	0.000000	0.218059
C31	C	2.179221	0.000004	0.223158
C32	C	1.752917	-0.000001	-0.044403
C33	C	1.747817	0.000002	-0.208245
N34	N	1.745810	0.189699	0.225235
C35	C	1.738582	0.000001	0.494855
C36	C	1.743681	0.000002	0.658698
H37	H	1.925321	-0.196809	0.045720
H38	H	1.925341	-0.335853	0.045719
Cl39	Cl	1.522348	-0.820169	0.448552
Cl40	Cl	1.969262	-0.820138	0.001914
H41	H	1.566112	-0.335883	0.404707
Cl42	Cl	1.522326	-0.647175	0.448549
H43	H	1.566067	-0.196833	0.404700
H44	H	1.925411	-0.664122	0.045737
