data_functionalizedCrystal
_audit_creation_method	'MofGen! by Chris Wilmer'
_symmetry_space_group_name_H-M	'P1'
_symmetry_Int_Tables_number	1
_symmetry_cell_setting	triclinic
loop_
_symmetry_equiv_pos_as_xyz
  x,y,z
_cell_length_a	16.120297
_cell_length_b	19.805407
_cell_length_c	19.805405
_cell_angle_alpha	89.977440
_cell_angle_beta	92.868750
_cell_angle_gamma	87.122111
loop_
_atom_site_label
_atom_site_type_symbol
_atom_site_fract_x
_atom_site_fract_y
_atom_site_fract_z
Zn1	Zn	-0.471377	-1.015337	-0.288954
Zn2	Zn	0.028623	-0.515337	0.211046
Zn3	Zn	-0.331959	-1.020989	-0.396403
Zn4	Zn	0.168041	-0.520989	0.103597
Zn5	Zn	-0.331980	-0.907888	-0.283226
Zn6	Zn	0.168020	-0.407888	0.216774
Zn7	Zn	-0.471323	-0.902117	-0.402096
Zn8	Zn	0.028677	-0.402117	0.097904
O9	O	-0.401660	-0.961583	-0.342670
O10	O	0.098340	-0.461583	0.157330
O11	O	-0.452897	-1.110802	-0.303221
O12	O	0.047103	-0.610802	0.196779
O13	O	-0.215300	-1.010767	-0.376610
O14	O	0.284700	-0.510767	0.123390
O15	O	-0.350503	-0.922191	-0.189271
O16	O	0.149497	-0.422191	0.310729
O17	O	-0.350467	-1.114955	-0.382164
O18	O	0.149533	-0.614955	0.117836
O19	O	-0.452918	-1.001133	-0.193479
O20	O	0.047082	-0.501133	0.306521
O21	O	-0.215315	-0.927672	-0.293459
O22	O	0.284685	-0.427672	0.206541
O23	O	-0.350450	-0.812407	-0.298980
O24	O	0.149550	-0.312407	0.201020
O25	O	-0.587993	-0.912355	-0.391868
O26	O	-0.087993	-0.412355	0.108132
O27	O	-0.452825	-0.808167	-0.386314
O28	O	0.047175	-0.308167	0.113686
O29	O	-0.588033	-0.995537	-0.308742
O30	O	-0.088033	-0.495537	0.191258
O31	O	-0.350415	-1.005171	-0.491873
O32	O	0.149585	-0.505171	0.008127
O33	O	-0.452805	-0.917836	-0.496056
O34	O	0.047195	-0.417836	0.003944
C35	C	-0.401634	-0.785728	-0.342644
C36	C	0.098366	-0.285728	0.157356
C37	C	-0.401643	-0.710495	-0.342650
C38	C	0.098357	-0.210495	0.157350
C39	C	-0.455059	-0.672986	-0.301624
C40	C	0.044941	-0.172986	0.198376
C41	C	-0.455060	-0.602298	-0.301626
C42	C	0.044940	-0.102298	0.198374
C43	C	-0.401649	-0.569120	-0.342658
C44	C	0.098351	-0.069120	0.157342
C45	C	-0.348228	-0.606634	-0.383686
C46	C	0.151772	-0.106634	0.116314
C47	C	-0.348223	-0.677321	-0.383680
C48	C	0.151777	-0.177321	0.116320
C49	C	-0.348245	-0.321560	-0.383711
C50	C	0.151755	0.178440	0.116289
C51	C	-0.348256	-0.250867	-0.383716
C52	C	0.151744	0.249133	0.116284
C53	C	-0.455081	-0.246536	-0.301658
C54	C	0.044919	0.253464	0.198342
C55	C	-0.455077	-0.317224	-0.301651
C56	C	0.044923	0.182776	0.198349
C57	C	-0.401653	-0.354732	-0.342676
C58	C	0.098347	0.145268	0.157324
C59	C	-0.401651	-0.431381	-0.342672
C60	C	0.098349	0.068619	0.157328
C61	C	-0.401654	-0.492472	-0.342666
C62	C	0.098346	0.007528	0.157334
C63	C	-0.619108	-0.952672	-0.351579
C64	C	-0.119108	-0.452672	0.148421
C65	C	-0.711771	-0.948875	-0.355375
C66	C	-0.211771	-0.448875	0.144625
C67	C	-0.881428	-0.941917	-0.362292
C68	C	-0.381428	-0.441917	0.137708
C69	C	-0.922744	-0.981382	-0.322845
C70	C	-0.422744	-0.481382	0.177155
C71	C	-1.017147	-0.977511	-0.326693
C72	C	-0.517147	-0.477511	0.173307
C73	C	-0.787016	-0.945787	-0.358444
C74	C	-0.287016	-0.445787	0.141556
C75	C	-0.185058	-0.970498	-0.333746
C76	C	0.314942	-0.470498	0.166254
C77	C	-0.092395	-0.974426	-0.329759
C78	C	0.407605	-0.474426	0.170241
C79	C	-0.401620	-0.961508	-0.518524
C80	C	0.098380	-0.461508	-0.018524
C81	C	-0.401630	-0.961537	-0.593757
C82	C	0.098370	-0.461537	-0.093757
C83	C	-0.401679	-0.138125	-0.342691
C84	C	0.098321	0.361875	0.157309
C85	C	-0.401667	-0.213357	-0.342686
C86	C	0.098333	0.286643	0.157314
C87	C	-0.348372	-1.007052	-0.626902
C88	C	0.151628	-0.507052	-0.126902
C89	C	-0.348390	-1.007080	-0.697592
C90	C	0.151610	-0.507080	-0.197592
C91	C	-0.401664	-0.961589	-0.735133
C92	C	0.098336	-0.461589	-0.235133
C93	C	-0.454928	-0.916072	-0.701983
C94	C	0.045072	-0.416072	-0.201983
C95	C	-0.454913	-0.916048	-0.631295
C96	C	0.045087	-0.416048	-0.131295
C97	C	-0.454990	-0.916169	-0.987059
C98	C	0.045010	-0.416169	-0.487059
C99	C	-0.454999	-0.916196	-1.057751
C100	C	0.045001	-0.416196	-0.557751
C101	C	-0.348467	-1.007202	-1.053355
C102	C	0.151533	-0.507202	-0.553355
C103	C	-0.348452	-1.007177	-0.982667
C104	C	0.151548	-0.507177	-0.482667
C105	C	-0.401719	-0.961663	-0.949523
C106	C	0.098281	-0.461663	-0.449523
C107	C	-0.401700	-0.961634	-0.872874
C108	C	0.098300	-0.461634	-0.372874
C109	C	-0.401679	-0.961614	-0.811781
C110	C	0.098321	-0.461614	-0.311781
C111	C	-0.401719	-0.961675	-0.166129
C112	C	0.098281	-0.461675	0.333871
C113	C	-0.401744	-0.961715	-0.090898
C114	C	0.098256	-0.461715	0.409102
H115	H	-0.498579	-0.215989	-0.268251
H116	H	0.001421	0.284011	0.231749
H117	H	-0.304726	-0.707861	-0.417087
H118	H	0.195274	-0.207861	0.082913
H119	H	-0.304736	-0.579615	-0.417092
H120	H	0.195264	-0.079615	0.082908
O121	O	-0.506933	-0.349558	-0.261855
O122	O	-0.006933	0.150442	0.238145
C123	C	-0.495459	-0.419992	-0.270635
C124	C	0.004541	0.080008	0.229365
H125	H	-0.468039	-0.430749	-0.321711
H126	H	0.031961	0.069251	0.178289
H127	H	-0.451151	-0.441873	-0.228615
H128	H	0.048849	0.058127	0.271385
C129	C	-0.613499	-0.439631	-0.205258
C130	C	-0.113499	0.060369	0.294742
C131	C	-0.579827	-0.452843	-0.267993
C132	C	-0.079827	0.047157	0.232007
H133	H	-0.665540	-0.459896	-0.203625
H134	H	-0.165540	0.040104	0.296375
H135	H	-0.621228	-0.392178	-0.199340
H136	H	-0.121228	0.107822	0.300660
H137	H	-0.576567	-0.457866	-0.170248
H138	H	-0.076567	0.042134	0.329752
H139	H	-0.616754	-0.434601	-0.303001
H140	H	-0.116754	0.065399	0.196999
H141	H	-0.572107	-0.500294	-0.273917
H142	H	-0.072107	-0.000294	0.226083
O143	O	-0.506533	-0.871805	-0.599018
O144	O	-0.006533	-0.371805	-0.099018
C145	C	-0.459015	-0.830040	-0.556242
C146	C	0.040985	-0.330040	-0.056242
H147	H	-0.395861	-0.856534	-0.543067
H148	H	0.104139	-0.356534	-0.043067
H149	H	-0.449805	-0.780273	-0.583147
H150	H	0.050195	-0.280273	-0.083147
C151	C	-0.582429	-0.783313	-0.507152
C152	C	-0.082429	-0.283313	-0.007152
C153	C	-0.504864	-0.815857	-0.490965
C154	C	-0.004864	-0.315857	0.009035
H155	H	-0.610712	-0.774561	-0.466887
H156	H	-0.110712	-0.274561	0.033113
H157	H	-0.614444	-0.811449	-0.535972
H158	H	-0.114444	-0.311449	-0.035972
H159	H	-0.574743	-0.741844	-0.529574
H160	H	-0.074743	-0.241844	-0.029574
H161	H	-0.512552	-0.857328	-0.468552
H162	H	-0.012552	-0.357328	0.031448
H163	H	-0.472852	-0.787727	-0.462140
H164	H	0.027148	-0.287727	0.037860
O165	O	-0.506876	-0.872075	-1.094195
O166	O	-0.006876	-0.372075	-0.594195
C167	C	-0.589978	-0.883397	-1.080278
C168	C	-0.089978	-0.383397	-0.580278
H169	H	-0.594239	-0.937285	-1.060978
H170	H	-0.094239	-0.437285	-0.560978
H171	H	-0.611729	-0.846189	-1.040161
H172	H	-0.111729	-0.346189	-0.540161
C173	C	-0.640383	-0.807048	-1.169047
C174	C	-0.140383	-0.307048	-0.669047
C175	C	-0.645617	-0.873236	-1.145347
C176	C	-0.145617	-0.373236	-0.645347
H177	H	-0.674705	-0.800777	-1.209183
H178	H	-0.174705	-0.300777	-0.709183
H179	H	-0.584396	-0.799418	-1.178422
H180	H	-0.084396	-0.299418	-0.678422
H181	H	-0.658507	-0.776049	-1.135610
H182	H	-0.158507	-0.276049	-0.635610
H183	H	-0.627483	-0.904233	-1.178780
H184	H	-0.127483	-0.404233	-0.678780
H185	H	-0.701603	-0.880871	-1.135979
H186	H	-0.201603	-0.380871	-0.635979
O187	O	-0.880238	-1.025135	-0.279157
O188	O	-0.380238	-0.525135	0.220843
C189	C	-0.794078	-1.019296	-0.284977
C190	C	-0.294078	-0.519296	0.215023
H191	H	-0.782269	-0.997584	-0.336740
H192	H	-0.282269	-0.497584	0.163260
H193	H	-0.769370	-0.984256	-0.243842
H194	H	-0.269370	-0.484256	0.256158
C195	C	-0.763795	-1.116244	-0.213400
C196	C	-0.263795	-0.616244	0.286600
C197	C	-0.749291	-1.089583	-0.276979
C198	C	-0.249291	-0.589583	0.223021
H199	H	-0.736167	-1.159600	-0.208464
H200	H	-0.236167	-0.659600	0.291536
H201	H	-0.821843	-1.120177	-0.209477
H202	H	-0.321843	-0.620177	0.290523
H203	H	-0.743205	-1.087038	-0.179128
H204	H	-0.243205	-0.587038	0.320872
H205	H	-0.769891	-1.118785	-0.311249
H206	H	-0.269891	-0.618785	0.188751
H207	H	-0.691245	-1.085657	-0.280908
H208	H	-0.191245	-0.585657	0.219092
O209	O	-0.506719	-0.871975	-0.738526
O210	O	-0.006719	-0.371975	-0.238526
C211	C	-0.560630	-0.908280	-0.781565
C212	C	-0.060630	-0.408280	-0.281565
H213	H	-0.531288	-0.960799	-0.790924
H214	H	-0.031288	-0.460799	-0.290924
H215	H	-0.622415	-0.913134	-0.756828
H216	H	-0.122415	-0.413134	-0.256828
C217	C	-0.611731	-0.805930	-0.837854
C218	C	-0.111731	-0.305930	-0.337854
C219	C	-0.575689	-0.870433	-0.849354
C220	C	-0.075689	-0.370433	-0.349354
H221	H	-0.621024	-0.782583	-0.879669
H222	H	-0.121024	-0.282583	-0.379669
H223	H	-0.575413	-0.781469	-0.808857
H224	H	-0.075413	-0.281469	-0.308857
H225	H	-0.663214	-0.809984	-0.817239
H226	H	-0.163214	-0.309984	-0.317239
H227	H	-0.524202	-0.866378	-0.869962
H228	H	-0.024202	-0.366378	-0.369962
H229	H	-0.611999	-0.894892	-0.878357
H230	H	-0.111999	-0.394892	-0.378357
H231	H	-0.916953	-0.905226	-0.398951
H232	H	-0.416953	-0.405226	0.101049
H233	H	-0.304987	-1.044093	-0.596340
H234	H	0.195013	-0.544093	-0.096340
O235	O	-0.296573	-1.051316	-0.729681
O236	O	0.203427	-0.551316	-0.229681
C237	C	-0.249560	-1.091470	-0.681388
C238	C	0.250440	-0.591470	-0.181388
H239	H	-0.246634	-1.063848	-0.630903
H240	H	0.253366	-0.563848	-0.130903
H241	H	-0.280142	-1.141601	-0.675072
H242	H	0.219858	-0.641601	-0.175072
C243	C	-0.164443	-1.138850	-0.767373
C244	C	0.335557	-0.638850	-0.267373
C245	C	-0.160843	-1.104922	-0.705367
C246	C	0.339157	-0.604922	-0.205367
H247	H	-0.109719	-1.147151	-0.782164
H248	H	0.390281	-0.647151	-0.282164
H249	H	-0.196118	-1.111800	-0.799909
H250	H	0.303882	-0.611800	-0.299909
H251	H	-0.189932	-1.180622	-0.762101
H252	H	0.310068	-0.680622	-0.262101
H253	H	-0.135364	-1.063147	-0.710642
H254	H	0.364636	-0.563147	-0.210642
H255	H	-0.129161	-1.131965	-0.672832
H256	H	0.370839	-0.631965	-0.172832
O257	O	-0.296676	-1.051432	-0.946304
O258	O	0.203324	-0.551432	-0.446304
C259	C	-0.249657	-1.091602	-0.990717
C260	C	0.250343	-0.591602	-0.490717
H261	H	-0.283816	-1.092540	-1.042492
H262	H	0.216184	-0.592540	-0.542492
H263	H	-0.186313	-1.069458	-0.995679
H264	H	0.313687	-0.569458	-0.495679
C265	C	-0.195769	-1.162974	-0.898999
C266	C	0.304231	-0.662974	-0.398999
C267	C	-0.237726	-1.164131	-0.962589
C268	C	0.262274	-0.664131	-0.462589
H269	H	-0.188405	-1.207712	-0.881648
H270	H	0.311595	-0.707712	-0.381648
H271	H	-0.227444	-1.135910	-0.869076
H272	H	0.272556	-0.635910	-0.369076
H273	H	-0.142986	-1.144517	-0.903143
H274	H	0.357014	-0.644517	-0.403143
H275	H	-0.290511	-1.182579	-0.958443
H276	H	0.209489	-0.682579	-0.458443
H277	H	-0.206060	-1.191200	-0.992511
H278	H	0.293940	-0.691200	-0.492511
H279	H	-0.304759	-0.223856	-0.417131
H280	H	0.195241	0.276144	0.082869
H281	H	-0.498554	-0.699994	-0.268212
H282	H	0.001446	-0.199994	0.231788
O283	O	-0.296819	-1.051406	-1.085661
O284	O	0.203181	-0.551406	-0.585661
C285	C	-0.308246	-1.041673	-1.156102
C286	C	0.191754	-0.541673	-0.656102
H287	H	-0.372555	-1.016820	-1.168383
H288	H	0.127445	-0.516820	-0.668383
H289	H	-0.258750	-1.007711	-1.174189
H290	H	0.241250	-0.507711	-0.674189
C291	C	-0.221736	-1.141018	-1.176940
C292	C	0.278264	-0.641018	-0.676940
C293	C	-0.300723	-1.110497	-1.192025
C294	C	0.199277	-0.610497	-0.692025
H295	H	-0.217091	-1.183470	-1.199101
H296	H	0.282909	-0.683470	-0.699101
H297	H	-0.214034	-1.147574	-1.129483
H298	H	0.285966	-0.647574	-0.629483
H299	H	-0.180498	-1.112709	-1.192014
H300	H	0.319502	-0.612709	-0.692014
H301	H	-0.341958	-1.138801	-1.176944
H302	H	0.158042	-0.638801	-0.676944
H303	H	-0.308431	-1.103947	-1.239481
H304	H	0.191569	-0.603947	-0.739481
H305	H	-0.498557	-0.571761	-0.268220
H306	H	0.001443	-0.071761	0.231780
H307	H	-0.304745	-0.352091	-0.417117
H308	H	0.195255	0.147909	0.082883
H309	H	-0.498360	-0.879109	-0.960078
H310	H	0.001640	-0.379109	-0.460078
