data_functionalizedCrystal
_audit_creation_method	'MofGen! by Chris Wilmer'
_symmetry_space_group_name_H-M	'P1'
_symmetry_Int_Tables_number	1
_symmetry_cell_setting	triclinic
loop_
_symmetry_equiv_pos_as_xyz
  x,y,z
_cell_length_a	29.839134
_cell_length_b	12.645330
_cell_length_c	12.645323
_cell_angle_alpha	89.975130
_cell_angle_beta	89.967787
_cell_angle_gamma	90.012554
loop_
_atom_site_label
_atom_site_type_symbol
_atom_site_fract_x
_atom_site_fract_y
_atom_site_fract_z
Zn1	Zn	0.686839	-0.422176	-0.599716
Zn2	Zn	0.686789	-0.599464	-0.422456
Zn3	Zn	0.611708	-0.422199	-0.422431
Zn4	Zn	0.611701	-0.599382	-0.599642
O5	O	0.649259	-0.510805	-0.511061
O6	O	0.749700	-0.445718	-0.576244
O7	O	0.676812	-0.575994	-0.274105
O8	O	0.621699	-0.273849	-0.445969
O9	O	0.749663	-0.575971	-0.446011
O10	O	0.676897	-0.273832	-0.576219
O11	O	0.621650	-0.445758	-0.274087
O12	O	0.548840	-0.445678	-0.445897
O13	O	0.621686	-0.575831	-0.747999
O14	O	0.548835	-0.575854	-0.576093
O15	O	0.676890	-0.445639	-0.748054
O16	O	0.676804	-0.747801	-0.445940
O17	O	0.621637	-0.747740	-0.576117
C18	C	0.649227	-0.786235	-0.511046
C19	C	0.649254	-0.904065	-0.511075
C20	C	0.532537	-0.510760	-0.510985
C21	C	0.482602	-0.510767	-0.510977
C22	C	0.614691	-1.071635	-0.593223
C23	C	0.614514	-0.949076	-0.592959
C24	C	0.636436	-0.948657	-0.399348
C25	C	0.636225	-1.071255	-0.399847
C26	C	0.696845	-1.071165	-0.539749
C27	C	0.696553	-0.948558	-0.542192
C28	C	0.172965	-0.578688	-0.578771
C29	C	-0.014708	-0.578718	-0.578818
O30	O	-0.038967	-0.636417	-0.636414
N31	N	-0.038183	-0.510844	-0.511141
C32	C	-0.014737	-0.442953	-0.443452
O33	O	-0.039010	-0.385216	-0.385897
C34	C	0.172935	-0.442919	-0.443411
C35	C	0.196408	-0.510805	-0.511085
C36	C	0.196438	-0.646567	-0.646441
C37	C	0.243354	-0.646563	-0.646424
C38	C	0.266796	-0.578680	-0.578738
C39	C	0.243324	-0.510801	-0.511069
C40	C	0.196381	-0.375024	-0.375728
C41	C	0.243302	-0.375019	-0.375726
C42	C	0.266774	-0.442905	-0.443400
C43	C	0.313682	-0.442913	-0.443366
N44	N	0.337157	-0.510787	-0.511043
C45	C	0.313714	-0.578670	-0.578729
C46	C	-0.113267	-0.442978	-0.443477
C47	C	-0.160185	-0.442988	-0.443485
C48	C	-0.160153	-0.578751	-0.578854
C49	C	-0.113234	-0.578746	-0.578839
C50	C	-0.089792	-0.510851	-0.511154
C51	C	0.412240	-0.578657	-0.578689
C52	C	0.459160	-0.578650	-0.578663
C53	C	0.459123	-0.442883	-0.443300
C54	C	0.412208	-0.442894	-0.443321
C55	C	0.388767	-0.510784	-0.511024
O56	O	0.337970	-0.385236	-0.385809
O57	O	0.337996	-0.636383	-0.636293
C58	C	0.126050	-0.578692	-0.578788
C59	C	0.102577	-0.510813	-0.511118
C60	C	0.126020	-0.442930	-0.443432
C61	C	0.055659	-0.510823	-0.511127
C62	C	0.032217	-0.578706	-0.578813
C63	C	0.055692	-0.646580	-0.646491
C64	C	0.102607	-0.646576	-0.646474
C65	C	0.102545	-0.375056	-0.375755
C66	C	0.055629	-0.375066	-0.375776
C67	C	0.032187	-0.442950	-0.443462
C68	C	0.766438	-0.510851	-0.511139
C69	C	0.816372	-0.510871	-0.511172
C70	C	0.649292	-0.510723	-0.787567
C71	C	0.649307	-0.510689	-0.905397
C72	C	0.649304	-0.234300	-0.511099
C73	C	0.649324	-0.116470	-0.511116
C74	C	0.614471	-0.592207	-1.072927
C75	C	0.614562	-0.592610	-0.950367
C76	C	0.696643	-0.541017	-0.949935
C77	C	0.696452	-0.541528	-1.072533
C78	C	0.637254	-0.398386	-1.072590
C79	C	0.636197	-0.399059	-0.949983
C80	C	0.649252	-0.510811	-0.235631
C81	C	0.649325	-0.510547	-0.117802
H82	H	0.622534	-0.918924	-0.675803
H83	H	0.622637	-1.101049	-0.676339
H84	H	-0.179293	-0.387719	-0.388368
C85	C	0.731703	-1.110340	-0.458965
N86	N	0.757955	-1.139854	-0.398116
C87	C	-0.087487	-0.368290	-0.369006
N88	N	-0.068072	-0.312039	-0.312910
H89	H	0.603337	-0.370743	-1.103481
C90	C	0.589294	-1.110008	-0.367088
N91	N	0.553944	-1.139192	-0.342417
C92	C	0.484977	-0.653332	-0.653114
N93	N	0.504421	-0.709579	-0.709191
H94	H	-0.179248	-0.634024	-0.633967
C95	C	0.732669	-0.463215	-0.910584
N96	N	0.759803	-0.404613	-0.880941
H97	H	0.262461	-0.701841	-0.701534
C98	C	0.386387	-0.368225	-0.368868
N99	N	0.366942	-0.311976	-0.312796
C100	C	0.667981	-0.312512	-0.908609
N101	N	0.691922	-0.247326	-0.877438
H102	H	0.579681	-1.102529	-0.574494
C103	C	0.625135	-0.703841	-1.114549
N104	N	0.633171	-0.787924	-1.145895
C105	C	0.625320	-0.704947	-0.910764
N106	N	0.633414	-0.789568	-0.880937
H107	H	0.177356	-0.701847	-0.701565
H108	H	0.036597	-0.701856	-0.701600
H109	H	0.579460	-0.573630	-0.920251
C110	C	0.566912	-0.909566	-0.567407
N111	N	0.531054	-0.879809	-0.548186
H112	H	0.660861	-0.919503	-0.336500
C113	C	0.386462	-0.653348	-0.653158
N114	N	0.367047	-0.709612	-0.709242
C115	C	-0.087419	-0.653418	-0.653291
N116	N	-0.067976	-0.709663	-0.709374
C117	C	0.128421	-0.721252	-0.720925
N118	N	0.147861	-0.777501	-0.777008
H119	H	0.177277	-0.319747	-0.320617
H120	H	0.579265	-0.573409	-1.102386
H121	H	0.602060	-0.918038	-0.374656
H122	H	0.707050	-0.622150	-0.919251
H123	H	0.601362	-0.376187	-0.920870
H124	H	0.262386	-0.319724	-0.320614
C125	C	0.484919	-0.368203	-0.368861
N126	N	0.504350	-0.311943	-0.312803
C127	C	0.671550	-0.316195	-1.111796
N128	N	0.697384	-0.254297	-1.141329
H129	H	0.708537	-1.102011	-0.619837
C130	C	0.668818	-1.111330	-0.314372
N131	N	0.693365	-1.141510	-0.249987
H132	H	0.706684	-0.623520	-1.101148
H133	H	0.706219	-0.919409	-0.624417
H134	H	0.723715	-0.917913	-0.486746
H135	H	0.036522	-0.319787	-0.320658
C136	C	0.732731	-0.464686	-1.112645
N137	N	0.760059	-0.406816	-1.142852
C138	C	0.128325	-0.300379	-0.301286
N139	N	0.147741	-0.244133	-0.245186
