data_functionalizedCrystal
_audit_creation_method	'MofGen! by Chris Wilmer'
_symmetry_space_group_name_H-M	'P1'
_symmetry_Int_Tables_number	1
_symmetry_cell_setting	triclinic
loop_
_symmetry_equiv_pos_as_xyz
  x,y,z
_cell_length_a	27.440280
_cell_length_b	23.196402
_cell_length_c	23.196402
_cell_angle_alpha	90.003744
_cell_angle_beta	60.005820
_cell_angle_gamma	60.002021
loop_
_atom_site_label
_atom_site_type_symbol
_atom_site_fract_x
_atom_site_fract_y
_atom_site_fract_z
Zr1	Zr	0.533396	-0.075665	0.555437
O2	O	0.635055	-0.167711	0.463394
O3	O	0.431735	-0.047449	0.583642
O4	O	0.533395	-0.167716	0.583647
O5	O	0.533396	0.047426	0.463397
O6	O	0.533396	-0.167720	0.678517
O7	O	0.533395	-0.047444	0.463389
O8	O	0.351545	0.047416	0.678508
O9	O	0.715248	-0.167710	0.463407
O10	O	0.473551	-0.035417	0.666485
O11	O	0.473551	0.035386	0.595690
O12	O	0.593243	-0.106213	0.595696
O13	O	0.593243	-0.035410	0.524902
Zr14	Zr	0.533400	0.075636	0.706756
Zr15	Zr	0.533398	-0.075670	0.706743
Zr16	Zr	0.533398	0.075641	0.555450
Zr17	Zr	0.661294	-0.075663	0.555456
Zr18	Zr	0.405502	0.075634	0.706737
O19	O	0.635061	0.047420	0.678551
O20	O	0.635058	-0.167718	0.678533
O21	O	0.635058	0.047428	0.463413
O22	O	0.431741	0.167682	0.798799
O23	O	0.431738	-0.047457	0.798780
O24	O	0.431738	0.167689	0.583660
O25	O	0.533400	-0.047455	0.798796
O26	O	0.533401	0.167687	0.678546
O27	O	0.533400	0.167691	0.583676
O28	O	0.533401	0.047415	0.798804
O29	O	0.715249	-0.167714	0.583675
O30	O	0.351547	0.167685	0.678518
O31	O	0.351548	0.167681	0.798786
O32	O	0.351547	0.047412	0.798776
O33	O	0.715249	-0.047441	0.463417
O34	O	0.715251	-0.047445	0.583685
O35	O	0.473553	0.106184	0.666497
O36	O	0.473553	0.035381	0.737291
O37	O	0.593245	-0.035415	0.666503
O38	O	0.593245	0.035388	0.595708
C39	C	0.373417	-0.000017	0.631072
C40	C	0.319122	-0.000018	0.631064
C41	C	0.533396	-0.000008	0.441835
C42	C	0.533395	-0.000006	0.377601
C43	C	0.533400	0.189247	0.631113
C44	C	0.533401	0.253481	0.631118
C45	C	-0.017620	-0.036967	0.668070
C46	C	-0.068644	-0.036965	0.668076
O47	O	-0.095050	-0.068375	0.699526
N48	N	-0.094160	-0.000008	0.631122
C49	C	-0.068655	0.036955	0.594164
O50	O	-0.095044	0.068391	0.562733
C51	C	-0.017636	0.036957	0.594163
C52	C	0.007883	-0.000008	0.631114
C53	C	0.007898	-0.073928	0.705019
C54	C	0.058919	-0.073931	0.705011
C55	C	0.084422	-0.036972	0.668055
C56	C	0.058904	-0.000011	0.631106
C57	C	0.007865	0.073924	0.557210
C58	C	0.058888	0.073923	0.557211
C59	C	0.084407	0.036958	0.594162
C60	C	0.135429	0.036945	0.594142
N61	N	0.160945	-0.000012	0.631096
C62	C	0.135442	-0.036971	0.668053
C63	C	-0.175800	0.036950	0.594172
C64	C	-0.226815	0.036944	0.594169
C65	C	-0.226802	-0.036975	0.668083
C66	C	-0.175782	-0.036973	0.668081
C67	C	-0.150284	-0.000007	0.631127
C68	C	0.242590	-0.036974	0.668034
C69	C	0.293618	-0.036976	0.668020
C70	C	0.293598	0.036946	0.594110
C71	C	0.242577	0.036945	0.594120
C72	C	0.217073	-0.000016	0.631087
O73	O	0.161865	0.068341	0.562711
O74	O	0.161831	-0.068393	0.699487
C75	C	0.693378	-0.000012	0.631121
C76	C	0.747674	-0.000012	0.631129
C77	C	0.533396	-0.189276	0.631080
C78	C	0.533395	-0.253510	0.631075
C79	C	0.595877	0.246701	0.594170
C80	C	0.595878	0.307055	0.594160
C81	C	0.533400	0.374189	0.631111
C82	C	0.470915	0.380966	0.668060
C83	C	0.470916	0.320612	0.668064
C84	C	0.485533	0.498123	0.693005
C85	C	0.485535	0.558475	0.693004
C86	C	0.533394	0.560343	0.631099
C87	C	0.581264	0.501845	0.569196
C88	C	0.581265	0.441491	0.569200
C89	C	0.533392	0.439637	0.631111
C90	C	0.595875	0.619004	0.594137
C91	C	0.595874	0.679360	0.594125
C92	C	0.470909	0.753271	0.668032
C93	C	0.470913	0.692915	0.668037
C94	C	0.533398	0.625783	0.631091
C95	C	0.470919	0.036942	0.384377
C96	C	0.470918	0.036945	0.324023
C97	C	0.533396	-0.000014	0.256893
C98	C	0.595881	-0.036963	0.250120
C99	C	0.595880	-0.036959	0.310474
C100	C	0.581263	-0.061923	0.132966
C101	C	0.581261	-0.061929	0.072615
C102	C	0.533402	-0.000025	0.070739
C103	C	0.485532	0.061885	0.129230
C104	C	0.485531	0.061889	0.189584
C105	C	0.533404	-0.000022	0.191445
C106	C	0.470920	0.036930	0.012074
C107	C	0.470922	0.036935	-0.048283
C108	C	0.595887	-0.036981	-0.122185
C109	C	0.595883	-0.036979	-0.061828
C110	C	0.533398	-0.000025	0.005299
C111	C	0.533400	-0.000021	0.820358
C112	C	0.533401	-0.000023	0.884592
C113	C	0.373420	-0.000023	0.820334
C114	C	0.319125	-0.000026	0.884559
C115	C	0.373420	0.189245	0.631088
C116	C	0.319125	0.253478	0.631085
C117	C	0.373422	0.189238	0.820350
C118	C	0.319128	0.253469	0.884580
C119	C	0.693374	-0.189267	0.441843
C120	C	0.747668	-0.253498	0.377613
C121	C	0.693376	-0.000006	0.441859
C122	C	0.747671	-0.000003	0.377634
C123	C	0.693376	-0.189274	0.631105
C124	C	0.747671	-0.253507	0.631108
C125	C	0.293626	-0.036990	0.877760
C126	C	0.242617	-0.037007	0.938100
C127	C	0.217104	-0.000056	1.005240
C128	C	0.242608	0.036909	1.012038
C129	C	0.293620	0.036921	0.951697
C130	C	0.293628	0.320604	0.668044
C131	C	0.242619	0.380963	0.668039
C132	C	0.217105	0.374195	0.631078
C133	C	0.242606	0.307061	0.594115
C134	C	0.293618	0.246703	0.594117
C135	C	0.293631	0.246674	0.951704
C136	C	0.242623	0.307019	1.012061
C137	C	0.217109	0.374159	1.005294
C138	C	0.242612	0.380953	0.938163
C139	C	0.293622	0.320608	0.877807
C140	C	0.773171	-0.246703	0.310489
C141	C	0.824195	-0.307049	0.250132
C142	C	0.849711	-0.374189	0.256899
C143	C	0.824206	-0.380982	0.324030
C144	C	0.773186	-0.320637	0.384386
C145	C	0.773175	0.036954	0.384433
C146	C	0.824198	0.036955	0.324093
C147	C	0.849713	0.000002	0.256953
C148	C	0.824207	-0.036960	0.250155
C149	C	0.773188	-0.036964	0.310495
C150	C	0.773170	-0.246715	0.668075
C151	C	0.824179	-0.307063	0.668092
C152	C	0.849692	-0.374202	0.631136
C153	C	0.824188	-0.380992	0.594167
C154	C	0.773177	-0.320644	0.594155
H155	H	0.314395	-0.067080	0.698110
H156	H	0.221864	0.301475	1.066717
H157	H	0.646757	-0.067045	0.304952
H158	H	0.620241	0.393864	0.518796
O159	O	0.167482	0.000063	1.063902
C160	C	0.108452	0.069987	1.104326
H161	H	0.123852	0.108129	1.091147
H162	H	0.083752	0.076981	1.162869
H163	H	0.070018	0.081394	1.091650
O164	O	0.849053	-0.072961	0.184950
C165	C	0.878550	-0.145104	0.177198
H166	H	0.893865	-0.158204	0.215413
H167	H	0.926189	-0.178522	0.120745
H168	H	0.839450	-0.156922	0.189166
H169	H	0.314397	0.326129	0.698142
H170	H	0.646751	-0.067055	0.195459
H171	H	0.221828	0.066993	1.066710
O172	O	0.627804	0.503533	0.508995
C173	C	0.670029	0.438976	0.454354
H174	H	0.669977	0.395996	0.478157
H175	H	0.724886	0.423978	0.419703
H176	H	0.649369	0.444750	0.421017
H177	H	0.221859	-0.067108	0.932551
O178	O	0.848863	-0.300314	0.184980
C179	C	0.815403	-0.228113	0.191956
H180	H	0.763696	-0.195944	0.245811
H181	H	0.806605	-0.219695	0.148675
H182	H	0.848849	-0.210317	0.187024
H183	H	0.752421	-0.326184	0.564049
H184	H	0.314374	0.067026	0.957243
O185	O	0.217903	0.446118	0.704014
C186	C	0.251371	0.439142	0.736627
H187	H	0.272386	0.385281	0.743936
H188	H	0.213105	0.482419	0.790314
H189	H	0.295684	0.444084	0.702005
H190	H	0.752422	-0.326178	0.439040
H191	H	0.752424	-0.067057	0.304949
O192	O	0.318466	0.181406	0.958163
C193	C	0.368972	0.129590	0.890503
H194	H	0.360591	0.153107	0.850499
H195	H	0.364831	0.083048	0.891171
H196	H	0.422332	0.110716	0.875129
H197	H	0.891229	-0.423334	0.631151
H198	H	0.752405	0.067051	0.439096
O199	O	0.656613	0.300388	0.558168
C200	C	0.694625	0.263167	0.486026
H201	H	0.676868	0.229846	0.479971
H202	H	0.751782	0.227301	0.463398
H203	H	0.685965	0.302253	0.456374
O204	O	0.167533	0.432703	1.064000
C205	C	0.150515	0.412299	1.124693
H206	H	0.164578	0.356589	1.110824
H207	H	0.092856	0.450418	1.167316
H208	H	0.180348	0.413392	1.145018
H209	H	0.175568	0.423348	0.631083
H210	H	0.221824	0.301560	0.564023
H211	H	0.752405	-0.192053	0.698169
H212	H	0.314398	-0.067089	0.823097
O213	O	0.627735	-0.122133	0.015881
C214	C	0.618694	-0.175266	0.035967
H215	H	0.592362	-0.162819	0.095360
H216	H	0.671065	-0.228415	0.007062
H217	H	0.585346	-0.177529	0.021722
O218	O	0.899360	-0.000113	0.198323
C219	C	0.958377	-0.070041	0.157880
H220	H	0.958310	-0.104104	0.193303
H221	H	1.006592	-0.070778	0.133453
H222	H	0.957953	-0.091784	0.114179
O223	O	0.318279	0.181551	0.558209
C224	C	0.284826	0.188529	0.525578
H225	H	0.233125	0.242392	0.554564
H226	H	0.276017	0.145255	0.527567
H227	H	0.318283	0.183581	0.468217
H228	H	0.646754	0.564342	0.564050
H229	H	-0.247580	0.067036	0.564071
O230	O	0.217834	-0.072932	0.703837
C231	C	0.230306	-0.124813	0.656395
H232	H	0.236640	-0.109275	0.607759
H233	H	0.184995	-0.129294	0.683212
H234	H	0.279367	-0.177820	0.639852
O235	O	0.848866	0.072929	0.330831
C236	C	0.815407	0.105534	0.403030
H237	H	0.763701	0.112842	0.435195
H238	H	0.806608	0.159224	0.411451
H239	H	0.848855	0.070905	0.420827
H240	H	0.221831	0.435626	0.932663
H241	H	0.844939	-0.301521	0.698195
O242	O	0.410206	0.699532	0.704047
C243	C	0.372188	0.736782	0.776182
H244	H	0.408745	0.731758	0.789269
H245	H	0.343850	0.713853	0.809613
H246	H	0.333227	0.794856	0.787995
O247	O	0.439122	0.496210	0.753130
C248	C	0.474398	0.440448	0.772338
H249	H	0.528674	0.399287	0.723758
H250	H	0.445545	0.415081	0.795071
H251	H	0.477499	0.461885	0.813717
H252	H	0.646751	0.673834	0.564033
O253	O	0.848846	-0.446185	0.330643
C254	C	0.794375	-0.453885	0.367807
H255	H	0.743364	-0.399546	0.401170
H256	H	0.802066	-0.485718	0.403625
H257	H	0.793647	-0.482619	0.328681
O258	O	0.848969	-0.446250	0.558370
C259	C	0.836490	-0.483367	0.605816
H260	H	0.830121	-0.460306	0.654468
H261	H	0.881814	-0.541444	0.579015
H262	H	0.787447	-0.478366	0.622330
O263	O	0.083602	-0.109844	0.740974
C264	C	0.050153	-0.142473	0.773576
H265	H	-0.001557	-0.113482	0.780888
H266	H	0.041362	-0.140484	0.827261
H267	H	0.083604	-0.199835	0.738945
H268	H	0.314375	0.326150	0.823154
H269	H	0.646758	-0.067074	-0.176842
H270	H	0.752399	-0.192039	0.304965
H271	H	0.420041	0.067033	0.329540
H272	H	-0.012864	-0.104024	0.735116
H273	H	0.891254	-0.423320	0.207748
H274	H	-0.155009	-0.067073	0.698170
H275	H	-0.247577	-0.067068	0.698176
H276	H	0.314374	0.067034	0.564019
O277	O	-0.151079	0.072863	0.558201
C278	C	-0.184557	0.105491	0.525602
H279	H	-0.205583	0.076501	0.518294
H280	H	-0.146295	0.103502	0.471915
H281	H	-0.228863	0.162854	0.560234
H282	H	0.079647	0.104025	0.527117
O283	O	-0.016944	0.109925	0.521373
C284	C	-0.046420	0.182063	0.548510
H285	H	-0.061773	0.195173	0.604856
H286	H	-0.094032	0.215494	0.548364
H287	H	-0.007292	0.193854	0.514254
O288	O	0.217640	0.073013	0.558395
C289	C	0.188137	0.145140	0.585636
H290	H	0.172944	0.158129	0.641925
H291	H	0.140420	0.178605	0.585670
H292	H	0.227187	0.157012	0.551342
O293	O	0.656618	0.181530	0.558326
C294	C	0.694620	0.173798	0.585517
H295	H	0.676849	0.228130	0.612581
H296	H	0.751777	0.142059	0.540544
H297	H	0.685963	0.144953	0.625410
O298	O	0.410258	0.818513	0.703816
C299	C	0.406516	0.855612	0.656356
H300	H	0.460766	0.832569	0.607723
H301	H	0.380063	0.913700	0.683156
H302	H	0.375695	0.850569	0.639811
O303	O	0.438971	0.615245	0.753186
C304	C	0.396733	0.600654	0.807827
H305	H	0.396819	0.557578	0.784023
H306	H	0.341868	0.650544	0.842442
H307	H	0.417355	0.582041	0.841201
H308	H	0.420039	0.326138	0.698151
O309	O	0.410205	0.446161	0.703864
C310	C	0.372190	0.453882	0.676696
H311	H	0.408749	0.415665	0.620367
H312	H	0.343847	0.510335	0.676787
H313	H	0.333233	0.441892	0.710963
O314	O	0.410285	0.072785	0.449635
C315	C	0.423677	0.064885	0.501455
H316	H	0.477372	0.014971	0.477946
H317	H	0.383771	0.060658	0.547994
H318	H	0.420719	0.112638	0.520329
O319	O	0.439012	0.122093	0.246323
C320	C	0.396755	0.176730	0.231741
H321	H	0.424730	0.164237	0.172172
H322	H	0.384674	0.228699	0.256327
H323	H	0.346691	0.181436	0.254933
H324	H	0.446549	0.112289	0.127713
H325	H	0.646758	-0.067071	-0.067349
H326	H	0.420041	0.067035	0.066733
H327	H	0.620247	-0.112333	0.134479
O328	O	0.410168	0.072840	-0.041575
C329	C	0.355021	0.105468	0.030616
H330	H	0.373339	0.076482	0.062804
H331	H	0.311327	0.103471	0.039017
H332	H	0.335805	0.162832	0.048402
