data_functionalizedCrystal
_audit_creation_method	'MofGen! by Chris Wilmer'
_symmetry_space_group_name_H-M	'P1'
_symmetry_Int_Tables_number	1
_symmetry_cell_setting	triclinic
loop_
_symmetry_equiv_pos_as_xyz
  x,y,z
_cell_length_a	16.120530
_cell_length_b	18.101397
_cell_length_c	16.120297
_cell_angle_alpha	87.130973
_cell_angle_beta	89.871860
_cell_angle_gamma	87.115827
loop_
_atom_site_label
_atom_site_type_symbol
_atom_site_fract_x
_atom_site_fract_y
_atom_site_fract_z
Zn1	Zn	1.247464	-0.375192	0.534538
Zn2	Zn	1.747464	0.124808	1.034538
Zn3	Zn	1.254422	-0.493085	0.395472
Zn4	Zn	1.754422	0.006915	0.895472
Zn5	Zn	1.115454	-0.362678	0.388457
Zn6	Zn	1.615454	0.137322	0.888457
Zn7	Zn	1.108379	-0.492403	0.527442
Zn8	Zn	1.608379	0.007597	1.027442
O9	O	1.181430	-0.430840	0.461477
O10	O	1.681430	0.069160	0.961477
O11	O	1.364754	-0.396354	0.521997
O12	O	1.864754	0.103646	1.021997
O13	O	1.241861	-0.470835	0.278177
O14	O	1.741861	0.029165	0.778177
O15	O	1.133014	-0.260709	0.407869
O16	O	1.633014	0.239291	0.907869
O17	O	1.369866	-0.482969	0.419826
O18	O	1.869866	0.017031	0.919826
O19	O	1.230001	-0.269903	0.515194
O20	O	1.730001	0.230097	1.015194
O21	O	1.139761	-0.375025	0.273023
O22	O	1.639761	0.124975	0.773023
O23	O	0.998148	-0.374364	0.400988
O24	O	1.498148	0.125636	0.900988
O25	O	1.120956	-0.481807	0.644748
O26	O	1.620956	0.018193	1.144748
O27	O	0.992950	-0.469672	0.503099
O28	O	1.492950	0.030328	1.003099
O29	O	1.223141	-0.395692	0.649962
O30	O	1.723141	0.104308	1.149962
O31	O	1.235000	-0.596624	0.412944
O32	O	1.735000	-0.096624	0.912944
O33	O	1.127703	-0.596123	0.509902
O34	O	1.627703	-0.096123	1.009902
C35	C	0.965377	-0.420587	0.450513
C36	C	1.465377	0.079413	0.950513
C37	C	0.872948	-0.416219	0.445842
C38	C	1.372948	0.083781	0.945842
C39	C	0.703717	-0.408228	0.437321
C40	C	1.203717	0.091772	0.937321
C41	C	0.659979	-0.453509	0.485695
C42	C	1.159979	0.046491	0.985695
C43	C	0.565814	-0.449063	0.480954
C44	C	1.065814	0.050937	0.980954
C45	C	0.797891	-0.412673	0.442061
C46	C	1.297891	0.087327	0.942061
C47	C	1.181360	-0.623245	0.461434
C48	C	1.681360	-0.123245	0.961434
C49	C	1.181406	-0.705562	0.461446
C50	C	1.681406	-0.205562	0.961446
C51	C	1.181508	-1.004661	0.461528
C52	C	1.681508	-0.504661	0.961528
C53	C	1.248846	-0.973605	0.400344
C54	C	1.748846	-0.473605	0.900344
C55	C	1.249060	-0.888004	0.400522
C56	C	1.749060	-0.388004	0.900522
C57	C	1.181457	-0.856275	0.461487
C58	C	1.681457	-0.356275	0.961487
C59	C	1.200770	-0.892157	0.550340
C60	C	1.700770	-0.392157	1.050340
C61	C	1.201283	-0.977810	0.550014
C62	C	1.701283	-0.477810	1.050014
C63	C	1.094648	-0.968039	0.434609
C64	C	1.594648	-0.468039	0.934609
C65	C	1.095182	-0.882327	0.432674
C66	C	1.595182	-0.382327	0.932674
C67	C	1.181427	-0.772413	0.461469
C68	C	1.681427	-0.272413	0.961469
C69	C	1.181540	-1.088523	0.461552
C70	C	1.681540	-0.588523	0.961552
C71	C	1.398326	-0.441134	0.472485
C72	C	1.898326	0.058866	0.972485
C73	C	1.490754	-0.445520	0.477176
C74	C	1.990754	0.054480	0.977176
C75	C	1.170483	-0.440070	0.678371
C76	C	1.670483	0.059930	1.178371
C77	C	1.165818	-0.444003	0.770798
C78	C	1.665818	0.055997	1.270798
C79	C	1.181521	-0.237685	0.461541
C80	C	1.681521	0.262315	0.961541
C81	C	1.181560	-0.155374	0.461568
C82	C	1.681560	0.344626	0.961568
C83	C	1.192381	-0.421595	0.245430
C84	C	1.692381	0.078405	0.745430
C85	C	1.197207	-0.417461	0.153012
C86	C	1.697207	0.082539	0.653012
C87	C	1.157271	-0.451166	0.940022
C88	C	1.657271	0.048834	1.440022
C89	C	1.205752	-0.410300	0.983793
C90	C	1.705752	0.089700	1.483793
C91	C	1.200996	-0.414285	1.077955
C92	C	1.700996	0.085715	1.577955
C93	C	1.162026	-0.447181	0.845851
C94	C	1.662026	0.052819	1.345851
H95	H	1.237492	-0.863558	0.334778
H96	H	1.737492	-0.363558	0.834778
C97	C	1.336094	-0.865274	0.425066
C98	C	1.836094	-0.365274	0.925066
H99	H	1.336525	-0.812819	0.425252
H100	H	1.836525	-0.312819	0.925252
H101	H	1.349683	-0.886019	0.478911
H102	H	1.849683	-0.386019	0.978911
H103	H	1.375774	-0.882952	0.386165
H104	H	1.875774	-0.382952	0.886165
C105	C	1.285398	-0.868351	0.580808
C106	C	1.785398	-0.368351	1.080808
H107	H	1.296538	-0.890363	0.634625
H108	H	1.796538	-0.390363	1.134625
H109	H	1.327705	-0.884049	0.543550
H110	H	1.827705	-0.384049	1.043550
H111	H	1.284163	-0.815962	0.583048
H112	H	1.784163	-0.315962	1.083048
H113	H	0.670445	-0.366126	0.392350
H114	H	1.170445	0.133874	0.892350
H115	H	1.237468	-0.990763	0.334414
H116	H	1.737468	-0.490763	0.834414
C117	C	1.266654	-0.358997	0.938888
C118	C	1.766654	0.141003	1.438888
H119	H	1.261908	-0.363020	0.880574
H120	H	1.761908	0.136980	1.380574
H121	H	1.253814	-0.309250	0.952460
H122	H	1.753814	0.190750	1.452460
H123	H	1.321819	-0.373087	0.955917
H124	H	1.821819	0.126913	1.455917
C125	C	0.704926	-0.510410	0.546428
C126	C	1.204926	-0.010410	1.046428
H127	H	0.763238	-0.505984	0.541675
H128	H	1.263238	-0.005984	1.041675
H129	H	0.687951	-0.501395	0.601631
H130	H	1.187951	-0.001395	1.101631
H131	H	0.691330	-0.558966	0.533427
H132	H	1.191330	-0.058966	1.033427
C133	C	1.335420	-1.007594	0.424627
C134	C	1.835420	-0.507594	0.924627
H135	H	1.330706	-1.040627	0.471893
H136	H	1.830706	-0.540627	0.971893
H137	H	1.358210	-1.033863	0.379656
H138	H	1.858210	-0.533863	0.879656
H139	H	1.370752	-0.969255	0.437333
H140	H	1.870752	-0.469255	0.937333
H141	H	1.264642	-1.001591	0.572299
H142	H	1.764642	-0.501591	1.072299
C143	C	1.137590	-1.005827	0.614029
C144	C	1.637590	-0.505827	1.114029
H145	H	1.111521	-0.964859	0.640124
H146	H	1.611521	-0.464859	1.140124
H147	H	1.096841	-1.031967	0.586739
H148	H	1.596841	-0.531967	1.086739
H149	H	1.165129	-1.037930	0.654735
H150	H	1.665129	-0.537930	1.154735
H151	H	1.153030	-0.871763	0.597344
H152	H	1.653030	-0.371763	1.097344
H153	H	1.076220	-0.985989	0.370708
H154	H	1.576220	-0.485989	0.870708
H155	H	1.080539	-0.858460	0.367264
H156	H	1.580539	-0.358460	0.867264
H157	H	1.042670	-0.860418	0.473617
H158	H	1.542670	-0.360418	0.973617
H159	H	1.044530	-0.988050	0.479117
H160	H	1.544530	-0.488050	0.979117
H161	H	1.112198	-0.489143	0.973265
H162	H	1.612198	0.010857	1.473265
