data_functionalizedCrystal
_audit_creation_method	'MofGen! by Chris Wilmer'
_symmetry_space_group_name_H-M	'P1'
_symmetry_Int_Tables_number	1
_symmetry_cell_setting	triclinic
loop_
_symmetry_equiv_pos_as_xyz
  x,y,z
_cell_length_a	13.033855
_cell_length_b	13.033652
_cell_length_c	13.032268
_cell_angle_alpha	76.703346
_cell_angle_beta	90.869374
_cell_angle_gamma	89.087754
loop_
_atom_site_label
_atom_site_type_symbol
_atom_site_fract_x
_atom_site_fract_y
_atom_site_fract_z
Zn1	Zn	-0.259744	-1.585258	-0.356881
Zn2	Zn	0.240256	-1.085258	0.143119
Zn3	Zn	-0.403782	-1.628684	-0.158360
Zn4	Zn	0.096218	-1.128684	0.341640
Zn5	Zn	-0.259811	-1.430221	-0.201807
Zn6	Zn	0.240189	-0.930221	0.298193
Zn7	Zn	-0.452745	-1.435732	-0.351304
Zn8	Zn	0.047255	-0.935732	0.148696
O9	O	-0.344020	-1.519974	-0.267088
O10	O	0.155980	-1.019974	0.232912
O11	O	-0.258332	-1.736654	-0.314698
O12	O	0.241668	-1.236654	0.185302
O13	O	-0.364221	-1.618225	-0.018478
O14	O	0.135779	-1.118225	0.481522
O15	O	-0.118778	-1.430307	-0.242895
O16	O	0.381222	-0.930307	0.257105
O17	O	-0.364156	-1.768559	-0.168846
O18	O	0.135844	-1.268559	0.331154
O19	O	-0.118729	-1.544212	-0.356826
O20	O	0.381271	-1.044212	0.143174
O21	O	-0.258446	-1.472415	-0.050398
O22	O	0.241554	-0.972415	0.449602
O23	O	-0.305923	-1.285317	-0.237487
O24	O	0.194077	-0.785317	0.262513
O25	O	-0.447606	-1.439699	-0.497690
O26	O	0.052394	-0.939699	0.002310
O27	O	-0.447671	-1.289366	-0.347322
O28	O	0.052329	-0.789366	0.152678
O29	O	-0.305809	-1.549556	-0.501787
O30	O	0.194191	-1.049556	-0.001787
O31	O	-0.551301	-1.623569	-0.163438
O32	O	-0.051301	-1.123569	0.336562
O33	O	-0.587274	-1.481807	-0.305193
O34	O	-0.087274	-0.981807	0.194807
C35	C	-0.382118	-1.249580	-0.296514
C36	C	0.117882	-0.749580	0.203486
C37	C	-0.398444	-1.133905	-0.309124
C38	C	0.101556	-0.633905	0.190876
C39	C	-0.335512	-1.080278	-0.260517
C40	C	0.164488	-0.580278	0.239483
C41	C	-0.352384	-0.960722	-0.273549
C42	C	0.147616	-0.460722	0.226451
C43	C	-0.605852	-1.558024	-0.229015
C44	C	-0.105852	-1.058024	0.270985
C45	C	-0.717856	-1.574393	-0.212752
C46	C	-0.217856	-1.074393	0.287248
C47	C	-0.785623	-1.511510	-0.275588
C48	C	-0.285623	-1.011510	0.224412
C49	C	-0.901386	-1.528427	-0.258781
C50	C	-0.401386	-1.028427	0.241219
C51	C	-0.081166	-1.481801	-0.305329
C52	C	0.418834	-0.981801	0.194671
C53	C	0.030848	-1.465534	-0.321625
C54	C	0.530848	-0.965534	0.178375
C55	C	-0.382162	-1.490398	-0.538559
C56	C	0.117838	-0.990398	-0.038559
C57	C	-0.398415	-1.477794	-0.654243
C58	C	0.101585	-0.977794	-0.154243
C59	C	-0.305766	-0.791423	-0.237541
C60	C	0.194234	-0.291423	0.262459
C61	C	-0.289442	-0.907098	-0.224935
C62	C	0.210558	-0.407098	0.275065
C63	C	-0.335504	-1.526530	-0.707846
C64	C	0.164496	-1.026530	-0.207846
C65	C	-0.352301	-1.513505	-0.827412
C66	C	0.147699	-1.013505	-0.327412
C67	C	-0.305946	-1.549484	0.003322
C68	C	0.194054	-1.049484	0.503322
C69	C	-0.289380	-1.562248	0.118987
C70	C	0.210620	-1.062248	0.618987
H71	H	-0.269145	-1.122878	-0.209251
H72	H	0.230855	-0.622878	0.290749
H73	H	-0.418761	-0.918128	-0.324811
H74	H	0.081239	-0.418128	0.175189
H75	H	-0.223070	-0.949692	-0.173666
H76	H	0.276930	-0.449692	0.326334
Cl77	Cl	-0.500922	-1.068146	-0.388265
Cl78	Cl	-0.000922	-0.568146	0.111735
H79	H	-0.418597	-1.462126	-0.870037
H80	H	0.081403	-0.962126	-0.370037
H81	H	-0.757941	-1.445144	-0.341824
H82	H	-0.257941	-0.945144	0.158176
H83	H	-0.941474	-1.399164	-0.387866
H84	H	-0.441474	-0.899164	0.112134
H85	H	-0.745541	-1.640752	-0.146511
H86	H	-0.245541	-1.140752	0.353489
H87	H	-0.223074	-1.613613	-0.838393
H88	H	0.276926	-1.113613	-0.338393
Cl89	Cl	-0.500771	-1.398478	-0.720048
Cl90	Cl	-0.000771	-0.898478	-0.220048
Cl91	Cl	-0.944114	-1.630887	-0.156499
Cl92	Cl	-0.444114	-1.130887	0.343501
Cl93	Cl	-0.233122	-1.605811	-0.642049
Cl94	Cl	0.266878	-1.105811	-0.142049
