data_functionalizedCrystal
_audit_creation_method	'MofGen! by Chris Wilmer'
_symmetry_space_group_name_H-M	'P1'
_symmetry_Int_Tables_number	1
_symmetry_cell_setting	triclinic
loop_
_symmetry_equiv_pos_as_xyz
  x,y,z
_cell_length_a	10.489716
_cell_length_b	23.532407
_cell_length_c	8.965430
_cell_angle_alpha	89.995773
_cell_angle_beta	89.996523
_cell_angle_gamma	83.688907
loop_
_atom_site_label
_atom_site_type_symbol
_atom_site_fract_x
_atom_site_fract_y
_atom_site_fract_z
O1	O	1.691403	0.080273	-0.124044
O2	O	1.319952	0.087830	-0.124052
O3	O	1.516879	0.001194	-0.124021
O4	O	1.494476	0.166909	-0.124076
O5	O	1.516862	0.001199	0.124058
O6	O	1.319935	0.087835	0.124027
O7	O	1.691386	0.080279	0.124034
Cu8	Cu	1.505659	0.084058	0.146682
Cu9	Cu	1.505679	0.084051	-0.146700
O10	O	1.494460	0.166915	0.124003
C11	C	1.272430	0.087265	-0.000013
C12	C	1.130856	0.085566	-0.000014
C13	C	1.031416	0.138694	-0.000036
C14	C	0.954995	0.110623	0.122296
C15	C	0.955018	0.110605	-0.122290
C16	C	1.056300	0.057517	0.122419
C17	C	1.056328	0.057507	-0.122278
C18	C	0.979958	0.029397	0.000084
C19	C	1.516300	-0.020023	0.000023
C20	C	1.514585	-0.083252	0.000034
C21	C	1.620364	-0.481658	-0.000046
C22	C	1.618771	-0.541069	-0.000057
O23	O	1.716829	-0.577167	-0.000110
N24	N	1.501698	-0.564466	-0.000058
C25	C	1.386211	-0.528449	-0.000063
O26	O	1.286485	-0.553806	-0.000067
C27	C	1.387806	-0.469040	-0.000062
C28	C	1.504886	-0.445646	-0.000046
C29	C	1.737435	-0.458263	-0.000031
C30	C	1.739028	-0.398857	-0.000017
C31	C	1.623549	-0.362845	-0.000017
C32	C	1.506479	-0.386239	-0.000032
C33	C	1.272320	-0.433024	-0.000078
C34	C	1.273925	-0.373611	-0.000079
C35	C	1.391005	-0.350217	-0.000062
C36	C	1.392593	-0.290820	-0.000018
N37	N	1.509666	-0.267423	-0.000017
C38	C	1.625144	-0.303435	-0.000017
C39	C	1.382871	-0.653214	-0.000067
C40	C	1.381275	-0.712622	-0.000057
C41	C	1.613835	-0.725238	-0.000054
C42	C	1.615430	-0.665828	-0.000053
C43	C	1.499944	-0.629816	-0.000066
C44	C	1.628480	-0.178676	0.000014
C45	C	1.630063	-0.119264	0.000035
C46	C	1.397503	-0.106654	0.000023
C47	C	1.395920	-0.166061	0.000011
C48	C	1.511419	-0.202071	0.000001
O49	O	1.294586	-0.254687	0.000029
O50	O	1.724854	-0.278070	-0.000033
C51	C	1.738908	0.080844	-0.000008
C52	C	1.880482	0.082543	-0.000016
C53	C	1.495039	0.188132	-0.000043
C54	C	1.496754	0.251360	-0.000064
N55	N	1.505655	0.084062	0.353031
N56	N	1.505694	0.084042	-0.353049
C57	C	1.414555	0.124115	0.450323
C58	C	1.529670	0.135633	0.549735
C59	C	1.390589	0.072549	0.549747
C60	C	1.620827	0.095606	0.450254
C61	C	1.481670	0.032499	0.450258
C62	C	1.596869	0.043996	0.549625
H63	H	0.910796	0.133041	-0.225697
H64	H	1.293263	0.062820	0.593454
H65	H	1.337585	0.158018	0.406722
H66	H	1.725408	-0.100220	0.000052
H67	H	1.722531	-0.207990	0.000001
H68	H	1.834366	-0.379815	-0.000010
H69	H	1.831476	-0.487579	-0.000036
H70	H	0.957065	-0.016850	0.000170
H71	H	1.100576	0.035094	-0.225688
H72	H	1.710767	-0.646785	-0.000041
H73	H	0.910760	0.133053	0.225702
H74	H	1.549983	0.179230	0.593429
H75	H	1.100354	0.035105	0.225942
H76	H	1.300584	-0.185109	0.000039
H77	H	1.718174	0.105388	0.406735
H78	H	1.179879	-0.344293	-0.000091
H79	H	1.707864	-0.754570	-0.000059
H80	H	1.288822	-0.623896	-0.000065
H81	H	1.285936	-0.731664	-0.000045
H82	H	1.674009	0.010114	0.592952
H83	H	1.176981	-0.452061	-0.000100
H84	H	1.303484	-0.077322	0.000028
H85	H	1.054549	0.184907	0.000063
H86	H	1.461321	-0.011084	0.406529
