data_functionalizedCrystal
_audit_creation_method	'MofGen! by Chris Wilmer'
_symmetry_space_group_name_H-M	'P1'
_symmetry_Int_Tables_number	1
_symmetry_cell_setting	triclinic
loop_
_symmetry_equiv_pos_as_xyz
  x,y,z
_cell_length_a	19.188930
_cell_length_b	17.666332
_cell_length_c	19.188924
_cell_angle_alpha	90.008552
_cell_angle_beta	83.143372
_cell_angle_gamma	90.023234
loop_
_atom_site_label
_atom_site_type_symbol
_atom_site_fract_x
_atom_site_fract_y
_atom_site_fract_z
O1	O	0.926147	0.063195	0.087169
O2	O	0.722836	0.063144	0.098903
O3	O	0.830361	0.063162	-0.008620
O4	O	0.818622	0.063177	0.194692
O5	O	0.830343	-0.062735	-0.008625
O6	O	0.722817	-0.062753	0.098898
O7	O	0.926129	-0.062702	0.087163
Cu8	Cu	0.824471	-0.074223	0.093030
Cu9	Cu	0.824493	0.074665	0.093037
O10	O	0.818603	-0.062720	0.194687
C11	C	0.696815	0.000189	0.098521
C12	C	0.619311	0.000169	0.097380
N13	N	0.824461	-0.178942	0.093025
C14	C	0.574386	0.000185	0.160471
C15	C	0.501562	0.000193	0.159399
C16	C	0.473667	0.000200	0.095233
C17	C	0.518602	0.000180	0.032134
C18	C	0.591424	0.000164	0.033207
N19	N	0.365694	0.043075	0.046188
N20	N	0.296516	0.043092	0.045172
C21	C	0.254258	0.000246	0.091995
N22	N	0.283791	-0.042607	0.139882
N23	N	0.352976	-0.042620	0.140899
C24	C	0.394704	0.000217	0.094062
C25	C	0.130368	0.000271	0.153928
C26	C	0.057543	0.000274	0.152854
C27	C	0.074585	0.000268	0.025586
C28	C	0.147409	0.000257	0.026663
C29	C	0.175295	0.000262	0.090835
C30	C	0.872088	-0.218544	0.045437
C31	C	0.872092	-0.297791	0.045433
C32	C	0.824475	-0.337434	0.093030
C33	C	0.776839	-0.297823	0.140622
C34	C	0.776831	-0.218577	0.140619
N35	N	0.815398	-0.461850	0.154838
N36	N	0.815409	-0.537130	0.154838
C37	C	0.824494	-0.576198	0.093040
N38	N	0.833581	-0.537142	0.031239
N39	N	0.833573	-0.461855	0.031240
C40	C	0.824478	-0.423363	0.093038
C41	C	0.872128	-0.701729	0.045444
C42	C	0.872128	-0.780978	0.045440
C43	C	0.776878	-0.781009	0.140634
C44	C	0.776875	-0.701761	0.140633
C45	C	0.824504	-0.662126	0.093038
C46	C	0.952149	0.000255	0.087546
C47	C	1.029654	0.000280	0.088687
C48	C	0.829973	0.000213	-0.034634
C49	C	0.828834	0.000210	-0.112138
N50	N	0.824509	0.179384	0.093036
C51	C	0.828313	0.068837	-0.148534
C52	C	0.827233	0.068842	-0.221357
C53	C	0.826688	0.000217	-0.257783
C54	C	0.827205	-0.068418	-0.221378
C55	C	0.828278	-0.068421	-0.148556
N56	N	0.864728	-0.050849	-0.377448
N57	N	0.863710	-0.050841	-0.446627
C58	C	0.823454	0.000224	-0.477192
N59	N	0.784262	0.051292	-0.435967
N60	N	0.785283	0.051286	-0.366783
C61	C	0.825524	0.000214	-0.336746
C62	C	0.821761	0.068861	-0.592550
C63	C	0.820676	0.068864	-0.665374
C64	C	0.820656	-0.068399	-0.665394
C65	C	0.821734	-0.068399	-0.592571
C66	C	0.822289	0.000233	-0.556154
C67	C	0.818992	0.000231	0.220700
C68	C	0.820131	0.000238	0.298205
H69	H	0.597086	0.000191	0.212725
O70	O	0.826816	0.135467	-0.256800
C71	C	0.886659	0.139609	-0.307006
H72	H	0.906644	0.080031	-0.320635
H73	H	0.872311	0.168665	-0.356383
H74	H	0.929412	0.173479	-0.284598
O75	O	0.458010	0.000250	0.220753
C76	C	0.498240	0.000231	0.277622
H77	H	0.552664	0.024046	0.259734
H78	H	0.471261	0.036799	0.321810
H79	H	0.503325	-0.060166	0.297309
O80	O	0.820217	-0.135106	-0.700711
C81	C	0.880934	-0.176844	-0.691043
H82	H	0.901878	-0.157339	-0.640864
H83	H	0.867359	-0.239629	-0.686748
H84	H	0.922662	-0.167315	-0.737696
H85	H	0.051874	0.000321	-0.026659
O86	O	0.822156	-0.135113	-0.557279
C87	C	0.761426	-0.176873	-0.566971
H88	H	0.740491	-0.157362	-0.617141
H89	H	0.774980	-0.239652	-0.571296
H90	H	0.719699	-0.167376	-0.520315
O91	O	0.918328	-0.336192	-0.000891
C92	C	0.907186	-0.316868	-0.069984
H93	H	0.880276	-0.259341	-0.069839
H94	H	0.959774	-0.314145	-0.104498
H95	H	0.872501	-0.361490	-0.091485
O96	O	0.826649	-0.135148	-0.256647
C97	C	0.827358	-0.195723	-0.208905
H98	H	0.806025	-0.175612	-0.154034
H99	H	0.793151	-0.243728	-0.225418
H100	H	0.883469	-0.216812	-0.208659
H101	H	0.738047	-0.186333	0.179372
O102	O	0.918319	-0.663231	-0.000867
C103	C	0.907223	-0.682591	-0.069972
H104	H	0.851337	-0.704420	-0.070202
H105	H	0.915354	-0.630455	-0.105005
H106	H	0.946006	-0.728550	-0.090590
H107	H	0.183988	0.000248	-0.024713
O108	O	0.828665	-0.135068	-0.113149
C109	C	0.768841	-0.139181	-0.062917
H110	H	0.726268	-0.100246	-0.079198
H111	H	0.748551	-0.199884	-0.059380
H112	H	0.783329	-0.120739	-0.009556
O113	O	0.730612	-0.336244	0.186953
C114	C	0.741749	-0.316871	0.256043
H115	H	0.768656	-0.259319	0.255889
H116	H	0.689160	-0.314181	0.290554
H117	H	0.776436	-0.361448	0.277554
O118	O	0.918423	-0.819535	-0.000694
C119	C	0.961387	-0.865332	0.036598
H120	H	0.933404	-0.877207	0.091301
H121	H	0.972528	-0.921058	0.007429
H122	H	1.012969	-0.834765	0.041219
H123	H	0.495885	0.000196	-0.020111
O124	O	0.730592	-0.819591	0.186774
C125	C	0.687629	-0.865444	0.149488
H126	H	0.715608	-0.877313	0.094784
H127	H	0.676494	-0.921170	0.178660
H128	H	0.636043	-0.834930	0.144869
H129	H	0.628003	0.000151	-0.018171
O130	O	0.730588	-0.663405	0.186933
C131	C	0.688548	-0.715385	0.228932
H132	H	0.717174	-0.771859	0.229652
H133	H	0.677720	-0.692482	0.284718
H134	H	0.636755	-0.723845	0.206390
O135	O	0.822346	0.135458	-0.557068
C136	C	0.823405	0.120740	-0.484988
H137	H	0.845624	0.061756	-0.478014
H138	H	0.857732	0.164563	-0.461854
H139	H	0.767716	0.124001	-0.456809
H140	H	0.153075	0.000264	0.206181
H141	H	0.820249	0.124750	-0.695006
H142	H	0.020965	0.000283	0.204232
O143	O	0.828694	0.135546	-0.113207
C144	C	0.767979	0.177241	-0.122970
H145	H	0.725447	0.137034	-0.137319
H146	H	0.748367	0.208405	-0.072388
H147	H	0.781025	0.220000	-0.167097
H148	H	0.910869	-0.186275	0.006681
