data_functionalizedCrystal
_audit_creation_method	'MofGen! by Chris Wilmer'
_symmetry_space_group_name_H-M	'P1'
_symmetry_Int_Tables_number	1
_symmetry_cell_setting	triclinic
loop_
_symmetry_equiv_pos_as_xyz
  x,y,z
_cell_length_a	19.288864
_cell_length_b	27.732048
_cell_length_c	18.366186
_cell_angle_alpha	89.988789
_cell_angle_beta	89.977106
_cell_angle_gamma	82.889449
loop_
_atom_site_label
_atom_site_type_symbol
_atom_site_fract_x
_atom_site_fract_y
_atom_site_fract_z
O1	O	0.920977	0.060300	-0.060791
O2	O	1.420977	0.560300	0.439209
O3	O	0.718665	0.068434	-0.060742
O4	O	1.218665	0.568434	0.439258
O5	O	0.826104	-0.006011	-0.060754
O6	O	1.326104	0.493989	0.439246
O7	O	0.813538	0.134745	-0.060779
O8	O	1.313538	0.634745	0.439221
O9	O	0.826086	-0.006014	0.060345
O10	O	1.326086	0.493986	0.560345
O11	O	0.718647	0.068430	0.060357
O12	O	1.218647	0.568430	0.560357
O13	O	0.920959	0.060296	0.060309
O14	O	1.420959	0.560296	0.560309
Zn15	Zn	0.819800	0.064363	0.079560
Zn16	Zn	1.319800	0.564363	0.579560
Zn17	Zn	0.819824	0.064368	-0.079994
Zn18	Zn	1.319824	0.564368	0.420006
O19	O	0.813520	0.134741	0.060321
O20	O	1.313520	0.634741	0.560321
C21	C	0.692781	0.068171	-0.000186
C22	C	1.192781	0.568171	0.499814
C23	C	0.615683	0.067385	-0.000167
C24	C	1.115683	0.567385	0.499833
C25	C	0.570714	0.111066	-0.000186
C26	C	1.070714	0.611066	0.499814
C27	C	0.498271	0.110328	-0.000194
C28	C	0.998271	0.610328	0.499806
C29	C	0.470801	0.065906	-0.000197
C30	C	0.970801	0.565906	0.499803
C31	C	0.515780	0.022219	-0.000174
C32	C	1.015780	0.522219	0.499826
C33	C	0.588220	0.022959	-0.000159
C34	C	1.088220	0.522959	0.499841
C35	C	0.362763	0.030987	-0.042642
C36	C	0.862763	0.530987	0.457358
C37	C	0.290323	0.030250	-0.042662
C38	C	0.790323	0.530250	0.457338
C39	C	0.247370	0.063624	-0.000241
C40	C	0.747370	0.563624	0.499759
C41	C	0.276863	0.097744	0.042190
C42	C	0.776863	0.597744	0.542190
C43	C	0.349304	0.098483	0.042206
C44	C	0.849304	0.598483	0.542206
C45	C	0.392252	0.065099	-0.000213
C46	C	0.892252	0.565099	0.499787
C47	C	0.123850	0.106507	-0.000268
C48	C	0.623850	0.606507	0.499732
C49	C	0.051406	0.105767	-0.000271
C50	C	0.551406	0.605767	0.499729
C51	C	0.068916	0.017658	-0.000258
C52	C	0.568916	0.517658	0.499742
C53	C	0.141358	0.018399	-0.000248
C54	C	0.641358	0.518399	0.499752
C55	C	0.168820	0.062825	-0.000256
C56	C	0.668820	0.562825	0.499744
C57	C	0.825831	-0.024020	-0.000202
C58	C	1.325831	0.475980	0.499798
C59	C	0.825037	-0.077678	-0.000196
C60	C	1.325037	0.422322	0.499804
C61	C	0.883526	-0.416316	-0.000248
C62	C	1.383526	0.083684	0.499752
C63	C	0.880579	-0.617985	-0.000257
C64	C	1.380579	-0.117985	0.499743
O65	O	0.934063	-0.649079	-0.000302
O66	O	1.434063	-0.149079	0.499698
N67	N	0.816872	-0.637301	-0.000241
N68	N	1.316872	-0.137301	0.499759
C69	C	0.753897	-0.606196	-0.000227
C70	C	1.253897	-0.106196	0.499773
O71	O	0.699643	-0.627253	-0.000222
O72	O	1.199643	-0.127253	0.499778
C73	C	0.756845	-0.404529	-0.000223
C74	C	1.256845	0.095471	0.499777
C75	C	0.820556	-0.385216	-0.000232
C76	C	1.320556	0.114784	0.499768
C77	C	0.947232	-0.397002	-0.000257
C78	C	1.447232	0.102998	0.499743
C79	C	0.947968	-0.346588	-0.000251
C80	C	1.447968	0.153412	0.499749
C81	C	0.884998	-0.315488	-0.000235
C82	C	1.384998	0.184512	0.499765
C83	C	0.821292	-0.334801	-0.000226
C84	C	1.321292	0.165199	0.499774
C85	C	0.693871	-0.373425	-0.000215
C86	C	1.193871	0.126575	0.499785
C87	C	0.694614	-0.323006	-0.000216
C88	C	1.194614	0.176994	0.499784
C89	C	0.758325	-0.303693	-0.000224
C90	C	1.258325	0.196307	0.499776
C91	C	0.759059	-0.253287	-0.000203
C92	C	1.259059	0.246713	0.499797
N93	N	0.822766	-0.233971	-0.000219
N94	N	1.322766	0.266029	0.499781
C95	C	0.885735	-0.265071	-0.000235
C96	C	1.385735	0.234929	0.499765
C97	C	0.752354	-0.712075	-0.000228
C98	C	1.252354	-0.212075	0.499772
C99	C	0.751617	-0.762492	-0.000228
C100	C	1.251617	-0.262492	0.499772
C101	C	0.878299	-0.774276	-0.000259
C102	C	1.378299	-0.274276	0.499741
C103	C	0.879035	-0.723859	-0.000254
C104	C	1.379035	-0.223859	0.499746
C105	C	0.816061	-0.692759	-0.000244
C106	C	1.316061	-0.192759	0.499756
C107	C	0.887276	-0.159197	-0.000221
C108	C	1.387276	0.340803	0.499779
C109	C	0.888007	-0.108778	-0.000212
C110	C	1.388007	0.391222	0.499788
C111	C	0.761325	-0.096998	-0.000185
C112	C	1.261325	0.403002	0.499815
C113	C	0.760595	-0.147412	-0.000190
C114	C	1.260595	0.352588	0.499810
C115	C	0.823576	-0.178511	-0.000211
C116	C	1.323576	0.321489	0.499789
O117	O	0.705603	-0.222164	-0.000167
O118	O	1.205603	0.277836	0.499833
O119	O	0.939982	-0.244005	-0.000257
O120	O	1.439982	0.255995	0.499743
C121	C	0.882790	-0.466730	-0.000254
C122	C	1.382790	0.033270	0.499746
C123	C	0.819084	-0.486044	-0.000245
C124	C	1.319084	0.013956	0.499755
C125	C	0.756114	-0.454943	-0.000229
C126	C	1.256114	0.045057	0.499771
C127	C	0.818347	-0.536461	-0.000244
C128	C	1.318347	-0.036461	0.499756
C129	C	0.881317	-0.567561	-0.000260
C130	C	1.381317	-0.067561	0.499740
C131	C	0.945023	-0.548245	-0.000276
C132	C	1.445023	-0.048245	0.499724
C133	C	0.945760	-0.497831	-0.000270
C134	C	1.445760	0.002169	0.499730
C135	C	0.692407	-0.474260	-0.000213
C136	C	1.192407	0.025740	0.499787
C137	C	0.691676	-0.524674	-0.000218
C138	C	1.191676	-0.024674	0.499782
C139	C	0.754646	-0.555775	-0.000234
C140	C	1.254646	-0.055775	0.499766
C141	C	0.946842	0.060560	-0.000249
C142	C	1.446842	0.560560	0.499751
C143	C	1.023941	0.061345	-0.000273
C144	C	1.523941	0.561345	0.499727
C145	C	0.813792	0.152751	-0.000233
C146	C	1.313792	0.652751	0.499767
C147	C	0.814587	0.206408	-0.000244
C148	C	1.314587	0.706408	0.499756
N149	N	0.819789	0.064359	0.188451
N150	N	1.319789	0.564359	0.688451
N151	N	0.819841	0.064367	-0.188885
N152	N	1.319841	0.564367	0.311115
C153	C	0.867378	0.031411	0.226546
C154	C	1.367378	0.531411	0.726546
C155	C	0.867383	0.031409	0.302774
C156	C	1.367383	0.531409	0.802774
C157	C	0.819804	0.064363	0.340904
C158	C	1.319804	0.564363	0.840904
C159	C	0.772206	0.097314	0.302800
C160	C	1.272206	0.597314	0.802800
C161	C	0.772198	0.097312	0.226573
C162	C	1.272198	0.597312	0.726573
C163	C	0.810231	0.108406	0.461658
C164	C	1.310231	0.608406	0.961658
C165	C	0.810244	0.108409	0.537883
C166	C	1.310244	0.608409	1.037883
C167	C	0.819824	0.064369	0.576011
C168	C	1.319824	0.564369	1.076011
C169	C	0.829406	0.020325	0.537906
C170	C	1.329406	0.520325	1.037906
C171	C	0.829398	0.020323	0.461679
C172	C	1.329398	0.520323	0.961679
C173	C	0.819807	0.064369	0.423559
C174	C	1.319807	0.564369	0.923559
C175	C	0.867421	0.031416	0.696761
C176	C	1.367421	0.531416	1.196761
C177	C	0.867420	0.031413	0.772991
C178	C	1.367420	0.531413	1.272991
C179	C	0.772247	0.097322	0.773015
C180	C	1.272247	0.597322	1.273015
C181	C	0.772244	0.097321	0.696787
C182	C	1.272244	0.597321	1.196787
C183	C	0.819835	0.064368	0.658665
C184	C	1.319835	0.564368	1.158665
H185	H	0.046551	-0.018511	-0.000306
H186	H	0.546551	0.481489	0.499694
C187	C	0.839927	-0.028120	0.419763
C188	C	1.339927	0.471880	0.919763
H189	H	0.845730	-0.054349	0.453381
H190	H	1.345730	0.445651	0.953381
H191	H	0.880319	-0.029141	0.389924
H192	H	1.380319	0.470859	0.889924
H193	H	0.800215	-0.030758	0.390132
H194	H	1.300215	0.469242	0.890132
C195	C	0.001940	0.153819	-0.000292
C196	C	0.501940	0.653819	0.499708
H197	H	0.028674	0.180381	-0.000302
H198	H	0.528674	0.680381	0.499698
H199	H	-0.026706	0.155364	0.041932
H200	H	0.473294	0.655364	0.541932
H201	H	-0.026659	0.155359	-0.042533
H202	H	0.473341	0.655359	0.457467
H203	H	0.641991	-0.389141	-0.000212
H204	H	1.141991	0.110859	0.499788
C205	C	0.799688	0.156851	0.419720
C206	C	1.299688	0.656851	0.919720
H207	H	0.801048	0.150542	0.368866
H208	H	1.301048	0.650542	0.868866
H209	H	0.835807	0.175730	0.432184
H210	H	1.335807	0.675730	0.932184
H211	H	0.755692	0.174163	0.432231
H212	H	1.255692	0.674163	0.932231
H213	H	0.733495	0.124152	0.665768
H214	H	1.233495	0.624152	1.165768
H215	H	0.837207	-0.015536	0.568948
H216	H	1.337207	0.484464	1.068948
C217	C	0.719911	0.133571	0.814948
C218	C	1.219911	0.633571	1.314948
H219	H	0.726733	0.128856	0.865803
H220	H	1.226733	0.628856	1.365803
H221	H	0.673612	0.128404	0.802482
H222	H	1.173612	0.628404	1.302482
H223	H	0.727110	0.165820	0.802441
H224	H	1.227110	0.665820	1.302441
H225	H	0.593069	0.147241	-0.000194
H226	H	1.093069	0.647241	0.499806
H227	H	0.266315	0.002469	-0.077215
H228	H	0.766315	0.502469	0.422785
H229	H	0.701070	-0.686757	-0.000220
H230	H	1.201070	-0.186757	0.499780
C231	C	0.692062	-0.062783	-0.000172
C232	C	1.192062	0.437217	0.499828
H233	H	0.654011	-0.081504	-0.000163
H234	H	1.154011	0.418496	0.499837
H235	H	0.689732	-0.042866	-0.042401
H236	H	1.189732	0.457134	0.457599
H237	H	0.689709	-0.042876	0.042064
H238	H	1.189709	0.457124	0.542064
C239	C	0.190826	-0.029650	-0.000238
C240	C	0.690826	0.470350	0.499762
H241	H	0.164092	-0.056213	-0.000247
H242	H	0.664092	0.443787	0.499753
H243	H	0.219427	-0.031196	0.041997
H244	H	0.719427	0.468804	0.541997
H245	H	0.219470	-0.031190	-0.042469
H246	H	0.719470	0.468810	0.457531
C247	C	0.919734	-0.004832	0.344691
C248	C	1.419734	0.495168	0.844691
H249	H	0.912919	-0.000112	0.395548
H250	H	1.412919	0.499888	0.895548
H251	H	0.966030	0.000338	0.332172
H252	H	1.466030	0.500338	0.832172
H253	H	0.912540	-0.037084	0.332218
H254	H	1.412540	0.462916	0.832218
C255	C	0.719853	0.133560	0.184667
C256	C	1.219853	0.633560	0.684667
H257	H	0.691518	0.153188	0.218290
H258	H	1.191518	0.653188	0.718290
H259	H	0.691127	0.116223	0.154948
H260	H	1.191127	0.616223	0.654948
H261	H	0.744625	0.153639	0.154915
H262	H	1.244625	0.653639	0.654915
H263	H	0.397731	0.003809	-0.077191
H264	H	0.897731	0.503809	0.422809
C265	C	0.448797	0.158378	-0.000226
C266	C	0.948797	0.658378	0.499774
H267	H	0.475528	0.184942	-0.000235
H268	H	0.975528	0.684942	0.499765
H269	H	0.420144	0.159925	0.041994
H270	H	0.920144	0.659925	0.541994
H271	H	0.420205	0.159914	-0.042472
H272	H	0.920205	0.659914	0.457528
C273	C	0.229624	0.134460	0.088851
C274	C	0.729624	0.634460	0.588851
H275	H	0.182257	0.129132	0.082772
H276	H	0.682257	0.629132	0.582772
H277	H	0.235150	0.166561	0.073928
H278	H	0.735150	0.666561	0.573928
H279	H	0.242312	0.130332	0.138643
H280	H	0.742312	0.630332	0.638643
C281	C	0.919760	-0.004834	0.654824
C282	C	1.419760	0.495166	1.154824
H283	H	0.948097	-0.024463	0.688433
H284	H	1.448097	0.475537	1.188433
H285	H	0.948483	0.012501	0.625067
H286	H	1.448483	0.512501	1.125067
H287	H	0.894984	-0.024913	0.625109
H288	H	1.394984	0.475087	1.125109
C289	C	0.919773	-0.004831	0.814896
C290	C	1.419773	0.495169	1.314896
H291	H	0.948117	-0.024451	0.781271
H292	H	1.448117	0.475549	1.281271
H293	H	0.895013	-0.024911	0.844652
H294	H	1.395013	0.475089	1.344652
H295	H	0.948498	0.012514	0.844609
H296	H	1.448498	0.512514	1.344609
C297	C	0.625342	-0.288796	-0.000204
C298	C	1.125342	0.211204	0.499796
H299	H	0.634900	-0.256003	-0.000209
H300	H	1.134900	0.243997	0.499791
H301	H	0.599187	-0.294645	0.042028
H302	H	1.099187	0.205355	0.542028
H303	H	0.599209	-0.294633	-0.042437
H304	H	1.099209	0.205367	0.457563
C305	C	0.381749	0.136007	0.088879
C306	C	0.881749	0.636007	0.588879
H307	H	0.431043	0.131668	0.082807
H308	H	0.931043	0.631668	0.582807
H309	H	0.370695	0.131637	0.138663
H310	H	0.870695	0.631637	0.638663
H311	H	0.363534	0.167870	0.073952
H312	H	0.863534	0.667870	0.573952
H313	H	0.493409	-0.013949	-0.000187
H314	H	0.993409	0.486051	0.499813
H315	H	0.930914	-0.708138	-0.000262
H316	H	1.430914	-0.208138	0.499738
C317	C	0.799705	0.156852	0.579796
C318	C	1.299705	0.656852	1.079796
H319	H	0.801090	0.150547	0.630654
H320	H	1.301090	0.650547	1.130654
H321	H	0.755710	0.174164	0.567322
H322	H	1.255710	0.674164	1.067322
H323	H	0.835825	0.175731	0.567275
H324	H	1.335825	0.675731	1.067275
H325	H	0.733466	0.124145	0.333849
H326	H	1.233466	0.624145	0.833849
H327	H	0.146211	0.142682	-0.000263
H328	H	0.646211	0.642682	0.499737
H329	H	0.639791	-0.540394	-0.000205
H330	H	1.139791	-0.040394	0.499795
H331	H	0.624835	-0.012613	-0.000144
H332	H	1.124835	0.487387	0.499856
H333	H	0.939890	-0.093056	-0.000217
H334	H	1.439890	0.406944	0.499783
H335	H	0.938562	-0.184513	-0.000241
H336	H	1.438562	0.315487	0.499759
H337	H	0.999848	-0.330868	-0.000261
H338	H	1.499848	0.169132	0.499739
C339	C	1.016505	-0.431206	-0.000269
C340	C	1.516505	0.068794	0.499731
H341	H	1.054545	-0.412475	-0.000269
H342	H	1.554545	0.087525	0.499731
H343	H	1.018869	-0.451117	-0.042496
H344	H	1.518869	0.048883	0.457504
H345	H	1.018845	-0.451120	0.041969
H346	H	1.518845	0.048880	0.541969
H347	H	0.997640	-0.482111	-0.000277
H348	H	1.497640	0.017889	0.499723
H349	H	0.708716	-0.163138	-0.000163
H350	H	1.208716	0.336862	0.499837
C351	C	0.681537	-0.783733	-0.000210
C352	C	1.181537	-0.283733	0.499790
H353	H	0.690110	-0.818214	-0.000207
H354	H	1.190110	-0.318214	0.499793
H355	H	0.655641	-0.773041	-0.042434
H356	H	1.155641	-0.273041	0.457566
H357	H	0.655628	-0.773053	0.042031
H358	H	1.155628	-0.273053	0.542031
C359	C	1.014288	-0.582462	-0.000299
C360	C	1.514288	-0.082462	0.499701
H361	H	1.004718	-0.615252	-0.000308
H362	H	1.504718	-0.115252	0.499692
H363	H	1.040436	-0.576633	0.041922
H364	H	1.540436	-0.076633	0.541922
H365	H	1.040436	-0.576615	-0.042543
H366	H	1.540436	-0.076615	0.457457
C367	C	0.947564	-0.808493	-0.000288
C368	C	1.447564	-0.308493	0.499712
H369	H	0.937994	-0.841284	-0.000294
H370	H	1.437994	-0.341284	0.499706
H371	H	0.973716	-0.802664	0.041930
H372	H	1.473716	-0.302664	0.541930
H373	H	0.973706	-0.802646	-0.042535
H374	H	1.473706	-0.302646	0.457465
C375	C	0.623137	-0.440055	-0.000188
C376	C	1.123137	0.059945	0.499812
H377	H	0.585095	-0.458784	-0.000173
H378	H	1.085095	0.041216	0.499827
H379	H	0.620787	-0.420133	-0.042412
H380	H	1.120787	0.079867	0.457588
H381	H	0.620786	-0.420153	0.042053
H382	H	1.120786	0.079847	0.542053
H383	H	0.906127	0.004578	0.195509
H384	H	1.406127	0.504578	0.695509
