data_functionalizedCrystal
_audit_creation_method	'MofGen! by Chris Wilmer'
_symmetry_space_group_name_H-M	'P1'
_symmetry_Int_Tables_number	1
_symmetry_cell_setting	triclinic
loop_
_symmetry_equiv_pos_as_xyz
  x,y,z
_cell_length_a	14.044220
_cell_length_b	10.540539
_cell_length_c	12.503572
_cell_angle_alpha	93.560877
_cell_angle_beta	86.164750
_cell_angle_gamma	88.857185
loop_
_atom_site_label
_atom_site_type_symbol
_atom_site_fract_x
_atom_site_fract_y
_atom_site_fract_z
O1	O	1.265193	0.299541	-0.089197
O2	O	0.989150	0.288487	-0.089224
O3	O	1.133469	0.109945	-0.089208
O4	O	1.120874	0.478084	-0.089212
O5	O	1.122616	0.123396	0.089432
O6	O	0.978297	0.301939	0.089417
O7	O	1.254339	0.312993	0.089444
Cu8	Cu	1.115327	0.308694	0.105742
Cu9	Cu	1.128163	0.292786	-0.105522
O10	O	1.110020	0.491536	0.089428
C11	C	0.948377	0.290375	0.000093
C12	C	0.843054	0.275945	0.000082
C13	C	1.127098	0.069272	0.000110
C14	C	1.124272	-0.071962	0.000104
C15	C	0.650213	0.249566	0.000104
C16	C	0.593272	0.351908	0.000107
C17	C	0.485969	0.337231	0.000119
C18	C	0.757526	0.264241	0.000092
C19	C	1.016008	-0.266368	-0.000308
C20	C	1.018848	-0.119430	0.000095
C21	C	1.168809	-0.120809	0.102122
C22	C	1.165206	-0.267711	0.102207
C23	C	1.179693	-0.283309	-0.100941
C24	C	1.180746	-0.136331	-0.102289
C25	C	1.295113	0.311105	0.000125
C26	C	1.400436	0.325535	0.000129
C27	C	1.116392	0.532208	0.000108
C28	C	1.119218	0.673442	0.000107
N29	N	1.106306	0.319883	0.254333
N30	N	1.137191	0.281588	-0.254113
C31	C	1.093036	0.336354	0.473447
C32	C	1.150458	0.265121	0.526780
C33	C	1.143074	0.274286	0.648703
C34	C	1.100419	0.327191	0.351513
H35	H	0.625111	0.450550	0.000101
C36	C	1.224370	0.173446	0.464770
C37	C	1.231701	0.164225	0.341084
C38	C	1.305613	0.072558	0.279068
C39	C	1.372193	-0.009887	0.340738
C40	C	1.364863	-0.000668	0.464431
C41	C	1.290952	0.090998	0.526447
H42	H	1.182413	0.225258	0.295426
H43	H	1.311038	0.065735	0.187502
H44	H	1.426907	-0.077743	0.294830
H45	H	1.414152	-0.061701	0.510089
H46	H	1.285527	0.097822	0.618013
C47	C	0.970912	-0.074747	-0.098689
C48	C	0.882840	0.015577	-0.083649
C49	C	0.834896	0.060257	-0.182431
C50	C	0.875024	0.014614	-0.296254
C51	C	0.963101	-0.075715	-0.311299
C52	C	1.011045	-0.120395	-0.212517
H53	H	0.853130	0.049370	0.000614
H54	H	0.769695	0.127125	-0.171293
H55	H	0.839533	0.047689	-0.369379
H56	H	0.992810	-0.109508	-0.395562
H57	H	1.076246	-0.187263	-0.223655
H58	H	1.038335	0.404216	0.519348
C59	C	0.607207	0.116313	0.000101
C60	C	0.536389	0.082636	0.092864
C61	C	0.493369	-0.050615	0.092856
C62	C	0.521167	-0.150189	0.000084
C63	C	0.591988	-0.116515	-0.092686
C64	C	0.635008	0.016735	-0.092678
H65	H	0.515809	0.156350	0.161545
H66	H	0.440943	-0.075542	0.161531
H67	H	0.489321	-0.248830	0.000078
H68	H	0.612569	-0.190229	-0.161367
H69	H	0.687435	0.041662	-0.161353
C70	C	0.965749	-0.318115	-0.099148
C71	C	1.017804	-0.415663	-0.180695
C72	C	0.967548	-0.467409	-0.279544
C73	C	0.865237	-0.421608	-0.296846
C74	C	0.813176	-0.324054	-0.215297
C75	C	0.863432	-0.272308	-0.116448
H76	H	1.093546	-0.449572	-0.167888
H77	H	1.006088	-0.539625	-0.339912
H78	H	0.828034	-0.459914	-0.370020
H79	H	0.737434	-0.290145	-0.228103
H80	H	0.824893	-0.200092	-0.056080
C81	C	0.954000	-0.305430	0.097959
C82	C	0.996677	-0.391666	0.178467
C83	C	0.934671	-0.430732	0.276734
C84	C	0.829989	-0.383563	0.294495
C85	C	0.787307	-0.297322	0.213985
C86	C	0.849312	-0.258256	0.115718
H87	H	1.074174	-0.426588	0.165321
H88	H	0.966268	-0.494573	0.336333
H89	H	0.784089	-0.412482	0.367238
H90	H	0.709810	-0.262400	0.227130
H91	H	0.817716	-0.194415	0.056119
C92	C	1.108285	-0.303180	0.205211
C93	C	1.156092	-0.384112	0.285912
C94	C	1.099167	-0.419572	0.388917
C95	C	0.994434	-0.374101	0.411221
C96	C	0.946622	-0.293165	0.330519
C97	C	1.003547	-0.257704	0.227514
H98	H	1.233626	-0.417776	0.269402
H99	H	1.134561	-0.479487	0.448658
H100	H	0.952295	-0.400351	0.487472
H101	H	0.869088	-0.259500	0.347028
H102	H	0.968152	-0.197790	0.167772
H103	H	0.974198	-0.076223	0.073339
H104	H	1.255882	-0.322888	-0.101619
H105	H	1.245999	-0.090342	0.105922
C106	C	1.267246	-0.321695	0.108497
C107	C	1.351747	-0.231118	0.113431
C108	C	1.453783	-0.285095	0.119733
C109	C	1.471318	-0.429649	0.121101
C110	C	1.386814	-0.520236	0.116167
C111	C	1.284778	-0.466259	0.109865
H112	H	1.338769	-0.124102	0.112418
H113	H	1.516338	-0.218036	0.123385
H114	H	1.546851	-0.469606	0.125766
H115	H	1.399792	-0.627252	0.117180
H116	H	1.222223	-0.533318	0.106213
C117	C	1.114967	-0.060368	0.204678
C118	C	1.030644	0.033250	0.196069
C119	C	0.976795	0.093687	0.298622
C120	C	1.007268	0.060506	0.409785
C121	C	1.091594	-0.033117	0.418399
C122	C	1.145444	-0.093554	0.315846
H123	H	1.008083	0.057817	0.113775
H124	H	0.914371	0.162993	0.292245
H125	H	0.967406	0.105245	0.485701
H126	H	1.114156	-0.057684	0.500693
H127	H	1.207868	-0.162860	0.322223
H128	H	1.150270	-0.324134	-0.178263
C129	C	1.136867	-0.093768	-0.204253
C130	C	1.050169	-0.001005	-0.194633
C131	C	1.006290	0.041568	-0.296595
C132	C	1.049109	-0.008622	-0.408176
C133	C	1.135812	-0.101391	-0.417801
C134	C	1.179691	-0.143964	-0.315839
H135	H	1.018468	0.036154	-0.112030
H136	H	0.942107	0.110242	-0.289469
H137	H	1.016627	0.022893	-0.483654
H138	H	1.167513	-0.138549	-0.500404
H139	H	1.243874	-0.212637	-0.322965
C140	C	1.285088	-0.093739	-0.110612
C141	C	1.321003	0.000653	-0.024189
C142	C	1.425348	0.043247	-0.032505
C143	C	1.493780	-0.008551	-0.127243
C144	C	1.457867	-0.102949	-0.213673
C145	C	1.353521	-0.145543	-0.205358
H146	H	1.270344	0.039001	0.045948
H147	H	1.451933	0.113126	0.031477
H148	H	1.571023	0.022979	-0.133399
H149	H	1.508525	-0.141298	-0.283811
H150	H	1.326936	-0.215422	-0.269339
