data_functionalizedCrystal
_audit_creation_method	'MofGen! by Chris Wilmer'
_symmetry_space_group_name_H-M	'P1'
_symmetry_Int_Tables_number	1
_symmetry_cell_setting	triclinic
loop_
_symmetry_equiv_pos_as_xyz
  x,y,z
_cell_length_a	29.839134
_cell_length_b	29.839131
_cell_length_c	11.169409
_cell_angle_alpha	89.959939
_cell_angle_beta	89.976145
_cell_angle_gamma	90.021992
loop_
_atom_site_label
_atom_site_type_symbol
_atom_site_fract_x
_atom_site_fract_y
_atom_site_fract_z
Zn1	Zn	0.686771	-0.179050	-0.678583
Zn2	Zn	0.686688	-0.254191	-0.477872
Zn3	Zn	0.611639	-0.179051	-0.477906
Zn4	Zn	0.611602	-0.254128	-0.678506
O5	O	0.649175	-0.216605	-0.578217
O6	O	0.749627	-0.189044	-0.651976
O7	O	0.676713	-0.244251	-0.309927
O8	O	0.621655	-0.116184	-0.504572
O9	O	0.749566	-0.244250	-0.504515
O10	O	0.676855	-0.116183	-0.652009
O11	O	0.621575	-0.189045	-0.309951
O12	O	0.548767	-0.188984	-0.504497
O13	O	0.621592	-0.244142	-0.846466
O14	O	0.548740	-0.244143	-0.651877
O15	O	0.676819	-0.188983	-0.846522
O16	O	0.676677	-0.317050	-0.504441
O17	O	0.621512	-0.317004	-0.651845
C18	C	0.532452	-0.216557	-0.578183
C19	C	0.482518	-0.216547	-0.578198
C20	C	0.125958	-0.187919	-0.655151
C21	C	0.313632	-0.187883	-0.655123
O22	O	0.337920	-0.163485	-0.720546
N23	N	0.337073	-0.216577	-0.578226
C24	C	0.313593	-0.245283	-0.501336
O25	O	0.337837	-0.269691	-0.435938
C26	C	0.125921	-0.245321	-0.501370
C27	C	0.102482	-0.216623	-0.578264
C28	C	0.102520	-0.159223	-0.732039
C29	C	0.055604	-0.159231	-0.732040
C30	C	0.032128	-0.187934	-0.655154
C31	C	0.055566	-0.216630	-0.578265
C32	C	0.102442	-0.274030	-0.424487
C33	C	0.055521	-0.274038	-0.424505
C34	C	0.032082	-0.245339	-0.501398
C35	C	-0.014826	-0.245341	-0.501380
N36	N	-0.038267	-0.216648	-0.578277
C37	C	-0.014790	-0.187944	-0.655164
C38	C	0.412124	-0.245261	-0.501321
C39	C	0.459041	-0.245251	-0.501311
C40	C	0.459077	-0.187851	-0.655100
C41	C	0.412158	-0.187859	-0.655103
C42	C	0.388682	-0.216567	-0.578218
C43	C	-0.113316	-0.187962	-0.655161
C44	C	-0.160236	-0.187971	-0.655152
C45	C	-0.160267	-0.245372	-0.501368
C46	C	-0.113351	-0.245362	-0.501372
C47	C	-0.089877	-0.216655	-0.578278
O48	O	-0.039143	-0.269730	-0.436001
O49	O	-0.039043	-0.163547	-0.720571
C50	C	0.172874	-0.187912	-0.655149
C51	C	0.196313	-0.216608	-0.578261
C52	C	0.172836	-0.245311	-0.501374
C53	C	0.243231	-0.216598	-0.578250
C54	C	0.266707	-0.187894	-0.655137
C55	C	0.243266	-0.159201	-0.732034
C56	C	0.196351	-0.159208	-0.732036
C57	C	0.196278	-0.274005	-0.424477
C58	C	0.243193	-0.273994	-0.424481
C59	C	0.266670	-0.245291	-0.501367
C60	C	0.649094	-0.333328	-0.578157
C61	C	0.649100	-0.383262	-0.578172
C62	C	0.677952	-0.692917	-0.501575
C63	C	0.678007	-0.880590	-0.501622
O64	O	0.702474	-0.904865	-0.436451
N65	N	0.649268	-0.904047	-0.578307
C66	C	0.620515	-0.880583	-0.654992
O67	O	0.596075	-0.904841	-0.720227
C68	C	0.620462	-0.692911	-0.654950
C69	C	0.649200	-0.669456	-0.578251
C70	C	0.706688	-0.669462	-0.424884
C71	C	0.706672	-0.622547	-0.424868
C72	C	0.677920	-0.599086	-0.501544
C73	C	0.649184	-0.622541	-0.578236
C74	C	0.591712	-0.669448	-0.731640
C75	C	0.591702	-0.622527	-0.731625
C76	C	0.620440	-0.599072	-0.654926
C77	C	0.620417	-0.552165	-0.654897
N78	N	0.649156	-0.528708	-0.578211
C79	C	0.677908	-0.552168	-0.501535
C80	C	0.620544	-0.979114	-0.655006
C81	C	0.620557	-1.026032	-0.655015
C82	C	0.678050	-1.026035	-0.501647
C83	C	0.678035	-0.979117	-0.501633
C84	C	0.649283	-0.955657	-0.578321
C85	C	0.677872	-0.453642	-0.501508
C86	C	0.677852	-0.406723	-0.501496
C87	C	0.620361	-0.406723	-0.654868
C88	C	0.620379	-0.453639	-0.654876
C89	C	0.649138	-0.477097	-0.578192
O90	O	0.595967	-0.527861	-0.720043
O91	O	0.702351	-0.527902	-0.436328
C92	C	0.677968	-0.739832	-0.501591
C93	C	0.649232	-0.763287	-0.578282
C94	C	0.620480	-0.739826	-0.654959
C95	C	0.649244	-0.810205	-0.578291
C96	C	0.677996	-0.833666	-0.501615
C97	C	0.706735	-0.810209	-0.424930
C98	C	0.706720	-0.763293	-0.424914
C99	C	0.591741	-0.763284	-0.731644
C100	C	0.591759	-0.810199	-0.731652
C101	C	0.620510	-0.833660	-0.654976
C102	C	0.766353	-0.216654	-0.578251
C103	C	0.816288	-0.216675	-0.578265
C104	C	0.649211	-0.216555	-0.891259
C105	C	0.649226	-0.216534	-1.024659
C106	C	0.649269	-0.099427	-0.578303
C107	C	0.649309	-0.049492	-0.578339
C108	C	0.649165	-0.216622	-0.266392
C109	C	0.649237	-0.216517	-0.132992
H110	H	0.036409	-0.297417	-0.361897
O111	O	0.705792	-0.383890	-0.427155
C112	C	0.734795	-0.356717	-0.495545
H113	H	0.718931	-0.349669	-0.586456
H114	H	0.740815	-0.323736	-0.446658
H115	H	0.768090	-0.374772	-0.508823
O116	O	0.563765	-0.740567	-0.806163
C117	C	0.538414	-0.771337	-0.873862
H118	H	0.536886	-0.804797	-0.824704
H119	H	0.503008	-0.757808	-0.886564
H120	H	0.554846	-0.776287	-0.965060
H121	H	0.701436	-0.960022	-0.439179
O122	O	0.592395	-0.383998	-0.729399
C123	C	0.567042	-0.414757	-0.797130
H124	H	0.565495	-0.448218	-0.747979
H125	H	0.531643	-0.401215	-0.809868
H126	H	0.583487	-0.419711	-0.888312
O127	O	0.734613	-0.599716	-0.350539
C128	C	0.763617	-0.572547	-0.418936
H129	H	0.747752	-0.565497	-0.509844
H130	H	0.769643	-0.539567	-0.370052
H131	H	0.796910	-0.590606	-0.432220
O132	O	0.481866	-0.159906	-0.729667
C133	C	0.470402	-0.115119	-0.703697
H134	H	0.457485	-0.112806	-0.607835
H135	H	0.501266	-0.092927	-0.714139
H136	H	0.443186	-0.103408	-0.768116
H137	H	0.701291	-0.472737	-0.439067
H138	H	0.177168	-0.297379	-0.361866
H139	H	0.730103	-0.688559	-0.362444
H140	H	0.701461	-1.045145	-0.439214
H141	H	-0.094267	-0.268727	-0.438748
H142	H	0.597151	-1.045125	-0.717460
O143	O	0.481738	-0.273167	-0.426569
C144	C	0.450950	-0.298494	-0.358696
H145	H	0.417515	-0.300073	-0.407860
H146	H	0.464493	-0.333884	-0.345721
H147	H	0.445945	-0.282007	-0.267623
H148	H	0.730121	-0.744200	-0.362459
O149	O	0.563752	-0.692246	-0.805984
C150	C	0.534757	-0.719437	-0.737620
H151	H	0.531989	-0.705334	-0.643078
H152	H	0.500179	-0.719975	-0.780963
H153	H	0.548656	-0.754987	-0.733538
H154	H	0.597130	-0.960016	-0.717457
H155	H	-0.179318	-0.164599	-0.717768
H156	H	0.568290	-0.603428	-0.794078
O157	O	0.592523	-0.476476	-0.729429
C158	C	0.618098	-0.503561	-0.807042
H159	H	0.652154	-0.510577	-0.764800
H160	H	0.599809	-0.536563	-0.823096
H161	H	0.623009	-0.485446	-0.895987
O162	O	0.032908	-0.131342	-0.806857
C163	C	0.063698	-0.106002	-0.874690
H164	H	0.097139	-0.124402	-0.878736
H165	H	0.050166	-0.101252	-0.969282
H166	H	0.068688	-0.071863	-0.830905
H167	H	0.730145	-0.829319	-0.362494
O168	O	0.389272	-0.273085	-0.426568
C169	C	0.362132	-0.247484	-0.349154
H170	H	0.355111	-0.213458	-0.391647
H171	H	0.329135	-0.265787	-0.332979
H172	H	0.380200	-0.242505	-0.260237
H173	H	0.177271	-0.135839	-0.794650
H174	H	0.262273	-0.297363	-0.361853
H175	H	0.568353	-0.829292	-0.794109
H176	H	0.121629	-0.135849	-0.794656
O177	O	-0.090566	-0.160099	-0.730029
C178	C	-0.102008	-0.169974	-0.849601
H179	H	-0.136075	-0.187254	-0.852002
H180	H	-0.103604	-0.137572	-0.903566
H181	H	-0.075599	-0.193079	-0.889923
O182	O	0.389411	-0.160033	-0.729976
C183	C	0.400910	-0.169891	-0.849539
H184	H	0.413802	-0.205781	-0.855419
H185	H	0.370070	-0.166051	-0.908868
H186	H	0.428156	-0.145813	-0.881012
H187	H	0.121518	-0.297399	-0.361872
O188	O	-0.183098	-0.273302	-0.426858
C189	C	-0.210238	-0.302338	-0.495070
H190	H	-0.196079	-0.305146	-0.589577
H191	H	-0.210791	-0.336896	-0.451508
H192	H	-0.245792	-0.288452	-0.499284
O193	O	0.266096	-0.131383	-0.806853
C194	C	0.293251	-0.156993	-0.884212
H195	H	0.279100	-0.192379	-0.891455
H196	H	0.293808	-0.140785	-0.976656
H197	H	0.328801	-0.158523	-0.847083
