data_functionalizedCrystal
_audit_creation_method	'MofGen! by Chris Wilmer'
_symmetry_space_group_name_H-M	'P1'
_symmetry_Int_Tables_number	1
_symmetry_cell_setting	triclinic
loop_
_symmetry_equiv_pos_as_xyz
  x,y,z
_cell_length_a	17.019372
_cell_length_b	17.038272
_cell_length_c	16.098687
_cell_angle_alpha	92.928906
_cell_angle_beta	83.409909
_cell_angle_gamma	87.242864
loop_
_atom_site_label
_atom_site_type_symbol
_atom_site_fract_x
_atom_site_fract_y
_atom_site_fract_z
O1	O	1.053645	0.099258	-0.006242
O2	O	0.824054	0.112796	0.010211
O3	O	0.937485	-0.007783	0.002075
O4	O	0.940214	0.219836	0.001893
O5	O	0.944075	-0.014802	-0.136907
O6	O	0.830644	0.105776	-0.128772
O7	O	1.060235	0.092239	-0.145225
Zn8	Zn	0.946486	0.097893	-0.159065
Zn9	Zn	0.937803	0.107141	0.024051
O10	O	0.946804	0.212817	-0.137090
C11	C	0.797828	0.108912	-0.057165
C12	C	0.709862	0.107788	-0.050861
C13	C	0.212167	0.101600	-0.011353
C14	C	0.294820	0.102656	-0.017287
C15	C	0.339731	0.099363	-0.096014
C16	C	0.301985	0.095006	-0.168812
C17	C	0.219334	0.093945	-0.162877
C18	C	0.589465	0.102370	-0.117724
C19	C	0.672122	0.103434	-0.123654
C20	C	0.664951	0.111082	0.027872
C21	C	0.582298	0.110025	0.033800
C22	C	0.544560	0.105665	-0.038998
C23	C	0.424216	0.100444	-0.102082
C24	C	0.460077	0.104578	-0.032929
C25	C	0.938298	-0.040410	-0.067238
C26	C	0.930893	-0.127169	-0.066707
C27	C	0.998883	-0.177589	-0.071580
C28	C	0.991920	-0.259108	-0.071073
C29	C	0.916966	-0.290205	-0.065699
C30	C	0.848970	-0.239779	-0.060823
C31	C	0.855934	-0.158261	-0.061324
C32	C	0.892364	-0.535852	-0.063925
C33	C	0.885405	-0.617376	-0.063427
C34	C	1.028356	-0.636700	-0.073675
C35	C	1.035314	-0.555180	-0.074181
C36	C	0.967318	-0.504760	-0.069300
C37	C	0.909846	-0.373531	-0.065183
C38	C	0.974437	-0.421436	-0.069810
C39	C	1.086461	0.096122	-0.077847
C40	C	1.174426	0.097247	-0.084145
C41	C	0.945991	0.245444	-0.067774
C42	C	0.953396	0.332204	-0.068300
N43	N	0.952418	0.091580	-0.284037
C44	C	0.980033	0.062288	-0.810825
C45	C	0.975866	0.066714	-0.723339
C46	C	0.923538	0.122296	-0.676007
C47	C	0.875380	0.173460	-0.716166
C48	C	0.879552	0.169038	-0.803651
C49	C	0.908432	0.138322	-0.411680
C50	C	0.904262	0.142740	-0.324190
C51	C	1.004749	0.035994	-0.331369
C52	C	1.008913	0.031573	-0.418854
C53	C	0.960758	0.082740	-0.459006
C54	C	0.919275	0.126819	-0.586582
C55	C	0.965025	0.078220	-0.548430
N56	N	0.931877	0.113447	0.149022
H57	H	0.188606	0.090408	-0.222153
H58	H	1.035464	-0.396112	-0.074167
Br59	Br	0.747244	-0.281981	-0.053515
Br60	Br	0.399127	0.109031	0.073911
Br61	Br	1.084198	-0.327533	-0.077687
H62	H	1.096349	-0.529867	-0.078557
Br63	Br	0.783675	-0.659579	-0.056141
H64	H	0.832777	0.218720	-0.677624
H65	H	0.708686	0.100758	-0.187766
H66	H	1.043955	-0.005663	-0.298669
Br67	Br	0.151224	0.106078	0.095496
H68	H	0.545737	0.112706	0.097908
Br69	Br	0.763657	-0.089832	-0.054703
H70	H	0.836996	-0.494810	-0.059951
H71	H	1.051522	-0.013686	-0.457390
Br72	Br	0.814200	0.238476	-0.858144
Br73	Br	1.036044	0.002794	-0.612666
H74	H	0.460791	0.097765	-0.166182
H75	H	0.695687	0.114631	0.087140
H76	H	1.059919	-0.152277	-0.075962
H77	H	0.848818	-0.398859	-0.060810
Br78	Br	1.120631	-0.705130	-0.080299
Br79	Br	0.848260	0.202251	-0.522343
Br80	Br	0.538257	0.096473	-0.216522
H81	H	1.022640	0.017025	-0.849357
Br82	Br	0.833235	0.218175	-0.259958
H83	H	1.015079	0.025057	-0.690647
H84	H	0.869221	0.179983	-0.444365
H85	H	0.338558	0.092320	-0.232914
H86	H	0.325545	0.106196	0.041988
