data_functionalizedCrystal
_audit_creation_method	'MofGen! by Chris Wilmer'
_symmetry_space_group_name_H-M	'P1'
_symmetry_Int_Tables_number	1
_symmetry_cell_setting	triclinic
loop_
_symmetry_equiv_pos_as_xyz
  x,y,z
_cell_length_a	14.519709
_cell_length_b	14.519731
_cell_length_c	12.996460
_cell_angle_alpha	89.999130
_cell_angle_beta	89.999039
_cell_angle_gamma	83.684499
loop_
_atom_site_label
_atom_site_type_symbol
_atom_site_fract_x
_atom_site_fract_y
_atom_site_fract_z
O1	O	1.223880	0.120883	-0.085435
O2	O	1.557214	0.454216	0.247898
O3	O	1.890547	0.787550	0.581231
O4	O	0.955404	0.135120	-0.085467
O5	O	1.288738	0.468453	0.247866
O6	O	1.622071	0.801786	0.581200
O7	O	1.096750	-0.006236	-0.085441
O8	O	1.430084	0.327098	0.247892
O9	O	1.763417	0.660431	0.581226
O10	O	1.082534	0.262238	-0.085461
O11	O	1.415868	0.595572	0.247872
O12	O	1.749201	0.928905	0.581205
O13	O	1.096731	-0.006226	0.085693
O14	O	1.430064	0.327107	0.419026
O15	O	1.763398	0.660440	0.752360
O16	O	0.955385	0.135129	0.085667
O17	O	1.288718	0.468462	0.419000
O18	O	1.622052	0.801796	0.752334
O19	O	1.223861	0.120892	0.085699
O20	O	1.557194	0.454226	0.419032
O21	O	1.890528	0.787559	0.752365
Cu22	Cu	1.089621	0.128012	0.101309
Cu23	Cu	1.422955	0.461345	0.434642
Cu24	Cu	1.756288	0.794678	0.767975
Cu25	Cu	1.089644	0.128000	-0.101077
Cu26	Cu	1.422977	0.461334	0.232256
Cu27	Cu	1.756311	0.794667	0.565590
O28	O	1.082515	0.262248	0.085673
O29	O	1.415848	0.595581	0.419006
O30	O	1.749182	0.928915	0.752339
C31	C	1.096075	-0.040591	0.000126
C32	C	1.429408	0.292743	0.333460
C33	C	1.762741	0.626076	0.666793
C34	C	1.094079	-0.142971	0.000127
C35	C	1.427412	0.190363	0.333460
C36	C	1.760745	0.523696	0.666793
C37	C	0.921035	0.134461	0.000096
C38	C	1.254368	0.467794	0.333429
C39	C	1.587702	0.801127	0.666763
C40	C	0.818654	0.132473	0.000084
C41	C	1.151987	0.465806	0.333418
C42	C	1.485320	0.799139	0.666751
C43	C	1.092457	-0.226115	0.000124
C44	C	1.425790	0.107218	0.333457
C45	C	1.759123	0.440552	0.666791
C46	C	1.090430	-0.330424	0.000116
C47	C	1.423763	0.002910	0.333449
C48	C	1.757097	0.336243	0.666783
C49	C	1.088822	-0.413563	0.000109
C50	C	1.422155	-0.080229	0.333442
C51	C	1.755488	0.253104	0.666776
C52	C	1.086795	-0.517878	0.000103
C53	C	1.420129	-0.184545	0.333436
C54	C	1.753462	0.148789	0.666770
C55	C	0.443757	0.125153	0.000132
C56	C	0.777091	0.458487	0.333465
C57	C	1.110424	0.791820	0.666798
C58	C	0.548065	0.127186	0.000118
C59	C	0.881399	0.460519	0.333451
C60	C	1.214732	0.793852	0.666785
C61	C	0.631202	0.128813	0.000107
C62	C	0.964535	0.462146	0.333440
C63	C	1.297869	0.795479	0.666774
C64	C	0.735517	0.130846	0.000095
C65	C	1.068850	0.464179	0.333429
C66	C	1.402183	0.797512	0.666762
C67	C	1.258230	0.121551	0.000133
C68	C	1.591564	0.454885	0.333467
C69	C	1.924897	0.788218	0.666800
C70	C	1.360612	0.123539	0.000138
C71	C	1.693945	0.456873	0.333472
C72	C	2.027279	0.790206	0.666805
C73	C	1.083191	0.296603	0.000103
C74	C	1.416524	0.629936	0.333437
C75	C	1.749858	0.963269	0.666770
C76	C	1.085187	0.398983	0.000096
C77	C	1.418520	0.732316	0.333429
C78	C	1.751854	1.065649	0.666763
N79	N	1.089612	0.128019	0.243656
N80	N	1.422945	0.461352	0.576989
N81	N	1.756279	0.794685	0.910322
C82	C	1.089616	0.128022	0.336762
C83	C	1.422949	0.461355	0.670095
C84	C	1.756282	0.794688	1.003428
C85	C	1.089623	0.128016	0.453567
C86	C	1.422957	0.461350	0.786900
C87	C	1.756290	0.794683	1.120233
C88	C	1.089634	0.128007	0.546665
C89	C	1.422968	0.461340	0.879998
C90	C	1.756301	0.794674	1.213332
C91	C	1.089643	0.128002	0.663478
C92	C	1.422977	0.461336	0.996811
C93	C	1.756310	0.794669	1.330144
N94	N	1.089654	0.127993	0.756576
N95	N	1.422988	0.461326	1.089909
N96	N	1.756321	0.794660	1.423243
