data_functionalizedCrystal
_audit_creation_method	'MofGen! by Chris Wilmer'
_symmetry_space_group_name_H-M	'P1'
_symmetry_Int_Tables_number	1
_symmetry_cell_setting	triclinic
loop_
_symmetry_equiv_pos_as_xyz
  x,y,z
_cell_length_a	12.759395
_cell_length_b	21.295418
_cell_length_c	12.759387
_cell_angle_alpha	90.036848
_cell_angle_beta	90.020509
_cell_angle_gamma	90.028937
loop_
_atom_site_label
_atom_site_type_symbol
_atom_site_fract_x
_atom_site_fract_y
_atom_site_fract_z
Zn1	Zn	1.606176	-0.250550	0.593961
Zn2	Zn	1.606028	-0.355833	0.418263
Zn3	Zn	1.430474	-0.250585	0.418298
Zn4	Zn	1.430428	-0.355788	0.593902
O5	O	1.518276	-0.303189	0.506106
O6	O	1.753177	-0.264521	0.570664
O7	O	1.582698	-0.341905	0.271246
O8	O	1.453863	-0.162491	0.441639
O9	O	1.753068	-0.341871	0.441580
O10	O	1.582950	-0.162465	0.570698
O11	O	1.453719	-0.264579	0.271272
O12	O	1.283447	-0.264536	0.441582
O13	O	1.453784	-0.341795	0.740931
O14	O	1.283413	-0.341828	0.570598
O15	O	1.582905	-0.264477	0.740974
O16	O	1.582652	-0.443917	0.441522
O17	O	1.453640	-0.443884	0.570564
C18	C	1.245309	-0.303181	0.506088
C19	C	1.128532	-0.303193	0.506105
C20	C	1.128535	-0.383808	0.640232
C21	C	1.073676	-0.424121	0.707298
C22	C	0.963954	-0.424129	0.707311
C23	C	0.909089	-0.383818	0.640252
C24	C	0.963949	-0.343505	0.573186
C25	C	1.073673	-0.343504	0.573178
C26	C	0.963946	-0.262888	0.439066
C27	C	1.073667	-0.262883	0.439047
C28	C	0.909081	-0.222578	0.372008
C29	C	0.963940	-0.182267	0.304935
C30	C	1.073669	-0.182262	0.304924
C31	C	1.128527	-0.222570	0.371980
C32	C	1.518153	-0.466741	0.506056
C33	C	1.518197	-0.536709	0.506069
C34	C	1.585705	-1.036163	0.439083
C35	C	1.585665	-0.970420	0.439059
C36	C	1.518424	-0.937548	0.506179
C37	C	1.451199	-0.970424	0.573311
C38	C	1.451233	-1.036165	0.573327
N39	N	1.510262	-0.834289	0.598113
N40	N	1.510235	-0.771838	0.598096
C41	C	1.518315	-0.739473	0.506135
N42	N	1.526443	-0.771920	0.414191
N43	N	1.526475	-0.834377	0.414210
C44	C	1.518379	-0.866263	0.506170
C45	C	1.585487	-0.635320	0.438976
C46	C	1.585440	-0.569576	0.438949
C47	C	1.450979	-0.569581	0.573211
C48	C	1.451021	-0.635324	0.573228
C49	C	1.518281	-0.668189	0.506112
C50	C	1.792310	-0.303197	0.506125
C51	C	1.909086	-0.303201	0.506133
C52	C	1.518356	-0.303127	0.780139
C53	C	1.518390	-0.303101	0.896916
C54	C	1.518428	-0.138999	0.506179
C55	C	1.518493	-0.069031	0.506210
C56	C	1.518258	-0.303205	0.233138
C57	C	1.518428	-0.303054	0.116362
C58	C	1.652853	-0.222595	0.896981
C59	C	1.720099	-0.182333	0.951874
C60	C	1.720125	-0.182310	1.061596
C61	C	1.652895	-0.222552	1.116427
C62	C	1.585648	-0.262815	1.061534
C63	C	1.585632	-0.262835	0.951810
C64	C	1.451181	-0.343316	1.061469
C65	C	1.451159	-0.343343	0.951747
C66	C	1.383951	-0.383559	1.116300
C67	C	1.316708	-0.423825	1.061406
C68	C	1.316686	-0.423847	0.951678
C69	C	1.383913	-0.383606	0.896854
H70	H	1.118329	-0.149430	0.250317
H71	H	1.261914	-0.456627	0.906991
H72	H	1.396226	-0.542817	0.627858
O73	O	1.383809	-0.383599	1.222883
C74	C	1.310106	-0.427773	1.380302
C75	C	1.310141	-0.427777	1.259597
H76	H	1.250568	-0.463496	1.410022
H77	H	1.288308	-0.379036	1.410177
H78	H	1.391485	-0.440812	1.410066
H79	H	1.228787	-0.414764	1.229744
H80	H	1.331999	-0.476519	1.229793
H81	H	1.640399	-0.943654	0.384394
H82	H	1.396448	-0.943656	0.627960
H83	H	1.640169	-0.542815	0.384281
O84	O	1.653077	-0.222466	1.223010
C85	C	1.726832	-0.178227	1.380501
C86	C	1.726752	-0.178270	1.259797
H87	H	1.786376	-0.142489	1.410280
H88	H	1.748647	-0.226950	1.410334
H89	H	1.645461	-0.165180	1.410251
H90	H	1.808098	-0.191290	1.229958
H91	H	1.704877	-0.129541	1.230036
H92	H	1.396501	-1.062926	0.627993
H93	H	1.640470	-1.062918	0.384429
O94	O	1.650845	-0.667153	0.373676
C95	C	1.784246	-0.660211	0.240548
C96	C	1.710266	-0.624085	0.314429
H97	H	1.832323	-0.625407	0.192643
H98	H	1.736109	-0.691024	0.185508
H99	H	1.839128	-0.690955	0.288859
H100	H	1.655369	-0.593308	0.266202
H101	H	1.758469	-0.593312	0.369472
O102	O	1.385705	-0.667158	0.638544
C103	C	1.252293	-0.660223	0.771664
C104	C	1.326233	-0.624093	0.697765
H105	H	1.204174	-0.625421	0.819548
H106	H	1.300463	-0.690934	0.826722
H107	H	1.197446	-0.691068	0.723368
H108	H	1.381094	-0.593213	0.745977
H109	H	1.277997	-0.593422	0.642705
O110	O	1.785376	-0.143306	0.898449
C111	C	1.844908	-0.107640	0.729445
C112	C	1.770947	-0.151879	0.789813
H113	H	1.833252	-0.114546	0.641602
H114	H	1.929637	-0.118703	0.750952
H115	H	1.826537	-0.056880	0.751102
H116	H	1.789223	-0.202653	0.768188
H117	H	1.686240	-0.140761	0.768301
H118	H	1.383906	-0.383622	0.807513
H119	H	1.261969	-0.456584	1.106058
H120	H	0.819740	-0.222584	0.372028
O121	O	0.910821	-0.463342	0.772497
C122	C	0.922390	-0.543269	0.905591
C123	C	0.982693	-0.498906	0.831801
H124	H	0.980473	-0.572024	0.953574
H125	H	0.871001	-0.576193	0.857312
H126	H	0.871040	-0.514396	0.960571
H127	H	1.034100	-0.527729	0.776807
H128	H	1.034016	-0.465980	0.880146
O129	O	0.802507	-0.383821	0.640462
C130	C	0.645112	-0.367695	0.741242
C131	C	0.765816	-0.367683	0.741158
H132	H	0.615411	-0.354635	0.822640
H133	H	0.615220	-0.416431	0.719362
H134	H	0.615345	-0.331982	0.681752
H135	H	0.795672	-0.403365	0.800649
H136	H	0.795637	-0.318924	0.762992
O137	O	0.910809	-0.143054	0.239768
C138	C	0.922374	-0.063120	0.106682
C139	C	0.982680	-0.107486	0.180450
H140	H	0.980455	-0.034361	0.058688
H141	H	0.871085	-0.030200	0.154981
H142	H	0.870924	-0.091993	0.051712
H143	H	1.034187	-0.078664	0.235434
H144	H	1.033902	-0.140407	0.132086
H145	H	1.217876	-0.383811	0.640220
H146	H	1.652849	-0.222616	0.807640
H147	H	1.118359	-0.456940	0.761897
H148	H	1.217868	-0.222571	0.371975
H149	H	1.774876	-0.149521	1.106290
