data_functionalizedCrystal
_audit_creation_method	'MofGen! by Chris Wilmer'
_symmetry_space_group_name_H-M	'P1'
_symmetry_Int_Tables_number	1
_symmetry_cell_setting	triclinic
loop_
_symmetry_equiv_pos_as_xyz
  x,y,z
_cell_length_a	12.759401
_cell_length_b	11.169416
_cell_length_c	11.169409
_cell_angle_alpha	89.969126
_cell_angle_beta	90.019981
_cell_angle_gamma	89.989499
loop_
_atom_site_label
_atom_site_type_symbol
_atom_site_fract_x
_atom_site_fract_y
_atom_site_fract_z
Zn1	Zn	1.606303	0.477705	0.678560
Zn2	Zn	1.606206	0.678445	0.477882
Zn3	Zn	1.430600	0.477775	0.477894
Zn4	Zn	1.430607	0.678345	0.678526
O5	O	1.518429	0.578068	0.578216
O6	O	1.753311	0.504346	0.651949
O7	O	1.582868	0.651898	0.309934
O8	O	1.453945	0.309816	0.504532
O9	O	1.753240	0.651829	0.504512
O10	O	1.583033	0.309764	0.651960
O11	O	1.453851	0.504466	0.309942
O12	O	1.283580	0.504369	0.504499
O13	O	1.453956	0.651658	0.846481
O14	O	1.283585	0.651727	0.651903
O15	O	1.583039	0.504249	0.846505
O16	O	1.582874	0.846382	0.504479
O17	O	1.453862	0.846308	0.651891
C18	C	1.245461	0.578046	0.578199
C19	C	1.128685	0.578065	0.578221
C20	C	1.518387	0.889892	0.578206
C21	C	1.518465	1.023292	0.578243
C22	C	1.518509	0.577934	0.891258
C23	C	1.518544	0.577878	1.024658
C24	C	1.073853	0.654917	0.654847
C25	C	0.964129	0.654932	0.654860
C26	C	0.964078	0.501240	0.501610
C27	C	1.073800	0.501220	0.501604
C28	C	1.128737	0.731762	0.731464
C29	C	1.073905	0.808622	0.808095
C30	C	0.964181	0.808637	0.808108
C31	C	0.909289	0.731793	0.731490
C32	C	1.792462	0.578091	0.578233
C33	C	1.909239	0.578101	0.578240
C34	C	1.518499	0.265025	0.578251
C35	C	1.518529	0.131625	0.578266
C36	C	1.518409	0.578114	0.266391
C37	C	1.518578	0.577833	0.132991
H38	H	1.218080	0.731761	0.731459
H39	H	0.919540	0.871210	0.870514
C40	C	1.134281	0.893146	0.892364
H41	H	1.207481	0.882142	0.881374
H42	H	1.116335	0.875686	0.973037
H43	H	1.116284	0.973769	0.874649
C44	C	1.134120	0.416679	0.417323
H45	H	1.085720	0.370926	0.371684
H46	H	1.176936	0.364437	0.463329
H47	H	1.176906	0.462523	0.364944
H48	H	0.819944	0.731801	0.731517
C49	C	0.903700	0.416728	0.417331
H50	H	0.830500	0.427755	0.428302
H51	H	0.921687	0.336104	0.435027
H52	H	0.921653	0.434206	0.336657
