data_functionalizedCrystal
_audit_creation_method	'MofGen! by Chris Wilmer'
_symmetry_space_group_name_H-M	'P1'
_symmetry_Int_Tables_number	1
_symmetry_cell_setting	triclinic
loop_
_symmetry_equiv_pos_as_xyz
  x,y,z
_cell_length_a	9.065218
_cell_length_b	15.944551
_cell_length_c	7.540329
_cell_angle_alpha	89.995457
_cell_angle_beta	89.996962
_cell_angle_gamma	84.257312
loop_
_atom_site_label
_atom_site_type_symbol
_atom_site_fract_x
_atom_site_fract_y
_atom_site_fract_z
O1	O	1.957520	0.123161	-0.147492
O2	O	1.527999	0.133263	-0.147494
O3	O	1.754488	0.006026	-0.147477
O4	O	1.731030	0.250398	-0.147509
O5	O	1.754475	0.006024	0.147488
O6	O	1.527985	0.133261	0.147471
O7	O	1.957506	0.123159	0.147473
Cu8	Cu	1.742744	0.128210	0.174405
Cu9	Cu	1.742760	0.128212	-0.174426
O10	O	1.731016	0.250396	0.147456
C11	C	1.473028	0.132291	-0.000012
C12	C	1.309253	0.129388	-0.000013
C13	C	1.753508	-0.025276	0.000006
C14	C	1.750588	-0.118544	0.000007
C15	C	1.603221	-0.334518	-0.000019
C16	C	1.671647	-0.395017	0.145418
C17	C	1.745306	-0.289310	-0.000007
C18	C	1.671693	-0.394999	-0.145395
C19	C	1.740194	-0.454262	-0.000028
C20	C	1.813771	-0.348582	0.145549
C21	C	1.813798	-0.348557	-0.145394
C22	C	1.882327	-0.409038	0.000078
C23	C	1.748247	-0.194286	0.000007
C24	C	1.737264	-0.549285	-0.000029
C25	C	2.012477	0.124131	-0.000013
C26	C	2.176252	0.127034	-0.000024
C27	C	1.731997	0.281698	-0.000031
C28	C	1.734917	0.374966	-0.000043
N29	N	1.742744	0.128208	0.419753
N30	N	1.742773	0.128207	-0.419774
H31	H	1.611544	-0.415582	0.268371
O32	O	1.600189	-0.419619	-0.292131
C33	C	1.697959	-0.474754	-0.393606
H34	H	1.790125	-0.505027	-0.304720
H35	H	1.748276	-0.437874	-0.503951
C36	C	1.499085	-0.506725	-0.584634
C37	C	1.612279	-0.543912	-0.475459
H38	H	1.446234	-0.549383	-0.635133
H39	H	1.433216	-0.469577	-0.516274
H40	H	1.541034	-0.475993	-0.676574
H41	H	1.570328	-0.574634	-0.383510
H42	H	1.678139	-0.581066	-0.543806
H43	H	1.873849	-0.327971	-0.268354
H44	H	2.000369	-0.441303	0.000161
O45	O	1.462552	-0.295808	-0.000177
C46	C	1.440159	-0.245643	-0.153670
H47	H	1.522404	-0.270180	-0.260511
H48	H	1.457698	-0.177601	-0.120426
C49	C	1.179891	-0.219476	-0.090697
C50	C	1.280897	-0.249618	-0.221926
H51	H	1.081649	-0.221924	-0.132798
H52	H	1.194977	-0.253270	0.012718
H53	H	1.194525	-0.162776	-0.063006
H54	H	1.266274	-0.306319	-0.249599
H55	H	1.265805	-0.215832	-0.325348
H56	H	1.873812	-0.328137	0.268639
