data_functionalizedCrystal
_audit_creation_method	'MofGen! by Chris Wilmer'
_symmetry_space_group_name_H-M	'P1'
_symmetry_Int_Tables_number	1
_symmetry_cell_setting	triclinic
loop_
_symmetry_equiv_pos_as_xyz
  x,y,z
_cell_length_a	19.188930
_cell_length_b	23.532407
_cell_length_c	17.666332
_cell_angle_alpha	90.009886
_cell_angle_beta	90.023133
_cell_angle_gamma	82.996728
loop_
_atom_site_label
_atom_site_type_symbol
_atom_site_fract_x
_atom_site_fract_y
_atom_site_fract_z
O1	O	0.925923	0.071101	0.063199
O2	O	1.259256	0.404434	0.396533
O3	O	1.592589	0.737768	0.729866
O4	O	0.722581	0.080672	0.063148
O5	O	1.055914	0.414006	0.396482
O6	O	1.389248	0.747339	0.729815
O7	O	0.830384	-0.007032	0.063161
O8	O	1.163717	0.326301	0.396495
O9	O	1.497050	0.659635	0.729828
O10	O	0.818120	0.158805	0.063186
O11	O	1.151453	0.492139	0.396519
O12	O	1.484787	0.825472	0.729853
O13	O	0.830365	-0.007035	-0.062735
O14	O	1.163698	0.326299	0.270598
O15	O	1.497031	0.659632	0.603931
O16	O	0.722562	0.080670	-0.062748
O17	O	1.055895	0.414003	0.270585
O18	O	1.389229	0.747337	0.603918
O19	O	0.925904	0.071098	-0.062697
O20	O	1.259237	0.404432	0.270636
O21	O	1.592571	0.737765	0.603969
Cu22	Cu	0.824231	0.075884	-0.074218
Cu23	Cu	1.157565	0.409217	0.259115
Cu24	Cu	1.490898	0.742551	0.592448
Cu25	Cu	0.824254	0.075887	0.074669
Cu26	Cu	1.157587	0.409220	0.408003
Cu27	Cu	1.490920	0.742554	0.741336
O28	O	0.818101	0.158803	-0.062711
O29	O	1.151434	0.492136	0.270623
O30	O	1.484768	0.825469	0.603956
C31	C	0.696561	0.080361	0.000193
C32	C	1.029895	0.413694	0.333527
C33	C	1.363228	0.747028	0.666860
C34	C	0.619060	0.079431	0.000173
C35	C	0.952393	0.412764	0.333507
C36	C	1.285727	0.746097	0.666840
C37	C	0.573972	0.130893	0.000193
C38	C	0.907305	0.464226	0.333526
C39	C	1.240638	0.797559	0.666860
C40	C	0.501151	0.130019	0.000201
C41	C	0.834484	0.463352	0.333534
C42	C	1.167817	0.796685	0.666868
C43	C	0.473421	0.077680	0.000205
C44	C	0.806754	0.411013	0.333538
C45	C	1.140088	0.744346	0.666872
C46	C	0.518519	0.026211	0.000181
C47	C	0.851853	0.359544	0.333514
C48	C	1.185186	0.692877	0.666848
C49	C	0.591339	0.027086	0.000165
C50	C	0.924672	0.360420	0.333499
C51	C	1.258005	0.693753	0.666832
N52	N	0.365575	0.037674	0.043078
N53	N	0.698908	0.371007	0.376411
N54	N	1.032242	0.704340	0.709744
N55	N	0.296399	0.036845	0.043094
N56	N	0.629732	0.370179	0.376427
N57	N	0.963066	0.703512	0.709761
C58	C	0.254021	0.075038	0.000251
C59	C	0.587354	0.408372	0.333584
C60	C	0.920688	0.741705	0.666917
N61	N	0.283431	0.114099	-0.042600
N62	N	0.616764	0.447433	0.290733
N63	N	0.950097	0.780766	0.624066
N64	N	0.352613	0.114929	-0.042614
N65	N	0.685946	0.448263	0.290720
N66	N	1.019279	0.781596	0.624053
C67	C	0.394462	0.076724	0.000222
C68	C	0.727795	0.410058	0.333555
C69	C	1.061128	0.743391	0.666888
C70	C	0.129971	0.125556	0.000278
C71	C	0.463305	0.458889	0.333611
C72	C	0.796638	0.792223	0.666945
C73	C	0.057149	0.124680	0.000282
C74	C	0.390483	0.458013	0.333615
C75	C	0.723816	0.791346	0.666948
C76	C	0.074520	0.020870	0.000269
C77	C	0.407853	0.354204	0.333603
C78	C	0.741186	0.687537	0.666936
C79	C	0.147340	0.021748	0.000258
C80	C	0.480673	0.355081	0.333592
C81	C	0.814007	0.688415	0.666925
C82	C	0.175061	0.074092	0.000266
C83	C	0.508394	0.407426	0.333600
C84	C	0.841728	0.740759	0.666933
C85	C	0.830062	-0.028250	0.000211
C86	C	1.163395	0.305083	0.333544
C87	C	1.496729	0.638417	0.666878
C88	C	0.829123	-0.091469	0.000205
C89	C	1.162456	0.241864	0.333538
C90	C	1.495790	0.575198	0.666872
C91	C	0.887029	-0.490449	0.000261
C92	C	1.220363	-0.157116	0.333594
C93	C	1.553696	0.176218	0.666928
C94	C	0.886157	-0.549851	0.000267
C95	C	1.219490	-0.216518	0.333600
C96	C	1.552824	0.116815	0.666933
O97	O	0.939837	-0.586482	0.000308
O98	O	1.273170	-0.253148	0.333641
O99	O	1.606503	0.080185	0.666975
N100	N	0.822068	-0.572613	0.000250
N101	N	1.155402	-0.239280	0.333583
N102	N	1.488735	0.094053	0.666917
C103	C	0.758848	-0.535970	0.000236
C104	C	1.092181	-0.202637	0.333569
C105	C	1.425514	0.130697	0.666902
O106	O	0.704255	-0.560786	0.000223
O107	O	1.037589	-0.227452	0.333556
O108	O	1.370922	0.105881	0.666889
C109	C	0.759721	-0.476569	0.000235
C110	C	1.093054	-0.143236	0.333569
C111	C	1.426387	0.190097	0.666902
C112	C	0.823814	-0.453810	0.000244
C113	C	1.157147	-0.120477	0.333578
C114	C	1.490480	0.212856	0.666911
C115	C	0.951117	-0.467690	0.000271
C116	C	1.284450	-0.134356	0.333604
C117	C	1.617784	0.198977	0.666937
C118	C	0.951989	-0.408292	0.000264
C119	C	1.285322	-0.074958	0.333597
C120	C	1.618655	0.258375	0.666931
C121	C	0.888773	-0.371653	0.000247
C122	C	1.222106	-0.038320	0.333580
C123	C	1.555440	0.295014	0.666914
C124	C	0.824685	-0.394412	0.000237
C125	C	1.158019	-0.061079	0.333571
C126	C	1.491352	0.272254	0.666904
C127	C	0.696501	-0.439927	0.000226
C128	C	1.029834	-0.106594	0.333560
C129	C	1.363168	0.226740	0.666893
C130	C	0.697379	-0.380523	0.000227
C131	C	1.030713	-0.047189	0.333560
C132	C	1.364046	0.286144	0.666894
C133	C	0.761472	-0.357764	0.000236
C134	C	1.094806	-0.024431	0.333569
C135	C	1.428139	0.308903	0.666902
C136	C	0.762342	-0.298376	0.000214
C137	C	1.095675	0.034958	0.333547
C138	C	1.429008	0.368291	0.666880
N139	N	0.826430	-0.275614	0.000230
N140	N	1.159764	0.057720	0.333564
N141	N	1.493097	0.391053	0.666897
C142	C	0.889646	-0.312252	0.000247
C143	C	1.222979	0.021081	0.333580
C144	C	1.556313	0.354414	0.666914
C145	C	0.757019	-0.660717	0.000237
C146	C	1.090353	-0.327383	0.333570
C147	C	1.423686	0.005950	0.666904
C148	C	0.756146	-0.720116	0.000232
C149	C	1.089479	-0.386783	0.333565
C150	C	1.422812	-0.053450	0.666898
C151	C	0.883455	-0.733993	0.000264
C152	C	1.216789	-0.400660	0.333598
C153	C	1.550122	-0.067327	0.666931
C154	C	0.884328	-0.674592	0.000264
C155	C	1.217662	-0.341259	0.333597
C156	C	1.550995	-0.007926	0.666931
C157	C	0.821108	-0.637954	0.000254
C158	C	1.154441	-0.304621	0.333587
C159	C	1.487775	0.028712	0.666920
C160	C	0.891472	-0.187512	0.000232
C161	C	1.224806	0.145822	0.333565
C162	C	1.558139	0.479155	0.666898
C163	C	0.892339	-0.128108	0.000222
C164	C	1.225672	0.205226	0.333555
C165	C	1.559005	0.538559	0.666888
C166	C	0.765029	-0.114236	0.000193
C167	C	1.098363	0.219097	0.333527
C168	C	1.431696	0.552431	0.666860
C169	C	0.764163	-0.173634	0.000199
C170	C	1.097496	0.159699	0.333533
C171	C	1.430829	0.493032	0.666866
C172	C	0.827390	-0.210272	0.000221
C173	C	1.160723	0.123062	0.333555
C174	C	1.494057	0.456395	0.666888
O175	O	0.708690	-0.261710	0.000176
O176	O	1.042023	0.071623	0.333509
O177	O	1.375357	0.404956	0.666842
O178	O	0.944230	-0.287428	0.000270
O179	O	1.277563	0.045905	0.333603
O180	O	1.610896	0.379238	0.666937
C181	C	0.951923	0.071410	0.000259
C182	C	1.285257	0.404743	0.333593
C183	C	1.618590	0.738076	0.666926
C184	C	1.029425	0.072340	0.000284
C185	C	1.362758	0.405673	0.333618
C186	C	1.696092	0.739007	0.666951
C187	C	0.818423	0.180021	0.000241
C188	C	1.151756	0.513354	0.333575
C189	C	1.485090	0.846687	0.666908
C190	C	0.819362	0.243240	0.000252
C191	C	1.152695	0.576573	0.333586
C192	C	1.486028	0.909906	0.666919
N193	N	0.824221	0.075881	-0.178938
N194	N	1.157554	0.409215	0.154396
N195	N	1.490887	0.742548	0.487729
C196	C	0.866320	0.110340	-0.218525
C197	C	1.199653	0.443674	0.114809
C198	C	1.532986	0.777007	0.448142
C199	C	0.866331	0.110339	-0.297772
C200	C	1.199664	0.443672	0.035561
C201	C	1.532997	0.777005	0.368895
C202	C	0.824230	0.075885	-0.337430
C203	C	1.157563	0.409218	-0.004097
C204	C	1.490897	0.742551	0.329237
C205	C	0.782128	0.041419	-0.297834
C206	C	1.115462	0.374752	0.035500
C207	C	1.448795	0.708086	0.368833
C208	C	0.782124	0.041417	-0.218587
C209	C	1.115457	0.374751	0.114746
C210	C	1.448790	0.708084	0.448079
N211	N	0.763086	0.074482	-0.461885
N212	N	1.096419	0.407815	-0.128552
N213	N	1.429753	0.741148	0.204781
N214	N	0.763092	0.074487	-0.537166
N215	N	1.096426	0.407820	-0.203832
N216	N	1.429759	0.741153	0.129501
C217	C	0.824243	0.075887	-0.576194
C218	C	1.157576	0.409220	-0.242861
C219	C	1.490909	0.742553	0.090473
N220	N	0.885387	0.077293	-0.537098
N221	N	1.218720	0.410626	-0.203764
N222	N	1.552054	0.743960	0.129569
N223	N	0.885380	0.077291	-0.461810
N224	N	1.218713	0.410625	-0.128477
N225	N	1.552047	0.743958	0.204856
C226	C	0.824231	0.075882	-0.423359
C227	C	1.157564	0.409216	-0.090026
C228	C	1.490897	0.742549	0.243308
C229	C	0.866357	0.110346	-0.701710
C230	C	1.199691	0.443679	-0.368377
C231	C	1.533024	0.777012	-0.035043
C232	C	0.866370	0.110340	-0.780959
C233	C	1.199703	0.443673	-0.447626
C234	C	1.533037	0.777006	-0.114292
C235	C	0.782161	0.041423	-0.781019
C236	C	1.115494	0.374757	-0.447686
C237	C	1.448828	0.708090	-0.114352
C238	C	0.782155	0.041426	-0.701771
C239	C	1.115488	0.374759	-0.368438
C240	C	1.448822	0.708092	-0.035105
C241	C	0.824252	0.075890	-0.662122
C242	C	1.157585	0.409223	-0.328788
C243	C	1.490919	0.742557	0.004545
N244	N	0.824270	0.075885	0.179389
N245	N	1.157603	0.409218	0.512722
N246	N	1.490936	0.742552	0.846055
H247	H	0.184052	-0.020158	0.000246
H248	H	0.517385	0.313175	0.333580
H249	H	0.850719	0.646509	0.666913
H250	H	0.747840	0.013356	-0.186356
H251	H	1.081174	0.346689	0.146977
H252	H	1.414507	0.680023	0.480310
H253	H	0.596537	0.173516	0.000201
H254	H	0.929871	0.506849	0.333534
H255	H	1.263204	0.840182	0.666867
N256	N	0.632800	-0.343097	0.000232
N257	N	0.966134	-0.009764	0.333565
N258	N	1.299467	0.323569	0.666899
N259	N	0.590097	-0.345078	0.053298
N260	N	0.923431	-0.011745	0.386631
N261	N	1.256764	0.321588	0.719964
H262	H	0.544489	-0.318647	0.053302
H263	H	0.877822	0.014686	0.386635
H264	H	1.211155	0.348020	0.719969
H265	H	0.900613	0.138401	-0.330010
H266	H	1.233946	0.471734	0.003323
H267	H	1.567280	0.805067	0.336657
N268	N	0.455093	0.182593	0.000217
N269	N	0.788427	0.515927	0.333550
N270	N	1.121760	0.849260	0.666883
N271	N	0.479854	0.229324	0.000220
N272	N	0.813187	0.562657	0.333553
N273	N	1.146520	0.895990	0.666886
H274	H	0.447328	0.266455	0.000231
H275	H	0.780661	0.599789	0.333564
H276	H	1.113995	0.933122	0.666898
N277	N	0.957811	-0.104861	0.000217
N278	N	1.291144	0.228472	0.333550
N279	N	1.624478	0.561805	0.666884
N280	N	1.000323	-0.116154	-0.052843
N281	N	1.333657	0.217179	0.280490
N282	N	1.666990	0.550513	0.613824
H283	H	1.046562	-0.099738	-0.052847
H284	H	1.379895	0.233596	0.280486
H285	H	1.713229	0.566929	0.613820
N286	N	0.739152	0.006232	-0.661320
N287	N	1.072485	0.339565	-0.327987
N288	N	1.405819	0.672898	0.005347
N289	N	0.766674	-0.031478	-0.617094
N290	N	1.100007	0.301855	-0.283761
N291	N	1.433341	0.635189	0.049572
H292	H	0.736303	-0.056337	-0.588525
H293	H	1.069636	0.276997	-0.255191
H294	H	1.402969	0.610330	0.078142
H295	H	0.495937	-0.016404	0.000195
H296	H	0.829271	0.316929	0.333528
H297	H	1.162604	0.650262	0.666861
H298	H	1.004180	-0.389768	0.000274
H299	H	1.337513	-0.056434	0.333608
H300	H	1.670846	0.276899	0.666941
H301	H	0.628050	-0.014822	0.000150
H302	H	0.961384	0.318512	0.333483
H303	H	1.294717	0.651845	0.666816
N304	N	0.956063	-0.224921	0.000256
N305	N	1.289396	0.108412	0.333590
N306	N	1.622729	0.441745	0.666923
N307	N	1.013274	-0.204583	0.000265
N308	N	1.346608	0.128750	0.333598
N309	N	1.679941	0.462084	0.666931
H310	H	1.058892	-0.231003	0.000278
H311	H	1.392225	0.102330	0.333611
H312	H	1.725559	0.435664	0.666945
N313	N	0.158282	0.179026	0.000282
N314	N	0.491615	0.512360	0.333615
N315	N	0.824949	0.845693	0.666948
N316	N	0.118012	0.224973	0.000290
N317	N	0.451346	0.558306	0.333623
N318	N	0.784679	0.891640	0.666956
H319	H	0.138004	0.262738	0.000291
H320	H	0.471337	0.596071	0.333624
H321	H	0.804671	0.929404	0.666958
H322	H	0.051943	-0.021745	0.000319
H323	H	0.385276	0.311588	0.333653
H324	H	0.718610	0.644921	0.666986
H325	H	0.020438	0.166588	0.000293
H326	H	0.353772	0.499921	0.333627
H327	H	0.687105	0.833255	0.666960
H328	H	1.002598	-0.497516	0.000287
H329	H	1.335931	-0.164182	0.333620
H330	H	1.669264	0.169151	0.666954
H331	H	0.711973	-0.192165	0.000171
H332	H	1.045307	0.141168	0.333504
H333	H	1.378640	0.474501	0.666838
N334	N	0.700461	-0.076802	0.000199
N335	N	1.033794	0.256531	0.333532
N336	N	1.367127	0.589864	0.666866
N337	N	0.657761	-0.078779	0.053269
N338	N	0.991094	0.254555	0.386602
N339	N	1.324428	0.587888	0.719936
H340	H	0.612159	-0.052339	0.053281
H341	H	0.945492	0.280994	0.386614
H342	H	1.278826	0.614328	0.719948
H343	H	0.936518	-0.656067	0.000272
H344	H	1.269852	-0.322733	0.333605
H345	H	1.603185	0.010600	0.666939
N346	N	0.948038	-0.771416	0.000280
N347	N	1.281371	-0.438083	0.333614
N348	N	1.614705	-0.104749	0.666947
N349	N	0.990752	-0.769440	-0.052776
N350	N	1.324085	-0.436107	0.280557
N351	N	1.657418	-0.102773	0.613891
H352	H	1.036362	-0.795870	-0.052766
H353	H	1.369695	-0.462537	0.280568
H354	H	1.703028	-0.129203	0.613901
H355	H	0.705535	-0.630888	0.000222
H356	H	1.038868	-0.297555	0.333555
H357	H	1.372201	0.035778	0.666889
H358	H	0.900601	0.138401	-0.186247
H359	H	1.233934	0.471735	0.147087
H360	H	1.567268	0.805068	0.480420
N361	N	0.909387	0.145539	-0.821387
N362	N	1.242720	0.478872	-0.488054
N363	N	1.576053	0.812205	-0.154720
N364	N	0.946969	0.176304	-0.785972
N365	N	1.280302	0.509637	-0.452639
N366	N	1.613635	0.842970	-0.119306
H367	H	0.977351	0.201164	-0.814524
H368	H	1.310684	0.534497	-0.481191
H369	H	1.644018	0.867830	-0.147858
N370	N	0.690670	-0.743350	0.000205
N371	N	1.024004	-0.410017	0.333538
N372	N	1.357337	-0.076684	0.666872
N373	N	0.634236	-0.710624	0.000186
N374	N	0.967569	-0.377291	0.333519
N375	N	1.300903	-0.043957	0.666852
H376	H	0.587991	-0.727030	0.000169
H377	H	0.921324	-0.393697	0.333503
H378	H	1.254657	-0.060364	0.666836
N379	N	0.631024	-0.463155	0.000219
N380	N	0.964358	-0.129822	0.333552
N381	N	1.297691	0.203512	0.666886
N382	N	0.574593	-0.430425	0.000213
N383	N	0.907926	-0.097091	0.333546
N384	N	1.241260	0.236242	0.666879
H385	H	0.528346	-0.446827	0.000210
H386	H	0.861679	-0.113494	0.333543
H387	H	1.195012	0.219839	0.666877
H388	H	0.747850	0.013366	-0.330128
H389	H	1.081184	0.346699	0.003205
H390	H	1.414517	0.680032	0.336539
N391	N	0.739163	0.006229	-0.821530
N392	N	1.072497	0.339563	-0.488197
N393	N	1.405830	0.672896	-0.154863
N394	N	0.739174	0.006233	-0.892285
N395	N	1.072507	0.339567	-0.558951
N396	N	1.405840	0.672900	-0.225618
H397	H	0.708807	-0.018624	-0.920900
H398	H	1.042140	0.314709	-0.587567
H399	H	1.375474	0.648042	-0.254234
H400	H	0.900636	0.138408	-0.669425
H401	H	1.233969	0.471741	-0.336092
H402	H	1.567302	0.805075	-0.002759
