data_functionalizedCrystal
_audit_creation_method	'MofGen! by Chris Wilmer'
_symmetry_space_group_name_H-M	'P1'
_symmetry_Int_Tables_number	1
_symmetry_cell_setting	triclinic
loop_
_symmetry_equiv_pos_as_xyz
  x,y,z
_cell_length_a	15.995350
_cell_length_b	27.732048
_cell_length_c	14.472310
_cell_angle_alpha	89.993924
_cell_angle_beta	89.990621
_cell_angle_gamma	83.067515
loop_
_atom_site_label
_atom_site_type_symbol
_atom_site_fract_x
_atom_site_fract_y
_atom_site_fract_z
O1	O	1.110190	0.062301	-0.076773
O2	O	1.610190	0.562301	0.423227
O3	O	0.866316	0.069995	-0.076793
O4	O	1.366316	0.569995	0.423207
O5	O	0.995827	-0.004216	-0.076765
O6	O	1.495827	0.495784	0.423235
O7	O	0.980679	0.136512	-0.076801
O8	O	1.480679	0.636512	0.423199
O9	O	0.995794	-0.004212	0.076917
O10	O	1.495794	0.495788	0.576917
O11	O	0.866282	0.069999	0.076889
O12	O	1.366282	0.569999	0.576889
O13	O	1.110157	0.062306	0.076909
O14	O	1.610157	0.562306	0.576909
Cu15	Cu	0.988217	0.066153	0.090931
Cu16	Cu	1.488217	0.566153	0.590931
Cu17	Cu	0.988256	0.066148	-0.090815
Cu18	Cu	1.488256	0.566148	0.409185
O19	O	0.980646	0.136517	0.076881
O20	O	1.480646	0.636517	0.576881
C21	C	0.835108	0.069679	0.000045
C22	C	1.335108	0.569679	0.500045
C23	C	0.742170	0.068726	0.000038
C24	C	1.242170	0.568726	0.500038
C25	C	0.404467	0.065301	0.000059
C26	C	0.904467	0.565301	0.500059
C27	C	0.452585	0.012449	0.000415
C28	C	0.952585	0.512449	0.500415
C29	C	0.549263	0.013403	0.000062
C30	C	1.049263	0.513403	0.500062
C31	C	0.572006	0.067000	0.000049
C32	C	1.072006	0.567000	0.500049
C33	C	0.530600	0.093065	-0.087714
C34	C	1.030600	0.593065	0.412286
C35	C	0.433982	0.091738	-0.087781
C36	C	0.933982	0.591738	0.412219
C37	C	0.433591	0.092835	0.086984
C38	C	0.933591	0.592835	0.586984
C39	C	0.530536	0.092822	0.088138
C40	C	1.030536	0.592822	0.588138
C41	C	0.666691	0.067962	0.000041
C42	C	1.166691	0.567962	0.500041
C43	C	0.309782	0.064340	0.000061
C44	C	0.809782	0.564340	0.500061
C45	C	0.995493	-0.022222	0.000079
C46	C	1.495493	0.477778	0.500079
C47	C	0.994535	-0.075881	0.000086
C48	C	1.494535	0.424119	0.500086
C49	C	1.065040	-0.414392	0.000045
C50	C	1.565040	0.085608	0.500045
C51	C	1.061487	-0.616067	0.000031
C52	C	1.561487	-0.116067	0.500031
O53	O	1.125959	-0.647045	-0.000004
O54	O	1.625959	-0.147045	0.499996
N55	N	0.984692	-0.635522	0.000026
N56	N	1.484692	-0.135522	0.500026
C57	C	0.908780	-0.604555	0.000018
C58	C	1.408780	-0.104555	0.500018
O59	O	0.843380	-0.625730	0.000003
O60	O	1.343380	-0.125730	0.500003
C61	C	0.912334	-0.402881	0.000024
C62	C	1.412334	0.097119	0.500024
C63	C	0.989134	-0.383429	0.000039
C64	C	1.489134	0.116571	0.500039
C65	C	1.141834	-0.394940	0.000058
C66	C	1.641834	0.105060	0.500058
C67	C	1.142721	-0.344524	0.000067
C68	C	1.642721	0.155476	0.500067
C69	C	1.066815	-0.313561	0.000061
C70	C	1.566815	0.186439	0.500061
C71	C	0.990021	-0.333013	0.000047
C72	C	1.490021	0.166987	0.500047
C73	C	0.836422	-0.371914	0.000009
C74	C	1.336422	0.128086	0.500009
C75	C	0.837317	-0.321493	0.000009
C76	C	1.337317	0.178507	0.500009
C77	C	0.914117	-0.302041	0.000023
C78	C	1.414117	0.197959	0.500023
C79	C	0.915002	-0.251634	0.000050
C80	C	1.415002	0.248366	0.500050
N81	N	0.991797	-0.232179	0.000056
N82	N	1.491797	0.267821	0.500056
C83	C	1.067703	-0.263142	0.000061
C84	C	1.567703	0.236858	0.500061
C85	C	0.906920	-0.710437	0.000016
C86	C	1.406920	-0.210437	0.500016
C87	C	0.906031	-0.760855	0.000016
C88	C	1.406031	-0.260855	0.500016
C89	C	1.058739	-0.772364	0.000028
C90	C	1.558739	-0.272364	0.500028
C91	C	1.059627	-0.721945	0.000035
C92	C	1.559627	-0.221945	0.500035
C93	C	0.983715	-0.690982	0.000021
C94	C	1.483715	-0.190982	0.500021
C95	C	1.069561	-0.157265	0.000080
C96	C	1.569561	0.342735	0.500080
C97	C	1.070442	-0.106844	0.000092
C98	C	1.570442	0.393156	0.500092
C99	C	0.917734	-0.095340	0.000075
C100	C	1.417734	0.404660	0.500075
C101	C	0.916853	-0.145756	0.000067
C102	C	1.416853	0.354244	0.500067
C103	C	0.992773	-0.176718	0.000067
C104	C	1.492773	0.323282	0.500067
O105	O	0.850565	-0.220628	0.000075
O106	O	1.350565	0.279372	0.500075
O107	O	1.133094	-0.241958	0.000055
O108	O	1.633094	0.258042	0.500055
C109	C	1.064153	-0.464808	0.000036
C110	C	1.564153	0.035192	0.500036
C111	C	0.987359	-0.484260	0.000022
C112	C	1.487359	0.015740	0.500022
C113	C	0.911452	-0.453297	0.000017
C114	C	1.411452	0.046703	0.500017
C115	C	0.986470	-0.534679	0.000022
C116	C	1.486470	-0.034679	0.500022
C117	C	1.062377	-0.565642	0.000028
C118	C	1.562377	-0.065642	0.500028
C119	C	1.139172	-0.546187	0.000033
C120	C	1.639172	-0.046187	0.500033
C121	C	1.140059	-0.495771	0.000042
C122	C	1.640059	0.004229	0.500042
C123	C	0.834657	-0.472752	0.000011
C124	C	1.334657	0.027248	0.500011
C125	C	0.833776	-0.523168	0.000004
C126	C	1.333776	-0.023168	0.500004
C127	C	0.909683	-0.554132	0.000010
C128	C	1.409683	-0.054132	0.500010
C129	C	1.141364	0.062621	0.000068
C130	C	1.641364	0.562621	0.500068
C131	C	1.234302	0.063575	0.000069
C132	C	1.734302	0.563575	0.500069
C133	C	0.980980	0.154523	0.000035
C134	C	1.480980	0.654523	0.500035
C135	C	0.981938	0.208182	0.000022
C136	C	1.481938	0.708182	0.500022
N137	N	0.988195	0.066156	0.218762
N138	N	1.488195	0.566156	0.718762
N139	N	0.988284	0.066141	-0.218646
N140	N	1.488284	0.566141	0.281354
C141	C	0.988255	0.066146	0.592853
C142	C	1.488255	0.566146	1.092853
C143	C	0.918727	0.105721	0.553672
C144	C	1.418727	0.605721	1.053672
C145	C	0.918884	0.105866	0.446584
C146	C	1.418884	0.605866	0.946584
C147	C	0.988225	0.066151	0.407262
C148	C	1.488225	0.566151	0.907262
C149	C	1.075447	0.077167	0.446103
C150	C	1.575447	0.577167	0.946103
C151	C	1.075055	0.077448	0.553225
C152	C	1.575055	0.577448	1.053225
C153	C	0.971342	0.015437	0.553394
C154	C	1.471342	0.515437	1.053394
C155	C	0.969334	0.015775	0.446267
C156	C	1.469334	0.515775	0.946267
C157	C	0.988213	0.066153	0.302374
C158	C	1.488213	0.566153	0.802374
C159	C	0.988272	0.066145	0.697742
C160	C	1.488272	0.566145	1.197742
H161	H	0.401325	0.131802	0.087568
H162	H	0.901325	0.631802	0.587568
H163	H	1.131383	-0.182469	0.000075
H164	H	1.631383	0.317531	0.500075
F165	F	0.932885	0.155055	0.413063
F166	F	1.432885	0.655055	0.913063
F167	F	0.756519	-0.288543	-0.000007
F168	F	1.256519	0.211457	0.499993
H169	H	1.202598	-0.479938	0.000054
H170	H	1.702598	0.020062	0.500054
H171	H	1.132984	-0.091010	0.000106
H172	H	1.632984	0.408990	0.500106
H173	H	1.200977	-0.571406	0.000042
H174	H	1.700977	-0.071406	0.500042
F175	F	0.410389	0.066888	-0.173518
F176	F	0.910389	0.566888	0.326482
H177	H	0.905176	0.007416	0.420881
H178	H	1.405176	0.507416	0.920881
F179	F	1.031297	-0.024523	0.411296
F180	F	1.531297	0.475477	0.911296
F181	F	1.037624	-0.023058	0.586512
F182	F	1.537624	0.476942	1.086512
H183	H	0.558085	0.073794	0.153064
H184	H	1.058085	0.573794	0.653064
F185	F	1.224463	-0.323828	0.000063
F186	F	1.724463	0.176172	0.500063
F187	F	1.144655	0.040492	0.412814
F188	F	1.644655	0.540492	0.912814
F189	F	0.549952	0.143910	0.095053
F190	F	1.049952	0.643910	0.595053
F191	F	1.222631	-0.427887	0.000064
F192	F	1.722631	0.072113	0.500064
H193	H	0.577401	-0.007228	-0.062950
H194	H	1.077401	0.492772	0.437050
F195	F	0.932563	0.154632	0.588818
F196	F	1.432563	0.654632	1.088818
F197	F	0.752029	-0.543864	-0.000006
F198	F	1.252029	-0.043864	0.499994
F199	F	1.094665	0.125785	0.585862
F200	F	1.594665	0.625785	1.085862
H201	H	0.855933	-0.070121	0.000073
H202	H	1.355933	0.429879	0.500073
F203	F	0.391173	0.142454	-0.092999
F204	F	0.891173	0.642454	0.407001
F205	F	0.548416	0.144529	-0.092009
F206	F	1.048416	0.644529	0.407991
F207	F	1.141367	-0.701247	0.000050
F208	F	1.641367	-0.201247	0.500050
F209	F	1.095551	0.124953	0.411016
F210	F	1.595551	0.624953	0.911016
H211	H	0.577943	-0.007086	0.062975
H212	H	1.077943	0.492914	0.562975
F213	F	0.890046	0.001600	0.588744
F214	F	1.390046	0.501600	1.088744
H215	H	1.120545	-0.797583	0.000033
H216	H	1.620545	-0.297583	0.500033
H217	H	0.843493	-0.776688	0.000020
H218	H	1.343493	-0.276688	0.500020
H219	H	0.434323	-0.008675	0.063354
H220	H	0.934323	0.491325	0.563354
H221	H	0.559223	0.074958	-0.153020
H222	H	1.059223	0.574958	0.346980
H223	H	1.128374	0.049759	0.579142
H224	H	1.628374	0.549759	1.079142
H225	H	0.413265	0.075558	0.153506
H226	H	0.913265	0.575558	0.653506
F227	F	0.834102	0.097312	0.412259
F228	F	1.334102	0.597312	0.912259
H229	H	0.773883	-0.387743	-0.000008
H230	H	1.273883	0.112257	0.499992
F231	F	0.427344	-0.015042	-0.081377
F232	F	0.927344	0.484958	0.418623
F233	F	0.826118	-0.677489	0.000002
F234	F	1.326118	-0.177489	0.500002
H235	H	0.854317	-0.161595	0.000081
H236	H	1.354317	0.338405	0.500081
H237	H	0.772844	-0.447546	0.000005
H238	H	1.272844	0.052454	0.500005
H239	H	0.853660	0.099266	0.579457
H240	H	1.353660	0.599266	1.079457
