data_functionalizedCrystal
_audit_creation_method	'MofGen! by Chris Wilmer'
_symmetry_space_group_name_H-M	'P1'
_symmetry_Int_Tables_number	1
_symmetry_cell_setting	triclinic
loop_
_symmetry_equiv_pos_as_xyz
  x,y,z
_cell_length_a	15.538191
_cell_length_b	15.995350
_cell_length_c	14.185569
_cell_angle_alpha	76.847063
_cell_angle_beta	97.875798
_cell_angle_gamma	65.382234
loop_
_atom_site_label
_atom_site_type_symbol
_atom_site_fract_x
_atom_site_fract_y
_atom_site_fract_z
O1	O	1.228538	-0.246460	-0.083440
O2	O	0.954280	-0.149782	-0.083436
O3	O	1.098906	-0.322287	-0.083437
O4	O	1.083912	-0.073955	-0.083439
O5	O	1.141630	-0.373243	0.083397
O6	O	0.997004	-0.200737	0.083399
O7	O	1.271262	-0.297416	0.083394
Cu8	Cu	1.138034	-0.253729	0.098629
Cu9	Cu	1.087508	-0.193468	-0.098671
O10	O	1.126635	-0.124910	0.083395
C11	C	0.940547	-0.165144	-0.000018
C12	C	0.835973	-0.135015	-0.000016
C13	C	0.548179	-0.434345	-0.000030
C14	C	0.449913	-0.406012	-0.000031
C15	C	0.427470	-0.246646	-0.000032
C16	C	0.525737	-0.274967	-0.000026
C17	C	0.586085	-0.368817	-0.000026
C18	C	0.563643	-0.209439	-0.000022
C19	C	0.661900	-0.237757	-0.000021
C20	C	0.722252	-0.331602	-0.000025
C21	C	0.684342	-0.397135	-0.000026
C22	C	0.503292	-0.115587	-0.000029
C23	C	0.541197	-0.050060	-0.000025
C24	C	0.639458	-0.078379	-0.000017
C25	C	0.699811	-0.172225	-0.000021
C26	C	0.677369	-0.012847	-0.000016
C27	C	0.775626	-0.041165	-0.000016
C28	C	0.798068	-0.200542	-0.000020
C29	C	1.119648	-0.378771	-0.000022
C30	C	1.117788	-0.471155	-0.000028
C31	C	1.111115	-0.806875	-0.000024
C32	C	1.008019	-0.728023	-0.000397
C33	C	1.009974	-0.632013	-0.000021
C34	C	1.114425	-0.640320	-0.000026
C35	C	1.189625	-0.725935	0.095241
C36	C	1.187058	-0.821808	0.095321
C37	C	1.140601	-0.764867	-0.094401
C38	C	1.140254	-0.667530	-0.095660
C39	C	1.116302	-0.546193	-0.000024
C40	C	1.109243	-0.901005	-0.000019
C41	C	1.284995	-0.282052	-0.000026
C42	C	1.389566	-0.312180	-0.000034
C43	C	1.105893	-0.068426	-0.000022
C44	C	1.107752	0.023960	-0.000023
N45	N	1.173578	-0.296116	0.237400
N46	N	1.051971	-0.151090	-0.237442
C47	C	0.947543	-0.026594	0.605052
C48	C	0.974474	-0.058698	0.710074
C49	C	1.102566	-0.211417	0.710033
C50	C	1.075643	-0.179328	0.605010
C51	C	0.998131	-0.086915	0.552528
C52	C	1.126231	-0.239649	0.552485
C53	C	1.099314	-0.207560	0.447471
C54	C	1.021807	-0.115150	0.394981
C55	C	0.971214	-0.054826	0.447514
C56	C	1.203747	-0.332059	0.604969
C57	C	1.254336	-0.392380	0.552445
C58	C	1.227413	-0.360294	0.447428
C59	C	1.149907	-0.267884	0.394939
C60	C	1.278007	-0.420618	0.394896
C61	C	1.251089	-0.388529	0.289882
C62	C	1.122989	-0.235795	0.289925
H63	H	0.952551	-0.570596	-0.068312
C64	C	1.161638	-0.860708	0.191524
C65	C	1.233907	-0.961154	0.266883
C66	C	1.208484	-1.000046	0.363088
C67	C	1.110792	-0.938493	0.383933
C68	C	1.038516	-0.838041	0.308572
C69	C	1.063940	-0.799149	0.212368
H70	H	1.306231	-1.006724	0.251454
H71	H	1.261988	-1.074407	0.418875
H72	H	1.091972	-0.967284	0.455149
H73	H	0.966193	-0.792470	0.324001
H74	H	1.010436	-0.724787	0.156581
C75	C	0.750738	-0.500374	-0.000018
C76	C	0.768678	-0.588683	0.086620
C77	C	0.835075	-0.691916	0.086628
C78	C	0.883533	-0.706840	-0.000001
C79	C	0.865594	-0.618529	-0.086645
C80	C	0.799197	-0.515296	-0.086653
H81	H	0.732806	-0.577637	0.150753
H82	H	0.848355	-0.757289	0.150768
H83	H	0.932684	-0.783260	0.000005
H84	H	0.901466	-0.629575	-0.150778
H85	H	0.785918	-0.449922	-0.150793
C86	C	0.928767	-0.707970	-0.092689
C87	C	0.840476	-0.725556	-0.078686
C88	C	0.761226	-0.705511	-0.170985
C89	C	0.770266	-0.667879	-0.277287
C90	C	0.858561	-0.650291	-0.291295
C91	C	0.937811	-0.670337	-0.198996
H92	H	0.833781	-0.753415	0.000009
H93	H	0.695865	-0.718530	-0.160614
H94	H	0.711601	-0.653040	-0.345612
H95	H	0.865256	-0.622432	-0.369990
H96	H	1.003172	-0.657317	-0.209366
C97	C	1.306734	-0.454882	0.232100
C98	C	1.277129	-0.419587	0.116588
C99	C	1.332779	-0.485941	0.058806
C100	C	1.418033	-0.587591	0.116536
C101	C	1.447642	-0.622892	0.232054
C102	C	1.391992	-0.556538	0.289836
H103	H	1.214015	-0.344335	0.073847
H104	H	1.310860	-0.459809	-0.026708
H105	H	1.459228	-0.636711	0.073762
H106	H	1.510756	-0.698144	0.274795
H107	H	1.413911	-0.582670	0.375350
H108	H	0.984432	-0.755912	0.067543
H109	H	0.908089	0.020421	0.404781
C110	C	0.979386	-0.606201	0.092462
C111	C	1.039623	-0.676435	0.198549
C112	C	1.009059	-0.650680	0.291067
C113	C	0.918257	-0.554691	0.277499
C114	C	0.858013	-0.484451	0.171408
C115	C	0.888578	-0.510206	0.078890
H116	H	1.106846	-0.747497	0.208596
H117	H	1.053655	-0.702678	0.369603
H118	H	0.895631	-0.535626	0.345987
H119	H	0.790791	-0.413389	0.161361
H120	H	0.843982	-0.458208	0.000354
H121	H	1.172495	-0.708484	0.166140
C122	C	0.361084	-0.143415	-0.000028
C123	C	0.268264	-0.075566	-0.086658
C124	C	0.201880	0.027665	-0.086650
C125	C	0.228316	0.063047	-0.000012
C126	C	0.321141	-0.004803	0.086625
C127	C	0.387525	-0.108034	0.086617
H128	H	0.248690	-0.101757	-0.150799
H129	H	0.133164	0.077891	-0.150785
H130	H	0.179175	0.139464	-0.000006
H131	H	0.340715	0.021387	0.150766
H132	H	0.456240	-0.158261	0.150752
H133	H	1.216377	-0.819511	-0.095045
H134	H	1.214950	-0.673559	-0.101416
C135	C	0.864465	-0.303781	-0.000012
C136	C	0.882404	-0.392090	0.086625
C137	C	0.948802	-0.495323	0.086634
C138	C	0.997259	-0.510248	0.000005
C139	C	0.979320	-0.421937	-0.086639
C140	C	0.912923	-0.318703	-0.086647
H141	H	0.846532	-0.381044	0.150759
H142	H	0.962081	-0.560697	0.150773
H143	H	1.046410	-0.586667	0.000011
H144	H	1.015193	-0.432982	-0.150773
H145	H	0.899644	-0.253330	-0.150787
H146	H	1.088433	-0.753118	-0.166608
H147	H	0.806491	0.012192	-0.000004
H148	H	0.884419	0.048654	0.562320
C149	C	1.065767	-0.586340	-0.190877
C150	C	0.981872	-0.495748	-0.181880
C151	C	0.907384	-0.414551	-0.277096
C152	C	0.916791	-0.423948	-0.381308
C153	C	1.000689	-0.514544	-0.390309
C154	C	1.075177	-0.595740	-0.295094
H155	H	0.974905	-0.488788	-0.104732
H156	H	0.845277	-0.347486	-0.270432
H157	H	0.861651	-0.363841	-0.451792
H158	H	1.007656	-0.521503	-0.467457
H159	H	1.137284	-0.662806	-0.301757
C160	C	1.294520	-0.739822	0.100034
C161	C	1.313158	-0.673425	0.017299
C162	C	1.418052	-0.687310	0.022090
C163	C	1.504308	-0.767592	0.109617
C164	C	1.485673	-0.833995	0.192359
C165	C	1.380779	-0.820110	0.187568
H166	H	1.249304	-0.613990	-0.047499
H167	H	1.431847	-0.638154	-0.039161
H168	H	1.581957	-0.777871	0.113164
H169	H	1.549527	-0.893430	0.257157
H170	H	1.366984	-0.869266	0.248819
C171	C	0.992193	-0.079848	0.279464
C172	C	0.958194	-0.136064	0.221706
C173	C	0.928579	-0.100763	0.106189
C174	C	0.932964	-0.009245	0.048431
C175	C	0.966965	0.046977	0.106189
C176	C	0.996579	0.011675	0.221706
H177	H	0.954946	-0.203816	0.264463
H178	H	0.903410	-0.142383	0.063434
H179	H	0.911042	0.016887	-0.037081
H180	H	0.970212	0.114729	0.063433
H181	H	1.021749	0.053295	0.264461
C182	C	0.918815	0.007664	0.767848
C183	C	0.807857	0.043209	0.753436
C184	C	0.752202	0.109571	0.811209
C185	C	0.807505	0.140387	0.883394
C186	C	0.918470	0.104841	0.897810
C187	C	0.974125	0.038480	0.840037
H188	H	0.766912	0.020397	0.699998
H189	H	0.670058	0.135884	0.800538
H190	H	0.766306	0.189512	0.926161
H191	H	0.959414	0.127653	0.951248
H192	H	1.056269	0.012167	0.850708
H193	H	1.317449	-0.467622	0.595188
H194	H	1.263785	-0.878358	0.099639
H195	H	0.419056	-0.459379	-0.000036
C196	C	1.363271	-0.522266	0.452632
C197	C	1.344984	-0.597201	0.524840
C198	C	1.430249	-0.698850	0.582574
C199	C	1.533803	-0.725565	0.568099
C200	C	1.552095	-0.650629	0.495887
C201	C	1.466829	-0.548979	0.438154
H202	H	1.268323	-0.577426	0.535559
H203	H	1.416708	-0.754323	0.636030
H204	H	1.596921	-0.800813	0.610836
H205	H	1.628755	-0.670404	0.485168
H206	H	1.480370	-0.493507	0.384698
H207	H	0.802256	-0.354653	-0.000038
H208	H	1.059865	-0.160547	0.247192
H209	H	0.423285	-0.092533	-0.000032
H210	H	0.597319	-0.510769	-0.000024
H211	H	1.165679	-0.286660	0.752776
H212	H	0.492049	0.026355	-0.000029
H213	H	1.225663	-0.358180	0.690479
H214	H	0.628218	0.063569	-0.000026
