data_functionalizedCrystal
_audit_creation_method	'MofGen! by Chris Wilmer'
_symmetry_space_group_name_H-M	'P1'
_symmetry_Int_Tables_number	1
_symmetry_cell_setting	triclinic
loop_
_symmetry_equiv_pos_as_xyz
  x,y,z
_cell_length_a	15.944551
_cell_length_b	15.944551
_cell_length_c	14.421503
_cell_angle_alpha	89.996660
_cell_angle_beta	90.003141
_cell_angle_gamma	83.498738
loop_
_atom_site_label
_atom_site_type_symbol
_atom_site_fract_x
_atom_site_fract_y
_atom_site_fract_z
O1	O	1.114529	0.108320	0.077017
O2	O	0.869980	0.121677	0.077040
O3	O	0.998933	-0.007276	0.077020
O4	O	0.985576	0.237273	0.077038
O5	O	0.998911	-0.007257	-0.077204
O6	O	0.869958	0.121696	-0.077183
O7	O	1.114508	0.108340	-0.077206
Cu8	Cu	0.992231	0.115020	-0.091277
Cu9	Cu	0.992256	0.114997	0.091110
O10	O	0.985555	0.237293	-0.077186
C11	C	0.838675	0.121132	-0.000069
C12	C	0.745429	0.119470	-0.000060
C13	C	0.530572	0.035565	-0.000084
C14	C	0.469563	0.074518	0.075959
C15	C	0.574703	0.116462	-0.000071
C16	C	0.469564	0.074556	-0.076093
C17	C	0.409790	0.113551	-0.000086
C18	C	0.514922	0.155437	0.076035
C19	C	0.514929	0.155464	-0.076086
C20	C	0.453937	0.194476	-0.000024
C21	C	0.669705	0.118137	-0.000062
C22	C	0.314789	0.111883	-0.000089
C23	C	0.998367	-0.038561	-0.000092
C24	C	0.996705	-0.131807	-0.000093
C25	C	0.912801	-0.346663	-0.000072
C26	C	0.951753	-0.407671	-0.076117
C27	C	0.993698	-0.302533	-0.000085
C28	C	0.951793	-0.407674	0.075935
C29	C	0.990787	-0.467445	-0.000074
C30	C	1.032672	-0.362312	-0.076193
C31	C	1.032701	-0.362308	0.075927
C32	C	1.071711	-0.423298	-0.000136
C33	C	0.995372	-0.207530	-0.000092
C34	C	0.989119	-0.562446	-0.000073
C35	C	1.145813	0.108885	-0.000096
C36	C	1.239059	0.110547	-0.000098
C37	C	0.986120	0.268577	-0.000072
C38	C	0.987782	0.361823	-0.000066
N39	N	0.992219	0.115035	-0.219558
C40	C	0.932581	0.174636	-0.469202
C41	C	1.008481	0.190943	-0.531011
C42	C	0.992240	0.115015	-0.408719
C43	C	0.916359	0.098727	-0.531005
C44	C	0.992253	0.114997	-0.591441
C45	C	1.068178	0.131360	-0.469167
C46	C	0.976007	0.039111	-0.469156
C47	C	1.051961	0.055386	-0.530936
C48	C	0.992231	0.115027	-0.303458
C49	C	0.992270	0.114985	-0.696700
N50	N	0.992275	0.114975	0.219392
H51	H	0.420779	0.261683	0.000023
H52	H	0.845652	-0.313356	-0.000141
C53	C	1.154897	0.150069	-0.432638
C54	C	1.207484	0.085140	-0.370877
C55	C	1.294199	0.103853	-0.334347
C56	C	1.328327	0.187495	-0.359578
C57	C	1.275739	0.252430	-0.421341
C58	C	1.189024	0.233717	-0.457871
H59	H	1.182221	0.023218	-0.352197
H60	H	1.333128	0.055783	-0.288626
H61	H	1.392519	0.201347	-0.332536
H62	H	1.301002	0.314352	-0.440021
H63	H	1.150095	0.281787	-0.503593
H64	H	0.917575	-0.427758	0.140230
C65	C	0.442305	0.028253	0.162734
C66	C	0.476432	-0.064782	0.179384
C67	C	0.449134	-0.111070	0.266123
C68	C	0.387708	-0.064322	0.336212
C69	C	0.353577	0.028718	0.319564
C70	C	0.380876	0.075006	0.232825
H71	H	0.521906	-0.099392	0.127498
H72	H	0.474400	-0.179945	0.278446
H73	H	0.367500	-0.098587	0.400421
H74	H	0.308103	0.063328	0.371450
H75	H	0.355609	0.143880	0.220502
H76	H	0.535052	0.189660	-0.140373
H77	H	0.534918	0.189620	0.140394
H78	H	1.102474	0.004956	-0.557872
H79	H	0.449469	0.040333	-0.140379
C80	C	0.905521	-0.434835	-0.162958
C81	C	0.812511	-0.400639	-0.179654
C82	C	0.766273	-0.427800	-0.266490
C83	C	0.813045	-0.489156	-0.336630
C84	C	0.906060	-0.523355	-0.319936
C85	C	0.952298	-0.496195	-0.233100
H86	H	0.777883	-0.355217	-0.127730
H87	H	0.697417	-0.402483	-0.278847
H88	H	0.778817	-0.509262	-0.400911
H89	H	0.940688	-0.568778	-0.371859
H90	H	1.021154	-0.521512	-0.220742
H91	H	0.962240	-0.025051	-0.441965
H92	H	0.852183	0.084959	-0.558170
H93	H	0.882181	0.225096	-0.442096
H94	H	1.066850	-0.342314	-0.140554
H95	H	1.138919	-0.456457	-0.000186
H96	H	1.066897	-0.342186	0.140214
H97	H	1.022224	0.255126	-0.558180
H98	H	0.563905	-0.031573	0.000005
