data_functionalizedCrystal
_audit_creation_method	'MofGen! by Chris Wilmer'
_symmetry_space_group_name_H-M	'P1'
_symmetry_Int_Tables_number	1
_symmetry_cell_setting	triclinic
loop_
_symmetry_equiv_pos_as_xyz
  x,y,z
_cell_length_a	25.639234
_cell_length_b	12.759401
_cell_length_c	12.759399
_cell_angle_alpha	90.018746
_cell_angle_beta	89.985906
_cell_angle_gamma	89.992794
loop_
_atom_site_label
_atom_site_type_symbol
_atom_site_fract_x
_atom_site_fract_y
_atom_site_fract_z
Zn1	Zn	-0.295593	1.606136	-0.418287
Zn2	Zn	-0.208168	1.606060	-0.593957
Zn3	Zn	-0.208176	1.430471	-0.418302
Zn4	Zn	-0.295577	1.430424	-0.593934
O5	O	-0.251878	1.518273	-0.506120
O6	O	-0.283999	1.753147	-0.441594
O7	O	-0.135004	1.582756	-0.570672
O8	O	-0.219782	1.453825	-0.271279
O9	O	-0.219768	1.753091	-0.570658
O10	O	-0.284007	1.582886	-0.271268
O11	O	-0.135010	1.453751	-0.441619
O12	O	-0.219767	1.283444	-0.441596
O13	O	-0.368744	1.453744	-0.570618
O14	O	-0.283980	1.283409	-0.570632
O15	O	-0.368756	1.582840	-0.441571
O16	O	-0.219753	1.582710	-0.740975
O17	O	-0.283972	1.453670	-0.740958
C18	C	-0.251873	1.245306	-0.506114
C19	C	-0.251882	1.128529	-0.506137
C20	C	-0.251871	1.518205	-0.779087
C21	C	-0.251885	1.518272	-0.895864
C22	C	-0.388251	1.518295	-0.506090
C23	C	-0.446365	1.518305	-0.506078
C24	C	-0.697547	1.451155	-0.573140
C25	C	-0.642943	1.451137	-0.573164
O26	O	-0.614696	1.393943	-0.630288
N27	N	-0.615639	1.518345	-0.505993
C28	C	-0.642943	1.585569	-0.438786
O29	O	-0.614705	1.642732	-0.381653
C30	C	-0.697546	1.585581	-0.438758
C31	C	-0.724847	1.518376	-0.505941
C32	C	-0.724848	1.383954	-0.640317
C33	C	-0.779448	1.383974	-0.640294
C34	C	-0.806748	1.451195	-0.573095
C35	C	-0.779447	1.518396	-0.505918
C36	C	-0.724849	1.652798	-0.371547
C37	C	-0.779456	1.652804	-0.371524
C38	C	-0.806757	1.585599	-0.438707
C39	C	-0.861348	1.585636	-0.438697
N40	N	-0.888651	1.518428	-0.505868
C41	C	-0.861352	1.451207	-0.573067
C42	C	-0.528272	1.585536	-0.438849
C43	C	-0.473670	1.585530	-0.438882
C44	C	-0.473673	1.451096	-0.573258
C45	C	-0.528277	1.451109	-0.573230
C46	C	-0.555576	1.518328	-0.506020
C47	C	-0.976017	1.451255	-0.573015
C48	C	-1.030622	1.451284	-0.572990
C49	C	-1.030614	1.585714	-0.438610
C50	C	-0.976013	1.585689	-0.438639
C51	C	-0.948716	1.518451	-0.505845
O52	O	-0.889629	1.642798	-0.381599
O53	O	-0.889596	1.394044	-0.630180
C54	C	-0.116036	1.518311	-0.506074
C55	C	-0.057922	1.518505	-0.505790
C56	C	-0.251884	1.792306	-0.506127
C57	C	-0.251887	1.909083	-0.506130
C58	C	-0.285325	1.963976	-0.438932
C59	C	-0.285325	2.073700	-0.438938
C60	C	-0.218443	2.073628	-0.573342
C61	C	-0.218446	1.963906	-0.573340
C62	C	-0.323937	1.964018	-0.361332
C63	C	-0.323937	2.073742	-0.361338
C64	C	-0.218427	1.451164	-0.950815
C65	C	-0.218435	1.451236	-1.060539
C66	C	-0.285365	1.585526	-1.060352
C67	C	-0.285354	1.585459	-0.950630
C68	C	-0.179787	1.373630	-0.950923
C69	C	-0.179795	1.373701	-1.060647
C70	C	-0.251897	1.518369	-0.232087
C71	C	-0.251905	1.518411	-0.115310
H72	H	-1.052848	1.396557	-0.627702
H73	H	-0.309439	1.930006	-0.284042
H74	H	-0.139298	1.395460	-0.921164
H75	H	-0.191222	1.919217	-0.628068
H76	H	-0.191217	2.118279	-0.628064
H77	H	-0.362401	2.107776	-0.390473
N78	N	-0.309577	2.113232	-0.253565
H79	H	-0.303165	2.051713	-0.205469
H80	H	-0.276919	2.157227	-0.258334
H81	H	-0.953784	1.640420	-0.383940
N82	N	-0.321436	1.657850	-0.891359
H83	H	-0.342639	1.700418	-0.942705
H84	H	-0.345611	1.615025	-0.845853
H85	H	-0.194256	1.296296	-0.916950
H86	H	-0.801680	1.707539	-0.316787
H87	H	-0.801672	1.329246	-0.694999
H88	H	-0.312614	1.640228	-1.104955
N89	N	-0.377571	1.924574	-0.390194
H90	H	-0.401503	1.986114	-0.403080
H91	H	-0.375195	1.880550	-0.455818
N92	N	-0.128865	1.412405	-1.105747
H93	H	-0.104249	1.431051	-1.046835
H94	H	-0.112786	1.355563	-1.150393
N95	N	-0.194120	1.265928	-1.100195
H96	H	-0.200510	1.217784	-1.038701
H97	H	-0.226782	1.270670	-1.144169
H98	H	-0.953798	1.396495	-0.627731
H99	H	-0.451446	1.640266	-0.384186
N100	N	-0.695417	1.311426	-0.712796
H101	H	-0.704925	1.327717	-0.787855
H102	H	-0.656689	1.321622	-0.702551
N103	N	-0.557721	1.378624	-0.645690
H104	H	-0.532136	1.336044	-0.688263
H105	H	-0.580374	1.330019	-0.602914
H106	H	-1.052851	1.640446	-0.383901
N107	N	-0.444223	1.378591	-0.645740
H108	H	-0.405491	1.388784	-0.635556
H109	H	-0.453766	1.303564	-0.629380
H110	H	-0.550496	1.640282	-0.384120
H111	H	-0.702630	1.707525	-0.316840
