data_functionalizedCrystal
_audit_creation_method	'MofGen! by Chris Wilmer'
_symmetry_space_group_name_H-M	'P1'
_symmetry_Int_Tables_number	1
_symmetry_cell_setting	triclinic
loop_
_symmetry_equiv_pos_as_xyz
  x,y,z
_cell_length_a	13.185407
_cell_length_b	13.339070
_cell_length_c	10.065875
_cell_angle_alpha	101.189098
_cell_angle_beta	84.269124
_cell_angle_gamma	83.801389
loop_
_atom_site_label
_atom_site_type_symbol
_atom_site_fract_x
_atom_site_fract_y
_atom_site_fract_z
O1	O	1.383876	-0.261233	-0.113462
O2	O	1.095045	-0.166497	-0.113470
O3	O	1.206312	-0.352103	-0.113463
O4	O	1.272610	-0.075627	-0.113469
O5	O	1.185128	-0.316601	0.113525
O6	O	1.073861	-0.130994	0.113518
O7	O	1.362693	-0.225731	0.113526
Zn8	Zn	1.214913	-0.172726	0.149561
Zn9	Zn	1.242824	-0.219502	-0.149505
O10	O	1.251426	-0.040124	0.113518
C11	C	1.046731	-0.139141	0.000023
C12	C	0.934326	-0.110535	0.000020
C13	C	0.562463	-0.383547	0.000032
C14	C	0.668071	-0.410426	0.000043
C15	C	0.734640	-0.335456	0.000037
C16	C	0.695591	-0.233602	0.000020
C17	C	0.589971	-0.206719	0.000019
C18	C	0.762148	-0.158627	0.000024
C19	C	0.723099	-0.056774	0.000007
C20	C	0.617489	-0.029895	0.000005
C21	C	0.550920	-0.104866	0.000011
C22	C	0.867768	-0.185510	0.000025
C23	C	0.895276	-0.008682	0.000012
C24	C	0.789668	0.018197	0.000001
C25	C	1.184521	-0.368993	0.000029
C26	C	1.151141	-0.472207	0.000022
C27	C	1.410695	-0.907663	0.000030
C28	C	1.442060	-0.810688	0.000044
C29	C	1.369333	-0.726064	0.000038
C30	C	1.265235	-0.738423	0.000020
C31	C	1.233866	-0.835406	0.000017
C32	C	1.192504	-0.653806	0.000024
C33	C	1.088406	-0.666166	0.000006
C34	C	1.057042	-0.763140	0.000002
C35	C	1.129769	-0.847765	0.000008
C36	C	1.223873	-0.556823	0.000027
C37	C	1.047044	-0.484566	0.000014
C38	C	1.015679	-0.581541	-0.000000
C39	C	1.411007	-0.253086	0.000030
C40	C	1.523412	-0.281694	0.000024
C41	C	1.273217	-0.023235	0.000024
C42	C	1.306598	0.079978	0.000021
N43	N	1.195872	-0.140805	0.353665
N44	N	1.261871	-0.251432	-0.353609
C45	C	1.236191	-0.208400	0.421447
C46	C	1.221546	-0.183827	0.578613
H47	H	0.820630	-0.357347	0.000046
H48	H	0.699857	-0.493354	0.000063
O49	O	0.903401	-0.594871	0.000003
H50	H	0.893812	-0.676520	0.000016
O51	O	1.135790	-0.040045	0.430902
H52	H	1.133724	-0.036553	0.542227
O53	O	0.437008	-0.075876	0.000017
H54	H	0.411855	-0.121433	-0.092493
O55	O	1.095934	-0.952362	-0.000013
H56	H	1.040854	-0.947870	0.092494
O57	O	1.321955	-0.352195	0.569150
H58	H	1.349253	-0.397974	0.642712
H59	H	0.899551	-0.268441	0.000037
O60	O	0.968590	-0.393305	0.000002
H61	H	1.007892	-0.323796	-0.000008
H62	H	0.508251	-0.444571	0.000075
H63	H	0.585698	0.053043	0.000005
O64	O	1.296258	-0.309159	0.344182
H65	H	1.375882	-0.314588	0.371492
O66	O	1.403158	-0.621466	0.000055
H67	H	1.381896	-0.594765	-0.092461
O68	O	0.747545	0.128056	0.000007
H69	H	0.662922	0.134150	0.000021
H70	H	0.949476	0.052366	0.000012
O71	O	1.336146	-0.543504	0.000022
H72	H	1.363890	-0.564984	0.092531
O73	O	0.944764	-0.776467	0.000006
H74	H	0.934876	-0.833398	-0.092504
O75	O	1.554333	-0.797369	0.000036
H76	H	1.582079	-0.818851	0.092543
O77	O	1.489126	-0.998928	0.000057
H78	H	1.487710	-1.059312	-0.092459
O79	O	1.161461	-0.083062	0.655845
H80	H	1.159395	-0.079570	0.767169
