data_functionalizedCrystal
_audit_creation_method	'MofGen! by Chris Wilmer'
_symmetry_space_group_name_H-M	'P1'
_symmetry_Int_Tables_number	1
_symmetry_cell_setting	triclinic
loop_
_symmetry_equiv_pos_as_xyz
  x,y,z
_cell_length_a	16.992694
_cell_length_b	12.811415
_cell_length_c	16.053802
_cell_angle_alpha	87.154093
_cell_angle_beta	87.249047
_cell_angle_gamma	87.341347
loop_
_atom_site_label
_atom_site_type_symbol
_atom_site_fract_x
_atom_site_fract_y
_atom_site_fract_z
O1	O	1.045189	0.217501	-0.085790
O2	O	1.545189	0.717501	0.414210
O3	O	0.816888	0.215068	-0.085630
O4	O	1.316888	0.715068	0.414370
O5	O	0.936237	0.064659	-0.074225
O6	O	1.436237	0.564659	0.425775
O7	O	0.925840	0.367910	-0.097194
O8	O	1.425840	0.867910	0.402806
O9	O	0.929667	0.072902	0.064009
O10	O	1.429667	0.572902	0.564009
O11	O	0.810318	0.223311	0.052604
O12	O	1.310318	0.723311	0.552604
O13	O	1.038619	0.225744	0.052444
O14	O	1.538619	0.725744	0.552444
Zn15	Zn	0.923426	0.225836	0.074472
Zn16	Zn	1.423426	0.725836	0.574472
Zn17	Zn	0.932081	0.214976	-0.107657
Zn18	Zn	1.432081	0.714976	0.392343
O19	O	0.919271	0.376153	0.041040
O20	O	1.419271	0.876153	0.541040
C21	C	0.784369	0.216062	-0.016279
C22	C	1.284369	0.716062	0.483721
C23	C	0.697261	0.206729	-0.015582
C24	C	1.197261	0.706729	0.484418
C25	C	0.647640	0.296772	-0.022401
C26	C	1.147640	0.796772	0.477599
C27	C	0.565792	0.287998	-0.021725
C28	C	1.065792	0.787998	0.478275
C29	C	0.533568	0.189179	-0.014236
C30	C	1.033568	0.689179	0.485764
C31	C	0.583196	0.099129	-0.007413
C32	C	1.083196	0.599129	0.492587
C33	C	0.665042	0.107905	-0.008084
C34	C	1.165042	0.607905	0.491916
C35	C	0.289720	0.152808	-0.011459
C36	C	0.789720	0.652808	0.488541
C37	C	0.207868	0.144039	-0.010791
C38	C	0.707868	0.644039	0.489209
C39	C	0.190469	0.332909	-0.025102
C40	C	0.690469	0.832909	0.474898
C41	C	0.272318	0.341676	-0.025777
C42	C	0.772318	0.841676	0.474223
C43	C	0.321938	0.251626	-0.018950
C44	C	0.821938	0.751626	0.481050
N45	N	0.449907	0.180208	-0.013547
N46	N	0.949907	0.680208	0.486453
N47	N	0.405597	0.260598	-0.019633
N48	N	0.905597	0.760598	0.480367
C49	C	0.932168	0.029798	-0.002158
C50	C	1.432168	0.529798	0.497842
C51	C	0.929823	-0.086357	0.006634
C52	C	1.429823	0.413643	0.506634
C53	C	0.932565	-0.313602	-0.127565
C54	C	1.432565	0.186398	0.372435
C55	C	0.930362	-0.422741	-0.119308
C56	C	1.430362	0.077259	0.380692
C57	C	0.923208	-0.413775	0.031403
C58	C	1.423208	0.086225	0.531403
C59	C	0.925411	-0.304636	0.023147
C60	C	1.425411	0.195364	0.523147
C61	C	0.930091	-0.254554	-0.056340
C62	C	1.430091	0.245446	0.443660
C63	C	0.932300	-0.145414	-0.064596
C64	C	1.432300	0.354586	0.435404
C65	C	0.925140	-0.136449	0.086115
C66	C	1.425140	0.363551	0.586115
C67	C	0.922937	-0.245588	0.094371
C68	C	1.422937	0.254412	0.594371
C69	C	1.071138	0.224750	-0.016908
C70	C	1.571138	0.724750	0.483092
C71	C	1.158246	0.234083	-0.017611
C72	C	1.658246	0.734083	0.482389
C73	C	0.923339	0.411014	-0.031030
C74	C	1.423339	0.911014	0.468970
C75	C	0.925685	0.527169	-0.039827
C76	C	1.425685	1.027169	0.460173
N77	N	0.917524	0.233247	0.198770
N78	N	1.417524	0.733247	0.698770
N79	N	0.937989	0.207557	-0.231955
N80	N	1.437989	0.707557	0.268045
C81	C	0.968326	0.169274	0.247315
C82	C	1.468326	0.669274	0.747315
C83	C	0.964205	0.174469	0.334328
C84	C	1.464205	0.674469	0.834328
C85	C	0.909286	0.243643	0.372794
C86	C	1.409286	0.743643	0.872794
C87	C	0.858479	0.307619	0.324243
C88	C	1.358479	0.807619	0.824243
C89	C	0.862596	0.302418	0.237232
C90	C	1.362596	0.802418	0.737232
C91	C	0.891299	0.266332	0.632483
C92	C	1.391299	0.766332	1.132483
C93	C	0.887187	0.271530	0.719500
C94	C	1.387187	0.771530	1.219500
C95	C	0.992913	0.138378	0.729579
C96	C	1.492913	0.638378	1.229579
C97	C	0.997029	0.133187	0.642566
C98	C	1.497029	0.633187	1.142566
C99	C	0.946219	0.197159	0.594023
C100	C	1.446219	0.697159	1.094023
N101	N	0.905074	0.248957	0.461735
N102	N	1.405074	0.748957	0.961735
N103	N	0.950428	0.191839	0.505084
N104	N	1.450428	0.691839	1.005084
H105	H	0.556953	0.018669	-0.001303
H106	H	1.056953	0.518669	0.498697
H107	H	0.821227	0.354511	0.197707
H108	H	1.321227	0.854511	0.697707
H109	H	1.041749	0.076860	0.611249
H110	H	1.541749	0.576860	1.111249
H111	H	0.923128	-0.088360	0.144111
H112	H	1.423128	0.411640	0.644111
Cl113	Cl	0.503414	0.401201	-0.030304
Cl114	Cl	1.003414	0.901201	0.469696
Cl115	Cl	0.688142	0.421008	-0.031823
Cl116	Cl	1.188142	0.921008	0.468177
Cl117	Cl	0.312822	0.465910	-0.035198
Cl118	Cl	0.812822	0.965910	0.464802
Cl119	Cl	1.037375	0.082312	0.198967
Cl120	Cl	1.537375	0.582312	0.698967
Cl121	Cl	0.827429	0.346756	0.571463
Cl122	Cl	1.327429	0.846756	1.071463
H123	H	1.034280	0.086293	0.769111
H124	H	1.534280	0.586293	1.269111
Cl125	Cl	0.933471	-0.496970	-0.208853
Cl126	Cl	1.433471	0.003030	0.291147
H127	H	0.150060	0.406222	-0.030658
H128	H	0.650060	0.906222	0.469342
Cl129	Cl	0.167358	0.019802	-0.001357
Cl130	Cl	0.667358	0.519802	0.498643
Cl131	Cl	0.917047	-0.308558	0.194292
Cl132	Cl	1.417047	0.191442	0.694292
H133	H	1.005572	0.122376	0.373853
H134	H	1.505572	0.622376	0.873853
H135	H	0.813758	0.363939	0.355567
H136	H	1.313758	0.863939	0.855567
H137	H	0.330111	0.079483	-0.005899
H138	H	0.830111	0.579483	0.494101
Cl139	Cl	0.818140	0.358503	0.767851
Cl140	Cl	1.318140	0.858503	1.267851
H141	H	0.936383	-0.272826	-0.192286
H142	H	1.436383	0.227174	0.307714
H143	H	0.936113	-0.104639	-0.129318
H144	H	1.436113	0.395361	0.370682
Cl145	Cl	0.727424	-0.005298	0.000493
Cl146	Cl	1.227424	0.494702	0.500493
Cl147	Cl	0.917302	-0.476751	0.131321
Cl148	Cl	1.417302	0.023249	0.631321
