data_functionalizedCrystal
_audit_creation_method	'MofGen! by Chris Wilmer'
_symmetry_space_group_name_H-M	'P1'
_symmetry_Int_Tables_number	1
_symmetry_cell_setting	triclinic
loop_
_symmetry_equiv_pos_as_xyz
  x,y,z
_cell_length_a	21.395364
_cell_length_b	12.759394
_cell_length_c	21.395356
_cell_angle_alpha	89.976253
_cell_angle_beta	89.976411
_cell_angle_gamma	90.029788
loop_
_atom_site_label
_atom_site_type_symbol
_atom_site_fract_x
_atom_site_fract_y
_atom_site_fract_z
Zn1	Zn	0.957922	-0.417874	-0.354279
Zn2	Zn	1.457922	0.082126	0.145721
Zn3	Zn	0.957856	-0.593567	-0.249508
Zn4	Zn	1.457856	-0.093567	0.250492
Zn5	Zn	0.853139	-0.417948	-0.249515
Zn6	Zn	1.353139	0.082052	0.250485
Zn7	Zn	0.853136	-0.593557	-0.354249
Zn8	Zn	1.353136	-0.093557	0.145751
O9	O	0.905513	-0.505737	-0.301888
O10	O	1.405513	-0.005737	0.198112
O11	O	1.045591	-0.441153	-0.340390
O12	O	1.545591	0.058847	0.159610
O13	O	0.943938	-0.570305	-0.161831
O14	O	1.443938	-0.070305	0.338169
O15	O	0.867068	-0.270917	-0.263428
O16	O	1.367068	0.229083	0.236572
O17	O	1.045542	-0.570234	-0.263416
O18	O	1.545542	-0.070234	0.236584
O19	O	0.944052	-0.270863	-0.340397
O20	O	1.444052	0.229137	0.159603
O21	O	0.867004	-0.441279	-0.161837
O22	O	1.367004	0.058721	0.338163
O23	O	0.765461	-0.441270	-0.263399
O24	O	1.265461	0.058730	0.236601
O25	O	0.867062	-0.570218	-0.441930
O26	O	1.367062	-0.070218	0.058070
O27	O	0.765458	-0.570290	-0.340346
O28	O	1.265458	-0.070290	0.159654
O29	O	0.944049	-0.441144	-0.441953
O30	O	1.444049	0.058856	0.058047
O31	O	0.943935	-0.740587	-0.263387
O32	O	1.443935	-0.240587	0.236613
O33	O	0.866997	-0.740580	-0.340339
O34	O	1.366997	-0.240580	0.159661
C35	C	0.742726	-0.505788	-0.301870
C36	C	1.242726	-0.005788	0.198130
C37	C	0.673084	-0.505835	-0.301877
C38	C	1.173084	-0.005835	0.198123
C39	C	0.640419	-0.438733	-0.342020
C40	C	1.140419	0.061267	0.157980
C41	C	0.574984	-0.438705	-0.342022
C42	C	1.074984	0.061295	0.157978
C43	C	0.542216	-0.505798	-0.301889
C44	C	1.042216	-0.005798	0.198111
C45	C	0.574889	-0.572905	-0.261739
C46	C	1.074889	-0.072905	0.238261
C47	C	0.640323	-0.572923	-0.261733
C48	C	1.140323	-0.072923	0.238267
C49	C	0.438507	-0.600414	-0.296855
C50	C	0.938507	-0.100414	0.203145
C51	C	0.373074	-0.600397	-0.296865
C52	C	0.873074	-0.100397	0.203135
C53	C	0.340395	-0.505740	-0.301903
C54	C	0.840395	-0.005740	0.198097
C55	C	0.373157	-0.411097	-0.306943
C56	C	0.873157	0.088903	0.193057
C57	C	0.438591	-0.411115	-0.306938
C58	C	0.938591	0.088885	0.193062
C59	C	0.471264	-0.505785	-0.301890
C60	C	0.971264	-0.005785	0.198110
C61	C	0.236777	-0.438602	-0.342050
C62	C	0.736777	0.061398	0.157950
C63	C	0.171341	-0.438572	-0.342048
C64	C	0.671341	0.061428	0.157952
C65	C	0.171248	-0.572781	-0.261768
C66	C	0.671248	-0.072781	0.238232
C67	C	0.236683	-0.572802	-0.261766
C68	C	0.736683	-0.072802	0.238234
C69	C	0.269444	-0.505713	-0.301911
C70	C	0.769444	-0.005713	0.198089
C71	C	0.905476	-0.778704	-0.301873
C72	C	1.405476	-0.278704	0.198127
C73	C	0.905517	-0.895481	-0.301887
C74	C	1.405517	-0.395481	0.198113
C75	C	0.985692	-0.895435	-0.221817
C76	C	1.485692	-0.395435	0.278183
C77	C	1.025796	-0.950272	-0.181789
C78	C	1.525796	-0.450272	0.318211
C79	C	1.025832	-1.059994	-0.181806
C80	C	1.525832	-0.559994	0.318194
C81	C	0.985762	-1.114880	-0.221857
C82	C	1.485762	-0.614880	0.278143
C83	C	0.945658	-1.060042	-0.261884
C84	C	1.445658	-0.560042	0.238116
C85	C	0.945625	-0.950318	-0.261862
C86	C	1.445625	-0.450318	0.238138
C87	C	0.865487	-1.060089	-0.341957
C88	C	1.365487	-0.560089	0.158043
C89	C	0.865447	-0.950367	-0.341937
C90	C	1.365447	-0.450367	0.158063
C91	C	0.825417	-1.114975	-0.382007
C92	C	1.325417	-0.614975	0.117993
C93	C	0.785309	-1.060137	-0.422033
C94	C	1.285309	-0.560137	0.077967
C95	C	0.785274	-0.950409	-0.422013
C96	C	1.285274	-0.450409	0.077987
C97	C	0.825343	-0.895529	-0.381965
C98	C	1.325343	-0.395529	0.118035
C99	C	1.068936	-0.505686	-0.301906
C100	C	1.568936	-0.005686	0.198094
C101	C	1.138578	-0.505664	-0.301913
C102	C	1.638578	-0.005664	0.198087
C103	C	0.905568	-0.231703	-0.301917
C104	C	1.405568	0.268297	0.198083
C105	C	0.905591	-0.114926	-0.301929
C106	C	1.405591	0.385074	0.198071
C107	C	0.905562	-0.505671	-0.465311
C108	C	1.405562	-0.005671	0.034689
C109	C	0.905583	-0.505644	-0.534952
C110	C	1.405583	-0.005644	-0.034952
C111	C	0.865534	-0.438452	-0.567658
C112	C	1.365534	0.061548	-0.067658
C113	C	0.865532	-0.438433	-0.633094
C114	C	1.365532	0.061567	-0.133094
C115	C	0.905590	-0.505594	-0.665821
C116	C	1.405590	-0.005594	-0.165821
C117	C	0.945642	-0.572798	-0.633107
C118	C	1.445642	-0.072798	-0.133107
C119	C	0.945639	-0.572823	-0.567673
C120	C	1.445639	-0.072823	-0.067673
C121	C	0.962044	-0.513829	-0.769507
C122	C	1.462044	-0.013829	-0.269507
C123	C	0.962048	-0.513797	-0.834940
C124	C	1.462048	-0.013797	-0.334940
C125	C	0.905601	-0.505523	-0.867642
C126	C	1.405601	-0.005523	-0.367642
C127	C	0.849147	-0.497259	-0.834902
C128	C	1.349147	0.002741	-0.334902
C129	C	0.849143	-0.497284	-0.769468
C130	C	1.349143	0.002716	-0.269468
C131	C	0.905598	-0.505575	-0.736773
C132	C	1.405598	-0.005575	-0.236773
C133	C	0.865546	-0.438307	-0.971300
C134	C	1.365546	0.061693	-0.471300
C135	C	0.865543	-0.438294	-1.036737
C136	C	1.365543	0.061706	-0.536737
C137	C	0.945658	-0.572654	-1.036749
C138	C	1.445658	-0.072654	-0.536749
C139	C	0.945656	-0.572672	-0.971313
C140	C	1.445656	-0.072672	-0.471313
C141	C	0.905601	-0.505493	-0.938593
C142	C	1.405601	-0.005493	-0.438593
C143	C	0.905500	-0.505726	-0.139100
C144	C	1.405500	-0.005726	0.360900
C145	C	0.905600	-0.505457	-0.069459
C146	C	1.405600	-0.005457	0.430541
H147	H	0.263279	-0.627448	-0.229080
H148	H	0.763279	-0.127448	0.270920
C149	C	0.741236	-1.120519	-0.466082
C150	C	1.241236	-0.620519	0.033918
N151	N	0.708038	-1.166003	-0.499259
N152	N	1.208038	-0.666003	0.000741
H153	H	0.978255	-0.627538	-0.541044
H154	H	1.478255	-0.127538	-0.041044
C155	C	0.538843	-0.646708	-0.217592
C156	C	1.038843	-0.146708	0.282408
N157	N	0.511694	-0.702297	-0.184338
N158	N	1.011694	-0.202297	0.315662
H159	H	0.985801	-1.204221	-0.221872
H160	H	1.485801	-0.704221	0.278128
H161	H	0.144746	-0.383923	-0.374736
H162	H	0.644746	0.116077	0.125264
H163	H	0.978276	-0.627336	-1.063394
H164	H	1.478276	-0.127336	-0.563394
H165	H	0.803177	-0.490558	-0.742813
H166	H	1.303177	0.009442	-0.242813
H167	H	1.058422	-0.905574	-0.149181
H168	H	1.558422	-0.405574	0.350819
H169	H	0.985658	-0.806093	-0.221791
H170	H	1.485658	-0.306093	0.278209
H171	H	0.667089	-0.384103	-0.374708
H172	H	1.167089	0.115897	0.125292
H173	H	0.803182	-0.490515	-0.861526
H174	H	1.303182	0.009485	-0.361526
C175	C	0.539045	-0.364890	-0.386188
C176	C	1.039045	0.135110	0.113812
N177	N	0.511977	-0.309295	-0.419455
N178	N	1.011977	0.190705	0.080545
C179	C	0.272817	-0.364794	-0.386204
C180	C	0.772817	0.135206	0.113796
N181	N	0.299960	-0.309200	-0.419460
N182	N	0.799960	0.190800	0.080540
H183	H	0.752619	-0.905766	-0.454611
H184	H	1.252619	-0.405766	0.045389
H185	H	0.465263	-0.334054	-0.311040
H186	H	0.965263	0.165946	0.188960
C187	C	0.825458	-1.235672	-0.382023
C188	C	1.325458	-0.735672	0.117977
N189	N	0.825485	-1.326582	-0.382034
N190	N	1.325485	-0.826582	0.117966
C191	C	0.821485	-0.364371	-1.072713
C192	C	1.321485	0.135629	-0.572713
N193	N	0.788301	-0.308687	-1.099811
N194	N	1.288301	0.191313	-0.599811
C195	C	1.069948	-1.120317	-0.137774
C196	C	1.569948	-0.620317	0.362226
N197	N	1.103175	-1.165752	-0.104608
N198	N	1.603175	-0.665752	0.395392
H199	H	0.825314	-0.806188	-0.381942
H200	H	1.325314	-0.306188	0.118058
C201	C	0.337043	-0.704505	-0.291314
C202	C	0.837043	-0.204505	0.208686
N203	N	0.309905	-0.782921	-0.287128
N204	N	0.809905	-0.282921	0.212872
H205	H	0.978270	-0.627384	-0.944684
H206	H	1.478270	-0.127384	-0.444684
H207	H	0.832930	-0.383606	-0.944658
H208	H	1.332930	0.116394	-0.444658
C209	C	0.337215	-0.306964	-0.312479
C210	C	0.837215	0.193036	0.187521
N211	N	0.310141	-0.228534	-0.316648
N212	N	0.810141	0.271466	0.183352
H213	H	0.832915	-0.383753	-0.541021
H214	H	1.332915	0.116247	-0.041021
H215	H	0.465109	-0.677500	-0.292752
H216	H	0.965109	-0.177500	0.207248
H217	H	0.144569	-0.627410	-0.229090
H218	H	0.644569	-0.127410	0.270910
H219	H	0.832920	-0.383712	-0.659728
H220	H	1.332920	0.116288	-0.159728
H221	H	0.666919	-0.627568	-0.229043
H222	H	1.166919	-0.127568	0.270957
C223	C	1.024148	-0.522885	-0.870948
C224	C	1.524148	-0.022885	-0.370948
N225	N	1.070924	-0.529733	-0.898067
N226	N	1.570924	-0.029733	-0.398067
H227	H	1.008014	-0.520558	-0.742887
H228	H	1.508014	-0.020558	-0.242887
C229	C	0.989621	-0.646818	-0.669108
C230	C	1.489621	-0.146818	-0.169108
N231	N	1.022715	-0.702627	-0.696224
N232	N	1.522715	-0.202627	-0.196224
