data_functionalizedCrystal
_audit_creation_method	'MofGen! by Chris Wilmer'
_symmetry_space_group_name_H-M	'P1'
_symmetry_Int_Tables_number	1
_symmetry_cell_setting	triclinic
loop_
_symmetry_equiv_pos_as_xyz
  x,y,z
_cell_length_a	12.759401
_cell_length_b	19.121117
_cell_length_c	19.120904
_cell_angle_alpha	85.263578
_cell_angle_beta	92.425824
_cell_angle_gamma	87.523422
loop_
_atom_site_label
_atom_site_type_symbol
_atom_site_fract_x
_atom_site_fract_y
_atom_site_fract_z
Zn1	Zn	1.560948	0.297099	-0.409689
Zn2	Zn	1.560797	0.409746	-0.297030
Zn3	Zn	1.393092	0.292101	-0.292048
Zn4	Zn	1.377353	0.414727	-0.414657
O5	O	1.473048	0.353418	-0.353356
O6	O	1.707948	0.312049	-0.394750
O7	O	1.545075	0.389963	-0.197909
O8	O	1.422009	0.194302	-0.303490
O9	O	1.707837	0.394810	-0.311980
O10	O	1.545332	0.197974	-0.389920
O11	O	1.421863	0.303530	-0.194249
O12	O	1.243984	0.308361	-0.308307
O13	O	1.395183	0.403300	-0.512458
O14	O	1.232421	0.398453	-0.398387
O15	O	1.530070	0.316879	-0.508808
O16	O	1.529813	0.508869	-0.316797
O17	O	1.395037	0.512529	-0.403217
C18	C	1.200082	0.353406	-0.353345
C19	C	1.083303	0.353418	-0.353358
C20	C	1.028490	0.310409	-0.396530
C21	C	0.918765	0.310416	-0.396535
C22	C	0.918677	0.396448	-0.310195
C23	C	1.028400	0.396436	-0.310187
C24	C	1.460728	0.536229	-0.361102
C25	C	1.455552	0.614438	-0.364440
C26	C	1.422787	1.056868	-0.385627
C27	C	1.427651	0.983383	-0.382483
C28	C	1.500301	0.944715	-0.335950
C29	C	1.568100	0.979537	-0.292562
C30	C	1.563240	1.053021	-0.295710
C31	C	1.518491	0.722744	-0.324200
C32	C	1.523343	0.649254	-0.321054
C33	C	1.382895	0.653106	-0.410977
C34	C	1.378038	0.726591	-0.414117
C35	C	1.445840	0.761406	-0.370732
C36	C	1.505272	0.869601	-0.332734
C37	C	1.440873	0.836519	-0.373952
C38	C	1.747079	0.353431	-0.353367
C39	C	1.863855	0.353437	-0.353372
C40	C	1.460888	0.361203	-0.536876
C41	C	1.455706	0.364520	-0.615082
C42	C	1.485406	1.169893	-0.345583
C43	C	1.490578	1.091685	-0.342241
C44	C	1.523496	0.321086	-0.649924
C45	C	1.518614	0.324200	-0.723406
C46	C	1.445947	0.370752	-0.762045
C47	C	1.378149	0.414188	-0.727198
C48	C	1.383027	0.411070	-0.653717
C49	C	1.427703	0.382415	-0.984006
C50	C	1.422833	0.385532	-1.057492
C51	C	1.563297	0.295542	-1.053695
C52	C	1.568172	0.292431	-0.980212
C53	C	1.500371	0.335864	-0.945372
C54	C	1.440958	0.373938	-0.837156
C55	C	1.505356	0.332674	-0.870262
C56	C	1.485224	0.345613	-0.170547
C57	C	1.490623	0.342098	-0.092334
H58	H	1.363628	1.088346	-0.423521
C59	C	0.858278	0.443771	-0.262715
C60	C	0.879033	0.434509	-0.182487
C61	C	0.818635	0.481834	-0.135007
C62	C	0.737483	0.538422	-0.167754
C63	C	0.716725	0.547686	-0.247985
C64	C	0.777122	0.500361	-0.295466
H65	H	0.939110	0.392617	-0.158243
H66	H	0.834003	0.474975	-0.075614
H67	H	0.692774	0.573455	-0.132606
H68	H	0.656648	0.589578	-0.272230
H69	H	0.761755	0.507220	-0.354858
C70	C	1.088704	0.443751	-0.262697
C71	C	1.028316	0.491077	-0.215218
C72	C	1.088621	0.538388	-0.167728
C73	C	1.209312	0.538372	-0.167718
C74	C	1.269706	0.491044	-0.215200
C75	C	1.209402	0.443734	-0.262689
H76	H	0.938967	0.491090	-0.215223
H77	H	1.043912	0.573423	-0.132580
H78	H	1.253953	0.573394	-0.132564
H79	H	1.359055	0.491031	-0.215194
H80	H	1.254110	0.408699	-0.297838
C81	C	1.637808	1.091323	-0.247982
C82	C	1.635289	1.077878	-0.167560
C83	C	1.709862	1.116180	-0.119834
C84	C	1.786953	1.167926	-0.152529
C85	C	1.789475	1.181373	-0.232956
C86	C	1.714902	1.143071	-0.280682
H87	H	1.578219	1.039571	-0.143353
H88	H	1.707995	1.106225	-0.060297
H89	H	1.842156	1.196279	-0.117199
H90	H	1.846545	1.219680	-0.257163
H91	H	1.716769	1.153026	-0.340219
C92	C	1.353079	0.945089	-0.430213
C93	C	1.233361	0.955021	-0.424843
C94	C	1.158788	0.916730	-0.472579
C95	C	1.203933	0.868507	-0.525685
C96	C	1.323658	0.858573	-0.531058
C97	C	1.398230	0.896864	-0.483322
H98	H	1.199936	0.990720	-0.385528
H99	H	1.070160	0.924083	-0.468601
H100	H	1.148730	0.840162	-0.561022
H101	H	1.357082	0.822874	-0.570373
H102	H	1.486858	0.889511	-0.487300
H103	H	1.381725	0.868006	-0.411842
C104	C	1.308462	0.458850	-0.615385
C105	C	1.188744	0.453532	-0.625233
C106	C	1.114175	0.501311	-0.586901
C107	C	1.159324	0.554406	-0.538720
C108	C	1.279049	0.559726	-0.528870
C109	C	1.353618	0.511948	-0.567202
H110	H	1.155316	0.414226	-0.660901
H111	H	1.025547	0.497372	-0.594193
H112	H	1.104124	0.589775	-0.510344
H113	H	1.312477	0.599033	-0.493202
H114	H	1.442246	0.515886	-0.559910
C115	C	1.593187	0.276420	-0.761729
C116	C	1.712904	0.281743	-0.751880
C117	C	1.787479	0.233958	-0.790201
C118	C	1.742337	0.180850	-0.838370
C119	C	1.622614	0.175525	-0.848222
C120	C	1.548039	0.223310	-0.809901
H121	H	1.746327	0.321058	-0.716220
H122	H	1.876107	0.237900	-0.782908
H123	H	1.797542	0.145477	-0.866738
H124	H	1.589191	0.136210	-0.883882
H125	H	1.459411	0.219368	-0.817194
H126	H	1.318866	0.758069	-0.452002
C127	C	1.593075	0.761030	-0.276475
C128	C	1.590562	0.747579	-0.196053
C129	C	1.665153	0.785866	-0.148326
C130	C	1.742257	0.837604	-0.181020
C131	C	1.744772	0.851057	-0.261446
C132	C	1.670181	0.812770	-0.309174
H133	H	1.533483	0.709278	-0.171846
H134	H	1.663291	0.775907	-0.088789
H135	H	1.797473	0.865946	-0.145690
H136	H	1.801851	0.889358	-0.285653
H137	H	1.672044	0.822729	-0.368710
H138	H	1.582507	0.617774	-0.283157
H139	H	1.564517	0.294769	-0.838799
C140	C	1.603432	0.269877	-0.607424
C141	C	1.599586	0.190317	-0.614145
C142	C	1.679522	0.139105	-0.571647
C143	C	1.763303	0.167452	-0.522428
C144	C	1.767152	0.247016	-0.515705
C145	C	1.687216	0.298228	-0.558203
H146	H	1.537564	0.169329	-0.650581
H147	H	1.676672	0.080206	-0.576623
H148	H	1.822476	0.129542	-0.490968
H149	H	1.829175	0.268004	-0.479269
H150	H	1.690066	0.357127	-0.553226
C151	C	1.353111	0.430197	-0.945702
C152	C	1.233398	0.424869	-0.955580
C153	C	1.158795	0.472654	-0.917281
C154	C	1.203903	0.525766	-0.869103
C155	C	1.323622	0.531096	-0.859223
C156	C	1.398226	0.483311	-0.897523
H157	H	1.200001	0.385550	-0.991246
H158	H	1.070171	0.468708	-0.924595
H159	H	1.148677	0.561139	-0.840752
H160	H	1.357019	0.570415	-0.823557
H161	H	1.486850	0.487257	-0.890208
H162	H	1.627348	0.254525	-0.948757
H163	H	1.381796	0.411845	-0.868624
H164	H	0.874141	0.275392	-0.431688
H165	H	1.073189	0.275378	-0.431680
H166	H	1.327695	0.624752	-0.446300
H167	H	1.627259	0.948049	-0.254676
H168	H	1.564424	0.838112	-0.294844
H169	H	1.618495	0.260181	-1.082070
H170	H	1.363655	0.423442	-1.088950
H171	H	1.318978	0.452090	-0.758664
