data_functionalizedCrystal
_audit_creation_method	'MofGen! by Chris Wilmer'
_symmetry_space_group_name_H-M	'P1'
_symmetry_Int_Tables_number	1
_symmetry_cell_setting	triclinic
loop_
_symmetry_equiv_pos_as_xyz
  x,y,z
_cell_length_a	14.044209
_cell_length_b	14.044202
_cell_length_c	22.010155
_cell_angle_alpha	90.003098
_cell_angle_beta	90.003652
_cell_angle_gamma	93.190328
loop_
_atom_site_label
_atom_site_type_symbol
_atom_site_fract_x
_atom_site_fract_y
_atom_site_fract_z
O1	O	-1.277182	-0.230145	-0.050472
O2	O	-0.777182	0.269855	0.449528
O3	O	-1.000510	-0.221842	-0.050488
O4	O	-0.500510	0.278158	0.449512
O5	O	-1.134689	-0.087657	-0.050464
O6	O	-0.634689	0.412343	0.449536
O7	O	-1.143004	-0.364330	-0.050496
O8	O	-0.643004	0.135670	0.449504
O9	O	-1.134664	-0.087677	0.050587
O10	O	-0.634664	0.412323	0.550587
O11	O	-1.000485	-0.221862	0.050562
O12	O	-0.500485	0.278138	0.550562
O13	O	-1.277157	-0.230165	0.050579
O14	O	-0.777157	0.269835	0.550579
Cu15	Cu	-1.138819	-0.226015	0.059797
Cu16	Cu	-0.638819	0.273985	0.559797
Cu17	Cu	-1.138848	-0.225992	-0.059707
Cu18	Cu	-0.638848	0.274008	0.440293
O19	O	-1.142979	-0.364349	0.050554
O20	O	-0.642979	0.135651	0.550554
C21	C	-0.964876	-0.218216	0.000035
C22	C	-0.464876	0.281784	0.500035
C23	C	-0.858733	-0.207373	0.000030
C24	C	-0.358733	0.292627	0.500030
C25	C	-1.131039	-0.052045	0.000064
C26	C	-0.631039	0.447955	0.500064
C27	C	-1.120191	0.054098	0.000072
C28	C	-0.620191	0.554098	0.500072
C29	C	-0.664394	-0.187548	0.000043
C30	C	-0.164394	0.312452	0.500043
C31	C	-0.613267	-0.264463	0.000036
C32	C	-0.113267	0.235537	0.500036
C33	C	-0.505130	-0.253432	0.000043
C34	C	-0.005130	0.246568	0.500043
C35	C	-0.772541	-0.198577	0.000035
C36	C	-0.272541	0.301423	0.500035
C37	C	-0.312791	-0.233793	0.000052
C38	C	0.187209	0.266207	0.500052
C39	C	-0.418934	-0.244642	0.000049
C40	C	0.081066	0.255358	0.500049
C41	C	-1.177290	0.299556	0.000060
C42	C	-0.677290	0.799556	0.500060
C43	C	-1.100374	0.248430	0.000058
C44	C	-0.600374	0.748430	0.500058
C45	C	-1.111403	0.140294	0.000066
C46	C	-0.611403	0.640294	0.500066
C47	C	-1.166262	0.407703	0.000052
C48	C	-0.666262	0.907703	0.500052
N49	N	-1.138805	-0.226031	0.143850
N50	N	-0.638805	0.273969	0.643850
C51	C	-1.146626	0.600038	0.000033
C52	C	-0.646626	1.100038	0.500033
C53	C	-1.157468	0.493895	0.000046
C54	C	-0.657468	0.993895	0.500046
N55	N	-1.138869	-0.225968	-0.143759
N56	N	-0.638869	0.274032	0.356241
C57	C	-1.198267	-0.166584	0.563640
C58	C	-0.698267	0.333416	1.063640
C59	C	-1.198271	-0.166578	0.627248
C60	C	-0.698271	0.333422	1.127248
O61	O	-1.248790	-0.116043	0.660148
O62	O	-0.748790	0.383957	1.160148
N63	N	-1.138846	-0.225972	0.659057
N64	N	-0.638846	0.274028	1.159057
C65	C	-1.079406	-0.285368	0.627255
C66	C	-0.579406	0.214632	1.127255
O67	O	-1.028861	-0.335886	0.660152
O68	O	-0.528861	0.164114	1.160152
C69	C	-1.079398	-0.285369	0.563649
C70	C	-0.579398	0.214631	1.063649
C71	C	-1.138834	-0.225978	0.531843
C72	C	-0.638834	0.274022	1.031843
C73	C	-1.257697	-0.107198	0.531834
C74	C	-0.757697	0.392802	1.031834
C75	C	-1.257695	-0.107206	0.468231
C76	C	-0.757695	0.392794	0.968231
C77	C	-1.198262	-0.166600	0.436434
C78	C	-0.698262	0.333400	0.936434
C79	C	-1.138831	-0.225986	0.468240
C80	C	-0.638831	0.274014	0.968240
C81	C	-1.019954	-0.344760	0.531848
C82	C	-0.519954	0.155240	1.031848
C83	C	-1.019951	-0.344754	0.468237
C84	C	-0.519951	0.155246	0.968237
C85	C	-1.079387	-0.285364	0.436432
C86	C	-0.579387	0.214636	0.936432
C87	C	-1.079395	-0.285388	0.372839
C88	C	-0.579395	0.214612	0.872839
N89	N	-1.138820	-0.225994	0.341030
N90	N	-0.638820	0.274006	0.841030
C91	C	-1.198253	-0.166600	0.372827
C92	C	-0.698253	0.333400	0.872827
C93	C	-1.079427	-0.285361	0.760833
C94	C	-0.579427	0.214639	1.260833
C95	C	-1.079439	-0.285366	0.824438
C96	C	-0.579439	0.214634	1.324438
C97	C	-1.198303	-0.166575	0.824426
C98	C	-0.698303	0.333425	1.324426
C99	C	-1.198295	-0.166576	0.760820
C100	C	-0.698295	0.333424	1.260820
C101	C	-1.138852	-0.225968	0.729024
C102	C	-0.638852	0.274032	1.229024
C103	C	-1.198244	-0.166622	0.239256
C104	C	-0.698244	0.333378	0.739256
C105	C	-1.198238	-0.166637	0.175647
C106	C	-0.698238	0.333363	0.675647
C107	C	-1.079372	-0.285425	0.175664
C108	C	-0.579372	0.214575	0.675664
C109	C	-1.079380	-0.285413	0.239268
C110	C	-0.579380	0.214587	0.739268
C111	C	-1.138819	-0.226004	0.271062
C112	C	-0.638819	0.273996	0.771062
O113	O	-1.028899	-0.335894	0.339898
O114	O	-0.528899	0.164106	0.839898
O115	O	-1.248782	-0.116082	0.339922
O116	O	-0.748782	0.383918	0.839922
H117	H	-0.650709	-0.338596	0.000024
H118	H	-0.150709	0.161404	0.500024
H119	H	-1.026241	0.285873	0.000051
H120	H	-0.526241	0.785873	0.500051
H121	H	-1.246643	-0.118244	0.265135
H122	H	-0.746643	0.381756	0.765135
H123	H	-1.030992	-0.333784	0.265165
H124	H	-0.530992	0.166216	0.765165
C125	C	-1.323095	-0.041900	0.433249
C126	C	-0.823095	0.458100	0.933249
H127	H	-1.314602	-0.050413	0.390812
H128	H	-0.814602	0.449587	0.890812
H129	H	-1.307366	0.022707	0.443671
H130	H	-0.807366	0.522707	0.943671
H131	H	-1.387683	-0.057725	0.443681
H132	H	-0.887683	0.442275	0.943681
H133	H	-1.246692	-0.118214	0.734927
H134	H	-0.746692	0.381786	1.234927
C135	C	-1.277430	0.248981	0.000078
C136	C	-0.777430	0.748981	0.500078
H137	H	-1.271798	0.181883	0.000089
H138	H	-0.771798	0.681883	0.500089
H139	H	-1.311154	0.266908	-0.035155
H140	H	-0.811154	0.766908	0.464845
H141	H	-1.311113	0.266933	0.035326
H142	H	-0.811113	0.766933	0.535326
H143	H	-0.971542	-0.393118	0.442352
H144	H	-0.471542	0.106882	0.942352
H145	H	-1.306094	-0.058828	0.557718
H146	H	-0.806094	0.441172	1.057718
C147	C	-1.263616	-0.101301	0.140664
C148	C	-0.763616	0.398699	0.640664
H149	H	-1.299003	-0.065921	0.168715
H150	H	-0.799003	0.434079	0.668715
H151	H	-1.306262	-0.139025	0.115848
H152	H	-0.806262	0.360975	0.615848
H153	H	-1.225905	-0.058633	0.115855
H154	H	-0.725905	0.441367	0.615855
C155	C	-0.613820	-0.087407	0.000050
C156	C	-0.113820	0.412593	0.500050
H157	H	-0.546722	-0.093038	0.000047
H158	H	-0.046722	0.406962	0.500047
H159	H	-0.631759	-0.053701	0.035289
H160	H	-0.131759	0.446299	0.535289
H161	H	-0.631762	-0.053706	-0.035193
H162	H	-0.131762	0.446294	0.464807
H163	H	-1.246695	-0.118212	0.850327
H164	H	-0.746695	0.381788	1.350327
C165	C	-1.014061	-0.350696	0.859418
C166	C	-0.514061	0.149304	1.359418
H167	H	-0.978661	-0.386060	0.831365
H168	H	-0.478661	0.113940	1.331365
H169	H	-1.051753	-0.393365	0.884232
H170	H	-0.551753	0.106635	1.384232
H171	H	-0.971412	-0.312957	0.884229
H172	H	-0.471412	0.187043	1.384229
H173	H	-1.031024	-0.333734	0.734948
H174	H	-0.531024	0.166266	1.234948
C175	C	-0.954582	-0.410099	0.566821
C176	C	-0.454582	0.089901	1.066821
H177	H	-0.919186	-0.445461	0.538765
H178	H	-0.419186	0.054539	1.038765
H179	H	-0.992286	-0.452768	0.591628
H180	H	-0.492286	0.047232	1.091628
H181	H	-0.911929	-0.372375	0.591639
H182	H	-0.411929	0.127625	1.091639
H183	H	-1.030985	-0.333786	0.149765
H184	H	-0.530985	0.166214	0.649765
