data_functionalizedCrystal
_audit_creation_method	'MofGen! by Chris Wilmer'
_symmetry_space_group_name_H-M	'P1'
_symmetry_Int_Tables_number	1
_symmetry_cell_setting	triclinic
loop_
_symmetry_equiv_pos_as_xyz
  x,y,z
_cell_length_a	15.944551
_cell_length_b	14.853566
_cell_length_c	13.930277
_cell_angle_alpha	89.987070
_cell_angle_beta	89.999198
_cell_angle_gamma	83.566576
loop_
_atom_site_label
_atom_site_type_symbol
_atom_site_fract_x
_atom_site_fract_y
_atom_site_fract_z
O1	O	0.109654	1.196206	0.079770
O2	O	0.122719	0.933730	0.079786
O3	O	-0.006080	1.072136	0.079768
O4	O	0.238453	1.057801	0.079787
O5	O	-0.006072	1.072161	-0.079893
O6	O	0.122727	0.933755	-0.079876
O7	O	0.109662	1.196231	-0.079892
Zn8	Zn	0.116196	1.064997	-0.105234
Zn9	Zn	0.116185	1.064964	0.105127
O10	O	0.238461	1.057825	-0.079875
C11	C	0.122131	0.900154	-0.000043
C12	C	0.120358	0.800073	-0.000037
C13	C	0.112853	0.376884	0.086977
C14	C	0.112862	0.376932	-0.087093
C15	C	0.114527	0.470964	-0.087090
C16	C	0.115356	0.517960	-0.000052
C17	C	0.114520	0.470924	0.086983
C18	C	0.115372	0.518006	-0.174123
C19	C	0.117038	0.612044	-0.174123
C20	C	0.117861	0.659042	-0.087084
C21	C	0.117024	0.612001	-0.000046
C22	C	0.117854	0.658997	0.086991
C23	C	0.117011	0.611958	0.174030
C24	C	0.115344	0.517923	0.174021
C25	C	0.119528	0.753077	-0.087075
C26	C	0.119522	0.753037	0.086997
C27	C	-0.037371	1.071553	-0.000063
C28	C	-0.130619	1.069769	-0.000063
C29	C	-0.345576	0.979714	-0.000044
C30	C	-0.406543	1.021545	-0.078770
C31	C	-0.301349	1.066541	-0.000055
C32	C	-0.406534	1.021541	0.078644
C33	C	-0.466265	1.063417	-0.000044
C34	C	-0.361087	1.108396	-0.078846
C35	C	-0.361072	1.108380	0.078639
C36	C	-0.422021	1.150274	-0.000106
C37	C	-0.206344	1.068338	-0.000063
C38	C	-0.561268	1.061626	-0.000043
C39	C	0.269752	1.058408	-0.000042
C40	C	0.363000	1.060192	-0.000035
C41	C	0.110250	1.229807	-0.000061
C42	C	0.112023	1.329888	-0.000061
N43	N	0.116172	1.064943	0.248693
N44	N	0.116202	1.065026	-0.248800
C45	C	0.173117	1.003613	0.700970
C46	C	0.059282	1.126420	0.700925
C47	C	0.059276	1.126406	0.600429
C48	C	0.116190	1.064993	0.550199
C49	C	0.173111	1.003595	0.600465
C50	C	0.002351	1.187796	0.550155
C51	C	0.002342	1.187784	0.449653
C52	C	0.059261	1.126375	0.399422
C53	C	0.116184	1.064975	0.449694
C54	C	0.173098	1.003563	0.399464
C55	C	0.230026	0.942166	0.449735
C56	C	0.230030	0.942186	0.550234
C57	C	0.059258	1.126355	0.298923
C58	C	0.173092	1.003545	0.298959
H59	H	0.112192	0.338662	-0.157955
H60	H	0.114657	0.479616	0.244884
F61	F	0.114498	0.467984	-0.266747
F62	F	-0.432875	0.973559	-0.165758
H63	H	-0.455100	1.222407	-0.000155
F64	F	-0.001330	1.191688	0.245428
F65	F	0.290592	0.876803	0.396266
F66	F	-0.334904	1.156374	-0.165934
F67	F	-0.334710	1.156328	0.165631
F68	F	-0.000974	1.192107	0.754384
H69	H	-0.043991	1.237792	0.591055
H70	H	0.120194	0.791295	0.157875
F71	F	-0.058243	1.253127	0.396159
F72	F	0.120432	0.803134	-0.179701
F73	F	0.233674	0.938184	0.245509
F74	F	0.117899	0.661984	0.266659
H75	H	0.112163	0.338581	0.157842
H76	H	0.117723	0.650335	-0.244996
H77	H	-0.426655	0.984795	0.145205
F78	F	0.290610	0.876847	0.603738
F79	F	-0.302146	0.885513	-0.000136
F80	F	0.233704	0.938277	0.754469
