data_functionalizedCrystal
_audit_creation_method	'MofGen! by Chris Wilmer'
_symmetry_space_group_name_H-M	'P1'
_symmetry_Int_Tables_number	1
_symmetry_cell_setting	triclinic
loop_
_symmetry_equiv_pos_as_xyz
  x,y,z
_cell_length_a	10.654550
_cell_length_b	14.044220
_cell_length_c	9.730223
_cell_angle_alpha	89.994583
_cell_angle_beta	89.999957
_cell_angle_gamma	88.836904
loop_
_atom_site_label
_atom_site_type_symbol
_atom_site_fract_x
_atom_site_fract_y
_atom_site_fract_z
O1	O	1.681228	0.133232	-0.114191
O2	O	1.317025	0.145925	-0.114216
O3	O	1.493659	0.001558	-0.114190
O4	O	1.504593	0.277599	-0.114217
O5	O	1.493647	0.001554	0.114390
O6	O	1.317012	0.145921	0.114364
O7	O	1.681215	0.133228	0.114389
Zn8	Zn	1.499111	0.139574	0.150668
Zn9	Zn	1.499128	0.139579	-0.150496
O10	O	1.504580	0.277595	0.114363
C11	C	1.270127	0.144991	0.000070
C12	C	1.130403	0.142202	0.000061
C13	C	1.059459	0.227204	0.000057
C14	C	0.928175	0.224578	0.000081
C15	C	0.938790	0.051942	0.000108
C16	C	1.070072	0.054569	0.000094
C17	C	1.488867	-0.033790	0.000100
C18	C	1.474592	-0.139110	0.000101
C19	C	1.448493	-0.331943	0.000079
C20	C	1.549741	-0.388910	0.000082
C21	C	1.535219	-0.496209	0.000070
C22	C	1.463013	-0.224634	0.000091
C23	C	1.728113	0.134162	0.000099
C24	C	1.867836	0.136950	0.000100
C25	C	1.509372	0.312943	0.000070
C26	C	1.523648	0.418262	0.000060
N27	N	1.499109	0.139570	0.356205
N28	N	1.499140	0.139576	-0.356032
C29	C	1.577355	0.075671	0.428142
C30	C	1.577367	0.075671	0.572025
C31	C	1.420885	0.203477	0.572021
C32	C	1.420867	0.203471	0.428140
H33	H	1.647328	-0.357098	-0.000004
H34	H	1.357144	0.255506	0.369565
H35	H	1.350913	-0.363754	0.000069
C36	C	0.850995	0.316794	-0.000147
C37	C	0.775279	0.320314	-0.117719
C38	C	0.704154	0.405247	-0.117966
H39	H	0.905585	0.369433	-0.000239
H40	H	0.799497	0.319370	0.079530
H41	H	0.826772	0.317747	-0.197374
H42	H	0.720665	0.267694	-0.117651
H43	H	0.652656	0.407823	-0.038289
H44	H	0.758753	0.457880	-0.118054
H45	H	0.652764	0.407643	-0.197730
C46	C	0.873447	-0.043265	-0.000089
C47	C	0.908601	-0.094709	-0.117668
C48	C	0.848448	-0.182424	-0.117893
H49	H	0.785088	-0.032791	-0.000157
H50	H	0.897176	-0.078354	0.079582
H51	H	0.884864	-0.059627	-0.197319
H52	H	0.996950	-0.105208	-0.117625
H53	H	0.872177	-0.217513	-0.038222
H54	H	0.760092	-0.171941	-0.117957
H55	H	0.872301	-0.217343	-0.197662
C56	C	1.147262	-0.037651	-0.000120
C57	C	1.222957	-0.041172	-0.117707
C58	C	1.294093	-0.126100	-0.117937
H59	H	1.092680	-0.090295	-0.000179
H60	H	1.198776	-0.040219	0.079546
H61	H	1.171449	-0.038614	-0.197353
H62	H	1.277564	0.011452	-0.117673
H63	H	1.345606	-0.128668	-0.038271
H64	H	1.239501	-0.178737	-0.117992
H65	H	1.345468	-0.128496	-0.197711
C66	C	1.662334	0.006181	0.350288
C67	C	1.730835	-0.049796	0.444091
C68	C	1.809117	-0.113833	0.372427
H69	H	1.718571	0.040557	0.294138
H70	H	1.612723	-0.033678	0.294206
H71	H	1.780442	-0.009942	0.500149
H72	H	1.674630	-0.084193	0.500244
H73	H	1.759506	-0.153692	0.316346
H74	H	1.865346	-0.079448	0.316280
H75	H	1.855595	-0.151826	0.436061
C76	C	1.125196	0.322251	-0.000038
C77	C	1.255353	0.306363	-0.000091
C78	C	1.315946	0.393899	-0.000195
H79	H	1.101656	0.357360	0.079648
H80	H	1.101561	0.357294	-0.079784
H81	H	1.278978	0.271334	0.079647
H82	H	1.278930	0.271268	-0.079771
H83	H	1.292311	0.428943	-0.079940
H84	H	1.292396	0.429002	0.079493
H85	H	1.404263	0.383131	-0.000243
C86	C	1.335872	0.272707	0.650306
C87	C	1.253321	0.221638	0.732962
C88	C	1.175002	0.285383	0.805109
H89	H	1.289146	0.310789	0.587013
H90	H	1.385476	0.312500	0.706494
H91	H	1.203723	0.181861	0.676778
H92	H	1.300012	0.183560	0.796280
H93	H	1.224605	0.325176	0.861298
H94	H	1.128284	0.323462	0.741807
H95	H	1.118989	0.250743	0.861209
H96	H	1.641080	0.023638	0.630593
