data_functionalizedCrystal
_audit_creation_method	'MofGen! by Chris Wilmer'
_symmetry_space_group_name_H-M	'P1'
_symmetry_Int_Tables_number	1
_symmetry_cell_setting	triclinic
loop_
_symmetry_equiv_pos_as_xyz
  x,y,z
_cell_length_a	16.109301
_cell_length_b	17.038272
_cell_length_c	15.186229
_cell_angle_alpha	89.995962
_cell_angle_beta	89.999362
_cell_angle_gamma	87.286518
loop_
_atom_site_label
_atom_site_type_symbol
_atom_site_fract_x
_atom_site_fract_y
_atom_site_fract_z
O1	O	1.110268	0.100495	-0.073174
O2	O	1.443601	0.433828	0.260160
O3	O	1.776934	0.767162	0.593493
O4	O	0.869094	0.113001	-0.073188
O5	O	1.202427	0.446335	0.260146
O6	O	1.535761	0.779668	0.593479
O7	O	0.988247	-0.007067	-0.073174
O8	O	1.321581	0.326266	0.260160
O9	O	1.654914	0.659599	0.593493
O10	O	0.991114	0.220563	-0.073187
O11	O	1.324447	0.553897	0.260146
O12	O	1.657781	0.887230	0.593479
O13	O	0.988239	-0.007069	0.073284
O14	O	1.321572	0.326264	0.406617
O15	O	1.654905	0.659598	0.739950
O16	O	0.869085	0.113000	0.073270
O17	O	1.202419	0.446333	0.406603
O18	O	1.535752	0.779666	0.739936
O19	O	1.110259	0.100493	0.073284
O20	O	1.443592	0.433827	0.406617
O21	O	1.776926	0.767160	0.739950
Zn22	Zn	0.989671	0.106746	0.096530
Zn23	Zn	1.323004	0.440079	0.429863
Zn24	Zn	1.656337	0.773413	0.763197
Zn25	Zn	0.989682	0.106748	-0.096434
Zn26	Zn	1.323015	0.440082	0.236900
Zn27	Zn	1.656349	0.773415	0.570233
O28	O	0.991105	0.220562	0.073270
O29	O	1.324439	0.553895	0.406603
O30	O	1.657772	0.887228	0.739936
C31	C	0.838079	0.112494	0.000039
C32	C	1.171412	0.445827	0.333373
C33	C	1.504745	0.779161	0.666706
C34	C	0.745676	0.110975	0.000034
C35	C	1.079009	0.444308	0.333367
C36	C	1.412342	0.777642	0.666701
C37	C	0.528212	0.178690	0.000040
C38	C	0.861545	0.512023	0.333374
C39	C	1.194879	0.845356	0.666707
C40	C	0.441390	0.177257	0.000046
C41	C	0.774723	0.510590	0.333379
C42	C	1.108057	0.843923	0.666713
C43	C	0.451147	0.034799	0.000051
C44	C	0.784481	0.368133	0.333384
C45	C	1.117814	0.701466	0.666718
C46	C	0.537968	0.036233	0.000051
C47	C	0.871301	0.369567	0.333385
C48	C	1.204634	0.702900	0.666718
C49	C	0.576498	0.108181	0.000042
C50	C	0.909831	0.441514	0.333375
C51	C	1.243164	0.774848	0.666708
C52	C	0.402855	0.105314	0.000047
C53	C	0.736188	0.438647	0.333380
C54	C	1.069522	0.771980	0.666713
C55	C	0.308719	0.103759	0.000053
C56	C	0.642052	0.437093	0.333386
C57	C	0.975385	0.770426	0.666720
C58	C	0.670640	0.109736	0.000037
C59	C	1.003974	0.443069	0.333370
C60	C	1.337307	0.776402	0.666704
C61	C	0.985636	-0.036196	0.000055
C62	C	1.318969	0.297137	0.333388
C63	C	1.652302	0.630470	0.666721
C64	C	0.977857	-0.122989	0.000054
C65	C	1.311190	0.210344	0.333387
C66	C	1.644523	0.543678	0.666721
C67	C	1.049277	-0.173104	0.000059
C68	C	1.382611	0.160229	0.333392
C69	C	1.715944	0.493563	0.666726
C70	C	1.041963	-0.254654	0.000050
C71	C	1.375297	0.078679	0.333384
C72	C	1.708630	0.412012	0.666717
C73	C	0.963228	-0.286089	0.000043
C74	C	1.296561	0.047245	0.333376
C75	C	1.629894	0.380578	0.666709
C76	C	0.891802	-0.235967	0.000035
C77	C	1.225135	0.097366	0.333368
C78	C	1.558468	0.430699	0.666702
C79	C	0.899116	-0.154418	0.000038
C80	C	1.232450	0.178915	0.333371
C81	C	1.565783	0.512248	0.666704
C82	C	0.937385	-0.531846	0.000029
C83	C	1.270718	-0.198513	0.333363
C84	C	1.604052	0.134820	0.666696
C85	C	0.930076	-0.613402	0.000029
C86	C	1.263409	-0.280068	0.333363
C87	C	1.596742	0.053265	0.666696
C88	C	1.080238	-0.632083	0.000043
C89	C	1.413571	-0.298750	0.333376
C90	C	1.746905	0.034584	0.666710
C91	C	1.087546	-0.550532	0.000051
C92	C	1.420879	-0.217198	0.333384
C93	C	1.754213	0.116135	0.666717
C94	C	1.016120	-0.500418	0.000038
C95	C	1.349453	-0.167084	0.333372
C96	C	1.682787	0.166249	0.666705
C97	C	0.955749	-0.369446	0.000037
C98	C	1.289083	-0.036113	0.333370
C99	C	1.622416	0.297221	0.666703
C100	C	1.023599	-0.417062	0.000038
C101	C	1.356932	-0.083728	0.333372
C102	C	1.690266	0.249605	0.666705
C103	C	1.141274	0.101001	0.000055
C104	C	1.474608	0.434334	0.333388
C105	C	1.807941	0.767667	0.666722
C106	C	1.233677	0.102519	0.000054
C107	C	1.567011	0.435853	0.333388
C108	C	1.900344	0.769186	0.666721
C109	C	0.993717	0.249691	0.000039
C110	C	1.327050	0.583024	0.333373
C111	C	1.660384	0.916358	0.666706
C112	C	1.001496	0.336484	0.000034
C113	C	1.334830	0.669817	0.333368
C114	C	1.668163	1.003150	0.666701
N115	N	0.989669	0.106744	0.228223
N116	N	1.323002	0.440077	0.561556
N117	N	1.656336	0.773411	0.894889
N118	N	0.989690	0.106744	-0.228126
N119	N	1.323023	0.440078	0.105207
N120	N	1.656357	0.773411	0.438540
C121	C	1.042451	0.053596	0.453952
C122	C	1.375784	0.386929	0.787285
C123	C	1.709117	0.720262	1.120618
C124	C	1.042453	0.053594	0.546141
C125	C	1.375787	0.386927	0.879475
C126	C	1.709120	0.720260	1.212808
C127	C	0.936902	0.159895	0.546138
C128	C	1.270236	0.493229	0.879471
C129	C	1.603569	0.826562	1.212805
C130	C	0.936896	0.159893	0.453950
C131	C	1.270230	0.493226	0.787283
C132	C	1.603563	0.826559	1.120617
C133	C	0.989675	0.106744	0.407859
C134	C	1.323009	0.440077	0.741193
C135	C	1.656342	0.773411	1.074526
C136	C	0.989684	0.106745	0.592237
C137	C	1.323017	0.440078	0.925570
C138	C	1.656350	0.773411	1.258904
C139	C	0.989686	0.106743	0.692193
C140	C	1.323019	0.440076	1.025526
C141	C	1.656353	0.773410	1.358860
C142	C	0.989672	0.106744	0.307897
C143	C	1.323005	0.440078	0.641230
C144	C	1.656339	0.773411	0.974563
H145	H	0.419765	-0.023778	0.000064
H146	H	0.753099	0.309555	0.333398
H147	H	1.086432	0.642889	0.666731
Cl148	Cl	1.170025	-0.695087	0.000056
Cl149	Cl	1.503358	-0.361754	0.333389
Cl150	Cl	1.836691	-0.028421	0.666723
H151	H	0.577284	-0.021187	0.000055
H152	H	0.910617	0.312146	0.333388
H153	H	1.243950	0.645480	0.666722
Cl154	Cl	0.831086	-0.652917	0.000025
Cl155	Cl	1.164419	-0.319584	0.333358
Cl156	Cl	1.497753	0.013750	0.666692
H157	H	0.879224	-0.491053	0.000019
H158	H	1.212558	-0.157719	0.333353
H159	H	1.545891	0.175614	0.666686
Cl160	Cl	1.148264	-0.133595	0.000078
Cl161	Cl	1.481598	0.199738	0.333411
Cl162	Cl	1.814931	0.533071	0.666744
H163	H	1.085427	0.010315	0.583667
H164	H	1.418760	0.343648	0.917001
H165	H	1.752093	0.676982	1.250334
Cl166	Cl	0.870541	0.226709	0.396000
Cl167	Cl	1.203874	0.560042	0.729333
Cl168	Cl	1.537207	0.893376	1.062666
Cl169	Cl	1.131754	-0.317653	0.000059
Cl170	Cl	1.465087	0.015680	0.333393
Cl171	Cl	1.798421	0.349014	0.666726
Cl172	Cl	0.792819	-0.275485	0.000015
Cl173	Cl	1.126152	0.057849	0.333348
Cl174	Cl	1.459485	0.391182	0.666681
Cl175	Cl	0.870558	0.226711	0.604085
Cl176	Cl	1.203892	0.560044	0.937418
Cl177	Cl	1.537225	0.893378	1.270751
H178	H	0.402079	0.234672	0.000047
H179	H	0.735412	0.568006	0.333380
H180	H	1.068746	0.901339	0.666713
Cl181	Cl	1.122577	-0.377543	0.000043
Cl182	Cl	1.455911	-0.044210	0.333377
Cl183	Cl	1.789244	0.289124	0.666710
Cl184	Cl	0.576647	0.269138	0.000033
Cl185	Cl	0.909980	0.602471	0.333367
Cl186	Cl	1.243314	0.935804	0.666700
Cl187	Cl	1.186532	-0.511021	0.000032
Cl188	Cl	1.519865	-0.177688	0.333365
Cl189	Cl	1.853199	0.155646	0.666698
H190	H	0.840958	-0.113615	0.000033
H191	H	1.174291	0.219718	0.333367
H192	H	1.507625	0.553052	0.666700
H193	H	1.085425	0.010318	0.416427
H194	H	1.418759	0.343651	0.749760
H195	H	1.752092	0.676984	1.083093
Cl196	Cl	0.856770	-0.408970	0.000022
Cl197	Cl	1.190103	-0.075637	0.333356
Cl198	Cl	1.523437	0.257696	0.666689
