data_functionalizedCrystal
_audit_creation_method	'MofGen! by Chris Wilmer'
_symmetry_space_group_name_H-M	'P1'
_symmetry_Int_Tables_number	1
_symmetry_cell_setting	triclinic
loop_
_symmetry_equiv_pos_as_xyz
  x,y,z
_cell_length_a	15.944499
_cell_length_b	15.944551
_cell_length_c	9.798715
_cell_angle_alpha	89.995900
_cell_angle_beta	89.993724
_cell_angle_gamma	83.488174
loop_
_atom_site_label
_atom_site_type_symbol
_atom_site_fract_x
_atom_site_fract_y
_atom_site_fract_z
O1	O	1.114550	0.108123	-0.113576
O2	O	0.869995	0.121525	-0.113561
O3	O	0.998951	-0.007452	-0.113556
O4	O	0.985594	0.237100	-0.113580
O5	O	0.998941	-0.007452	0.113426
O6	O	0.869985	0.121525	0.113421
O7	O	1.114541	0.108123	0.113406
Zn8	Zn	0.992262	0.114824	0.149452
Zn9	Zn	0.992274	0.114824	-0.149607
O10	O	0.985585	0.237100	0.113402
C11	C	0.838695	0.120976	-0.000068
C12	C	0.745447	0.119331	-0.000062
C13	C	0.998392	-0.038746	-0.000065
C14	C	0.996729	-0.131992	-0.000064
C15	C	0.453911	0.194263	-0.000089
C16	C	0.514945	0.155312	-0.112002
C17	C	0.409810	0.113355	-0.000093
C18	C	0.514921	0.155290	0.111785
C19	C	0.574719	0.116296	-0.000075
C20	C	0.469616	0.074381	-0.112098
C21	C	0.469586	0.074370	0.111789
C22	C	0.530603	0.035360	-0.000151
C23	C	0.314810	0.111663	-0.000104
C24	C	0.669718	0.117981	-0.000074
C25	C	0.912823	-0.346833	-0.000078
C26	C	0.951782	-0.407857	0.111836
C27	C	0.993722	-0.302717	-0.000075
C28	C	0.951810	-0.407841	-0.111951
C29	C	0.990811	-0.467629	-0.000090
C30	C	1.032703	-0.362513	0.111931
C31	C	1.032720	-0.362490	-0.111956
C32	C	1.071737	-0.423497	-0.000015
C33	C	0.995397	-0.207715	-0.000064
C34	C	0.989143	-0.562630	-0.000091
C35	C	1.145840	0.108672	-0.000090
C36	C	1.239089	0.110317	-0.000105
C37	C	0.986144	0.268394	-0.000092
C38	C	0.987806	0.361640	-0.000102
N39	N	0.992259	0.114823	0.353552
N40	N	0.992283	0.114818	-0.353706
C41	C	1.046406	0.060433	0.421331
C42	C	1.046420	0.060430	0.578493
H43	H	0.420581	0.261409	-0.000204
H44	H	0.449466	0.040177	0.206412
O45	O	1.101689	0.004758	0.647871
C46	C	1.087797	-0.078354	0.613095
H47	H	1.055464	-0.078233	0.509325
H48	H	1.045858	-0.104173	0.693503
C49	C	1.212663	-0.134574	0.734117
C50	C	1.172958	-0.134426	0.606660
H51	H	1.265193	-0.169164	0.730153
H52	H	1.222021	-0.078581	0.757551
H53	H	1.177705	-0.156088	0.801110
H54	H	1.207911	-0.112903	0.539673
H55	H	1.163607	-0.190418	0.583214
O56	O	0.937057	0.170493	0.576839
C57	C	0.950917	0.253604	0.611672
H58	H	1.018168	0.253879	0.651015
H59	H	0.904374	0.278423	0.694523
C60	C	0.855487	0.310156	0.436336
C61	C	0.938088	0.310494	0.484647
H62	H	0.847570	0.345250	0.357984
H63	H	0.846147	0.254163	0.412871
H64	H	0.816711	0.330836	0.505390
H65	H	0.976863	0.289804	0.415600
H66	H	0.947435	0.366486	0.508098
H67	H	0.845673	-0.313513	0.000038
H68	H	0.534993	0.189524	0.206394
H69	H	1.066887	-0.342529	0.206649
O70	O	1.151928	-0.463041	0.000291
C71	C	1.194255	-0.439917	0.118421
H72	H	1.146028	-0.418003	0.200523
H73	H	1.233368	-0.386437	0.092786
C74	C	1.312037	-0.543420	0.070344
C75	C	1.252803	-0.516512	0.171187
H76	H	1.348155	-0.590665	0.102890
H77	H	1.283522	-0.558997	-0.009246
H78	H	1.344622	-0.498846	0.048990
H79	H	1.220212	-0.561081	0.192527
H80	H	1.281313	-0.500944	0.250782
H81	H	0.535047	0.189536	-0.206616
O82	O	1.073389	-0.338497	-0.224975
C83	C	1.030533	-0.361344	-0.342741
H84	H	0.962049	-0.368097	-0.315923
H85	H	1.062305	-0.423990	-0.383575
C86	C	1.117423	-0.284261	-0.485386
C87	C	1.033308	-0.292547	-0.452450
H88	H	1.119137	-0.241827	-0.553063
H89	H	1.146298	-0.268871	-0.406046
H90	H	1.143890	-0.336470	-0.519407
H91	H	1.006845	-0.240342	-0.418415
H92	H	1.004429	-0.307927	-0.531788
H93	H	0.945908	0.161384	0.411875
H94	H	0.449641	0.040192	-0.206818
H95	H	0.917586	-0.427911	-0.206572
O96	O	0.570157	-0.044826	-0.000453
C97	C	0.547045	-0.087162	-0.118582
H98	H	0.525128	-0.038940	-0.200687
H99	H	0.493569	-0.126280	-0.092946
C100	C	0.650559	-0.204929	-0.070496
C101	C	0.623647	-0.145703	-0.171343
H102	H	0.697810	-0.241043	-0.103040
H103	H	0.666129	-0.176409	0.009092
H104	H	0.605989	-0.237519	-0.049142
H105	H	0.668213	-0.113107	-0.192683
H106	H	0.608087	-0.174219	-0.250937
H107	H	0.917560	-0.427959	0.206454
H108	H	1.092751	0.013866	0.363010
