data_functionalizedCrystal
_audit_creation_method	'MofGen! by Chris Wilmer'
_symmetry_space_group_name_H-M	'P1'
_symmetry_Int_Tables_number	1
_symmetry_cell_setting	triclinic
loop_
_symmetry_equiv_pos_as_xyz
  x,y,z
_cell_length_a	12.759401
_cell_length_b	12.827892
_cell_length_c	12.759393
_cell_angle_alpha	89.968749
_cell_angle_beta	89.981433
_cell_angle_gamma	90.014506
loop_
_atom_site_label
_atom_site_type_symbol
_atom_site_fract_x
_atom_site_fract_y
_atom_site_fract_z
Zn1	Zn	1.606239	-0.415994	-0.594018
Zn2	Zn	1.606134	-0.590775	-0.418340
Zn3	Zn	1.430544	-0.416046	-0.418354
Zn4	Zn	1.430527	-0.590691	-0.593978
O5	O	1.518361	-0.503377	-0.506173
O6	O	1.753246	-0.439193	-0.570725
O7	O	1.582805	-0.567654	-0.271321
O8	O	1.453901	-0.269803	-0.441679
O9	O	1.753169	-0.567604	-0.441655
O10	O	1.582983	-0.269765	-0.570739
O11	O	1.453800	-0.439281	-0.271331
O12	O	1.283521	-0.439200	-0.441640
O13	O	1.453872	-0.567460	-0.741004
O14	O	1.283508	-0.567511	-0.570670
O15	O	1.582967	-0.439111	-0.741034
O16	O	1.582789	-0.737000	-0.441616
O17	O	1.453771	-0.736938	-0.570656
C18	C	1.245394	-0.503352	-0.506153
C19	C	1.128617	-0.503367	-0.506169
C20	C	1.073731	-0.436468	-0.439107
C21	C	0.964007	-0.436493	-0.439120
C22	C	0.964065	-0.570319	-0.573267
C23	C	1.073787	-0.570299	-0.573248
C24	C	1.073696	-0.359201	-0.361661
C25	C	0.963972	-0.359226	-0.361674
C26	C	1.518295	-0.774887	-0.506153
C27	C	1.518363	-0.891040	-0.506180
C28	C	1.582209	-0.942722	-0.570100
C29	C	1.582281	-1.062772	-0.570129
C30	C	1.792394	-0.503402	-0.506193
C31	C	1.909171	-0.503412	-0.506202
C32	C	1.518429	-0.503270	-0.780206
C33	C	1.518458	-0.503225	-0.896983
C34	C	1.518456	-0.230806	-0.506215
C35	C	1.518496	-0.114653	-0.506233
C36	C	1.451314	-0.436369	-0.951856
C37	C	1.451346	-0.436338	-1.061580
C38	C	1.585676	-0.570022	-1.061548
C39	C	1.585638	-0.570057	-0.951826
C40	C	1.373762	-0.359184	-0.951876
C41	C	1.373794	-0.359153	-1.061600
C42	C	1.518354	-0.503407	-0.233205
C43	C	1.518528	-0.503158	-0.116429
H44	H	0.929902	-0.388128	-0.284331
C45	C	1.413153	-0.255340	-0.905916
N46	N	1.442822	-0.177124	-0.871299
C47	C	0.923759	-0.249932	-0.391322
N48	N	0.893470	-0.167616	-0.413654
H49	H	1.118472	-0.624785	-0.627846
H50	H	1.296497	-0.388122	-1.095625
H51	H	1.636813	-0.898095	-0.624808
C52	C	1.656128	-1.122814	-0.644062
N53	N	1.711751	-1.168040	-0.699752
C54	C	1.444646	-1.054619	-0.432298
N55	N	1.389020	-1.009393	-0.376611
C56	C	1.659429	-0.643672	-1.121885
N57	N	1.714931	-0.699198	-1.167330
H58	H	1.640298	-0.624513	-0.907152
H59	H	1.395613	-0.278206	-1.091397
C60	C	1.263813	-0.388470	-0.911641
N61	N	1.181002	-0.410529	-0.881336
C62	C	1.113870	-0.388350	-0.251679
N63	N	1.144129	-0.410308	-0.168843
C64	C	0.903742	-0.643936	-0.647055
N65	N	0.858308	-0.699383	-0.702635
H66	H	1.107749	-0.282350	-0.390938
H67	H	1.463751	-0.935669	-0.451482
