data_functionalizedCrystal
_audit_creation_method	'MofGen! by Chris Wilmer'
_symmetry_space_group_name_H-M	'P1'
_symmetry_Int_Tables_number	1
_symmetry_cell_setting	triclinic
loop_
_symmetry_equiv_pos_as_xyz
  x,y,z
_cell_length_a	10.654550
_cell_length_b	15.995350
_cell_length_c	9.130313
_cell_angle_alpha	90.000982
_cell_angle_beta	89.996220
_cell_angle_gamma	83.988639
loop_
_atom_site_label
_atom_site_type_symbol
_atom_site_fract_x
_atom_site_fract_y
_atom_site_fract_z
O1	O	1.666298	0.117599	-0.121912
O2	O	1.300673	0.128803	-0.121888
O3	O	1.493480	0.001371	-0.121899
O4	O	1.473491	0.245030	-0.121900
O5	O	1.493478	0.001375	0.121700
O6	O	1.300671	0.128807	0.121711
O7	O	1.666295	0.117602	0.121687
Cu8	Cu	1.483483	0.123205	0.143942
Cu9	Cu	1.483486	0.123201	-0.144142
O10	O	1.473488	0.245034	0.121698
C11	C	1.253885	0.127982	-0.000085
C12	C	1.114473	0.125521	-0.000076
C13	C	1.492652	-0.029827	-0.000102
C14	C	1.490175	-0.122791	-0.000110
C15	C	1.034008	0.200551	-0.000098
C16	C	0.903017	0.198233	-0.000123
C17	C	0.932971	0.045849	-0.000111
C18	C	1.063959	0.048168	-0.000075
C19	C	1.084522	0.277904	-0.000099
C20	C	1.004055	0.352940	-0.000122
C21	C	0.873064	0.350622	-0.000147
C22	C	0.822541	0.273268	-0.000149
C23	C	1.481278	-0.460591	-0.000105
C24	C	1.343964	-0.413954	-0.000642
C25	C	1.346442	-0.317249	-0.000093
C26	C	1.485691	-0.293004	-0.000108
C27	C	1.553417	-0.333687	0.138991
C28	C	1.549968	-0.430342	0.139108
C29	C	1.552807	-0.430688	-0.137910
C30	C	1.552775	-0.333743	-0.139748
C31	C	1.488192	-0.198292	-0.000106
C32	C	1.478780	-0.555303	-0.000098
C33	C	1.713084	0.118423	-0.000119
C34	C	1.852495	0.120884	-0.000137
C35	C	1.474316	0.276232	-0.000101
C36	C	1.476793	0.369197	-0.000103
N37	N	1.483490	0.123207	0.346564
N38	N	1.483488	0.123192	-0.346765
C39	C	1.568887	0.066800	0.423211
C40	C	1.568883	0.066789	0.576548
C41	C	1.398083	0.179602	0.576578
C42	C	1.398081	0.179607	0.423244
C43	C	1.654296	0.010399	0.346532
C44	C	1.739700	-0.046012	0.423179
C45	C	1.739697	-0.046022	0.576516
C46	C	1.654289	0.010379	0.653206
H47	H	1.191179	0.279800	-0.000085
C48	C	1.270160	-0.440824	0.133406
N49	N	1.214579	-0.461057	0.234385
H50	H	1.654321	-0.317791	-0.148158
C51	C	1.274510	-0.279269	-0.134793
N52	N	1.220321	-0.250666	-0.236249
C53	C	1.152476	-0.034369	-0.000059
N54	N	1.219148	-0.096538	-0.000044
H55	H	1.654308	0.010404	0.221678
H56	H	1.045200	0.415918	-0.000108
C57	C	1.274038	-0.280020	0.134857
N58	N	1.219503	-0.251980	0.236509
H59	H	1.654285	0.010361	0.778063
C60	C	1.304142	0.241640	0.660942
N61	N	1.233387	0.288369	0.724486
H62	H	1.654048	-0.461861	-0.138855
C63	C	1.485943	-0.297273	-0.278770
N64	N	1.435593	-0.269807	-0.383480
C65	C	1.492154	-0.458786	-0.280342
N66	N	1.446455	-0.479948	-0.387614
C67	C	1.304113	0.241640	0.338927
N68	N	1.233320	0.288356	0.275420
H69	H	0.807551	0.411720	-0.000152
H70	H	1.655720	-0.318967	0.144153
H71	H	0.891824	-0.017129	-0.000137
C72	C	0.678446	0.270723	-0.000171
N73	N	0.569914	0.268807	-0.000196
C74	C	1.269810	-0.439430	-0.135390
N75	N	1.213954	-0.458628	-0.236884
C76	C	1.483232	-0.455453	0.279585
N77	N	1.432960	-0.474362	0.385392
H78	H	1.650782	-0.462005	0.145409
H79	H	1.809230	-0.091937	0.360730
H80	H	1.809228	-0.091960	0.638920
C81	C	1.489861	-0.295719	0.278850
N82	N	1.441981	-0.267124	0.384189
