data_functionalizedCrystal
_audit_creation_method	'MofGen! by Chris Wilmer'
_symmetry_space_group_name_H-M	'P1'
_symmetry_Int_Tables_number	1
_symmetry_cell_setting	triclinic
loop_
_symmetry_equiv_pos_as_xyz
  x,y,z
_cell_length_a	14.853567
_cell_length_b	12.837943
_cell_length_c	11.295483
_cell_angle_alpha	94.533167
_cell_angle_beta	94.108142
_cell_angle_gamma	90.768065
loop_
_atom_site_label
_atom_site_type_symbol
_atom_site_fract_x
_atom_site_fract_y
_atom_site_fract_z
O1	O	-1.213314	0.128390	-0.098934
O2	O	-0.952223	0.144513	-0.098953
O3	O	-1.076979	-0.014459	-0.098945
O4	O	-1.088558	0.287363	-0.098942
O5	O	-1.066020	-0.000518	0.099105
O6	O	-0.941264	0.158455	0.099097
O7	O	-1.202355	0.142332	0.099116
Cu8	Cu	-1.070809	0.151666	0.117190
Cu9	Cu	-1.083769	0.135179	-0.117027
O10	O	-1.077599	0.301304	0.099108
C11	C	-0.913093	0.150753	0.000069
C12	C	-0.812824	0.148563	0.000061
C13	C	-1.067588	-0.046115	0.000077
C14	C	-1.055923	-0.161210	0.000068
C15	C	-1.241485	0.136092	0.000091
C16	C	-1.341754	0.138281	0.000091
C17	C	-0.391494	0.044877	0.000087
C18	C	-0.386232	0.233741	0.000088
C19	C	-0.480441	0.235799	0.000084
C20	C	-0.530180	0.142394	0.000080
C21	C	-0.485712	0.046932	0.000080
C22	C	-0.524917	0.331259	0.000072
C23	C	-0.619132	0.333321	0.000067
C24	C	-0.668873	0.239916	0.000071
C25	C	-0.624398	0.144450	0.000072
C26	C	-0.674138	0.051045	0.000068
C27	C	-0.629664	-0.044422	0.000078
C28	C	-0.535453	-0.046473	0.000084
C29	C	-0.763084	0.241968	0.000065
C30	C	-0.768355	0.053101	0.000061
C31	C	-1.086990	0.332960	0.000083
C32	C	-1.098656	0.448054	0.000085
N33	N	-1.061699	0.163262	0.281926
C34	C	-0.958411	0.688808	0.000052
C35	C	-0.969368	0.796950	0.000053
C36	C	-1.131526	0.772480	0.000078
C37	C	-1.120569	0.664339	0.000077
C38	C	-1.034009	0.622507	0.000066
C39	C	-1.023052	0.514364	0.000074
C40	C	-1.185210	0.489896	0.000091
C41	C	-1.196167	0.598038	0.000091
N42	N	-1.092885	0.123575	-0.281763
C43	C	-1.158455	0.040045	0.531221
C44	C	-1.151578	0.048815	0.655885
C45	C	-1.041064	0.189567	0.655917
C46	C	-1.047941	0.180797	0.531254
C47	C	-1.106639	0.106034	0.468911
C48	C	-1.113521	0.097270	0.344245
C49	C	-1.003002	0.238016	0.344280
C50	C	-0.996125	0.246786	0.468943
H51	H	-0.808847	-0.022962	0.000062
H52	H	-1.246767	0.435901	0.000104
O53	O	-0.492360	-0.139277	-0.000078
C54	C	-0.522636	-0.203429	-0.102669
H55	H	-0.592185	-0.177498	-0.136861
H56	H	-0.526985	-0.288126	-0.079608
H57	H	-0.473221	-0.196541	-0.174495
O58	O	-0.874325	0.648199	-0.000165
C59	C	-0.833344	0.674867	-0.102725
H60	H	-0.887762	0.692394	-0.174413
H61	H	-0.791270	0.606872	-0.137159
H62	H	-0.787863	0.746897	-0.079537
H63	H	-1.201996	0.806565	0.000162
H64	H	-0.948331	0.307654	0.519718
O65	O	-0.337969	0.324479	-0.000124
C66	C	-0.365073	0.375224	-0.102680
H67	H	-0.396480	0.315492	-0.174372
H68	H	-0.303823	0.414278	-0.137109
H69	H	-0.416832	0.436935	-0.079489
H70	H	-1.161318	0.036397	0.293486
H71	H	-1.266642	0.632113	0.000105
H72	H	-0.907808	0.850929	0.000041
H73	H	-0.670175	-0.120472	0.000067
H74	H	-0.960813	0.291752	0.293533
H75	H	-0.484413	0.407303	0.000063
H76	H	-0.952570	0.480307	0.000076
O77	O	-1.201956	-0.015134	0.716544
C78	C	-1.258393	0.045571	0.788621
H79	H	-1.228422	0.127939	0.807311
H80	H	-1.264104	0.008490	0.876278
H81	H	-1.328287	0.049369	0.740560
H82	H	-0.655334	0.411056	0.000059
O83	O	-1.215490	-0.032657	0.470838
C84	C	-1.259773	-0.088999	0.552569
H85	H	-1.217804	-0.084000	0.641443
H86	H	-1.268409	-0.174301	0.516541
H87	H	-1.328912	-0.054259	0.565813
O88	O	-0.983989	0.262045	0.716627
C89	C	-0.919607	0.211463	0.788716
H90	H	-0.947525	0.131719	0.807360
H91	H	-0.904226	0.260859	0.876395
H92	H	-0.855011	0.200908	0.740689
O93	O	-0.806431	0.334598	0.000005
C94	C	-0.900248	0.316388	0.000036
H95	H	-0.917451	0.232872	-0.037455
H96	H	-0.937552	0.373428	-0.057466
H97	H	-0.921605	0.328140	0.095051
O98	O	-0.348160	-0.047769	0.000043
C99	C	-0.254337	-0.029561	0.000087
H100	H	-0.241273	0.048674	-0.037407
H101	H	-0.223389	-0.094701	-0.057406
H102	H	-0.222481	-0.027932	0.095106
