data_functionalizedCrystal
_audit_creation_method	'MofGen! by Chris Wilmer'
_symmetry_space_group_name_H-M	'P1'
_symmetry_Int_Tables_number	1
_symmetry_cell_setting	triclinic
loop_
_symmetry_equiv_pos_as_xyz
  x,y,z
_cell_length_a	16.992694
_cell_length_b	15.995350
_cell_length_c	16.053802
_cell_angle_alpha	92.567808
_cell_angle_beta	87.249047
_cell_angle_gamma	87.080299
loop_
_atom_site_label
_atom_site_type_symbol
_atom_site_fract_x
_atom_site_fract_y
_atom_site_fract_z
O1	O	1.043694	0.174244	-0.069318
O2	O	1.543694	0.674244	0.430682
O3	O	0.815410	0.172295	-0.069342
O4	O	1.315410	0.672295	0.430658
O5	O	0.935792	0.051799	-0.069329
O6	O	1.435792	0.551799	0.430671
O7	O	0.923312	0.294739	-0.069332
O8	O	1.423312	0.794739	0.430668
O9	O	0.929166	0.058403	0.069530
O10	O	1.429166	0.558403	0.569530
O11	O	0.808784	0.178898	0.069516
O12	O	1.308784	0.678898	0.569516
O13	O	1.037068	0.180847	0.069540
O14	O	1.537068	0.680847	0.569540
Zn15	Zn	0.921874	0.180921	0.091575
Zn16	Zn	1.421874	0.680921	0.591575
Zn17	Zn	0.930604	0.172221	-0.091377
Zn18	Zn	1.430604	0.672221	0.408623
O19	O	0.916685	0.301343	0.069527
O20	O	1.416685	0.801343	0.569527
C21	C	0.782884	0.173091	0.000083
C22	C	1.282884	0.673091	0.500083
C23	C	0.695841	0.165614	0.000074
C24	C	1.195841	0.665614	0.500074
C25	C	0.931963	0.023872	0.000099
C26	C	1.431963	0.523872	0.500099
C27	C	0.930417	-0.069182	0.000094
C28	C	1.430417	0.430818	0.500094
C29	C	0.645600	0.237749	0.000074
C30	C	1.145600	0.737749	0.500074
C31	C	0.563813	0.230720	0.000085
C32	C	1.063813	0.730720	0.500085
C33	C	0.532268	0.151555	0.000091
C34	C	1.032268	0.651555	0.500091
C35	C	0.582515	0.079414	0.000094
C36	C	1.082515	0.579414	0.500094
C37	C	0.664300	0.086444	0.000088
C38	C	1.164300	0.586444	0.500088
C39	C	0.288669	0.122417	0.000114
C40	C	0.788669	0.622417	0.500114
C41	C	0.206878	0.115392	0.000117
C42	C	0.706878	0.615392	0.500117
C43	C	0.188181	0.266699	0.000110
C44	C	0.688181	0.766699	0.500110
C45	C	0.269969	0.273722	0.000099
C46	C	0.769969	0.773722	0.500099
C47	C	0.320209	0.201582	0.000106
C48	C	0.820209	0.701582	0.500106
N49	N	0.448669	0.144368	0.000100
N50	N	0.948669	0.644368	0.500100
N51	N	0.403806	0.208770	0.000103
N52	N	0.903806	0.708770	0.500103
C53	C	0.924861	-0.407302	0.000096
C54	C	1.424861	0.092698	0.500096
C55	C	0.839142	-0.365620	-0.000225
C56	C	1.339142	0.134380	0.499775
C57	C	0.840674	-0.268811	0.000089
C58	C	1.340674	0.231189	0.500089
C59	C	0.927617	-0.239557	0.000095
C60	C	1.427617	0.260443	0.500095
C61	C	0.966120	-0.274034	0.079392
C62	C	1.466120	0.225966	0.579392
C63	C	0.963963	-0.370810	0.079459
C64	C	1.463963	0.129190	0.579459
C65	C	0.973269	-0.378559	-0.078449
C66	C	1.473269	0.121441	0.421551
C67	C	0.973299	-0.281665	-0.079497
C68	C	1.473299	0.218335	0.420503
C69	C	0.929179	-0.144755	0.000096
C70	C	1.429179	0.355245	0.500096
C71	C	0.923302	-0.502103	0.000100
C72	C	1.423302	-0.002103	0.500100
C73	C	1.069593	0.180051	0.000113
C74	C	1.569593	0.680051	0.500113
C75	C	1.156637	0.187528	0.000117
C76	C	1.656637	0.687528	0.500117
C77	C	0.920515	0.329270	0.000097
C78	C	1.420515	0.829270	0.500097
C79	C	0.922061	0.422324	0.000097
C80	C	1.422061	0.922324	0.500097
N81	N	0.915921	0.186859	0.216434
N82	N	1.415921	0.686859	0.716434
N83	N	0.936563	0.166277	-0.216236
N84	N	1.436563	0.666277	0.283764
C85	C	0.967163	0.135608	0.260134
C86	C	1.467163	0.635608	0.760134
C87	C	0.963006	0.139770	0.347541
C88	C	1.463006	0.639770	0.847541
C89	C	0.907611	0.195187	0.391245
C90	C	1.407611	0.695187	0.891245
C91	C	0.856364	0.246439	0.347539
C92	C	1.356364	0.746439	0.847539
C93	C	0.860518	0.242273	0.260135
C94	C	1.360518	0.742273	0.760135
C95	C	0.889469	0.213363	0.652653
C96	C	1.389469	0.713363	1.152653
C97	C	0.885321	0.217528	0.740064
C98	C	1.385321	0.717528	1.240064
C99	C	0.991962	0.110857	0.740059
C100	C	1.491962	0.610857	1.240059
C101	C	0.996114	0.106699	0.652652
C102	C	1.496114	0.606699	1.152652
C103	C	0.944864	0.157948	0.608954
C104	C	1.444864	0.657948	1.108954
N105	N	0.903363	0.199444	0.480589
N106	N	1.403363	0.699444	0.980589
N107	N	0.949109	0.153686	0.519612
N108	N	1.449109	0.653686	1.019612
H109	H	0.671277	0.302214	0.000068
H110	H	1.171277	0.802214	0.500068
C111	C	0.796507	-0.397415	-0.077043
C112	C	1.296507	0.102585	0.422957
N113	N	0.764393	-0.421371	-0.134903
N114	N	1.264393	0.078629	0.365097
H115	H	0.818790	0.284005	0.224555
H116	H	1.318790	0.784005	0.724555
C117	C	0.132912	0.346049	0.000112
C118	C	0.632912	0.846049	0.500112
N119	N	0.091282	0.405818	0.000119
N120	N	0.591282	0.905818	0.500119
H121	H	0.295647	0.338187	0.000085
H122	H	0.795647	0.838187	0.500085
H123	H	0.522910	0.289461	0.000084
H124	H	1.022910	0.789461	0.500084
H125	H	0.181198	0.050923	0.000121
H126	H	0.681198	0.550923	0.500121
C127	C	0.799425	-0.237068	-0.076702
C128	C	1.299425	0.262932	0.423298
N129	N	0.768351	-0.213163	-0.134540
N130	N	1.268351	0.286837	0.365460
C131	C	1.057049	0.045731	0.604583
C132	C	1.557049	0.545731	1.104583
N133	N	1.102946	-0.000190	0.568378
N134	N	1.602946	0.499810	1.068378
C135	C	0.824377	0.278491	0.788137
C136	C	1.324377	0.778491	1.288137
N137	N	0.778477	0.324406	0.824347
N138	N	1.278477	0.824406	1.324347
C139	C	0.343923	0.043059	0.000116
C140	C	0.843923	0.543059	0.500116
N141	N	0.385543	-0.016717	0.000117
N142	N	0.885543	0.483283	0.500117
C143	C	0.935352	-0.251366	-0.158751
C144	C	1.435352	0.248634	0.341249
N145	N	0.906763	-0.228548	-0.218443
N146	N	1.406763	0.271452	0.281557
H147	H	1.026736	-0.398675	0.083061
H148	H	1.526736	0.101325	0.583061
C149	C	1.028102	0.074644	0.212067
C150	C	1.528102	0.574644	0.712067
N151	N	1.074000	0.028722	0.175865
N152	N	1.574000	0.528722	0.675865
H153	H	0.556824	0.014956	0.000111
H154	H	1.056824	0.514956	0.500111
C155	C	0.833194	0.269855	0.604596
C156	C	1.333194	0.769855	1.104596
N157	N	0.790841	0.312449	0.568397
N158	N	1.290841	0.812449	1.068397
C159	C	1.019358	0.083369	0.395606
C160	C	1.519358	0.583369	0.895606
N161	N	1.061797	0.040876	0.431809
N162	N	1.561797	0.540876	0.931809
H163	H	0.811257	0.291558	0.383129
H164	H	1.311257	0.791558	0.883129
H165	H	0.705206	0.027704	0.000088
H166	H	1.205206	0.527704	0.500088
H167	H	0.802329	-0.384808	0.056318
H168	H	1.302329	0.115192	0.556318
C169	C	1.048327	0.054480	0.788134
C170	C	1.548327	0.554480	1.288134
N171	N	1.090780	0.012010	0.824344
N172	N	1.590780	0.512010	1.324344
C173	C	0.791798	-0.230531	0.077006
C174	C	1.291798	0.269469	0.577006
N175	N	0.754983	-0.201699	0.134945
N176	N	1.254983	0.298301	0.634945
H177	H	0.930299	-0.388357	0.138731
H178	H	1.430299	0.111643	0.638731
H179	H	0.933934	-0.244811	0.138399
H180	H	1.433934	0.255189	0.638399
C181	C	1.052216	-0.248970	0.083396
C182	C	1.552216	0.251030	0.583396
N183	N	1.117062	-0.230085	0.086413
N184	N	1.617062	0.269915	0.586413
H185	H	0.948107	-0.403833	-0.138552
H186	H	1.448107	0.096167	0.361448
C187	C	1.059265	-0.255494	-0.085957
C188	C	1.559265	0.244506	0.414043
N189	N	1.124019	-0.235785	-0.090814
N190	N	1.624019	0.264215	0.409186
H191	H	1.036506	-0.406115	-0.078977
H192	H	1.536506	0.093885	0.421023
