data_functionalizedCrystal
_audit_creation_method	'MofGen! by Chris Wilmer'
_symmetry_space_group_name_H-M	'P1'
_symmetry_Int_Tables_number	1
_symmetry_cell_setting	triclinic
loop_
_symmetry_equiv_pos_as_xyz
  x,y,z
_cell_length_a	10.540539
_cell_length_b	15.944551
_cell_length_c	9.616153
_cell_angle_alpha	89.996788
_cell_angle_beta	89.995174
_cell_angle_gamma	84.012115
loop_
_atom_site_label
_atom_site_type_symbol
_atom_site_fract_x
_atom_site_fract_y
_atom_site_fract_z
O1	O	1.684280	0.118370	-0.115583
O2	O	1.314716	0.129523	-0.115601
O3	O	1.509590	0.001731	-0.115579
O4	O	1.489406	0.246161	-0.115605
O5	O	1.509563	0.001734	0.115712
O6	O	1.314689	0.129525	0.115690
O7	O	1.684254	0.118372	0.115708
Zn8	Zn	1.499467	0.123949	0.152422
Zn9	Zn	1.499502	0.123946	-0.152315
O10	O	1.489379	0.246163	0.115686
C11	C	1.267411	0.128688	0.000043
C12	C	1.126497	0.126185	0.000036
C13	C	1.508739	-0.029566	0.000067
C14	C	1.506227	-0.122827	0.000067
C15	C	0.944375	0.030298	0.000587
C16	C	1.090959	0.032835	0.000051
C17	C	1.064228	0.171108	-0.132042
C18	C	0.917727	0.167922	-0.132138
C19	C	0.917182	0.169824	0.130883
C20	C	1.064152	0.170684	0.132615
C21	C	1.379430	-0.338440	0.000042
C22	C	1.438297	-0.399105	0.114086
C23	C	1.501682	-0.293580	0.000056
C24	C	1.438352	-0.399091	-0.113950
C25	C	1.497283	-0.458519	0.000040
C26	C	1.560583	-0.353017	0.114194
C27	C	1.560621	-0.352996	-0.113944
C28	C	1.619577	-0.413643	0.000128
C29	C	1.504213	-0.198563	0.000067
C30	C	1.494762	-0.553535	0.000039
C31	C	1.731559	0.119207	0.000061
C32	C	1.872473	0.121710	0.000058
C33	C	1.490231	0.277461	0.000037
C34	C	1.492743	0.370722	0.000027
N35	N	1.499452	0.123951	0.360396
N36	N	1.499527	0.123937	-0.360289
C37	C	1.394895	0.192081	0.580755
C38	C	1.395120	0.192337	0.419587
C39	C	1.631904	0.143890	0.418850
C40	C	1.631333	0.144372	0.580067
C41	C	1.472882	0.035659	0.580316
C42	C	1.469828	0.036231	0.419089
H43	H	0.916281	-0.006580	0.095308
H44	H	1.296131	0.180269	0.619562
H45	H	0.886035	0.139615	0.230998
H46	H	1.549185	-0.015061	0.618440
H47	H	1.412127	0.257832	0.381001
N48	N	1.093449	0.256047	0.142646
N49	N	1.152213	0.279374	0.246233
H50	H	1.172935	0.339659	0.253313
H51	H	1.386578	-0.419520	0.210495
N52	N	1.662029	0.223779	0.368185
N53	N	1.589884	0.289078	0.394770
H54	H	1.611150	0.345503	0.358990
H55	H	1.541078	-0.016915	0.378802
N56	N	0.907100	-0.015771	-0.117559
N57	N	0.827810	0.018428	-0.202147
H58	H	0.801481	-0.014105	-0.285590
H59	H	1.654811	0.208777	0.617650
N60	N	1.373459	-0.424679	-0.234884
N61	N	1.259371	-0.397587	-0.255175
H62	H	1.213530	-0.415656	-0.340578
N63	N	1.143959	-0.011830	-0.118911
N64	N	1.129882	-0.088146	-0.134354
H65	H	1.167312	-0.119693	-0.218377
N66	N	0.882929	0.126269	-0.255990
N67	N	0.966801	0.099749	-0.341753
H68	H	0.942233	0.070330	-0.429227
N69	N	0.856414	0.252145	-0.139665
N70	N	0.921863	0.313087	-0.144841
H71	H	0.878567	0.372570	-0.150163
H72	H	1.721141	-0.446196	0.000197
N73	N	1.347595	0.017262	0.371195
N74	N	1.261650	0.006178	0.456777
H75	H	1.175320	-0.007216	0.422948
H76	H	1.134043	-0.002512	0.094731
H77	H	1.612236	-0.332717	0.210715
H78	H	1.711616	0.095612	0.380505
H79	H	1.612295	-0.332559	-0.210358
N80	N	1.271433	0.177696	0.370026
N81	N	1.184346	0.167207	0.454505
H82	H	1.096919	0.157023	0.419511
H83	H	1.411676	0.257205	0.621247
N84	N	1.731938	0.084525	0.628977
N85	N	1.802354	0.042539	0.544041
H86	H	1.873410	0.000275	0.578577
N87	N	1.354320	0.011881	0.631346
N88	N	1.252852	0.057252	0.606601
H89	H	1.169107	0.040468	0.642634
H90	H	1.107252	0.139900	-0.230331
N91	N	1.091077	0.257112	-0.138218
N92	N	1.055398	0.306759	-0.041978
H93	H	1.074360	0.367501	-0.046337
N94	N	1.116069	0.129497	0.255185
N95	N	1.198682	0.067602	0.245044
H96	H	1.235357	0.038511	0.331607
H97	H	0.869037	0.237250	0.131769
N98	N	1.252128	-0.297422	0.000182
N99	N	1.178130	-0.309719	0.097948
H100	H	1.088224	-0.280749	0.098053
