data_functionalizedCrystal
_audit_creation_method	'MofGen! by Chris Wilmer'
_symmetry_space_group_name_H-M	'P1'
_symmetry_Int_Tables_number	1
_symmetry_cell_setting	triclinic
loop_
_symmetry_equiv_pos_as_xyz
  x,y,z
_cell_length_a	15.698487
_cell_length_b	14.809374
_cell_length_c	14.809374
_cell_angle_alpha	57.530506
_cell_angle_beta	98.952025
_cell_angle_gamma	67.426642
loop_
_atom_site_label
_atom_site_type_symbol
_atom_site_fract_x
_atom_site_fract_y
_atom_site_fract_z
Zr1	Zr	0.890499	1.000599	-0.231432
O2	O	0.749735	1.191300	-0.398632
O3	O	0.922087	0.809894	-0.165445
O4	O	0.910769	1.000599	-0.377393
O5	O	0.783136	1.000596	-0.036254
O6	O	1.050950	1.000603	-0.377396
O7	O	0.761053	1.000595	-0.186685
O8	O	1.071195	0.659467	0.001740
O9	O	0.762890	1.341732	-0.415389
O10	O	1.054146	0.888337	-0.155102
O11	O	0.966010	0.888335	-0.042835
O12	O	0.952685	1.112865	-0.292376
O13	O	0.864550	1.112863	-0.180109
Zr14	Zr	1.149291	1.000605	0.008484
Zr15	Zr	1.114072	1.000604	-0.231436
Zr16	Zr	0.925719	1.000599	0.008488
Zr17	Zr	0.911480	1.240520	-0.258157
Zr18	Zr	1.128311	0.760684	0.035209
O19	O	1.117704	1.191309	-0.057503
O20	O	1.067627	1.191308	-0.398639
O21	O	0.799813	1.191301	-0.057497
O22	O	1.290056	0.809904	0.175684
O23	O	1.239978	0.809903	-0.165451
O24	O	0.972164	0.809896	0.175690
O25	O	1.256655	1.000608	-0.186695
O26	O	1.129022	1.000605	0.154444
O27	O	0.988841	1.000601	0.154447
O28	O	1.278738	1.000609	-0.036263
O29	O	0.940601	1.341736	-0.415393
O30	O	1.099190	0.659467	0.192444
O31	O	1.276901	0.659472	0.192441
O32	O	1.248906	0.659471	0.001736
O33	O	0.790885	1.341733	-0.224685
O34	O	0.968595	1.341737	-0.224688
O35	O	1.087106	0.888338	0.069428
O36	O	1.175241	0.888341	-0.042839
O37	O	1.073781	1.112869	-0.180113
O38	O	0.985645	1.112866	-0.067846
C39	C	0.993652	0.700497	-0.078045
C40	C	0.984745	0.598644	-0.066699
C41	C	1.024495	0.553236	-0.117333
C42	C	1.015290	0.447966	-0.105608
C43	C	0.740240	1.000595	-0.111469
C44	C	0.645328	1.000592	-0.111467
C45	C	0.471543	1.000615	-0.111480
C46	C	0.568247	1.000608	-0.111476
C47	C	1.299551	1.000609	-0.111480
C48	C	1.394463	1.000612	-0.111481
C49	C	0.975841	1.000601	-0.411578
C50	C	0.960890	1.000600	-0.513430
C51	C	1.046139	1.300707	-0.144903
C52	C	1.055046	1.402560	-0.156249
C53	C	1.027617	1.000602	-0.558840
C54	C	1.012165	1.000602	-0.664110
C55	C	1.063949	1.000603	0.188629
C56	C	1.078901	1.000603	0.290482
C57	C	1.273307	0.700504	-0.078050
C58	C	1.359313	0.598654	-0.066707
C59	C	1.037706	0.700498	0.222059
C60	C	1.043750	0.598645	0.335257
C61	C	1.317361	0.700505	0.222053
C62	C	1.418318	0.598655	0.335249
C63	C	0.722430	1.300699	-0.445002
C64	C	0.621473	1.402549	-0.558198
C65	C	0.766484	1.300700	-0.144898
C66	C	0.680478	1.402550	-0.156242
C67	C	1.002085	1.300706	-0.445007
C68	C	0.996040	1.402558	-0.558205
C69	C	1.336490	0.550822	-0.119990
C70	C	1.417290	0.455136	-0.109355
C71	C	1.520914	0.407277	-0.045429
C72	C	1.543736	0.455118	0.007854
C73	C	1.462935	0.550809	-0.002788
C74	C	0.703301	1.450392	-0.102970
C75	C	0.622498	1.546104	-0.113634
C76	C	0.518875	1.593967	-0.177563
C77	C	0.496053	1.546121	-0.230842
C78	C	0.576854	1.450417	-0.220185
C79	C	0.976599	0.633690	0.379186
C80	C	0.982257	0.538003	0.485537
C81	C	1.055073	0.407271	0.547961
C82	C	1.122227	0.372226	0.504023
C83	C	1.116563	0.467913	0.397669
C84	C	1.458487	0.467939	0.397639
C85	C	1.553355	0.372225	0.503990
C86	C	1.608047	0.407230	0.547953
C87	C	1.567873	0.537960	0.485553
C88	C	1.473011	0.633671	0.379200
C89	C	0.581310	1.533265	-0.620596
C90	C	0.486459	1.628979	-0.726968
C91	C	0.431770	1.593973	-0.770935
C92	C	0.471941	1.463243	-0.708530
C93	C	0.566793	1.367533	-0.602165
C94	C	0.923219	1.533274	-0.620597
C95	C	0.917538	1.628989	-0.726950
C96	C	0.984675	1.593985	-0.770915
C97	C	1.057504	1.463256	-0.708513
C98	C	1.063189	1.367544	-0.602157
H99	H	0.974444	0.408907	-0.053572
N100	N	0.921338	1.000587	-0.715822
H101	H	0.923176	1.000585	-0.783690
H102	H	0.854021	1.080292	-0.747874
N103	N	0.815061	1.398791	-0.034031
H104	H	0.854760	1.302728	0.035650
H105	H	0.817155	1.443730	-0.001995
N106	N	1.109166	0.454272	-0.225166
H107	H	1.108074	0.522141	-0.223773
H108	H	1.071944	0.493953	-0.311554
N109	N	0.329455	1.697214	-0.885646
H110	H	0.335028	1.687754	-0.947513
H111	H	0.312375	1.785279	-0.918384
H112	H	0.558257	1.411467	-0.263563
N113	N	1.078594	0.604972	-0.186266
H114	H	1.153132	0.532012	-0.147421
H115	H	1.077419	0.672861	-0.184855
H116	H	0.868541	1.561800	-0.584818
N117	N	1.061253	0.303914	0.662635
H118	H	1.047120	0.248410	0.651864
H119	H	1.007694	0.345860	0.681076
N120	N	1.626872	0.575689	0.532997
H121	H	1.582255	0.628561	0.550323
H122	H	1.644826	0.628526	0.470576
N123	N	1.429689	0.774658	0.311914
H124	H	1.478736	0.782297	0.355913
H125	H	1.359366	0.817972	0.307250
N126	N	0.870069	1.000586	-0.565150
H127	H	0.824826	1.080288	-0.653591
H128	H	0.827741	1.000534	-0.520295
H129	H	0.943901	0.559582	-0.014667
N130	N	1.118466	1.000556	-0.507088
H131	H	1.116636	1.000543	-0.439210
H132	H	1.113770	1.080252	-0.572481
H133	H	1.398688	0.416195	-0.152747
H134	H	1.147476	1.000598	-0.670462
H135	H	0.917301	0.740133	0.328372
H136	H	1.685288	0.329283	0.634555
H137	H	0.625824	1.561792	-0.584811
N138	N	1.224730	0.602427	-0.188938
H139	H	1.222548	0.557599	-0.221077
H140	H	1.185104	0.698495	-0.258549
H141	H	0.453765	1.735417	-0.777763
N142	N	1.608058	0.304069	-0.033958
H143	H	1.577866	0.281035	-0.077415
H144	H	1.655660	0.224719	0.054276
N145	N	1.596657	0.231237	0.571278
H146	H	1.604412	0.187827	0.655675
H147	H	1.666943	0.187932	0.575864
H148	H	0.427398	1.434759	-0.744343
N149	N	0.610101	1.226544	-0.534851
H150	H	0.680424	1.183120	-0.530150
H151	H	0.560986	1.219008	-0.578890
N152	N	1.655503	0.403494	0.076799
H153	H	1.703217	0.335614	0.075453
H154	H	1.672335	0.363845	0.163172
H155	H	1.171253	0.439360	0.361915
N156	N	1.399513	0.430173	0.350220
H157	H	1.328547	0.466169	0.346360
H158	H	1.439448	0.332832	0.405919
N159	N	1.487560	0.602389	0.054690
H160	H	1.565466	0.557541	0.096801
H161	H	1.460141	0.585720	0.115471
H162	H	0.858228	1.735427	-0.777746
N163	N	0.978534	1.697224	-0.885632
H164	H	0.922208	1.785342	-0.918481
H165	H	0.961686	1.687634	-0.947403
N166	N	1.129910	1.425511	-0.755941
H167	H	1.115246	1.505988	-0.832787
H168	H	1.118468	1.372605	-0.773187
N169	N	1.200772	0.231220	0.571373
H170	H	1.242463	0.223523	0.527416
H171	H	1.163189	0.187900	0.576057
N172	N	0.647126	1.597695	-0.056164
H173	H	0.725033	1.552837	-0.014039
H174	H	0.619694	1.581048	0.004604
N175	N	0.431730	1.697191	-0.189053
H176	H	0.461922	1.720226	-0.145597
H177	H	0.390819	1.663814	-0.152005
N178	N	0.384287	1.597729	-0.299768
H179	H	0.336574	1.665603	-0.298416
H180	H	0.374165	1.524630	-0.260832
H181	H	0.927571	0.566562	0.521297
N182	N	1.141733	1.226557	-0.534872
H183	H	1.183393	1.218918	-0.578872
H184	H	1.104149	1.183242	-0.530205
