data_functionalizedCrystal
_audit_creation_method	'MofGen! by Chris Wilmer'
_symmetry_space_group_name_H-M	'P1'
_symmetry_Int_Tables_number	1
_symmetry_cell_setting	triclinic
loop_
_symmetry_equiv_pos_as_xyz
  x,y,z
_cell_length_a	10.654550
_cell_length_b	10.268362
_cell_length_c	10.654551
_cell_angle_alpha	90.002449
_cell_angle_beta	84.485132
_cell_angle_gamma	90.008099
loop_
_atom_site_label
_atom_site_type_symbol
_atom_site_fract_x
_atom_site_fract_y
_atom_site_fract_z
O1	O	1.667842	0.108399	0.176400
O2	O	1.302364	0.108377	0.193206
O3	O	1.493505	0.108389	0.002063
O4	O	1.476700	0.108386	0.367542
O5	O	1.493488	-0.108212	0.002055
O6	O	1.302347	-0.108224	0.193198
O7	O	1.667825	-0.108202	0.176391
Cu8	Cu	1.485084	-0.127990	0.184794
Cu9	Cu	1.485104	0.128165	0.184803
O10	O	1.476684	-0.108214	0.367534
C11	C	1.255557	0.000074	0.191968
C12	C	1.116114	0.000066	0.188276
N13	N	1.485080	-0.308156	0.184786
C14	C	1.036629	0.000084	0.300817
C15	C	0.905608	0.000107	0.297341
C16	C	0.933570	0.000098	0.068771
C17	C	1.064589	0.000066	0.072249
C18	C	1.020484	0.000095	0.432780
C19	C	0.889463	0.000117	0.429304
C20	C	1.485098	-0.573827	0.184801
C21	C	1.485084	-0.425989	0.184796
C22	C	1.714632	0.000104	0.177629
C23	C	1.854075	0.000120	0.181321
C24	C	1.492263	0.000091	-0.044739
C25	C	1.488570	0.000100	-0.184182
N26	N	1.485119	0.308331	0.184801
C27	C	1.486847	0.118167	-0.249689
C28	C	1.483367	0.118160	-0.380710
C29	C	1.483338	-0.117990	-0.380704
C30	C	1.486809	-0.117982	-0.249685
C31	C	1.486869	0.254506	-0.249694
C32	C	1.483389	0.254500	-0.380715
C33	C	1.477926	0.000086	0.414336
C34	C	1.481619	0.000086	0.553779
H35	H	1.129302	0.000033	-0.019393
H36	H	1.400084	0.306855	-0.203412
H37	H	1.481902	-0.214128	-0.434052
Br38	Br	1.639540	0.325023	-0.200399
Br39	Br	1.330729	0.325008	-0.430007
Br40	Br	0.863635	0.000094	-0.088686
Br41	Br	0.819906	0.151204	0.512179
Br42	Br	1.628050	0.341746	-0.457879
H43	H	1.488205	-0.214123	-0.196353
Br44	Br	1.079938	0.155958	0.502814
Br45	Br	1.069371	-0.150987	0.518803
H46	H	0.843784	-0.093395	0.469181
