data_functionalizedCrystal
_audit_creation_method	'MofGen! by Chris Wilmer'
_symmetry_space_group_name_H-M	'P1'
_symmetry_Int_Tables_number	1
_symmetry_cell_setting	triclinic
loop_
_symmetry_equiv_pos_as_xyz
  x,y,z
_cell_length_a	29.839131
_cell_length_b	13.897449
_cell_length_c	13.897441
_cell_angle_alpha	90.022859
_cell_angle_beta	89.964857
_cell_angle_gamma	89.958747
loop_
_atom_site_label
_atom_site_type_symbol
_atom_site_fract_x
_atom_site_fract_y
_atom_site_fract_z
Zn1	Zn	-0.178841	-1.474544	-0.545405
Zn2	Zn	0.321159	-0.974544	-0.045405
Zn3	Zn	-0.253976	-1.474371	-0.384094
Zn4	Zn	0.246024	-0.974371	0.115906
Zn5	Zn	-0.178860	-1.313233	-0.384118
Zn6	Zn	0.321140	-0.813233	0.115882
Zn7	Zn	-0.253945	-1.313148	-0.545341
Zn8	Zn	0.246055	-0.813148	-0.045341
O9	O	-0.216405	-1.393824	-0.464739
O10	O	0.283595	-0.893824	0.035261
O11	O	-0.188813	-1.609502	-0.524024
O12	O	0.311187	-1.109502	-0.024024
O13	O	-0.244033	-1.452959	-0.249115
O14	O	0.255967	-0.952959	0.250885
O15	O	-0.115991	-1.334739	-0.405550
O16	O	0.384009	-0.834739	0.094450
O17	O	-0.244014	-1.609375	-0.405509
O18	O	0.255986	-1.109375	0.094491
O19	O	-0.115976	-1.453253	-0.524047
O20	O	0.384024	-0.953253	-0.024047
O21	O	-0.188846	-1.334571	-0.249133
O22	O	0.311154	-0.834571	0.250867
O23	O	-0.188816	-1.178240	-0.405487
O24	O	0.311184	-0.678240	0.094513
O25	O	-0.243961	-1.334594	-0.680331
O26	O	0.256039	-0.834594	-0.180331
O27	O	-0.243979	-1.178177	-0.523937
O28	O	0.256021	-0.678177	-0.023937
O29	O	-0.188782	-1.453171	-0.680378
O30	O	0.311218	-0.953171	-0.180378
O31	O	-0.316839	-1.452876	-0.405447
O32	O	0.183161	-0.952876	0.094553
O33	O	-0.316816	-1.334426	-0.523914
O34	O	0.183184	-0.834426	-0.023914
C35	C	-0.216397	-1.143209	-0.464708
C36	C	0.283603	-0.643209	0.035292
C37	C	-0.216404	-1.035995	-0.464718
C38	C	0.283596	-0.535995	0.035282
C39	C	-0.216403	-0.839700	-0.464736
C40	C	0.283597	-0.339700	0.035264
C41	C	-0.216402	-0.948933	-0.464723
C42	C	0.283598	-0.448933	0.035277
C43	C	-0.333128	-1.393649	-0.464692
C44	C	0.166872	-0.893649	0.035308
C45	C	-0.383063	-1.393663	-0.464703
C46	C	0.116937	-0.893663	0.035297
C47	C	-0.692705	-1.455613	-0.403144
C48	C	-0.192705	-0.955613	0.096856
C49	C	-0.880378	-1.455732	-0.403181
C50	C	-0.380378	-0.955732	0.096819
O51	O	-0.904643	-1.508265	-0.350804
O52	O	-0.404643	-1.008265	0.149196
N53	N	-0.903847	-1.394024	-0.464812
N54	N	-0.403847	-0.894024	0.035188
C55	C	-0.880396	-1.332286	-0.526443
C56	C	-0.380396	-0.832286	-0.026443
O57	O	-0.904664	-1.279809	-0.578872
O58	O	-0.404664	-0.779809	-0.078872
C59	C	-0.692723	-1.332172	-0.526409
C60	C	-0.192723	-0.832172	-0.026409
C61	C	-0.669257	-1.393878	-0.464767
C62	C	-0.169257	-0.893878	0.035233
C63	C	-0.669238	-1.517314	-0.341507
C64	C	-0.169238	-1.017314	0.158493
C65	C	-0.622323	-1.517280	-0.341495
C66	C	-0.122323	-1.017280	0.158505
C67	C	-0.598874	-1.455545	-0.403119
C68	C	-0.098874	-0.955545	0.096881
C69	C	-0.622341	-1.393844	-0.464755
C70	C	-0.122341	-0.893844	0.035245
C71	C	-0.669272	-1.270440	-0.588044
C72	C	-0.169272	-0.770440	-0.088044
C73	C	-0.622351	-1.270419	-0.588032
C74	C	-0.122351	-0.770419	-0.088032
C75	C	-0.598885	-1.332124	-0.526390
C76	C	-0.098885	-0.832124	-0.026390
C77	C	-0.551977	-1.332074	-0.526366
C78	C	-0.051977	-0.832074	-0.026366
N79	N	-0.528508	-1.393782	-0.464735
N80	N	-0.028508	-0.893782	0.035265
C81	C	-0.551956	-1.455518	-0.403111
C82	C	-0.051956	-0.955518	0.096889
C83	C	-0.978926	-1.332349	-0.526454
C84	C	-0.478926	-0.832349	-0.026454
C85	C	-1.025844	-1.332375	-0.526462
C86	C	-0.525844	-0.832375	-0.026462
C87	C	-1.025823	-1.455823	-0.403201
C88	C	-0.525823	-0.955823	0.096799
C89	C	-0.978905	-1.455790	-0.403190
C90	C	-0.478905	-0.955790	0.096810
C91	C	-0.955457	-1.394057	-0.464823
C92	C	-0.455457	-0.894057	0.035177
C93	C	-0.453431	-1.455441	-0.403089
C94	C	0.046569	-0.955441	0.096911
C95	C	-0.406511	-1.455398	-0.403080
C96	C	0.093489	-0.955398	0.096920
C97	C	-0.406536	-1.331955	-0.526343
C98	C	0.093464	-0.831955	-0.026343
C99	C	-0.453451	-1.331993	-0.526350
C100	C	0.046549	-0.831993	-0.026350
C101	C	-0.476898	-1.393744	-0.464720
C102	C	0.023102	-0.893744	0.035280
O103	O	-0.527684	-1.279576	-0.578723
O104	O	-0.027684	-0.779576	-0.078723
O105	O	-0.527680	-1.508002	-0.350706
O106	O	-0.027680	-1.008002	0.149294
C107	C	-0.739621	-1.455647	-0.403156
C108	C	-0.239621	-0.955647	0.096844
C109	C	-0.763088	-1.393946	-0.464792
C110	C	-0.263088	-0.893946	0.035208
C111	C	-0.739639	-1.332211	-0.526416
C112	C	-0.239639	-0.832211	-0.026416
C113	C	-0.810005	-1.393973	-0.464800
C114	C	-0.310005	-0.893973	0.035200
C115	C	-0.833454	-1.455708	-0.403176
C116	C	-0.333454	-0.955708	0.096824
C117	C	-0.809985	-1.517416	-0.341545
C118	C	-0.309985	-1.017416	0.158455
C119	C	-0.763069	-1.517382	-0.341532
C120	C	-0.263069	-1.017382	0.158468
C121	C	-0.763108	-1.270503	-0.588047
C122	C	-0.263108	-0.770503	-0.088047
C123	C	-0.810024	-1.270541	-0.588054
C124	C	-0.310024	-0.770541	-0.088054
C125	C	-0.833472	-1.332276	-0.526430
C126	C	-0.333472	-0.832276	-0.026430
C127	C	-0.099227	-1.394025	-0.464809
C128	C	0.400773	-0.894025	0.035191
C129	C	-0.049293	-1.394111	-0.464838
C130	C	0.450707	-0.894111	0.035162
C131	C	-0.216366	-1.393892	-0.716333
C132	C	0.283634	-0.893892	-0.216333
C133	C	-0.216349	-1.393921	-0.823547
C134	C	0.283651	-0.893921	-0.323547
C135	C	-0.216412	-0.645417	-0.464762
C136	C	0.283588	-0.145417	0.035238
C137	C	-0.216407	-0.752631	-0.464748
C138	C	0.283593	-0.252631	0.035252
C139	C	-0.216318	-1.393948	-1.019842
C140	C	0.283682	-0.893948	-0.519842
C141	C	-0.216337	-1.393930	-0.910609
C142	C	0.283663	-0.893930	-0.410609
C143	C	-0.216413	-1.393811	-0.214125
C144	C	0.283587	-0.893811	0.285875
C145	C	-0.216303	-1.393969	-0.106912
C146	C	0.283697	-0.893969	0.393088
H147	H	-0.387406	-1.505646	-0.352880
H148	H	0.112594	-1.005646	0.147120
H149	H	-1.044947	-1.282120	-0.576648
H150	H	-0.544947	-0.782120	-0.076648
H151	H	-0.959838	-1.282075	-0.576645
H152	H	-0.459838	-0.782075	-0.076645
H153	H	-1.044923	-1.506090	-0.353025
H154	H	-0.544923	-1.006090	0.146975
H155	H	-0.829085	-1.567680	-0.291366
H156	H	-0.329085	-1.067680	0.208634
H157	H	-0.603219	-1.567528	-0.291304
H158	H	-0.103219	-1.067528	0.208696
H159	H	-0.472559	-1.281751	-0.576547
H160	H	0.027441	-0.781751	-0.076547
H161	H	-0.688371	-1.220189	-0.638235
H162	H	-0.188371	-0.720189	-0.138235
H163	H	-0.688325	-1.567591	-0.291326
H164	H	-0.188325	-1.067591	0.208674
H165	H	-0.387437	-1.281688	-0.576514
H166	H	0.112563	-0.781688	-0.076514
H167	H	-0.744020	-1.220232	-0.638230
H168	H	-0.244020	-0.720232	-0.138230
H169	H	-0.603262	-1.220149	-0.638225
H170	H	-0.103262	-0.720149	-0.138225
H171	H	-0.743966	-1.567628	-0.291338
H172	H	-0.243966	-1.067628	0.208662
H173	H	-0.829126	-1.220285	-0.638249
H174	H	-0.329126	-0.720285	-0.138249
H175	H	-0.472515	-1.505726	-0.352906
H176	H	0.027485	-1.005726	0.147094
H177	H	-0.959801	-1.506036	-0.352996
H178	H	-0.459801	-1.006036	0.147004
