data_functionalizedCrystal
_audit_creation_method	'MofGen! by Chris Wilmer'
_symmetry_space_group_name_H-M	'P1'
_symmetry_Int_Tables_number	1
_symmetry_cell_setting	triclinic
loop_
_symmetry_equiv_pos_as_xyz
  x,y,z
_cell_length_a	27.732048
_cell_length_b	16.992694
_cell_length_c	15.455313
_cell_angle_alpha	92.857794
_cell_angle_beta	92.637842
_cell_angle_gamma	93.344561
loop_
_atom_site_label
_atom_site_type_symbol
_atom_site_fract_x
_atom_site_fract_y
_atom_site_fract_z
O1	O	0.100467	-1.042606	-0.072038
O2	O	0.099342	-0.814336	-0.072063
O3	O	0.029815	-0.935560	-0.072033
O4	O	0.169994	-0.921382	-0.072068
O5	O	0.033773	-0.928628	0.072227
O6	O	0.103301	-0.807404	0.072197
O7	O	0.104425	-1.035674	0.072223
Cu8	Cu	0.104225	-0.920906	0.085382
Cu9	Cu	0.099543	-0.929104	-0.085222
O10	O	0.173953	-0.914450	0.072193
C11	C	0.099876	-0.781675	0.000064
C12	C	0.095561	-0.694684	0.000055
C13	C	0.013774	-0.931796	0.000100
C14	C	-0.039919	-0.930900	0.000107
C15	C	0.103892	-1.068335	0.000094
C16	C	0.108206	-1.155327	0.000097
C17	C	-0.375882	-0.996895	0.000069
C18	C	-0.577686	-0.993571	0.000057
O19	O	-0.606333	-1.053919	0.000026
N20	N	-0.599917	-0.921689	0.000050
C21	C	-0.571695	-0.850634	0.000040
O22	O	-0.595235	-0.789419	0.000025
C23	C	-0.369892	-0.853960	0.000046
C24	C	-0.347663	-0.925846	0.000062
C25	C	-0.353652	-1.068775	0.000084
C26	C	-0.303204	-1.069605	0.000092
C27	C	-0.274986	-0.998556	0.000085
C28	C	-0.297215	-0.926676	0.000070
C29	C	-0.341671	-0.782906	0.000030
C30	C	-0.291218	-0.783744	0.000030
C31	C	-0.268989	-0.855630	0.000046
C32	C	-0.218549	-0.856457	0.000071
N33	N	-0.196317	-0.928338	0.000078
C34	C	-0.224535	-0.999387	0.000085
C35	C	-0.677644	-0.848893	0.000038
C36	C	-0.728095	-0.848061	0.000038
C37	C	-0.734082	-0.990998	0.000054
C38	C	-0.683630	-0.991829	0.000060
C39	C	-0.655413	-0.920775	0.000046
C40	C	-0.118591	-1.001126	0.000102
C41	C	-0.068138	-1.001949	0.000114
C42	C	-0.062155	-0.859013	0.000094
C43	C	-0.112603	-0.858189	0.000087
C44	C	-0.140820	-0.929251	0.000088
O45	O	-0.189872	-0.796141	0.000092
O46	O	-0.200987	-1.060595	0.000081
C47	C	-0.426330	-0.996065	0.000062
C48	C	-0.448559	-0.924185	0.000047
C49	C	-0.420341	-0.853136	0.000039
C50	C	-0.499010	-0.923354	0.000047
C51	C	-0.527228	-0.994403	0.000054
C52	C	-0.504997	-1.066285	0.000061
C53	C	-0.454549	-1.067115	0.000069
C54	C	-0.442573	-0.781254	0.000032
C55	C	-0.493021	-0.780430	0.000025
C56	C	-0.521240	-0.851480	0.000033
C57	C	0.189993	-0.918214	0.000058
C58	C	0.243687	-0.919111	0.000046
N59	N	0.107517	-0.915146	0.205376
C60	C	0.137184	-0.643939	0.000046
C61	C	0.133129	-0.562201	0.000059
C62	C	0.087449	-0.531209	0.000075
C63	C	0.045823	-0.581960	0.000087
C64	C	0.049880	-0.663696	0.000080
C65	C	0.070637	-0.287814	0.000102
C66	C	0.066583	-0.206071	0.000106
C67	C	0.153889	-0.186318	0.000080
C68	C	0.157941	-0.268057	0.000068
C69	C	0.116315	-0.318800	0.000084
N70	N	0.083302	-0.447660	0.000086
N71	N	0.120463	-0.402347	0.000080
N72	N	0.096247	-0.934870	-0.205217
C73	C	0.077992	-0.966664	0.250783
C74	C	0.080486	-0.962315	0.341590
C75	C	0.112509	-0.906451	0.386988
C76	C	0.142036	-0.854928	0.341575
C77	C	0.139538	-0.859274	0.250770
C78	C	0.123276	-0.887693	0.658565
C79	C	0.125773	-0.883353	0.749377
C80	C	0.064222	-0.990739	0.749385
C81	C	0.061730	-0.995083	0.658578
C82	C	0.091254	-0.943557	0.613173
N83	N	0.115061	-0.902006	0.479807
N84	N	0.088700	-0.947999	0.520356
H85	H	-0.050041	-1.060489	0.000129
Cl86	Cl	-0.002449	-0.727490	0.000096
Cl87	Cl	0.206215	-0.122523	0.000062
Cl88	Cl	-0.275267	-1.159982	0.000088
H89	H	0.174382	-0.669166	0.000032
H90	H	-0.130703	-0.799653	0.000098
H91	H	-0.141559	-1.058992	0.000100
H92	H	0.051917	-1.012157	0.213826
H93	H	-0.268245	-0.725882	0.000017
H94	H	0.167023	-0.520888	0.000050
Cl95	Cl	0.160394	-0.822922	0.601490
H96	H	0.195138	-0.293284	0.000044
Cl97	Cl	-0.389119	-1.158107	0.000095
Cl98	Cl	0.043367	-1.027080	0.398675
H99	H	0.029383	-0.180842	0.000119
H100	H	0.036742	-0.329120	0.000117
H101	H	-0.436454	-1.125651	0.000081
Cl102	Cl	-0.011603	-0.542998	0.000113
H103	H	-0.419602	-0.723396	0.000024
H104	H	0.035654	-1.040572	0.621617
H105	H	-0.039170	-0.801166	0.000091
H106	H	-0.757066	-1.048849	0.000060
H107	H	0.040184	-1.032688	0.786363
H108	H	0.151851	-0.837859	0.786336
Cl109	Cl	0.182292	-0.784694	0.398645
H110	H	0.163580	-0.817322	0.213800
Cl111	Cl	-0.655691	-1.082202	0.000079
H112	H	-0.746189	-0.789524	0.000040
H113	H	-0.359761	-0.724370	0.000012
Cl114	Cl	-0.642177	-0.759558	0.000021
H115	H	-0.527981	-1.124135	0.000070
H116	H	-0.511115	-0.721887	0.000020
