data_functionalizedCrystal
_audit_creation_method	'MofGen! by Chris Wilmer'
_symmetry_space_group_name_H-M	'P1'
_symmetry_Int_Tables_number	1
_symmetry_cell_setting	triclinic
loop_
_symmetry_equiv_pos_as_xyz
  x,y,z
_cell_length_a	23.532407
_cell_length_b	23.532407
_cell_length_c	22.610064
_cell_angle_alpha	89.999397
_cell_angle_beta	89.997161
_cell_angle_gamma	82.848678
loop_
_atom_site_label
_atom_site_type_symbol
_atom_site_fract_x
_atom_site_fract_y
_atom_site_fract_z
O1	O	0.755263	0.069127	-0.049117
O2	O	1.088597	0.402460	0.284217
O3	O	1.421930	0.735794	0.617550
O4	O	0.589400	0.079130	-0.049135
O5	O	0.922733	0.412464	0.284198
O6	O	1.256067	0.745797	0.617532
O7	O	0.677333	-0.008803	-0.049114
O8	O	1.010667	0.324530	0.284219
O9	O	1.344000	0.657864	0.617552
O10	O	0.667330	0.157060	-0.049137
O11	O	1.000664	0.490394	0.284196
O12	O	1.333997	0.823727	0.617529
O13	O	0.677318	-0.008790	0.049255
O14	O	1.010651	0.324543	0.382588
O15	O	1.343985	0.657876	0.715921
O16	O	0.589385	0.079143	0.049234
O17	O	0.922718	0.412476	0.382568
O18	O	1.256051	0.745810	0.715901
O19	O	0.755248	0.069140	0.049252
O20	O	1.088581	0.402473	0.382586
O21	O	1.421915	0.735807	0.715919
Zn22	Zn	0.672314	0.074144	0.064862
Zn23	Zn	1.005647	0.407477	0.398195
Zn24	Zn	1.338980	0.740810	0.731528
Zn25	Zn	0.672334	0.074127	-0.064744
Zn26	Zn	1.005668	0.407460	0.268589
Zn27	Zn	1.339001	0.740793	0.601923
O28	O	0.667315	0.157073	0.049232
O29	O	1.000648	0.490407	0.382565
O30	O	1.333981	0.823740	0.715899
C31	C	0.568176	0.078882	0.000048
C32	C	0.901510	0.412215	0.333381
C33	C	1.234843	0.745549	0.666714
C34	C	0.504959	0.078116	0.000041
C35	C	0.838293	0.411449	0.333374
C36	C	1.171626	0.744783	0.666708
C37	C	0.677071	-0.030013	0.000072
C38	C	1.010404	0.303321	0.333405
C39	C	1.343738	0.636654	0.666738
C40	C	0.676305	-0.093230	0.000076
C41	C	1.009638	0.240104	0.333409
C42	C	1.342972	0.573437	0.666743
C43	C	0.105856	0.125350	0.000061
C44	C	0.439190	0.458683	0.333395
C45	C	0.772523	0.792016	0.666728
C46	C	0.046456	0.124638	0.000065
C47	C	0.379789	0.457971	0.333398
C48	C	0.713123	0.791305	0.666732
O49	O	0.009711	0.168424	0.000081
O50	O	0.343045	0.501757	0.333414
O51	O	0.676378	0.835091	0.666747
N52	N	0.023830	0.072362	0.000071
N53	N	0.357163	0.405695	0.333405
N54	N	0.690496	0.739028	0.666738
C55	C	0.060607	0.020794	0.000080
C56	C	0.393941	0.354127	0.333413
C57	C	0.727274	0.687460	0.666746
O58	O	0.035908	-0.023737	0.000086
O59	O	0.369241	0.309596	0.333419
O60	O	0.702574	0.642930	0.666753
C61	C	0.120006	0.021506	0.000080
C62	C	0.453340	0.354839	0.333414
C63	C	0.786673	0.688172	0.666747
C64	C	0.142629	0.073785	0.000068
C65	C	0.475962	0.407119	0.333401
C66	C	0.809296	0.740452	0.666735
C67	C	0.128479	0.177625	0.000050
C68	C	0.461813	0.510958	0.333383
C69	C	0.795146	0.844292	0.666716
C70	C	0.187876	0.178336	0.000045
C71	C	0.521209	0.511670	0.333378
C72	C	0.854542	0.845003	0.666712
C73	C	0.224649	0.126772	0.000052
C74	C	0.557982	0.460105	0.333385
C75	C	0.891315	0.793439	0.666718
C76	C	0.202025	0.074497	0.000063
C77	C	0.535359	0.407830	0.333397
C78	C	0.868692	0.741163	0.666730
C79	C	0.156783	-0.030062	0.000093
C80	C	0.490116	0.303271	0.333426
C81	C	0.823450	0.636605	0.666760
C82	C	0.216185	-0.029345	0.000094
C83	C	0.549519	0.303988	0.333427
C84	C	0.882852	0.637321	0.666761
C85	C	0.238808	0.022934	0.000082
C86	C	0.572141	0.356268	0.333415
C87	C	0.905475	0.689601	0.666748
C88	C	0.298194	0.023643	0.000065
C89	C	0.631528	0.356977	0.333398
C90	C	0.964861	0.690310	0.666732
N91	N	0.320820	0.075920	0.000059
N92	N	0.654154	0.409253	0.333392
N93	N	0.987487	0.742586	0.666726
C94	C	0.284048	0.127484	0.000052
C95	C	0.617381	0.460817	0.333386
C96	C	0.950714	0.794151	0.666719
C97	C	-0.064135	0.019302	0.000080
C98	C	0.269198	0.352635	0.333413
C99	C	0.602532	0.685969	0.666746
C100	C	-0.123533	0.018589	0.000075
C101	C	0.209800	0.351923	0.333408
C102	C	0.543134	0.685256	0.666742
C103	C	-0.137680	0.122434	0.000061
C104	C	0.195653	0.455768	0.333395
C105	C	0.528986	0.789101	0.666728
C106	C	-0.078281	0.123146	0.000062
C107	C	0.255052	0.456480	0.333395
C108	C	0.588385	0.789813	0.666729
C109	C	-0.041509	0.071578	0.000074
C110	C	0.291824	0.404912	0.333407
C111	C	0.625158	0.738245	0.666740
C112	C	0.408784	0.128974	0.000042
C113	C	0.742118	0.462307	0.333375
C114	C	1.075451	0.795640	0.666708
C115	C	0.468186	0.129680	0.000034
C116	C	0.801520	0.463014	0.333368
C117	C	1.134853	0.796347	0.666701
C118	C	0.482329	0.025836	0.000051
C119	C	0.815662	0.359169	0.333384
C120	C	1.148995	0.692503	0.666718
C121	C	0.422932	0.025129	0.000055
C122	C	0.756265	0.358462	0.333389
C123	C	1.089598	0.691796	0.666722
C124	C	0.386160	0.076702	0.000052
C125	C	0.719494	0.410036	0.333386
C126	C	1.052827	0.743369	0.666719
O127	O	0.334974	-0.020119	0.000052
O128	O	0.668307	0.313214	0.333385
O129	O	1.001640	0.646547	0.666719
O130	O	0.308755	0.172007	0.000054
O131	O	0.642089	0.505340	0.333387
O132	O	0.975422	0.838674	0.666721
C133	C	0.723539	-0.492333	0.000049
C134	C	1.056872	-0.158999	0.333382
C135	C	1.390205	0.174334	0.666716
C136	C	0.722827	-0.551733	0.000044
C137	C	1.056160	-0.218400	0.333378
C138	C	1.389494	0.114934	0.666711
O139	O	0.766613	-0.588478	0.000027
O140	O	1.099946	-0.255144	0.333361
O141	O	1.433280	0.078189	0.666694
N142	N	0.670551	-0.574359	0.000039
N143	N	1.003884	-0.241026	0.333372
N144	N	1.337217	0.092307	0.666706
C145	C	0.618983	-0.537582	0.000032
C146	C	0.952316	-0.204248	0.333366
C147	C	1.285649	0.129085	0.666699
O148	O	0.574452	-0.562281	0.000027
O149	O	0.907785	-0.228948	0.333360
O150	O	1.241119	0.104385	0.666693
C151	C	0.619695	-0.478182	0.000033
C152	C	0.953028	-0.144849	0.333366
C153	C	1.286361	0.188484	0.666699
C154	C	0.671974	-0.455560	0.000044
C155	C	1.005308	-0.122227	0.333377
C156	C	1.338641	0.211107	0.666711
C157	C	0.775814	-0.469710	0.000060
C158	C	1.109147	-0.136376	0.333393
C159	C	1.442481	0.196957	0.666726
C160	C	0.776525	-0.410313	0.000065
C161	C	1.109859	-0.076980	0.333399
C162	C	1.443192	0.256353	0.666732
C163	C	0.724961	-0.373540	0.000060
C164	C	1.058294	-0.040207	0.333394
C165	C	1.391628	0.293126	0.666727
C166	C	0.672685	-0.396164	0.000050
C167	C	1.006019	-0.062830	0.333383
C168	C	1.339352	0.270503	0.666716
C169	C	0.568127	-0.441406	0.000022
C170	C	0.901460	-0.108073	0.333355
C171	C	1.234794	0.225261	0.666688
C172	C	0.568844	-0.382004	0.000021
C173	C	0.902177	-0.048670	0.333355
C174	C	1.235510	0.284663	0.666688
C175	C	0.621123	-0.359381	0.000033
C176	C	0.954457	-0.026048	0.333366
C177	C	1.287790	0.307286	0.666699
C178	C	0.621832	-0.299995	0.000050
C179	C	0.955166	0.033339	0.333384
C180	C	1.288499	0.366672	0.666717
N181	N	0.674109	-0.277368	0.000056
N182	N	1.007442	0.055965	0.333389
N183	N	1.340775	0.389298	0.666722
C184	C	0.725673	-0.314141	0.000061
C185	C	1.059006	0.019192	0.333394
C186	C	1.392340	0.352525	0.666727
C187	C	0.617491	-0.662324	0.000031
C188	C	0.950824	-0.328991	0.333364
C189	C	1.284158	0.004343	0.666697
C190	C	0.616778	-0.721722	0.000034
C191	C	0.950112	-0.388389	0.333368
C192	C	1.283445	-0.055055	0.666701
C193	C	0.720623	-0.735869	0.000045
C194	C	1.053957	-0.402536	0.333379
C195	C	1.387290	-0.069203	0.666712
C196	C	0.721335	-0.676470	0.000046
C197	C	1.054669	-0.343137	0.333379
C198	C	1.388002	-0.009804	0.666712
C199	C	0.669767	-0.639698	0.000036
C200	C	1.003101	-0.306365	0.333369
C201	C	1.336434	0.026969	0.666702
C202	C	0.727163	-0.189405	0.000073
C203	C	1.060496	0.143929	0.333406
C204	C	1.393829	0.477262	0.666740
C205	C	0.727869	-0.130003	0.000081
C206	C	1.061203	0.203331	0.333414
C207	C	1.394536	0.536664	0.666748
C208	C	0.624025	-0.115860	0.000067
C209	C	0.957358	0.217473	0.333400
C210	C	1.290692	0.550806	0.666734
C211	C	0.623318	-0.175257	0.000062
C212	C	0.956651	0.158076	0.333395
C213	C	1.289985	0.491409	0.666729
C214	C	0.674891	-0.212029	0.000063
C215	C	1.008225	0.121305	0.333396
C216	C	1.341558	0.454638	0.666730
O217	O	0.578070	-0.263215	0.000065
O218	O	0.911403	0.070118	0.333398
O219	O	1.244736	0.403451	0.666732
O220	O	0.770196	-0.289433	0.000058
O221	O	1.103529	0.043900	0.333392
O222	O	1.436863	0.377233	0.666725
C223	C	0.776472	0.069388	0.000069
C224	C	1.109805	0.402722	0.333402
C225	C	1.443138	0.736055	0.666735
C226	C	0.839689	0.070154	0.000071
C227	C	1.173022	0.403487	0.333405
C228	C	1.506355	0.736821	0.666738
C229	C	0.667577	0.178283	0.000045
C230	C	1.000910	0.511616	0.333378
C231	C	1.334244	0.844949	0.666711
C232	C	0.668343	0.241500	0.000036
C233	C	1.001676	0.574833	0.333370
C234	C	1.335010	0.908167	0.666703
N235	N	0.672304	0.074155	0.153314
N236	N	1.005637	0.407488	0.486647
N237	N	1.338971	0.740821	0.819981
N238	N	0.672349	0.074111	-0.153196
N239	N	1.005682	0.407444	0.180137
N240	N	1.339015	0.740778	0.513470
C241	C	0.711273	0.035196	0.561965
C242	C	1.044606	0.368529	0.895298
C243	C	1.377940	0.701862	1.228631
C244	C	0.711276	0.035192	0.623884
C245	C	1.044609	0.368525	0.957218
C246	C	1.377942	0.701858	1.290551
O247	O	0.744384	0.002076	0.655911
O248	O	1.077718	0.335409	0.989244
O249	O	1.411051	0.668742	1.322578
N250	N	0.672334	0.074115	0.654851
N251	N	1.005667	0.407448	0.988185
N252	N	1.339001	0.740781	1.321518
C253	C	0.633383	0.113041	0.623895
C254	C	0.966716	0.446374	0.957228
C255	C	1.300049	0.779708	1.290562
O256	O	0.600259	0.146147	0.655920
O257	O	0.933593	0.479481	0.989254
O258	O	1.266926	0.812814	1.322587
C259	C	0.633377	0.113042	0.561976
C260	C	0.966711	0.446375	0.895309
C261	C	1.300044	0.779709	1.228643
C262	C	0.672326	0.074120	0.531013
C263	C	1.005659	0.407453	0.864346
C264	C	1.338992	0.740787	1.197679
C265	C	0.750218	-0.003724	0.531001
C266	C	1.083551	0.329610	0.864334
C267	C	1.416884	0.662943	1.197668
C268	C	0.750215	-0.003719	0.469085
C269	C	1.083549	0.329615	0.802419
C270	C	1.416882	0.662948	1.135752
C271	C	0.711268	0.035206	0.438133
C272	C	1.044601	0.368539	0.771467
C273	C	1.377935	0.701872	1.104800
C274	C	0.672323	0.074125	0.469097
C275	C	1.005657	0.407458	0.802430
C276	C	1.338990	0.740792	1.135764
C277	C	0.594424	0.151965	0.531021
C278	C	0.927757	0.485298	0.864354
C279	C	1.261091	0.818631	1.197688
C280	C	0.594422	0.151962	0.469098
C281	C	0.927755	0.485295	0.802431
C282	C	1.261089	0.818629	1.135765
C283	C	0.633370	0.113040	0.438134
C284	C	0.966704	0.446374	0.771468
C285	C	1.300037	0.779707	1.104801
C286	C	0.633374	0.113054	0.376229
C287	C	0.966707	0.446387	0.709563
C288	C	1.300041	0.779721	1.042896
N289	N	0.672316	0.074131	0.345262
N290	N	1.005649	0.407464	0.678596
N291	N	1.338983	0.740798	1.011929
C292	C	0.711263	0.035207	0.376214
C293	C	1.044596	0.368540	0.709548
C294	C	1.377930	0.701873	1.042881
C295	C	0.633396	0.113035	0.753928
C296	C	0.966729	0.446369	1.087262
C297	C	1.300063	0.779702	1.420595
C298	C	0.633403	0.113037	0.815846
C299	C	0.966737	0.446371	1.149179
C300	C	1.300070	0.779704	1.482513
C301	C	0.711296	0.035187	0.815831
C302	C	1.044629	0.368521	1.149165
C303	C	1.377962	0.701854	1.482498
C304	C	0.711291	0.035188	0.753913
C305	C	1.044624	0.368521	1.087246
C306	C	1.377957	0.701855	1.420579
C307	C	0.672338	0.074112	0.722962
C308	C	1.005671	0.407445	1.056295
C309	C	1.339004	0.740779	1.389628
C310	C	0.711255	0.035220	0.246187
C311	C	1.044589	0.368554	0.579520
C312	C	1.377922	0.701887	0.912854
C313	C	0.711251	0.035230	0.184266
C314	C	1.044584	0.368564	0.517599
C315	C	1.377918	0.701897	0.850933
C316	C	0.633357	0.113078	0.184286
C317	C	0.966690	0.446412	0.517619
C318	C	1.300023	0.779745	0.850953
C319	C	0.633363	0.113071	0.246202
C320	C	0.966696	0.446404	0.579535
C321	C	1.300029	0.779737	0.912869
C322	C	0.672314	0.074137	0.277151
C323	C	1.005648	0.407470	0.610484
C324	C	1.338981	0.740804	0.943818
O325	O	0.600281	0.146152	0.344163
O326	O	0.933614	0.479485	0.677497
O327	O	1.266948	0.812818	1.010830
O328	O	0.744376	0.002101	0.344182
O329	O	1.077709	0.335434	0.677515
O330	O	1.411042	0.668767	1.010848
H331	H	0.378851	0.170970	0.000041
H332	H	0.712185	0.504303	0.333375
H333	H	1.045518	0.837637	0.666708
N334	N	0.776238	-0.775542	0.000046
N335	N	1.109572	-0.442208	0.333379
N336	N	1.442905	-0.108875	0.666712
H337	H	0.799068	-0.768299	-0.036417
H338	H	1.132401	-0.434966	0.296916
H339	H	1.465734	-0.101632	0.630250
H340	H	0.799013	-0.768285	0.036538
H341	H	1.132347	-0.434952	0.369871
H342	H	1.465680	-0.101618	0.703205
N343	N	0.132392	-0.086450	0.000115
N344	N	0.465725	0.246884	0.333448
N345	N	0.799058	0.580217	0.666782
H346	H	0.108064	-0.089076	-0.036348
H347	H	0.441398	0.244257	0.296986
H348	H	0.774731	0.577590	0.630319
H349	H	0.164739	-0.118969	0.000146
H350	H	0.498072	0.214365	0.333479
H351	H	0.831406	0.547698	0.666813
N352	N	0.832914	-0.385920	0.000060
N353	N	1.166247	-0.052586	0.333393
N354	N	1.499581	0.280747	0.666726
H355	H	0.825549	-0.342710	0.000058
H356	H	1.158882	-0.009377	0.333392
H357	H	1.492216	0.323956	0.666725
H358	H	0.855462	-0.399394	0.036525
H359	H	1.188795	-0.066061	0.369859
H360	H	1.522129	0.267272	0.703192
N361	N	0.792237	-0.045704	0.564375
N362	N	1.125570	0.287629	0.897709
N363	N	1.458904	0.620963	1.231042
H364	H	0.770635	-0.070821	0.590071
H365	H	1.103968	0.262512	0.923405
H366	H	1.437302	0.595846	1.256738
H367	H	0.816892	-0.070312	0.535315
H368	H	1.150225	0.263021	0.868648
H369	H	1.483559	0.596354	1.201982
H370	H	0.525555	-0.459814	0.000009
H371	H	0.858889	-0.126481	0.333342
H372	H	1.192222	0.206852	0.666675
N373	N	0.552411	0.193947	0.435713
N374	N	0.885745	0.527281	0.769047
N375	N	1.219078	0.860614	1.102380
H376	H	0.527320	0.172312	0.410025
H377	H	0.860653	0.505646	0.743358
H378	H	1.193986	0.838979	1.076692
H379	H	0.527780	0.218592	0.464764
H380	H	0.861113	0.551925	0.798097
H381	H	1.194447	0.885258	1.131430
N382	N	0.513223	-0.342342	0.000008
N383	N	0.846556	-0.009009	0.333341
N384	N	1.179889	0.324325	0.666675
H385	H	0.480000	-0.365691	0.000000
H386	H	0.813333	-0.032358	0.333334
H387	H	1.146666	0.300976	0.666667
H388	H	0.511246	-0.317390	0.036476
H389	H	0.844579	0.015943	0.369809
H390	H	1.177912	0.349277	0.703143
N391	N	0.591365	0.155058	0.279603
N392	N	0.924699	0.488392	0.612936
N393	N	1.258032	0.821725	0.946269
H394	H	0.566695	0.179720	0.250597
H395	H	0.900028	0.513053	0.583930
H396	H	1.233362	0.846387	0.917263
H397	H	0.566311	0.133383	0.305293
H398	H	0.899644	0.466716	0.638626
H399	H	1.232978	0.800050	0.971960
H400	H	0.580748	-0.193677	0.000069
H401	H	0.914081	0.139656	0.333403
H402	H	1.247414	0.472989	0.666736
H403	H	0.742973	0.003516	0.271379
H404	H	1.076306	0.336850	0.604712
H405	H	1.409639	0.670183	0.938046
N406	N	0.782785	-0.229063	0.000078
N407	N	1.116118	0.104270	0.333411
N408	N	1.449451	0.437604	0.666745
H409	H	0.805616	-0.221814	-0.036382
H410	H	1.138949	0.111519	0.296952
H411	H	1.472283	0.444852	0.630285
H412	H	0.805551	-0.221798	0.036574
H413	H	1.138885	0.111535	0.369907
H414	H	1.472218	0.444869	0.703240
N415	N	0.753298	-0.006791	0.720518
N416	N	1.086632	0.326542	1.053852
N417	N	1.419965	0.659875	1.387185
H418	H	0.777971	-0.031446	0.749528
H419	H	1.111304	0.301887	1.082861
H420	H	1.444637	0.635220	1.416194
H421	H	0.731640	-0.031862	0.694832
H422	H	1.064973	0.301472	1.028166
H423	H	1.398307	0.634805	1.361499
H424	H	0.575496	-0.632386	0.000028
H425	H	0.908829	-0.299053	0.333361
H426	H	1.242162	0.034280	0.666694
N427	N	0.568411	-0.076193	0.000078
N428	N	0.901744	0.257140	0.333411
N429	N	1.235078	0.590474	0.666744
H430	H	0.576799	-0.035132	0.000085
H431	H	0.910133	0.298201	0.333418
H432	H	1.243466	0.631534	0.666751
H433	H	0.545612	-0.083476	-0.036390
H434	H	0.878946	0.249857	0.296943
H435	H	1.212279	0.583191	0.630277
H436	H	0.098544	0.219617	0.000046
H437	H	0.431877	0.552951	0.333380
H438	H	0.765211	0.886284	0.666713
N439	N	0.753263	-0.006749	0.150870
N440	N	1.086596	0.326584	0.484203
N441	N	1.419929	0.659917	0.817536
H442	H	0.777934	-0.031409	0.179877
H443	H	1.111267	0.301925	0.513210
H444	H	1.444600	0.635258	0.846544
H445	H	0.731605	-0.031816	0.125179
H446	H	1.064938	0.301517	0.458512
H447	H	1.398272	0.634850	0.791846
N448	N	0.255847	-0.084966	0.000110
N449	N	0.589180	0.248367	0.333444
N450	N	0.922514	0.581700	0.666777
H451	H	0.232498	-0.118189	0.000119
H452	H	0.565831	0.215144	0.333452
H453	H	0.899165	0.548477	0.666785
H454	H	0.280802	-0.086943	-0.036357
H455	H	0.614135	0.246390	0.296976
H456	H	0.947468	0.579724	0.630310
H457	H	0.601694	0.144737	0.841052
H458	H	0.935027	0.478070	1.174386
H459	H	1.268361	0.811404	1.507719
H460	H	-0.034198	-0.022693	0.000084
H461	H	0.299136	0.310640	0.333417
H462	H	0.632469	0.643973	0.666751
N463	N	0.212272	0.234724	0.000029
N464	N	0.545605	0.568057	0.333362
N465	N	0.878938	0.901390	0.666696
H466	H	0.179956	0.267277	0.000025
H467	H	0.513289	0.600610	0.333358
H468	H	0.846623	0.933943	0.666692
H469	H	0.236607	0.237292	0.036494
H470	H	0.569940	0.570625	0.369827
H471	H	0.903274	0.903958	0.703160
N472	N	0.492586	0.186070	0.000015
N473	N	0.825920	0.519403	0.333349
N474	N	1.159253	0.852736	0.666682
H475	H	0.460274	0.218626	0.000012
H476	H	0.793607	0.551959	0.333346
H477	H	1.126941	0.885293	0.666679
H478	H	0.516924	0.188636	0.036478
H479	H	0.850258	0.521969	0.369811
H480	H	1.183591	0.855302	0.703145
N481	N	-0.053883	0.179533	0.000047
N482	N	0.279450	0.512866	0.333380
N483	N	0.612784	0.846199	0.666713
H484	H	-0.086197	0.212087	0.000040
H485	H	0.247136	0.545421	0.333373
H486	H	0.580470	0.878754	0.666707
H487	H	-0.029550	0.182100	0.036513
H488	H	0.303783	0.515433	0.369847
H489	H	0.637117	0.848767	0.703180
N490	N	-0.177334	0.178061	0.000067
N491	N	0.155999	0.511395	0.333400
N492	N	0.489332	0.844728	0.666733
H493	H	-0.202299	0.180089	-0.036394
H494	H	0.131034	0.513422	0.296939
H495	H	0.464368	0.846756	0.630272
H496	H	-0.202253	0.180051	0.036561
H497	H	0.131080	0.513384	0.369894
H498	H	0.464414	0.846717	0.703227
H499	H	-0.141947	-0.023982	0.000076
H500	H	0.191387	0.309352	0.333409
H501	H	0.524720	0.642685	0.666742
H502	H	0.404512	-0.017441	0.000056
H503	H	0.737845	0.315892	0.333390
H504	H	1.071178	0.649225	0.666723
N505	N	0.521994	-0.029779	0.000061
N506	N	0.855327	0.303554	0.333395
N507	N	1.188661	0.636888	0.666728
H508	H	0.546958	-0.031805	-0.036403
H509	H	0.880292	0.301528	0.296931
H510	H	1.213625	0.634862	0.630264
H511	H	0.546913	-0.031752	0.036553
H512	H	0.880246	0.301581	0.369886
H513	H	1.213579	0.634915	0.703219
H514	H	0.781929	-0.035414	0.443878
H515	H	1.115262	0.297920	0.777212
H516	H	1.448595	0.631253	1.110545
N517	N	0.784259	-0.105603	0.000097
N518	N	1.117592	0.227731	0.333430
N519	N	1.450925	0.561064	0.666763
H520	H	0.816815	-0.137915	0.000097
H521	H	1.150148	0.195418	0.333431
H522	H	1.483482	0.528752	0.666764
H523	H	0.786824	-0.081263	-0.036367
H524	H	1.120157	0.252070	0.296966
H525	H	1.453491	0.585404	0.630300
N526	N	0.753305	-0.006797	0.849221
N527	N	1.086638	0.326536	1.182555
N528	N	1.419971	0.659869	1.515888
H529	H	0.747393	-0.000890	0.893144
H530	H	1.080727	0.332443	1.226477
H531	H	1.414060	0.665777	1.559811
H532	H	0.746956	-0.047167	0.838400
H533	H	1.080289	0.286167	1.171734
H534	H	1.413622	0.619500	1.505067
N535	N	0.831434	-0.509367	0.000066
N536	N	1.164768	-0.176033	0.333399
N537	N	1.498101	0.157300	0.666732
H538	H	0.864653	-0.486012	0.000073
H539	H	1.197987	-0.152679	0.333406
H540	H	1.531320	0.180654	0.666739
H541	H	0.833396	-0.534317	0.036534
H542	H	1.166730	-0.200984	0.369868
H543	H	1.500063	0.132350	0.703201
N544	N	0.777722	-0.652072	0.000058
N545	N	1.111055	-0.318739	0.333392
N546	N	1.444388	0.014595	0.666725
H547	H	0.810276	-0.684386	0.000063
H548	H	1.143610	-0.351053	0.333397
H549	H	1.476943	-0.017719	0.666730
H550	H	0.780289	-0.627737	-0.036408
H551	H	1.113622	-0.294404	0.296925
H552	H	1.446955	0.038930	0.630258
N553	N	0.591382	0.155022	0.720548
N554	N	0.924715	0.488355	1.053881
N555	N	1.258048	0.821688	1.387214
H556	H	0.566716	0.179676	0.749565
H557	H	0.900049	0.513010	1.082898
H558	H	1.233382	0.846343	1.416231
H559	H	0.613035	0.180093	0.694854
H560	H	0.946368	0.513426	1.028187
H561	H	1.279702	0.846759	1.361521
H562	H	0.574207	-0.740136	0.000035
H563	H	0.907540	-0.406802	0.333369
H564	H	1.240874	-0.073469	0.666702
H565	H	0.562709	0.183658	0.556223
H566	H	0.896042	0.516992	0.889556
H567	H	1.229375	0.850325	1.222889
H568	H	0.601648	0.144772	0.159075
H569	H	0.934981	0.478105	0.492409
H570	H	1.268315	0.811438	0.825742
