data_functionalizedCrystal
_audit_creation_method	'MofGen! by Chris Wilmer'
_symmetry_space_group_name_H-M	'P1'
_symmetry_Int_Tables_number	1
_symmetry_cell_setting	triclinic
loop_
_symmetry_equiv_pos_as_xyz
  x,y,z
_cell_length_a	17.000371
_cell_length_b	17.019294
_cell_length_c	9.730223
_cell_angle_alpha	86.119703
_cell_angle_beta	89.999521
_cell_angle_gamma	79.505866
loop_
_atom_site_label
_atom_site_type_symbol
_atom_site_fract_x
_atom_site_fract_y
_atom_site_fract_z
O1	O	1.056066	0.028424	-0.117659
O2	O	0.824300	0.057056	-0.121048
O3	O	0.946649	-0.072541	-0.105704
O4	O	0.933717	0.158021	-0.133003
O5	O	0.946648	-0.072538	0.122876
O6	O	0.824299	0.057059	0.107531
O7	O	1.056064	0.028427	0.110921
Zn8	Zn	0.940181	0.042744	0.145518
Zn9	Zn	0.940183	0.042739	-0.155646
O10	O	0.933716	0.158024	0.095576
C11	C	0.794644	0.058595	-0.006941
C12	C	0.706280	0.063168	-0.007482
C13	C	0.674335	-0.007205	0.000853
C14	C	0.591307	-0.002903	0.000334
C15	C	0.540226	0.071772	-0.008511
C16	C	0.572176	0.142151	-0.016851
C17	C	0.655203	0.137849	-0.016341
C18	C	0.289061	0.088391	-0.010488
C19	C	0.206030	0.092688	-0.010993
C20	C	0.225166	-0.052367	0.006189
C21	C	0.308193	-0.056663	0.006706
C22	C	0.340136	0.013716	-0.001641
C23	C	0.455358	0.076171	-0.009037
C24	C	0.425003	0.009316	-0.001124
C25	C	0.946158	-0.101894	0.012059
C26	C	0.944687	-0.189363	0.022407
C27	C	0.943999	-0.230453	-0.097330
C28	C	0.942612	-0.312637	-0.087602
C29	C	0.941919	-0.353731	0.041863
C30	C	0.942605	-0.312635	0.161608
C31	C	0.943986	-0.230451	0.151879
C32	C	0.937744	-0.601874	0.077470
C33	C	0.936365	-0.684064	0.087190
C34	C	0.936371	-0.684061	-0.162022
C35	C	0.937757	-0.601876	-0.171739
C36	C	0.938438	-0.560786	-0.051994
C37	C	0.940504	-0.437738	0.051808
C38	C	0.939848	-0.476780	-0.061941
C39	C	1.085720	0.026888	-0.003190
C40	C	1.174084	0.022315	-0.002658
C41	C	0.934207	0.187377	-0.022190
C42	C	0.935677	0.274846	-0.032547
N43	N	0.940186	0.042745	0.351054
N44	N	0.940185	0.042731	-0.361181
C45	C	0.994376	-0.014623	0.429773
C46	C	0.994374	-0.014632	0.573657
C47	C	0.885989	0.100102	0.560090
C48	C	0.885988	0.100107	0.416209
C49	C	1.048573	-0.071985	0.364618
C50	C	1.102768	-0.129357	0.443337
C51	C	1.102766	-0.129367	0.587221
C52	C	1.048569	-0.072004	0.652386
H53	H	0.715920	-0.068014	0.008061
H54	H	0.935797	-0.717520	0.192621
H55	H	0.565302	-0.060209	0.007120
H56	H	0.530579	0.202954	-0.024061
H57	H	0.938322	-0.568423	-0.277163
H58	H	1.146888	-0.176086	0.651313
H59	H	0.413759	0.136972	-0.016237
H60	H	0.681211	0.195154	-0.023122
H61	H	0.942036	-0.346100	0.267021
H62	H	0.935814	-0.717525	-0.259511
H63	H	0.939943	-0.471206	0.157219
H64	H	0.938315	-0.568431	0.174976
H65	H	0.942055	-0.346090	-0.185105
H66	H	0.944536	-0.196994	0.249381
H67	H	0.315059	0.145698	-0.017294
H68	H	1.048581	-0.071981	0.247460
H69	H	0.841865	0.146806	0.613157
H70	H	0.940406	-0.443316	-0.167351
H71	H	0.841861	0.146821	0.352115
H72	H	0.944568	-0.197001	-0.202754
H73	H	1.146889	-0.176065	0.390272
H74	H	1.048567	-0.072021	0.769547
H75	H	0.349779	-0.117472	0.013914
H76	H	0.199148	-0.109666	0.012969
H77	H	0.164440	0.153501	-0.018189
H78	H	0.466597	-0.051484	0.006069
