data_functionalizedCrystal
_audit_creation_method	'MofGen! by Chris Wilmer'
_symmetry_space_group_name_H-M	'P1'
_symmetry_Int_Tables_number	1
_symmetry_cell_setting	triclinic
loop_
_symmetry_equiv_pos_as_xyz
  x,y,z
_cell_length_a	14.044220
_cell_length_b	16.974800
_cell_length_c	16.053802
_cell_angle_alpha	91.074188
_cell_angle_beta	87.198230
_cell_angle_gamma	91.720658
loop_
_atom_site_label
_atom_site_type_symbol
_atom_site_fract_x
_atom_site_fract_y
_atom_site_fract_z
O1	O	-0.120850	1.057573	0.002057
O2	O	0.212483	1.390907	0.335391
O3	O	0.545817	1.724240	0.668724
O4	O	-0.135363	0.829132	-0.013385
O5	O	0.197971	1.162465	0.319948
O6	O	0.531304	1.495799	0.653281
O7	O	0.009887	0.939924	-0.005892
O8	O	0.343220	1.273257	0.327441
O9	O	0.676553	1.606590	0.660774
O10	O	-0.266099	0.946782	-0.005436
O11	O	0.067234	1.280115	0.327897
O12	O	0.400567	1.613448	0.661231
O13	O	0.001925	0.933823	0.132554
O14	O	0.335258	1.267156	0.465887
O15	O	0.668591	1.600490	0.799221
O16	O	-0.143325	0.823032	0.125061
O17	O	0.190009	1.156365	0.458394
O18	O	0.523342	1.489698	0.791728
O19	O	-0.128812	1.051473	0.140504
O20	O	0.204521	1.384806	0.473837
O21	O	0.537855	1.718139	0.807170
Zn22	Zn	-0.137332	0.936284	0.154764
Zn23	Zn	0.196001	1.269617	0.488097
Zn24	Zn	0.529334	1.602950	0.821430
Zn25	Zn	-0.126842	0.944321	-0.027645
Zn26	Zn	0.206491	1.277655	0.305688
Zn27	Zn	0.539824	1.610988	0.639021
O28	O	-0.274061	0.940681	0.133010
O29	O	0.059272	1.274015	0.466344
O30	O	0.392605	1.607348	0.799677
C31	C	-0.138646	0.796670	0.053850
C32	C	0.194687	1.130003	0.387183
C33	C	0.528021	1.463336	0.720516
C34	C	-0.136555	0.709030	0.047925
C35	C	0.196778	1.042363	0.381258
C36	C	0.530111	1.375697	0.714592
C37	C	-0.139911	0.664536	0.120611
C38	C	0.193422	0.997869	0.453944
C39	C	0.526756	1.331203	0.787278
C40	C	-0.137932	0.582190	0.115047
C41	C	0.195402	0.915523	0.448380
C42	C	0.528735	1.248856	0.781713
C43	C	-0.132604	0.544339	0.036796
C44	C	0.200730	0.877672	0.370129
C45	C	0.534063	1.211005	0.703463
C46	C	-0.129245	0.588839	-0.035895
C47	C	0.204088	0.922172	0.297438
C48	C	0.537422	1.255506	0.630771
C49	C	-0.131217	0.671184	-0.030330
C50	C	0.202116	1.004517	0.303003
C51	C	0.535449	1.337851	0.636336
C52	C	-0.126233	0.298420	0.012060
C53	C	0.207101	0.631754	0.345393
C54	C	0.540434	0.965087	0.678726
C55	C	-0.124263	0.216069	0.006500
C56	C	0.209070	0.549403	0.339833
C57	C	0.542404	0.882736	0.673167
C58	C	-0.132948	0.209426	0.157443
C59	C	0.200385	0.542759	0.490776
C60	C	0.533718	0.876092	0.824109
C61	C	-0.134926	0.291772	0.163001
C62	C	0.198407	0.625106	0.496334
C63	C	0.531740	0.958439	0.829667
C64	C	-0.131562	0.336265	0.090310
C65	C	0.201771	0.669599	0.423643
C66	C	0.535104	1.002932	0.756976
N67	N	-0.130583	0.460168	0.031106
N68	N	0.202750	0.793501	0.364440
N69	N	0.536083	1.126834	0.697773
N70	N	-0.133576	0.420435	0.096000
N71	N	0.199758	0.753769	0.429333
N72	N	0.533091	1.087102	0.762667
C73	C	-0.305402	0.946733	0.063989
C74	C	0.027931	1.280067	0.397322
C75	C	0.361264	1.613400	0.730656
C76	C	-0.410650	0.955688	0.064591
C77	C	-0.077317	1.289021	0.397925
C78	C	0.256016	1.622354	0.731258
C79	C	-0.603353	0.972058	0.065702
C80	C	-0.270020	1.305391	0.399035
C81	C	0.063313	1.638724	0.732368
C82	C	-0.660827	0.908551	0.061409
C83	C	-0.327493	1.241884	0.394743
C84	C	0.005840	1.575218	0.728076
C85	C	-0.768053	0.917660	0.062027
C86	C	-0.434720	1.250993	0.395361
C87	C	-0.101386	1.584326	0.728694
C88	C	-0.496117	0.962950	0.065084
C89	C	-0.162783	1.296284	0.398417
C90	C	0.170550	1.629617	0.731751
C91	C	0.041228	0.933872	0.063127
C92	C	0.374561	1.267205	0.396461
C93	C	0.707894	1.600538	0.729794
C94	C	0.146476	0.924918	0.062519
C95	C	0.479810	1.258251	0.395853
C96	C	0.813143	1.591584	0.729186
C97	C	-0.125529	1.083935	0.073267
C98	C	0.207805	1.417269	0.406600
C99	C	0.541138	1.750602	0.739933
C100	C	-0.127619	1.171575	0.079186
C101	C	0.205715	1.504908	0.412519
C102	C	0.539048	1.838242	0.745852
N103	N	-0.144491	0.930804	0.279253
N104	N	0.188842	1.264137	0.612587
N105	N	0.522176	1.597470	0.945920
N106	N	-0.119676	0.949807	-0.152135
N107	N	0.213657	1.283140	0.181199
N108	N	0.546991	1.616474	0.514532
C109	C	-0.082709	0.977966	0.326137
C110	C	0.250624	1.311299	0.659470
C111	C	0.583957	1.644633	0.992804
C112	C	-0.087726	0.974141	0.413285
C113	C	0.245607	1.307474	0.746618
C114	C	0.578941	1.640807	1.079952
C115	C	-0.154530	0.923157	0.453548
C116	C	0.178804	1.256490	0.786881
C117	C	0.512137	1.589823	1.120215
C118	C	-0.216314	0.875989	0.406658
C119	C	0.117019	1.209322	0.739991
C120	C	0.450353	1.542656	1.073325
C121	C	-0.211292	0.879811	0.319511
C122	C	0.122041	1.213144	0.652844
C123	C	0.455374	1.546478	0.986178
C124	C	-0.176439	0.906461	0.713828
C125	C	0.156895	1.239794	1.047162
C126	C	0.490228	1.573128	1.380495
C127	C	-0.181458	0.902645	0.800982
C128	C	0.151876	1.235978	1.134315
C129	C	0.485209	1.569311	1.467648
C130	C	-0.052868	1.000796	0.807603
C131	C	0.280465	1.334129	1.140936
C132	C	0.613799	1.667462	1.474269
C133	C	-0.047856	1.004616	0.720454
C134	C	0.285477	1.337950	1.053788
C135	C	0.618811	1.671283	1.387121
C136	C	-0.109637	0.957446	0.673571
C137	C	0.223696	1.290779	1.006905
C138	C	0.557030	1.624112	1.340238
N139	N	-0.159661	0.919247	0.542627
N140	N	0.173672	1.252581	0.875961
N141	N	0.507006	1.585914	1.209294
N142	N	-0.104500	0.961352	0.584493
N143	N	0.228833	1.294685	0.917827
N144	N	0.562166	1.628018	1.251160
H145	H	-0.135685	0.173191	0.216623
H146	H	0.197648	0.506524	0.549957
H147	H	0.530981	0.839857	0.883290
H148	H	-0.128487	0.707410	-0.089519
H149	H	0.204847	1.040744	0.243814
H150	H	0.538180	1.374077	0.577148
H151	H	-0.634677	1.033263	0.069842
H152	H	-0.301343	1.366596	0.403176
H153	H	0.031990	1.699930	0.736509
O154	O	-0.010653	1.032953	0.282711
O155	O	0.322680	1.366286	0.616044
O156	O	0.656014	1.699620	0.949377
H157	H	0.031472	1.065098	0.329956
H158	H	0.364805	1.398431	0.663290
H159	H	0.698138	1.731765	0.996623
H160	H	-0.261600	0.841405	0.281339
H161	H	0.071733	1.174739	0.614672
H162	H	0.405066	1.508072	0.948006
H163	H	-0.629502	0.847341	0.057272
H164	H	-0.296168	1.180674	0.390605
H165	H	0.037165	1.514007	0.723939
O166	O	-0.021108	1.025023	0.463857
O167	O	0.312225	1.358357	0.797190
O168	O	0.645559	1.691690	1.130523
H169	H	0.026174	1.061130	0.421219
H170	H	0.359507	1.394463	0.754553
H171	H	0.692841	1.727797	1.087886
O172	O	-0.145669	0.705353	0.205014
O173	O	0.187664	1.038686	0.538347
O174	O	0.520997	1.372019	0.871681
H175	H	-0.082225	0.745207	0.211335
H176	H	0.251109	1.078540	0.544669
H177	H	0.584442	1.411873	0.878002
H178	H	-0.002568	1.039199	0.845782
H179	H	0.330766	1.372532	1.179116
H180	H	0.664099	1.705865	1.512449
O181	O	-0.141561	0.534196	0.193442
O182	O	0.191772	0.867529	0.526776
O183	O	0.525105	1.200863	0.860109
H184	H	-0.145613	0.574349	0.248789
H185	H	0.187720	0.907683	0.582123
H186	H	0.521054	1.241016	0.915456
O187	O	-0.118514	0.175246	-0.077906
O188	O	0.214819	0.508580	0.255427
O189	O	0.548153	0.841913	0.588761
H190	H	-0.117720	0.110511	-0.069560
H191	H	0.215613	0.443845	0.263773
H192	H	0.548946	0.777178	0.597107
H193	H	0.006541	1.046131	0.687674
H194	H	0.339874	1.379465	1.021007
H195	H	0.673208	1.712798	1.354341
O196	O	-0.253502	0.847642	0.844413
O197	O	0.079831	1.180976	1.177746
O198	O	0.413165	1.514309	1.511080
H199	H	-0.295611	0.815475	0.797172
H200	H	0.037723	1.148809	1.130505
H201	H	0.371056	1.482142	1.463839
H202	H	-0.226745	0.868054	0.675663
H203	H	0.106588	1.201388	1.008997
H204	H	0.439922	1.534721	1.342330
O205	O	-0.140679	0.332607	0.247394
O206	O	0.192654	0.665940	0.580728
O207	O	0.525988	0.999274	0.914061
H208	H	-0.206352	0.367465	0.253351
H209	H	0.126981	0.700799	0.586684
H210	H	0.460315	1.034132	0.920018
H211	H	-0.270704	0.834473	0.439445
H212	H	0.062629	1.167806	0.772778
H213	H	0.395963	1.501139	1.106111
H214	H	-0.124900	0.558015	-0.099609
H215	H	0.208433	0.891348	0.233725
H216	H	0.541767	1.224681	0.567058
O217	O	-0.122615	0.346405	-0.066339
O218	O	0.210719	0.679739	0.266995
O219	O	0.544052	1.013072	0.600328
H220	H	-0.118590	0.306248	-0.121683
H221	H	0.214743	0.639581	0.211650
H222	H	0.548076	0.972915	0.544983
