data_functionalizedCrystal
_audit_creation_method	'MofGen! by Chris Wilmer'
_symmetry_space_group_name_H-M	'P1'
_symmetry_Int_Tables_number	1
_symmetry_cell_setting	triclinic
loop_
_symmetry_equiv_pos_as_xyz
  x,y,z
_cell_length_a	21.395364
_cell_length_b	16.120297
_cell_length_c	16.120531
_cell_angle_alpha	84.389419
_cell_angle_beta	87.052757
_cell_angle_gamma	92.877501
loop_
_atom_site_label
_atom_site_type_symbol
_atom_site_fract_x
_atom_site_fract_y
_atom_site_fract_z
Zn1	Zn	0.925587	-0.489418	0.356425
Zn2	Zn	1.258920	-0.156085	0.689758
Zn3	Zn	1.592253	0.177249	1.023092
Zn4	Zn	0.925496	-0.356720	0.489114
Zn5	Zn	1.258829	-0.023387	0.822448
Zn6	Zn	1.592163	0.309946	1.155781
Zn7	Zn	0.826405	-0.349666	0.349395
Zn8	Zn	1.159738	-0.016333	0.682729
Zn9	Zn	1.493071	0.317001	1.016062
Zn10	Zn	0.815174	-0.496444	0.496194
Zn11	Zn	1.148507	-0.163111	0.829527
Zn12	Zn	1.481840	0.170223	1.162860
O13	O	0.873165	-0.423062	0.422782
O14	O	1.206499	-0.089729	0.756115
O15	O	1.539832	0.243605	1.089449
O16	O	1.013253	-0.471827	0.374005
O17	O	1.346586	-0.138494	0.707339
O18	O	1.679919	0.194840	1.040672
O19	O	0.917014	-0.238823	0.464676
O20	O	1.250347	0.094510	0.798009
O21	O	1.583680	0.427844	1.131342
O22	O	0.844299	-0.362312	0.233361
O23	O	1.177633	-0.028978	0.566695
O24	O	1.510966	0.304355	0.900028
O25	O	1.013186	-0.374335	0.471492
O26	O	1.346520	-0.041001	0.804825
O27	O	1.679853	0.292332	1.138158
O28	O	0.917168	-0.464987	0.238526
O29	O	1.250501	-0.131653	0.571859
O30	O	1.583834	0.201680	0.905193
O31	O	0.844212	-0.233640	0.362025
O32	O	1.177545	0.099693	0.695358
O33	O	1.510878	0.433027	1.028691
O34	O	0.737237	-0.369124	0.368889
O35	O	1.070570	-0.035791	0.702223
O36	O	1.403903	0.297542	1.035556
O37	O	0.825158	-0.612474	0.483558
O38	O	1.158491	-0.279140	0.816891
O39	O	1.491825	0.054193	1.150224
O40	O	0.728985	-0.476962	0.476741
O41	O	1.062319	-0.143628	0.810075
O42	O	1.395652	0.189705	1.143408
O43	O	0.906278	-0.607311	0.380870
O44	O	1.239611	-0.273978	0.714204
O45	O	1.572944	0.059355	1.047537
O46	O	0.906124	-0.381148	0.607020
O47	O	1.239457	-0.047814	0.940353
O48	O	1.572790	0.285519	1.273686
O49	O	0.825070	-0.483802	0.612221
O50	O	1.158404	-0.150469	0.945554
O51	O	1.491737	0.182865	1.278888
C52	C	0.710377	-0.423041	0.422822
C53	C	1.043710	-0.089707	0.756155
C54	C	1.377044	0.243626	1.089488
C55	C	0.640734	-0.423052	0.422860
C56	C	0.974067	-0.089719	0.756193
C57	C	1.307400	0.243614	1.089526
C58	C	0.608071	-0.473904	0.372190
C59	C	0.941404	-0.140570	0.705523
C60	C	1.274737	0.192763	1.038857
C61	C	0.542636	-0.473906	0.372168
C62	C	0.875969	-0.140572	0.705501
C63	C	1.209303	0.192761	1.038835
C64	C	0.509866	-0.423066	0.422831
C65	C	0.843199	-0.089733	0.756164
C66	C	1.176533	0.243601	1.089497
C67	C	0.542537	-0.372204	0.473503
C68	C	0.875871	-0.038871	0.806837
C69	C	1.209204	0.294462	1.140170
C70	C	0.607971	-0.372198	0.473518
C71	C	0.941304	-0.038864	0.806851
C72	C	1.274638	0.294469	1.140184
C73	C	0.403396	-0.420157	0.497765
C74	C	0.736729	-0.086823	0.831098
C75	C	1.070063	0.246510	1.164432
C76	C	0.337963	-0.420169	0.497752
C77	C	0.671296	-0.086836	0.831086
C78	C	1.004630	0.246497	1.164419
C79	C	0.308046	-0.423082	0.422786
C80	C	0.641380	-0.089749	0.756119
C81	C	0.974713	0.243584	1.089452
C82	C	0.343570	-0.426000	0.347830
C83	C	0.676904	-0.092666	0.681164
C84	C	1.010237	0.240667	1.014497
C85	C	0.409004	-0.425993	0.347845
C86	C	0.742337	-0.092660	0.681178
C87	C	1.075671	0.240674	1.014511
C88	C	0.438914	-0.423067	0.422820
C89	C	0.772247	-0.089734	0.756154
C90	C	1.105581	0.243599	1.089487
C91	C	0.204432	-0.473939	0.372088
C92	C	0.537765	-0.140605	0.705421
C93	C	0.871098	0.192728	1.038755
C94	C	0.138996	-0.473935	0.372064
C95	C	0.472330	-0.140601	0.705398
C96	C	0.805663	0.192732	1.038731
C97	C	0.138898	-0.372238	0.473407
C98	C	0.472231	-0.038905	0.806741
C99	C	0.805565	0.294429	1.140074
C100	C	0.204333	-0.372237	0.473423
C101	C	0.537666	-0.038904	0.806757
C102	C	0.870999	0.294429	1.140090
C103	C	0.237096	-0.423092	0.422765
C104	C	0.570429	-0.089759	0.756098
C105	C	0.903762	0.243575	1.089432
C106	C	0.864475	-0.641067	0.433788
C107	C	1.197808	-0.307734	0.767121
C108	C	1.531142	0.025599	1.100454
C109	C	0.860772	-0.733968	0.438478
C110	C	1.194105	-0.400635	0.771811
C111	C	1.527439	-0.067302	1.105144
C112	C	0.853988	-0.904058	0.447022
C113	C	1.187322	-0.570725	0.780355
C114	C	1.520655	-0.237391	1.113689
C115	C	0.892476	-0.942905	0.398292
C116	C	1.225809	-0.609572	0.731625
C117	C	1.559142	-0.276239	1.064958
C118	C	0.888701	-1.037549	0.403046
C119	C	1.222035	-0.704216	0.736379
C120	C	1.555368	-0.370882	1.069712
C121	C	0.857762	-0.809406	0.442269
C122	C	1.191095	-0.476072	0.775602
C123	C	1.524429	-0.142739	1.108936
C124	C	1.036589	-0.423084	0.422743
C125	C	1.369923	-0.089751	0.756076
C126	C	1.703256	0.243583	1.089410
C127	C	1.106231	-0.423093	0.422726
C128	C	1.439564	-0.089760	0.756060
C129	C	1.772897	0.243573	1.089393
C130	C	0.864385	-0.434021	0.639949
C131	C	1.197718	-0.100688	0.973283
C132	C	1.531051	0.232646	1.306616
C133	C	0.860684	-0.438737	0.732856
C134	C	1.194018	-0.105404	1.066189
C135	C	1.527351	0.227929	1.399523
C136	C	0.881860	-0.205902	0.411759
C137	C	1.215193	0.127432	0.745092
C138	C	1.548527	0.460765	1.078425
C139	C	0.885694	-0.112989	0.406833
C140	C	1.219027	0.220344	0.740167
C141	C	1.552361	0.553677	1.073500
C142	C	0.853932	-0.447365	0.902958
C143	C	1.187265	-0.114032	1.236291
C144	C	1.520599	0.219302	1.569625
C145	C	0.892424	-0.398712	0.941763
C146	C	1.225757	-0.065378	1.275097
C147	C	1.559091	0.267955	1.608430
C148	C	0.888667	-0.403512	1.036414
C149	C	1.222000	-0.070179	1.369747
C150	C	1.555334	0.263155	1.703080
C151	C	0.857688	-0.442566	0.808299
C152	C	1.191022	-0.109232	1.141632
C153	C	1.524355	0.224101	1.474966
C154	C	0.881975	-0.412063	1.204767
C155	C	1.215308	-0.078730	1.538100
C156	C	1.548641	0.254604	1.871433
C157	C	0.885673	-0.407337	1.111860
C158	C	1.219007	-0.074004	1.445193
C159	C	1.552340	0.259330	1.778526
H160	H	0.634742	-0.515313	0.330940
H161	H	0.968076	-0.181980	0.664273
H162	H	1.301409	0.151354	0.997606
C163	C	0.805599	-0.508494	0.954100
C164	C	1.138933	-0.175161	1.287433
C165	C	1.472266	0.158172	1.620767
H166	H	0.809381	-0.503731	1.011927
H167	H	1.142714	-0.170398	1.345260
H168	H	1.476047	0.162935	1.678594
H169	H	0.813044	-0.563956	0.942646
H170	H	1.146377	-0.230623	1.275979
H171	H	1.479710	0.102710	1.609312
H172	H	0.764550	-0.495492	0.939294
H173	H	1.097884	-0.162158	1.272627
H174	H	1.431217	0.171175	1.605961
C175	C	0.436301	-0.416947	0.580231
C176	C	0.769634	-0.083614	0.913564
C177	C	1.102967	0.249719	1.246898
H178	H	0.480358	-0.417352	0.569504
H179	H	0.813692	-0.084018	0.902838
H180	H	1.147025	0.249315	1.236171
H181	H	0.422339	-0.464134	0.617754
H182	H	0.755672	-0.130801	0.951087
H183	H	1.089006	0.202533	1.284420
H184	H	0.426512	-0.367360	0.604301
H185	H	0.759846	-0.034027	0.937634
H186	H	1.093179	0.299306	1.270968
C187	C	0.240263	-0.316309	0.529170
C188	C	0.573597	0.017024	0.862503
C189	C	0.906930	0.350357	1.195836
H190	H	0.211376	-0.286036	0.559346
H191	H	0.544710	0.047298	0.892679
H192	H	0.878043	0.380631	1.226012
H193	H	0.268541	-0.278326	0.495312
H194	H	0.601874	0.055008	0.828645
H195	H	0.935208	0.388341	1.161979
H196	H	0.263032	-0.350068	0.567258
H197	H	0.596365	-0.016735	0.900592
H198	H	0.929699	0.316599	1.233925
C199	C	0.940738	-0.337546	0.890619
C200	C	1.274071	-0.004213	1.223952
C201	C	1.607404	0.329120	1.557286
H202	H	0.936947	-0.342288	0.832790
H203	H	1.270280	-0.008955	1.166123
H204	H	1.603614	0.324378	1.499457
H205	H	0.981794	-0.350510	0.905411
H206	H	1.315127	-0.017177	1.238745
H207	H	1.648460	0.316157	1.572078
H208	H	0.933262	-0.282094	0.902092
H209	H	1.266595	0.051239	1.235425
H210	H	1.599929	0.384573	1.568758
H211	H	0.516037	-0.515313	0.330903
H212	H	0.849370	-0.181980	0.664236
H213	H	1.182704	0.151353	0.997569
H214	H	0.437925	-0.428366	0.286813
H215	H	0.771259	-0.095032	0.620146
H216	H	1.104592	0.238301	0.953480
H217	H	0.319214	-0.428372	0.286785
H218	H	0.652547	-0.095038	0.620118
H219	H	0.985881	0.238295	0.953452
C220	C	0.240474	-0.529868	0.316361
C221	C	0.573807	-0.196535	0.649694
C222	C	0.907141	0.136799	0.983027
H223	H	0.211647	-0.560146	0.286170
H224	H	0.544981	-0.226812	0.619504
H225	H	0.878314	0.106521	0.952837
H226	H	0.263248	-0.567848	0.350233
H227	H	0.596581	-0.234515	0.683566
H228	H	0.929914	0.098818	1.016899
H229	H	0.268756	-0.496107	0.278285
H230	H	0.602089	-0.162774	0.611618
H231	H	0.935422	0.170559	0.944952
C232	C	0.805653	-0.955142	0.508208
C233	C	1.138986	-0.621808	0.841541
C234	C	1.472320	-0.288475	1.174874
H235	H	0.781998	-0.918324	0.538158
H236	H	1.115331	-0.584991	0.871491
H237	H	1.448665	-0.251657	1.204824
H238	H	0.826819	-0.991042	0.546292
H239	H	1.160152	-0.657709	0.879626
H240	H	1.493486	-0.324376	1.212959
H241	H	0.778315	-0.987572	0.477914
H242	H	1.111648	-0.654238	0.811247
H243	H	1.444981	-0.320905	1.144581
C244	C	0.103067	-0.529874	0.316325
C245	C	0.436400	-0.196541	0.649658
C246	C	0.769733	0.136792	0.982992
H247	H	0.131953	-0.560164	0.286165
H248	H	0.465286	-0.226830	0.619499
H249	H	0.798619	0.106503	0.952832
H250	H	0.080296	-0.496127	0.278235
H251	H	0.413630	-0.162794	0.611569
H252	H	0.746963	0.170539	0.944902
H253	H	0.074790	-0.567857	0.350194
H254	H	0.408123	-0.234524	0.683528
H255	H	0.741456	0.098809	1.016861
H256	H	0.515852	-0.330810	0.514753
H257	H	0.849185	0.002524	0.848086
H258	H	1.182518	0.335857	1.181419
C259	C	0.102859	-0.316319	0.529139
C260	C	0.436192	0.017014	0.862473
C261	C	0.769525	0.350347	1.195806
H262	H	0.059210	-0.323610	0.521879
H263	H	0.392543	0.009723	0.855213
H264	H	0.725876	0.343057	1.188546
H265	H	0.116313	-0.259558	0.513994
H266	H	0.449647	0.073775	0.847327
H267	H	0.782980	0.407109	1.180661
H268	H	0.110810	-0.331304	0.585936
H269	H	0.444143	0.002029	0.919270
H270	H	0.777476	0.335362	1.252603
C271	C	0.298890	-0.416966	0.580197
C272	C	0.632223	-0.083633	0.913530
C273	C	0.965556	0.249700	1.246864
H274	H	0.255635	-0.417400	0.569455
H275	H	0.588968	-0.084067	0.902788
H276	H	0.922302	0.249267	1.236121
H277	H	0.310546	-0.367383	0.604276
H278	H	0.643880	-0.034049	0.937609
H279	H	0.977213	0.299284	1.270942
H280	H	0.306376	-0.464157	0.617722
H281	H	0.639710	-0.130823	0.951055
H282	H	0.973043	0.202510	1.284389
C283	C	0.940822	-0.891822	0.337113
C284	C	1.274156	-0.558488	0.670446
C285	C	1.607489	-0.225155	1.003780
H286	H	0.964472	-0.928643	0.307161
H287	H	1.297806	-0.595310	0.640494
H288	H	1.631139	-0.261976	0.973828
H289	H	0.968155	-0.859393	0.367408
H290	H	1.301488	-0.526060	0.700741
H291	H	1.634822	-0.192726	1.034075
H292	H	0.919661	-0.855919	0.299016
H293	H	1.252995	-0.522586	0.632350
H294	H	1.586328	-0.189253	0.965683
H295	H	0.634565	-0.330787	0.514780
H296	H	0.967898	0.002546	0.848114
H297	H	1.301232	0.335880	1.181447
