data_functionalizedCrystal
_audit_creation_method	'MofGen! by Chris Wilmer'
_symmetry_space_group_name_H-M	'P1'
_symmetry_Int_Tables_number	1
_symmetry_cell_setting	triclinic
loop_
_symmetry_equiv_pos_as_xyz
  x,y,z
_cell_length_a	17.699083
_cell_length_b	27.731996
_cell_length_c	16.176319
_cell_angle_alpha	89.987220
_cell_angle_beta	89.998611
_cell_angle_gamma	82.952202
loop_
_atom_site_label
_atom_site_type_symbol
_atom_site_fract_x
_atom_site_fract_y
_atom_site_fract_z
O1	O	1.003522	0.061129	-0.068642
O2	O	0.783071	0.069081	-0.068670
O3	O	0.900164	-0.005269	-0.068637
O4	O	0.886429	0.135479	-0.068675
O5	O	0.900148	-0.005274	0.068856
O6	O	0.783055	0.069077	0.068823
O7	O	1.003506	0.061124	0.068852
Cu8	Cu	0.893279	0.065100	0.081392
Cu9	Cu	0.893298	0.065105	-0.081210
O10	O	0.886413	0.135474	0.068819
C11	C	0.754869	0.068794	0.000073
C12	C	0.670858	0.067939	0.000063
C13	C	0.621840	0.111581	0.000052
C14	C	0.542904	0.110775	0.000063
C15	C	0.512988	0.066326	0.000079
C16	C	0.562013	0.022681	0.000093
C17	C	0.640947	0.023488	0.000088
C18	C	0.243679	0.019427	0.000114
C19	C	0.164739	0.018623	0.000117
C20	C	0.145636	0.106714	0.000089
C21	C	0.224571	0.107521	0.000084
C22	C	0.273588	0.063876	0.000102
C23	C	0.359180	0.064750	0.000092
C24	C	0.427398	0.065451	0.000083
C25	C	0.899874	-0.023280	0.000112
C26	C	0.899024	-0.076939	0.000121
C27	C	0.893686	-0.409672	-0.074868
C28	C	0.890459	-0.611342	-0.074883
O29	O	0.890016	-0.637412	-0.138624
N30	N	0.890049	-0.636563	0.000064
C31	C	0.890442	-0.611363	0.075020
O32	O	0.890012	-0.637442	0.138766
C33	C	0.893663	-0.409694	0.075034
C34	C	0.894080	-0.384476	0.000082
C35	C	0.894102	-0.384454	-0.149814
C36	C	0.894913	-0.334040	-0.149809
C37	C	0.895308	-0.308844	-0.074859
C38	C	0.894891	-0.334062	0.000087
C39	C	0.894050	-0.384494	0.149989
C40	C	0.894854	-0.334074	0.149986
C41	C	0.895271	-0.308856	0.075034
C42	C	0.896097	-0.258452	0.075041
N43	N	0.896506	-0.233230	0.000094
C44	C	0.896112	-0.258426	-0.074856
C45	C	0.888752	-0.717243	0.075007
C46	C	0.887948	-0.767660	0.075004
C47	C	0.887964	-0.767635	-0.074899
C48	C	0.888773	-0.717217	-0.074895
C49	C	0.889161	-0.692021	0.000060
C50	C	0.897815	-0.152553	-0.074841
C51	C	0.898629	-0.102135	-0.074829
C52	C	0.898609	-0.102164	0.075073
C53	C	0.897799	-0.152578	0.075062
C54	C	0.897400	-0.177771	0.000099
O55	O	0.896531	-0.232350	0.138748
O56	O	0.896525	-0.232337	-0.138593
C57	C	0.892875	-0.460086	-0.074872
C58	C	0.892459	-0.485304	0.000073
C59	C	0.892853	-0.460108	0.075023
C60	C	0.891655	-0.535721	0.000070
C61	C	0.891260	-0.560917	-0.074880
C62	C	0.891670	-0.535696	-0.149827
C63	C	0.892481	-0.485282	-0.149823
C64	C	0.892444	-0.485329	0.149970
C65	C	0.891634	-0.535743	0.149959
C66	C	0.891239	-0.560939	0.075009
C67	C	1.031708	0.061411	0.000107
C68	C	1.115719	0.062266	0.000111
C69	C	0.886703	0.153485	0.000067
C70	C	0.887553	0.207144	0.000054
N71	N	0.893271	0.065096	0.195757
N72	N	0.893312	0.065106	-0.195575
C73	C	0.945135	0.032187	0.239036
C74	C	0.945139	0.032186	0.325583
C75	C	0.893282	0.065097	0.368849
C76	C	0.841413	0.098008	0.325565
C77	C	0.841406	0.098006	0.239019
C78	C	0.841438	0.098017	0.674593
C79	C	0.841451	0.098017	0.761144
C80	C	0.945172	0.032197	0.761156
C81	C	0.945165	0.032195	0.674611
C82	C	0.893293	0.065104	0.631334
C83	C	0.893289	0.065103	0.537489
C84	C	0.893290	0.065100	0.462692
H85	H	0.680858	-0.012050	0.000097
H86	H	0.898971	-0.081605	-0.135867
H87	H	0.987407	0.005400	0.796402
H88	H	0.283581	-0.016112	0.000130
O89	O	0.897449	-0.176948	-0.147733
C90	C	0.897963	-0.143869	-0.213872
H91	H	0.922521	-0.109970	-0.191888
H92	H	0.837306	-0.133348	-0.236910
C93	C	0.917128	-0.209373	-0.311697
C94	C	0.947297	-0.167740	-0.284697
H95	H	0.947556	-0.224098	-0.355388
H96	H	0.916779	-0.231660	-0.267139
H97	H	0.866581	-0.200600	-0.330889
H98	H	0.997839	-0.176514	-0.265496
H99	H	0.947656	-0.145455	-0.329255
H100	H	0.895250	-0.313512	-0.210843
H101	H	0.893778	-0.404963	-0.210850
O102	O	0.791111	0.129960	0.367719
C103	C	0.802226	0.122899	0.453388
H104	H	0.862616	0.104784	0.465208
H105	H	0.759684	0.098689	0.477967
C106	C	0.716086	0.194607	0.483279
C107	C	0.790260	0.172362	0.497798
H108	H	0.708701	0.225117	0.510674
H109	H	0.708595	0.199363	0.425562
H110	H	0.680642	0.174427	0.503761
H111	H	0.825702	0.192539	0.477306
H112	H	0.797757	0.167610	0.555512
O113	O	0.889238	-0.692726	0.147770
C114	C	0.955289	-0.669129	0.152276
H115	H	0.977274	-0.663413	0.087205
H116	H	1.000894	-0.692458	0.189259
C117	C	0.909131	-0.626580	0.275062
C118	C	0.936130	-0.619556	0.195140
H119	H	0.897315	-0.596003	0.301506
H120	H	0.864633	-0.642479	0.272028
H121	H	0.947140	-0.646023	0.305871
H122	H	0.898118	-0.600120	0.164330
H123	H	0.980622	-0.603653	0.198170
O124	O	0.893607	-0.408905	0.222872
C125	C	0.894141	-0.375846	0.289014
H126	H	0.870754	-0.337876	0.267024
H127	H	0.954965	-0.375633	0.312077
C128	C	0.872877	-0.437951	0.386825
C129	C	0.844147	-0.391315	0.359818
H130	H	0.842041	-0.447494	0.430502
H131	H	0.872520	-0.460224	0.342265
H132	H	0.923562	-0.437767	0.406038
H133	H	0.793466	-0.391501	0.340596
H134	H	0.844494	-0.369043	0.404377
O135	O	0.790998	0.130021	0.197103
C136	C	0.745216	0.159063	0.253848
H137	H	0.776244	0.159587	0.315536
H138	H	0.689185	0.143411	0.263068
C139	C	0.690873	0.210577	0.144280
C140	C	0.728985	0.211224	0.220045
H141	H	0.680858	0.242753	0.123428
H142	H	0.721715	0.191011	0.106049
H143	H	0.644185	0.197532	0.151974
H144	H	0.775676	0.224263	0.212348
H145	H	0.698151	0.230794	0.258273
O146	O	0.995568	0.000178	0.632711
C147	C	1.041358	-0.028861	0.689469
H148	H	1.010342	-0.029381	0.751168
H149	H	1.097393	-0.013211	0.698657
C150	C	1.095675	-0.080384	0.579935
C151	C	1.057578	-0.081025	0.655712
H152	H	1.105684	-0.112560	0.559112
H153	H	1.064828	-0.060818	0.541695
H154	H	1.142367	-0.067340	0.587602
H155	H	1.010884	-0.094063	0.648043
H156	H	1.088419	-0.100594	0.693951
O157	O	0.650770	0.154802	0.000071
C158	C	0.590575	0.193148	0.000044
H159	H	0.537110	0.179658	0.026082
H160	H	0.579239	0.206608	-0.065921
C161	C	0.678021	0.251644	0.021971
C162	C	0.612357	0.235076	0.053957
H163	H	0.691457	0.277508	0.055223
H164	H	0.718577	0.225810	0.021986
H165	H	0.668566	0.262857	-0.033000
H166	H	0.621815	0.223858	0.108923
H167	H	0.571803	0.260910	0.053953
O168	O	0.995498	0.000156	0.367528
C169	C	0.983773	-0.047689	0.346417
H170	H	0.954588	-0.047609	0.283586
H171	H	0.946296	-0.062613	0.395141
C172	C	1.096859	-0.079997	0.419581
C173	C	1.061020	-0.079900	0.342408
H174	H	1.144507	-0.099867	0.417112
H175	H	1.104757	-0.047764	0.433807
H176	H	1.065620	-0.092433	0.460176
H177	H	1.092254	-0.067458	0.301817
H178	H	1.053128	-0.112132	0.328175
H179	H	0.537649	-0.013510	0.000118
H180	H	0.502996	0.146313	0.000052
H181	H	0.897467	-0.173112	0.136094
O182	O	0.995392	0.000177	0.196938
C183	C	0.955189	-0.029620	0.146938
H184	H	0.895749	-0.010302	0.133951
H185	H	0.950443	-0.065325	0.180343
C186	C	1.070984	-0.063756	0.080689
C187	C	0.997980	-0.040028	0.064733
H188	H	1.097380	-0.070179	0.029983
H189	H	1.098070	-0.043683	0.114377
H190	H	1.067018	-0.093508	0.108529
H191	H	1.001946	-0.010274	0.036904
H192	H	0.970895	-0.060097	0.031038
O193	O	0.895097	-0.309564	0.222776
C194	C	0.829999	-0.274837	0.227239
H195	H	0.783930	-0.286141	0.184696
H196	H	0.845441	-0.237880	0.207109
C197	C	0.856842	-0.257671	0.369029
C198	C	0.800258	-0.271557	0.316782
H199	H	0.838498	-0.255646	0.424264
H200	H	0.900702	-0.281066	0.366022
H201	H	0.869706	-0.226875	0.352244
H202	H	0.787402	-0.302355	0.333561
H203	H	0.756395	-0.248167	0.319794
H204	H	0.889112	-0.696688	-0.135927
H205	H	0.799220	0.124818	0.796371
H206	H	0.248923	0.143716	0.000067
H207	H	0.105716	0.142252	0.000079
O208	O	0.887440	-0.792125	-0.147686
C209	C	0.821408	-0.815742	-0.152153
H210	H	0.775820	-0.796667	-0.109623
H211	H	0.835622	-0.855209	-0.132009
C212	C	0.847651	-0.837419	-0.293933
C213	C	0.791656	-0.813989	-0.241701
H214	H	0.829300	-0.836340	-0.349170
H215	H	0.892140	-0.821510	-0.290922
H216	H	0.859491	-0.870306	-0.277136
H217	H	0.779825	-0.781101	-0.258492
H218	H	0.747165	-0.829893	-0.244717
O219	O	0.887676	-0.792189	0.147787
C220	C	0.952768	-0.826920	0.152286
H221	H	0.998859	-0.815607	0.109771
H222	H	0.937331	-0.863870	0.132142
C223	C	0.925852	-0.844121	0.294058
C224	C	0.982464	-0.830224	0.241846
H225	H	0.944168	-0.846162	0.349303
H226	H	0.881996	-0.820724	0.291027
H227	H	0.912993	-0.874912	0.277262
H228	H	0.995315	-0.799432	0.258636
H229	H	1.026323	-0.853617	0.244882
H230	H	0.140385	-0.017574	0.000131
H231	H	0.898934	-0.081641	0.136095
H232	H	0.892820	-0.464754	-0.210856
H233	H	0.891352	-0.556220	-0.210854
H234	H	0.892766	-0.464820	0.211005
H235	H	0.891300	-0.556272	0.210999
H236	H	0.799204	0.124813	0.639363
