data_functionalizedCrystal
_audit_creation_method	'MofGen! by Chris Wilmer'
_symmetry_space_group_name_H-M	'P1'
_symmetry_Int_Tables_number	1
_symmetry_cell_setting	triclinic
loop_
_symmetry_equiv_pos_as_xyz
  x,y,z
_cell_length_a	12.759401
_cell_length_b	16.625545
_cell_length_c	12.759393
_cell_angle_alpha	90.033904
_cell_angle_beta	90.018567
_cell_angle_gamma	90.024602
loop_
_atom_site_label
_atom_site_type_symbol
_atom_site_fract_x
_atom_site_fract_y
_atom_site_fract_z
Zn1	Zn	1.606176	-0.320975	0.593966
Zn2	Zn	2.106176	0.179025	1.093966
Zn3	Zn	1.606037	-0.455831	0.418279
Zn4	Zn	2.106037	0.044169	0.918279
Zn5	Zn	1.430478	-0.321014	0.418305
Zn6	Zn	1.930478	0.178986	0.918305
Zn7	Zn	1.430433	-0.455767	0.593920
Zn8	Zn	1.930433	0.044233	1.093920
O9	O	1.518281	-0.388397	0.506118
O10	O	2.018281	0.111603	1.006118
O11	O	1.753179	-0.338874	0.570669
O12	O	2.253179	0.161126	1.070669
O13	O	1.582709	-0.437991	0.271262
O14	O	2.082709	0.062009	0.771262
O15	O	1.453862	-0.208177	0.441637
O16	O	1.953862	0.291823	0.941637
O17	O	1.753077	-0.437953	0.441593
O18	O	2.253077	0.062047	0.941593
O19	O	1.582946	-0.208147	0.570695
O20	O	2.082946	0.291853	1.070695
O21	O	1.453727	-0.338942	0.271281
O22	O	1.953727	0.161058	0.771281
O23	O	1.283451	-0.338879	0.441593
O24	O	1.783451	0.161121	0.941593
O25	O	1.453786	-0.437843	0.740948
O26	O	1.953786	0.062157	1.240948
O27	O	1.283418	-0.437881	0.570617
O28	O	1.783418	0.062119	1.070617
O29	O	1.582903	-0.338811	0.740981
O30	O	2.082903	0.161189	1.240981
O31	O	1.582666	-0.568655	0.441548
O32	O	2.082666	-0.068655	0.941548
O33	O	1.453651	-0.568608	0.570591
O34	O	1.953651	-0.068608	1.070591
C35	C	1.245314	-0.388378	0.506103
C36	C	1.745314	0.111622	1.006103
C37	C	1.128537	-0.388389	0.506122
C38	C	1.628537	0.111611	1.006122
C39	C	1.073721	-0.336896	0.573436
C40	C	1.573721	0.163104	1.073436
C41	C	0.963997	-0.336912	0.573443
C42	C	1.463997	0.163088	1.073443
C43	C	0.963915	-0.439920	0.438818
C44	C	1.463915	0.060080	0.938818
C45	C	1.073637	-0.439900	0.438807
C46	C	1.573637	0.060100	0.938807
C47	C	1.073768	-0.277428	0.651164
C48	C	1.573768	0.222572	1.151164
C49	C	0.964044	-0.277443	0.651171
C50	C	1.464044	0.222557	1.151171
C51	C	1.518167	-0.597888	0.506085
C52	C	2.018167	-0.097888	1.006085
C53	C	1.518214	-0.687509	0.506106
C54	C	2.018214	-0.187509	1.006106
C55	C	1.518255	-0.760291	0.506127
C56	C	2.018255	-0.260291	1.006127
C57	C	1.518316	-0.851600	0.506150
C58	C	2.018316	-0.351600	1.006150
C59	C	1.518371	-0.924376	0.506163
C60	C	2.018371	-0.424376	1.006163
C61	C	1.518431	-1.015690	0.506185
C62	C	2.018431	-0.515690	1.006185
C63	C	1.792314	-0.388416	0.506133
C64	C	2.292314	0.111584	1.006133
C65	C	1.909091	-0.388425	0.506140
C66	C	2.409091	0.111575	1.006140
C67	C	1.518355	-0.388315	0.780151
C68	C	2.018355	0.111685	1.280151
C69	C	1.518386	-0.388281	0.896928
C70	C	2.018386	0.111719	1.396928
C71	C	1.518424	-0.178088	0.506174
C72	C	2.018424	0.321912	1.006174
C73	C	1.518485	-0.088467	0.506198
C74	C	2.018485	0.411533	1.006198
C75	C	1.518268	-0.388420	0.233150
C76	C	2.018268	0.111580	0.733150
C77	C	1.518441	-0.388227	0.116374
C78	C	2.018441	0.111773	0.616374
C79	C	1.585627	-0.336710	0.951809
C80	C	2.085627	0.163290	1.451809
C81	C	1.585652	-0.336681	1.061533
C82	C	2.085652	0.163319	1.561533
C83	C	1.451192	-0.439800	1.061485
C84	C	1.951192	0.060200	1.561485
C85	C	1.451163	-0.439824	0.951763
C86	C	1.951163	0.060176	1.451763
C87	C	1.663259	-0.277178	0.951838
C88	C	2.163259	0.222822	1.451838
C89	C	1.663284	-0.277149	1.061562
C90	C	2.163284	0.222851	1.561562
H91	H	0.934295	-0.294247	0.732506
H92	H	1.434295	0.205753	1.232506
F93	F	1.118292	-0.306752	0.752116
F94	F	1.618292	0.193248	1.252116
F95	F	1.625132	-0.199634	1.106075
F96	F	2.125132	0.300366	1.606075
F97	F	0.919563	-0.199877	0.613267
F98	F	1.419563	0.300123	1.113267
F99	F	1.764251	-0.306435	0.907344
F100	F	2.264251	0.193565	1.407344
H101	H	1.744651	-0.293875	1.091340
H102	H	2.244651	0.206125	1.591340
F103	F	1.379582	-0.494701	0.893358
F104	F	1.879582	0.005299	1.393358
H105	H	1.641506	-0.214734	0.922085
H106	H	2.141506	0.285266	1.422085
F107	F	0.905476	-0.494737	0.367180
F108	F	1.405476	0.005263	0.867180
F109	F	1.131972	-0.494686	0.367137
F110	F	1.631972	0.005314	0.867137
F111	F	1.379653	-0.494653	1.119854
F112	F	1.879653	0.005347	1.619854
F113	F	1.112701	-0.195772	0.622869
F114	F	1.612701	0.304228	1.122869
