data_functionalizedCrystal
_audit_creation_method	'MofGen! by Chris Wilmer'
_symmetry_space_group_name_H-M	'P1'
_symmetry_Int_Tables_number	1
_symmetry_cell_setting	triclinic
loop_
_symmetry_equiv_pos_as_xyz
  x,y,z
_cell_length_a	18.050591
_cell_length_b	18.050589
_cell_length_c	15.296720
_cell_angle_alpha	99.646980
_cell_angle_beta	99.656035
_cell_angle_gamma	90.024227
loop_
_atom_site_label
_atom_site_type_symbol
_atom_site_fract_x
_atom_site_fract_y
_atom_site_fract_z
Zn1	Zn	1.062583	-0.368408	-0.510231
Zn2	Zn	1.562583	0.131592	-0.010231
Zn3	Zn	1.083989	-0.471122	-0.359392
Zn4	Zn	1.583989	0.028878	0.140608
Zn5	Zn	0.959899	-0.346940	-0.359382
Zn6	Zn	1.459899	0.153060	0.140618
Zn7	Zn	0.938358	-0.492545	-0.510177
Zn8	Zn	1.438358	0.007455	-0.010177
O9	O	1.011207	-0.419754	-0.434795
O10	O	1.511207	0.080246	0.065205
O11	O	1.169343	-0.382053	-0.490249
O12	O	1.669343	0.117947	0.009751
O13	O	1.085501	-0.436700	-0.233155
O14	O	1.585501	0.063300	0.266845
O15	O	0.973576	-0.245866	-0.379411
O16	O	1.473576	0.254134	0.120589
O17	O	1.185070	-0.457516	-0.379428
O18	O	1.685070	0.042484	0.120572
O19	O	1.049018	-0.261639	-0.490240
O20	O	1.549018	0.238361	0.009760
O21	O	0.994333	-0.345464	-0.233148
O22	O	1.494333	0.154536	0.266852
O23	O	0.853120	-0.366236	-0.379358
O24	O	1.353120	0.133764	0.120642
O25	O	0.936863	-0.494027	-0.636419
O26	O	1.436863	0.005973	-0.136419
O27	O	0.837294	-0.473211	-0.490146
O28	O	1.337294	0.026789	0.009854
O29	O	1.028131	-0.402825	-0.636459
O30	O	1.528131	0.097175	-0.136459
O31	O	1.064614	-0.577886	-0.379375
O32	O	1.564614	-0.077886	0.120625
O33	O	0.957619	-0.593625	-0.490156
O34	O	1.457619	-0.093625	0.009844
C35	C	0.818262	-0.419719	-0.434745
C36	C	1.318262	0.080281	0.065255
C37	C	0.735716	-0.419725	-0.434746
C38	C	1.235716	0.080275	0.065254
C39	C	0.544830	-0.361515	-0.374637
C40	C	1.044830	0.138485	0.125363
C41	C	0.498573	-0.426092	-0.352444
C42	C	0.998573	0.073908	0.147556
C43	C	0.584580	-0.419754	-0.434786
C44	C	1.084580	0.080246	0.065214
C45	C	0.483756	-0.355200	-0.456977
C46	C	0.983756	0.144800	0.043023
C47	C	0.438589	-0.419775	-0.434824
C48	C	0.938589	0.080225	0.065176
C49	C	0.539416	-0.484360	-0.412550
C50	C	1.039416	0.015640	0.087450
C51	C	0.524597	-0.413428	-0.517121
C52	C	1.024597	0.086572	-0.017121
C53	C	0.478358	-0.478056	-0.494959
C54	C	0.978358	0.021944	0.005041
C55	C	0.668682	-0.419740	-0.434762
C56	C	1.168682	0.080260	0.065238
C57	C	0.354489	-0.419796	-0.434848
C58	C	0.854489	0.080204	0.065152
C59	C	1.011119	-0.612704	-0.434780
C60	C	1.511119	-0.112704	0.065220
C61	C	1.011146	-0.695253	-0.434804
C62	C	1.511146	-0.195253	0.065196
C63	C	0.953014	-0.903287	-0.495026
C64	C	1.453014	-0.403287	0.004974
C65	C	0.946646	-0.941003	-0.412708
C66	C	1.446646	-0.441003	0.087292
C67	C	1.011217	-0.846385	-0.434816
C68	C	1.511217	-0.346385	0.065184
C69	C	1.017619	-0.955752	-0.517143
C70	C	1.517619	-0.455752	-0.017143
C71	C	1.011283	-0.992373	-0.434835
C72	C	1.511283	-0.492373	0.065165
C73	C	1.004820	-0.883008	-0.352454
C74	C	1.504820	-0.383008	0.147546
C75	C	1.075816	-0.897761	-0.456945
C76	C	1.575816	-0.397761	0.043055
C77	C	1.069483	-0.935446	-0.374571
C78	C	1.569483	-0.435446	0.125429
C79	C	1.011176	-0.762285	-0.434806
C80	C	1.511176	-0.262285	0.065194
C81	C	1.011325	-1.076469	-0.434835
C82	C	1.511325	-0.576469	0.065165
C83	C	1.204905	-0.419789	-0.434846
C84	C	1.704905	0.080211	0.065154
C85	C	1.287448	-0.419805	-0.434867
C86	C	1.787448	0.080195	0.065133
C87	C	0.977706	-0.453211	-0.670086
C88	C	1.477706	0.046789	-0.170086
C89	C	0.963430	-0.467468	-0.770353
C90	C	1.463430	0.032532	-0.270353
C91	C	1.011312	-0.226053	-0.434830
C92	C	1.511312	0.273947	0.065170
C93	C	1.011357	-0.143510	-0.434845
C94	C	1.511357	0.356490	0.065155
C95	C	1.113267	-0.317725	-1.053072
C96	C	1.613267	0.182275	-0.553072
C97	C	1.126685	-0.304331	-0.958866
C98	C	1.626685	0.195669	-0.458866
C99	C	1.085872	-0.345114	-0.911733
C100	C	1.585872	0.154886	-0.411733
C101	C	1.031640	-0.399294	-0.958815
C102	C	1.531640	0.100706	-0.458815
C103	C	1.018225	-0.412693	-1.053030
C104	C	1.518225	0.087307	-0.553030
C105	C	0.990830	-0.440082	-0.911691
C106	C	1.490830	0.059918	-0.411691
C107	C	0.936598	-0.494261	-0.958773
C108	C	1.436598	0.005739	-0.458773
C109	C	0.923185	-0.507658	-1.052979
C110	C	1.423185	-0.007658	-0.552979
C111	C	0.963997	-0.466875	-1.100112
C112	C	1.463997	0.033125	-0.600112
C113	C	1.004245	-0.426682	-0.817476
C114	C	1.504245	0.073318	-0.317476
C115	C	0.909203	-0.521650	-0.817434
C116	C	1.409203	-0.021650	-0.317434
C117	C	0.895785	-0.535044	-0.911640
C118	C	1.395785	-0.035044	-0.411640
C119	C	1.044620	-0.386374	-0.200420
C120	C	1.544620	0.113626	0.299580
C121	C	1.059040	-0.371908	-0.100154
C122	C	1.559040	0.128092	0.399846
H123	H	0.459380	-0.300602	-0.475700
H124	H	0.959380	0.199398	0.024300
H125	H	1.118740	-0.949705	-0.323602
H126	H	1.618740	-0.449705	0.176398
F127	F	0.582625	-0.297189	-0.308083
F128	F	1.082625	0.202811	0.191917
F129	F	1.147158	-0.872784	-0.481439
F130	F	1.647158	-0.372784	0.018561
F131	F	0.997694	-0.841866	-0.261435
F132	F	1.497694	-0.341866	0.238565
H133	H	1.146495	-0.284530	-1.091456
H134	H	1.646495	0.215470	-0.591456
F135	F	0.875280	-0.965961	-0.388244
F136	F	1.375280	-0.465961	0.111756
H137	H	0.879031	-0.551781	-1.091310
H138	H	1.379031	-0.051781	-0.591310
H139	H	1.023009	-0.987318	-0.586759
H140	H	1.523009	-0.487318	-0.086759
H141	H	1.096800	-0.334205	-0.835027
H142	H	1.596800	0.165795	-0.335027
H143	H	1.048401	-0.382568	-0.779152
H144	H	1.548401	0.117432	-0.279152
F145	F	0.838069	-0.592705	-0.961759
F146	F	1.338069	-0.092705	-0.461759
H147	H	1.170843	-0.260220	-0.920539
H148	H	1.670843	0.239780	-0.420539
H149	H	0.953076	-0.477778	-1.176822
H150	H	1.453076	0.022222	-0.676822
F151	F	0.888614	-0.884447	-0.561486
F152	F	1.388614	-0.384447	-0.061486
H153	H	0.449586	-0.527364	-0.545841
H154	H	0.949586	-0.027364	-0.045841
F155	F	0.540069	-0.406386	-0.608086
F156	F	1.040069	0.093614	-0.108086
H157	H	0.563678	-0.538967	-0.393719
H158	H	1.063678	-0.038967	0.106281
H159	H	0.875971	-0.554860	-0.779059
H160	H	1.375971	-0.054860	-0.279059
H161	H	0.486756	-0.431458	-0.282831
H162	H	0.986756	0.068542	0.217169
