data_functionalizedCrystal
_audit_creation_method	'MofGen! by Chris Wilmer'
_symmetry_space_group_name_H-M	'P1'
_symmetry_Int_Tables_number	1
_symmetry_cell_setting	triclinic
loop_
_symmetry_equiv_pos_as_xyz
  x,y,z
_cell_length_a	25.639239
_cell_length_b	21.295419
_cell_length_c	21.295411
_cell_angle_alpha	90.025287
_cell_angle_beta	89.980474
_cell_angle_gamma	89.944755
loop_
_atom_site_label
_atom_site_type_symbol
_atom_site_fract_x
_atom_site_fract_y
_atom_site_fract_z
Zn1	Zn	-0.207979	-0.962320	-0.355933
Zn2	Zn	-0.295399	-0.962207	-0.250662
Zn3	Zn	-0.208005	-0.857043	-0.250677
Zn4	Zn	-0.295411	-0.856997	-0.355893
O5	O	-0.251699	-0.909642	-0.303291
O6	O	-0.219560	-1.050394	-0.341979
O7	O	-0.283812	-0.948229	-0.162575
O8	O	-0.134836	-0.871074	-0.264662
O9	O	-0.283787	-1.050312	-0.264637
O10	O	-0.134818	-0.948421	-0.341993
O11	O	-0.219604	-0.870965	-0.162585
O12	O	-0.219615	-0.768948	-0.264623
O13	O	-0.283807	-0.870997	-0.443987
O14	O	-0.283832	-0.768914	-0.341925
O15	O	-0.219571	-0.948377	-0.444017
O16	O	-0.368566	-0.948185	-0.264598
O17	O	-0.368575	-0.870887	-0.341911
C18	C	-0.251728	-0.746090	-0.303271
C19	C	-0.251753	-0.676122	-0.303278
C20	C	-0.387541	-0.909536	-0.303262
C21	C	-0.445655	-0.909548	-0.303271
C22	C	-0.218365	-0.643321	-0.343612
C23	C	-0.218353	-0.577578	-0.343613
C24	C	-0.251738	-0.544640	-0.303288
C25	C	-0.285127	-0.577449	-0.262946
C26	C	-0.285135	-0.643190	-0.262941
N27	N	-0.297486	-0.441356	-0.298368
N28	N	-0.297477	-0.378905	-0.298377
C29	C	-0.251716	-0.346565	-0.303299
N30	N	-0.205962	-0.379036	-0.308225
N31	N	-0.205971	-0.441493	-0.308220
C32	C	-0.251733	-0.473354	-0.303288
C33	C	-0.218312	-0.242478	-0.343636
C34	C	-0.218299	-0.176735	-0.343634
C35	C	-0.285078	-0.176606	-0.262970
C36	C	-0.285086	-0.242348	-0.262969
C37	C	-0.251704	-0.275281	-0.303306
C38	C	-0.806001	-0.949996	-0.263103
C39	C	-0.860606	-0.950020	-0.263112
O40	O	-0.888828	-0.984300	-0.228928
N41	N	-0.887938	-0.909752	-0.303333
C42	C	-0.860663	-0.869463	-0.343553
O43	O	-0.888925	-0.835215	-0.377765
C44	C	-0.806059	-0.869442	-0.343547
C45	C	-0.778730	-0.909707	-0.303319
C46	C	-0.778672	-0.990258	-0.222879
C47	C	-0.724071	-0.990233	-0.222870
C48	C	-0.696800	-0.949945	-0.263085
C49	C	-0.724130	-0.909682	-0.303310
C50	C	-0.778785	-0.829155	-0.383770
C51	C	-0.724178	-0.829138	-0.383761
C52	C	-0.696849	-0.869404	-0.343532
C53	C	-0.642258	-0.869368	-0.343516
N54	N	-0.614926	-0.909636	-0.303295
C55	C	-0.642197	-0.949924	-0.263079
C56	C	-0.975333	-0.869510	-0.343562
C57	C	-1.029935	-0.869527	-0.343565
C58	C	-1.029875	-0.950085	-0.263125
C59	C	-0.975271	-0.950065	-0.263119
C60	C	-0.948001	-0.909777	-0.303341
C61	C	-0.527532	-0.949867	-0.263063
C62	C	-0.472927	-0.949836	-0.263056
C63	C	-0.472992	-0.869281	-0.343498
C64	C	-0.527593	-0.869309	-0.343503
C65	C	-0.554861	-0.909607	-0.303284
O66	O	-0.614001	-0.835108	-0.377684
O67	O	-0.613928	-0.984172	-0.228878
C68	C	-0.115326	-0.909765	-0.303334
C69	C	-0.057212	-0.909818	-0.303352
C70	C	-0.251688	-0.909694	-0.467481
C71	C	-0.251683	-0.909716	-0.537450
C72	C	-0.251676	-0.073832	-0.303308
C73	C	-0.251683	-0.143800	-0.303307
C74	C	-0.218234	-0.950006	-0.570333
C75	C	-0.218211	-0.950005	-0.636075
C76	C	-0.251647	-0.909721	-0.668932
C77	C	-0.285098	-0.869423	-0.636041
C78	C	-0.285116	-0.869421	-0.570300
N79	N	-0.297386	-0.904857	-0.772149
N80	N	-0.297368	-0.904863	-0.834601
C81	C	-0.251594	-0.909725	-0.867007
N82	N	-0.205838	-0.914594	-0.834602
N83	N	-0.205858	-0.914591	-0.772145
C84	C	-0.251631	-0.909719	-0.740218
C85	C	-0.218118	-0.950016	-0.971176
C86	C	-0.218094	-0.950011	-1.036919
C87	C	-0.284986	-0.869432	-1.036884
C88	C	-0.285004	-0.869434	-0.971142
C89	C	-0.251571	-0.909730	-0.938291
C90	C	-0.251672	-0.909626	-0.139740
C91	C	-0.251529	-0.909726	-0.069772
H92	H	-0.191183	-0.670130	-0.376456
H93	H	-0.191009	-0.982817	-0.543590
O94	O	-0.446470	-0.830240	-0.382630
C95	C	-0.384765	-0.821728	-0.467570
C96	C	-0.414781	-0.866007	-0.423298
H97	H	-0.359129	-0.850628	-0.500452
H98	H	-0.413648	-0.792961	-0.496374
H99	H	-0.359269	-0.788806	-0.438623
H100	H	-0.440278	-0.898968	-0.452196
H101	H	-0.385870	-0.894730	-0.394491
H102	H	-0.953132	-0.836698	-0.376314
H103	H	-0.312354	-0.836609	-0.543527
O104	O	-0.185994	-0.545636	-0.382828
C105	C	-0.179074	-0.471491	-0.467862
C106	C	-0.215777	-0.507613	-0.423481
H107	H	-0.203139	-0.440750	-0.500749
H108	H	-0.151704	-0.440689	-0.439062
H109	H	-0.155204	-0.506332	-0.496661
H110	H	-0.239681	-0.472817	-0.394672
H111	H	-0.243112	-0.538424	-0.452317
H112	H	-0.549728	-0.982683	-0.230314
O113	O	-0.317528	-0.830388	-0.939127
C114	C	-0.388163	-0.821855	-0.864931
C115	C	-0.351354	-0.866149	-0.901135
H116	H	-0.415528	-0.850750	-0.834215
H117	H	-0.364202	-0.788969	-0.834097
H118	H	-0.412032	-0.793048	-0.899718
H119	H	-0.327477	-0.894996	-0.866393
H120	H	-0.375345	-0.898993	-0.931979
O121	O	-0.697633	-0.789970	-0.422746
C122	C	-0.636105	-0.704918	-0.431136
C123	C	-0.666124	-0.749247	-0.386917
H124	H	-0.610632	-0.671974	-0.402185
H125	H	-0.610462	-0.733757	-0.464065
H126	H	-0.665033	-0.676177	-0.459899
H127	H	-0.637234	-0.777998	-0.358113
H128	H	-0.691775	-0.720373	-0.354029
H129	H	-0.801027	-0.796364	-0.416525
H130	H	-0.549845	-0.836523	-0.376262
O131	O	-0.317614	-0.545427	-0.223865
C132	C	-0.388166	-0.471078	-0.215248
C133	C	-0.351416	-0.507313	-0.259583
H134	H	-0.415496	-0.440244	-0.244108
H135	H	-0.412070	-0.505789	-0.186429
H136	H	-0.364107	-0.440340	-0.182377
H137	H	-0.375435	-0.538052	-0.292493
H138	H	-0.327510	-0.472568	-0.288358
H139	H	-0.312324	-0.669896	-0.230095
H140	H	-0.191127	-0.269293	-0.376477
H141	H	-0.190970	-0.982813	-0.662854
H142	H	-0.312320	-0.836622	-0.662797
H143	H	-0.701823	-1.023022	-0.190114
O144	O	-0.185846	-0.144967	-0.382874
C145	C	-0.119597	-0.152035	-0.462860
C146	C	-0.156331	-0.188091	-0.418463
H147	H	-0.095716	-0.186885	-0.491636
H148	H	-0.143613	-0.121256	-0.495764
H149	H	-0.092238	-0.121264	-0.434012
H150	H	-0.183696	-0.218896	-0.447260
H151	H	-0.132282	-0.218830	-0.385558
O152	O	-0.948807	-0.989240	-0.224024
C153	C	-0.954525	-1.069113	-0.144208
C154	C	-0.984557	-1.024787	-0.188463
H155	H	-0.983415	-1.097855	-0.115436
H156	H	-0.928931	-1.102050	-0.173104
H157	H	-0.928988	-1.040210	-0.111290
H158	H	-1.010121	-1.053639	-0.221391
H159	H	-1.010118	-0.991848	-0.159529
H160	H	-0.312260	-0.149788	-0.230136
O161	O	-0.446356	-0.988864	-0.223910
C162	C	-0.384713	-0.997352	-0.138940
C163	C	-0.414777	-0.953084	-0.183220
H164	H	-0.359165	-0.968443	-0.106040
H165	H	-0.413564	-1.026141	-0.110155
H166	H	-0.359124	-1.030255	-0.167879
H167	H	-0.440367	-0.920143	-0.154329
H168	H	-0.385897	-0.924339	-0.212007
O169	O	-1.056399	-0.830388	-0.382698
C170	C	-1.050681	-0.750457	-0.462456
C171	C	-1.020649	-0.794758	-0.418176
H172	H	-1.021791	-0.721630	-0.491142
H173	H	-1.076185	-0.779320	-0.495448
H174	H	-1.076307	-0.717593	-0.433521
H175	H	-0.994995	-0.827632	-0.447061
H176	H	-0.995178	-0.765856	-0.385183
O177	O	-0.317573	-0.274118	-0.223773
C178	C	-0.383784	-0.267050	-0.143741
C179	C	-0.347028	-0.230994	-0.188112
H180	H	-0.407600	-0.232201	-0.114888
H181	H	-0.411196	-0.297790	-0.172550
H182	H	-0.359734	-0.297861	-0.110903
H183	H	-0.371036	-0.200149	-0.220959
H184	H	-0.319614	-0.200294	-0.159264
O185	O	-0.185589	-0.989172	-0.939358
C186	C	-0.119260	-1.069117	-0.946330
C187	C	-0.156064	-1.024797	-0.982439
H188	H	-0.095388	-1.097941	-0.981145
H189	H	-0.091902	-1.040270	-0.915555
H190	H	-0.143276	-1.101985	-0.915549
H191	H	-0.132091	-0.991920	-1.013253
H192	H	-0.183424	-1.053683	-1.013174
H193	H	-0.800870	-1.023069	-0.190130
O194	O	-1.056452	-0.989248	-0.224163
C195	C	-1.140552	-1.025051	-0.188609
C196	C	-1.110516	-0.980655	-0.232744
H197	H	-1.184268	-1.018109	-0.195522
H198	H	-1.129771	-1.075793	-0.199770
H199	H	-1.129846	-1.014087	-0.137822
H200	H	-1.121206	-0.991562	-0.283545
H201	H	-1.121300	-0.929926	-0.221529
O202	O	-0.317453	-0.830364	-1.068891
C203	C	-0.347056	-0.794638	-1.170153
C204	C	-0.310268	-0.838925	-1.133981
H205	H	-0.341252	-0.801535	-1.222785
H206	H	-0.389227	-0.805662	-1.157275
H207	H	-0.337899	-0.743892	-1.157171
H208	H	-0.319378	-0.889686	-1.146943
H209	H	-0.268108	-0.827848	-1.146862
H210	H	-0.190853	-0.982819	-1.063692
