data_functionalizedCrystal
_audit_creation_method	'MofGen! by Chris Wilmer'
_symmetry_space_group_name_H-M	'P1'
_symmetry_Int_Tables_number	1
_symmetry_cell_setting	triclinic
loop_
_symmetry_equiv_pos_as_xyz
  x,y,z
_cell_length_a	14.853567
_cell_length_b	19.188930
_cell_length_c	13.330367
_cell_angle_alpha	89.990231
_cell_angle_beta	89.995418
_cell_angle_gamma	83.389856
loop_
_atom_site_label
_atom_site_type_symbol
_atom_site_fract_x
_atom_site_fract_y
_atom_site_fract_z
O1	O	1.195862	0.091155	-0.083366
O2	O	0.933342	0.102014	-0.083385
O3	O	1.072178	-0.005046	-0.083355
O4	O	1.057026	0.198215	-0.083395
O5	O	1.072158	-0.005048	0.083492
O6	O	0.933322	0.102011	0.083462
O7	O	1.195842	0.091153	0.083481
Cu8	Cu	1.064580	0.096582	0.098706
Cu9	Cu	1.064604	0.096585	-0.098610
O10	O	1.057006	0.198212	0.083452
C11	C	0.899746	0.101521	0.000037
C12	C	0.799671	0.100046	0.000031
C13	C	0.387525	0.030218	0.000067
C14	C	0.365537	0.157407	0.000041
C15	C	0.459563	0.158794	0.000037
C16	C	0.517574	0.095891	0.000047
C17	C	0.481560	0.031602	0.000060
C18	C	0.495585	0.223081	0.000014
C19	C	0.589616	0.224470	0.000009
C20	C	0.647629	0.161567	0.000026
C21	C	0.611610	0.097276	0.000041
C22	C	0.669621	0.034373	0.000050
C23	C	0.633603	-0.029919	0.000072
C24	C	0.539574	-0.031301	0.000077
C25	C	0.741659	0.162949	0.000021
C26	C	0.763656	0.035757	0.000044
C27	C	1.071677	-0.031060	0.000071
C28	C	1.070204	-0.108569	0.000080
C29	C	1.151668	-0.153221	0.000090
C30	C	1.150285	-0.226050	0.000074
C31	C	1.067432	-0.254223	0.000068
C32	C	0.985957	-0.209561	0.000051
C33	C	0.987343	-0.136734	0.000057
N34	N	1.004094	-0.362440	0.056844
N35	N	1.002783	-0.431623	0.056841
C36	C	1.063251	-0.473645	0.000047
N37	N	1.125093	-0.443873	-0.056730
N38	N	1.126407	-0.374684	-0.056722
C39	C	1.065920	-0.333190	0.000060
C40	C	1.143220	-0.597267	0.000039
C41	C	1.141833	-0.670096	0.000016
C42	C	0.977503	-0.653606	0.000003
C43	C	0.978893	-0.580778	0.000016
C44	C	1.061754	-0.552613	0.000038
C45	C	1.229438	0.091646	0.000057
C46	C	1.329513	0.093120	0.000057
C47	C	1.057507	0.224226	0.000023
C48	C	1.058980	0.301736	0.000008
N49	N	1.064570	0.096579	0.237488
N50	N	1.064621	0.096582	-0.237391
C51	C	1.003125	0.143972	0.710098
C52	C	1.126107	0.049192	0.710092
C53	C	1.126097	0.049190	0.605073
C54	C	1.064601	0.096580	0.552562
C55	C	1.003115	0.143973	0.605070
C56	C	1.187588	0.001803	0.552558
C57	C	1.187581	0.001799	0.447533
C58	C	1.126080	0.049187	0.395020
C59	C	1.064590	0.096581	0.447534
C60	C	1.003094	0.143971	0.395023
C61	C	0.941600	0.191363	0.447535
C62	C	0.941613	0.191361	0.552557
C63	C	1.126066	0.049189	0.289999
C64	C	1.003084	0.143972	0.289995
H65	H	0.770981	0.215294	0.000005
C66	C	0.896067	-0.240241	-0.000111
C67	C	0.890494	-0.281574	-0.085939
C68	C	0.807704	-0.309854	-0.086121
H69	H	0.847668	-0.203287	-0.000168
H70	H	0.892094	-0.268355	0.058041
H71	H	0.894458	-0.253462	-0.144076
H72	H	0.938874	-0.318539	-0.085900
H73	H	0.803731	-0.337968	-0.027969
H74	H	0.759311	-0.272896	-0.086175
H75	H	0.803915	-0.337906	-0.144349
H76	H	1.237661	-0.036778	0.595316
C77	C	1.193012	-0.002185	0.767040
C78	C	1.281554	0.009265	0.741491
C79	C	1.343209	-0.038051	0.793943
H80	H	1.183518	-0.048825	0.749881
H81	H	1.184277	0.004601	0.837119
H82	H	1.290285	0.002473	0.671428
H83	H	1.291076	0.055895	0.758653
H84	H	1.334474	-0.031265	0.864022
H85	H	1.333707	-0.084687	0.776779
H86	H	1.403291	-0.030284	0.776622
H87	H	1.208174	-0.706452	0.000019
H88	H	0.953003	0.182561	0.247247
H89	H	1.210691	-0.574334	0.000052
H90	H	0.680849	-0.081134	0.000073
H91	H	0.891533	0.229951	0.404768
C92	C	1.238707	-0.274576	-0.000113
C93	C	1.242740	-0.316847	-0.085964
C94	C	1.324185	-0.361549	-0.086175
H95	H	1.241651	-0.303400	0.058003
H96	H	1.288280	-0.247397	-0.000154
H97	H	1.193180	-0.344023	-0.085914
H98	H	1.239812	-0.288042	-0.144094
H99	H	1.373758	-0.334370	-0.086216
H100	H	1.327121	-0.390368	-0.028056
H101	H	1.326935	-0.390230	-0.144428
C102	C	0.432493	0.291316	-0.000152
C103	C	0.377847	0.294224	-0.085971
C104	C	0.319702	0.357069	-0.086148
H105	H	0.467291	0.329863	-0.000219
H106	H	0.395305	0.293420	0.058006
H107	H	0.415031	0.292127	-0.144114
H108	H	0.343030	0.255692	-0.085922
H109	H	0.282514	0.359173	-0.027989
H110	H	0.354508	0.395610	-0.086212
H111	H	0.282612	0.359047	-0.144370
H112	H	0.510239	-0.083644	0.000119
H113	H	0.921003	-0.100377	0.000049
H114	H	1.219140	-0.130295	0.000105
H115	H	1.237652	-0.036790	0.404785
H116	H	1.176138	0.010607	0.247248
C117	C	0.887519	-0.684143	-0.000213
C118	C	0.838310	-0.661453	-0.086067
C119	C	0.755414	-0.689580	-0.086312
H120	H	0.853870	-0.668849	0.057901
H121	H	0.898320	-0.733915	-0.000272
H122	H	0.827506	-0.611692	-0.085999
H123	H	0.871930	-0.676747	-0.144194
H124	H	0.766215	-0.739352	-0.086371
H125	H	0.721774	-0.674284	-0.028195
H126	H	0.722019	-0.674195	-0.144567
H127	H	0.912556	-0.544421	0.000013
C128	C	0.348601	-0.039654	0.000136
C129	C	0.419534	-0.094441	0.000165
C130	C	0.383712	-0.158816	0.000240
H131	H	0.312390	-0.042937	-0.058027
H132	H	0.312405	-0.042878	0.058347
H133	H	0.455715	-0.091218	-0.058041
H134	H	0.455751	-0.091181	0.058323
H135	H	0.347516	-0.162041	0.058452
H136	H	0.347501	-0.162093	-0.057923
H137	H	0.431834	-0.195997	0.000269
H138	H	0.953055	0.182556	0.752855
C139	C	0.628542	0.294341	0.000047
C140	C	0.557611	0.349130	0.000064
C141	C	0.593437	0.413504	0.000116
H142	H	0.664757	0.297628	-0.058120
H143	H	0.664735	0.297560	0.058254
H144	H	0.521434	0.345912	-0.058138
H145	H	0.521390	0.345866	0.058226
H146	H	0.629629	0.416723	0.058323
H147	H	0.629651	0.416784	-0.058052
H148	H	0.545316	0.450686	0.000137
C149	C	0.874961	0.242784	0.609751
C150	C	0.888154	0.232654	0.712963
C151	C	0.826783	0.280020	0.765685
H152	H	0.814782	0.235165	0.592682
H153	H	0.884573	0.289411	0.592581
H154	H	0.878535	0.186039	0.730126
H155	H	0.948321	0.240279	0.730062
H156	H	0.836395	0.326647	0.748515
H157	H	0.766608	0.272397	0.748608
H158	H	0.835732	0.273158	0.835720
H159	H	0.318299	0.208620	0.000024
H160	H	0.810884	-0.015466	0.000056
