data_functionalizedCrystal
_audit_creation_method	'MofGen! by Chris Wilmer'
_symmetry_space_group_name_H-M	'P1'
_symmetry_Int_Tables_number	1
_symmetry_cell_setting	triclinic
loop_
_symmetry_equiv_pos_as_xyz
  x,y,z
_cell_length_a	27.732064
_cell_length_b	27.731996
_cell_length_c	26.809956
_cell_angle_alpha	89.998344
_cell_angle_beta	89.998878
_cell_angle_gamma	82.635407
loop_
_atom_site_label
_atom_site_type_symbol
_atom_site_fract_x
_atom_site_fract_y
_atom_site_fract_z
O1	O	0.640915	0.057550	-0.041397
O2	O	0.500121	0.066287	-0.041418
O3	O	0.574904	-0.008480	-0.041396
O4	O	0.566132	0.132317	-0.041419
O5	O	0.574890	-0.008468	0.041563
O6	O	0.500107	0.066299	0.041541
O7	O	0.640901	0.057561	0.041562
Zn8	Zn	0.570502	0.061932	0.054723
Zn9	Zn	0.570520	0.061917	-0.054579
O10	O	0.566118	0.132328	0.041540
C11	C	0.482107	0.066108	0.000059
C12	C	0.428453	0.065552	0.000051
C13	C	0.574717	-0.026481	0.000085
C14	C	0.574174	-0.080138	0.000090
C15	C	0.051389	0.017584	0.000087
C16	C	0.253049	0.019630	0.000074
O17	O	0.284309	-0.017592	0.000099
N18	N	0.272168	0.063966	0.000064
C19	C	0.240869	0.107793	0.000062
O20	O	0.261758	0.145549	0.000058
C21	C	0.039210	0.105746	0.000078
C22	C	0.020094	0.061407	0.000083
C23	C	0.032272	-0.026751	0.000092
C24	C	-0.018140	-0.027262	0.000093
C25	C	-0.049435	0.016562	0.000088
C26	C	-0.030318	0.060896	0.000083
C27	C	0.007912	0.149572	0.000079
C28	C	-0.042506	0.149057	0.000085
C29	C	-0.061622	0.104718	0.000089
C30	C	-0.112026	0.104209	0.000080
N31	N	-0.131145	0.059873	0.000089
C32	C	-0.099849	0.016050	0.000093
C33	C	0.346743	0.108864	0.000052
C34	C	0.397158	0.109376	0.000047
C35	C	0.409334	0.021213	0.000060
C36	C	0.358919	0.020702	0.000061
C37	C	0.327624	0.064529	0.000061
C38	C	-0.205719	0.014980	0.000094
C39	C	-0.256136	0.014473	0.000093
C40	C	-0.268308	0.102635	0.000082
C41	C	-0.217895	0.103142	0.000081
C42	C	-0.186601	0.059311	0.000089
O43	O	-0.143313	0.141411	0.000061
O44	O	-0.120748	-0.021702	0.000108
C45	C	0.101801	0.018095	0.000087
C46	C	0.120918	0.062430	0.000082
C47	C	0.089623	0.106253	0.000077
C48	C	0.171332	0.062941	0.000077
C49	C	0.202628	0.019118	0.000081
C50	C	0.183508	-0.025218	0.000090
C51	C	0.133096	-0.025729	0.000091
C52	C	0.108742	0.150589	0.000068
C53	C	0.159154	0.151096	0.000067
C54	C	0.190450	0.107273	0.000071
C55	C	0.570767	-0.412860	-0.045156
C56	C	0.568706	-0.614519	-0.045165
O57	O	0.568425	-0.640595	-0.083624
N58	N	0.568442	-0.639730	0.000056
C59	C	0.568691	-0.614523	0.045282
O60	O	0.568414	-0.640592	0.083744
C61	C	0.570748	-0.412865	0.045290
C62	C	0.571017	-0.387657	0.000067
C63	C	0.571035	-0.387653	-0.090376
C64	C	0.571553	-0.337242	-0.090373
C65	C	0.571803	-0.312038	-0.045150
C66	C	0.571535	-0.337246	0.000069
C67	C	0.570993	-0.387658	0.090516
C68	C	0.571506	-0.337240	0.090514
C69	C	0.571775	-0.312032	0.045290
C70	C	0.572302	-0.261631	0.045295
N71	N	0.572566	-0.236420	0.000074
C72	C	0.572316	-0.261624	-0.045148
C73	C	0.567611	-0.720396	0.045274
C74	C	0.567098	-0.770810	0.045272
C75	C	0.567112	-0.770803	-0.045175
C76	C	0.567629	-0.720388	-0.045172
C77	C	0.567875	-0.695185	0.000053
C78	C	0.573404	-0.155757	-0.045139
C79	C	0.573924	-0.105341	-0.045133
C80	C	0.573907	-0.105353	0.045314
C81	C	0.573390	-0.155764	0.045308
C82	C	0.573137	-0.180964	0.000077
O83	O	0.572578	-0.235523	0.083734
O84	O	0.572582	-0.235544	-0.083605
C85	C	0.570249	-0.463272	-0.045159
C86	C	0.569981	-0.488479	0.000061
C87	C	0.570231	-0.463276	0.045284
C88	C	0.569467	-0.538894	0.000059
C89	C	0.569218	-0.564097	-0.045163
C90	C	0.569481	-0.538886	-0.090384
C91	C	0.569999	-0.488475	-0.090381
C92	C	0.569967	-0.488487	0.090504
C93	C	0.569450	-0.538898	0.090498
C94	C	0.569200	-0.564102	0.045275
C95	C	0.658915	0.057740	0.000084
C96	C	0.712569	0.058296	0.000089
C97	C	0.566305	0.150330	0.000058
C98	C	0.566848	0.203986	0.000049
N99	N	0.570492	0.061942	0.129319
N100	N	0.570533	0.061903	-0.129175
C101	C	0.603630	0.028818	0.473955
C102	C	0.603641	0.028811	0.682833
O103	O	0.631796	0.000651	0.709845
N104	N	0.570523	0.061906	0.708946
C105	C	0.537397	0.095004	0.682837
O106	O	0.509225	0.123150	0.709841
C107	C	0.537384	0.095008	0.473960
C108	C	0.570508	0.061914	0.447850
C109	C	0.636751	-0.004274	0.447844
C110	C	0.636749	-0.004270	0.395628
C111	C	0.603627	0.028826	0.369522
C112	C	0.570506	0.061918	0.395633
C113	C	0.504256	0.128103	0.447852
C114	C	0.504255	0.128101	0.395630
C115	C	0.537379	0.095006	0.369519
C116	C	0.537382	0.095018	0.317312
N117	N	0.570501	0.061922	0.291198
C118	C	0.603623	0.028826	0.317303
C119	C	0.537407	0.094999	0.792500
C120	C	0.537411	0.094999	0.844719
C121	C	0.603655	0.028805	0.844711
C122	C	0.603653	0.028808	0.792491
C123	C	0.570526	0.061904	0.766387
C124	C	0.603618	0.028837	0.207645
C125	C	0.603615	0.028846	0.155425
C126	C	0.537370	0.095037	0.155437
C127	C	0.537374	0.095031	0.207653
C128	C	0.570500	0.061927	0.233756
O129	O	0.509239	0.123159	0.290267
O130	O	0.631784	0.000677	0.290290
C131	C	0.603631	0.028814	0.526171
C132	C	0.570510	0.061906	0.552282
C133	C	0.537388	0.095002	0.526177
C134	C	0.570514	0.061906	0.604501
C135	C	0.603637	0.028810	0.630606
C136	C	0.636755	-0.004286	0.604493
C137	C	0.636753	-0.004282	0.552277
C138	C	0.504270	0.128097	0.552290
C139	C	0.504274	0.128091	0.604507
C140	C	0.537397	0.094995	0.630612
H141	H	-0.271697	-0.021635	0.000095
H142	H	0.630625	0.001860	0.771235
O143	O	0.567797	-0.695917	-0.089118
C144	C	0.525801	-0.702470	-0.116634
H145	H	0.496387	-0.712280	-0.090172
H146	H	0.534976	-0.733048	-0.144823
C147	C	0.543391	-0.643020	-0.176860
C148	C	0.507263	-0.655065	-0.144358
H149	H	0.531957	-0.613779	-0.193963
H150	H	0.571686	-0.638606	-0.158323
H151	H	0.551034	-0.668505	-0.200346
H152	H	0.499625	-0.629583	-0.120869
H153	H	0.478967	-0.659473	-0.162892
O154	O	0.472031	0.160269	0.473131
C155	C	0.442807	0.189482	0.438882
H156	H	0.442420	0.169662	0.401660
H157	H	0.458222	0.225287	0.433325
C158	C	0.391059	0.224141	0.504971
C159	C	0.390581	0.199796	0.459256
H160	H	0.358844	0.230506	0.517539
H161	H	0.410749	0.204462	0.528046
H162	H	0.403907	0.253976	0.500334
H163	H	0.377739	0.169959	0.463895
H164	H	0.370888	0.219471	0.436183
H165	H	0.117537	-0.061833	0.000095
H166	H	0.566886	-0.791331	0.082098
H167	H	0.571699	-0.316721	0.127343
H168	H	-0.202330	0.139246	0.000077
O169	O	0.472049	0.160261	0.629790
C170	C	0.442824	0.189477	0.595545
H171	H	0.442437	0.169662	0.558321
H172	H	0.458238	0.225284	0.589993
C173	C	0.391076	0.224128	0.661638
C174	C	0.390598	0.199789	0.615921
H175	H	0.358861	0.230491	0.674207
H176	H	0.410766	0.204446	0.684711
H177	H	0.403923	0.253964	0.657006
H178	H	0.377756	0.169951	0.620555
H179	H	0.370904	0.219466	0.592849
H180	H	0.571770	-0.316722	-0.127199
O181	O	0.573112	-0.180177	0.089281
C182	C	0.573459	-0.147120	0.129196
H183	H	0.558525	-0.109065	0.115936
H184	H	0.612307	-0.147127	0.143108
C185	C	0.559878	-0.209148	0.188201
C186	C	0.541532	-0.162409	0.171916
H187	H	0.540186	-0.218579	0.214554
H188	H	0.559646	-0.231419	0.161310
H189	H	0.592251	-0.209147	0.199791
H190	H	0.509162	-0.162411	0.160321
H191	H	0.541758	-0.140137	0.198806
H192	H	0.573196	-0.176269	-0.081970
H193	H	-0.180245	-0.020712	0.000100
H194	H	0.566909	-0.791332	-0.081997
O195	O	-0.036727	-0.070321	0.000013
C196	C	-0.065535	-0.073263	-0.042943
H197	H	-0.053805	-0.048096	-0.072979
H198	H	-0.105380	-0.061815	-0.033228
C199	C	-0.073429	-0.156849	-0.025523
C200	C	-0.059020	-0.125941	-0.062416
H201	H	-0.069413	-0.189343	-0.037534
H202	H	-0.054023	-0.154866	0.003418
H203	H	-0.106633	-0.147303	-0.017430
H204	H	-0.025816	-0.135483	-0.070504
H205	H	-0.078421	-0.127926	-0.091359
O206	O	0.026536	0.192610	0.000136
C207	C	0.055327	0.195559	0.043102
H208	H	0.068170	0.157367	0.057434
H209	H	0.032895	0.217120	0.073186
C210	C	0.083958	0.268154	0.012434
C211	C	0.099735	0.221245	0.030034
H212	H	0.111350	0.284001	0.004374
H213	H	0.064559	0.266169	-0.016513
H214	H	0.065264	0.286116	0.037507
H215	H	0.118423	0.203283	0.004960
H216	H	0.119138	0.223228	0.058976
O217	O	-0.072925	0.191619	0.000171
C218	C	-0.102460	0.193961	0.043130
H219	H	-0.083814	0.169102	0.073163
H220	H	-0.139034	0.181734	0.033417
C221	C	-0.133407	0.277151	0.025719
C222	C	-0.110504	0.246622	0.062607
H223	H	-0.138371	0.309635	0.037733
H224	H	-0.113510	0.275573	-0.003225
H225	H	-0.163882	0.266956	0.017628
H226	H	-0.080027	0.256814	0.070692
H227	H	-0.130396	0.248203	0.091553
O228	O	0.439671	-0.021402	0.000045
C229	C	0.411993	-0.060649	0.000071
H230	H	0.374269	-0.048101	-0.015637
H231	H	0.408505	-0.074247	0.039875
C232	C	0.483761	-0.117513	-0.013158
C233	C	0.437429	-0.102102	-0.032455
H234	H	0.499452	-0.143084	-0.033220
H235	H	0.502409	-0.091072	-0.013174
H236	H	0.480848	-0.128842	0.020011
H237	H	0.440343	-0.090768	-0.065622
H238	H	0.418782	-0.128542	-0.032446
O239	O	0.062600	-0.069369	0.000072
C240	C	0.034905	-0.108603	0.000091
H241	H	-0.002817	-0.096037	-0.015610
H242	H	0.031418	-0.122210	0.039892
C243	C	0.106654	-0.165489	-0.013160
C244	C	0.060323	-0.150056	-0.032448
H245	H	0.122333	-0.191060	-0.033230
H246	H	0.125312	-0.139056	-0.013171
H247	H	0.103741	-0.176824	0.020007
H248	H	0.063237	-0.138715	-0.065612
H249	H	0.041665	-0.176487	-0.032443
O250	O	0.570650	-0.412172	0.134419
C251	C	0.528456	-0.435521	0.137114
H252	H	0.514441	-0.441158	0.097843
H253	H	0.499319	-0.412020	0.159401
C254	C	0.557870	-0.478233	0.211231
C255	C	0.540659	-0.485160	0.162998
H256	H	0.565396	-0.508852	0.227200
H257	H	0.586296	-0.462501	0.209417
H258	H	0.533586	-0.458648	0.229798
H259	H	0.564945	-0.504740	0.144431
H260	H	0.512237	-0.500897	0.164810
O261	O	0.177741	0.194159	-0.000031
C262	C	0.206547	0.197089	-0.042991
H263	H	0.194816	0.171914	-0.073018
H264	H	0.246393	0.185643	-0.033277
C265	C	0.214443	0.280679	-0.025602
C266	C	0.200032	0.249761	-0.062483
H267	H	0.210427	0.313170	-0.037625
H268	H	0.195038	0.278705	0.003342
H269	H	0.247647	0.271135	-0.017510
H270	H	0.166828	0.259302	-0.070570
H271	H	0.219432	0.251738	-0.091429
O272	O	0.635817	-0.003252	0.233051
C273	C	0.665450	0.022428	0.263245
H274	H	0.645906	0.060384	0.271079
H275	H	0.701143	0.025475	0.243113
C276	C	0.700006	-0.051526	0.303219
C277	C	0.676001	-0.004909	0.312844
H278	H	0.706517	-0.068390	0.333813
H279	H	0.680043	-0.068828	0.282875
H280	H	0.729748	-0.048980	0.286441
H281	H	0.646257	-0.007456	0.329616
H282	H	0.695959	0.012392	0.333192
O283	O	0.213845	-0.067833	0.000072
C284	C	0.186168	-0.107080	0.000093
H285	H	0.148444	-0.094530	-0.015615
H286	H	0.182680	-0.120683	0.039895
C287	C	0.257937	-0.163942	-0.013142
C288	C	0.211605	-0.148529	-0.032438
H289	H	0.273628	-0.189510	-0.033206
H290	H	0.276584	-0.137500	-0.013154
H291	H	0.255024	-0.175274	0.020026
H292	H	0.214518	-0.137191	-0.065603
H293	H	0.192959	-0.174969	-0.032433
H294	H	0.510406	0.121984	0.228913
H295	H	0.477277	0.155051	0.374378
O296	O	0.078366	0.193175	-0.000028
C297	C	0.086998	0.220111	-0.042992
H298	H	0.104417	0.194451	-0.073017
H299	H	0.112470	0.247889	-0.033284
C300	C	0.017092	0.278189	-0.025606
C301	C	0.038483	0.246672	-0.062484
H302	H	-0.012833	0.294575	-0.037628
H303	H	0.011277	0.260042	0.003341
H304	H	0.038323	0.301333	-0.017519
H305	H	0.017255	0.223525	-0.070565
H306	H	0.044293	0.264815	-0.091433
O307	O	0.505177	0.127232	0.130150
C308	C	0.475931	0.156434	0.164390
H309	H	0.495743	0.156850	0.201614
H310	H	0.440147	0.140979	0.169945
C311	C	0.441229	0.208139	0.098286
C312	C	0.465564	0.208653	0.144003
H313	H	0.434832	0.240350	0.085710
H314	H	0.460931	0.188464	0.075217
H315	H	0.411412	0.195257	0.102921
H316	H	0.495383	0.221529	0.139367
H317	H	0.445866	0.228332	0.167071
O318	O	0.570730	-0.412069	-0.134341
C319	C	0.528976	-0.393966	-0.161855
H320	H	0.515381	-0.355436	-0.148990
H321	H	0.499361	-0.418291	-0.155602
C322	C	0.558435	-0.440703	-0.233536
C323	C	0.541740	-0.393378	-0.217738
H324	H	0.566307	-0.440343	-0.268008
H325	H	0.586565	-0.452901	-0.214999
H326	H	0.533753	-0.460969	-0.228321
H327	H	0.566424	-0.373115	-0.222947
H328	H	0.513614	-0.381177	-0.236277
H329	H	0.574144	-0.084820	-0.081961
H330	H	0.412717	0.145480	0.000036
H331	H	0.663726	-0.031230	0.531021
H332	H	0.567814	-0.699881	0.082104
H333	H	0.574113	-0.084823	0.082133
H334	H	0.663720	-0.031220	0.374371
H335	H	0.570218	-0.467956	-0.127207
H336	H	0.663723	-0.031227	0.469095
H337	H	0.343358	-0.015402	0.000065
O338	O	0.635781	-0.003328	0.870152
C339	C	0.628686	0.003780	0.921840
H340	H	0.590119	0.022116	0.928968
H341	H	0.655861	0.027835	0.936657
C342	C	0.683690	-0.068240	0.939899
C343	C	0.636320	-0.045723	0.948655
H344	H	0.688402	-0.098774	0.956441
H345	H	0.688472	-0.073028	0.905076
H346	H	0.706331	-0.048189	0.952247
H347	H	0.613681	-0.065770	0.936301
H348	H	0.631534	-0.040939	0.983476
H349	H	0.663726	-0.031232	0.625757
O350	O	0.569251	-0.563301	-0.134359
C351	C	0.569578	-0.530244	-0.174277
H352	H	0.585263	-0.496426	-0.161027
H353	H	0.530837	-0.519513	-0.188176
C354	C	0.581813	-0.595847	-0.233279
C355	C	0.601082	-0.554313	-0.217006
H356	H	0.601245	-0.610694	-0.259638
H357	H	0.581591	-0.618119	-0.206386
H358	H	0.549530	-0.586899	-0.244859
H359	H	0.633363	-0.563262	-0.205421
H360	H	0.601310	-0.532043	-0.243899
H361	H	-0.293798	0.138315	0.000076
O362	O	0.569101	-0.563345	0.134447
C363	C	0.527346	-0.545217	0.161947
H364	H	0.498227	-0.527313	0.135473
H365	H	0.537109	-0.517258	0.190141
C366	C	0.543647	-0.609355	0.222175
C367	C	0.507881	-0.587370	0.189660
H368	H	0.531641	-0.635356	0.239272
H369	H	0.571779	-0.621568	0.203650
H370	H	0.551779	-0.586051	0.245666
H371	H	0.499754	-0.610672	0.166166
H372	H	0.479746	-0.575162	0.208183
O373	O	0.570278	-0.463964	0.134404
C374	C	0.612465	-0.440606	0.137123
H375	H	0.626508	-0.434977	0.097862
H376	H	0.641589	-0.464095	0.159438
C377	C	0.582987	-0.397876	0.211208
C378	C	0.600233	-0.390959	0.162985
H379	H	0.575443	-0.367253	0.227163
H380	H	0.554566	-0.413614	0.209377
H381	H	0.607260	-0.417452	0.229797
H382	H	0.575958	-0.371389	0.144395
H383	H	0.628650	-0.375217	0.164814
H384	H	0.321266	0.144555	0.000051
O385	O	0.505172	0.127103	0.870058
C386	C	0.457385	0.119576	0.857289
H387	H	0.457449	0.080873	0.842937
H388	H	0.442981	0.146465	0.826975
C389	C	0.424477	0.174848	0.921302
C390	C	0.424555	0.127311	0.903679
H391	H	0.404225	0.179622	0.949917
H392	H	0.456671	0.179921	0.929904
H393	H	0.412475	0.197250	0.896037
H394	H	0.436562	0.104910	0.928942
H395	H	0.392361	0.122235	0.895083
O396	O	0.635810	-0.003352	0.130138
C397	C	0.665051	-0.032556	0.164382
H398	H	0.645237	-0.032967	0.201605
H399	H	0.700837	-0.017105	0.169935
C400	C	0.699751	-0.084267	0.098284
C401	C	0.675414	-0.084776	0.144001
H402	H	0.706146	-0.116479	0.085712
H403	H	0.680053	-0.064591	0.075213
H404	H	0.729570	-0.071389	0.102918
H405	H	0.645593	-0.097648	0.139365
H406	H	0.695107	-0.104455	0.167071
H407	H	0.477297	0.155048	0.531039
H408	H	0.510430	0.121951	0.771250
