data_functionalizedCrystal
_audit_creation_method	'MofGen! by Chris Wilmer'
_symmetry_space_group_name_H-M	'P1'
_symmetry_Int_Tables_number	1
_symmetry_cell_setting	triclinic
loop_
_symmetry_equiv_pos_as_xyz
  x,y,z
_cell_length_a	17.038272
_cell_length_b	17.019294
_cell_length_c	14.586319
_cell_angle_alpha	93.879158
_cell_angle_beta	90.000471
_cell_angle_gamma	87.244363
loop_
_atom_site_label
_atom_site_type_symbol
_atom_site_fract_x
_atom_site_fract_y
_atom_site_fract_z
O1	O	1.037223	0.171280	0.089646
O2	O	1.537223	0.671280	0.589646
O3	O	0.809595	0.168561	0.089458
O4	O	1.309595	0.668561	0.589458
O5	O	0.929758	0.055515	0.080515
O6	O	1.429758	0.555515	0.580515
O7	O	0.917059	0.284327	0.098589
O8	O	1.417059	0.784327	0.598589
O9	O	0.929744	0.055521	-0.071966
O10	O	1.429744	0.555521	0.428034
O11	O	0.809580	0.168567	-0.063022
O12	O	1.309580	0.668567	0.436978
O13	O	1.037208	0.171287	-0.062835
O14	O	1.537208	0.671287	0.437165
Cu15	Cu	0.923393	0.169927	-0.076851
Cu16	Cu	1.423393	0.669927	0.423149
Cu17	Cu	0.923410	0.169920	0.103474
Cu18	Cu	1.423410	0.669920	0.603474
O19	O	0.917044	0.284333	-0.053891
O20	O	1.417044	0.784333	0.446109
C21	C	0.780461	0.166090	0.013026
C22	C	1.280461	0.666090	0.513026
C23	C	0.693674	0.158710	0.012453
C24	C	1.193674	0.658710	0.512453
C25	C	0.929269	0.026096	0.001953
C26	C	1.429269	0.526096	0.501953
C27	C	0.927825	-0.061571	-0.004966
C28	C	1.427825	0.438429	0.495034
C29	C	0.643502	0.226470	0.017805
C30	C	1.143502	0.726470	0.517805
C31	C	0.561958	0.219530	0.017244
C32	C	1.061958	0.719530	0.517244
C33	C	0.530587	0.144830	0.011338
C34	C	1.030587	0.644830	0.511338
C35	C	0.580765	0.077065	0.005983
C36	C	1.080765	0.577065	0.505983
C37	C	0.662308	0.084005	0.006538
C38	C	1.162308	0.584005	0.506538
C39	C	0.284850	0.120313	0.009377
C40	C	0.784850	0.620313	0.509377
C41	C	0.203300	0.113378	0.008826
C42	C	0.703300	0.613378	0.508826
C43	C	0.184499	0.255843	0.020085
C44	C	0.684499	0.755843	0.520085
C45	C	0.266044	0.262777	0.020645
C46	C	0.766044	0.762777	0.520645
C47	C	0.316215	0.195012	0.015285
C48	C	0.816215	0.695012	0.515285
C49	C	0.447235	0.137736	0.010768
C50	C	0.947235	0.637736	0.510768
C51	C	0.399565	0.202107	0.015849
C52	C	0.899565	0.702107	0.515849
C53	C	0.927156	-0.102756	0.074900
C54	C	1.427156	0.397244	0.574900
C55	C	0.925793	-0.185128	0.068397
C56	C	1.425793	0.314872	0.568397
C57	C	0.925105	-0.226314	-0.017974
C58	C	1.425105	0.273686	0.482026
C59	C	0.925772	-0.185123	-0.097846
C60	C	1.425772	0.314877	0.402154
C61	C	0.927129	-0.102752	-0.091341
C62	C	1.427129	0.397248	0.408659
C63	C	0.921002	-0.475020	-0.041771
C64	C	1.421002	0.024980	0.458229
C65	C	0.919647	-0.557397	-0.048269
C66	C	1.419647	-0.057397	0.451731
C67	C	0.919667	-0.557396	0.117974
C68	C	1.419667	-0.057396	0.617974
C69	C	0.921029	-0.475024	0.124471
C70	C	1.421029	0.024976	0.624471
C71	C	0.921691	-0.433840	0.044599
C72	C	1.421691	0.066160	0.544599
C73	C	0.923715	-0.310511	-0.024623
C74	C	1.423715	0.189489	0.475377
C75	C	0.923076	-0.349644	0.051249
C76	C	1.423076	0.150356	0.551249
C77	C	1.066342	0.173757	0.013599
C78	C	1.566342	0.673757	0.513599
C79	C	1.153128	0.181138	0.014178
C80	C	1.653128	0.681138	0.514178
C81	C	0.917533	0.313751	0.024673
C82	C	1.417533	0.813751	0.524673
C83	C	0.918978	0.401418	0.031597
C84	C	1.418978	0.901418	0.531597
N85	N	0.923386	0.169932	-0.203683
N86	N	1.423386	0.669932	0.296317
C87	C	0.970760	0.220971	-0.434663
C88	C	1.470760	0.720971	0.065337
C89	C	0.970768	0.220966	-0.530645
C90	C	1.470768	0.720966	-0.030645
C91	C	0.876047	0.118865	-0.538708
C92	C	1.376047	0.618865	-0.038708
C93	C	0.876044	0.118866	-0.442728
C94	C	1.376044	0.618866	0.057272
C95	C	0.923399	0.169924	-0.390708
C96	C	1.423399	0.669924	0.109292
C97	C	0.923410	0.169917	-0.582669
C98	C	1.423410	0.669917	-0.082669
C99	C	0.923419	0.169912	-0.686737
C100	C	1.423419	0.669912	-0.186737
C101	C	0.923391	0.169929	-0.286634
C102	C	1.423391	0.669929	0.213366
N103	N	0.923423	0.169909	0.230305
N104	N	1.423423	0.669909	0.730305
H105	H	0.669038	0.287298	0.022615
H106	H	1.169038	0.787298	0.522615
Cl107	Cl	1.030298	0.285151	-0.369270
Cl108	Cl	1.530298	0.785151	0.130730
Cl109	Cl	0.816513	0.054688	-0.604110
Cl110	Cl	1.316513	0.554688	-0.104110
H111	H	0.837476	0.077294	-0.406939
H112	H	1.337476	0.577294	0.093061
Cl113	Cl	0.121422	0.341028	0.026819
Cl114	Cl	0.621422	0.841028	0.526819
Cl115	Cl	0.924953	-0.236900	0.168805
Cl116	Cl	1.424953	0.263100	0.668805
H117	H	0.421684	0.076914	0.005933
H118	H	0.921684	0.576914	0.505933
Cl119	Cl	0.918787	-0.609173	-0.156857
Cl120	Cl	1.418787	-0.109173	0.343143
Cl121	Cl	0.498887	0.304719	0.023978
Cl122	Cl	0.998887	0.804719	0.523978
H123	H	0.921590	-0.441496	0.194803
H124	H	1.421590	0.058504	0.694803
Cl125	Cl	0.928026	-0.050987	0.183486
Cl126	Cl	1.428026	0.449013	0.683486
H127	H	0.919126	-0.590937	0.183001
H128	H	1.419126	-0.090937	0.683001
H129	H	1.009335	0.262533	-0.566429
H130	H	1.509335	0.762533	-0.066429
H131	H	0.291580	0.323605	0.025465
H132	H	0.791580	0.823605	0.525465
Cl133	Cl	0.163864	0.019462	0.001380
Cl134	Cl	0.663864	0.519462	0.501380
H135	H	0.425111	0.262928	0.020653
H136	H	0.925111	0.762928	0.520653
H137	H	0.921557	-0.441499	-0.106809
H138	H	1.421557	0.058501	0.393191
Cl139	Cl	0.924897	-0.236899	-0.206427
Cl140	Cl	1.424897	0.263101	0.293573
Cl141	Cl	0.927968	-0.050976	-0.191749
Cl142	Cl	1.427968	0.449024	0.308251
H143	H	0.923157	-0.344054	-0.094946
H144	H	1.423157	0.155946	0.405054
Cl145	Cl	0.347912	0.035121	0.002640
Cl146	Cl	0.847912	0.535121	0.502640
Cl147	Cl	0.725382	-0.001182	-0.000195
Cl148	Cl	1.225382	0.498818	0.499805
Cl149	Cl	0.541327	-0.016844	-0.001447
Cl150	Cl	1.041327	0.483156	0.498553
H151	H	0.923631	-0.316106	0.121572
H152	H	1.423631	0.183894	0.621572
