data_functionalizedCrystal
_audit_creation_method	'MofGen! by Chris Wilmer'
_symmetry_space_group_name_H-M	'P1'
_symmetry_Int_Tables_number	1
_symmetry_cell_setting	triclinic
loop_
_symmetry_equiv_pos_as_xyz
  x,y,z
_cell_length_a	19.288864
_cell_length_b	17.666332
_cell_length_c	19.288865
_cell_angle_alpha	89.990209
_cell_angle_beta	96.863755
_cell_angle_gamma	90.019670
loop_
_atom_site_label
_atom_site_type_symbol
_atom_site_fract_x
_atom_site_fract_y
_atom_site_fract_z
O1	O	0.921350	0.063200	-0.086647
O2	O	1.421350	0.563200	0.413353
O3	O	0.719089	0.063149	-0.098336
O4	O	1.219089	0.563149	0.401664
O5	O	0.826064	0.063161	0.008639
O6	O	1.326064	0.563161	0.508639
O7	O	0.814375	0.063188	-0.193622
O8	O	1.314375	0.563188	0.306378
O9	O	0.826052	-0.062736	0.008641
O10	O	1.326052	0.437264	0.508641
O11	O	0.719077	-0.062748	-0.098333
O12	O	1.219077	0.437252	0.401667
O13	O	0.921338	-0.062697	-0.086645
O14	O	1.421338	0.437303	0.413355
Cu15	Cu	0.820206	-0.074218	-0.092489
Cu16	Cu	1.320206	0.425782	0.407511
Cu17	Cu	0.820220	0.074670	-0.092492
Cu18	Cu	1.320220	0.574670	0.407508
O19	O	0.814363	-0.062709	-0.193619
O20	O	1.314363	0.437291	0.306381
C21	C	0.693207	0.000194	-0.097959
C22	C	1.193207	0.500194	0.402041
C23	C	0.616103	0.000174	-0.096830
C24	C	1.116103	0.500174	0.403170
C25	C	0.571407	0.000194	-0.159598
C26	C	1.071407	0.500194	0.340402
C27	C	0.498960	0.000203	-0.158537
C28	C	0.998960	0.500203	0.341463
C29	C	0.471212	0.000206	-0.094705
C30	C	0.971212	0.500206	0.405295
C31	C	0.515918	0.000181	-0.031929
C32	C	1.015918	0.500181	0.468071
C33	C	0.588364	0.000165	-0.032991
C34	C	1.088364	0.500165	0.467009
C35	C	0.362954	0.044332	-0.044526
C36	C	0.862954	0.544332	0.455474
C37	C	0.290510	0.044352	-0.043467
C38	C	0.790510	0.544352	0.456533
C39	C	0.247767	0.000251	-0.091425
C40	C	0.747767	0.500251	0.408575
C41	C	0.277475	-0.043861	-0.140455
C42	C	0.777475	0.456139	0.359545
C43	C	0.349921	-0.043877	-0.141518
C44	C	0.849921	0.456123	0.358482
C45	C	0.392658	0.000222	-0.093546
C46	C	0.892658	0.500222	0.406454
C47	C	0.124514	0.000279	-0.153047
C48	C	0.624514	0.500279	0.346953
C49	C	0.052066	0.000283	-0.151984
C50	C	0.552066	0.500283	0.348016
C51	C	0.069026	0.000269	-0.025374
C52	C	0.569026	0.500269	0.474626
C53	C	0.141473	0.000258	-0.026439
C54	C	0.641473	0.500258	0.473561
C55	C	0.169212	0.000267	-0.090278
C56	C	0.669212	0.500267	0.409722
N57	N	0.820201	-0.178937	-0.092486
N58	N	1.320201	0.321063	0.407514
C59	C	0.867600	-0.780982	-0.045134
C60	C	1.367600	-0.280982	0.454866
C61	C	0.867602	-0.701734	-0.045135
C62	C	1.367602	-0.201734	0.454865
C63	C	0.820221	-0.662119	-0.092486
C64	C	1.320221	-0.162119	0.407514
C65	C	0.772848	-0.701757	-0.139850
C66	C	1.272848	-0.201757	0.360150
C67	C	0.772853	-0.781003	-0.139852
C68	C	1.272853	-0.281003	0.360148
N69	N	0.758728	-0.537721	-0.101492
N70	N	1.258728	-0.037721	0.398508
N71	N	0.758726	-0.462440	-0.101486
N72	N	1.258726	0.037560	0.398514
C73	C	0.820205	-0.423355	-0.092484
C74	C	1.320205	0.076645	0.407516
N75	N	0.881688	-0.462393	-0.083475
N76	N	1.381688	0.037607	0.416525
N77	N	0.881690	-0.537681	-0.083477
N78	N	1.381690	-0.037681	0.416523
C79	C	0.820211	-0.576190	-0.092489
C80	C	1.320211	-0.076190	0.407511
C81	C	0.867579	-0.297797	-0.045128
C82	C	1.367579	0.202203	0.454872
C83	C	0.867582	-0.218547	-0.045135
C84	C	1.367582	0.281453	0.454865
C85	C	0.772822	-0.218572	-0.139846
C86	C	1.272822	0.281428	0.360154
C87	C	0.772826	-0.297819	-0.139843
C88	C	1.272826	0.202181	0.360157
C89	C	0.820204	-0.337427	-0.092480
C90	C	1.320204	0.162573	0.407520
C91	C	0.947220	0.000260	-0.087022
C92	C	1.447220	0.500260	0.412978
C93	C	1.024324	0.000285	-0.088151
C94	C	1.524324	0.500285	0.411849
C95	C	0.825682	0.000210	0.034516
C96	C	1.325682	0.500210	0.534516
C97	C	0.824553	0.000203	0.111620
C98	C	1.324553	0.500203	0.611620
N99	N	0.820231	0.179389	-0.092489
N100	N	1.320231	0.679389	0.407511
C101	C	0.814745	0.000244	-0.219497
C102	C	1.314745	0.500244	0.280503
C103	C	0.815874	0.000255	-0.296601
C104	C	1.315874	0.500255	0.203399
C105	C	0.887321	0.000215	0.156316
C106	C	1.387321	0.500215	0.656316
C107	C	0.886260	0.000227	0.228763
C108	C	1.386260	0.500227	0.728763
C109	C	0.822428	0.000211	0.256511
C110	C	1.322428	0.500211	0.756511
C111	C	0.759652	0.000204	0.211805
C112	C	1.259652	0.500204	0.711805
C113	C	0.760714	0.000200	0.139359
C114	C	1.260714	0.500200	0.639359
C115	C	0.772244	-0.043900	0.364799
C116	C	1.272244	0.456100	0.864799
C117	C	0.771184	-0.043901	0.437244
C118	C	1.271184	0.456099	0.937244
C119	C	0.819148	0.000228	0.479956
C120	C	1.319148	0.500228	0.979956
C121	C	0.868184	0.044346	0.450217
C122	C	1.368184	0.544346	0.950217
C123	C	0.869246	0.044342	0.377772
C124	C	1.369246	0.544342	0.877772
C125	C	0.821269	0.000216	0.335065
C126	C	1.321269	0.500216	0.835065
C127	C	0.880770	0.000253	0.603209
C128	C	1.380770	0.500253	1.103209
C129	C	0.879707	0.000270	0.675657
C130	C	1.379707	0.500270	1.175657
C131	C	0.753097	0.000239	0.658697
C132	C	1.253097	0.500239	1.158697
C133	C	0.754162	0.000230	0.586250
C134	C	1.254162	0.500230	1.086250
C135	C	0.818000	0.000234	0.558511
C136	C	1.318000	0.500234	1.058511
H137	H	0.374106	-0.079796	-0.181438
H138	H	0.874106	0.420204	0.318562
N139	N	0.686464	0.000208	0.538033
N140	N	1.186464	0.500208	1.038033
H141	H	0.658607	0.046871	0.546923
H142	H	1.158607	0.546871	1.046923
H143	H	0.658655	-0.046499	0.546965
H144	H	1.158655	0.453501	1.046965
N145	N	0.231384	-0.091427	-0.192191
N146	N	0.731384	0.408573	0.307809
H147	H	0.180983	-0.084728	-0.184078
H148	H	0.680983	0.415272	0.315922
H149	H	0.244893	-0.146446	-0.185883
H150	H	0.744893	0.353554	0.314117
N151	N	0.918710	-0.823699	0.005939
N152	N	1.418710	-0.323699	0.505939
H153	H	0.911528	-0.879915	-0.001247
H154	H	1.411528	-0.379915	0.498753
H155	H	0.910841	-0.809863	0.055195
H156	H	1.410841	-0.309863	0.555195
N157	N	0.718307	-0.091493	0.469318
N158	N	1.218307	0.408507	0.969318
H159	H	0.688079	-0.119443	0.431268
H160	H	1.188079	0.380557	0.931268
H161	H	0.688088	-0.057669	0.495385
H162	H	1.188088	0.442331	0.995385
H163	H	0.909171	0.080267	0.353561
H164	H	1.409171	0.580267	0.853561
N165	N	0.918687	-0.340515	0.005948
N166	N	1.418687	0.159485	0.505948
H167	H	0.949356	-0.373377	-0.020516
H168	H	1.449356	0.126623	0.479484
H169	H	0.892197	-0.373366	0.036626
H170	H	1.392197	0.126634	0.536626
N171	N	0.953962	0.000241	0.276984
N172	N	1.453962	0.500241	0.776984
H173	H	0.994563	0.000245	0.248418
H174	H	1.494563	0.500245	0.748418
H175	H	0.956267	-0.046429	0.307418
H176	H	1.456267	0.453571	0.807418
N177	N	0.154442	0.000275	-0.221896
N178	N	0.654442	0.500275	0.278104
H179	H	0.184142	0.046941	-0.225162
H180	H	0.684142	0.546941	0.274838
H181	H	0.115094	0.000254	-0.261460
H182	H	0.615094	0.500254	0.238540
H183	H	0.939303	0.000221	0.133736
H184	H	1.439303	0.500221	0.633736
N185	N	0.039107	0.000275	0.043474
N186	N	0.539107	0.500275	0.543474
H187	H	0.078419	0.000263	0.083078
H188	H	0.578419	0.500263	0.583078
H189	H	0.009397	-0.046391	0.046673
H190	H	0.509397	0.453609	0.546673
N191	N	0.721751	-0.823747	-0.190925
N192	N	1.221751	-0.323747	0.309075
H193	H	0.691086	-0.856642	-0.164457
H194	H	1.191086	-0.356642	0.335543
H195	H	0.748246	-0.856568	-0.221599
H196	H	1.248246	-0.356568	0.278401
N197	N	0.918674	-0.658982	0.005965
N198	N	1.418674	-0.158982	0.505965
H199	H	0.911475	-0.602770	-0.001216
H200	H	1.411475	-0.102770	0.498784
H201	H	0.967932	-0.672795	-0.001908
H202	H	1.467932	-0.172795	0.498092
H203	H	0.177866	0.000245	0.024674
H204	H	0.677866	0.500245	0.524674
N205	N	0.003834	0.000296	-0.219674
N206	N	0.503834	0.500296	0.280326
H207	H	-0.026616	-0.046373	-0.222038
H208	H	0.473384	0.453627	0.277962
H209	H	0.032432	0.000325	-0.260249
H210	H	0.532432	0.500325	0.239751
N211	N	0.918680	-0.175801	0.005940
N212	N	1.418680	0.324199	0.505940
H213	H	0.948691	-0.212920	0.035942
H214	H	1.448691	0.287080	0.535942
H215	H	0.892182	-0.142936	0.036575
H216	H	1.392182	0.357064	0.536575
N217	N	0.720505	-0.091494	0.318732
N218	N	1.220505	0.408506	0.818732
H219	H	0.689285	-0.119445	0.348563
H220	H	1.189285	0.380555	0.848563
H221	H	0.746501	-0.129163	0.292104
H222	H	1.246501	0.370837	0.792104
H223	H	0.707679	0.000193	0.234401
H224	H	1.207679	0.500193	0.734401
H225	H	0.930822	0.000284	0.712049
H226	H	1.430822	0.500284	1.212049
H227	H	0.734250	-0.330087	-0.178401
H228	H	1.234250	0.169913	0.321599
H229	H	0.397751	0.080249	-0.005471
H230	H	0.897751	0.580249	0.494529
N231	N	0.601326	0.000209	-0.228449
N232	N	1.101326	0.500209	0.271551
H233	H	0.562013	0.000225	-0.268051
H234	H	1.062013	0.500225	0.231949
H235	H	0.630993	-0.046466	-0.231654
H236	H	1.130993	0.453534	0.268346
N237	N	0.919924	0.091944	0.496275
N238	N	1.419924	0.591944	0.996275
H239	H	0.911810	0.085257	0.546681
H240	H	1.411810	0.585257	1.046681
H241	H	0.913621	0.146957	0.482728
H242	H	1.413621	0.646957	0.982728
N243	N	0.693012	0.000187	0.091146
N244	N	1.193012	0.500187	0.591146
H245	H	0.652411	0.000182	0.119713
H246	H	1.152411	0.500182	0.619713
H247	H	0.690690	-0.046488	0.060729
H248	H	1.190690	0.453512	0.560729
N249	N	0.949620	0.000259	0.573283
N250	N	1.449620	0.500259	1.073283
H251	H	0.977117	0.046937	0.589581
H252	H	1.477117	0.546937	1.089581
H253	H	0.940707	0.000218	0.520611
H254	H	1.440707	0.500218	1.020611
N255	N	0.450739	0.000226	-0.226239
N256	N	0.950739	0.500226	0.273761
H257	H	0.479305	0.000229	-0.266840
H258	H	0.979305	0.500229	0.233160
H259	H	0.420338	0.046907	-0.228548
H260	H	0.920338	0.546907	0.271452
H261	H	0.266327	0.080274	-0.003546
H262	H	0.766327	0.580274	0.496454
N263	N	0.485996	0.000176	0.036920
N264	N	0.985996	0.500176	0.536920
H265	H	0.433319	0.000189	0.028069
H266	H	0.933319	0.500189	0.528069
H267	H	0.502385	0.046838	0.064381
H268	H	1.002385	0.546838	0.564381
N269	N	0.636577	0.000140	0.034711
N270	N	1.136577	0.500140	0.534711
H271	H	0.608010	0.000139	0.075312
H272	H	1.108010	0.500139	0.575312
H273	H	0.667027	0.046805	0.037029
H274	H	1.167027	0.546805	0.537029
H275	H	0.701123	0.000230	0.681288
H276	H	1.201123	0.500230	1.181288
N277	N	0.721746	-0.659034	-0.190924
N278	N	1.221746	-0.159034	0.309076
H279	H	0.728929	-0.602818	-0.183736
H280	H	1.228929	-0.102818	0.316264
H281	H	0.672500	-0.672912	-0.183028
H282	H	1.172500	-0.172912	0.316972
H283	H	0.734247	-0.186317	-0.178402
H284	H	1.234247	0.313683	0.321598
