data_functionalizedCrystal
_audit_creation_method	'MofGen! by Chris Wilmer'
_symmetry_space_group_name_H-M	'P1'
_symmetry_Int_Tables_number	1
_symmetry_cell_setting	triclinic
loop_
_symmetry_equiv_pos_as_xyz
  x,y,z
_cell_length_a	16.625548
_cell_length_b	12.759400
_cell_length_c	12.759393
_cell_angle_alpha	89.968436
_cell_angle_beta	90.021668
_cell_angle_gamma	89.984247
loop_
_atom_site_label
_atom_site_type_symbol
_atom_site_fract_x
_atom_site_fract_y
_atom_site_fract_z
Zn1	Zn	1.232733	0.418174	0.594070
Zn2	Zn	1.232652	0.593893	0.418390
Zn3	Zn	1.097892	0.418232	0.418400
Zn4	Zn	1.097883	0.593815	0.594022
O5	O	1.165290	0.506029	0.506221
O6	O	1.345554	0.441492	0.570782
O7	O	1.214745	0.570648	0.271371
O8	O	1.115817	0.271203	0.441727
O9	O	1.345495	0.570592	0.441711
O10	O	1.214883	0.271161	0.570791
O11	O	1.115738	0.441591	0.271378
O12	O	0.985059	0.441515	0.441680
O13	O	1.115802	0.570459	0.741050
O14	O	0.985052	0.570515	0.570709
O15	O	1.214875	0.441417	0.741085
O16	O	1.214737	0.740904	0.441664
O17	O	1.115723	0.740847	0.570700
C18	C	1.165242	0.778996	0.506199
C19	C	1.165295	0.895773	0.506225
C20	C	0.955799	0.506014	0.506191
C21	C	0.866178	0.506033	0.506204
C22	C	1.165346	0.505923	0.780254
C23	C	1.165371	0.505878	0.897031
C24	C	0.538002	0.506039	0.506249
C25	C	0.629311	0.506035	0.506233
C26	C	0.702087	0.506037	0.506225
C27	C	0.793402	0.506031	0.506211
C28	C	1.375599	0.506045	0.506251
C29	C	1.465220	0.506051	0.506264
C30	C	1.165360	0.231995	0.506266
C31	C	1.165390	0.115219	0.506285
C32	C	1.216909	0.950630	0.439110
C33	C	1.216959	1.060354	0.439142
C34	C	1.113774	1.060354	0.573407
C35	C	1.113729	0.950632	0.573379
C36	C	1.276480	0.950630	0.361590
C37	C	1.276529	1.060354	0.361622
C38	C	1.165280	0.506058	0.233253
C39	C	1.165412	0.505808	0.116477
C40	C	1.216965	0.438679	0.951913
C41	C	1.216984	0.438641	1.061637
C42	C	1.113812	0.573010	1.061587
C43	C	1.113789	0.573041	0.951865
C44	C	1.276533	0.361105	0.951943
C45	C	1.276552	0.361067	1.061667
H46	H	1.071791	1.105034	0.628083
C47	C	1.253992	1.100697	0.251683
C48	C	1.179091	1.170183	0.236898
C49	C	1.156555	1.210521	0.126962
C50	C	1.208921	1.181373	0.031810
C51	C	1.283827	1.111883	0.046592
C52	C	1.306363	1.071546	0.156528
H53	H	1.140322	1.191764	0.307338
H54	H	1.101104	1.261962	0.116021
H55	H	1.192239	1.211233	-0.049571
H56	H	1.322596	1.090303	-0.023848
H57	H	1.361814	1.020105	0.167470
H58	H	1.339001	0.382858	1.091450
H59	H	1.071815	0.627690	1.106247
H60	H	1.259827	0.279741	0.922186
C61	C	1.360810	0.910281	0.391122
C62	C	1.377107	0.791601	0.396811
C63	C	1.461434	0.751251	0.426344
C64	C	1.529464	0.829581	0.450187
C65	C	1.513169	0.948269	0.444498
C66	C	1.428842	0.988619	0.414966
H67	H	1.326745	0.733609	0.379161
H68	H	1.473496	0.663390	0.430555
H69	H	1.591888	0.799712	0.472048
H70	H	1.563530	1.006260	0.462149
H71	H	1.416779	1.076479	0.410755
H72	H	1.071773	0.627757	0.907184
C73	C	1.356674	1.106217	0.401088
C74	C	1.407006	1.177533	0.329125
C75	C	1.487149	1.223396	0.368591
C76	C	1.516960	1.197944	0.480020
C77	C	1.466627	1.126625	0.551989
C78	C	1.386485	1.080762	0.512523
H79	H	1.384939	1.196377	0.246632
H80	H	1.524408	1.276191	0.315313
H81	H	1.576286	1.231894	0.509235
H82	H	1.488694	1.107780	0.634482
H83	H	1.349225	1.027967	0.565801
C84	C	1.356647	0.400496	0.905956
C85	C	1.425318	0.434219	0.979597
C86	C	1.505431	0.473614	0.933610
C87	C	1.516872	0.479286	0.813981
C88	C	1.448199	0.445562	0.740333
C89	C	1.368087	0.406167	0.786321
H90	H	1.416850	0.430022	1.068160
H91	H	1.556267	0.498579	0.988130
H92	H	1.576177	0.508448	0.779939
H93	H	1.456667	0.449759	0.651770
H94	H	1.317250	0.381203	0.731801
H95	H	1.254127	0.916684	0.284262
H96	H	1.071709	0.905968	0.628039
H97	H	1.254209	0.283758	1.095713
