data_functionalizedCrystal
_audit_creation_method	'MofGen! by Chris Wilmer'
_symmetry_space_group_name_H-M	'P1'
_symmetry_Int_Tables_number	1
_symmetry_cell_setting	triclinic
loop_
_symmetry_equiv_pos_as_xyz
  x,y,z
_cell_length_a	13.897449
_cell_length_b	12.759400
_cell_length_c	12.759393
_cell_angle_alpha	90.025504
_cell_angle_beta	89.976287
_cell_angle_gamma	89.997846
loop_
_atom_site_label
_atom_site_type_symbol
_atom_site_fract_x
_atom_site_fract_y
_atom_site_fract_z
Zn1	Zn	-1.474814	-0.418220	0.594134
Zn2	Zn	-1.141480	-0.084887	0.927468
Zn3	Zn	-0.808147	0.248447	1.260801
Zn4	Zn	-1.474749	-0.593936	0.418470
Zn5	Zn	-1.141415	-0.260602	0.751803
Zn6	Zn	-0.808082	0.072731	1.085136
Zn7	Zn	-1.313501	-0.418271	0.418461
Zn8	Zn	-0.980167	-0.084937	0.751794
Zn9	Zn	-0.646834	0.248396	1.085128
Zn10	Zn	-1.313528	-0.593857	0.594099
Zn11	Zn	-0.980195	-0.260524	0.927432
Zn12	Zn	-0.646861	0.072810	1.260765
O13	O	-1.394148	-0.506071	0.506291
O14	O	-1.060814	-0.172738	0.839624
O15	O	-0.727481	0.160596	1.172958
O16	O	-1.609787	-0.441541	0.570851
O17	O	-1.276453	-0.108207	0.904184
O18	O	-0.943120	0.225126	1.237517
O19	O	-1.453320	-0.570687	0.271448
O20	O	-1.119987	-0.237354	0.604781
O21	O	-0.786653	0.095979	0.938114
O22	O	-1.334915	-0.271243	0.441776
O23	O	-1.001582	0.062090	0.775109
O24	O	-0.668248	0.395424	1.108442
O25	O	-1.609739	-0.570638	0.441791
O26	O	-1.276406	-0.237305	0.775124
O27	O	-0.943072	0.096028	1.108457
O28	O	-1.453431	-0.271206	0.570842
O29	O	-1.120098	0.062128	0.904176
O30	O	-0.786764	0.395461	1.237509
O31	O	-1.334852	-0.441627	0.271441
O32	O	-1.001518	-0.108294	0.604774
O33	O	-0.668185	0.225039	0.938108
O34	O	-1.178523	-0.441551	0.441741
O35	O	-0.845189	-0.108218	0.775074
O36	O	-0.511856	0.225116	1.108408
O37	O	-1.334962	-0.570504	0.741124
O38	O	-1.001628	-0.237171	1.074458
O39	O	-0.668295	0.096162	1.407791
O40	O	-1.178543	-0.570553	0.570781
O41	O	-0.845209	-0.237220	0.904114
O42	O	-0.511876	0.096113	1.237448
O43	O	-1.453458	-0.441465	0.741151
O44	O	-1.120124	-0.108131	1.074484
O45	O	-0.786791	0.225202	1.407817
O46	O	-1.453347	-0.740946	0.441756
O47	O	-1.120013	-0.407613	0.775089
O48	O	-0.786680	-0.074280	1.108423
O49	O	-1.334898	-0.740888	0.570790
O50	O	-1.001565	-0.407555	0.904123
O51	O	-0.668232	-0.074222	1.237456
C52	C	-1.143533	-0.506050	0.506257
C53	C	-0.810200	-0.172717	0.839590
C54	C	-0.476867	0.160617	1.172924
C55	C	-1.036319	-0.506066	0.506267
C56	C	-0.702986	-0.172733	0.839601
C57	C	-0.369653	0.160600	1.172934
C58	C	-1.394145	-0.779038	0.506293
C59	C	-1.060811	-0.445705	0.839626
C60	C	-0.727478	-0.112372	1.172959
C61	C	-1.394231	-0.895815	0.506329
C62	C	-1.060898	-0.562481	0.839662
C63	C	-0.727565	-0.229148	1.172995
C64	C	-1.394220	-0.505970	0.780324
C65	C	-1.060887	-0.172637	1.113658
C66	C	-0.727553	0.160697	1.446991
C67	C	-1.394251	-0.505927	0.897101
C68	C	-1.060917	-0.172594	1.230434
C69	C	-0.727584	0.160740	1.563768
C70	C	-0.840024	-0.506065	0.506287
C71	C	-0.506691	-0.172731	0.839620
C72	C	-0.173358	0.160602	1.172953
C73	C	-0.949257	-0.506062	0.506273
C74	C	-0.615924	-0.172729	0.839606
C75	C	-0.282590	0.160604	1.172940
C76	C	-0.645741	-0.506086	0.506316
C77	C	-0.312407	-0.172752	0.839649
C78	C	0.020926	0.160581	1.172982
C79	C	-0.752955	-0.506074	0.506300
C80	C	-0.419621	-0.172741	0.839634
C81	C	-0.086288	0.160592	1.172967
C82	C	-1.394177	-0.232038	0.506312
C83	C	-1.060844	0.101296	0.839645
C84	C	-0.727510	0.434629	1.172979
C85	C	-1.394190	-0.115261	0.506321
C86	C	-1.060856	0.218072	0.839654
C87	C	-0.727523	0.551406	1.172988
C88	C	-1.332553	0.049366	0.573507
C89	C	-0.999219	0.382700	0.906841
C90	C	-0.665886	0.716033	1.240174
C91	C	-1.332529	-0.060358	0.573501
C92	C	-0.999196	0.272976	0.906835
C93	C	-0.665862	0.606309	1.240168
C94	C	-1.455871	-0.060434	0.439135
C95	C	-1.122538	0.272899	0.772468
C96	C	-0.789205	0.606232	1.105802
C97	C	-1.455889	0.049288	0.439137
C98	C	-1.122556	0.382621	0.772470
C99	C	-0.789223	0.715954	1.105803
C100	C	-1.394131	-0.506096	0.233324
C101	C	-1.060798	-0.172762	0.566657
C102	C	-0.727465	0.160571	0.899990
C103	C	-1.394287	-0.505843	0.116547
C104	C	-1.060954	-0.172509	0.449881
C105	C	-0.727621	0.160824	0.783214
C106	C	-1.455956	-0.438725	0.951979
C107	C	-1.122623	-0.105392	1.285312
C108	C	-0.789289	0.227941	1.618645
C109	C	-1.455972	-0.438680	1.061703
C110	C	-1.122639	-0.105347	1.395036
C111	C	-0.789306	0.227987	1.728369
C112	C	-1.332575	-0.573047	1.061662
C113	C	-0.999242	-0.239714	1.394996
C114	C	-0.665908	0.093619	1.728329
C115	C	-1.332555	-0.573086	0.951940
C116	C	-0.999221	-0.239753	1.285274
C117	C	-0.665888	0.093580	1.618607
H118	H	-1.282345	0.094062	0.628218
H119	H	-0.949012	0.427395	0.961551
H120	H	-0.615679	0.760728	1.294884
F121	F	-1.521654	-0.367161	1.120102
F122	F	-1.188321	-0.033828	1.453436
F123	F	-0.854988	0.299505	1.786769
H124	H	-1.506190	-0.384037	0.907332
H125	H	-1.172857	-0.050704	1.240665
H126	H	-0.839524	0.282630	1.573998
H127	H	-1.282300	-0.627809	0.907258
H128	H	-0.948966	-0.294476	1.240591
H129	H	-0.615633	0.038857	1.573925
H130	H	-1.506072	-0.105145	0.384431
H131	H	-1.172739	0.228188	0.717764
H132	H	-0.839406	0.561521	1.051098
F133	F	-1.266882	-0.118695	0.645002
F134	F	-0.933548	0.214638	0.978336
F135	F	-0.600215	0.547972	1.311669
F136	F	-1.521538	0.107633	0.367630
F137	F	-1.188205	0.440967	0.700963
F138	F	-0.854872	0.774300	1.034297
H139	H	-1.282347	-0.627728	1.106326
H140	H	-0.949013	-0.294395	1.439659
H141	H	-0.615680	0.038938	1.772992
