data_functionalizedCrystal
_audit_creation_method	'MofGen! by Chris Wilmer'
_symmetry_space_group_name_H-M	'P1'
_symmetry_Int_Tables_number	1
_symmetry_cell_setting	triclinic
loop_
_symmetry_equiv_pos_as_xyz
  x,y,z
_cell_length_a	16.109302
_cell_length_b	17.699083
_cell_length_c	15.186229
_cell_angle_alpha	89.988702
_cell_angle_beta	90.005906
_cell_angle_gamma	96.627603
loop_
_atom_site_label
_atom_site_type_symbol
_atom_site_fract_x
_atom_site_fract_y
_atom_site_fract_z
O1	O	1.102963	-0.097288	0.073282
O2	O	0.860881	-0.109394	0.073277
O3	O	0.988761	0.006839	0.073258
O4	O	0.975083	-0.213520	0.073301
O5	O	0.988752	0.006841	-0.073199
O6	O	0.860871	-0.109391	-0.073180
O7	O	1.102954	-0.097285	-0.073175
Zn8	Zn	0.981911	-0.103338	-0.096431
Zn9	Zn	0.981924	-0.103341	0.096533
O10	O	0.975073	-0.213518	-0.073157
C11	C	0.829902	-0.108902	0.000047
C12	C	0.737609	-0.107432	0.000044
C13	C	0.525268	-0.104030	-0.079782
C14	C	0.438551	-0.102640	-0.079779
C15	C	0.438572	-0.102647	0.079897
C16	C	0.525289	-0.104031	0.079893
C17	C	0.568634	-0.104727	0.000051
C18	C	0.395200	-0.101952	0.000058
C19	C	0.301177	-0.100445	0.000062
C20	C	0.662664	-0.106232	0.000047
C21	C	0.988266	0.035038	0.000026
C22	C	0.986796	0.119058	0.000015
C23	C	1.061859	0.167571	0.000010
C24	C	1.060473	0.246517	0.000008
C25	C	0.984022	0.276947	0.000004
C26	C	0.908953	0.228427	0.000012
C27	C	0.910340	0.149483	0.000021
C28	C	0.903356	0.546798	-0.000020
C29	C	0.901974	0.625748	-0.000031
C30	C	1.053488	0.643832	-0.000034
C31	C	1.054876	0.564888	-0.000025
C32	C	0.979807	0.516375	-0.000013
C33	C	0.981311	0.430774	-0.000009
C34	C	0.982517	0.362547	-0.000006
C35	C	1.133932	-0.097777	0.000056
C36	C	1.226225	-0.099247	0.000065
N37	N	0.981908	-0.103335	-0.228124
C38	C	0.975568	0.758283	0.000046
C39	C	0.977038	0.674263	-0.000030
C40	C	1.038556	-0.051884	-0.546050
C41	C	1.038554	-0.051885	-0.453861
C42	C	0.925282	-0.154794	-0.453854
C43	C	0.925289	-0.154797	-0.546042
C44	C	0.981925	-0.103338	-0.592138
C45	C	0.981916	-0.103335	-0.407760
C46	C	0.981913	-0.103336	-0.307804
C47	C	0.981929	-0.103338	-0.692101
N48	N	0.981933	-0.103338	0.228225
H49	H	1.124114	0.142802	0.000007
N50	N	0.819508	0.658564	-0.000037
H51	H	0.786636	0.640872	0.054260
H52	H	0.830089	0.715931	-0.000083
H53	H	1.114613	0.683341	-0.000039
H54	H	0.403246	-0.102073	-0.144787
N55	N	0.391821	-0.101896	0.166009
H56	H	0.330305	-0.100914	0.153899
H57	H	0.400148	-0.149030	0.200881
H58	H	0.560599	-0.104597	0.144907
N59	N	1.099647	0.003609	-0.595770
H60	H	1.135525	0.036201	-0.552581
H61	H	1.136341	-0.025383	-0.634001
H62	H	1.121597	0.286014	0.000001
N63	N	0.864187	-0.210286	-0.404139
H64	H	0.873653	-0.264008	-0.420163
H65	H	0.872801	-0.202410	-0.338760
N66	N	1.137332	0.532066	-0.000029
H67	H	1.184676	0.574780	-0.000031
H68	H	1.141211	0.499701	0.054268
H69	H	1.084669	-0.009987	-0.416339
N70	N	0.822393	0.494480	-0.000011
H71	H	0.773754	0.525739	-0.000019
H72	H	0.819663	0.461335	-0.054300
H73	H	0.879172	-0.196700	-0.583569
H74	H	0.846705	0.253209	0.000015
N75	N	0.829385	0.097146	0.000023
H76	H	0.796025	0.106923	0.054312
H77	H	0.796084	0.106954	-0.054308
N78	N	0.572022	-0.104780	-0.165892
H79	H	0.531388	-0.104126	-0.216465
H80	H	0.614838	-0.058463	-0.169379
