data_functionalizedCrystal
_audit_creation_method	'MofGen! by Chris Wilmer'
_symmetry_space_group_name_H-M	'P1'
_symmetry_Int_Tables_number	1
_symmetry_cell_setting	triclinic
loop_
_symmetry_equiv_pos_as_xyz
  x,y,z
_cell_length_a	21.395364
_cell_length_b	14.908178
_cell_length_c	21.395355
_cell_angle_alpha	93.314561
_cell_angle_beta	90.024552
_cell_angle_gamma	93.328811
loop_
_atom_site_label
_atom_site_type_symbol
_atom_site_fract_x
_atom_site_fract_y
_atom_site_fract_z
Zn1	Zn	0.943529	-0.358933	0.339876
Zn2	Zn	1.443529	0.141067	0.839876
Zn3	Zn	0.937409	-0.509786	0.229052
Zn4	Zn	1.437409	-0.009786	0.729052
Zn5	Zn	0.838743	-0.358972	0.235111
Zn6	Zn	1.338743	0.141028	0.735111
Zn7	Zn	0.832690	-0.509802	0.333791
Zn8	Zn	1.332690	-0.009802	0.833791
O9	O	0.888093	-0.434373	0.284457
O10	O	1.388093	0.065627	0.784457
O11	O	1.030396	-0.378920	0.325185
O12	O	1.530396	0.121080	0.825185
O13	O	0.924292	-0.489790	0.142177
O14	O	1.424292	0.010210	0.642177
O15	O	0.857737	-0.232712	0.254090
O16	O	1.357737	0.267288	0.754090
O17	O	1.025900	-0.489751	0.243764
O18	O	1.525900	0.010249	0.743764
O19	O	0.934723	-0.232683	0.331060
O20	O	1.434723	0.267317	0.831060
O21	O	0.851803	-0.378988	0.146629
O22	O	1.351803	0.121012	0.646629
O23	O	0.750261	-0.379003	0.248190
O24	O	1.250261	0.120997	0.748190
O25	O	0.847421	-0.489779	0.422277
O26	O	1.347421	0.010221	0.922277
O27	O	0.745814	-0.489817	0.320691
O28	O	1.245814	0.010183	0.820691
O29	O	0.928854	-0.378936	0.426747
O30	O	1.428854	0.121064	0.926747
O31	O	0.918424	-0.636043	0.237864
O32	O	1.418424	-0.136043	0.737864
O33	O	0.841487	-0.636055	0.314816
O34	O	1.341487	-0.136055	0.814816
C35	C	0.725303	-0.434417	0.284438
C36	C	1.225303	0.065583	0.784438
C37	C	0.655660	-0.434457	0.284444
C38	C	1.155660	0.065543	0.784444
C39	C	0.625307	-0.376842	0.326898
C40	C	1.125307	0.123158	0.826898
C41	C	0.559873	-0.376818	0.326902
C42	C	1.059873	0.123182	0.826902
C43	C	0.524793	-0.434426	0.284456
C44	C	1.024793	0.065574	0.784456
C45	C	0.555154	-0.492045	0.241994
C46	C	1.055154	0.007955	0.741994
C47	C	0.620588	-0.492061	0.241988
C48	C	1.120588	0.007939	0.741988
C49	C	0.417825	-0.515676	0.276162
C50	C	0.917825	-0.015676	0.776162
C51	C	0.352393	-0.515662	0.276173
C52	C	0.852393	-0.015662	0.776173
C53	C	0.322975	-0.434376	0.284472
C54	C	0.822975	0.065624	0.784472
C55	C	0.358997	-0.353102	0.292774
C56	C	0.858997	0.146898	0.792774
C57	C	0.424431	-0.353118	0.292768
C58	C	0.924431	0.146882	0.792768
C59	C	0.453842	-0.434414	0.284458
C60	C	0.953842	0.065586	0.784458
C61	C	0.221670	-0.376730	0.326933
C62	C	0.721670	0.123270	0.826933
C63	C	0.156235	-0.376704	0.326932
C64	C	0.656235	0.123296	0.826932
C65	C	0.151517	-0.491939	0.242027
C66	C	0.651517	0.008061	0.742027
C67	C	0.216952	-0.491956	0.242025
C68	C	0.716952	0.008044	0.742025
C69	C	0.252024	-0.434353	0.284481
C70	C	0.752024	0.065647	0.784481
C71	C	0.878651	-0.668785	0.275036
C72	C	1.378651	-0.168785	0.775036
C73	C	0.874670	-0.769068	0.271026
C74	C	1.374670	-0.269068	0.771026
C75	C	0.947293	-0.957329	0.343727
C76	C	1.447293	-0.457329	0.843727
C77	C	0.943554	-1.051553	0.339962
C78	C	1.443554	-0.551553	0.839962
C79	C	0.863450	-1.051742	0.259734
C80	C	1.363450	-0.551742	0.759734
C81	C	0.867189	-0.957518	0.263499
C82	C	1.367189	-0.457518	0.763499
C83	C	0.909112	-0.910315	0.305496
C84	C	1.409112	-0.410315	0.805496
C85	C	0.912854	-0.816088	0.309258
C86	C	1.412854	-0.316088	0.809258
C87	C	0.832748	-0.816279	0.229034
C88	C	1.332748	-0.316279	0.729034
C89	C	0.829009	-0.910504	0.225269
C90	C	1.329009	-0.410504	0.725269
C91	C	1.051518	-0.434330	0.284477
C92	C	1.551518	0.065670	0.784477
C93	C	1.121160	-0.434311	0.284486
C94	C	1.621160	0.065689	0.784486
C95	C	0.888146	-0.434355	0.447881
C96	C	1.388146	0.065645	0.947881
C97	C	0.888168	-0.434347	0.517523
C98	C	1.388168	0.065653	1.017523
C99	C	0.897588	-0.199046	0.293929
C100	C	1.397588	0.300954	0.793929
C101	C	0.901634	-0.098763	0.297966
C102	C	1.401634	0.401237	0.797966
C103	C	0.888079	-0.434326	0.121672
C104	C	1.388079	0.065674	0.621672
C105	C	0.888188	-0.434080	0.052041
C106	C	1.388188	0.065920	0.552041
C107	C	0.930569	-0.376629	0.552565
C108	C	1.430569	0.123371	1.052565
C109	C	0.930569	-0.376590	0.618002
C110	C	1.430569	0.123410	1.118002
C111	C	0.888175	-0.434286	0.648394
C112	C	1.388175	0.065714	1.148394
C113	C	0.845767	-0.492008	0.613344
C114	C	1.345767	0.007992	1.113344
C115	C	0.845763	-0.492039	0.547909
C116	C	1.345763	0.007961	1.047909
C117	C	0.879956	-0.515525	0.748803
C118	C	1.379956	-0.015525	1.248803
C119	C	0.879964	-0.515495	0.814238
C120	C	1.379964	-0.015495	1.314238
C121	C	0.888183	-0.434190	0.850219
C122	C	1.388183	0.065810	1.350219
C123	C	0.896407	-0.352912	0.820758
C124	C	1.396407	0.147088	1.320758
C125	C	0.896404	-0.352942	0.755322
C126	C	1.396404	0.147058	1.255322
C127	C	0.888174	-0.434258	0.719347
C128	C	1.388174	0.065742	1.219347
C129	C	0.930587	-0.376425	0.956215
C130	C	1.430587	0.123575	1.456215
C131	C	0.930583	-0.376385	1.021653
C132	C	1.430583	0.123615	1.521653
C133	C	0.845784	-0.491811	1.016994
C134	C	1.345784	0.008189	1.516994
C135	C	0.845784	-0.491843	0.951557
C136	C	1.345784	0.008157	1.451557
C137	C	0.888189	-0.434151	0.921171
C138	C	1.388189	0.065849	1.421171
H139	H	0.241665	-0.538877	0.207457
H140	H	0.741665	-0.038877	0.707457
H141	H	0.526589	-0.538948	0.207435
H142	H	1.026589	-0.038948	0.707435
C143	C	0.993397	-0.905402	0.389928
C144	C	1.493397	-0.405402	0.889928
H145	H	1.015596	-0.946899	0.412163
H146	H	1.515596	-0.446899	0.912163
H147	H	1.022170	-0.868608	0.367466
H148	H	1.522170	-0.368608	0.867466
H149	H	0.970859	-0.868676	0.418672
H150	H	1.470859	-0.368676	0.918672
C151	C	0.985555	-1.103266	0.382011
C152	C	1.485555	-0.603266	0.882011
H153	H	1.011061	-1.061655	0.407557
H154	H	1.511061	-0.561655	0.907557
H155	H	0.960116	-1.140046	0.407818
H156	H	1.460116	-0.640046	0.907818
H157	H	1.011414	-1.139991	0.356597
H158	H	1.511414	-0.639991	0.856597
C159	C	0.905448	-0.263468	0.860325
C160	C	1.405448	0.236532	1.360325
H161	H	0.910349	-0.215071	0.833408
H162	H	1.410349	0.284929	1.333408
H163	H	0.869861	-0.255533	0.886153
H164	H	1.369861	0.244467	1.386153
H165	H	0.941724	-0.264620	0.885820
H166	H	1.441724	0.235380	1.385820
C167	C	0.790748	-0.764566	0.186976
C168	C	1.290748	-0.264566	0.686976
H169	H	0.765250	-0.806177	0.161422
H170	H	1.265250	-0.306177	0.661422
H171	H	0.764893	-0.727831	0.212379
H172	H	1.264893	-0.227831	0.712379
H173	H	0.816198	-0.727796	0.161167
H174	H	1.316198	-0.227796	0.661167
C175	C	0.817333	-1.103672	0.213547
C176	C	1.317333	-0.603672	0.713547
H177	H	0.795123	-1.062179	0.191320
H178	H	1.295123	-0.562179	0.691320
H179	H	0.839853	-1.140417	0.184805
H180	H	1.339853	-0.640417	0.684805
H181	H	0.788560	-1.140448	0.236029
H182	H	1.288560	-0.640448	0.736029
H183	H	0.965097	-0.329651	0.527829
H184	H	1.465097	0.170349	1.027829
H185	H	0.323068	-0.581840	0.269416
H186	H	0.823068	-0.081840	0.769416
H187	H	0.965096	-0.329584	0.646538
H188	H	1.465096	0.170416	1.146538
C189	C	0.450182	-0.605094	0.267029
C190	C	0.950182	-0.105094	0.767029
H191	H	0.494310	-0.593464	0.268207
H192	H	0.994310	-0.093464	0.768207
H193	H	0.437934	-0.643118	0.299541
H194	H	0.937934	-0.143118	0.799541
H195	H	0.438270	-0.633855	0.227693
H196	H	0.938270	-0.133855	0.727693
H197	H	0.903098	-0.286763	0.731338
H198	H	1.403098	0.213237	1.231338
H199	H	0.645301	-0.538979	0.207415
H200	H	1.145301	-0.038979	0.707415
C201	C	0.977223	-0.312963	0.922785
C202	C	1.477223	0.187037	1.422785
H203	H	0.971155	-0.321257	0.878795
H204	H	1.471155	0.178743	1.378795
H205	H	0.970500	-0.252340	0.935932
H206	H	1.470500	0.247660	1.435932
H207	H	1.018791	-0.326157	0.932999
H208	H	1.518791	0.173843	1.432999
C209	C	0.977227	-0.312892	1.060199
C210	C	1.477227	0.187108	1.560199
H211	H	1.002483	-0.278546	1.032728
H212	H	1.502483	0.221454	1.532728
H213	H	0.954850	-0.273570	1.087291
H214	H	1.454850	0.226430	1.587291
H215	H	1.003134	-0.347395	1.084353
H216	H	1.503134	0.152605	1.584353
C217	C	0.112938	-0.555310	0.195341
C218	C	0.612938	-0.055310	0.695341
H219	H	0.069620	-0.547054	0.201428
H220	H	0.569620	-0.047054	0.701428
H221	H	0.124178	-0.542026	0.153791
H222	H	0.624178	-0.042026	0.653791
H223	H	0.121205	-0.615954	0.202011
H224	H	0.621205	-0.115954	0.702011
H225	H	0.811248	-0.538981	0.638094
H226	H	1.311248	-0.038981	1.138094
H227	H	0.811260	-0.538778	1.041739
H228	H	1.311260	-0.038778	1.541739
C229	C	0.799148	-0.555340	0.913009
C230	C	1.299148	-0.055340	1.413009
H231	H	0.773901	-0.589702	0.940479
H232	H	1.273901	-0.089702	1.440479
H233	H	0.773240	-0.520847	0.888854
H234	H	1.273240	-0.020847	1.388854
H235	H	0.821531	-0.594661	0.885918
H236	H	1.321531	-0.094661	1.385918
C237	C	0.464056	-0.263727	0.301894
C238	C	0.964056	0.236273	0.801894
H239	H	0.507237	-0.275383	0.300706
H240	H	1.007237	0.224617	0.800706
H241	H	0.454860	-0.225699	0.269384
H242	H	0.954860	0.274301	0.769384
H243	H	0.454522	-0.234957	0.341232
H244	H	0.954522	0.265043	0.841232
C245	C	0.782895	-0.962428	0.179075
C246	C	1.282895	-0.462428	0.679075
H247	H	0.760690	-0.920930	0.156849
H248	H	1.260690	-0.420930	0.656849
H249	H	0.805419	-0.999168	0.150333
H250	H	1.305419	-0.499168	0.650333
H251	H	0.754119	-0.999208	0.201551
H252	H	1.254119	-0.499208	0.701551
C253	C	0.870926	-0.604895	0.846642
C254	C	1.370926	-0.104895	1.346642
H255	H	0.872115	-0.593235	0.890766
H256	H	1.372115	-0.093235	1.390766
H257	H	0.831617	-0.633762	0.834750
H258	H	1.331617	-0.133762	1.334750
H259	H	0.903482	-0.642839	0.834407
H260	H	1.403482	-0.142839	1.334407
H261	H	0.131523	-0.329782	0.361502
H262	H	0.631523	0.170218	0.861502
H263	H	0.873096	-0.581716	0.719514
H264	H	1.373096	-0.081716	1.219514
C265	C	0.958958	-0.764166	0.355461
C266	C	1.458958	-0.264166	0.855461
H267	H	0.981154	-0.805664	0.377697
H268	H	1.481154	-0.305664	0.877697
H269	H	0.987735	-0.727374	0.333001
H270	H	1.487735	-0.227374	0.833001
H271	H	0.936420	-0.727436	0.384204
H272	H	1.436420	-0.227436	0.884204
C273	C	0.526476	-0.313449	0.373610
C274	C	1.026476	0.186551	0.873610
H275	H	0.556736	-0.279152	0.398897
H276	H	1.056736	0.220848	0.898897
H277	H	0.502532	-0.274078	0.351279
H278	H	1.002532	0.225922	0.851279
H279	H	0.499565	-0.348034	0.399480
H280	H	0.999565	0.151966	0.899480
C281	C	0.799124	-0.555533	0.509358
C282	C	1.299124	-0.055533	1.009358
H283	H	0.805193	-0.547286	0.466035
H284	H	1.305193	-0.047286	0.966035
H285	H	0.805846	-0.616146	0.517657
H286	H	1.305846	-0.116146	1.017657
H287	H	0.757557	-0.542327	0.520592
H288	H	1.257557	-0.042327	1.020592
C289	C	0.663886	-0.313481	0.373595
C290	C	1.163886	0.186519	0.873595
H291	H	0.707204	-0.321746	0.367516
H292	H	1.207204	0.178254	0.867516
H293	H	0.655620	-0.252838	0.366938
H294	H	1.155620	0.247162	0.866938
H295	H	0.652643	-0.326784	0.415145
H296	H	1.152643	0.173216	0.915145
C297	C	0.326647	-0.263683	0.301906
C298	C	0.826647	0.236317	0.801906
H299	H	0.282518	-0.275309	0.300715
H300	H	0.782518	0.224691	0.800715
H301	H	0.338557	-0.234920	0.341238
H302	H	0.838557	0.265080	0.841238
H303	H	0.338898	-0.225660	0.269391
H304	H	0.838898	0.274340	0.769391
C305	C	0.260253	-0.313363	0.373627
C306	C	0.760253	0.186637	0.873627
H307	H	0.232802	-0.279035	0.398906
H308	H	0.732802	0.220965	0.898906
H309	H	0.284387	-0.347940	0.399496
H310	H	0.784387	0.152060	0.899496
H311	H	0.287365	-0.274006	0.351280
H312	H	0.787365	0.225994	0.851280
