data_functionalizedCrystal
_audit_creation_method	'MofGen! by Chris Wilmer'
_symmetry_space_group_name_H-M	'P1'
_symmetry_Int_Tables_number	1
_symmetry_cell_setting	triclinic
loop_
_symmetry_equiv_pos_as_xyz
  x,y,z
_cell_length_a	16.974800
_cell_length_b	23.532357
_cell_length_c	16.053919
_cell_angle_alpha	92.895985
_cell_angle_beta	89.236949
_cell_angle_gamma	83.110074
loop_
_atom_site_label
_atom_site_type_symbol
_atom_site_fract_x
_atom_site_fract_y
_atom_site_fract_z
O1	O	1.048500	0.072503	-0.001432
O2	O	0.818879	0.082233	0.014092
O3	O	0.940633	-0.005558	0.005843
O4	O	0.926745	0.160294	0.006816
O5	O	0.934726	-0.009806	-0.132615
O6	O	0.812972	0.077986	-0.124367
O7	O	1.042592	0.068255	-0.139890
Zn8	Zn	0.926844	0.072446	-0.154112
Zn9	Zn	0.934627	0.078042	0.028313
O10	O	0.920838	0.156046	-0.131642
C11	C	0.786554	0.079820	-0.053152
C12	C	0.699038	0.078950	-0.047236
C13	C	0.654707	0.076224	-0.119933
C14	C	0.572478	0.075398	-0.114376
C15	C	0.534580	0.077301	-0.036123
C16	C	0.578917	0.080025	0.036579
C17	C	0.661146	0.080847	0.031022
C18	C	0.288999	0.075085	-0.011410
C19	C	0.206764	0.074264	-0.005859
C20	C	0.200331	0.069636	-0.156814
C21	C	0.282561	0.070462	-0.162364
C22	C	0.326891	0.073183	-0.089663
N23	N	0.450528	0.076458	-0.030442
N24	N	0.410942	0.074022	-0.095345
C25	C	0.937332	-0.028899	-0.063365
C26	C	0.936287	-0.092119	-0.063302
C27	C	0.932952	-0.481821	0.012660
C28	C	0.931959	-0.541222	0.012732
O29	O	0.934157	-0.569969	0.076955
N30	N	0.928247	-0.573249	-0.062708
C31	C	0.925519	-0.545872	-0.138223
O32	O	0.922269	-0.578568	-0.202384
C33	C	0.926506	-0.486472	-0.138294
C34	C	0.930227	-0.454448	-0.062850
C35	C	0.936671	-0.449798	0.088097
C36	C	0.937665	-0.390402	0.088025
C37	C	0.934940	-0.363029	0.012515
C38	C	0.931221	-0.395052	-0.062923
C39	C	0.923773	-0.459095	-0.213808
C40	C	0.924759	-0.399691	-0.213872
C41	C	0.928480	-0.367668	-0.138429
C42	C	0.929490	-0.308283	-0.138505
N43	N	0.933202	-0.276256	-0.063065
C44	C	0.935927	-0.303629	0.012444
C45	C	0.923445	-0.670615	-0.138069
C46	C	0.922463	-0.730015	-0.138000
C47	C	0.928902	-0.725360	0.012955
C48	C	0.929889	-0.665961	0.012885
C49	C	0.927157	-0.638588	-0.062630
C50	C	0.938015	-0.178893	0.012287
C51	C	0.939013	-0.119492	0.012208
C52	C	0.932570	-0.124151	-0.138747
C53	C	0.931577	-0.183547	-0.138668
C54	C	0.934297	-0.210916	-0.063145
O55	O	0.927290	-0.279496	-0.202696
O56	O	0.939166	-0.270925	0.076595
C57	C	1.074917	0.070669	-0.072645
C58	C	1.162434	0.071539	-0.078555
C59	C	0.924139	0.179387	-0.062432
C60	C	0.925184	0.242608	-0.062489
N61	N	0.921538	0.068626	-0.278612
C62	C	0.894259	0.048781	-0.800395
C63	C	0.897965	0.051475	-0.713240
C64	C	0.947348	0.087250	-0.672877
C65	C	0.993033	0.120328	-0.719676
C66	C	0.989331	0.117630	-0.806830
C67	C	0.963521	0.099007	-0.412565
C68	C	0.967219	0.101703	-0.325404
C69	C	0.872151	0.032849	-0.318974
C70	C	0.868450	0.030157	-0.406130
C71	C	0.914138	0.063233	-0.452921
N72	N	0.951135	0.090006	-0.583790
N73	N	0.910354	0.060473	-0.542006
N74	N	0.939939	0.081858	0.152813
H75	H	0.548055	0.081570	0.100294
H76	H	0.919446	-0.756085	-0.199435
C77	C	0.696390	0.074120	-0.206012
H78	H	0.658210	0.072370	-0.248511
H79	H	0.722056	0.107550	-0.210899
H80	H	0.734612	0.041129	-0.211738
C81	C	0.523717	0.072404	-0.194342
H82	H	0.558063	0.071396	-0.241742
H83	H	0.497789	0.038778	-0.195751
H84	H	0.485222	0.105200	-0.194875
H85	H	0.932918	-0.639891	0.074318
H86	H	0.175910	0.075816	0.057868
C87	C	0.324240	0.068383	-0.248443
H88	H	0.286061	0.066641	-0.290944
H89	H	0.349892	0.101821	-0.253300
H90	H	0.362474	0.035399	-0.254195
C91	C	0.151563	0.066664	-0.236778
H92	H	0.097162	0.066450	-0.222265
H93	H	0.157446	0.099063	-0.268247
H94	H	0.169987	0.032640	-0.269152
C95	C	0.337753	0.078092	0.068556
H96	H	0.392154	0.078306	0.054045
H97	H	0.319310	0.112120	0.100902
H98	H	0.331885	0.045699	0.100052
C99	C	0.709909	0.083849	0.110987
H100	H	0.675561	0.084871	0.158389
H101	H	0.748404	0.051059	0.111527
H102	H	0.735833	0.117480	0.112387
C103	C	1.039575	0.154018	-0.858300
H104	H	1.069510	0.175715	-0.821781
H105	H	1.074606	0.129540	-0.894752
H106	H	1.005600	0.179258	-0.890113
H107	H	0.942044	-0.093421	0.073646
C108	C	0.929568	-0.094033	-0.221801
H109	H	0.930683	-0.054070	-0.211031
H110	H	0.974061	-0.109198	-0.255920
H111	H	0.882089	-0.100240	-0.249684
C112	C	0.941030	-0.208992	0.095359
H113	H	0.943399	-0.181408	0.140270
H114	H	0.894800	-0.227592	0.101656
H115	H	0.986771	-0.236543	0.095405
C116	C	0.941743	-0.355182	0.171015
H117	H	0.943214	-0.379997	0.215990
H118	H	0.988243	-0.336389	0.171030
H119	H	0.896270	-0.327437	0.177233
H120	H	0.854042	0.019652	-0.833251
C121	C	0.919665	-0.494309	-0.296795
H122	H	0.919467	-0.533609	-0.285951
H123	H	0.872516	-0.481041	-0.324693
H124	H	0.964487	-0.490009	-0.330936
C125	C	0.814151	-0.009211	-0.450524
H126	H	0.787486	-0.028533	-0.410174
H127	H	0.776226	0.013151	-0.482081
H128	H	0.845253	-0.036551	-0.486698
H129	H	0.921222	-0.648333	-0.199566
C130	C	0.939677	-0.479899	0.171165
H131	H	0.942040	-0.452313	0.216075
H132	H	0.893447	-0.498499	0.177455
H133	H	0.985419	-0.507450	0.171220
C134	C	0.931891	-0.755477	0.096017
H135	H	0.930761	-0.795439	0.085248
H136	H	0.979357	-0.749271	0.123915
H137	H	0.887384	-0.740308	0.130122
H138	H	0.922523	-0.377407	-0.275366
H139	H	0.928554	-0.209623	-0.200101
C140	C	0.847712	0.015093	-0.661772
H141	H	0.817764	-0.006593	-0.698292
H142	H	0.881676	-0.010147	-0.629957
H143	H	0.812680	0.039578	-0.625322
H144	H	0.834955	0.005920	-0.280868
C145	C	1.047359	0.159677	-0.675284
H146	H	1.074042	0.178985	-0.715637
H147	H	1.016285	0.187020	-0.639099
H148	H	1.085281	0.137295	-0.643740
C149	C	1.021553	0.141049	-0.281008
H150	H	1.048242	0.160356	-0.321357
H151	H	0.990481	0.168394	-0.244822
H152	H	1.059470	0.118663	-0.249463
C153	C	1.013770	0.135394	-0.464023
H154	H	1.043702	0.157090	-0.427499
H155	H	1.048805	0.110917	-0.500474
H156	H	0.979798	0.160634	-0.495836
