data_functionalizedCrystal
_audit_creation_method	'MofGen! by Chris Wilmer'
_symmetry_space_group_name_H-M	'P1'
_symmetry_Int_Tables_number	1
_symmetry_cell_setting	triclinic
loop_
_symmetry_equiv_pos_as_xyz
  x,y,z
_cell_length_a	23.204063
_cell_length_b	23.204116
_cell_length_c	23.204045
_cell_angle_alpha	59.997925
_cell_angle_beta	89.998673
_cell_angle_gamma	60.000371
loop_
_atom_site_label
_atom_site_type_symbol
_atom_site_fract_x
_atom_site_fract_y
_atom_site_fract_z
O1	O	-0.395347	0.412485	-0.903684
O2	O	-0.311541	0.294473	-0.701868
O3	O	-0.311541	0.412483	-0.819875
O4	O	-0.395347	0.294474	-0.785677
O5	O	-0.407393	0.508333	-0.819875
O6	O	-0.407393	0.390322	-0.701867
O7	O	-0.491198	0.508334	-0.903684
Cu8	Cu	-0.458048	0.458080	-0.802776
Cu9	Cu	-0.344692	0.344727	-0.802776
O10	O	-0.491199	0.390324	-0.785677
C11	C	-0.310658	0.621359	-0.827658
C12	C	-0.346220	0.692484	-0.822764
C13	C	-0.241300	0.586846	-0.828145
C14	C	-0.310658	0.517001	-0.827658
C15	C	-0.346220	0.476544	-0.822764
C16	C	-0.241301	0.482645	-0.828145
C17	C	-0.206299	0.517001	-0.827658
C18	C	-0.130280	0.476545	-0.822764
C19	C	-0.345501	0.586845	-0.828145
C20	C	-0.554181	0.590043	-1.248589
C21	C	-0.518617	0.549589	-1.284151
C22	C	-0.623538	0.659889	-1.283433
C23	C	-0.554183	0.590040	-1.144228
C24	C	-0.518622	0.549582	-1.068207
C25	C	-0.623540	0.659885	-1.179230
C26	C	-0.658541	0.694401	-1.248589
C27	C	-0.734559	0.765526	-1.284152
C28	C	-0.519339	0.555686	-1.179230
C29	C	-0.795975	0.822987	-1.312883
C30	C	-0.489886	0.516904	-1.312882
C31	C	-0.489892	0.516894	-1.006790
C32	C	-0.873024	0.895074	-1.348928
C33	C	-0.453841	0.475901	-1.348927
C34	C	-0.453850	0.475887	-0.929740
C35	C	-0.658548	0.212776	-0.766966
C36	C	-0.734567	0.253232	-0.771860
C37	C	-0.623547	0.142931	-0.766478
C38	C	-0.554189	0.212775	-0.766966
C39	C	-0.518626	0.253231	-0.771860
C40	C	-0.519346	0.142931	-0.766478
C41	C	-0.554190	0.108417	-0.766966
C42	C	-0.518628	0.037292	-0.771860
C43	C	-0.623546	0.247131	-0.766478
C44	C	-0.489898	-0.020168	-0.775815
C45	C	-0.795983	0.285918	-0.775816
C46	C	-0.489895	0.285917	-0.775816
C47	C	-0.453855	-0.092255	-0.780777
C48	C	-0.873031	0.326923	-0.780777
C49	C	-0.453850	0.326922	-0.780777
O50	O	0.100913	0.294476	-0.785677
O51	O	-0.100899	0.412485	-0.819875
O52	O	0.017104	0.294475	-0.701868
O53	O	-0.017091	0.412486	-0.903685
O54	O	0.017107	0.390324	-0.701867
O55	O	-0.100897	0.508334	-0.819875
O56	O	0.100915	0.390326	-0.785677
Cu57	Cu	0.000010	0.458082	-0.802776
Cu58	Cu	0.000006	0.344729	-0.802776
O59	O	-0.017088	0.508336	-0.903684
O60	O	-0.395353	0.886592	-0.785677
O61	O	-0.311542	0.718978	-0.819875
O62	O	-0.311544	0.718974	-0.701867
O63	O	-0.395351	0.886596	-0.903684
O64	O	-0.407394	0.718971	-0.701867
O65	O	-0.407391	0.718976	-0.819875
O66	O	-0.491203	0.886589	-0.785677
Cu67	Cu	-0.458049	0.802782	-0.802776
Cu68	Cu	-0.344696	0.802786	-0.802776
O69	O	-0.491200	0.886593	-0.903684
O70	O	-1.100895	1.083825	-1.395380
O71	O	-0.899079	0.916227	-1.311579
O72	O	-1.017074	0.916207	-1.311571
O73	O	-0.982900	1.083845	-1.395389
O74	O	-1.017072	0.916210	-1.407424
O75	O	-0.899077	0.916231	-1.407432
O76	O	-1.100893	1.083828	-1.491233
Cu77	Cu	-0.999985	1.000030	-1.458085
Cu78	Cu	-0.999987	1.000026	-1.344728
O79	O	-0.982898	1.083849	-1.491242
O80	O	-0.407388	0.390330	-1.491226
O81	O	-0.491191	0.508345	-1.407428
O82	O	-0.491187	0.390328	-1.407407
O83	O	-0.407393	0.508347	-1.491247
O84	O	-0.395331	0.294485	-1.311559
O85	O	-0.395336	0.412502	-1.311580
O86	O	-0.311533	0.294487	-1.395379
Cu87	Cu	-0.344682	0.344743	-1.344728
Cu88	Cu	-0.458042	0.458089	-1.458078
O89	O	-0.311537	0.412504	-1.395400
C90	C	-0.206293	0.181456	-0.492110
C91	C	-0.130273	0.110334	-0.456549
C92	C	-0.241294	0.215971	-0.457267
C93	C	-0.310655	0.285810	-0.596467
C94	C	-0.346219	0.326263	-0.672485
C95	C	-0.345497	0.320166	-0.561466
C96	C	-0.310652	0.285814	-0.492110
C97	C	-0.346214	0.326272	-0.456549
C98	C	-0.241296	0.215967	-0.561466
C99	C	0.024888	0.285797	-0.492102
C100	C	0.019996	0.326251	-0.456538
C101	C	0.025374	0.215952	-0.457259
C102	C	0.024888	0.285803	-0.596464
C103	C	0.019994	0.326263	-0.672484
C104	C	0.025373	0.215958	-0.561463
C105	C	0.024885	0.181441	-0.492104
C106	C	0.019989	0.110316	-0.456542
C107	C	0.025377	0.320156	-0.561461
C108	C	-0.310665	0.516988	-0.492104
C109	C	-0.346228	0.476530	-0.456543
C110	C	-0.241309	0.482632	-0.457259
C111	C	-0.310663	0.621351	-0.596464
C112	C	-0.346223	0.692478	-0.672484
C113	C	-0.241306	0.586836	-0.561460
C114	C	-0.206306	0.516989	-0.492101
C115	C	-0.130289	0.476532	-0.456537
C116	C	-0.345507	0.586835	-0.561463
C117	C	-0.035796	0.694399	-1.248590
C118	C	-0.030900	0.765524	-1.284155
C119	C	-0.036284	0.659885	-1.283433
C120	C	-0.035798	0.590039	-1.144228
C121	C	-0.030905	0.549581	-1.068207
C122	C	-0.036287	0.555684	-1.179229
C123	C	-0.035799	0.590040	-1.248588
C124	C	-0.030906	0.549584	-1.284149
C125	C	-0.036284	0.659884	-1.179231
C126	C	-0.026951	0.516899	-1.312879
C127	C	-0.026943	0.822985	-1.312887
C128	C	-0.026950	0.516895	-1.006790
C129	C	-0.021991	0.475894	-1.348923
C130	C	-0.021981	0.895073	-1.348933
C131	C	-0.021989	0.475889	-0.929740
O132	O	-0.017109	0.412469	-0.311561
O133	O	0.017106	0.294458	-0.395364
O134	O	-0.100906	0.412463	-0.395372
O135	O	0.100903	0.294464	-0.311553
O136	O	-0.100903	0.508317	-0.491224
O137	O	0.017109	0.390312	-0.491216
O138	O	-0.017107	0.508323	-0.407413
Cu139	Cu	0.000001	0.458070	-0.458067
Cu140	Cu	-0.000002	0.344712	-0.344711
O141	O	0.100905	0.390318	-0.407405
C142	C	-0.658556	1.212804	-1.248583
C143	C	-0.734569	1.253246	-1.284149
C144	C	-0.623564	1.247180	-1.283420
C145	C	-0.554199	1.108450	-1.144220
C146	C	-0.518633	1.037317	-1.068202
C147	C	-0.519366	1.142984	-1.179217
C148	C	-0.554213	1.212837	-1.248573
C149	C	-0.518663	1.253314	-1.284129
C150	C	-0.623550	1.142951	-1.179227
C151	C	-0.489942	1.286017	-1.312854
C152	C	-0.795981	1.285920	-1.312883
C153	C	-0.489900	0.979849	-1.006787
C154	C	-0.453910	1.327043	-1.348891
C155	C	-0.873024	1.326911	-1.348931
C156	C	-0.453853	0.907753	-0.929739
H157	H	-0.402481	0.615719	-0.828909
H158	H	0.026158	0.187067	-0.400271
H159	H	-0.651668	1.303383	-1.340409
N160	N	0.026414	0.394603	-0.598689
H161	H	0.026641	0.411234	-0.565977
H162	H	0.070164	0.381626	-0.612738
H163	H	-0.213206	0.615723	-0.589565
H164	H	-0.462360	0.114048	-0.765695
H165	H	-0.213194	0.187076	-0.589563
H166	H	-0.213199	0.426436	-0.828920
N167	N	-0.660755	1.104660	-1.142007
H168	H	-0.663327	1.104327	-1.098401
H169	H	-0.710074	1.137163	-1.174772
N170	N	-0.037338	0.698153	-1.142013
H171	H	-0.037581	0.665672	-1.092674
H172	H	0.005946	0.698468	-1.139484
N173	N	-0.204079	0.177726	-0.381786
H174	H	-0.231051	0.160951	-0.350957
H175	H	-0.154736	0.128186	-0.364983
N176	N	-0.660774	0.321584	-0.765452
H177	H	-0.663336	0.367746	-0.808738
H178	H	-0.710097	0.338142	-0.765206
H179	H	-0.402485	0.376368	-0.589570
N180	N	-0.204084	0.408186	-0.381772
H181	H	-0.236796	0.391552	-0.364914
H182	H	-0.160482	0.362073	-0.378941
N183	N	-0.420988	0.625098	-0.598695
H184	H	-0.437847	0.592611	-0.565985
H185	H	-0.451763	0.682898	-0.612746
H186	H	0.026154	0.187079	-0.589569
H187	H	-0.213203	0.615736	-0.828932
H188	H	-0.037080	0.499486	-1.151126
H189	H	-0.037072	0.688777	-1.340422
N190	N	-0.443888	1.104742	-1.141994
H191	H	-0.427024	1.055163	-1.092652
H192	H	-0.413112	1.088032	-1.169024
H193	H	-0.651641	0.688764	-1.151124
H194	H	-0.462354	0.499480	-1.151129
N195	N	-0.660764	0.698157	-1.358918
H196	H	-0.628053	0.665672	-1.375778
H197	H	-0.704365	0.698475	-1.361747
N198	N	-0.660767	0.104668	-0.765444
H199	H	-0.710112	0.137155	-0.765221
H200	H	-0.663276	0.104354	-0.808730
