data_functionalizedCrystal
_audit_creation_method	'MofGen! by Chris Wilmer'
_symmetry_space_group_name_H-M	'P1'
_symmetry_Int_Tables_number	1
_symmetry_cell_setting	triclinic
loop_
_symmetry_equiv_pos_as_xyz
  x,y,z
_cell_length_a	18.215407
_cell_length_b	12.759400
_cell_length_c	12.759393
_cell_angle_alpha	89.969348
_cell_angle_beta	89.979490
_cell_angle_gamma	90.015132
loop_
_atom_site_label
_atom_site_type_symbol
_atom_site_fract_x
_atom_site_fract_y
_atom_site_fract_z
Zn1	Zn	1.125129	-0.418201	-0.594075
Zn2	Zn	1.125058	-0.593917	-0.418395
Zn3	Zn	1.002060	-0.418254	-0.418404
Zn4	Zn	1.002049	-0.593840	-0.594026
O5	O	1.063574	-0.506053	-0.506225
O6	O	1.228104	-0.441520	-0.570787
O7	O	1.108717	-0.570670	-0.271375
O8	O	1.018420	-0.271226	-0.441731
O9	O	1.228052	-0.570618	-0.441716
O10	O	1.108838	-0.271187	-0.570796
O11	O	1.018351	-0.441611	-0.271382
O12	O	0.899074	-0.441536	-0.441684
O13	O	1.018401	-0.570487	-0.741054
O14	O	0.899067	-0.570538	-0.570713
O15	O	1.108828	-0.441446	-0.741090
O16	O	1.108706	-0.740928	-0.441669
O17	O	1.018332	-0.740871	-0.570704
C18	C	0.872368	-0.506035	-0.506195
C19	C	0.790569	-0.506053	-0.506207
C20	C	0.602390	-0.573330	-0.573308
C21	C	0.525531	-0.573333	-0.573321
C22	C	0.525510	-0.438796	-0.439165
C23	C	0.602367	-0.438788	-0.439158
C24	C	0.640805	-0.506061	-0.506228
C25	C	0.487089	-0.506072	-0.506248
C26	C	0.403756	-0.506075	-0.506262
C27	C	0.724144	-0.506057	-0.506216
C28	C	1.063530	-0.779021	-0.506203
C29	C	1.063579	-0.895797	-0.506229
C30	C	1.110689	-0.950654	-0.439114
C31	C	1.110734	-1.060378	-0.439147
C32	C	1.016553	-1.060379	-0.573411
C33	C	1.016512	-0.950657	-0.573383
C34	C	1.157756	-0.895794	-0.371960
C35	C	1.204869	-0.950651	-0.304839
C36	C	1.204914	-1.060375	-0.304872
C37	C	1.157846	-1.115242	-0.372025
C38	C	1.255527	-0.506072	-0.506256
C39	C	1.337326	-0.506080	-0.506269
C40	C	1.063621	-0.505952	-0.780258
C41	C	1.063641	-0.505908	-0.897035
C42	C	1.063638	-0.232020	-0.506270
C43	C	1.063665	-0.115243	-0.506289
C44	C	1.016572	-0.573068	-0.951880
C45	C	1.016599	-0.573030	-1.061604
C46	C	1.110766	-0.438663	-1.061629
C47	C	1.110743	-0.438707	-0.951907
C48	C	0.969471	-0.640269	-0.897009
C49	C	0.922397	-0.707434	-0.951854
C50	C	0.922424	-0.707396	-1.061578
C51	C	0.969525	-0.640193	-1.116457
C52	C	1.063570	-0.506079	-0.233258
C53	C	1.063692	-0.505826	-0.116482
H54	H	1.243194	-0.905972	-0.250171
O55	O	0.488056	-0.373551	-0.374049
C56	C	0.411982	-0.387961	-0.388456
H57	H	0.401483	-0.469084	-0.422724
H58	H	0.390197	-0.325713	-0.444516
C59	C	0.385386	-0.278572	-0.240087
C60	C	0.372491	-0.378211	-0.282167
H61	H	0.361025	-0.272553	-0.174524
H62	H	0.436639	-0.268859	-0.230382
H63	H	0.367232	-0.226709	-0.286813
H64	H	0.390653	-0.430071	-0.235447
H65	H	0.321240	-0.387932	-0.291862
O66	O	0.639697	-0.638556	-0.638615
C67	C	0.620935	-0.615728	-0.743364
H68	H	0.599821	-0.531803	-0.748806
H69	H	0.576322	-0.672089	-0.770738
C70	C	0.715161	-0.731101	-0.806774
C71	C	0.689234	-0.628021	-0.813459
H72	H	0.757289	-0.738688	-0.850013
H73	H	0.727800	-0.746485	-0.736203
H74	H	0.677977	-0.778057	-0.829584
H75	H	0.726414	-0.581068	-0.790636
H76	H	0.676602	-0.612629	-0.884028
O77	O	0.639575	-0.373406	-0.373892
C78	C	0.589170	-0.314019	-0.314708
H79	H	0.534375	-0.357051	-0.310998
H80	H	0.581018	-0.234271	-0.353317
C81	C	0.686439	-0.245893	-0.207473
C82	C	0.619141	-0.298749	-0.202909
H83	H	0.704927	-0.236469	-0.138511
H84	H	0.720399	-0.285899	-0.247348
H85	H	0.679637	-0.179442	-0.239651
H86	H	0.625946	-0.365204	-0.170743
H87	H	0.585183	-0.258753	-0.163025
H88	H	1.243281	-1.105036	-0.250226
O89	O	0.488182	-0.638531	-0.638592
C90	C	0.443742	-0.578801	-0.706542
H91	H	0.466918	-0.496060	-0.713171
H92	H	0.385483	-0.575149	-0.674074
C93	C	0.414126	-0.731882	-0.807533
C94	C	0.442594	-0.630260	-0.815680
H95	H	0.413414	-0.763626	-0.874853
H96	H	0.444063	-0.772125	-0.761751
H97	H	0.365579	-0.728824	-0.780472
H98	H	0.491143	-0.633320	-0.842728
H99	H	0.412664	-0.590019	-0.861469
H100	H	0.978232	-1.105061	-0.628083
H101	H	1.157722	-0.806451	-0.371923
H102	H	1.149112	-0.383948	-1.106320
H103	H	0.969443	-0.640307	-0.807666
O104	O	1.156545	-0.373620	-0.898580
C105	C	1.204035	-0.433475	-0.835093
H106	H	1.208561	-0.516208	-0.868152
H107	H	1.181264	-0.437125	-0.751934
C108	C	1.274997	-0.280554	-0.792819
C109	C	1.280560	-0.382166	-0.833427
H110	H	1.322201	-0.248903	-0.791786
H111	H	1.243001	-0.240227	-0.835587
H112	H	1.256018	-0.283609	-0.723523
H113	H	1.299530	-0.379108	-0.902726
H114	H	1.312561	-0.422491	-0.790670
O115	O	0.970686	-0.897525	-0.638616
C116	C	0.929164	-0.969471	-0.697911
H117	H	0.926649	-1.047720	-0.654893
H118	H	0.956096	-0.981053	-0.777734
C119	C	0.853910	-0.830606	-0.765798
C120	C	0.850817	-0.926710	-0.712958
H121	H	0.805583	-0.804229	-0.775085
H122	H	0.881886	-0.782134	-0.725854
H123	H	0.876357	-0.840271	-0.832312
H124	H	0.828379	-0.917042	-0.646441
H125	H	0.822836	-0.975181	-0.752892
O126	O	1.157963	-1.221829	-0.371897
C127	C	1.209654	-1.258486	-0.298285
H128	H	1.219958	-1.195295	-0.236894
H129	H	1.263308	-1.277852	-0.340021
C130	C	1.167067	-1.435339	-0.319825
C131	C	1.179718	-1.357731	-0.244419
H132	H	1.148604	-1.496560	-0.286600
H133	H	1.132244	-1.410644	-0.369422
H134	H	1.211782	-1.451464	-0.354599
H135	H	1.135002	-1.341597	-0.209656
H136	H	1.214534	-1.382425	-0.194814
H137	H	0.884054	-0.762154	-0.907165
O138	O	0.876633	-0.772673	-1.114694
C139	C	0.835073	-0.832011	-1.042730
H140	H	0.832519	-0.789005	-0.964524
H141	H	0.861997	-0.911813	-1.031048
C142	C	0.759889	-0.899944	-1.181600
C143	C	0.756748	-0.847119	-1.085548
H144	H	0.711576	-0.909268	-1.208012
H145	H	0.787891	-0.859970	-1.230084
H146	H	0.782330	-0.966440	-1.171851
H147	H	0.734316	-0.780619	-1.095300
H148	H	0.728740	-0.887082	-1.037066
O149	O	0.969439	-0.640260	-1.223044
C150	C	0.917812	-0.713974	-1.259688
H151	H	0.874795	-0.728704	-1.196456
H152	H	0.946980	-0.790579	-1.279140
C153	C	0.932961	-0.653025	-1.436519
C154	C	0.880122	-0.671110	-1.358860
H155	H	0.909714	-0.626588	-1.497696
H156	H	0.967745	-0.603365	-1.411833
H157	H	0.957264	-0.716867	-1.452716
H158	H	0.855827	-0.607266	-1.342655
H159	H	0.845333	-0.720758	-1.383546
