data_functionalizedCrystal
_audit_creation_method	'MofGen! by Chris Wilmer'
_symmetry_space_group_name_H-M	'P1'
_symmetry_Int_Tables_number	1
_symmetry_cell_setting	triclinic
loop_
_symmetry_equiv_pos_as_xyz
  x,y,z
_cell_length_a	27.732048
_cell_length_b	27.732048
_cell_length_c	13.448316
_cell_angle_alpha	89.988441
_cell_angle_beta	89.998727
_cell_angle_gamma	82.642655
loop_
_atom_site_label
_atom_site_type_symbol
_atom_site_fract_x
_atom_site_fract_y
_atom_site_fract_z
O1	O	0.640929	0.057518	-0.082574
O2	O	0.974262	0.390851	0.250759
O3	O	1.307595	0.724185	0.584092
O4	O	0.500135	0.066264	-0.082606
O5	O	0.833468	0.399597	0.250727
O6	O	1.166802	0.732930	0.584061
O7	O	0.574905	-0.008506	-0.082570
O8	O	0.908238	0.324827	0.250763
O9	O	1.241571	0.658161	0.584096
O10	O	0.566159	0.132288	-0.082610
O11	O	0.899492	0.465621	0.250723
O12	O	1.232826	0.798954	0.584057
O13	O	0.574895	-0.008510	0.082814
O14	O	0.908229	0.324823	0.416147
O15	O	1.241562	0.658156	0.749480
O16	O	0.500126	0.066259	0.082778
O17	O	0.833459	0.399592	0.416111
O18	O	1.166792	0.732926	0.749445
O19	O	0.640919	0.057514	0.082810
O20	O	0.974253	0.390847	0.416143
O21	O	1.307586	0.724180	0.749476
Cu22	Cu	0.570522	0.061886	0.097895
Cu23	Cu	0.903855	0.395219	0.431228
Cu24	Cu	1.237188	0.728553	0.764561
Cu25	Cu	0.570533	0.061891	-0.097691
Cu26	Cu	0.903866	0.395225	0.235642
Cu27	Cu	1.237199	0.728558	0.568976
O28	O	0.566150	0.132283	0.082774
O29	O	0.899483	0.465616	0.416107
O30	O	1.232816	0.798950	0.749440
C31	C	0.482124	0.066078	0.000082
C32	C	0.815457	0.399411	0.333416
C33	C	1.148790	0.732744	0.666749
C34	C	0.428469	0.065525	0.000071
C35	C	0.761802	0.398858	0.333404
C36	C	1.095135	0.732192	0.666738
C37	C	0.089654	0.106229	0.000103
C38	C	0.422987	0.439562	0.333436
C39	C	0.756320	0.772895	0.666769
C40	C	-0.112006	0.104178	0.000112
C41	C	0.221327	0.437511	0.333445
C42	C	0.554661	0.770844	0.666779
O43	O	-0.143262	0.141398	0.000145
O44	O	0.190072	0.474732	0.333478
O45	O	0.523405	0.808065	0.666811
N46	N	-0.131130	0.059843	0.000123
N47	N	0.202204	0.393176	0.333456
N48	N	0.535537	0.726509	0.666789
C49	C	-0.099835	0.016017	0.000138
C50	C	0.233498	0.349350	0.333471
C51	C	0.566832	0.682684	0.666804
O52	O	-0.120728	-0.021740	0.000157
O53	O	0.212605	0.311593	0.333491
O54	O	0.545938	0.644927	0.666824
C55	C	0.101824	0.018068	0.000135
C56	C	0.435157	0.351402	0.333469
C57	C	0.768490	0.684735	0.666802
C58	C	0.120944	0.062407	0.000115
C59	C	0.454278	0.395740	0.333448
C60	C	0.787611	0.729073	0.666781
C61	C	0.108775	0.150563	0.000083
C62	C	0.442108	0.483897	0.333416
C63	C	0.775442	0.817230	0.666750
C64	C	0.159187	0.151075	0.000075
C65	C	0.492520	0.484409	0.333408
C66	C	0.825853	0.817742	0.666742
C67	C	0.190477	0.107253	0.000087
C68	C	0.523811	0.440587	0.333420
C69	C	0.857144	0.773920	0.666754
C70	C	0.171356	0.062919	0.000107
C71	C	0.504690	0.396252	0.333440
C72	C	0.838023	0.729585	0.666773
C73	C	0.133117	-0.025757	0.000157
C74	C	0.466451	0.307577	0.333491
C75	C	0.799784	0.640910	0.666824
C76	C	0.183535	-0.025240	0.000159
C77	C	0.516868	0.308094	0.333493
C78	C	0.850201	0.641427	0.666826
C79	C	0.202655	0.019098	0.000139
C80	C	0.535989	0.352432	0.333472
C81	C	0.869322	0.685765	0.666805
C82	C	0.253059	0.019609	0.000111
C83	C	0.586392	0.352942	0.333444
C84	C	0.919725	0.686276	0.666778
N85	N	0.272183	0.063944	0.000100
N86	N	0.605516	0.397277	0.333433
N87	N	0.938849	0.730611	0.666767
C88	C	0.240892	0.107766	0.000088
C89	C	0.574225	0.441100	0.333422
C90	C	0.907559	0.774433	0.666755
C91	C	-0.205709	0.014943	0.000137
C92	C	0.127624	0.348276	0.333470
C93	C	0.460957	0.681610	0.666804
C94	C	-0.256124	0.014430	0.000136
C95	C	0.077210	0.347763	0.333469
C96	C	0.410543	0.681097	0.666802
C97	C	-0.268291	0.102591	0.000112
C98	C	0.065042	0.435924	0.333445
C99	C	0.398376	0.769258	0.666779
C100	C	-0.217876	0.103104	0.000106
C101	C	0.115458	0.436437	0.333439
C102	C	0.448791	0.769770	0.666773
C103	C	-0.186585	0.059278	0.000126
C104	C	0.146748	0.392612	0.333460
C105	C	0.480081	0.725945	0.666793
C106	C	0.346761	0.108839	0.000071
C107	C	0.680094	0.442172	0.333404
C108	C	1.013428	0.775505	0.666738
C109	C	0.397178	0.109347	0.000059
C110	C	0.730511	0.442681	0.333392
C111	C	1.063845	0.776014	0.666726
C112	C	0.409341	0.021186	0.000088
C113	C	0.742674	0.354520	0.333421
C114	C	1.076008	0.687853	0.666755
C115	C	0.358929	0.020678	0.000095
C116	C	0.692262	0.354011	0.333428
C117	C	1.025595	0.687344	0.666761
C118	C	0.327639	0.064508	0.000090
C119	C	0.660973	0.397841	0.333423
C120	C	0.994306	0.731175	0.666756
O121	O	0.284343	-0.017592	0.000090
O122	O	0.617676	0.315741	0.333423
O123	O	0.951009	0.649075	0.666756
O124	O	0.261794	0.145518	0.000091
O125	O	0.595128	0.478851	0.333424
O126	O	0.928461	0.812184	0.666757
C127	C	0.039242	0.105716	0.000110
C128	C	0.372575	0.439050	0.333444
C129	C	0.705908	0.772383	0.666777
C130	C	0.020120	0.061382	0.000130
C131	C	0.353454	0.394715	0.333463
C132	C	0.686787	0.728049	0.666797
C133	C	0.051411	0.017560	0.000142
C134	C	0.384744	0.350893	0.333475
C135	C	0.718078	0.684226	0.666809
C136	C	-0.030294	0.060869	0.000129
C137	C	0.303039	0.394202	0.333462
C138	C	0.636373	0.727536	0.666796
C139	C	-0.061585	0.104691	0.000117
C140	C	0.271749	0.438025	0.333450
C141	C	0.605082	0.771358	0.666784
C142	C	-0.042461	0.149026	0.000106
C143	C	0.290872	0.482360	0.333440
C144	C	0.624206	0.815693	0.666773
C145	C	0.007951	0.149539	0.000098
C146	C	0.341284	0.482872	0.333432
C147	C	0.674618	0.816205	0.666765
C148	C	0.032287	-0.026775	0.000153
C149	C	0.365621	0.306558	0.333486
C150	C	0.698954	0.639891	0.666819
C151	C	-0.018125	-0.027284	0.000159
C152	C	0.315208	0.306049	0.333493
C153	C	0.648541	0.639383	0.666826
C154	C	-0.049416	0.016538	0.000148
C155	C	0.283917	0.349871	0.333481
C156	C	0.617251	0.683205	0.666814
C157	C	0.574716	-0.026515	0.000124
C158	C	0.908050	0.306818	0.333458
C159	C	1.241383	0.640152	0.666791
C160	C	0.574164	-0.080170	0.000132
C161	C	0.907497	0.253163	0.333466
C162	C	1.240830	0.586497	0.666799
C163	C	0.614867	-0.418985	0.000091
C164	C	0.948201	-0.085652	0.333424
C165	C	1.281534	0.247682	0.666757
C166	C	0.612816	-0.620645	0.000076
C167	C	0.946150	-0.287311	0.333410
C168	C	1.279483	0.046022	0.666743
O169	O	0.650037	-0.651900	0.000041
O170	O	0.983370	-0.318567	0.333374
O171	O	1.316704	0.014766	0.666708
N172	N	0.568481	-0.639768	0.000067
N173	N	0.901814	-0.306435	0.333401
N174	N	1.235148	0.026898	0.666734
C175	C	0.524656	-0.608474	0.000055
C176	C	0.857989	-0.275140	0.333389
C177	C	1.191322	0.058193	0.666722
O178	O	0.486899	-0.629367	0.000037
O179	O	0.820232	-0.296033	0.333370
O180	O	1.153565	0.037300	0.666704
C181	C	0.526707	-0.406815	0.000062
C182	C	0.860040	-0.073482	0.333396
C183	C	1.193374	0.259852	0.666729
C184	C	0.571045	-0.387694	0.000082
C185	C	0.904378	-0.054361	0.333415
C186	C	1.237712	0.278972	0.666748
C187	C	0.659202	-0.399864	0.000109
C188	C	0.992535	-0.066530	0.333442
C189	C	1.325868	0.266803	0.666775
C190	C	0.659714	-0.349452	0.000118
C191	C	0.993047	-0.016118	0.333451
C192	C	1.326381	0.317215	0.666784
C193	C	0.615892	-0.318161	0.000109
C194	C	0.949225	0.015172	0.333442
C195	C	1.282559	0.348506	0.666775
C196	C	0.571557	-0.337282	0.000091
C197	C	0.904891	-0.003949	0.333424
C198	C	1.238224	0.329384	0.666757
C199	C	0.482882	-0.375521	0.000043
C200	C	0.816215	-0.042188	0.333377
C201	C	1.149549	0.291145	0.666710
C202	C	0.483399	-0.325104	0.000043
C203	C	0.816732	0.008229	0.333376
C204	C	1.150066	0.341563	0.666709
C205	C	0.527737	-0.305983	0.000062
C206	C	0.861070	0.027350	0.333395
C207	C	1.194404	0.360683	0.666728
C208	C	0.528247	-0.255580	0.000091
C209	C	0.861581	0.077754	0.333424
C210	C	1.194914	0.411087	0.666757
N211	N	0.572583	-0.236456	0.000100
N212	N	0.905916	0.096877	0.333433
N213	N	1.239249	0.430211	0.666766
C214	C	0.616405	-0.267747	0.000109
C215	C	0.949738	0.065587	0.333442
C216	C	1.283072	0.398920	0.666775
C217	C	0.523582	-0.714348	0.000053
C218	C	0.856915	-0.381014	0.333387
C219	C	1.190248	-0.047681	0.666720
C220	C	0.523069	-0.764762	0.000053
C221	C	0.856402	-0.431429	0.333387
C222	C	1.189735	-0.098096	0.666720
C223	C	0.611230	-0.776930	0.000073
C224	C	0.944563	-0.443596	0.333406
C225	C	1.277896	-0.110263	0.666739
C226	C	0.611742	-0.726514	0.000080
C227	C	0.945075	-0.393181	0.333413
C228	C	1.278409	-0.059848	0.666746
C229	C	0.567917	-0.695224	0.000062
C230	C	0.901250	-0.361891	0.333396
C231	C	1.234583	-0.028557	0.666729
C232	C	0.617477	-0.161878	0.000128
C233	C	0.950811	0.171456	0.333462
C234	C	1.284144	0.504789	0.666795
C235	C	0.617986	-0.111461	0.000141
C236	C	0.951319	0.221873	0.333475
C237	C	1.284652	0.555206	0.666808
C238	C	0.529825	-0.099298	0.000117
C239	C	0.863158	0.234036	0.333450
C240	C	1.196492	0.567369	0.666784
C241	C	0.529316	-0.149710	0.000109
C242	C	0.862650	0.183623	0.333443
C243	C	1.195983	0.516957	0.666776
C244	C	0.573147	-0.180999	0.000111
C245	C	0.906480	0.152334	0.333445
C246	C	1.239813	0.485667	0.666778
O247	O	0.491047	-0.224296	0.000115
O248	O	0.824380	0.109038	0.333448
O249	O	1.157713	0.442371	0.666781
O250	O	0.654156	-0.246844	0.000105
O251	O	0.987490	0.086489	0.333438
O252	O	1.320823	0.419823	0.666771
C253	C	0.614355	-0.469397	0.000082
C254	C	0.947688	-0.136064	0.333415
C255	C	1.281022	0.197270	0.666748
C256	C	0.570021	-0.488518	0.000064
C257	C	0.903354	-0.155185	0.333397
C258	C	1.236687	0.178148	0.666730
C259	C	0.526198	-0.457228	0.000055
C260	C	0.859532	-0.123894	0.333388
C261	C	1.192865	0.209439	0.666721
C262	C	0.569508	-0.538933	0.000064
C263	C	0.902841	-0.205599	0.333397
C264	C	1.236174	0.127734	0.666730
C265	C	0.613330	-0.570223	0.000073
C266	C	0.946663	-0.236890	0.333406
C267	C	1.279996	0.096443	0.666739
C268	C	0.657665	-0.551100	0.000082
C269	C	0.990998	-0.217766	0.333415
C270	C	1.324332	0.115567	0.666748
C271	C	0.658177	-0.500688	0.000091
C272	C	0.991511	-0.167354	0.333424
C273	C	1.324844	0.165979	0.666757
C274	C	0.481863	-0.476351	0.000046
C275	C	0.815197	-0.143018	0.333379
C276	C	1.148530	0.190315	0.666712
C277	C	0.481355	-0.526764	0.000038
C278	C	0.814688	-0.193430	0.333371
C279	C	1.148021	0.139903	0.666704
C280	C	0.525177	-0.558054	0.000047
C281	C	0.858510	-0.224721	0.333380
C282	C	1.191843	0.108612	0.666713
C283	C	0.658931	0.057699	0.000119
C284	C	0.992264	0.391033	0.333453
C285	C	1.325598	0.724366	0.666786
C286	C	0.712586	0.058252	0.000124
C287	C	1.045919	0.391586	0.333457
C288	C	1.379252	0.724919	0.666791
C289	C	0.566338	0.150292	0.000077
C290	C	0.899671	0.483626	0.333410
C291	C	1.233005	0.816959	0.666744
C292	C	0.566891	0.203947	0.000062
C293	C	0.900224	0.537280	0.333396
C294	C	1.233557	0.870614	0.666729
N295	N	0.570518	0.061882	0.235459
N296	N	0.903851	0.395215	0.568792
N297	N	1.237184	0.728549	0.902126
N298	N	0.570541	0.061891	-0.235255
N299	N	0.903874	0.395225	0.098078
N300	N	1.237207	0.728558	0.431411
C301	C	0.603636	0.028787	0.287515
C302	C	0.936969	0.362121	0.620848
C303	C	1.270302	0.695454	0.954182
C304	C	0.603639	0.028787	0.391618
C305	C	0.936972	0.362120	0.724952
C306	C	1.270305	0.695454	1.058285
C307	C	0.570525	0.061884	0.443663
C308	C	0.903859	0.395217	0.776997
C309	C	1.237192	0.728550	1.110330
C310	C	0.537404	0.094980	0.391600
C311	C	0.870737	0.428313	0.724933
C312	C	1.204071	0.761646	1.058267
C313	C	0.537399	0.094978	0.287499
C314	C	0.870732	0.428311	0.620832
C315	C	1.204066	0.761644	0.954165
C316	C	0.537417	0.094983	0.608580
C317	C	0.870751	0.428316	0.941913
C318	C	1.204084	0.761650	1.275247
C319	C	0.537423	0.094986	0.712689
C320	C	0.870756	0.428319	1.046022
C321	C	1.204089	0.761653	1.379355
C322	C	0.603657	0.028792	0.712700
C323	C	0.936990	0.362126	1.046033
C324	C	1.270324	0.695459	1.379366
C325	C	0.603652	0.028790	0.608598
C326	C	0.936985	0.362123	0.941932
C327	C	1.270319	0.695457	1.275265
C328	C	0.570531	0.061887	0.556542
C329	C	0.903864	0.395220	0.889875
C330	C	1.237198	0.728554	1.223209
H331	H	-0.271687	-0.021674	0.000137
H332	H	0.061646	0.311659	0.333471
H333	H	0.394980	0.644992	0.666804
H334	H	0.412743	0.145454	0.000041
H335	H	0.746076	0.478787	0.333375
H336	H	1.079410	0.812121	0.666708
F337	F	0.638886	-0.006436	0.447021
F338	F	0.972219	0.326897	0.780354
F339	F	1.305552	0.660230	1.113687
F340	F	0.216833	-0.071886	0.000183
F341	F	0.550167	0.261447	0.333517
F342	F	0.883500	0.594781	0.666850
H343	H	0.447710	-0.299629	0.000027
H344	H	0.781043	0.033704	0.333360
H345	H	1.114377	0.367037	0.666694
H346	H	0.117558	-0.061861	0.000175
H347	H	0.450892	0.271472	0.333509
H348	H	0.784225	0.604805	0.666842
F349	F	0.338578	-0.026511	0.000118
F350	F	0.671911	0.306822	0.333451
F351	F	1.005245	0.640155	0.666784
H352	H	-0.293777	0.138273	0.000102
H353	H	0.039557	0.471606	0.333436
H354	H	0.372890	0.804939	0.666769
F355	F	0.665178	-0.091114	0.000161
F356	F	0.998512	0.242219	0.333495
F357	F	1.331845	0.575552	0.666828
H358	H	-0.180236	-0.020747	0.000153
H359	H	0.153097	0.312586	0.333487
H360	H	0.486430	0.645920	0.666820
H361	H	-0.202311	0.139207	0.000095
H362	H	0.131022	0.472541	0.333428
H363	H	0.464355	0.805874	0.666761
H364	H	0.510440	0.121926	0.433981
H365	H	0.843774	0.455260	0.767314
H366	H	1.177107	0.788593	1.100648
F367	F	0.502178	0.130212	0.768072
F368	F	0.835512	0.463545	1.101405
F369	F	1.168845	0.796878	1.434738
F370	F	0.638907	-0.006431	0.768106
F371	F	0.972240	0.326903	1.101439
F372	F	1.305574	0.660236	1.434772
H373	H	-0.067947	0.184708	0.000092
H374	H	0.265386	0.518041	0.333426
H375	H	0.598720	0.851375	0.666759
F376	F	0.442651	-0.025450	0.000102
F377	F	0.775985	0.307884	0.333436
F378	F	1.109318	0.641217	0.666769
H379	H	0.510430	0.121926	0.245115
H380	H	0.843764	0.455259	0.578449
H381	H	1.177097	0.788592	0.911782
H382	H	0.321291	0.144530	0.000070
H383	H	0.654624	0.477863	0.333403
H384	H	0.987957	0.811196	0.666737
F385	F	0.075480	0.197209	0.000070
F386	F	0.408813	0.530542	0.333403
F387	F	0.742146	0.863876	0.666737
H388	H	0.695819	-0.333889	0.000129
H389	H	1.029152	-0.000555	0.333462
H390	H	1.362485	0.332778	0.666796
F391	F	0.658932	-0.706169	0.000100
F392	F	0.992265	-0.372836	0.333433
F393	F	1.325599	-0.039503	0.666766
F394	F	0.502164	0.130208	0.553182
F395	F	0.835497	0.463541	0.886516
F396	F	1.168831	0.796874	1.219849
F397	F	0.028294	0.196730	0.000076
F398	F	0.361627	0.530063	0.333410
F399	F	0.694961	0.863396	0.666743
F400	F	0.179530	0.198267	0.000058
F401	F	0.512863	0.531600	0.333391
F402	F	0.846197	0.864933	0.666724
H403	H	-0.033688	-0.063392	0.000169
H404	H	0.299645	0.269941	0.333502
H405	H	0.632979	0.603275	0.666835
H406	H	0.057760	-0.062462	0.000165
H407	H	0.391093	0.270872	0.333498
H408	H	0.724427	0.604205	0.666832
H409	H	0.446777	-0.391080	0.000022
H410	H	0.780111	-0.057747	0.333355
H411	H	1.113444	0.275586	0.666688
H412	H	0.653168	-0.187348	0.000126
H413	H	0.986501	0.145985	0.333460
H414	H	1.319835	0.479319	0.666793
F415	F	0.475878	-0.785106	0.000051
F416	F	0.809211	-0.451773	0.333384
F417	F	1.142545	-0.118439	0.666718
H418	H	0.694889	-0.425336	0.000112
H419	H	1.028223	-0.092003	0.333446
H420	H	1.361556	0.241330	0.666779
F421	F	0.657869	-0.810240	0.000080
F422	F	0.991202	-0.476907	0.333413
F423	F	1.324535	-0.143573	0.666747
F424	F	0.638897	-0.006432	0.553207
F425	F	0.972230	0.326901	0.886541
F426	F	1.305563	0.660235	1.219874
F427	F	0.482127	-0.170060	0.000107
F428	F	0.815461	0.163273	0.333440
F429	F	1.148794	0.496606	0.666773
H430	H	0.487892	-0.688875	0.000040
H431	H	0.821225	-0.355542	0.333373
H432	H	1.154558	-0.022208	0.666706
H433	H	0.494146	-0.073812	0.000113
H434	H	0.827480	0.259522	0.333447
H435	H	1.160813	0.592855	0.666780
H436	H	0.693347	-0.576585	0.000093
H437	H	1.026680	-0.243252	0.333427
H438	H	1.360013	0.090081	0.666760
F439	F	0.705368	-0.480345	0.000105
F440	F	1.038702	-0.147011	0.333438
F441	F	1.372035	0.186322	0.666772
H442	H	0.445246	-0.542327	0.000031
H443	H	0.778580	-0.208993	0.333364
H444	H	1.111913	0.124340	0.666697
H445	H	0.446177	-0.450879	0.000036
H446	H	0.779510	-0.117545	0.333369
H447	H	1.112844	0.215788	0.666703
H448	H	0.630602	0.001838	0.245147
H449	H	0.963935	0.335172	0.578480
H450	H	1.297269	0.668505	0.911813
