data_functionalizedCrystal
_audit_creation_method	'MofGen! by Chris Wilmer'
_symmetry_space_group_name_H-M	'P1'
_symmetry_Int_Tables_number	1
_symmetry_cell_setting	triclinic
loop_
_symmetry_equiv_pos_as_xyz
  x,y,z
_cell_length_a	10.967926
_cell_length_b	17.038272
_cell_length_c	10.065875
_cell_angle_alpha	99.426590
_cell_angle_beta	93.120479
_cell_angle_gamma	87.839574
loop_
_atom_site_label
_atom_site_type_symbol
_atom_site_fract_x
_atom_site_fract_y
_atom_site_fract_z
O1	O	1.626878	0.136749	0.269136
O2	O	1.277063	0.138988	0.186859
O3	O	1.449890	0.023993	0.227519
O4	O	1.454051	0.251744	0.228476
O5	O	1.416943	0.046013	0.446756
O6	O	1.244116	0.161008	0.406097
O7	O	1.593931	0.158769	0.488374
Zn8	Zn	1.413793	0.163385	0.482044
Zn9	Zn	1.457201	0.134372	0.193189
O10	O	1.421104	0.273764	0.447714
C11	C	1.215609	0.148171	0.285898
C12	C	1.081581	0.142719	0.254375
C13	C	1.429634	0.005764	0.336248
C14	C	1.418351	-0.081360	0.333594
C15	C	1.004760	0.151695	0.353893
C16	C	0.866235	0.146059	0.321314
C17	C	1.521945	-0.128434	0.357961
C18	C	1.511337	-0.210297	0.355453
C19	C	1.397135	-0.245084	0.328587
C20	C	1.293534	-0.198004	0.304215
C21	C	1.304144	-0.116143	0.306714
C22	C	1.359654	-0.491944	0.319753
C23	C	1.349051	-0.573810	0.317260
C24	C	1.566856	-0.586098	0.368496
C25	C	1.577454	-0.504235	0.371000
C26	C	1.473855	-0.457163	0.346621
C27	C	1.386289	-0.328761	0.326028
C28	C	1.484703	-0.373488	0.349171
C29	C	1.655385	0.149585	0.389331
C30	C	1.789414	0.155037	0.420846
C31	C	1.441360	0.291993	0.338982
C32	C	1.452644	0.379116	0.341627
N33	N	1.384177	0.183185	0.679182
N34	N	1.486826	0.114566	-0.003947
C35	C	1.446889	0.141256	0.761714
C36	C	1.424105	0.156501	0.913522
H37	H	0.829456	0.134200	0.211988
O38	O	1.540347	0.078753	0.706450
H39	H	1.582813	0.050353	0.789997
O40	O	1.290716	0.245690	0.734435
H41	H	1.287495	0.247860	0.845001
H42	H	1.044797	0.130860	0.145056
O43	O	0.838111	0.170748	0.565668
H44	H	0.939271	0.172716	0.568534
O45	O	1.645123	-0.090916	0.386924
H46	H	1.715377	-0.137408	0.403429
H47	H	1.275295	-0.453627	0.299902
H48	H	1.595694	-0.248622	0.375298
H49	H	1.557384	0.067377	0.954332
O50	O	1.053474	0.167408	0.498702
H51	H	1.026048	0.119085	0.551628
O52	O	1.330646	0.219016	0.968761
H53	H	1.259120	0.190680	1.017070
O54	O	1.700635	-0.466717	0.399944
H55	H	1.770893	-0.513207	0.416447
H56	H	1.651201	-0.624433	0.388342
O57	O	1.225872	-0.611336	0.288268
H58	H	1.155616	-0.564854	0.271720
O59	O	1.170351	-0.235516	0.275251
H60	H	1.180372	-0.300346	0.277626
O61	O	1.192411	-0.065363	0.280447
H62	H	1.111213	-0.103302	0.261361
O63	O	1.607881	-0.335977	0.378142
H64	H	1.604490	-0.290007	0.469867
H65	H	1.293304	-0.357093	0.304157
