data_functionalizedCrystal
_audit_creation_method	'MofGen! by Chris Wilmer'
_symmetry_space_group_name_H-M	'P1'
_symmetry_Int_Tables_number	1
_symmetry_cell_setting	triclinic
loop_
_symmetry_equiv_pos_as_xyz
  x,y,z
_cell_length_a	10.686220
_cell_length_b	10.685194
_cell_length_c	10.686551
_cell_angle_alpha	81.584560
_cell_angle_beta	90.308082
_cell_angle_gamma	99.069756
loop_
_atom_site_label
_atom_site_type_symbol
_atom_site_fract_x
_atom_site_fract_y
_atom_site_fract_z
Zn1	Zn	-1.946781	0.311311	0.540461
Zn2	Zn	-1.446781	0.811311	1.040461
Zn3	Zn	-1.911615	0.542431	0.314426
Zn4	Zn	-1.411615	1.042431	0.814426
Zn5	Zn	-1.718223	0.343976	0.344478
Zn6	Zn	-1.218223	0.843976	0.844478
Zn7	Zn	-1.718258	0.539843	0.540385
Zn8	Zn	-1.218258	1.039843	1.040385
O9	O	-1.823719	0.434390	0.434938
O10	O	-1.323719	0.934390	0.934938
O11	O	-2.118689	0.329382	0.497932
O12	O	-1.618689	0.829382	0.997932
O13	O	-1.871230	0.530859	0.141828
O14	O	-1.371230	1.030859	0.641828
O15	O	-1.763244	0.160946	0.383085
O16	O	-1.263244	0.660946	0.883085
O17	O	-2.092853	0.499185	0.331864
O18	O	-1.592853	0.999185	0.831864
O19	O	-1.931165	0.136948	0.527073
O20	O	-1.431165	0.636948	1.027073
O21	O	-1.729146	0.385055	0.163907
O22	O	-1.229146	0.885055	0.663907
O23	O	-1.541655	0.382545	0.383011
O24	O	-1.041655	0.882545	0.883011
O25	O	-1.763303	0.494775	0.716980
O26	O	-1.263303	0.994775	1.216980
O27	O	-1.541680	0.526449	0.526943
O28	O	-1.041680	1.026449	1.026943
O29	O	-1.931198	0.326873	0.717036
O30	O	-1.431198	0.826873	1.217036
O31	O	-1.871264	0.720784	0.331791
O32	O	-1.371264	1.220784	0.831791
O33	O	-1.729204	0.718883	0.497802
O34	O	-1.229204	1.218883	0.997802
C35	C	-1.796458	0.766163	0.411552
C36	C	-1.296458	1.266163	0.911552
C37	C	-1.784915	0.908084	0.401582
C38	C	-1.284915	1.408084	0.901582
C39	C	-1.495884	0.457762	0.458231
C40	C	-0.995884	0.957762	0.958231
C41	C	-1.355634	0.467788	0.468224
C42	C	-0.855634	0.967788	0.968224
C43	C	-1.851177	0.406891	0.764075
C44	C	-1.351177	0.906891	1.264075
C45	C	-1.862878	0.395173	0.904333
C46	C	-1.362878	0.895173	1.404333
C47	C	-2.152835	0.410928	0.411554
C48	C	-1.652835	0.910928	0.911554
C49	C	-2.293085	0.400930	0.401589
C50	C	-1.793085	0.900930	0.901589
C51	C	-1.851123	0.101318	0.458440
C52	C	-1.351123	0.601318	0.958440
C53	C	-1.862801	-0.040618	0.468455
C54	C	-1.362801	0.459382	0.968455
C55	C	-1.796448	0.461685	0.107083
C56	C	-1.296448	0.961685	0.607083
C57	C	-1.785022	0.473026	-0.033167
C58	C	-1.285022	0.973026	0.466833
H59	H	-1.346828	0.336021	0.336895
H60	H	-0.846828	0.836021	0.836895
N61	N	-1.690186	0.989217	0.320177
N62	N	-1.190186	1.489217	0.820177
N63	N	-1.721963	1.067188	0.231481
N64	N	-1.221963	1.567188	0.731481
H65	H	-1.655065	1.124492	0.173989
H66	H	-1.155065	1.624492	0.673989
H67	H	-1.938496	0.319554	0.958132
H68	H	-1.438496	0.819554	1.458132
H69	H	-1.301883	0.532711	0.532913
H70	H	-0.801883	1.032711	1.032913
N71	N	-1.957542	0.878261	0.549839
N72	N	-1.457542	1.378261	1.049839
N73	N	-1.967114	0.759219	0.558090
N74	N	-1.467114	1.259219	1.058090
H75	H	-2.034031	0.701918	0.615563
H76	H	-1.534031	1.201918	1.115563
N77	N	-1.690180	0.567891	0.899339
N78	N	-1.190180	1.067891	1.399339
N79	N	-1.680490	0.577598	0.781675
N80	N	-1.180490	1.077598	1.281675
H81	H	-1.613507	0.644598	0.733998
H82	H	-1.113507	1.144598	1.233998
