data_functionalizedCrystal
_audit_creation_method	'MofGen! by Chris Wilmer'
_symmetry_space_group_name_H-M	'P1'
_symmetry_Int_Tables_number	1
_symmetry_cell_setting	triclinic
loop_
_symmetry_equiv_pos_as_xyz
  x,y,z
_cell_length_a	16.956995
_cell_length_b	13.596369
_cell_length_c	16.956995
_cell_angle_alpha	89.994764
_cell_angle_beta	103.945529
_cell_angle_gamma	90.008606
loop_
_atom_site_label
_atom_site_type_symbol
_atom_site_fract_x
_atom_site_fract_y
_atom_site_fract_z
O1	O	1.055850	0.081858	-0.033194
O2	O	1.555850	0.581858	0.466806
O3	O	0.821840	0.081844	-0.061310
O4	O	1.321840	0.581844	0.438690
O5	O	0.952903	0.081848	0.069753
O6	O	1.452903	0.581848	0.569753
O7	O	0.924787	0.081854	-0.164257
O8	O	1.424787	0.581854	0.335743
O9	O	0.952891	-0.081735	0.069759
O10	O	1.452891	0.418265	0.569759
O11	O	0.821828	-0.081738	-0.061304
O12	O	1.321828	0.418262	0.438696
O13	O	1.055838	-0.081725	-0.033188
O14	O	1.555838	0.418275	0.466812
Zn15	Zn	0.938831	-0.107704	-0.047245
Zn16	Zn	1.438831	0.392296	0.452755
Zn17	Zn	0.938847	0.107824	-0.047253
Zn18	Zn	1.438847	0.607824	0.452747
O19	O	0.924775	-0.081729	-0.164251
O20	O	1.424775	0.418271	0.335749
C21	C	0.792031	0.000051	-0.062746
C22	C	1.292031	0.500051	0.437254
C23	C	0.703228	0.000046	-0.067026
C24	C	1.203228	0.500046	0.432974
C25	C	0.201818	0.000084	-0.099044
C26	C	0.701818	0.500084	0.400956
C27	C	0.285258	0.000083	-0.095016
C28	C	0.785258	0.500083	0.404984
C29	C	0.341329	0.000073	-0.019415
C30	C	0.841329	0.500073	0.480585
C31	C	0.313957	0.000075	0.052163
C32	C	0.813957	0.500075	0.552163
C33	C	0.230517	0.000083	0.048134
C34	C	0.730517	0.500083	0.548134
C35	C	0.592416	0.000056	0.000523
C36	C	1.092416	0.500056	0.500523
C37	C	0.675860	0.000045	0.004546
C38	C	1.175860	0.500045	0.504546
C39	C	0.647156	0.000054	-0.142633
C40	C	1.147156	0.500054	0.357367
C41	C	0.563717	0.000056	-0.146655
C42	C	1.063717	0.500056	0.353345
C43	C	0.536351	0.000063	-0.075077
C44	C	1.036351	0.500063	0.424923
N45	N	0.426620	0.000069	-0.015297
N46	N	0.926620	0.500069	0.484703
N47	N	0.451062	0.000074	-0.079196
N48	N	0.951062	0.500074	0.420804
N49	N	0.938826	-0.254796	-0.047239
N50	N	1.438826	0.245204	0.452761
C51	C	0.938846	-0.656087	-0.047253
C52	C	1.438846	-0.156087	0.452747
C53	C	0.938838	-0.544435	-0.047252
C54	C	1.438838	-0.044435	0.452748
C55	C	0.938836	-0.455445	-0.047247
C56	C	1.438836	0.044555	0.452753
C57	C	0.938828	-0.343786	-0.047245
C58	C	1.438828	0.156214	0.452755
C59	C	1.085647	0.000071	-0.031751
C60	C	1.585647	0.500071	0.468249
C61	C	1.174450	0.000082	-0.027471
C62	C	1.674450	0.500082	0.472529
C63	C	0.954336	0.000058	0.099559
C64	C	1.454336	0.500058	0.599559
C65	C	0.958616	0.000062	0.188362
C66	C	1.458616	0.500062	0.688362
N67	N	0.938858	0.254915	-0.047252
N68	N	1.438858	0.754915	0.452748
C69	C	0.923341	0.000064	-0.194057
C70	C	1.423341	0.500064	0.305943
C71	C	0.919062	0.000067	-0.282859
C72	C	1.419062	0.500067	0.217141
C73	C	0.990634	0.000067	0.689772
C74	C	1.490634	0.500067	1.189772
C75	C	0.986607	0.000061	0.606332
C76	C	1.486607	0.500061	1.106332
C77	C	0.911006	0.000061	0.550261
C78	C	1.411006	0.500061	1.050261
C79	C	0.839428	0.000058	0.577634
C80	C	1.339428	0.500058	1.077634
C81	C	0.843456	0.000057	0.661073
C82	C	1.343456	0.500057	1.161073
C83	C	0.891067	0.000057	0.299174
C84	C	1.391067	0.500057	0.799174
C85	C	0.887044	0.000061	0.215730
C86	C	1.387044	0.500061	0.715730
C87	C	1.034223	0.000063	0.244434
C88	C	1.534223	0.500063	0.744434
C89	C	1.038245	0.000068	0.327873
C90	C	1.538245	0.500068	0.827873
C91	C	0.966667	0.000059	0.355239
C92	C	1.466667	0.500059	0.855239
N93	N	0.906887	0.000058	0.464971
N94	N	1.406887	0.500058	0.964971
N95	N	0.970787	0.000055	0.440528
N96	N	1.470787	0.500055	0.940528
H97	H	0.307537	0.000093	-0.153298
H98	H	0.807537	0.500093	0.346702
H99	H	1.052197	0.000075	0.735421
H100	H	1.552197	0.500075	1.235421
C101	C	1.183321	0.000048	0.347862
C102	C	1.683321	0.500048	0.847862
C103	C	1.121348	0.000055	0.389505
C104	C	1.621348	0.500055	0.889505
H105	H	1.234625	0.000035	0.385912
H106	H	1.734625	0.500035	0.885912
H107	H	1.178701	0.057092	0.314723
H108	H	1.678701	0.557092	0.814723
H109	H	1.178674	-0.056999	0.314718
H110	H	1.678674	0.443001	0.814718
H111	H	1.125992	0.057106	0.422645
H112	H	1.625992	0.557106	0.922645
H113	H	1.125971	-0.056994	0.422658
H114	H	1.625971	0.443006	0.922658
H115	H	0.570146	0.000058	0.058807
H116	H	1.070146	0.500058	0.558807
H117	H	0.832783	0.000062	0.321444
H118	H	1.332783	0.500062	0.821444
C119	C	0.797124	-0.084030	0.105241
C120	C	1.297124	0.415970	0.605241
C121	C	0.803936	0.000056	0.154094
C122	C	1.303936	0.500056	0.654094
H123	H	0.745821	-0.084026	0.067188
H124	H	1.245821	0.415974	0.567188
H125	H	0.801746	-0.141067	0.138388
H126	H	1.301746	0.358933	0.638388
H127	H	0.839179	-0.084013	0.077004
H128	H	1.339179	0.415987	0.577004
H129	H	0.761884	0.000035	0.182336
H130	H	1.261884	0.500035	0.682336
H131	H	0.799306	0.057107	0.120943
H132	H	1.299306	0.557107	0.620943
C133	C	0.767901	0.000068	0.436984
C134	C	1.267901	0.500068	0.936984
C135	C	0.756325	0.000060	0.516001
C136	C	1.256325	0.500060	1.016001
H137	H	0.716594	0.000078	0.398937
H138	H	1.216594	0.500078	0.898937
H139	H	0.797463	-0.056974	0.429208
H140	H	1.297463	0.443026	0.929208
H141	H	0.797486	0.057117	0.429213
H142	H	1.297486	0.557117	0.929213
H143	H	0.726745	-0.056993	0.523774
H144	H	1.226745	0.443007	1.023774
H145	H	0.726749	0.057108	0.523780
H146	H	1.226749	0.557108	1.023780
H147	H	0.518068	0.000067	-0.208217
H148	H	1.018068	0.500067	0.291783
H149	H	0.785174	0.000048	0.683354
H150	H	1.285174	0.500048	1.183354
H151	H	0.156169	0.000084	-0.160607
H152	H	0.656169	0.500084	0.339393
H153	H	1.092498	0.000078	0.222143
H154	H	1.592498	0.500078	0.722143
H155	H	1.044889	0.000061	0.584054
H156	H	1.544889	0.500061	1.084054
H157	H	0.721513	0.000042	0.066113
H158	H	1.221513	0.500042	0.566113
C159	C	0.724347	0.084152	-0.223485
C160	C	1.224347	0.584152	0.276515
C161	C	0.677237	0.000061	-0.221309
C162	C	1.177237	0.500061	0.278691
H163	H	0.742912	0.084161	-0.272062
H164	H	1.242912	0.584161	0.227938
H165	H	0.769679	0.084135	-0.177892
H166	H	1.269679	0.584135	0.322108
H167	H	0.692395	0.141192	-0.221992
H168	H	1.192395	0.641192	0.278008
H169	H	0.709191	-0.056978	-0.222797
H170	H	1.209191	0.443022	0.277203
H171	H	0.631899	0.000070	-0.266916
H172	H	1.131899	0.500070	0.233084
C173	C	0.454607	0.000047	0.123689
C174	C	0.954607	0.500047	0.623689
C175	C	0.375589	0.000061	0.135266
C176	C	0.875589	0.500061	0.635266
H177	H	0.492653	0.000030	0.174996
H178	H	0.992653	0.500030	0.674996
H179	H	0.462395	0.057090	0.094122
H180	H	0.962395	0.557090	0.594122
H181	H	0.462364	-0.057000	0.094110
H182	H	0.962364	0.443000	0.594110
H183	H	0.367829	0.057112	0.164840
H184	H	0.867829	0.557112	0.664840
H185	H	0.367797	-0.056988	0.164846
H186	H	0.867797	0.443012	0.664846
C187	C	0.229308	0.084164	0.172341
C188	C	0.729308	0.584164	0.672341
C189	C	0.200432	0.000080	0.126809
C190	C	0.700432	0.500080	0.626809
H191	H	0.210739	0.084161	0.220916
H192	H	0.710739	0.584161	0.720916
H193	H	0.209746	0.141202	0.141445
H194	H	0.709746	0.641202	0.641445
H195	H	0.287026	0.084145	0.185554
H196	H	0.787026	0.584145	0.685554
H197	H	0.142714	0.000102	0.113591
H198	H	0.642714	0.500102	0.613591
H199	H	0.219991	-0.056973	0.157712
H200	H	0.719991	0.443027	0.657712
