data_functionalizedCrystal
_audit_creation_method	'MofGen! by Chris Wilmer'
_symmetry_space_group_name_H-M	'P1'
_symmetry_Int_Tables_number	1
_symmetry_cell_setting	triclinic
loop_
_symmetry_equiv_pos_as_xyz
  x,y,z
_cell_length_a	16.959455
_cell_length_b	16.120484
_cell_length_c	16.120704
_cell_angle_alpha	84.364775
_cell_angle_beta	87.109401
_cell_angle_gamma	92.922454
loop_
_atom_site_label
_atom_site_type_symbol
_atom_site_fract_x
_atom_site_fract_y
_atom_site_fract_z
Zn1	Zn	1.167603	-0.356997	0.489446
Zn2	Zn	1.667603	0.143003	0.989446
Zn3	Zn	1.167531	-0.489637	0.356753
Zn4	Zn	1.667531	0.010363	0.856753
Zn5	Zn	1.042509	-0.349874	0.349691
Zn6	Zn	1.542509	0.150126	0.849691
Zn7	Zn	1.028327	-0.496723	0.496481
Zn8	Zn	1.528327	0.003277	0.996481
O9	O	1.101492	-0.423308	0.423093
O10	O	1.601492	0.076692	0.923093
O11	O	1.278203	-0.374608	0.471855
O12	O	1.778203	0.125392	0.971855
O13	O	1.156851	-0.465150	0.238852
O14	O	1.656851	0.034850	0.738852
O15	O	1.065069	-0.233851	0.362330
O16	O	1.565069	0.266149	0.862330
O17	O	1.278150	-0.472058	0.374367
O18	O	1.778150	0.027942	0.874367
O19	O	1.156975	-0.239085	0.465007
O20	O	1.656975	0.260915	0.965007
O21	O	1.064998	-0.362467	0.233663
O22	O	1.564998	0.137533	0.733663
O23	O	0.930018	-0.369338	0.369151
O24	O	1.430018	0.130662	0.869151
O25	O	1.040897	-0.484135	0.612513
O26	O	1.540897	0.015865	1.112513
O27	O	0.919599	-0.477227	0.476998
O28	O	1.419599	0.022773	0.976998
O29	O	1.143223	-0.381479	0.607344
O30	O	1.643223	0.118521	1.107344
O31	O	1.143099	-0.607544	0.381189
O32	O	1.643099	-0.107544	0.881189
O33	O	1.040827	-0.612750	0.483846
O34	O	1.540827	-0.112750	0.983846
C35	C	0.896128	-0.423279	0.423072
C36	C	1.396128	0.076721	0.923072
C37	C	0.808271	-0.423288	0.423084
C38	C	1.308271	0.076712	0.923084
C39	C	1.090437	-0.640476	0.434065
C40	C	1.590437	-0.140476	0.934065
C41	C	1.085778	-0.733383	0.438787
C42	C	1.585778	-0.233383	0.938787
C43	C	0.442192	-0.367091	0.367047
C44	C	0.942192	0.132909	0.867047
C45	C	0.431390	-0.479595	0.479190
C46	C	0.931390	0.020405	0.979190
C47	C	0.513937	-0.479583	0.479185
C48	C	1.013937	0.020417	0.979185
C49	C	0.560615	-0.423325	0.423108
C50	C	1.060615	0.076675	0.923108
C51	C	0.524746	-0.367079	0.367037
C52	C	1.024746	0.132921	0.867037
C53	C	0.549812	-0.535833	0.535248
C54	C	1.049812	-0.035833	1.035248
C55	C	0.632364	-0.535824	0.535244
C56	C	1.132364	-0.035824	1.035244
C57	C	0.679043	-0.479561	0.479171
C58	C	1.179043	0.020439	0.979171
C59	C	0.643170	-0.423312	0.423099
C60	C	1.143170	0.076688	0.923099
C61	C	0.689847	-0.367055	0.367023
C62	C	1.189847	0.132945	0.867023
C63	C	0.653975	-0.310801	0.310954
C64	C	1.153975	0.189199	0.810954
C65	C	0.571425	-0.310816	0.310964
C66	C	1.071425	0.189184	0.810964
C67	C	0.761593	-0.479546	0.479161
C68	C	1.261593	0.020454	0.979161
C69	C	0.772402	-0.367042	0.367014
C70	C	1.272402	0.132958	0.867014
C71	C	1.077276	-0.903486	0.447426
C72	C	1.577276	-0.403486	0.947426
C73	C	1.125850	-0.942289	0.398773
C74	C	1.625850	-0.442289	0.898773
C75	C	1.121119	-1.036940	0.403580
C76	C	1.621119	-0.536940	0.903580
C77	C	1.082005	-0.808827	0.442620
C78	C	1.582005	-0.308827	0.942620
C79	C	1.307658	-0.423337	0.423114
C80	C	1.807658	0.076663	0.923114
C81	C	1.395514	-0.423349	0.423123
C82	C	1.895514	0.076651	0.923123
C83	C	1.090486	-0.434392	0.641104
C84	C	1.590486	0.065608	1.141104
C85	C	1.085796	-0.439115	0.734007
C86	C	1.585796	0.060885	1.234007
C87	C	1.112612	-0.205292	0.412096
C88	C	1.612612	0.294708	0.912096
C89	C	1.117350	-0.112387	0.407409
C90	C	1.617350	0.387613	0.907409
C91	C	1.125748	-0.399001	0.942936
C92	C	1.625748	0.100999	1.442936
C93	C	1.077208	-0.447705	0.904095
C94	C	1.577208	0.052295	1.404095
C95	C	1.081988	-0.442924	0.809449
C96	C	1.581988	0.057076	1.309449
C97	C	1.120970	-0.403781	1.037590
C98	C	1.620970	0.096219	1.537590
C99	C	1.112454	-0.412293	1.205931
C100	C	1.612454	0.087707	1.705931
C101	C	1.117158	-0.407593	1.113029
C102	C	1.617158	0.092407	1.613029
H103	H	0.810402	-0.321225	0.321354
H104	H	1.310402	0.178775	0.821354
H105	H	0.790797	-0.525349	0.524809
H106	H	1.290797	-0.025349	1.024809
C107	C	0.532428	-0.249880	0.250003
C108	C	1.032428	0.250120	0.750003
C109	C	0.485351	-0.294403	0.198732
C110	C	0.985351	0.205597	0.698732
C111	C	0.449417	-0.238298	0.142560
C112	C	0.949417	0.261702	0.642560
H113	H	0.500400	-0.215130	0.280113
H114	H	1.000400	0.284870	0.780113
H115	H	0.572021	-0.216378	0.216555
H116	H	1.072021	0.283622	0.716555
H117	H	0.445764	-0.327892	0.232175
H118	H	0.945764	0.172108	0.732175
H119	H	0.517360	-0.329150	0.168603
H120	H	1.017360	0.170850	0.668603
H121	H	0.489010	-0.204795	0.109113
H122	H	0.989010	0.295205	0.609113
H123	H	0.417394	-0.203551	0.172677
H124	H	0.917394	0.296449	0.672677
H125	H	0.417478	-0.268498	0.107761
H126	H	0.917478	0.231502	0.607761
H127	H	1.032058	-0.492986	0.941923
H128	H	1.532058	0.007014	1.441923
C129	C	1.185976	-0.338541	0.892649
C130	C	1.685976	0.161459	1.392649
C131	C	1.229814	-0.294531	0.947081
C132	C	1.729814	0.205469	1.447081
C133	C	1.285297	-0.238824	0.900776
C134	C	1.785297	0.261176	1.400776
H135	H	1.220540	-0.368749	0.860217
H136	H	1.720540	0.131251	1.360217
H137	H	1.159306	-0.300386	0.856755
H138	H	1.659306	0.199614	1.356755
H139	H	1.256483	-0.332681	0.982961
H140	H	1.756483	0.167319	1.482961
H141	H	1.195272	-0.264306	0.979514
H142	H	1.695272	0.235694	1.479514
H143	H	1.258627	-0.200669	0.864882
H144	H	1.758627	0.299331	1.364882
H145	H	1.319855	-0.269038	0.868346
H146	H	1.819855	0.230962	1.368346
H147	H	1.315043	-0.208951	0.937701
H148	H	1.815043	0.291049	1.437701
H149	H	0.412981	-0.321289	0.321399
H150	H	0.912981	0.178711	0.821399
C151	C	0.704795	-0.249760	0.250164
C152	C	1.204795	0.250240	0.750164
C153	C	0.784764	-0.261785	0.262172
C154	C	1.284764	0.238215	0.762172
C155	C	0.831605	-0.205564	0.206197
C156	C	1.331605	0.294436	0.706197
H157	H	0.693576	-0.258992	0.194562
H158	H	1.193576	0.241008	0.694562
H159	H	0.693550	-0.194227	0.259662
H160	H	1.193550	0.305773	0.759662
H161	H	0.796005	-0.317305	0.252668
H162	H	1.296005	0.182695	0.752668
H163	H	0.796007	-0.252546	0.317762
H164	H	1.296007	0.247454	0.817762
H165	H	0.820360	-0.150032	0.215695
H166	H	1.320360	0.349968	0.715695
H167	H	0.820379	-0.214801	0.150598
H168	H	1.320379	0.285199	0.650598
H169	H	0.885869	-0.213710	0.214342
H170	H	1.385869	0.286290	0.714342
H171	H	1.032141	-0.941348	0.492684
H172	H	1.532141	-0.441348	0.992684
C173	C	0.380578	-0.540581	0.540033
C174	C	0.880578	-0.040581	1.040033
C175	C	0.300607	-0.528542	0.528051
C176	C	0.800607	-0.028542	1.028051
C177	C	0.253773	-0.584701	0.584095
C178	C	0.753773	-0.084701	1.084095
H179	H	0.391779	-0.596131	0.530601
H180	H	0.891779	-0.096131	1.030601
H181	H	0.391848	-0.531280	0.595615
H182	H	0.891848	-0.031280	1.095615
H183	H	0.289342	-0.537849	0.472482
H184	H	0.789342	-0.037849	0.972482
H185	H	0.289382	-0.473003	0.537490
H186	H	0.789382	0.026997	1.037490
H187	H	0.265043	-0.575400	0.639677
H188	H	0.765043	-0.075400	1.139677
H189	H	0.264981	-0.640247	0.574659
H190	H	0.764981	-0.140247	1.074659
H191	H	0.199508	-0.576534	0.575979
H192	H	0.699508	-0.076534	1.075979
C193	C	0.499224	-0.596855	0.596267
C194	C	0.999224	-0.096855	1.096267
C195	C	0.516078	-0.582990	0.678077
C196	C	1.016078	-0.082990	1.178077
C197	C	0.469491	-0.639189	0.734315
C198	C	0.969491	-0.139189	1.234315
H199	H	0.444905	-0.588851	0.588357
H200	H	0.944905	-0.088851	1.088357
H201	H	0.510521	-0.652392	0.586840
H202	H	1.010521	-0.152392	1.086840
H203	H	0.504775	-0.527467	0.687501
H204	H	1.004775	-0.027467	1.187501
H205	H	0.570388	-0.591001	0.686014
H206	H	1.070388	-0.091001	1.186014
H207	H	0.480788	-0.694726	0.724888
H208	H	0.980788	-0.194726	1.224888
H209	H	0.415175	-0.631181	0.726397
H210	H	0.915175	-0.131181	1.226397
H211	H	0.480925	-0.629795	0.789829
H212	H	0.980925	-0.129795	1.289829
H213	H	0.661564	-0.581628	0.580900
H214	H	1.161564	-0.081628	1.080900
H215	H	1.170987	-0.904424	0.353511
H216	H	1.670987	-0.404424	0.853511
