data_functionalizedCrystal
_audit_creation_method	'MofGen! by Chris Wilmer'
_symmetry_space_group_name_H-M	'P1'
_symmetry_Int_Tables_number	1
_symmetry_cell_setting	triclinic
loop_
_symmetry_equiv_pos_as_xyz
  x,y,z
_cell_length_a	6.817900
_cell_length_b	16.418049
_cell_length_c	11.102193
_cell_angle_alpha	93.887827
_cell_angle_beta	108.604059
_cell_angle_gamma	103.389670
loop_
_atom_site_label
_atom_site_type_symbol
_atom_site_fract_x
_atom_site_fract_y
_atom_site_fract_z
V1	V	-4.085012	-0.115892	-0.396705
O2	O	-4.071820	0.005563	-0.388693
O3	O	-4.035743	-0.229788	-0.394435
O4	O	-4.062193	-0.114112	-0.569520
O5	O	-4.045186	-0.110914	-0.212396
V6	V	-4.565438	-0.101364	-0.374606
O7	O	-4.353065	-0.147760	-0.445180
O8	O	-4.747583	-0.069497	-0.326131
O9	O	-4.391500	0.012532	-0.376877
O10	O	-4.696027	-0.222819	-0.382619
O11	O	-4.722661	-0.106342	-0.558916
O12	O	-4.365050	-0.103144	-0.201792
C13	C	-3.879705	-0.257554	-0.388291
C14	C	-3.920879	-0.350666	-0.387587
C15	C	-4.198616	-0.569155	-0.392347
C16	C	-4.237294	-0.656645	-0.391697
C17	C	-3.871193	-0.648100	-0.378972
C18	C	-3.832523	-0.560614	-0.379632
C19	C	-3.996238	-0.521143	-0.386313
C20	C	-4.073586	-0.696119	-0.385003
C21	C	-4.115521	-0.790979	-0.384297
C22	C	-3.954303	-0.426277	-0.387021
C23	C	-3.913444	-0.109996	-0.611627
C24	C	-3.976064	-0.109294	-0.752907
C25	C	-4.061311	-0.262706	-0.789827
C26	C	-4.133345	-0.339079	-0.874658
C27	C	-4.192183	-0.338415	-1.007401
C28	C	-4.178990	-0.261370	-1.055315
C29	C	-4.106955	-0.184997	-0.970484
C30	C	-4.048114	-0.185669	-0.837739
C31	C	-4.021724	-0.031588	-0.933565
C32	C	-3.962871	-0.032250	-0.800821
C33	C	-4.008530	0.045457	-0.981479
C34	C	-3.936480	0.121832	-0.896647
C35	C	-3.877638	0.121165	-0.763896
C36	C	-3.890836	0.044123	-0.715990
C37	C	-4.210880	0.040293	-0.383017
C38	C	-4.148945	0.133404	-0.383730
C39	C	-4.177141	-0.107263	-0.159677
C40	C	-4.093759	-0.107960	-0.018396
H41	H	-4.402088	-0.695733	-0.396613
H42	H	-3.737906	-0.680248	-0.373530
H43	H	-4.056459	0.045992	-1.089567
H44	H	-3.818996	0.183357	-0.694833
O45	O	-3.635768	-0.513982	-0.373537
C46	C	-3.256439	-0.468579	-0.252242
C47	C	-3.479123	-0.521405	-0.258960
H48	H	-3.129726	-0.474576	-0.159627
H49	H	-3.256761	-0.399249	-0.253779
H50	H	-3.217960	-0.492852	-0.338408
H51	H	-3.517741	-0.497205	-0.172813
H52	H	-3.478687	-0.590726	-0.257485
H53	H	-4.144087	-0.401807	-0.835632
O54	O	-4.236494	-0.260840	-1.184297
C55	C	-4.518363	-0.305911	-1.391063
C56	C	-4.453508	-0.306594	-1.245018
H57	H	-4.693834	-0.342883	-1.440195
H58	H	-4.412848	-0.336559	-1.430394
H59	H	-4.496443	-0.237722	-1.410705
H60	H	-4.475435	-0.374756	-1.225263
H61	H	-4.559023	-0.275897	-1.205760
H62	H	-4.013375	-0.263254	-0.681741
H63	H	-4.250842	-0.400604	-1.076472
O64	O	-3.923711	0.196592	-0.943401
C65	C	-3.976738	0.265600	-1.131551
C66	C	-3.991257	0.180875	-1.078768
H67	H	-4.031382	0.252921	-1.241002
H68	H	-3.803613	0.306524	-1.091472
H69	H	-4.084621	0.300083	-1.101246
H70	H	-3.883491	0.146322	-1.109054
H71	H	-4.164443	0.140013	-1.118841
O72	O	-3.833308	0.043523	-0.587023
C73	C	-3.551572	0.088666	-0.380215
C74	C	-3.616408	0.089403	-0.526248
H75	H	-3.376219	0.125771	-0.331033
H76	H	-3.573214	0.020502	-0.360473
H77	H	-3.657360	0.119231	-0.341020
H78	H	-3.510670	0.058878	-0.565542
H79	H	-3.594823	0.157584	-0.545903
O80	O	-4.357564	-0.530738	-0.399015
C81	C	-4.581053	-0.448338	-0.517847
C82	C	-4.400984	-0.491786	-0.510434
H83	H	-4.616244	-0.416850	-0.607936
H84	H	-4.528060	-0.398361	-0.429145
H85	H	-4.732282	-0.497697	-0.521986
H86	H	-4.249689	-0.442490	-0.506335
H87	H	-4.454155	-0.541779	-0.599133
