data_functionalizedCrystal
_audit_creation_method	'MofGen! by Chris Wilmer'
_symmetry_space_group_name_H-M	'P1'
_symmetry_Int_Tables_number	1
_symmetry_cell_setting	triclinic
loop_
_symmetry_equiv_pos_as_xyz
  x,y,z
_cell_length_a	19.805407
_cell_length_b	16.959454
_cell_length_c	16.959447
_cell_angle_alpha	89.973264
_cell_angle_beta	89.983607
_cell_angle_gamma	90.020075
loop_
_atom_site_label
_atom_site_type_symbol
_atom_site_fract_x
_atom_site_fract_y
_atom_site_fract_z
Zn1	Zn	1.034744	-0.314666	-0.446972
Zn2	Zn	1.034678	-0.446858	-0.314802
Zn3	Zn	0.921565	-0.314698	-0.314805
Zn4	Zn	0.921535	-0.446806	-0.446936
O5	O	0.978131	-0.380757	-0.380879
O6	O	1.129452	-0.332210	-0.429453
O7	O	1.019658	-0.429362	-0.204191
O8	O	0.936619	-0.204083	-0.332354
O9	O	1.129403	-0.429331	-0.332348
O10	O	1.019771	-0.204059	-0.429456
O11	O	0.936555	-0.332264	-0.204193
O12	O	0.826845	-0.332214	-0.332318
O13	O	0.936567	-0.429243	-0.557551
O14	O	0.826822	-0.429273	-0.429394
O15	O	1.019742	-0.332160	-0.557578
O16	O	1.019629	-0.557462	-0.332313
O17	O	0.936503	-0.557424	-0.429391
C18	C	0.802275	-0.380742	-0.380853
C19	C	0.727043	-0.380755	-0.380861
C20	C	0.691705	-0.431370	-0.431326
C21	C	0.621016	-0.431371	-0.431338
C22	C	0.585667	-0.380761	-0.380879
C23	C	0.621010	-0.330140	-0.330411
C24	C	0.691697	-0.330135	-0.330404
C25	C	0.335937	-0.330158	-0.330437
C26	C	0.265245	-0.330168	-0.330446
C27	C	0.265256	-0.431393	-0.431370
C28	C	0.335943	-0.431388	-0.431364
C29	C	0.371280	-0.380765	-0.380899
C30	C	0.447928	-0.380763	-0.380889
C31	C	0.509020	-0.380766	-0.380884
C32	C	0.978074	-0.586123	-0.380865
C33	C	0.978112	-0.673980	-0.380886
C34	C	0.934910	-1.045466	-0.431422
C35	C	1.021540	-1.045445	-0.330416
C36	C	1.021516	-0.962900	-0.330409
C37	C	0.978188	-0.921633	-0.380908
C38	C	0.934883	-0.962912	-0.431414
C39	C	1.064815	-0.921614	-0.279897
C40	C	1.064793	-0.839063	-0.279887
C41	C	1.021467	-0.797795	-0.330391
C42	C	0.978162	-0.839079	-0.380900
C43	C	0.934833	-0.797813	-0.431400
C44	C	0.891531	-0.839095	-0.481913
C45	C	0.891558	-0.921644	-0.481918
C46	C	1.021440	-0.715247	-0.330387
C47	C	0.934807	-0.715259	-0.431392
C48	C	1.154673	-0.380773	-0.380905
C49	C	1.229905	-0.380780	-0.380916
C50	C	0.978159	-0.380692	-0.587047
C51	C	0.978171	-0.380664	-0.674904
C52	C	0.978206	-0.174589	-0.380909
C53	C	0.978238	-0.086732	-0.380922
C54	C	0.934946	-0.431127	-1.046368
C55	C	1.021557	-0.330034	-1.046391
C56	C	1.021539	-0.330051	-0.963845
C57	C	0.978225	-0.380607	-0.922557
C58	C	0.934929	-0.431147	-0.963814
C59	C	1.064839	-0.279517	-0.922581
C60	C	1.064823	-0.279533	-0.840030
C61	C	1.021505	-0.330086	-0.798740
C62	C	0.978207	-0.380627	-0.840003
C63	C	0.934893	-0.431184	-0.798715
C64	C	0.891590	-0.481722	-0.839976
C65	C	0.891610	-0.481700	-0.922525
C66	C	1.021485	-0.330107	-0.716192
C67	C	0.934875	-0.431204	-0.716161
C68	C	0.978141	-0.380765	-0.175512
C69	C	0.978261	-0.380570	-0.087656
H70	H	0.720481	-0.472585	-0.472414
O71	O	0.370249	-0.480466	-0.480494
C72	C	0.352991	-0.463300	-0.559303
H73	H	0.333575	-0.400161	-0.563400
H74	H	0.399488	-0.470151	-0.598339
H75	H	0.311957	-0.505706	-0.579897
H76	H	1.056693	-0.681638	-0.289255
H77	H	1.100107	-0.238362	-0.956204
H78	H	1.100082	-0.238381	-0.806442
O79	O	1.106916	-0.961770	-0.230922
C80	C	1.150615	-1.009522	-0.275918
H81	H	1.154845	-0.984602	-0.338164
H82	H	1.202688	-1.010502	-0.247309
H83	H	1.129650	-1.072073	-0.278664
H84	H	0.899656	-1.079082	-0.472551
O85	O	0.230897	-0.480450	-0.480484
C86	C	0.190026	-0.435515	-0.531607
H87	H	0.211346	-0.373266	-0.536594
H88	H	0.189237	-0.464179	-0.592388
H89	H	0.136445	-0.432763	-0.507180
O90	O	1.106923	-0.799087	-0.230801
C91	C	1.145157	-0.853213	-0.186218
H92	H	1.147496	-0.912039	-0.218598
H93	H	1.198485	-0.829326	-0.177847
H94	H	1.120410	-0.862041	-0.126157
H95	H	0.899596	-0.472366	-0.682550
H96	H	1.056825	-0.288877	-1.080013
O97	O	0.849614	-0.530871	-0.799774
C98	C	0.888132	-0.581946	-0.752035
H99	H	0.939436	-0.554074	-0.739694
H100	H	0.860558	-0.592547	-0.693974
H101	H	0.895548	-0.640518	-0.783834
H102	H	1.056743	-0.288962	-0.682601
H103	H	0.856358	-0.522848	-0.956127
H104	H	0.592247	-0.472588	-0.472431
H105	H	0.236465	-0.288950	-0.289356
O106	O	1.063579	-1.085651	-0.281408
C107	C	1.054288	-1.167363	-0.292212
H108	H	1.032122	-1.178631	-0.353203
H109	H	1.104987	-1.198715	-0.286860
H110	H	1.018243	-1.190816	-0.245311
H111	H	0.899689	-0.472271	-1.079966
H112	H	0.364699	-0.288943	-0.289339
H113	H	0.592223	-0.288929	-0.289329
H114	H	0.899526	-0.681665	-0.472518
O115	O	0.725998	-0.281057	-0.281265
C116	C	0.708685	-0.298223	-0.202458
H117	H	0.689234	-0.361365	-0.198363
H118	H	0.755162	-0.291366	-0.163416
H119	H	0.667660	-0.255822	-0.181871
O120	O	0.849540	-0.798968	-0.531051
C121	C	0.888035	-0.751137	-0.582118
H122	H	0.941348	-0.775969	-0.587063
H123	H	0.863523	-0.750174	-0.642922
H124	H	0.890363	-0.688590	-0.557664
H125	H	0.856303	-0.955264	-0.523043
