data_functionalizedCrystal
_audit_creation_method	'MofGen! by Chris Wilmer'
_symmetry_space_group_name_H-M	'P1'
_symmetry_Int_Tables_number	1
_symmetry_cell_setting	triclinic
loop_
_symmetry_equiv_pos_as_xyz
  x,y,z
_cell_length_a	18.215407
_cell_length_b	15.299816
_cell_length_c	18.215399
_cell_angle_alpha	80.342622
_cell_angle_beta	90.017368
_cell_angle_gamma	80.347944
loop_
_atom_site_label
_atom_site_type_symbol
_atom_site_fract_x
_atom_site_fract_y
_atom_site_fract_z
Zn1	Zn	1.175778	-0.359136	0.466830
Zn2	Zn	1.196982	-0.509965	0.365082
Zn3	Zn	1.052713	-0.359157	0.343785
Zn4	Zn	1.073963	-0.509907	0.488104
O5	O	1.124859	-0.434541	0.415951
O6	O	1.281577	-0.379159	0.453342
O7	O	1.177825	-0.489993	0.259278
O8	O	1.051271	-0.232943	0.342291
O9	O	1.297155	-0.489972	0.378589
O10	O	1.141686	-0.232927	0.432691
O11	O	1.071832	-0.379196	0.243631
O12	O	0.952546	-0.379139	0.362920
O13	O	1.087489	-0.489873	0.588262
O14	O	0.968158	-0.489894	0.468951
O15	O	1.162291	-0.379103	0.572631
O16	O	1.198430	-0.636169	0.399218
O17	O	1.108049	-0.636126	0.489602
C18	C	0.933649	-0.434514	0.415934
C19	C	0.851851	-0.434523	0.415947
C20	C	0.655562	-0.376942	0.454962
C21	C	0.578704	-0.376949	0.454966
C22	C	0.594912	-0.492166	0.376955
C23	C	0.671768	-0.492153	0.376948
C24	C	0.702091	-0.434542	0.415956
C25	C	0.548377	-0.434563	0.415967
C26	C	0.465045	-0.434572	0.415970
C27	C	0.785428	-0.434532	0.415951
C28	C	1.157866	-0.668873	0.449046
C29	C	1.172054	-0.769121	0.463228
C30	C	1.023938	-1.052035	0.314834
C31	C	1.010604	-0.957847	0.301510
C32	C	1.050966	-0.910661	0.341938
C33	C	1.104663	-0.957672	0.395693
C34	C	1.117994	-1.051869	0.409022
C35	C	1.145022	-0.910495	0.436126
C36	C	1.198720	-0.957506	0.489881
C37	C	1.212049	-1.051694	0.503207
C38	C	1.171687	-1.098881	0.462779
C39	C	1.131691	-0.816298	0.422797
C40	C	1.225747	-0.816132	0.516986
C41	C	1.239081	-0.910320	0.530309
C42	C	1.316816	-0.434570	0.415968
C43	C	1.398617	-0.434582	0.415975
C44	C	1.124895	-0.434479	0.607895
C45	C	1.124910	-0.434453	0.689690
C46	C	1.091743	-0.199295	0.382742
C47	C	1.077631	-0.099046	0.368591
C48	C	1.124856	-0.434538	0.224744
C49	C	1.124948	-0.434311	0.142913
C50	C	1.163870	-0.376720	0.869739
C51	C	1.163875	-0.376694	0.946594
C52	C	1.085984	-0.492045	0.962859
C53	C	1.085975	-0.492067	0.886005
C54	C	1.124922	-0.434405	0.839447
C55	C	1.124936	-0.434358	0.993156
C56	C	1.124941	-0.434330	1.076486
C57	C	1.124916	-0.434432	0.756112
H58	H	1.040106	-0.833969	0.331086
H59	H	1.195580	-0.329766	0.831832
H60	H	1.282802	-0.948610	0.574077
H61	H	0.680247	-0.330028	0.486722
H62	H	1.054276	-0.538993	1.000776
N63	N	1.269929	-1.102402	0.561219
H64	H	1.293468	-1.058221	0.584816
H65	H	1.309545	-1.141494	0.536850
H66	H	0.709653	-0.539060	0.345180
H67	H	1.195588	-0.329720	0.971253
N68	N	1.186055	-1.200472	0.477162
H69	H	1.226190	-1.223096	0.517355
H70	H	1.202793	-1.223126	0.429872
H71	H	1.087969	-0.778030	0.379030
N72	N	1.043948	-0.554268	0.853324
H73	H	1.019276	-0.590793	0.894479
H74	H	1.079766	-0.596023	0.827324
N75	N	0.528525	-0.314812	0.497033
H76	H	0.543904	-0.328897	0.551586
H77	H	0.475250	-0.323578	0.491061
N78	N	0.562206	-0.554299	0.334882
H79	H	0.506458	-0.545569	0.340805
H80	H	0.584728	-0.618729	0.355348
N81	N	0.952696	-0.907144	0.243534
H82	H	0.929152	-0.951326	0.219942
H83	H	0.977144	-0.868063	0.203974
H84	H	0.991078	-1.090463	0.281927
H85	H	1.258612	-0.777714	0.549907
