data_functionalizedCrystal
_audit_creation_method	'MofGen! by Chris Wilmer'
_symmetry_space_group_name_H-M	'P1'
_symmetry_Int_Tables_number	1
_symmetry_cell_setting	triclinic
loop_
_symmetry_equiv_pos_as_xyz
  x,y,z
_cell_length_a	14.421503
_cell_length_b	17.699083
_cell_length_c	17.699083
_cell_angle_alpha	83.283015
_cell_angle_beta	90.003394
_cell_angle_gamma	89.998416
loop_
_atom_site_label
_atom_site_type_symbol
_atom_site_fract_x
_atom_site_fract_y
_atom_site_fract_z
O1	O	0.076983	-1.004080	-0.095701
O2	O	0.576983	-0.504080	0.404299
O3	O	0.077014	-0.783702	-0.108153
O4	O	0.577014	-0.283702	0.391847
O5	O	0.076990	-0.900117	0.008262
O6	O	0.576990	-0.400117	0.508262
O7	O	0.077008	-0.887665	-0.212116
O8	O	0.577008	-0.387665	0.287884
O9	O	-0.077234	-0.900098	0.008245
O10	O	0.422766	-0.400098	0.508245
O11	O	-0.077209	-0.783683	-0.108171
O12	O	0.422791	-0.283683	0.391829
O13	O	-0.077240	-1.004061	-0.095718
O14	O	0.422760	-0.504061	0.404282
Cu15	Cu	-0.091306	-0.893870	-0.101946
Cu16	Cu	0.408694	-0.393870	0.398054
Cu17	Cu	0.091081	-0.893893	-0.101925
Cu18	Cu	0.591081	-0.393893	0.398075
O19	O	-0.077216	-0.887646	-0.212134
O20	O	0.422784	-0.387646	0.287866
C21	C	-0.000094	-0.755495	-0.107716
C22	C	0.499906	-0.255495	0.392284
C23	C	-0.000082	-0.671477	-0.106377
C24	C	0.499918	-0.171477	0.393623
N25	N	-0.219588	-0.893860	-0.101960
N26	N	0.280412	-0.393860	0.398040
C27	C	-0.000122	-0.899662	0.036451
C28	C	0.499878	-0.399662	0.536451
C29	C	-0.000122	-0.898323	0.120469
C30	C	0.499878	-0.398323	0.620469
C31	C	-0.469230	-0.840020	-0.155766
C32	C	0.030770	-0.340020	0.344234
C33	C	-0.531041	-0.908383	-0.170331
C34	C	-0.031041	-0.408383	0.329669
C35	C	-0.408749	-0.893878	-0.101942
C36	C	0.091251	-0.393878	0.398058
C37	C	-0.531032	-0.825533	-0.087395
C38	C	-0.031032	-0.325533	0.412605
C39	C	-0.591471	-0.893890	-0.101926
C40	C	-0.091471	-0.393890	0.398074
C41	C	-0.469199	-0.962276	-0.116540
C42	C	0.030801	-0.462276	0.383460
C43	C	-0.469185	-0.879380	-0.033575
C44	C	0.030815	-0.379380	0.466425
C45	C	-0.530968	-0.947793	-0.048110
C46	C	-0.030968	-0.447793	0.451890
C47	C	-0.303488	-0.893870	-0.101953
C48	C	0.196512	-0.393870	0.398047
C49	C	-0.696729	-0.893905	-0.101914
C50	C	-0.196729	-0.393905	0.398086
N51	N	0.219362	-0.893910	-0.101905
N52	N	0.719362	-0.393910	0.398095
C53	C	-0.000130	-1.032268	-0.096156
C54	C	0.499870	-0.532268	0.403844
C55	C	-0.000135	-1.116286	-0.097494
C56	C	0.499865	-0.616286	0.402506
C57	C	-0.000077	-0.622856	-0.174711
C58	C	0.499923	-0.122856	0.325289
C59	C	-0.000089	-0.543913	-0.173448
C60	C	0.499911	-0.043913	0.326552
C61	C	-0.000100	-0.513592	-0.103852
C62	C	0.499900	-0.013592	0.396148
C63	C	-0.000108	-0.562219	-0.035513
C64	C	0.499892	-0.062219	0.464487
C65	C	-0.000103	-0.641161	-0.036776
C66	C	0.499897	-0.141161	0.463224
C67	C	-0.000131	-0.243856	-0.030418
C68	C	0.499869	0.256144	0.469582
C69	C	-0.000134	-0.164908	-0.029160
C70	C	0.499866	0.335092	0.470840
C71	C	-0.000118	-0.146608	-0.167090
C72	C	0.499882	0.353392	0.332910
C73	C	-0.000112	-0.225550	-0.168353
C74	C	0.499888	0.274450	0.331647
C75	C	-0.000125	-0.274170	-0.100015
C76	C	0.499875	0.225830	0.399985
C77	C	-0.000114	-0.359769	-0.101384
C78	C	0.499886	0.140231	0.398616
C79	C	-0.000105	-0.427995	-0.102481
C80	C	0.499895	0.072005	0.397519
C81	C	-0.000102	-0.888102	-0.240322
C82	C	0.499898	-0.388102	0.259678
C83	C	-0.000095	-0.889440	-0.324340
C84	C	0.499905	-0.389440	0.175660
C85	C	-0.000133	-0.966656	0.169090
C86	C	0.499867	-0.466656	0.669090
C87	C	-0.000125	-0.965394	0.248033
C88	C	0.499875	-0.465394	0.748033
C89	C	-0.000112	-0.895798	0.278354
C90	C	0.499888	-0.395798	0.778354
C91	C	-0.000098	-0.827459	0.229727
C92	C	0.499902	-0.327459	0.729727
C93	C	-0.000100	-0.828722	0.150785
C94	C	0.499900	-0.328722	0.650785
C95	C	-0.000090	-0.822364	0.548090
C96	C	0.499910	-0.322364	1.048090
C97	C	-0.000091	-0.821106	0.627038
C98	C	0.499909	-0.321106	1.127038
C99	C	-0.000115	-0.959036	0.645338
C100	C	0.499885	-0.459036	1.145338
C101	C	-0.000116	-0.960299	0.566396
C102	C	0.499884	-0.460299	1.066396
C103	C	-0.000098	-0.891961	0.517776
C104	C	0.499902	-0.391961	1.017776
C105	C	-0.000105	-0.893330	0.432177
C106	C	0.499895	-0.393330	0.932177
C107	C	-0.000111	-0.894427	0.363951
C108	C	0.499889	-0.394427	0.863951
H109	H	-0.558211	-0.920656	-0.228140
H110	H	-0.058211	-0.420656	0.271860
O111	O	-0.566661	-1.008196	0.012191
O112	O	-0.066661	-0.508196	0.512191
H113	H	-0.540781	-0.996599	0.068762
H114	H	-0.040781	-0.496599	0.568762
H115	H	-0.000068	-0.647537	-0.231384
H116	H	0.499932	-0.147537	0.268616
H117	H	-0.000130	-0.537526	0.021154
H118	H	0.499870	-0.037526	0.521154
H119	H	-0.000091	-0.773078	0.111198
H120	H	0.499909	-0.273078	0.611198
O121	O	-0.433308	-0.779750	-0.216100
O122	O	0.066692	-0.279750	0.283900
H123	H	-0.458082	-0.791978	-0.272790
H124	H	0.041918	-0.291978	0.227210
H125	H	-0.000144	-0.140225	0.027517
H126	H	0.499856	0.359775	0.527517
O127	O	-0.000093	-0.748656	0.495660
O128	O	0.499907	-0.248656	0.995660
H129	H	0.062762	-0.715343	0.506434
H130	H	0.562762	-0.215343	1.006434
O131	O	-0.433386	-1.038862	-0.132925
O132	O	0.066614	-0.538862	0.367075
H133	H	-0.356426	-1.038245	-0.132834
H134	H	0.143574	-0.538245	0.367166
O135	O	-0.433154	-0.863100	0.042974
O136	O	0.066846	-0.363100	0.542974
H137	H	-0.457872	-0.806302	0.054913
H138	H	0.042128	-0.306302	0.554913
O139	O	-0.000070	-0.746038	0.659745
O140	O	0.499930	-0.246038	1.159745
H141	H	-0.000049	-0.698730	0.612675
H142	H	0.499951	-0.198730	1.112675
H143	H	-0.000084	-0.504328	-0.229092
H144	H	0.499916	-0.004328	0.270908
O145	O	-0.567012	-0.748969	-0.071096
O146	O	-0.067012	-0.248969	0.428904
H147	H	-0.542276	-0.704363	-0.115859
H148	H	-0.042276	-0.204363	0.384141
O149	O	-0.000114	-0.258256	-0.243417
O150	O	0.499886	0.241744	0.256583
H151	H	-0.000126	-0.211183	-0.290723
H152	H	0.499874	0.288817	0.209277
O153	O	-0.000124	-0.094169	-0.240803
O154	O	0.499876	0.405831	0.259197
H155	H	-0.000144	-0.034181	-0.228237
H156	H	0.499856	0.465819	0.271763
H157	H	-0.000143	-0.283434	0.025228
H158	H	0.499857	0.216566	0.525228
H159	H	-0.000149	-1.023330	0.144409
H160	H	0.499851	-0.523330	0.644409
H161	H	-0.000106	-0.680748	0.018868
H162	H	0.499894	-0.180748	0.518868
H163	H	-0.000135	-1.021038	0.287617
H164	H	0.499865	-0.521038	0.787617
H165	H	-0.000131	-1.016971	0.541714
H166	H	0.499869	-0.516971	1.041714
O167	O	-0.000131	-1.032748	0.697778
O168	O	0.499869	-0.532748	1.197778
H169	H	0.062731	-1.035492	0.734181
H170	H	0.562731	-0.535492	1.234181
O171	O	-0.000095	-0.752391	0.262423
O172	O	0.499905	-0.252391	0.762423
H173	H	-0.000109	-0.762991	0.325485
H174	H	0.499891	-0.262991	0.825485
