data_functionalizedCrystal
_audit_creation_method	'MofGen! by Chris Wilmer'
_symmetry_space_group_name_H-M	'P1'
_symmetry_Int_Tables_number	1
_symmetry_cell_setting	triclinic
loop_
_symmetry_equiv_pos_as_xyz
  x,y,z
_cell_length_a	10.654550
_cell_length_b	15.944551
_cell_length_c	9.730223
_cell_angle_alpha	89.997716
_cell_angle_beta	89.996251
_cell_angle_gamma	83.991820
loop_
_atom_site_label
_atom_site_type_symbol
_atom_site_fract_x
_atom_site_fract_y
_atom_site_fract_z
O1	O	1.666308	0.117973	-0.114406
O2	O	1.300684	0.129213	-0.114384
O3	O	1.493480	0.001376	-0.114384
O4	O	1.473511	0.245810	-0.114407
O5	O	1.493478	0.001379	0.114196
O6	O	1.300681	0.129216	0.114196
O7	O	1.666305	0.117976	0.114174
Zn8	Zn	1.483493	0.123597	0.150477
Zn9	Zn	1.483496	0.123592	-0.150687
O10	O	1.473509	0.245813	0.114173
C11	C	1.253895	0.128389	-0.000092
C12	C	1.114484	0.125920	-0.000083
C13	C	1.034024	0.201188	-0.000110
C14	C	0.903034	0.198863	-0.000134
C15	C	0.932975	0.045995	-0.000108
C16	C	1.063963	0.048321	-0.000075
C17	C	1.084545	0.278788	-0.000118
C18	C	1.004084	0.354062	-0.000147
C19	C	0.873094	0.351737	-0.000170
C20	C	0.822564	0.274137	-0.000165
C21	C	1.492650	-0.029921	-0.000093
C22	C	1.490165	-0.123182	-0.000092
C23	C	1.364720	-0.338765	-0.000104
C24	C	1.422971	-0.399443	0.112596
C25	C	1.485668	-0.293934	-0.000103
C26	C	1.423002	-0.399430	-0.112765
C27	C	1.481317	-0.458872	-0.000119
C28	C	1.543953	-0.353384	0.112691
C29	C	1.543967	-0.353364	-0.112772
C30	C	1.602306	-0.414024	-0.000045
C31	C	1.488172	-0.198917	-0.000092
C32	C	1.478822	-0.553887	-0.000119
C33	C	1.713094	0.118800	-0.000122
C34	C	1.852505	0.121269	-0.000140
C35	C	1.474339	0.277110	-0.000120
C36	C	1.476824	0.370371	-0.000130
N37	N	1.483500	0.123599	0.356013
N38	N	1.483499	0.123583	-0.356224
C39	C	1.568892	0.067012	0.427939
C40	C	1.568889	0.067002	0.571822
C41	C	1.398098	0.180173	0.571840
C42	C	1.398096	0.180178	0.427959
C43	C	1.654296	0.010433	0.355993
C44	C	1.739696	-0.046158	0.427920
C45	C	1.739693	-0.046168	0.571803
C46	C	1.654290	0.010412	0.643759
H47	H	1.129476	-0.012970	-0.000056
H48	H	1.264327	-0.306038	0.000015
H49	H	1.328567	0.226239	0.630436
O50	O	0.883684	-0.029308	-0.000176
C51	C	0.750817	-0.015221	-0.000181
H52	H	0.720077	0.050150	-0.043465
H53	H	0.710613	-0.064917	-0.066555
H54	H	0.714322	-0.019503	0.109470
O55	O	1.605116	-0.329103	-0.226408
C56	C	1.729653	-0.368952	-0.227378
H57	H	1.734771	-0.428688	-0.162354
H58	H	1.758718	-0.386067	-0.337443
H59	H	1.796172	-0.324324	-0.183123
H60	H	1.371831	-0.419804	-0.208051
H61	H	1.371814	-0.419846	0.207881
O62	O	1.053222	0.429418	-0.000393
C63	C	1.128144	0.435325	-0.118748
H64	H	1.097184	0.391246	-0.201490
H65	H	1.116396	0.502950	-0.158497
H66	H	1.231435	0.416556	-0.091963
H67	H	1.654309	0.010437	0.238836
O68	O	1.604845	-0.329041	0.226445
C69	C	1.606429	-0.240734	0.225091
H70	H	1.525815	-0.211005	0.158302
H71	H	1.594554	-0.215351	0.334364
H72	H	1.700198	-0.224439	0.181514
H73	H	1.809222	-0.092229	0.369325
H74	H	0.807585	0.413029	-0.000180
H75	H	1.702787	-0.446602	0.000013
O76	O	1.315105	0.235230	0.358294
C77	C	1.239713	0.285158	0.452645
H78	H	1.291195	0.286427	0.555207
H79	H	1.220555	0.352121	0.411072
H80	H	1.146428	0.257303	0.467951
H81	H	1.809220	-0.092252	0.630364
O82	O	0.695311	0.271919	-0.000428
C83	C	0.643360	0.313085	-0.118807
H84	H	0.719130	0.313078	-0.201534
H85	H	0.562189	0.278595	-0.158560
H86	H	0.606753	0.380867	-0.092052
H87	H	1.654286	0.010393	0.760918
O88	O	1.211809	0.280939	0.000087
C89	C	1.263756	0.239817	0.118505
H90	H	1.197001	0.193852	0.157976
H91	H	1.358751	0.203793	0.091901
H92	H	1.277521	0.288552	0.201391
