data_functionalizedCrystal
_audit_creation_method	'MofGen! by Chris Wilmer'
_symmetry_space_group_name_H-M	'P1'
_symmetry_Int_Tables_number	1
_symmetry_cell_setting	triclinic
loop_
_symmetry_equiv_pos_as_xyz
  x,y,z
_cell_length_a	11.169417
_cell_length_b	18.101395
_cell_length_c	11.169409
_cell_angle_alpha	89.964384
_cell_angle_beta	89.979436
_cell_angle_gamma	90.031983
loop_
_atom_site_label
_atom_site_type_symbol
_atom_site_fract_x
_atom_site_fract_y
_atom_site_fract_z
Zn1	Zn	1.834798	-0.294753	-0.678515
Zn2	Zn	1.834612	-0.418619	-0.477820
Zn3	Zn	1.634081	-0.294798	-0.477849
Zn4	Zn	1.634019	-0.418559	-0.678465
O5	O	1.734377	-0.356682	-0.578162
O6	O	2.002723	-0.311190	-0.651901
O7	O	1.807960	-0.402238	-0.309874
O8	O	1.660811	-0.191159	-0.504501
O9	O	2.002586	-0.402194	-0.504451
O10	O	1.808276	-0.191126	-0.651929
O11	O	1.660630	-0.311267	-0.309896
O12	O	1.466123	-0.311209	-0.504453
O13	O	1.660704	-0.402092	-0.846421
O14	O	1.466077	-0.402135	-0.651844
O15	O	1.808216	-0.311132	-0.846458
O16	O	1.807899	-0.522244	-0.504403
O17	O	1.660524	-0.522200	-0.651816
C18	C	1.422553	-0.356671	-0.578147
C19	C	1.289153	-0.356684	-0.578169
C20	C	1.734217	-0.549093	-0.578127
C21	C	1.734258	-0.631407	-0.578152
C22	C	1.734521	-0.930498	-0.578217
C23	C	1.642012	-0.899175	-0.671195
C24	C	1.641572	-0.813558	-0.670904
C25	C	1.734391	-0.782115	-0.578186
C26	C	1.700137	-0.813278	-0.451699
C27	C	1.699541	-0.898923	-0.452255
C28	C	1.861486	-0.898837	-0.610612
C29	C	1.860740	-0.813186	-0.613386
C30	C	1.734319	-0.698256	-0.578160
C31	C	1.734590	-1.014357	-0.578234
C32	C	2.047420	-0.356694	-0.578178
C33	C	2.180820	-0.356699	-0.578185
C34	C	1.734474	-0.356600	-0.891205
C35	C	1.734515	-0.356565	-1.024605
C36	C	1.734571	-0.163520	-0.578224
C37	C	1.734654	-0.081206	-0.578250
C38	C	1.734351	-0.356710	-0.266338
C39	C	1.734542	-0.356537	-0.132938
H40	H	1.663004	-0.792485	-0.764693
H41	H	1.765397	-0.792914	-0.380534
H42	H	1.663231	-0.919714	-0.765288
H43	H	1.547463	-0.793137	-0.649447
H44	H	1.548475	-0.920765	-0.650008
F45	F	1.578231	-0.925127	-0.416386
F46	F	1.783779	-0.926012	-0.358613
H47	H	1.933311	-0.791778	-0.550600
H48	H	1.886570	-0.792814	-0.706473
F49	F	1.580109	-0.785335	-0.415185
F50	F	1.902304	-0.926990	-0.729113
F51	F	1.951579	-0.925324	-0.522112
