data_functionalizedCrystal
_audit_creation_method	'MofGen! by Chris Wilmer'
_symmetry_space_group_name_H-M	'P1'
_symmetry_Int_Tables_number	1
_symmetry_cell_setting	triclinic
loop_
_symmetry_equiv_pos_as_xyz
  x,y,z
_cell_length_a	12.827893
_cell_length_b	16.959454
_cell_length_c	12.827885
_cell_angle_alpha	89.970356
_cell_angle_beta	89.980728
_cell_angle_gamma	90.020236
loop_
_atom_site_label
_atom_site_type_symbol
_atom_site_fract_x
_atom_site_fract_y
_atom_site_fract_z
Zn1	Zn	1.597636	-0.314640	-0.590850
Zn2	Zn	2.097636	0.185360	-0.090850
Zn3	Zn	1.597515	-0.446839	-0.416110
Zn4	Zn	2.097515	0.053161	0.083890
Zn5	Zn	1.422877	-0.314679	-0.416123
Zn6	Zn	1.922877	0.185321	0.083877
Zn7	Zn	1.422848	-0.446781	-0.590810
Zn8	Zn	1.922848	0.053219	-0.090810
O9	O	1.510219	-0.380735	-0.503473
O10	O	2.010219	0.119265	-0.003473
O11	O	1.743856	-0.332185	-0.567681
O12	O	2.243856	0.167815	-0.067681
O13	O	1.574311	-0.429348	-0.269876
O14	O	2.074311	0.070652	0.230124
O15	O	1.446122	-0.204063	-0.439323
O16	O	1.946122	0.295937	0.060677
O17	O	1.743767	-0.429311	-0.439301
O18	O	2.243767	0.070689	0.060699
O19	O	1.574516	-0.204034	-0.567694
O20	O	2.074516	0.295966	-0.067694
O21	O	1.446005	-0.332251	-0.269885
O22	O	1.946005	0.167749	0.230115
O23	O	1.276637	-0.332194	-0.439285
O24	O	1.776637	0.167806	0.060715
O25	O	1.446072	-0.429211	-0.737052
O26	O	1.946072	0.070789	-0.237052
O27	O	1.276616	-0.429249	-0.567627
O28	O	1.776616	0.070751	-0.067627
O29	O	1.574488	-0.332128	-0.737081
O30	O	2.074488	0.167872	-0.237081
O31	O	1.574283	-0.557442	-0.439263
O32	O	2.074283	-0.057442	0.060737
O33	O	1.445956	-0.557399	-0.567614
O34	O	1.945956	-0.057399	-0.067614
C35	C	1.238709	-0.380720	-0.503454
C36	C	1.738709	0.119280	-0.003454
C37	C	1.122556	-0.380733	-0.503470
C38	C	1.622556	0.119267	-0.003470
C39	C	1.070815	-0.332757	-0.567095
C40	C	1.570815	0.167243	-0.067095
C41	C	0.950764	-0.332769	-0.567114
C42	C	1.450764	0.167231	-0.067114
C43	C	1.510131	-0.586101	-0.503456
C44	C	2.010131	-0.086101	-0.003456
C45	C	1.510190	-0.673957	-0.503483
C46	C	2.010190	-0.173957	-0.003483
C47	C	1.443496	-1.045441	-0.570299
C48	C	1.943496	-0.545441	-0.070299
C49	C	1.577233	-1.045425	-0.436755
C50	C	2.077233	-0.545425	0.063245
C51	C	1.577197	-0.962879	-0.436745
C52	C	2.077197	-0.462879	0.063255
C53	C	1.510308	-0.921610	-0.503512
C54	C	2.010308	-0.421610	-0.003512
C55	C	1.443455	-0.962887	-0.570289
C56	C	1.943455	-0.462887	-0.070289
C57	C	1.644041	-0.921597	-0.369962
C58	C	2.144041	-0.421597	0.130038
C59	C	1.644006	-0.839046	-0.369949
C60	C	2.144006	-0.339046	0.130051
C61	C	1.577121	-0.797775	-0.436722
C62	C	2.077121	-0.297775	0.063278
C63	C	1.510267	-0.839057	-0.503502
C64	C	2.010267	-0.339057	-0.003502
C65	C	1.443378	-0.797788	-0.570270
C66	C	1.943378	-0.297788	-0.070270
C67	C	1.376528	-0.839068	-0.637056
C68	C	1.876528	-0.339068	-0.137056
C69	C	1.376571	-0.921616	-0.637062
C70	C	1.876571	-0.421616	-0.137062
C71	C	1.577079	-0.715227	-0.436716
C72	C	2.077079	-0.215227	0.063284
C73	C	1.443337	-0.715234	-0.570260
C74	C	1.943337	-0.215234	-0.070260
C75	C	1.782789	-0.380750	-0.503494
C76	C	2.282789	0.119250	-0.003494
C77	C	1.898942	-0.380756	-0.503503
C78	C	2.398942	0.119244	-0.003503
C79	C	1.510290	-0.380659	-0.776044
C80	C	2.010290	0.119341	-0.276044
C81	C	1.510320	-0.380626	-0.892197
C82	C	2.010320	0.119374	-0.392197
C83	C	1.510335	-0.174566	-0.503514
C84	C	2.010335	0.325434	-0.003514
C85	C	1.510385	-0.086710	-0.503532
C86	C	2.010385	0.413290	-0.003532
C87	C	1.573871	-0.332577	-0.943996
C88	C	2.073871	0.167423	-0.443996
C89	C	1.573904	-0.332543	-1.064046
C90	C	2.073904	0.167457	-0.564046
C91	C	1.510208	-0.380753	-0.231964
C92	C	2.010208	0.119247	0.268036
C93	C	1.510380	-0.380563	-0.115811
C94	C	2.010380	0.119437	0.384189
H95	H	1.077977	-0.421814	-0.449009
H96	H	1.577977	0.078186	0.050991
N97	N	1.304460	-0.966137	-0.709079
N98	N	1.804460	-0.466137	-0.209079
H99	H	1.320638	-0.951735	-0.783760
H100	H	1.820638	-0.451735	-0.283760
H101	H	1.314665	-1.024679	-0.698858
H102	H	1.814665	-0.524679	-0.198858
N103	N	1.371196	-0.670724	-0.642279
N104	N	1.871196	-0.170724	-0.142279
H105	H	1.328857	-0.709403	-0.684585
H106	H	1.828857	-0.209403	-0.184585
H107	H	1.322838	-0.636523	-0.599694
H108	H	1.822838	-0.136523	-0.099694
H109	H	1.628252	-0.291463	-0.899466
H110	H	2.128252	0.208537	-0.399466
H111	H	1.455973	-0.421705	-1.071272
H112	H	1.955973	0.078295	-0.571272
H113	H	1.322061	-0.805457	-0.691414
H114	H	1.822061	-0.305457	-0.191414
N115	N	1.716186	-0.966108	-0.297961
N116	N	2.216186	-0.466108	0.202039
H117	H	1.758527	-0.927433	-0.255651
H118	H	2.258527	-0.427433	0.244349
H119	H	1.673693	-1.000408	-0.249571
H120	H	2.173693	-0.500408	0.250429
N121	N	1.649180	-0.670705	-0.364698
N122	N	2.149180	-0.170705	0.135302
H123	H	1.639008	-0.612148	-0.374825
H124	H	2.139008	-0.112148	0.125175
H125	H	1.632960	-0.685174	-0.290051
H126	H	2.132960	-0.185174	0.209949
H127	H	1.698439	-0.805440	-0.315569
H128	H	2.198439	-0.305440	0.184431
H129	H	1.628316	-0.291408	-1.108592
H130	H	2.128316	0.208592	-0.608592
N131	N	0.957858	-0.435171	-0.431338
N132	N	1.457858	0.064829	0.068662
H133	H	1.003155	-0.471804	-0.473756
H134	H	1.503155	0.028196	0.026244
H135	H	1.003070	-0.402914	-0.383030
H136	H	1.503070	0.097086	0.116970
N137	N	1.371398	-1.089957	-0.642333
N138	N	1.871398	-0.589957	-0.142333
H139	H	1.381571	-1.148514	-0.632214
H140	H	1.881571	-0.648514	-0.132214
H141	H	1.296767	-1.075576	-0.625998
H142	H	1.796767	-0.575576	-0.125998
N143	N	1.129855	-0.278340	-0.639242
N144	N	1.629855	0.221660	-0.139242
H145	H	1.078832	-0.246326	-0.681707
H146	H	1.578832	0.253674	-0.181707
H147	H	1.175131	-0.241748	-0.596741
H148	H	1.675131	0.258252	-0.096741
H149	H	0.906268	-0.291698	-0.621589
H150	H	1.406268	0.208302	-0.121589
H151	H	1.455930	-0.421732	-0.936727
H152	H	1.955930	0.078268	-0.436727
N153	N	1.649357	-1.089932	-0.364727
N154	N	2.149357	-0.589932	0.135273
H155	H	1.639233	-1.148490	-0.374861
H156	H	2.139233	-0.648490	0.125139
H157	H	1.723980	-1.075463	-0.381048
H158	H	2.223980	-0.575463	0.118952
