data_functionalizedCrystal
_audit_creation_method	'MofGen! by Chris Wilmer'
_symmetry_space_group_name_H-M	'P1'
_symmetry_Int_Tables_number	1
_symmetry_cell_setting	triclinic
loop_
_symmetry_equiv_pos_as_xyz
  x,y,z
_cell_length_a	18.760490
_cell_length_b	14.560438
_cell_length_c	14.560438
_cell_angle_alpha	60.003556
_cell_angle_beta	90.018061
_cell_angle_gamma	60.023922
loop_
_atom_site_label
_atom_site_type_symbol
_atom_site_fract_x
_atom_site_fract_y
_atom_site_fract_z
Zr1	Zr	0.686558	1.005594	-0.120327
O2	O	0.572768	1.197127	-0.266975
O3	O	0.721438	0.814020	-0.075385
O4	O	0.721441	1.005615	-0.266971
O5	O	0.572765	1.005530	0.075752
O6	O	0.838720	1.005678	-0.266953
O7	O	0.572765	1.005532	-0.075389
O8	O	0.838714	0.662950	0.075759
O9	O	0.572771	1.348258	-0.266960
O10	O	0.823841	0.892879	-0.056189
O11	O	0.736317	0.892830	0.056593
O12	O	0.736321	1.118408	-0.168975
O13	O	0.648797	1.118360	-0.056194
Zr14	Zr	0.873604	1.005690	0.120753
Zr15	Zr	0.873604	1.005694	-0.120299
Zr16	Zr	0.686558	1.005590	0.120725
Zr17	Zr	0.686562	1.246630	-0.120304
Zr18	Zr	0.873600	0.764654	0.120730
O19	O	0.838724	1.197263	0.075810
O20	O	0.838723	1.197269	-0.266935
O21	O	0.572769	1.197121	0.075770
O22	O	0.987393	0.814156	0.267400
O23	O	0.987393	0.814162	-0.075345
O24	O	0.721438	0.814015	0.267360
O25	O	0.987396	1.005754	-0.075327
O26	O	0.838720	1.005668	0.267396
O27	O	0.721442	1.005606	0.267379
O28	O	0.987397	1.005751	0.075814
O29	O	0.721447	1.348337	-0.266938
O30	O	0.838714	0.662947	0.267363
O31	O	0.987391	0.663026	0.267386
O32	O	0.987391	0.663029	0.075781
O33	O	0.572771	1.348254	-0.075356
O34	O	0.721448	1.348334	-0.075334
O35	O	0.823841	0.892875	0.169400
O36	O	0.911364	0.892924	0.056619
O37	O	0.823845	1.118453	-0.056167
O38	O	0.736321	1.118404	0.056614
C39	C	0.780076	0.704143	0.000184
C40	C	0.780074	0.601817	0.000174
C41	C	0.715476	0.540753	-0.083038
C42	C	0.715467	0.636929	-0.083075
C43	C	0.844689	0.470517	0.083472
C44	C	0.844694	0.374344	0.083512
C45	C	0.640873	0.636831	-0.179196
C46	C	0.640864	0.733007	-0.179232
C47	C	0.546115	1.005517	0.000178
C48	C	0.466709	1.005475	0.000166
C49	C	0.130722	1.005776	-0.083019
C50	C	0.130838	1.005773	0.083519
C51	C	0.205484	1.005709	0.083500
C52	C	0.242753	1.005676	0.000222
C53	C	0.205376	1.005708	-0.083038
C54	C	0.242872	1.005664	0.166765
C55	C	0.317523	1.005598	0.166751
C56	C	0.354790	1.005574	0.083467
C57	C	0.317408	1.005608	0.000203
C58	C	0.354678	1.005575	-0.083075
C59	C	0.317293	1.005617	-0.166345
C60	C	0.242644	1.005684	-0.166322
C61	C	0.429440	1.005507	0.083444
C62	C	0.429332	1.005506	-0.083094
C63	C	1.014047	1.005767	0.000248
C64	C	1.093452	1.005809	0.000259
C65	C	0.780081	1.005647	-0.301307
C66	C	0.780081	1.005649	-0.403640
C67	C	0.780086	1.307141	0.000241
C68	C	0.780088	1.409467	0.000251
C69	C	0.734393	1.123370	-0.510589
C70	C	0.734395	1.123364	-0.606738
C71	C	0.825775	0.887904	-0.488974
C72	C	0.825777	0.887912	-0.392828
C73	C	0.681632	1.259312	-0.578580
C74	C	0.681635	1.259306	-0.674729
C75	C	0.780081	1.005637	0.301732
C76	C	0.780081	1.005635	0.404065
C77	C	1.014041	0.704267	0.000219
C78	C	1.093445	0.601984	0.000221
C79	C	0.780076	0.704138	0.301703
C80	C	0.780074	0.601810	0.404026
C81	C	1.014041	0.704262	0.301738
C82	C	1.093446	0.601977	0.404073
C83	C	0.546120	1.307021	-0.301313
C84	C	0.466716	1.409307	-0.403648
C85	C	0.546121	1.307016	0.000207
C86	C	0.466717	1.409300	0.000205
C87	C	0.780086	1.307146	-0.301278
C88	C	0.780088	1.409474	-0.403601
C89	C	1.085048	0.553927	-0.058673
C90	C	1.159649	0.457834	-0.058693
C91	C	1.242647	0.409793	0.000187
C92	C	1.251043	0.457859	0.059082
C93	C	1.176442	0.553957	0.059096
C94	C	1.176429	0.553968	0.393260
C95	C	1.251044	0.457873	0.489405
C96	C	1.242675	0.409783	0.596363
C97	C	1.159683	0.457801	0.607174
C98	C	1.085069	0.553901	0.511030
C99	C	0.383733	1.457327	-0.392835
C100	C	0.309117	1.553452	-0.488980
C101	C	0.317487	1.601547	-0.595938
C102	C	0.400479	1.553523	-0.606749
C103	C	0.475093	1.457406	-0.510604
C104	C	0.475114	1.457367	0.059088
C105	C	0.400513	1.553486	0.059082
C106	C	0.317515	1.601531	0.000198
C107	C	0.309119	1.553460	-0.058692
C108	C	0.383719	1.457348	-0.058692
C109	C	0.825761	0.553754	0.510983
C110	C	0.825752	0.457612	0.607122
C111	C	0.734369	0.457584	0.489336
C112	C	0.734373	0.553732	0.393199
C113	C	0.878524	0.553766	0.578987
C114	C	0.878515	0.457623	0.675126
H115	H	0.653914	0.636812	-0.255649
F116	F	0.649270	0.815339	-0.286570
H117	H	0.459670	1.005487	-0.150913
H118	H	1.318630	0.418730	0.107020
F119	F	0.374806	1.406155	-0.279011
F120	F	0.238068	1.703843	-0.698255
F121	F	0.685732	0.406409	0.477823
F122	F	0.409467	1.604626	0.121768
F123	F	0.357304	1.005556	0.255369
F124	F	0.685733	0.604890	0.279368
H125	H	0.459878	1.005464	0.151245
H126	H	0.407283	1.592695	-0.693845
H127	H	0.581522	0.792646	-0.162445
F128	F	0.202855	1.005726	-0.254934
F129	F	0.356970	1.005571	-0.254967
F130	F	0.719987	1.327576	-0.578592
F131	F	0.563408	1.406302	-0.522130
H132	H	0.100279	1.005816	-0.150818
F133	F	0.874405	0.762607	-0.477479
H134	H	0.542689	1.418256	0.107046
F135	F	0.557590	0.650930	-0.168365
H136	H	0.376870	1.418215	-0.106639
F137	F	0.091178	1.005796	0.172151
F138	F	0.220779	1.604602	-0.121354
H139	H	0.212529	1.005681	0.234573
F140	F	0.593358	1.314327	-0.567132
F141	F	0.590328	1.327483	-0.742962
H142	H	0.849182	0.643757	0.579009
F143	F	0.874400	0.762616	-0.279004
H144	H	0.946070	0.517670	0.570265
F145	F	0.727119	1.314495	-0.741292
F146	F	0.238125	1.703821	0.000210
F147	F	0.996722	0.605042	-0.121349
F148	F	1.150789	0.406606	0.721016
F149	F	0.833026	0.504813	0.741690
F150	F	0.969822	0.340021	0.743376
F151	F	1.150695	0.406691	-0.121377
F152	F	0.913452	0.234617	0.172174
F153	F	1.322037	0.307514	0.000164
F154	F	1.185393	0.605086	0.121789
F155	F	0.220800	1.604542	-0.477451
H156	H	1.183260	0.593109	0.306178
F157	F	1.339362	0.406782	0.477876
H158	H	1.303438	0.331532	0.674641
F159	F	0.996754	0.604979	0.522555
F160	F	0.913442	0.433150	0.172080
