data_functionalizedCrystal
_audit_creation_method	'MofGen! by Chris Wilmer'
_symmetry_space_group_name_H-M	'P1'
_symmetry_Int_Tables_number	1
_symmetry_cell_setting	triclinic
loop_
_symmetry_equiv_pos_as_xyz
  x,y,z
_cell_length_a	18.215407
_cell_length_b	12.594516
_cell_length_c	18.215399
_cell_angle_alpha	90.022106
_cell_angle_beta	90.019833
_cell_angle_gamma	90.016501
loop_
_atom_site_label
_atom_site_type_symbol
_atom_site_fract_x
_atom_site_fract_y
_atom_site_fract_z
Zn1	Zn	1.125117	-0.423740	0.416146
Zn2	Zn	1.625117	0.076260	0.916146
Zn3	Zn	1.125045	-0.601738	0.293092
Zn4	Zn	1.625045	-0.101738	0.793092
Zn5	Zn	1.002050	-0.423775	0.293093
Zn6	Zn	1.502050	0.076225	0.793093
Zn7	Zn	1.002035	-0.601679	0.416117
Zn8	Zn	1.502035	-0.101679	0.916117
O9	O	1.063561	-0.512733	0.354612
O10	O	1.563561	-0.012733	0.854612
O11	O	1.228092	-0.447362	0.399834
O12	O	1.728092	0.052638	0.899834
O13	O	1.108705	-0.578170	0.190108
O14	O	1.608705	-0.078170	0.690108
O15	O	1.018412	-0.274825	0.309429
O16	O	1.518412	0.225175	0.809429
O17	O	1.228038	-0.578136	0.309427
O18	O	1.728038	-0.078136	0.809427
O19	O	1.108829	-0.274799	0.399835
O20	O	1.608829	0.225201	0.899835
O21	O	1.018341	-0.447422	0.190109
O22	O	1.518341	0.052578	0.690109
O23	O	0.899063	-0.447364	0.309401
O24	O	1.399063	0.052636	0.809401
O25	O	1.018386	-0.578035	0.519105
O26	O	1.518386	-0.078035	1.019105
O27	O	0.899052	-0.578069	0.399786
O28	O	1.399052	-0.078069	0.899786
O29	O	1.108814	-0.447305	0.519126
O30	O	1.608814	0.052695	1.019126
O31	O	1.108690	-0.750676	0.309399
O32	O	1.608690	-0.250676	0.809399
O33	O	1.018315	-0.750632	0.399785
O34	O	1.518315	-0.250632	0.899785
C35	C	0.872355	-0.512715	0.354591
C36	C	1.372355	-0.012715	0.854591
C37	C	0.790556	-0.512733	0.354599
C38	C	1.290556	-0.012733	0.854599
C39	C	1.063513	-0.789274	0.354605
C40	C	1.563513	-0.289274	0.854605
C41	C	1.063560	-0.907579	0.354626
C42	C	1.563560	-0.407579	0.854626
C43	C	0.602376	-0.580898	0.401604
C44	C	1.102376	-0.080898	0.901604
C45	C	0.525517	-0.580901	0.401613
C46	C	1.025517	-0.080901	0.901613
C47	C	0.525499	-0.444588	0.307636
C48	C	1.025499	0.055412	0.807636
C49	C	0.602356	-0.444580	0.307631
C50	C	1.102356	0.055420	0.807631
C51	C	0.640793	-0.512741	0.354614
C52	C	1.140793	-0.012741	0.854614
C53	C	0.487077	-0.512752	0.354628
C54	C	0.987077	-0.012752	0.854628
C55	C	0.403743	-0.512755	0.354638
C56	C	0.903743	-0.012755	0.854638
C57	C	0.724132	-0.512737	0.354606
C58	C	1.224132	-0.012737	0.854606
C59	C	1.014400	-0.976847	0.403753
C60	C	1.514400	-0.476847	0.903753
C61	C	0.996471	-1.047706	0.336600
C62	C	1.496471	-0.547706	0.836600
C63	C	1.081556	-1.047520	0.421791
C64	C	1.581556	-0.547520	0.921791
C65	C	1.045595	-0.976880	0.287438
C66	C	1.545595	-0.476880	0.787438
C67	C	1.130712	-0.976687	0.372674
C68	C	1.630712	-0.476687	0.872674
C69	C	1.112808	-1.047514	0.305475
C70	C	1.612808	-0.547514	0.805475
C71	C	1.255514	-0.512752	0.354634
C72	C	1.755514	-0.012752	0.854634
C73	C	1.337313	-0.512760	0.354643
C74	C	1.837313	-0.012760	0.854643
C75	C	1.063606	-0.512660	0.546565
C76	C	1.563606	-0.012660	1.046565
C77	C	1.063625	-0.512628	0.628364
C78	C	1.563625	-0.012628	1.128364
C79	C	1.063630	-0.235112	0.354635
C80	C	1.563630	0.264888	0.854635
C81	C	1.063659	-0.116807	0.354645
C82	C	1.563659	0.383193	0.854645
C83	C	1.063559	-0.512729	0.163406
C84	C	1.563559	-0.012729	0.663406
C85	C	1.063683	-0.512461	0.081607
C86	C	1.563683	-0.012461	0.581607
C87	C	1.110728	-0.444493	0.816570
C88	C	1.610728	0.055507	1.316570
C89	C	1.110737	-0.444462	0.893429
C90	C	1.610737	0.055538	1.393429
C91	C	1.016575	-0.580599	0.893396
C92	C	1.516575	-0.080599	1.393396
C93	C	1.016563	-0.580624	0.816538
C94	C	1.516563	-0.080624	1.316538
C95	C	1.063644	-0.512572	0.778127
C96	C	1.563644	-0.012572	1.278127
C97	C	1.063664	-0.512517	0.931844
C98	C	1.563664	-0.012517	1.431844
C99	C	1.063674	-0.512483	1.015177
C100	C	1.563674	-0.012483	1.515177
C101	C	1.063634	-0.512604	0.694788
C102	C	1.563634	-0.012604	1.194788
H103	H	0.494241	-0.636400	0.439878
H104	H	0.994241	-0.136400	0.939878
N105	N	0.643830	-0.654411	0.452278
N106	N	1.143830	-0.154411	0.952278
H107	H	0.630480	-0.637975	0.504879
H108	H	1.130480	-0.137975	1.004879
H109	H	0.698336	-0.644036	0.445082
H110	H	1.198336	-0.144036	0.945082
H111	H	0.494195	-0.389095	0.269384
H112	H	0.994195	0.110905	0.769384
H113	H	0.633636	-0.389071	0.269367
H114	H	1.133636	0.110929	0.769367
H115	H	1.149077	-0.389024	0.924726
H116	H	1.649077	0.110976	1.424726
H117	H	1.187442	-0.945472	0.387956
H118	H	1.687442	-0.445472	0.887956
N119	N	0.965799	-0.654008	0.934815
N120	N	1.465799	-0.154008	1.434815
H121	H	0.913220	-0.637474	0.921427
H122	H	1.413220	-0.137474	1.421427
H123	H	0.973007	-0.643642	0.989326
H124	H	1.473007	-0.143642	1.489326
H125	H	0.972753	-0.945818	0.445237
H126	H	1.472753	-0.445818	0.945237
N127	N	1.167928	-1.088365	0.250392
N128	N	1.667928	-0.588365	0.750392
H129	H	1.167969	-1.168553	0.251000
H130	H	1.667969	-0.668553	0.751000
H131	H	1.218437	-1.061311	0.263593
H132	H	1.718437	-0.561311	0.763593
N133	N	1.161508	-0.371098	0.775144
N134	N	1.661508	0.128902	1.275144
H135	H	1.195600	-0.414373	0.743264
H136	H	1.695600	0.085627	1.243264
H137	H	1.191287	-0.327987	0.811213
H138	H	1.691287	0.172013	1.311213
N139	N	0.921307	-1.089018	0.316373
N140	N	1.421307	-0.589018	0.816373
H141	H	0.884168	-1.063317	0.353501
H142	H	1.384168	-0.563317	0.853501
H143	H	0.922084	-1.169199	0.316047
H144	H	1.422084	-0.669199	0.816047
H145	H	0.978215	-0.636061	0.785237
H146	H	1.478215	-0.136061	1.285237
H147	H	1.096738	-1.078549	0.478583
H148	H	1.596738	-0.578549	0.978583
N149	N	1.025402	-0.935961	0.212186
N150	N	1.525402	-0.435961	0.712186
H151	H	1.025467	-0.855770	0.212648
H152	H	1.525467	-0.355770	0.712648
H153	H	0.974892	-0.962500	0.198494
H154	H	1.474892	-0.462500	0.698494
