data_functionalizedCrystal
_audit_creation_method	'MofGen! by Chris Wilmer'
_symmetry_space_group_name_H-M	'P1'
_symmetry_Int_Tables_number	1
_symmetry_cell_setting	triclinic
loop_
_symmetry_equiv_pos_as_xyz
  x,y,z
_cell_length_a	17.000371
_cell_length_b	17.038272
_cell_length_c	14.185569
_cell_angle_alpha	75.875097
_cell_angle_beta	102.092178
_cell_angle_gamma	83.355402
loop_
_atom_site_label
_atom_site_type_symbol
_atom_site_fract_x
_atom_site_fract_y
_atom_site_fract_z
O1	O	1.041224	0.046924	-0.083423
O2	O	1.541224	0.546924	0.416577
O3	O	0.811403	0.075169	-0.083424
O4	O	1.311403	0.575169	0.416576
O5	O	0.924949	-0.052677	-0.083416
O6	O	1.424949	0.447323	0.416584
O7	O	0.927678	0.174770	-0.083432
O8	O	1.427678	0.674770	0.416568
O9	O	0.958492	-0.090441	0.083421
O10	O	1.458492	0.409559	0.583421
O11	O	0.844946	0.037406	0.083413
O12	O	1.344946	0.537406	0.583413
O13	O	1.074767	0.009160	0.083414
O14	O	1.574767	0.509160	0.583414
Cu15	Cu	0.962919	0.019835	0.098647
Cu16	Cu	1.462919	0.519835	0.598647
Cu17	Cu	0.923251	0.064494	-0.098657
Cu18	Cu	1.423251	0.564494	0.401343
O19	O	0.961221	0.137007	0.083405
O20	O	1.461221	0.637007	0.583405
C21	C	0.798624	0.057804	-0.000006
C22	C	1.298624	0.557804	0.499994
C23	C	0.710570	0.062316	-0.000006
C24	C	1.210570	0.562316	0.499994
C25	C	0.673846	-0.007108	0.000000
C26	C	1.173846	0.492892	0.500000
C27	C	0.591108	-0.002863	-0.000007
C28	C	1.091108	0.497137	0.499993
C29	C	0.545099	0.070805	-0.000014
C30	C	1.045099	0.570805	0.499986
C31	C	0.581829	0.140234	-0.000024
C32	C	1.081829	0.640234	0.499976
C33	C	0.664563	0.135990	-0.000023
C34	C	1.164563	0.635990	0.499977
C35	C	0.295062	0.087201	-0.000022
C36	C	0.795062	0.587201	0.499978
C37	C	0.212323	0.091439	-0.000019
C38	C	0.712323	0.591439	0.499981
C39	C	0.221607	-0.051658	-0.000005
C40	C	0.721607	0.448342	0.499995
C41	C	0.304344	-0.055897	0.000002
C42	C	0.804344	0.444103	0.500002
C43	C	0.341066	0.013533	-0.000013
C44	C	0.841066	0.513533	0.499987
C45	C	0.460529	0.075145	-0.000019
C46	C	0.960529	0.575145	0.499981
C47	C	0.425633	0.009194	-0.000016
C48	C	0.925633	0.509194	0.499984
C49	C	0.939236	-0.100517	0.000003
C50	C	1.439236	0.399483	0.500003
C51	C	0.931823	-0.186802	0.000002
C52	C	1.431823	0.313198	0.500002
C53	C	0.999882	-0.241578	0.000004
C54	C	1.499882	0.258422	0.500004
C55	C	0.992910	-0.322649	-0.000006
C56	C	1.492910	0.177351	0.499994
C57	C	0.917880	-0.348944	-0.000010
C58	C	1.417880	0.151056	0.499990
C59	C	0.849816	-0.294161	-0.000014
C60	C	1.349816	0.205839	0.499986
C61	C	0.856787	-0.213090	-0.000012
C62	C	1.356787	0.286910	0.499988
C63	C	0.893252	-0.593012	-0.000024
C64	C	1.393252	-0.093012	0.499976
C65	C	0.886286	-0.674091	-0.000023
C66	C	1.386286	-0.174091	0.499977
C67	C	1.029381	-0.702573	-0.000016
C68	C	1.529381	-0.202573	0.499984
C69	C	1.036347	-0.621500	-0.000008
C70	C	1.536347	-0.121500	0.499992
C71	C	0.968281	-0.566723	-0.000018
C72	C	1.468281	-0.066723	0.499982
C73	C	0.910753	-0.431812	-0.000016
C74	C	1.410753	0.068188	0.499984
C75	C	0.975408	-0.483855	-0.000018
C76	C	1.475408	0.016145	0.499982
C77	C	1.087546	0.026525	-0.000007
C78	C	1.587546	0.526525	0.499993
C79	C	1.175598	0.022016	-0.000013
C80	C	1.675598	0.522016	0.499987
C81	C	0.946933	0.184847	-0.000015
C82	C	1.446933	0.684847	0.499985
C83	C	0.954345	0.271133	-0.000021
C84	C	1.454345	0.771133	0.499979
N85	N	0.990825	-0.011577	0.237420
N86	N	1.490825	0.488423	0.737420
N87	N	0.895351	0.095899	-0.237430
N88	N	1.395351	0.595899	0.262570
C89	C	0.813360	0.188153	0.605057
C90	C	1.313360	0.688153	1.105057
C91	C	0.834504	0.164364	0.710080
C92	C	1.334504	0.664364	1.210080
C93	C	0.935074	0.051194	0.710048
C94	C	1.435074	0.551194	1.210048
C95	C	0.913935	0.074971	0.605023
C96	C	1.413935	0.574971	1.105023
C97	C	0.853078	0.143452	0.552535
C98	C	1.353078	0.643452	1.052535
C99	C	0.953653	0.030270	0.552502
C100	C	1.453653	0.530270	1.052502
C101	C	0.932519	0.054049	0.447486
C102	C	1.432519	0.554049	0.947486
C103	C	0.871666	0.122528	0.394991
C104	C	1.371666	0.622528	0.894991
C105	C	0.831944	0.167230	0.447519
C106	C	1.331944	0.667230	0.947519
C107	C	1.014514	-0.038207	0.604992
C108	C	1.514514	0.461793	1.104992
C109	C	1.054232	-0.082908	0.552470
C110	C	1.554232	0.417092	1.052470
C111	C	1.033094	-0.059133	0.447452
C112	C	1.533094	0.440867	0.947452
C113	C	0.972241	0.009346	0.394957
C114	C	1.472241	0.509346	0.894957
C115	C	1.072816	-0.103836	0.394924
C116	C	1.572816	0.396164	0.894924
C117	C	1.051682	-0.080057	0.289908
C118	C	1.551682	0.419943	0.789908
C119	C	0.951107	0.033124	0.289941
C120	C	1.451107	0.533124	0.789941
H121	H	0.341801	-0.115886	0.000012
H122	H	0.841801	0.384114	0.500012
H123	H	0.849664	-0.453231	-0.000017
H124	H	1.349664	0.046769	0.499983
H125	H	0.463096	-0.050784	-0.000016
H126	H	0.963096	0.449216	0.499984
Br127	Br	0.171766	-0.145879	0.000012
Br128	Br	0.671766	0.354121	0.500012
Br129	Br	0.764416	-0.138747	-0.000022
Br130	Br	1.264416	0.361253	0.499978
H131	H	1.084026	-0.116458	0.247145
H132	H	1.584026	0.383542	0.747145
H133	H	0.174864	0.151430	-0.000020
H134	H	0.674864	0.651430	0.499980
H135	H	1.097444	-0.600098	-0.000005
H136	H	1.597444	-0.100098	0.499995
Br137	Br	0.784455	-0.709778	-0.000018
Br138	Br	1.284455	-0.209778	0.499982
Br139	Br	1.017667	-0.041738	0.781288
Br140	Br	1.517667	0.458262	1.281288
H141	H	0.694464	0.192521	-0.000024
H142	H	1.194464	0.692521	0.499976
Br143	Br	0.749339	0.260161	0.376281
Br144	Br	1.249339	0.760161	0.876281
Br145	Br	1.101716	-0.205904	0.000024
Br146	Br	1.601716	0.294096	0.500024
Br147	Br	0.541263	-0.097076	-0.000034
Br148	Br	1.041263	0.402924	0.499966
Br149	Br	0.398081	0.175121	-0.000033
Br150	Br	0.898081	0.675121	0.499967
Br151	Br	1.136825	-0.175840	0.623710
Br152	Br	1.636825	0.324160	1.123710
Br153	Br	0.519386	0.240216	-0.000047
Br154	Br	1.019386	0.740216	0.499953
H155	H	0.324949	0.143737	-0.000041
H156	H	0.824949	0.643737	0.499959
H157	H	1.048331	-0.367246	-0.000002
H158	H	1.548331	0.132754	0.499998
H159	H	0.711302	-0.067097	0.000010
H160	H	1.211302	0.432903	0.500010
Br161	Br	1.155416	-0.196761	0.466167
Br162	Br	1.655416	0.303239	0.966167
H163	H	1.036492	-0.462437	-0.000037
H164	H	1.536492	0.037563	0.499963
Br165	Br	0.730755	0.281084	0.533818
Br166	Br	1.230755	0.781084	1.033818
H167	H	0.901545	0.088883	0.247204
H168	H	1.401545	0.588883	0.747204
H169	H	1.084795	-0.747180	-0.000010
H170	H	1.584795	-0.247180	0.499990
Br171	Br	0.780595	0.225045	0.781352
Br172	Br	1.280595	0.725045	1.281352
H173	H	0.837827	-0.548422	-0.000031
H174	H	1.337827	-0.048422	0.499969
Br175	Br	0.747985	-0.329842	-0.000036
Br176	Br	1.247985	0.170158	0.499964
Br177	Br	0.842988	0.154805	0.252467
Br178	Br	1.342988	0.654805	0.752467
H179	H	1.031722	-0.057562	0.690502
H180	H	1.531722	0.442438	1.190502
