data_functionalizedCrystal
_audit_creation_method	'MofGen! by Chris Wilmer'
_symmetry_space_group_name_H-M	'P1'
_symmetry_Int_Tables_number	1
_symmetry_cell_setting	triclinic
loop_
_symmetry_equiv_pos_as_xyz
  x,y,z
_cell_length_a	14.519709
_cell_length_b	15.944551
_cell_length_c	13.596369
_cell_angle_alpha	89.993059
_cell_angle_beta	90.000291
_cell_angle_gamma	83.589442
loop_
_atom_site_label
_atom_site_type_symbol
_atom_site_fract_x
_atom_site_fract_y
_atom_site_fract_z
O1	O	1.223676	0.110109	-0.081665
O2	O	1.723676	0.610109	0.418335
O3	O	0.955176	0.123076	-0.081696
O4	O	1.455176	0.623076	0.418304
O5	O	1.096758	-0.005672	-0.081671
O6	O	1.596758	0.494328	0.418329
O7	O	1.082094	0.238856	-0.081690
O8	O	1.582094	0.738856	0.418310
O9	O	1.096744	-0.005679	0.081912
O10	O	1.596744	0.494321	0.581912
O11	O	0.955162	0.123069	0.081887
O12	O	1.455162	0.623069	0.581887
O13	O	1.223662	0.110102	0.081917
O14	O	1.723662	0.610102	0.581917
Zn15	Zn	1.089410	0.116584	0.107875
Zn16	Zn	1.589410	0.616584	0.607875
Zn17	Zn	1.089428	0.116593	-0.107653
Zn18	Zn	1.589428	0.616593	0.392347
O19	O	1.082080	0.238850	0.081893
O20	O	1.582080	0.738850	0.581893
C21	C	0.920810	0.122468	0.000092
C22	C	1.420810	0.622468	0.500092
C23	C	0.818432	0.120657	0.000081
C24	C	1.318432	0.620657	0.500081
C25	C	1.096142	-0.036970	0.000121
C26	C	1.596142	0.463030	0.500121
C27	C	1.094317	-0.130219	0.000121
C28	C	1.594317	0.369781	0.500121
C29	C	0.443548	0.113990	0.000126
C30	C	0.943548	0.613990	0.500126
C31	C	0.547853	0.115842	0.000113
C32	C	1.047853	0.615842	0.500113
C33	C	0.630987	0.117323	0.000102
C34	C	1.130987	0.617323	0.500102
C35	C	0.735298	0.119175	0.000091
C36	C	1.235298	0.619175	0.500091
C37	C	1.002196	-0.345209	0.000097
C38	C	1.502196	0.154791	0.500097
C39	C	1.044967	-0.406168	0.080758
C40	C	1.544967	0.093832	0.580758
C41	C	1.091015	-0.300950	0.000113
C42	C	1.591015	0.199050	0.500113
C43	C	1.045002	-0.406144	-0.080522
C44	C	1.545002	0.093856	0.419478
C45	C	1.087820	-0.465867	0.000101
C46	C	1.587820	0.034133	0.500101
C47	C	1.133811	-0.360680	0.080841
C48	C	1.633811	0.139320	0.580841
C49	C	1.133833	-0.360650	-0.080512
C50	C	1.633833	0.139350	0.419488
C51	C	1.176669	-0.421591	0.000169
C52	C	1.676669	0.078409	0.500169
C53	C	1.092854	-0.205945	0.000121
C54	C	1.592854	0.294055	0.500121
C55	C	1.085988	-0.560871	0.000100
C56	C	1.585988	-0.060871	0.500100
C57	C	1.258028	0.110710	0.000128
C58	C	1.758028	0.610710	0.500128
C59	C	1.360406	0.112521	0.000132
C60	C	1.860406	0.612521	0.500132
C61	C	1.082696	0.270148	0.000099
C62	C	1.582696	0.770148	0.500099
C63	C	1.084521	0.363397	0.000092
C64	C	1.584521	0.863397	0.500092
N65	N	1.089404	0.116578	0.254966
N66	N	1.589404	0.616578	0.754966
N67	N	1.089442	0.116593	-0.254745
N68	N	1.589442	0.616593	0.245255
C69	C	1.089427	0.116594	0.656257
C70	C	1.589427	0.616594	1.156257
C71	C	1.089418	0.116592	0.544606
C72	C	1.589418	0.616592	1.044606
C73	C	1.089416	0.116587	0.455615
C74	C	1.589416	0.616587	0.955615
C75	C	1.089406	0.116584	0.343957
C76	C	1.589406	0.616584	0.843957
H77	H	0.928471	-0.312009	0.000169
H78	H	1.428471	0.187991	0.500169
H79	H	1.007394	-0.426333	0.148942
H80	H	1.507394	0.073667	0.648942
O81	O	1.178522	-0.336629	0.162256
O82	O	1.678522	0.163371	0.662256
C83	C	1.230447	-0.221216	0.253569
C84	C	1.730447	0.278784	0.753569
C85	C	1.179779	-0.248338	0.161338
C86	C	1.679779	0.251662	0.661338
H87	H	1.231497	-0.149833	0.252846
H88	H	1.731497	0.350167	0.752846
H89	H	1.192835	-0.240285	0.322250
H90	H	1.692835	0.259715	0.822250
H91	H	1.304585	-0.253471	0.253857
H92	H	1.804585	0.246529	0.753857
H93	H	1.105639	-0.216097	0.160954
H94	H	1.605639	0.283903	0.660954
H95	H	1.217463	-0.229285	0.092699
H96	H	1.717463	0.270715	0.592699
H97	H	1.171374	-0.340463	-0.148699
H98	H	1.671374	0.159537	0.351301
O99	O	1.264711	-0.460992	0.000403
O100	O	1.764711	0.039008	0.500403
C101	C	1.410958	-0.482462	0.085627
C102	C	1.910958	0.017538	0.585627
C103	C	1.311272	-0.437802	0.085491
C104	C	1.811272	0.062198	0.585491
H105	H	1.448638	-0.463716	0.154403
H106	H	1.948638	0.036284	0.654403
H107	H	1.408986	-0.553738	0.085039
H108	H	1.908986	-0.053738	0.585039
H109	H	1.449072	-0.462950	0.017491
H110	H	1.949072	0.037050	0.517491
H111	H	1.273100	-0.457246	0.153615
H112	H	1.773100	0.042754	0.653615
H113	H	1.313311	-0.366535	0.086028
H114	H	1.813311	0.133465	0.586028
O115	O	1.000055	-0.430056	-0.161847
O116	O	1.500055	0.069944	0.338153
C117	C	0.857260	-0.418027	-0.253707
C118	C	1.357260	0.081973	0.246293
C119	C	0.908065	-0.390870	-0.161584
C120	C	1.408065	0.109130	0.338416
H121	H	0.782872	-0.386372	-0.253514
H122	H	1.282872	0.113628	0.246486
H123	H	0.894340	-0.398380	-0.322470
H124	H	1.394340	0.101620	0.177530
H125	H	0.856947	-0.489493	-0.253301
H126	H	1.356947	0.010507	0.246699
H127	H	0.908393	-0.319408	-0.161895
H128	H	1.408393	0.180592	0.338105
H129	H	0.870969	-0.410579	-0.092861
H130	H	1.370969	0.089421	0.407139
