data_functionalizedCrystal
_audit_creation_method	'MofGen! by Chris Wilmer'
_symmetry_space_group_name_H-M	'P1'
_symmetry_Int_Tables_number	1
_symmetry_cell_setting	triclinic
loop_
_symmetry_equiv_pos_as_xyz
  x,y,z
_cell_length_a	34.408637
_cell_length_b	34.407814
_cell_length_c	34.404193
_cell_angle_alpha	60.004510
_cell_angle_beta	60.009006
_cell_angle_gamma	59.994604
loop_
_atom_site_label
_atom_site_type_symbol
_atom_site_fract_x
_atom_site_fract_y
_atom_site_fract_z
O1	O	0.053973	-0.567860	0.474801
O2	O	0.020377	-0.442124	0.382567
O3	O	0.100004	-0.521670	0.382483
O4	O	-0.025653	-0.488314	0.474886
O5	O	0.126426	-0.495253	0.408816
O6	O	0.046800	-0.415707	0.408900
O7	O	0.080396	-0.541443	0.501134
Zn8	Zn	0.067793	-0.474381	0.459198
Zn9	Zn	0.032980	-0.509186	0.424503
O10	O	0.000769	-0.461897	0.501219
N11	N	0.091552	-0.450631	0.482879
N12	N	0.009225	-0.532940	0.400823
C13	C	0.142848	-0.268847	0.534081
C14	C	0.142979	-0.399386	0.664559
C15	C	0.142862	-0.399365	0.534081
C16	C	0.273409	-0.399338	0.533986
C17	C	0.157225	-0.311914	0.548422
C18	C	0.157300	-0.385019	0.621491
C19	C	0.230339	-0.384991	0.548370
C20	C	0.157235	-0.385007	0.548422
C21	C	0.124548	-0.214028	0.515827
C22	C	0.124571	-0.417639	0.515827
C23	C	0.175526	-0.366733	0.566676
C24	C	0.353121	-0.385580	0.491988
C25	C	0.402952	-0.402180	0.475348
C26	C	0.402981	-0.482812	0.506096
C27	C	0.353151	-0.466211	0.522737
C28	C	0.136544	-0.189099	0.466839
C29	C	0.119905	-0.139265	0.450247
C30	C	0.079280	-0.139291	0.531632
C31	C	0.095918	-0.189125	0.548224
C32	C	0.075577	-0.405615	0.527900
C33	C	0.058953	-0.422228	0.511301
C34	C	0.140315	-0.462889	0.470566
C35	C	0.156941	-0.446276	0.487159
C36	C	0.075772	-0.405653	0.744326
C37	C	0.059206	-0.422280	0.794159
C38	C	0.140607	-0.462951	0.794094
C39	C	0.157172	-0.446325	0.744260
C40	C	0.124753	-0.417674	0.719377
C41	C	0.328223	-0.417595	0.515681
C42	C	-0.172390	-0.583988	0.349141
C43	C	-0.041751	-0.584138	0.218783
C44	C	-0.041941	-0.584130	0.349402
C45	C	-0.041957	-0.714607	0.349338
C46	C	-0.129326	-0.598388	0.334853
C47	C	-0.056165	-0.598473	0.261852
C48	C	-0.056282	-0.671535	0.334962
C49	C	-0.056272	-0.598469	0.334999
C50	C	-0.227205	-0.565659	0.367327
C51	C	-0.023703	-0.565882	0.367734
C52	C	-0.074511	-0.616717	0.316667
C53	C	-0.055754	-0.794298	0.391257
C54	C	-0.039181	-0.844132	0.407888
C55	C	0.041447	-0.844215	0.377269
C56	C	0.024873	-0.794381	0.360637
C57	C	-0.252183	-0.577666	0.416302
C58	C	-0.302014	-0.561001	0.432833
C59	C	-0.301886	-0.520329	0.351410
C60	C	-0.252055	-0.536994	0.334880
C61	C	-0.035709	-0.516892	0.355682
C62	C	-0.019129	-0.500308	0.372353
C63	C	0.021465	-0.581700	0.413115
C64	C	0.004884	-0.598286	0.396450
C65	C	-0.035389	-0.516907	0.139026
C66	C	-0.018707	-0.500324	0.089193
C67	C	0.021949	-0.581721	0.089240
C68	C	0.005268	-0.598303	0.139074
C69	C	-0.023402	-0.565894	0.163965
C70	C	-0.023728	-0.769425	0.367633
N71	N	0.427173	-0.450553	0.482630
O72	O	0.589997	-0.458460	0.365361
O73	O	0.590185	-0.550997	0.490963
O74	O	0.590104	-0.550786	0.411309
O75	O	0.590077	-0.458671	0.445016
O76	O	0.510940	-0.524462	0.437777
O77	O	0.511020	-0.524674	0.517432
O78	O	0.510832	-0.432136	0.391830
Zn79	Zn	0.498357	-0.474225	0.458833
Zn80	Zn	0.602660	-0.508908	0.423960
O81	O	0.510913	-0.432348	0.471484
N82	N	0.673844	-0.532580	0.400158
N83	N	0.091520	-0.115070	0.482873
O84	O	-0.025663	0.047841	0.474857
O85	O	0.099940	0.047877	0.382299
O86	O	0.020247	0.047844	0.382560
O87	O	0.054030	0.047874	0.474596
O88	O	0.046674	-0.031326	0.408942
O89	O	0.126367	-0.031293	0.408680
O90	O	0.000764	-0.031329	0.501238
Zn91	Zn	0.067761	-0.043881	0.459148
Zn92	Zn	0.032943	0.060429	0.424389
O93	O	0.080457	-0.031296	0.500977
N94	N	0.009178	0.131618	0.400665
N95	N	0.091852	-0.450680	0.818332
O96	O	0.083862	-0.567845	0.981235
O97	O	-0.008657	-0.442198	0.981276
O98	O	-0.008441	-0.521875	0.981252
O99	O	0.083646	-0.488168	0.981258
O100	O	0.017919	-0.495468	0.902085
O101	O	0.017703	-0.415791	0.902109
O102	O	0.110222	-0.541438	0.902067
Zn103	Zn	0.068148	-0.474422	0.889518
Zn104	Zn	0.033417	-0.509214	0.993825
O105	O	0.110006	-0.461761	0.902091
N106	N	0.009712	-0.532961	1.065011
C107	C	0.030439	-0.413071	0.383027
C108	C	0.129046	-0.511580	0.382922
C109	C	0.070334	-0.570496	0.500675
C110	C	-0.028274	-0.471987	0.500780
C111	C	0.550625	-0.550579	0.520021
C112	C	0.550527	-0.550317	0.421379
C113	C	0.550389	-0.432554	0.362773
C114	C	0.550491	-0.432816	0.461414
C115	C	0.128944	0.008394	0.382712
C116	C	0.030287	0.008256	0.383068
C117	C	-0.028273	0.008252	0.500793
C118	C	0.070417	0.008292	0.500470
C119	C	-0.008218	-0.413165	0.941698
C120	C	-0.007945	-0.511830	0.941653
C121	C	0.109783	-0.570471	0.941646
C122	C	0.109516	-0.471800	0.941673
H123	H	0.019320	-0.412483	0.814467
H124	H	0.550540	-0.579254	0.414165
H125	H	-0.036863	-0.519031	0.941619
C126	C	0.186287	-0.559426	0.332782
C127	C	0.177765	-0.521173	0.343749
H128	H	0.216365	-0.565349	0.308601
H129	H	0.162072	-0.551895	0.321863
H130	H	0.186210	-0.586978	0.360446
H131	H	0.177839	-0.493619	0.316086
H132	H	0.201987	-0.528701	0.354666
C133	C	-0.087293	-0.370611	0.982411
C134	C	-0.047433	-0.364452	0.941712
H135	H	-0.111503	-0.340537	0.982417
H136	H	-0.078633	-0.384851	1.010011
H137	H	-0.098779	-0.390615	0.982402
H138	H	-0.035945	-0.344451	0.941724
H139	H	-0.056094	-0.350205	0.914105
H140	H	0.077514	-0.606615	0.529644
C141	C	0.025989	-0.370407	0.304045
C142	C	0.020753	-0.364314	0.343915
H143	H	0.020011	-0.340306	0.279898
H144	H	0.004010	-0.384701	0.312733
H145	H	0.057499	-0.390341	0.292459
H146	H	-0.010759	-0.344383	0.355503
H147	H	0.042732	-0.350013	0.335226
H148	H	0.167007	-0.486271	0.814352
H149	H	0.138447	-0.464586	0.941669
H150	H	0.138832	-0.606554	0.941627
C151	C	0.509588	-0.353485	0.320278
C152	C	0.550310	-0.393330	0.314079
H153	H	0.509538	-0.329271	0.290216
H154	H	0.509606	-0.341993	0.340272
H155	H	0.482002	-0.362168	0.334543
H156	H	0.577896	-0.384647	0.299817
H157	H	0.550297	-0.404824	0.294078
C158	C	-0.077096	-0.503021	0.580718
C159	C	-0.076994	-0.462398	0.539952
H160	H	-0.107175	-0.497101	0.604900
H161	H	-0.052883	-0.510542	0.591636
H162	H	-0.071306	-0.528969	0.573267
H163	H	-0.082780	-0.436451	0.547403
H164	H	-0.101214	-0.454871	0.529033
H165	H	0.049370	-0.382321	0.724071
C166	C	0.118470	-0.032400	0.550404
C167	C	0.080179	0.008292	0.539513
H168	H	0.124494	-0.032402	0.574510
H169	H	0.145964	-0.032387	0.522694
H170	H	0.110918	-0.060010	0.561401
H171	H	0.087733	0.035902	0.528512
H172	H	0.052680	0.008283	0.567228
H173	H	0.550674	-0.579628	0.556096
H174	H	0.550485	-0.403881	0.468626
C175	C	0.047123	-0.677095	0.134114
C176	C	0.018442	-0.652154	0.166487
H177	H	0.055252	-0.710340	0.151037
H178	H	0.075314	-0.668963	0.114724
H179	H	0.030249	-0.668903	0.114629
H180	H	0.035317	-0.660345	0.185970
H181	H	-0.009754	-0.660290	0.185885
C182	C	0.235970	-0.488190	0.749204
C183	C	0.211016	-0.459537	0.716838
H184	H	0.269210	-0.496343	0.732274
H185	H	0.227821	-0.516371	0.768639
H186	H	0.227806	-0.471282	0.768644
H187	H	0.219177	-0.476446	0.697401
H188	H	0.219169	-0.431352	0.697395
H189	H	0.164941	0.008624	0.353583
C190	C	0.009421	-0.032482	0.360266
C191	C	0.020536	0.008232	0.344030
H192	H	0.003408	-0.032501	0.336164
H193	H	-0.018080	-0.032481	0.387969
H194	H	0.035400	-0.060077	0.367669
H195	H	-0.005445	0.035827	0.336631
H196	H	0.048040	0.008234	0.316319
C197	C	-0.006519	-0.367083	0.566490
C198	C	0.039995	-0.374133	0.559406
H199	H	-0.028485	-0.347645	0.585939
H200	H	-0.011291	-0.396952	0.581706
H201	H	-0.011328	-0.351864	0.536629
H202	H	0.044805	-0.389356	0.589266
H203	H	0.044769	-0.344258	0.544191
C204	C	-0.006905	-0.450567	0.549480
C205	C	0.005098	-0.409016	0.524567
H206	H	-0.040152	-0.442410	0.557666
H207	H	0.001290	-0.467474	0.577641
H208	H	0.010000	-0.469993	0.530024
H209	H	-0.011805	-0.389592	0.544024
H210	H	-0.003103	-0.392102	0.496402
H211	H	-0.064344	0.008241	0.529850
H212	H	0.166679	-0.486211	0.447227
H213	H	0.332881	-0.492283	0.542031
C214	C	0.235697	-0.488126	0.445214
C215	C	0.210797	-0.459485	0.473883
H216	H	0.268945	-0.496280	0.437018
H217	H	0.227492	-0.471214	0.417058
H218	H	0.227547	-0.516311	0.462126
H219	H	0.218945	-0.431298	0.456970
H220	H	0.219007	-0.476397	0.502043
H221	H	0.423225	-0.376108	0.456057
C222	C	0.398005	-0.560847	0.538161
C223	C	0.430383	-0.536250	0.513849
H224	H	0.414925	-0.593839	0.542949
H225	H	0.378549	-0.549162	0.519921
H226	H	0.378589	-0.556228	0.568106
H227	H	0.449797	-0.540867	0.483903
H228	H	0.449847	-0.547939	0.532090
H229	H	0.332825	-0.345993	0.486242
H230	H	0.129672	-0.118967	0.410356
C231	C	0.143049	-0.204430	0.402606
C232	C	0.168011	-0.216472	0.431227
H233	H	0.162475	-0.221333	0.380624
H234	H	0.134860	-0.171187	0.385715
H235	H	0.114885	-0.212612	0.422071
H236	H	0.196173	-0.208286	0.411763
H237	H	0.176206	-0.249722	0.448119
C238	C	0.072779	-0.123964	0.595866
C239	C	0.047815	-0.111918	0.567246
H240	H	0.053352	-0.107069	0.617855
H241	H	0.100938	-0.115780	0.576405
H242	H	0.080972	-0.157212	0.612754
H243	H	0.039625	-0.078670	0.550355
H244	H	0.019647	-0.120099	0.586709
C245	C	0.124321	-0.245139	0.614059
C246	C	0.082749	-0.216511	0.602076
H247	H	0.116194	-0.262044	0.647306
H248	H	0.141218	-0.225680	0.605849
H249	H	0.143742	-0.267114	0.597151
H250	H	0.063330	-0.194534	0.618980
H251	H	0.065845	-0.235972	0.610290
H252	H	-0.058738	-0.490513	0.159288
C253	C	-0.060586	-0.421534	0.094158
C254	C	-0.031895	-0.446474	0.061783
H255	H	-0.068728	-0.388289	0.077235
H256	H	-0.043718	-0.429716	0.113639
H257	H	-0.088774	-0.429680	0.113551
H258	H	-0.003705	-0.438331	0.042392
H259	H	-0.048763	-0.438289	0.042294
H260	H	0.045284	-0.608113	0.068976
C261	C	-0.108682	-0.452589	0.349011
C262	C	-0.067139	-0.481271	0.324126
H263	H	-0.128087	-0.430599	0.329530
H264	H	-0.100522	-0.435705	0.357211
H265	H	-0.125616	-0.472012	0.377166
H266	H	-0.050203	-0.461847	0.295972
H267	H	-0.075299	-0.498156	0.315919
C268	C	-0.057301	-0.434384	0.400624
C269	C	-0.032325	-0.446455	0.359102
H270	H	-0.065450	-0.401137	0.392440
H271	H	-0.037906	-0.451302	0.420110
H272	H	-0.085490	-0.442521	0.417478
H273	H	-0.004134	-0.438321	0.342250
H274	H	-0.051720	-0.429532	0.339609
C275	C	0.094437	-0.646010	0.419797
C276	C	0.052893	-0.617323	0.444676
H277	H	0.113836	-0.668002	0.439284
H278	H	0.111373	-0.626594	0.391646
H279	H	0.086274	-0.662896	0.411597
H280	H	0.061055	-0.600434	0.452874
H281	H	0.035953	-0.636741	0.472837
C282	C	0.001119	-0.672737	0.459249
C283	C	0.018082	-0.652137	0.409691
H284	H	0.009271	-0.705982	0.467421
H285	H	-0.032499	-0.658709	0.470653
H286	H	0.015088	-0.667495	0.473282
H287	H	0.004110	-0.657376	0.395658
H288	H	0.051706	-0.666169	0.398281
C289	C	0.106237	-0.799476	0.332049
C290	C	0.060080	-0.767042	0.334671
H291	H	0.127971	-0.782597	0.316022
H292	H	0.114588	-0.818913	0.315061
H293	H	0.107454	-0.818909	0.363288
H294	H	0.058861	-0.747612	0.303432
H295	H	0.051726	-0.747597	0.351658
H296	H	0.081021	-0.864532	0.371574
H297	H	-0.065262	-0.864385	0.427124
H298	H	-0.095331	-0.773979	0.396956
H299	H	-0.231954	-0.601008	0.442726
H300	H	-0.322352	-0.570775	0.472713
H301	H	-0.231721	-0.527215	0.295000
C302	C	-0.296754	-0.481810	0.269264
C303	C	-0.329203	-0.488823	0.315744
H304	H	-0.313619	-0.462356	0.247246
H305	H	-0.277328	-0.511688	0.264503
H306	H	-0.277314	-0.466621	0.264520
H307	H	-0.348641	-0.504015	0.320489
H308	H	-0.348637	-0.458938	0.320507
