data_functionalizedCrystal
_audit_creation_method	'MofGen! by Chris Wilmer'
_symmetry_space_group_name_H-M	'P1'
_symmetry_Int_Tables_number	1
_symmetry_cell_setting	triclinic
loop_
_symmetry_equiv_pos_as_xyz
  x,y,z
_cell_length_a	16.992695
_cell_length_b	16.992694
_cell_length_c	15.455436
_cell_angle_alpha	92.852074
_cell_angle_beta	92.849328
_cell_angle_gamma	89.331778
loop_
_atom_site_label
_atom_site_type_symbol
_atom_site_fract_x
_atom_site_fract_y
_atom_site_fract_z
O1	O	-0.170136	1.047631	-0.072001
O2	O	0.163197	1.380964	0.261333
O3	O	0.496530	1.714298	0.594666
O4	O	-0.168306	0.819230	-0.072026
O5	O	0.165027	1.152563	0.261307
O6	O	0.498361	1.485896	0.594640
O7	O	-0.055021	0.932514	-0.072021
O8	O	0.278312	1.265848	0.261312
O9	O	0.611645	1.599181	0.594645
O10	O	-0.283421	0.934346	-0.072006
O11	O	0.049912	1.267680	0.261328
O12	O	0.383246	1.601013	0.594661
O13	O	-0.048566	0.938954	0.072238
O14	O	0.284767	1.272288	0.405572
O15	O	0.618100	1.605621	0.738905
O16	O	-0.161851	0.825670	0.072233
O17	O	0.171482	1.159003	0.405566
O18	O	0.504816	1.492336	0.738900
O19	O	-0.163681	1.054071	0.072259
O20	O	0.169652	1.387404	0.405592
O21	O	0.502986	1.720738	0.738925
Cu22	Cu	-0.162177	0.940458	0.085418
Cu23	Cu	0.171157	1.273792	0.418751
Cu24	Cu	0.504490	1.607125	0.752085
Cu25	Cu	-0.169811	0.932842	-0.085186
Cu26	Cu	0.163523	1.266176	0.248148
Cu27	Cu	0.496856	1.599509	0.581481
O28	O	-0.276966	0.940786	0.072254
O29	O	0.056368	1.274120	0.405587
O30	O	0.389701	1.607453	0.738920
C31	C	-0.162723	0.793089	0.000100
C32	C	0.170610	1.126423	0.333433
C33	C	0.503944	1.459756	0.666766
C34	C	-0.155695	0.705604	0.000089
C35	C	0.177639	1.038938	0.333423
C36	C	0.510972	1.372271	0.666756
C37	C	-0.223512	0.659614	0.000095
C38	C	0.109821	0.992947	0.333428
C39	C	0.443154	1.326280	0.666761
C40	C	-0.216903	0.577414	0.000106
C41	C	0.116430	0.910747	0.333439
C42	C	0.449764	1.244080	0.666773
C43	C	-0.142475	0.541205	0.000106
C44	C	0.190858	0.874539	0.333439
C45	C	0.524191	1.207872	0.666773
C46	C	-0.074652	0.587202	0.000104
C47	C	0.258681	0.920535	0.333437
C48	C	0.592014	1.253869	0.666770
C49	C	-0.081262	0.669401	0.000098
C50	C	0.252071	1.002734	0.333432
C51	C	0.585404	1.336068	0.666765
C52	C	-0.115080	0.295892	0.000128
C53	C	0.218253	0.629225	0.333461
C54	C	0.551587	0.962559	0.666794
C55	C	-0.108475	0.213687	0.000130
C56	C	0.224858	0.547020	0.333464
C57	C	0.558192	0.880353	0.666797
C58	C	-0.250726	0.203904	0.000134
C59	C	0.082607	0.537237	0.333468
C60	C	0.415940	0.870571	0.666801
C61	C	-0.257330	0.286105	0.000124
C62	C	0.076003	0.619438	0.333457
C63	C	0.409337	0.952771	0.666791
C64	C	-0.189507	0.332094	0.000126
C65	C	0.143827	0.665428	0.333459
C66	C	0.477160	0.998761	0.666792
N67	N	-0.135718	0.457183	0.000115
N68	N	0.197616	0.790517	0.333449
N69	N	0.530949	1.123850	0.666782
N70	N	-0.196265	0.416115	0.000123
N71	N	0.137069	0.749448	0.333456
N72	N	0.470402	1.082782	0.666790
C73	C	-0.309553	0.939922	0.000126
C74	C	0.023780	1.273256	0.333459
C75	C	0.357113	1.606589	0.666793
C76	C	-0.397038	0.946951	0.000132
C77	C	-0.063704	1.280285	0.333466
C78	C	0.269629	1.613618	0.666799
C79	C	-0.443029	0.879133	0.000124
C80	C	-0.109696	1.212466	0.333458
C81	C	0.223638	1.545800	0.666791
C82	C	-0.525230	0.885741	0.000114
C83	C	-0.191897	1.219075	0.333448
C84	C	0.141437	1.552408	0.666781
C85	C	-0.561438	0.960169	0.000118
C86	C	-0.228105	1.293503	0.333452
C87	C	0.105228	1.626836	0.666785
C88	C	-0.515441	1.027993	0.000124
C89	C	-0.182108	1.361326	0.333457
C90	C	0.151226	1.694659	0.666791
C91	C	-0.433242	1.021383	0.000128
C92	C	-0.099908	1.354716	0.333461
C93	C	0.233425	1.688050	0.666794
C94	C	-0.806753	0.987563	0.000102
C95	C	-0.473420	1.320896	0.333435
C96	C	-0.140087	1.654230	0.666768
C97	C	-0.888959	0.994168	0.000100
C98	C	-0.555625	1.327501	0.333434
C99	C	-0.222292	1.660834	0.666767
C100	C	-0.898742	0.851916	0.000089
C101	C	-0.565409	1.185249	0.333423
C102	C	-0.232076	1.518582	0.666756
C103	C	-0.816541	0.845313	0.000098
C104	C	-0.483207	1.178646	0.333432
C105	C	-0.149874	1.511980	0.666765
C106	C	-0.770551	0.913136	0.000099
C107	C	-0.437217	1.246469	0.333433
C108	C	-0.103884	1.579803	0.666766
N109	N	-0.645461	0.966926	0.000111
N110	N	-0.312127	1.300259	0.333444
N111	N	0.021206	1.633593	0.666777
N112	N	-0.686530	0.906378	0.000101
N113	N	-0.353197	1.239712	0.333434
N114	N	-0.019863	1.573045	0.666767
C115	C	-0.022434	0.933379	0.000104
C116	C	0.310899	1.266712	0.333438
C117	C	0.644233	1.600045	0.666771
C118	C	0.065050	0.926349	0.000092
C119	C	0.398383	1.259683	0.333426
C120	C	0.731717	1.593016	0.666759
C121	C	-0.169264	1.080211	0.000131
C122	C	0.164069	1.413545	0.333464
C123	C	0.497402	1.746878	0.666797
C124	C	-0.176293	1.167696	0.000135
C125	C	0.157040	1.501029	0.333469
C126	C	0.490374	1.834363	0.666802
N127	N	-0.156807	0.945821	0.205411
N128	N	0.176526	1.279154	0.538744
N129	N	0.509859	1.612488	0.872078
C130	C	-0.127072	0.975617	0.749407
C131	C	0.206261	1.308951	1.082740
C132	C	0.539595	1.642284	1.416073
C133	C	-0.131141	0.971544	0.658601
C134	C	0.202192	1.304878	0.991934
C135	C	0.535526	1.638211	1.325267
C136	C	-0.183314	0.919329	0.613211
C137	C	0.150020	1.252662	0.946544
C138	C	0.483353	1.585996	1.279877
C139	C	-0.231426	0.871189	0.658631
C140	C	0.101907	1.204522	0.991965
C141	C	0.435241	1.537856	1.325298
C142	C	-0.227360	0.875266	0.749436
C143	C	0.105973	1.208600	1.082769
C144	C	0.439307	1.541933	1.416103
C145	C	-0.200854	0.901758	0.341637
C146	C	0.132480	1.235091	0.674970
C147	C	0.465813	1.568425	1.008303
C148	C	-0.204914	0.897683	0.250826
C149	C	0.128419	1.231016	0.584159
C150	C	0.461753	1.564349	0.917492
C151	C	-0.104630	0.998040	0.250801
C152	C	0.228703	1.331373	0.584134
C153	C	0.562037	1.664706	0.917468
C154	C	-0.100565	1.002109	0.341607
C155	C	0.232768	1.335442	0.674941
C156	C	0.566101	1.668776	1.008274
C157	C	-0.148680	0.953972	0.387020
C158	C	0.184653	1.287305	0.720354
C159	C	0.517986	1.620639	1.053687
N160	N	-0.187473	0.915163	0.520392
N161	N	0.145861	1.248496	0.853725
N162	N	0.479194	1.581830	1.187059
N163	N	-0.144525	0.958142	0.479837
N164	N	0.188808	1.291476	0.813170
N165	N	0.522142	1.624809	1.146504
N166	N	-0.175179	0.927479	0.794821
N167	N	0.158155	1.260812	1.128155
N168	N	0.491488	1.594146	1.461488
H169	H	-0.014051	0.557715	0.000116
H170	H	0.319282	0.891049	0.333449
H171	H	0.652616	1.224382	0.666783
Cl172	Cl	-0.044149	1.058554	0.193707
Cl173	Cl	0.289184	1.391888	0.527040
Cl174	Cl	0.622518	1.725221	0.860373
H175	H	-0.091969	1.010743	0.621624
H176	H	0.241364	1.344076	0.954958
H177	H	0.574697	1.677409	1.288291
H178	H	-0.059853	0.333327	0.000130
H179	H	0.273480	0.666661	0.333463
H180	H	0.606814	0.999994	0.666796
H181	H	-0.047864	0.184209	0.000129
H182	H	0.285469	0.517542	0.333463
H183	H	0.618802	0.850876	0.666796
H184	H	-0.395796	1.076608	0.000131
H185	H	-0.062463	1.409941	0.333464
H186	H	0.270870	1.743275	0.666797
H187	H	-0.240029	0.862561	0.378605
H188	H	0.093304	1.195895	0.711938
H189	H	0.426637	1.529228	1.045271
H190	H	-0.936196	0.796698	0.000088
H191	H	-0.602862	1.130032	0.333421
H192	H	-0.269529	1.463365	0.666754
H193	H	-0.272128	0.539971	0.000109
H194	H	0.061206	0.873304	0.333443
H195	H	0.394539	1.206638	0.666776
Cl196	Cl	-0.317084	0.705124	0.000089
Cl197	Cl	0.016250	1.038457	0.333422
Cl198	Cl	0.349583	1.371791	0.666755
Cl199	Cl	-0.034976	1.067751	0.398669
Cl200	Cl	0.298358	1.401084	0.732002
Cl201	Cl	0.631691	1.734418	1.065336
H202	H	-0.026038	0.706846	0.000093
H203	H	0.307296	1.040179	0.333427
H204	H	0.640629	1.373513	0.666760
Cl205	Cl	-0.397518	0.785562	0.000126
Cl206	Cl	-0.064185	1.118895	0.333459
Cl207	Cl	0.269148	1.452229	0.666792
H208	H	-0.084584	1.018133	0.786357
H209	H	0.248749	1.351466	1.119691
H210	H	0.582083	1.684800	1.453024
Cl211	Cl	-0.270508	0.832033	0.193770
Cl212	Cl	0.062826	1.165366	0.527103
Cl213	Cl	0.396159	1.498699	0.860437
H214	H	-0.317937	0.315579	0.000114
H215	H	0.015396	0.648912	0.333447
H216	H	0.348730	0.982246	0.666780
Cl217	Cl	-0.297019	0.805549	0.601572
Cl218	Cl	0.036314	1.138883	0.934905
Cl219	Cl	0.369647	1.472216	1.268238
H220	H	-0.918436	1.054779	0.000104
H221	H	-0.585103	1.388112	0.333438
H222	H	-0.251770	1.721445	0.666771
Cl223	Cl	-0.287843	0.814750	0.806528
Cl224	Cl	0.045490	1.148083	1.139861
Cl225	Cl	0.378823	1.481416	1.473194
Cl226	Cl	-0.335984	0.146084	0.000136
Cl227	Cl	-0.002650	0.479417	0.333469
Cl228	Cl	0.330683	0.812751	0.666802
H229	H	-0.562673	0.830516	0.000105
H230	H	-0.229340	1.163850	0.333438
H231	H	0.103994	1.497183	0.666772
H232	H	-0.769318	1.042790	0.000108
H233	H	-0.435984	1.376123	0.333441
H234	H	-0.102651	1.709457	0.666774
Cl235	Cl	-0.560960	1.121559	0.000122
Cl236	Cl	-0.227627	1.454893	0.333456
Cl237	Cl	0.105706	1.788226	0.666789
H238	H	-0.787066	0.784706	0.000085
H239	H	-0.453733	1.118039	0.333418
H240	H	-0.120400	1.451372	0.666752
