data_functionalizedCrystal
_audit_creation_method	'MofGen! by Chris Wilmer'
_symmetry_space_group_name_H-M	'P1'
_symmetry_Int_Tables_number	1
_symmetry_cell_setting	triclinic
loop_
_symmetry_equiv_pos_as_xyz
  x,y,z
_cell_length_a	16.120530
_cell_length_b	18.050582
_cell_length_c	16.120484
_cell_angle_alpha	92.874938
_cell_angle_beta	90.167327
_cell_angle_gamma	87.088397
loop_
_atom_site_label
_atom_site_type_symbol
_atom_site_fract_x
_atom_site_fract_y
_atom_site_fract_z
Zn1	Zn	1.254423	-0.494362	-0.395664
Zn2	Zn	1.754423	0.005638	0.104336
Zn3	Zn	1.247279	-0.376125	-0.534710
Zn4	Zn	1.747279	0.123875	-0.034710
Zn5	Zn	1.115376	-0.363595	-0.388616
Zn6	Zn	1.615376	0.136405	0.111384
Zn7	Zn	1.108276	-0.493682	-0.527617
Zn8	Zn	1.608276	0.006318	-0.027617
O9	O	1.181338	-0.431941	-0.461651
O10	O	1.681338	0.068059	0.038349
O11	O	1.369840	-0.484206	-0.420027
O12	O	1.869840	0.015794	0.079973
O13	O	1.229763	-0.270538	-0.515349
O14	O	1.729763	0.229462	-0.015349
O15	O	1.139783	-0.375982	-0.273187
O16	O	1.639783	0.124018	0.226813
O17	O	1.364591	-0.397338	-0.522183
O18	O	1.864591	0.102662	-0.022183
O19	O	1.241940	-0.472056	-0.278365
O20	O	1.741940	0.027944	0.221635
O21	O	1.132855	-0.261332	-0.408014
O22	O	1.632855	0.238668	0.091986
O23	O	0.998069	-0.375323	-0.401136
O24	O	1.498069	0.124677	0.098864
O25	O	1.127681	-0.597697	-0.510094
O26	O	1.627681	-0.097697	-0.010094
O27	O	0.992853	-0.470898	-0.503260
O28	O	1.492853	0.029102	-0.003260
O29	O	1.235055	-0.598196	-0.413149
O30	O	1.735055	-0.098196	0.086851
O31	O	1.222878	-0.396679	-0.650133
O32	O	1.722878	0.103321	-0.150133
O33	O	1.120753	-0.483048	-0.644921
O34	O	1.620753	0.016952	-0.144921
C35	C	0.965289	-0.421677	-0.450664
C36	C	1.465289	0.078323	0.049336
C37	C	0.872861	-0.417305	-0.445984
C38	C	1.372861	0.082695	0.054016
C39	C	1.181373	-0.625647	-0.461616
C40	C	1.681373	-0.125647	0.038384
C41	C	1.181388	-0.708193	-0.461601
C42	C	1.681388	-0.208193	0.038399
C43	C	0.703634	-0.409328	-0.437419
C44	C	1.203634	0.090672	0.062581
C45	C	0.659880	-0.454611	-0.485945
C46	C	1.159880	0.045389	0.014055
C47	C	0.565716	-0.450173	-0.481180
C48	C	1.065716	0.049827	0.018820
C49	C	0.797806	-0.413765	-0.442184
C50	C	1.297806	0.086235	0.057816
C51	C	1.123044	-0.907371	-0.514246
C52	C	1.623044	-0.407371	-0.014246
C53	C	1.197880	-0.961229	-0.538426
C54	C	1.697880	-0.461229	-0.038426
C55	C	1.181432	-0.859322	-0.461540
C56	C	1.681432	-0.359322	0.038460
C57	C	1.106638	-0.952546	-0.437339
C58	C	1.606638	-0.452546	0.062661
C59	C	1.181468	-1.005306	-0.461482
C60	C	1.681468	-0.505306	0.038518
C61	C	1.256306	-0.912097	-0.485761
C62	C	1.756306	-0.412097	0.014239
C63	C	1.165015	-0.903406	-0.384637
C64	C	1.665015	-0.403406	0.115363
C65	C	1.239905	-0.957244	-0.408790
C66	C	1.739905	-0.457244	0.091210
C67	C	1.181410	-0.775224	-0.461575
C68	C	1.681410	-0.275224	0.038425
C69	C	1.181498	-1.089403	-0.461447
C70	C	1.681498	-0.589403	0.038553
C71	C	1.398232	-0.442245	-0.472682
C72	C	1.898232	0.057755	0.027318
C73	C	1.490659	-0.446636	-0.477383
C74	C	1.990659	0.053364	0.022617
C75	C	1.170292	-0.441166	-0.677700
C76	C	1.670292	0.058834	-0.177700
C77	C	1.165642	-0.445142	-0.770130
C78	C	1.665642	0.054858	-0.270130
C79	C	1.181355	-0.238989	-0.461629
C80	C	1.681355	0.261011	0.038371
C81	C	1.181513	-0.156441	-0.461418
C82	C	1.681513	0.343559	0.038582
C83	C	1.157158	-0.452414	-0.939362
C84	C	1.657158	0.047586	-0.439362
C85	C	1.205667	-0.411487	-0.983108
C86	C	1.705667	0.088513	-0.483108
C87	C	1.200947	-0.415534	-1.077274
C88	C	1.700947	0.084466	-0.577274
C89	C	1.161878	-0.448369	-0.845187
C90	C	1.661878	0.051631	-0.345187
C91	C	1.192451	-0.422697	-0.244760
C92	C	1.692451	0.077303	0.255240
C93	C	1.197186	-0.418758	-0.152334
C94	C	1.697186	0.081242	0.347666
H95	H	0.670377	-0.367229	-0.392301
H96	H	1.170377	0.132771	0.107699
C97	C	0.704803	-0.511467	-0.546925
C98	C	1.204803	-0.011467	-0.046925
H99	H	0.763115	-0.507018	-0.542183
H100	H	1.263115	-0.007018	-0.042183
H101	H	0.691271	-0.560221	-0.534156
H102	H	1.191271	-0.060221	-0.034156
H103	H	0.687748	-0.502220	-0.602070
H104	H	1.187748	-0.002220	-0.102070
H105	H	1.319588	-0.894276	-0.506279
H106	H	1.819588	-0.394276	-0.006279
H107	H	1.289351	-0.978998	-0.364196
H108	H	1.789351	-0.478998	0.135804
C109	C	1.056398	-0.877800	-0.574540
C110	C	1.556398	-0.377800	-0.074540
H111	H	1.068216	-0.897714	-0.629143
H112	H	1.568216	-0.397714	-0.129143
H113	H	1.003364	-0.892292	-0.557905
H114	H	1.503364	-0.392292	-0.057905
H115	H	1.056514	-0.825146	-0.573781
H116	H	1.556514	-0.325146	-0.073781
C117	C	1.216667	-0.995361	-0.626245
C118	C	1.716667	-0.495361	-0.126245
H119	H	1.175119	-0.978279	-0.663649
H120	H	1.675119	-0.478279	-0.163649
H121	H	1.269411	-0.980897	-0.643781
H122	H	1.769411	-0.480897	-0.143781
H123	H	1.217042	-1.047969	-0.625485
H124	H	1.717042	-0.547969	-0.125485
H125	H	1.151084	-0.878129	-0.319643
H126	H	1.651084	-0.378129	0.180357
C127	C	1.021174	-0.976748	-0.409716
C128	C	1.521174	-0.476748	0.090284
H129	H	0.979745	-0.959663	-0.447244
H130	H	1.479745	-0.459663	0.052756
H131	H	1.021946	-1.029390	-0.409402
H132	H	1.521946	-0.529390	0.090598
H133	H	1.009097	-0.956107	-0.355465
H134	H	1.509097	-0.456107	0.144535
H135	H	1.250742	-0.373408	-0.949838
H136	H	1.750742	0.126592	-0.449838
H137	H	1.112086	-0.490489	-0.972629
H138	H	1.612086	0.009511	-0.472629
