data_functionalizedCrystal
_audit_creation_method	'MofGen! by Chris Wilmer'
_symmetry_space_group_name_H-M	'P1'
_symmetry_Int_Tables_number	1
_symmetry_cell_setting	triclinic
loop_
_symmetry_equiv_pos_as_xyz
  x,y,z
_cell_length_a	14.971486
_cell_length_b	14.044220
_cell_length_c	13.448316
_cell_angle_alpha	89.992660
_cell_angle_beta	89.998199
_cell_angle_gamma	88.401503
loop_
_atom_site_label
_atom_site_type_symbol
_atom_site_fract_x
_atom_site_fract_y
_atom_site_fract_z
O1	O	1.196679	0.123538	-0.082579
O2	O	0.937445	0.138332	-0.082607
O3	O	1.063171	-0.007054	-0.082584
O4	O	1.070953	0.268924	-0.082602
O5	O	1.063153	-0.007063	0.082800
O6	O	0.937427	0.138323	0.082777
O7	O	1.196661	0.123529	0.082804
Cu8	Cu	1.067042	0.130925	0.097892
Cu9	Cu	1.067064	0.130936	-0.097694
O10	O	1.070935	0.268915	0.082781
C11	C	0.904059	0.137666	0.000082
C12	C	0.804606	0.135683	0.000072
C13	C	0.754109	0.221093	0.000067
C14	C	0.660662	0.219225	0.000082
C15	C	0.617714	0.131945	0.000094
C16	C	0.668218	0.046528	0.000102
C17	C	0.761663	0.048398	0.000094
C18	C	0.473449	0.042638	0.000116
C19	C	0.379997	0.040767	0.000122
C20	C	0.372448	0.213465	0.000104
C21	C	0.465893	0.215334	0.000096
C22	C	0.516390	0.129917	0.000102
C23	C	1.059755	-0.042377	0.000108
C24	C	1.049594	-0.147614	0.000108
C25	C	1.031018	-0.340297	0.000092
C26	C	1.103085	-0.397848	0.000097
C27	C	1.092748	-0.505063	0.000088
C28	C	1.041353	-0.233071	0.000101
C29	C	1.230047	0.124195	0.000114
C30	C	1.329501	0.126178	0.000117
C31	C	1.074351	0.304238	0.000087
C32	C	1.084512	0.409475	0.000080
N33	N	1.067034	0.130917	0.235456
N34	N	1.067079	0.130936	-0.235258
C35	C	1.122727	0.066567	0.287506
C36	C	1.122732	0.066566	0.391610
C37	C	1.067049	0.130921	0.443660
C38	C	1.011350	0.195274	0.391603
C39	C	1.011341	0.195270	0.287501
C40	C	1.011376	0.195281	0.608583
C41	C	1.011386	0.195287	0.712691
C42	C	1.122767	0.066577	0.712691
C43	C	1.122757	0.066572	0.608590
C44	C	1.067060	0.130927	0.556539
H45	H	0.619551	0.288775	0.000077
H46	H	0.345032	-0.030303	0.000133
H47	H	0.500859	0.286405	0.000077
H48	H	0.331329	0.283015	0.000104
C49	C	1.195729	-0.356243	-0.000083
C50	C	1.242083	-0.386944	-0.085173
C51	C	1.327422	-0.348623	-0.085374
H52	H	1.227403	-0.376988	0.057529
H53	H	1.190499	-0.288670	-0.000130
H54	H	1.247318	-0.454502	-0.085117
H55	H	1.210437	-0.366200	-0.142798
H56	H	1.322191	-0.281050	-0.085421
H57	H	1.359087	-0.369371	-0.027759
H58	H	1.358880	-0.369440	-0.143110
H59	H	0.961562	-0.371545	0.000082
C60	C	0.950875	0.265261	0.552248
C61	C	0.902132	0.321642	0.620110
C62	C	0.846406	0.386128	0.568251
H63	H	0.910838	0.231207	0.511644
H64	H	0.986183	0.304828	0.511649
H65	H	0.866828	0.282079	0.660692
H66	H	0.942147	0.355716	0.660716
H67	H	0.881713	0.425695	0.527652
H68	H	0.806374	0.352066	0.527649
H69	H	0.813333	0.424396	0.614288
H70	H	1.168074	0.014166	0.245134
H71	H	1.168080	0.014166	0.433989
C72	C	0.528119	-0.050204	0.000064
C73	C	0.470509	-0.127041	0.000044
C74	C	0.520840	-0.212577	-0.000025
H75	H	0.564744	-0.053208	0.057716
H76	H	0.564707	-0.053107	-0.057638
H77	H	0.433937	-0.124139	0.057740
H78	H	0.433884	-0.124068	-0.057604
H79	H	0.557427	-0.215480	-0.057727
H80	H	0.557462	-0.215572	0.057627
H81	H	0.481759	-0.264721	-0.000048
H82	H	1.168103	0.014175	0.566210
C83	C	1.183186	-0.003449	0.769067
C84	C	1.161275	-0.096632	0.743740
C85	C	1.216925	-0.161157	0.795647
H86	H	1.175273	0.005630	0.838537
H87	H	1.243718	0.006903	0.751971
H88	H	1.100758	-0.106979	0.760843
H89	H	1.169192	-0.105742	0.674280
H90	H	1.277456	-0.150805	0.778551
H91	H	1.209007	-0.152069	0.865113
H92	H	1.202071	-0.224388	0.778463
C93	C	0.950845	0.265246	0.231165
C94	C	0.902099	0.321625	0.299027
C95	C	0.846366	0.386104	0.247168
H96	H	0.910809	0.231187	0.190564
H97	H	0.986148	0.304815	0.190563
H98	H	0.866800	0.282060	0.339612
H99	H	0.942112	0.355704	0.339630
H100	H	0.881669	0.425673	0.206566
H101	H	0.806336	0.352037	0.206569
H102	H	0.813292	0.424371	0.293204
H103	H	0.789070	0.292167	0.000056
H104	H	0.633242	-0.024537	0.000126
H105	H	0.966042	0.247690	0.755066
H106	H	0.802776	-0.021152	0.000097
H107	H	0.966007	0.247670	0.433988
