data_functionalizedCrystal
_audit_creation_method	'MofGen! by Chris Wilmer'
_symmetry_space_group_name_H-M	'P1'
_symmetry_Int_Tables_number	1
_symmetry_cell_setting	triclinic
loop_
_symmetry_equiv_pos_as_xyz
  x,y,z
_cell_length_a	12.759401
_cell_length_b	14.908520
_cell_length_c	12.759393
_cell_angle_alpha	93.264213
_cell_angle_beta	89.979541
_cell_angle_gamma	93.322137
loop_
_atom_site_label
_atom_site_type_symbol
_atom_site_fract_x
_atom_site_fract_y
_atom_site_fract_z
Zn1	Zn	1.582075	-0.359084	-0.618120
Zn2	Zn	1.571804	-0.509966	-0.452566
Zn3	Zn	1.406372	-0.359130	-0.442458
Zn4	Zn	1.396206	-0.509905	-0.628199
O5	O	1.489114	-0.434521	-0.535336
O6	O	1.727733	-0.379105	-0.596171
O7	O	1.549815	-0.490002	-0.304207
O8	O	1.438232	-0.232879	-0.457311
O9	O	1.720187	-0.489957	-0.474539
O10	O	1.567320	-0.232845	-0.586369
O11	O	1.428273	-0.379184	-0.296781
O12	O	1.258003	-0.379124	-0.467085
O13	O	1.420906	-0.489853	-0.773880
O14	O	1.250534	-0.489898	-0.603548
O15	O	1.557463	-0.379045	-0.766475
O16	O	1.539958	-0.636202	-0.484313
O17	O	1.410948	-0.636157	-0.613350
C18	C	1.216148	-0.434510	-0.535314
C19	C	1.099370	-0.434527	-0.535331
C20	C	1.040641	-0.492295	-0.606288
C21	C	0.930916	-0.492298	-0.606309
C22	C	0.938660	-0.376764	-0.464408
C23	C	1.048383	-0.376757	-0.464392
C24	C	1.473264	-0.668914	-0.551045
C25	C	1.466579	-0.769188	-0.557800
C26	C	1.588495	-0.957599	-0.436237
C27	C	1.582218	-1.051816	-0.442581
C28	C	1.447753	-1.051839	-0.576837
C29	C	1.454031	-0.957623	-0.570493
C30	C	1.524403	-0.910506	-0.500190
C31	C	1.530674	-0.816288	-0.493841
C32	C	1.396216	-0.816313	-0.628102
C33	C	1.389938	-0.910529	-0.634446
C34	C	1.763147	-0.434533	-0.535358
C35	C	1.879923	-0.434538	-0.535368
C36	C	1.489196	-0.434437	-0.809364
C37	C	1.489231	-0.434401	-0.926138
C38	C	1.505055	-0.199213	-0.519588
C39	C	1.511848	-0.098939	-0.512878
C40	C	1.552551	-0.492038	-1.094598
C41	C	1.552522	-0.492080	-0.984877
C42	C	1.425957	-0.376683	-0.977126
C43	C	1.425980	-0.376645	-1.086846
C44	C	1.489097	-0.434540	-0.262370
C45	C	1.489283	-0.434321	-0.145579
H46	H	0.883104	-0.539337	-0.664090
H47	H	0.897133	-0.329731	-0.406650
H48	H	1.082151	-0.539333	-0.664053
H49	H	1.374419	-0.329723	-0.929293
Br50	Br	1.128095	-0.298343	-0.368097
H51	H	1.634411	-1.090156	-0.390506
Br52	Br	1.626171	-0.752344	-0.398424
H53	H	1.374455	-0.329644	-1.128355
H54	H	1.645788	-0.919237	-0.378986
H55	H	1.344024	-0.777958	-0.680173
H56	H	1.332646	-0.948904	-0.691687
Br57	Br	1.352274	-1.115798	-0.672259
H58	H	1.604095	-0.539002	-1.142415
H59	H	1.604041	-0.539078	-0.943373
