data_functionalizedCrystal
_audit_creation_method	'MofGen! by Chris Wilmer'
_symmetry_space_group_name_H-M	'P1'
_symmetry_Int_Tables_number	1
_symmetry_cell_setting	triclinic
loop_
_symmetry_equiv_pos_as_xyz
  x,y,z
_cell_length_a	18.215407
_cell_length_b	16.120531
_cell_length_c	18.215399
_cell_angle_alpha	92.866294
_cell_angle_beta	90.019833
_cell_angle_gamma	87.067235
loop_
_atom_site_label
_atom_site_type_symbol
_atom_site_fract_x
_atom_site_fract_y
_atom_site_fract_z
Zn1	Zn	1.110178	0.331906	0.430942
Zn2	Zn	1.610178	0.831906	0.930942
Zn3	Zn	1.103830	0.471328	0.314104
Zn4	Zn	1.603830	0.971328	0.814104
Zn5	Zn	0.987109	0.331934	0.307891
Zn6	Zn	1.487109	0.831934	0.807891
Zn7	Zn	0.980822	0.471282	0.437126
Zn8	Zn	1.480822	0.971282	0.937126
O9	O	1.045485	0.401612	0.372516
O10	O	1.545485	0.901612	0.872516
O11	O	1.212320	0.350409	0.415455
O12	O	1.712320	0.850409	0.915455
O13	O	1.088321	0.452868	0.210296
O14	O	1.588321	0.952868	0.710296
O15	O	1.008722	0.215264	0.319025
O16	O	1.508722	0.715264	0.819025
O17	O	1.207656	0.452841	0.329614
O18	O	1.707656	0.952841	0.829614
O19	O	1.099141	0.215244	0.409431
O20	O	1.599141	0.715244	0.909431
O21	O	1.002567	0.350456	0.205732
O22	O	1.502567	0.850456	0.705732
O23	O	0.883291	0.350411	0.325022
O24	O	1.383291	0.850411	0.825022
O25	O	0.998007	0.452762	0.539289
O26	O	1.498007	0.952762	1.039289
O27	O	0.878672	0.452789	0.419971
O28	O	1.378672	0.952789	0.919971
O29	O	1.093044	0.350364	0.534745
O30	O	1.593044	0.850364	1.034745
O31	O	1.082225	0.587988	0.335611
O32	O	1.582225	1.087988	0.835611
O33	O	0.991851	0.587954	0.425996
O34	O	1.491851	1.087954	0.925996
C35	C	0.854279	0.401598	0.372494
C36	C	1.354279	0.901598	0.872494
C37	C	0.772480	0.401612	0.372503
C38	C	1.272480	0.901612	0.872503
C39	C	0.581896	0.455004	0.421888
C40	C	1.081896	0.955004	0.921888
C41	C	0.505037	0.455007	0.421897
C42	C	1.005037	0.955007	0.921897
C43	C	0.509825	0.348236	0.323160
C44	C	1.009825	0.848236	0.823160
C45	C	0.586683	0.348229	0.323155
C46	C	1.086683	0.848229	0.823155
C47	C	0.622716	0.401619	0.372518
C48	C	1.122716	0.901619	0.872518
C49	C	0.468999	0.401627	0.372532
C50	C	0.968999	0.901627	0.872532
C51	C	0.385666	0.401630	0.372542
C52	C	0.885666	0.901630	0.872542
C53	C	0.706055	0.401615	0.372509
C54	C	1.206055	0.901615	0.872509
C55	C	1.035687	0.618221	0.382165
C56	C	1.535687	1.118221	0.882165
C57	C	1.031563	0.710887	0.386317
C58	C	1.531563	1.210887	0.886317
C59	C	1.024037	0.880549	0.393914
C60	C	1.524037	1.380549	0.893914
C61	C	1.066960	0.921836	0.351076
C62	C	1.566960	1.421836	0.851076
C63	C	1.062773	1.016241	0.355303
C64	C	1.562773	1.516241	0.855303
C65	C	1.028223	0.786135	0.389688
C66	C	1.528223	1.286135	0.889688
C67	C	1.237437	0.401627	0.372538
C68	C	1.737437	0.901627	0.872538
C69	C	1.319236	0.401634	0.372547
C70	C	1.819236	0.901634	0.872547
C71	C	1.045532	0.401555	0.564466
C72	C	1.545532	0.901555	1.064466
C73	C	1.045552	0.401531	0.646264
C74	C	1.545552	0.901531	1.146264
C75	C	1.055315	1.184158	0.362831
C76	C	1.555315	1.684158	0.862831
C77	C	1.059437	1.091492	0.358670
C78	C	1.559437	1.591492	0.858670
C79	C	1.045483	0.401610	0.181309
C80	C	1.545483	0.901610	0.681309
C81	C	1.045616	0.401399	0.099501
C82	C	1.545616	0.901399	0.599501
C83	C	1.095057	0.348162	0.832091
C84	C	1.595057	0.848162	1.332091
C85	C	1.095067	0.348138	0.908949
C86	C	1.595067	0.848138	1.408949
C87	C	0.996105	0.454770	0.913669
C88	C	1.496105	0.954770	1.413669
C89	C	0.996092	0.454790	0.836813
C90	C	1.496092	0.954790	1.336813
C91	C	1.045573	0.401487	0.796026
C92	C	1.545573	0.901487	1.296026
C93	C	1.045595	0.401443	0.949740
C94	C	1.545595	0.901443	1.449740
C95	C	1.045606	0.401417	1.033072
C96	C	1.545606	0.901417	1.533072
C97	C	1.045562	0.401511	0.712688
C98	C	1.545562	0.901511	1.212688
H99	H	0.611232	0.498475	0.462084
H100	H	1.111232	0.998475	0.962084
C101	C	0.470748	0.290138	0.269648
C102	C	0.970748	0.790138	0.769648
C103	C	0.493164	0.207671	0.282128
C104	C	0.993164	0.707671	0.782128
C105	C	0.457178	0.154129	0.232850
C106	C	0.957178	0.654129	0.732850
H107	H	0.482751	0.302158	0.220693
H108	H	0.982751	0.802158	0.720693
H109	H	0.419123	0.297730	0.276722
H110	H	0.919123	0.797730	0.776722
H111	H	0.544777	0.200083	0.275048
H112	H	1.044777	0.700083	0.775048
H113	H	0.481160	0.195625	0.331073
H114	H	0.981160	0.695625	0.831073
H115	H	0.405553	0.161721	0.239924
H116	H	0.905553	0.661721	0.739924
H117	H	0.469184	0.166156	0.183898
H118	H	0.969184	0.666156	0.683898
H119	H	0.472377	0.098169	0.241315
H120	H	0.972377	0.598169	0.741315
H121	H	0.619919	0.304751	0.282952
H122	H	1.119919	0.804751	0.782952
H123	H	0.955822	0.498169	0.946887
H124	H	1.455822	0.998169	1.446887
H125	H	0.955791	0.498213	0.807447
H126	H	1.455791	0.998213	1.307447
C127	C	0.970822	0.927799	0.447116
C128	C	1.470822	1.427799	0.947116
C129	C	0.932051	0.871157	0.485823
C130	C	1.432051	1.371157	0.985823
C131	C	0.883030	0.914664	0.534844
C132	C	1.383030	1.414664	1.034844
H133	H	0.937233	0.961828	0.420505
H134	H	1.437233	1.461828	0.920505
H135	H	0.997465	0.961697	0.480735
H136	H	1.497465	1.461697	0.980735
H137	H	0.905410	0.837273	0.452209
H138	H	1.405410	1.337273	0.952209
H139	H	0.965621	0.837126	0.512449
H140	H	1.465621	1.337126	1.012449
H141	H	0.909672	0.948562	0.568463
H142	H	1.409672	1.448562	1.068463
H143	H	0.849445	0.948691	0.508227
H144	H	1.349445	1.448691	1.008227
H145	H	0.856723	0.876239	0.561117
H146	H	1.356723	1.376239	1.061117
H147	H	1.106852	0.886281	0.311226
H148	H	1.606852	1.386281	0.811226
C149	C	1.148804	0.290194	0.787936
C150	C	1.648804	0.790194	1.287936
C151	C	1.192128	0.243473	0.835974
C152	C	1.692128	0.743473	1.335974
C153	C	1.241640	0.190054	0.795327
C154	C	1.741640	0.690054	1.295327
H155	H	1.179491	0.321999	0.759370
H156	H	1.679491	0.821999	1.259370
H157	H	1.122309	0.253831	0.756348
H158	H	1.622309	0.753831	1.256348
H159	H	1.218621	0.279832	0.867548
H160	H	1.718621	0.779832	1.367548
H161	H	1.161461	0.211652	0.864540
H162	H	1.661461	0.711652	1.364540
H163	H	1.215145	0.153691	0.763739
H164	H	1.715145	0.653691	1.263739
H165	H	1.272322	0.221865	0.766763
H166	H	1.772322	0.721865	1.266763
H167	H	1.271036	0.158342	0.827914
H168	H	1.771036	0.658342	1.327914
C169	C	1.148677	0.290135	0.948137
C170	C	1.648677	0.790135	1.448137
C171	C	1.109433	0.236668	0.989857
C172	C	1.609433	0.736668	1.489857
C173	C	1.158793	0.183212	1.025957
C174	C	1.658793	0.683212	1.525957
H175	H	1.179322	0.321918	0.979601
H176	H	1.679322	0.821918	1.479601
H177	H	1.178128	0.258346	0.912855
H178	H	1.678128	0.758346	1.412855
H179	H	1.079995	0.268453	1.025135
H180	H	1.579995	0.768453	1.525135
H181	H	1.078790	0.204866	0.958410
H182	H	1.578790	0.704866	1.458410
H183	H	1.188245	0.151423	0.990675
H184	H	1.688245	0.651423	1.490675
H185	H	1.189437	0.215002	1.057418
H186	H	1.689437	0.715002	1.557418
H187	H	1.132174	0.146923	1.054263
H188	H	1.632174	0.646923	1.554263
H189	H	0.471805	0.498478	0.462100
H190	H	0.971805	0.998478	0.962100
