data_functionalizedCrystal
_audit_creation_method	'MofGen! by Chris Wilmer'
_symmetry_space_group_name_H-M	'P1'
_symmetry_Int_Tables_number	1
_symmetry_cell_setting	triclinic
loop_
_symmetry_equiv_pos_as_xyz
  x,y,z
_cell_length_a	15.944551
_cell_length_b	9.065218
_cell_length_c	8.140239
_cell_angle_alpha	90.001686
_cell_angle_beta	90.001769
_cell_angle_gamma	95.742688
loop_
_atom_site_label
_atom_site_type_symbol
_atom_site_fract_x
_atom_site_fract_y
_atom_site_fract_z
O1	O	1.115964	-0.190270	-0.136435
O2	O	0.871592	-0.213728	-0.136475
O3	O	0.998829	0.012762	-0.136451
O4	O	0.988727	-0.416759	-0.136459
O5	O	0.998822	0.012764	0.136776
O6	O	0.871585	-0.213725	0.136752
O7	O	1.115956	-0.190267	0.136792
Zn8	Zn	0.993769	-0.201996	0.180152
Zn9	Zn	0.993779	-0.201999	-0.179836
O10	O	0.988719	-0.416757	0.136768
C11	C	0.840287	-0.212753	0.000133
C12	C	0.747019	-0.209833	0.000118
N13	N	0.993769	-0.201993	0.425835
C14	C	0.997854	0.067727	0.000160
C15	C	0.994951	0.231502	0.000151
C16	C	0.531045	-0.062466	0.000152
C17	C	0.470547	-0.130900	-0.134564
C18	C	0.576253	-0.204551	0.000137
C19	C	0.470563	-0.130931	0.134816
C20	C	0.411301	-0.199439	0.000163
C21	C	0.516983	-0.273024	-0.134691
C22	C	0.517005	-0.273035	0.134811
C23	C	0.456525	-0.341573	0.000061
C24	C	0.671277	-0.207493	0.000121
C25	C	0.316278	-0.196509	0.000168
C26	C	1.147261	-0.191242	0.000180
C27	C	1.240530	-0.194162	0.000185
C28	C	0.989694	-0.471722	0.000153
C29	C	0.992597	-0.635497	0.000151
N30	N	0.993786	-0.201991	-0.425519
H31	H	0.449985	-0.070804	-0.248456
H32	H	0.563485	0.055454	-0.000012
C33	C	0.632276	-0.356014	-0.287276
C34	C	0.544577	-0.354081	-0.288622
H35	H	0.649311	-0.406044	-0.382312
H36	H	0.648544	-0.406146	-0.191743
H37	H	0.658450	-0.257159	-0.286886
H38	H	0.518403	-0.452936	-0.288999
H39	H	0.528300	-0.303952	-0.384180
C40	C	0.355049	-0.049075	0.287694
C41	C	0.442827	-0.049778	0.288567
H42	H	0.337931	0.001040	0.382603
H43	H	0.329304	-0.148201	0.287872
H44	H	0.338386	0.000435	0.192024
H45	H	0.459489	-0.099298	0.384232
H46	H	0.468581	0.049366	0.288404
C47	C	0.436393	-0.574941	-0.141209
C48	C	0.412959	-0.500916	-0.000038
H49	H	0.409491	-0.673307	-0.141277
H50	H	0.495788	-0.577643	-0.142104
H51	H	0.419779	-0.524086	-0.235987
H52	H	0.429579	-0.551765	0.094740
H53	H	0.353551	-0.498222	0.000872
H54	H	0.537588	-0.333081	0.248707
