data_functionalizedCrystal
_audit_creation_method	'MofGen! by Chris Wilmer'
_symmetry_space_group_name_H-M	'P1'
_symmetry_Int_Tables_number	1
_symmetry_cell_setting	triclinic
loop_
_symmetry_equiv_pos_as_xyz
  x,y,z
_cell_length_a	16.959455
_cell_length_b	17.637651
_cell_length_c	16.959447
_cell_angle_alpha	101.247502
_cell_angle_beta	90.020374
_cell_angle_gamma	101.214853
loop_
_atom_site_label
_atom_site_type_symbol
_atom_site_fract_x
_atom_site_fract_y
_atom_site_fract_z
Zn1	Zn	1.144780	-0.314809	0.383322
Zn2	Zn	1.644780	0.185191	0.883322
Zn3	Zn	1.117987	-0.447035	0.224382
Zn4	Zn	1.617987	0.052965	0.724382
Zn5	Zn	1.012603	-0.314834	0.251141
Zn6	Zn	1.512603	0.185166	0.751141
Zn7	Zn	0.985870	-0.446976	0.356519
Zn8	Zn	1.485870	0.053024	0.856519
O9	O	1.065310	-0.380914	0.303841
O10	O	1.565310	0.119086	0.803841
O11	O	1.251834	-0.332363	0.362257
O12	O	1.751834	0.167637	0.862257
O13	O	1.103983	-0.429533	0.117314
O14	O	1.603983	0.070467	0.617314
O15	O	1.052538	-0.204192	0.291090
O16	O	1.552538	0.295808	0.791090
O17	O	1.232150	-0.429509	0.245485
O18	O	1.732150	0.070491	0.745485
O19	O	1.149647	-0.204173	0.388204
O20	O	1.649647	0.295827	0.888204
O21	O	1.026558	-0.332406	0.136973
O22	O	1.526558	0.167594	0.636973
O23	O	0.898449	-0.332349	0.265100
O24	O	1.398449	0.167651	0.765100
O25	O	1.006974	-0.429409	0.470692
O26	O	1.506974	0.070591	0.970692
O27	O	0.878808	-0.429433	0.342521
O28	O	1.378808	0.070567	0.842521
O29	O	1.123725	-0.332306	0.490385
O30	O	1.623725	0.167694	0.990385
O31	O	1.078061	-0.557666	0.219495
O32	O	1.578061	-0.057666	0.719495
O33	O	0.980995	-0.557623	0.316575
O34	O	1.480995	-0.057623	0.816575
C35	C	0.859949	-0.380888	0.303806
C36	C	1.359949	0.119112	0.803806
C37	C	0.772091	-0.380896	0.303806
C38	C	1.272091	0.119104	0.803806
C39	C	0.390362	-0.431447	0.243022
C40	C	0.890362	0.068553	0.743022
C41	C	0.410849	-0.330445	0.364743
C42	C	0.910849	0.169555	0.864743
C43	C	0.493397	-0.330432	0.364726
C44	C	0.993397	0.169568	0.864726
C45	C	0.524431	-0.380928	0.303857
C46	C	1.024431	0.119072	0.803857
C47	C	0.472917	-0.431438	0.243005
C48	C	0.972917	0.068562	0.743005
C49	C	0.544916	-0.279930	0.425582
C50	C	1.044916	0.220070	0.925582
C51	C	0.627470	-0.279915	0.425569
C52	C	1.127470	0.220085	0.925569
C53	C	0.658506	-0.330408	0.364696
C54	C	1.158506	0.169592	0.864696
C55	C	0.606987	-0.380919	0.303840
C56	C	1.106987	0.119081	0.803840
C57	C	0.638021	-0.431415	0.242971
C58	C	1.138021	0.068585	0.742971
C59	C	0.586504	-0.481922	0.182112
C60	C	1.086504	0.018078	0.682112
C61	C	0.503953	-0.481930	0.182132
C62	C	1.003953	0.018070	0.682132
C63	C	0.741057	-0.330400	0.364675
C64	C	1.241057	0.169600	0.864675
C65	C	0.720577	-0.431405	0.242954
C66	C	1.220577	0.068595	0.742954
C67	C	1.023741	-0.586332	0.262240
C68	C	1.523741	-0.086332	0.762240
C69	C	1.006030	-0.674211	0.244469
C70	C	1.506030	-0.174211	0.744469
C71	C	1.200373	-0.962892	0.439092
C72	C	1.700373	-0.462892	0.939092
C73	C	1.183705	-1.045467	0.422380
C74	C	1.683705	-0.545467	0.922380
C75	C	1.082652	-1.045594	0.321158
C76	C	1.582652	-0.545594	0.821158
C77	C	1.099314	-0.963017	0.337859
C78	C	1.599314	-0.463017	0.837859
C79	C	1.158174	-0.921672	0.396827
C80	C	1.658174	-0.421672	0.896827
C81	C	1.057116	-0.921797	0.295594
C82	C	1.557116	-0.421797	0.795594
C83	C	1.073773	-0.839227	0.312297
C84	C	1.573773	-0.339227	0.812297
C85	C	1.132629	-0.797876	0.371264
C86	C	1.632629	-0.297876	0.871264
C87	C	1.174832	-0.839102	0.413530
C88	C	1.674832	-0.339102	0.913530
C89	C	0.998252	-0.963143	0.236630
C90	C	1.498252	-0.463143	0.736630
C91	C	0.956054	-0.921923	0.194366
C92	C	1.456054	-0.421923	0.694366
C93	C	0.972715	-0.839351	0.211064
C94	C	1.472715	-0.339351	0.711064
C95	C	1.031571	-0.798001	0.270031
C96	C	1.531571	-0.298001	0.770031
C97	C	0.930512	-0.798126	0.168798
C98	C	1.430512	-0.298126	0.668798
C99	C	0.947170	-0.715556	0.185501
C100	C	1.447170	-0.215556	0.685501
C101	C	1.048228	-0.715431	0.286734
C102	C	1.548228	-0.215431	0.786734
C103	C	1.271473	-0.380940	0.303876
C104	C	1.771473	0.119060	0.803876
C105	C	1.359327	-0.380951	0.303891
C106	C	1.859327	0.119049	0.803891
C107	C	1.065356	-0.380848	0.510022
C108	C	1.565356	0.119152	1.010022
C109	C	1.065376	-0.380820	0.597885
C110	C	1.565376	0.119180	1.097885
C111	C	1.107063	-0.174693	0.345622
C112	C	1.607063	0.325307	0.845622
C113	C	1.124856	-0.086814	0.363426
C114	C	1.624856	0.413186	0.863426
C115	C	1.065321	-0.380922	0.098473
C116	C	1.565321	0.119078	0.598473
C117	C	1.065500	-0.380727	0.010656
C118	C	1.565500	0.119273	0.510656
C119	C	1.004701	-0.431294	0.959127
C120	C	1.504701	0.068706	1.459127
C121	C	1.126274	-0.330180	0.979628
C122	C	1.626274	0.169820	1.479628
C123	C	1.126249	-0.330197	0.897079
C124	C	1.626249	0.169803	1.397079
C125	C	1.065450	-0.380764	0.845549
C126	C	1.565450	0.119236	1.345549
C127	C	1.004676	-0.431314	0.876569
C128	C	1.504676	0.068686	1.376569
C129	C	1.187028	-0.279653	0.866051
C130	C	1.687028	0.220347	1.366051
C131	C	1.187006	-0.279669	0.783497
C132	C	1.687006	0.220331	1.283497
C133	C	1.126203	-0.330232	0.731967
C134	C	1.626203	0.169768	1.231967
C135	C	1.065425	-0.380784	0.762992
C136	C	1.565425	0.119216	1.262992
C137	C	1.004626	-0.431350	0.711463
C138	C	1.504626	0.068650	1.211463
C139	C	0.943845	-0.481899	0.742487
C140	C	1.443845	0.018101	1.242487
C141	C	0.943873	-0.481877	0.825039
C142	C	1.443873	0.018123	1.325039
C143	C	1.126175	-0.330253	0.649414
C144	C	1.626175	0.169747	1.149414
C145	C	1.004601	-0.431370	0.628905
C146	C	1.504601	0.068630	1.128905
H147	H	1.096164	-0.681767	0.334746
H148	H	1.596164	-0.181767	0.834746
F149	F	1.150162	-0.709997	0.389237
F150	F	1.650162	-0.209997	0.889237
F151	F	1.228627	-1.089334	0.467365
F152	F	1.728627	-0.589334	0.967365
H153	H	0.782998	-0.289279	0.414227
H154	H	1.282998	0.210721	0.914227
F155	F	1.237487	-0.795095	0.476282
F156	F	1.737487	-0.295095	0.976282
H157	H	0.462001	-0.523050	0.132583
H158	H	0.962001	-0.023050	0.632583
F159	F	1.263028	-0.918885	0.501844
F160	F	1.763028	-0.418885	1.001844
F161	F	0.879193	-0.535672	0.858063
F162	F	1.379193	-0.035672	1.358063
H163	H	0.882583	-0.831801	0.120792
H164	H	1.382583	-0.331801	0.620792
H165	H	1.034727	-1.079268	0.273148
H166	H	1.534727	-0.579268	0.773148
H167	H	0.984684	-1.030377	0.223040
H168	H	1.484684	-0.530377	0.723040
H169	H	0.912807	-0.681994	0.151085
H170	H	1.412807	-0.181994	0.651085
F171	F	1.251734	-0.225846	0.920894
F172	F	1.751734	0.274154	1.420894
F173	F	0.893407	-0.965933	0.131615
F174	F	1.393407	-0.465933	0.631615
F175	F	0.939886	-0.485188	0.574070
F176	F	1.439886	0.014812	1.074070
F177	F	1.251693	-0.225870	0.750486
F178	F	1.751693	0.274130	1.250486
F179	F	0.377816	-0.276715	0.429526
F180	F	0.877816	0.223285	0.929526
H181	H	0.894345	-0.523074	0.700520
H182	H	1.394345	-0.023074	1.200520
H183	H	0.955212	-0.472447	0.984391
H184	H	1.455212	0.027553	1.484391
F185	F	1.190981	-0.276372	1.034469
F186	F	1.690981	0.223628	1.534469
H187	H	0.745838	-0.472523	0.193384
H188	H	1.245838	0.027477	0.693384
H189	H	1.175664	-0.289100	0.624157
H190	H	1.675664	0.210900	1.124157
H191	H	0.611782	-0.523040	0.132555
H192	H	1.111782	-0.023040	0.632555
H193	H	0.348413	-0.472567	0.193470
H194	H	0.848413	0.027433	0.693470
H195	H	0.519641	-0.238824	0.475142
H196	H	1.019641	0.261176	0.975142
H197	H	0.669409	-0.238789	0.475124
H198	H	1.169409	0.261211	0.975124
