data_functionalizedCrystal
_audit_creation_method	'MofGen! by Chris Wilmer'
_symmetry_space_group_name_H-M	'P1'
_symmetry_Int_Tables_number	1
_symmetry_cell_setting	triclinic
loop_
_symmetry_equiv_pos_as_xyz
  x,y,z
_cell_length_a	12.759401
_cell_length_b	16.959453
_cell_length_c	12.759393
_cell_angle_alpha	90.035042
_cell_angle_beta	90.019377
_cell_angle_gamma	90.021695
loop_
_atom_site_label
_atom_site_type_symbol
_atom_site_fract_x
_atom_site_fract_y
_atom_site_fract_z
Zn1	Zn	1.606217	-0.314599	0.593981
Zn2	Zn	1.606095	-0.446801	0.418290
Zn3	Zn	1.430519	-0.314644	0.418317
Zn4	Zn	1.430491	-0.446743	0.593929
O5	O	1.518330	-0.380697	0.506129
O6	O	1.753222	-0.332141	0.570685
O7	O	1.582765	-0.429312	0.271273
O8	O	1.453888	-0.204027	0.441653
O9	O	1.753132	-0.429269	0.441606
O10	O	1.582973	-0.203994	0.570712
O11	O	1.453770	-0.332218	0.271293
O12	O	1.283494	-0.332162	0.441602
O13	O	1.453841	-0.429171	0.740957
O14	O	1.283474	-0.429215	0.570623
O15	O	1.582946	-0.332085	0.740995
O16	O	1.582738	-0.557404	0.441556
O17	O	1.453723	-0.557362	0.570597
C18	C	1.245363	-0.380688	0.506111
C19	C	1.128586	-0.380703	0.506128
C20	C	0.964052	-0.330216	0.573455
C21	C	1.073776	-0.330214	0.573444
C22	C	1.073667	-0.431202	0.438826
C23	C	0.963945	-0.431208	0.438844
C24	C	0.964116	-0.271909	0.651172
C25	C	1.073840	-0.271907	0.651161
C26	C	1.518243	-0.586063	0.506091
C27	C	1.518301	-0.673920	0.506109
C28	C	1.585631	-1.045319	0.573457
C29	C	1.451323	-1.045471	0.438957
C30	C	1.451285	-0.962925	0.438933
C31	C	1.518419	-0.921572	0.506173
C32	C	1.585592	-0.962766	0.573437
C33	C	1.384105	-0.921725	0.371678
C34	C	1.384063	-0.839174	0.371652
C35	C	1.451203	-0.797820	0.438887
C36	C	1.518380	-0.839019	0.506153
C37	C	1.585514	-0.797666	0.573393
C38	C	1.652696	-0.838863	0.640655
C39	C	1.652732	-0.921412	0.640673
C40	C	1.451167	-0.715272	0.438869
C41	C	1.585475	-0.715113	0.573374
C42	C	1.792364	-0.380706	0.506148
C43	C	1.909140	-0.380710	0.506157
C44	C	1.518404	-0.380617	0.780163
C45	C	1.518435	-0.380583	0.896939
C46	C	1.518447	-0.174528	0.506191
C47	C	1.518497	-0.086672	0.506217
C48	C	1.518318	-0.380719	0.233162
C49	C	1.518490	-0.380530	0.116386
C50	C	1.585670	-0.330025	0.951823
C51	C	1.585694	-0.329997	1.061547
C52	C	1.451248	-0.431090	1.061495
C53	C	1.451219	-0.431114	0.951772
C54	C	1.663294	-0.271663	0.951854
C55	C	1.663319	-0.271634	1.061578
H56	H	1.103634	-0.210670	0.629497
H57	H	1.396466	-0.472280	0.907090
Cl58	Cl	0.911578	-0.182094	0.606394
Cl59	Cl	1.126433	-0.305863	0.770410
Cl60	Cl	1.669883	-0.663134	0.657903
H61	H	1.707353	-0.805185	0.695407
Cl62	Cl	0.918187	-0.297332	0.776745
H63	H	1.640332	-1.078866	0.628217
H64	H	1.329360	-0.805637	0.316884
H65	H	1.707428	-0.954962	0.695434
H66	H	1.396521	-0.472229	1.106153
Cl67	Cl	1.782591	-0.305537	0.899296
Cl68	Cl	1.142572	-0.494681	0.354210
H69	H	1.744688	-0.288028	1.091357
Cl70	Cl	1.366916	-1.097457	0.354447
H71	H	1.329445	-0.955400	0.316938
H72	H	1.396463	-0.681733	0.384111
H73	H	1.641533	-0.210449	0.922103
H74	H	0.919240	-0.472332	0.384052
Cl75	Cl	1.618231	-0.181882	1.114162
