data_functionalizedCrystal
_audit_creation_method	'MofGen! by Chris Wilmer'
_symmetry_space_group_name_H-M	'P1'
_symmetry_Int_Tables_number	1
_symmetry_cell_setting	triclinic
loop_
_symmetry_equiv_pos_as_xyz
  x,y,z
_cell_length_a	12.837943
_cell_length_b	12.837942
_cell_length_c	11.892095
_cell_angle_alpha	94.302569
_cell_angle_beta	85.689438
_cell_angle_gamma	94.828940
loop_
_atom_site_label
_atom_site_type_symbol
_atom_site_fract_x
_atom_site_fract_y
_atom_site_fract_z
O1	O	1.408367	0.266110	-0.093982
O2	O	1.105234	0.252667	-0.093989
O3	O	1.250078	0.107822	-0.093979
O4	O	1.263522	0.410955	-0.093992
O5	O	1.237999	0.119879	0.094028
O6	O	1.093155	0.264723	0.094018
O7	O	1.396288	0.278167	0.094025
Zn8	Zn	1.242803	0.273359	0.123871
Zn9	Zn	1.258718	0.257474	-0.123836
O10	O	1.251443	0.423011	0.094014
C11	C	1.060125	0.254153	0.000014
C12	C	0.943710	0.240609	0.000011
C13	C	0.718835	0.403439	0.000020
C14	C	0.609453	0.390717	0.000019
C15	C	0.615561	0.202446	0.000015
C16	C	0.724943	0.215167	0.000017
C17	C	0.776577	0.315667	0.000017
C18	C	0.885961	0.328387	0.000011
C19	C	0.892066	0.140117	0.000015
C20	C	0.782684	0.127395	0.000014
C21	C	1.239497	0.074781	0.000024
C22	C	1.225953	-0.041634	0.000022
C23	C	1.388784	-0.266509	0.000002
C24	C	1.376062	-0.375892	-0.000000
C25	C	1.187791	-0.369784	0.000007
C26	C	1.200512	-0.260402	0.000009
C27	C	1.301011	-0.208768	0.000008
C28	C	1.313731	-0.099383	0.000019
C29	C	1.125461	-0.093278	0.000018
C30	C	1.112740	-0.202660	0.000016
C31	C	1.441397	0.276680	0.000020
C32	C	1.557812	0.290224	0.000015
C33	C	1.262024	0.456052	0.000009
C34	C	1.275569	0.572467	0.000004
N35	N	1.231950	0.284200	0.292925
N36	N	1.269579	0.246626	-0.292889
C37	C	1.345098	0.171130	0.529580
C38	C	1.337519	0.178716	0.647922
C39	C	1.209210	0.306952	0.647951
C40	C	1.216788	0.299366	0.529610
C41	C	1.284736	0.231454	0.470428
C42	C	1.292319	0.223874	0.352085
C43	C	1.164005	0.352104	0.352116
C44	C	1.156426	0.359690	0.470458
H45	H	0.939091	0.068646	0.000005
C46	C	0.669427	-0.002320	-0.096643
C47	C	0.725923	0.016930	0.000006
H48	H	0.634394	-0.070522	-0.096651
H49	H	0.619387	0.048127	-0.096628
H50	H	0.716194	0.002362	-0.162196
H51	H	0.679156	0.012255	0.065560
H52	H	0.775970	-0.033532	0.000002
H53	H	1.470613	-0.224468	0.000012
H54	H	1.153882	0.362237	0.696151
H55	H	1.447536	-0.422901	-0.000009
H56	H	1.105969	-0.411844	-0.000004
C57	C	0.868933	0.513206	0.000029
C58	C	0.942720	0.438854	0.000018
H59	H	0.903973	0.581405	0.000043
H60	H	0.830611	0.500132	-0.065531
H61	H	0.822183	0.508516	0.065594
H62	H	0.989466	0.443539	-0.065552
H63	H	0.981059	0.451932	0.065584
H64	H	1.114857	0.401227	0.303941
C65	C	0.614409	0.578090	0.000010
C66	C	0.545984	0.487198	0.000012
H67	H	0.575223	0.637654	-0.000000
H68	H	0.652982	0.583339	0.065570
H69	H	0.661415	0.574925	-0.065554
H70	H	0.498982	0.490359	0.065582
H71	H	0.507392	0.481949	-0.065554
C72	C	1.362314	0.022417	0.396449
C73	C	1.419803	0.096517	0.464501
H74	H	1.408443	-0.023633	0.356264
H75	H	1.312091	-0.016635	0.442615
H76	H	1.327434	0.057269	0.344301
H77	H	1.454678	0.061665	0.516655
H78	H	1.470045	0.135573	0.418331
H79	H	1.030916	-0.244716	0.000012
C80	C	1.110514	0.537145	0.506898
C81	C	1.081738	0.434336	0.535509
H82	H	1.064398	0.583227	0.547051
H83	H	1.180250	0.556687	0.526289
H84	H	1.106392	0.541246	0.427949
H85	H	1.085867	0.430233	0.614457
H86	H	1.011984	0.414789	0.516125
H87	H	0.760876	0.485269	0.000019
C88	C	1.498551	-0.116412	-0.000011
C89	C	1.424198	-0.042625	0.000006
H90	H	1.566750	-0.081373	-0.000030
H91	H	1.485472	-0.154743	0.065549
H92	H	1.493866	-0.163153	-0.065576
H93	H	1.428878	0.004111	0.065576
H94	H	1.437282	-0.004277	-0.065560
C95	C	0.975095	-0.060593	-0.096615
C96	C	1.028969	-0.029811	0.000027
H97	H	0.915523	-0.021415	-0.096600
H98	H	1.020063	-0.048109	-0.162167
H99	H	0.953149	-0.133130	-0.096608
H100	H	1.050922	0.042724	0.000016
H101	H	0.983993	-0.042287	0.065595
C102	C	1.309411	0.075085	0.219060
C103	C	1.366968	0.149174	0.287057
H104	H	1.355489	0.028956	0.178922
H105	H	1.259142	0.036118	0.265258
H106	H	1.274580	0.109938	0.166871
H107	H	1.401793	0.114322	0.339252
H108	H	1.417256	0.188146	0.240854
C109	C	1.378758	0.005931	0.684341
C110	C	1.403872	0.112407	0.712943
H111	H	1.419727	-0.035006	0.724479
H112	H	1.306535	-0.011121	0.703757
H113	H	1.392998	-0.008292	0.605389
H114	H	1.389624	0.126631	0.791894
H115	H	1.476112	0.129465	0.693535
H116	H	0.573495	0.120630	0.000108
