data_functionalizedCrystal
_audit_creation_method	'MofGen! by Chris Wilmer'
_symmetry_space_group_name_H-M	'P1'
_symmetry_Int_Tables_number	1
_symmetry_cell_setting	triclinic
loop_
_symmetry_equiv_pos_as_xyz
  x,y,z
_cell_length_a	12.837943
_cell_length_b	10.489741
_cell_length_c	11.892095
_cell_angle_alpha	93.929268
_cell_angle_beta	85.689438
_cell_angle_gamma	89.684057
loop_
_atom_site_label
_atom_site_type_symbol
_atom_site_fract_x
_atom_site_fract_y
_atom_site_fract_z
O1	O	1.384503	0.324530	-0.093982
O2	O	1.082575	0.308135	-0.093989
O3	O	1.240409	0.131493	-0.093979
O4	O	1.226669	0.501172	-0.093992
O5	O	1.227249	0.146196	0.094028
O6	O	1.069415	0.322838	0.094018
O7	O	1.371343	0.339233	0.094024
Zn8	Zn	1.218290	0.333370	0.123871
Zn9	Zn	1.235629	0.313998	-0.123836
O10	O	1.213509	0.515875	0.094014
C11	C	1.037334	0.309948	0.000014
C12	C	0.922133	0.293430	0.000011
C13	C	0.682657	0.492006	0.000020
C14	C	0.574415	0.476492	0.000019
C15	C	0.597406	0.246889	0.000015
C16	C	0.705648	0.262403	0.000016
C17	C	0.748269	0.384966	0.000017
C18	C	0.856513	0.400478	0.000011
C19	C	0.879501	0.170877	0.000015
C20	C	0.771260	0.155363	0.000014
C21	C	1.232791	0.091198	0.000024
C22	C	1.229687	-0.050774	0.000022
C23	C	1.129262	-0.129987	0.000011
C24	C	1.170213	-0.209630	0.092709
C25	C	1.183212	-0.224098	-0.092650
C26	C	1.270674	-0.128541	0.092796
C27	C	1.283664	-0.143007	-0.092647
C28	C	1.324687	-0.222613	0.000074
C29	C	1.416585	0.337420	0.000019
C30	C	1.531786	0.353937	0.000014
C31	C	1.221127	0.556170	0.000009
C32	C	1.224233	0.698141	0.000004
N33	N	1.206464	0.346591	0.292925
N34	N	1.247463	0.300768	-0.292889
C35	C	1.329751	0.208698	0.529580
C36	C	1.321493	0.217950	0.647922
C37	C	1.181684	0.374338	0.647951
C38	C	1.189943	0.365086	0.529609
C39	C	1.263980	0.282265	0.470428
C40	C	1.272243	0.273021	0.352085
C41	C	1.132429	0.429402	0.352116
C42	C	1.124171	0.438653	0.470457
H43	H	0.520997	0.563656	0.000024
H44	H	1.407327	-0.262921	0.000127
H45	H	1.331606	-0.113411	-0.171018
N46	N	1.347861	0.188403	0.291650
N47	N	1.417206	0.231552	0.225599
H48	H	1.470610	0.171774	0.182931
N49	N	1.065259	0.504560	0.291676
N50	N	1.072649	0.496303	0.186015
H51	H	1.025216	0.549388	0.143326
N52	N	1.317021	-0.076304	0.191237
N53	N	1.276465	-0.095630	0.287364
H54	H	1.309192	-0.058735	0.356890
N55	N	1.405286	0.123974	0.469139
N56	N	1.463944	0.058211	0.521968
H57	H	1.517254	-0.001680	0.479284
H58	H	1.375049	0.158043	0.696080
H59	H	1.146193	-0.265877	-0.171027
N60	N	0.726184	0.617201	0.000028
N61	N	0.700850	0.698532	0.079276
H62	H	0.731589	0.786955	0.079283
H63	H	1.121398	0.441759	0.696151
N64	N	1.048548	0.523234	0.530931
N65	N	1.041179	0.531481	0.636592
H66	H	0.987770	0.591219	0.679302
N67	N	0.553841	0.121715	0.000027
N68	N	0.457194	0.107888	0.000033
H69	H	0.426424	0.019482	0.000041
H70	H	0.891213	0.500275	0.000013
H71	H	0.736541	0.055577	0.000026
N72	N	1.110028	-0.246758	0.191007
N73	N	1.098662	-0.362525	0.207138
H74	H	1.056151	-0.388747	0.276558
N75	N	0.946539	0.061542	0.000004
N76	N	1.043182	0.075405	-0.000003
H77	H	1.090530	-0.001810	-0.000015
H78	H	1.046687	-0.089432	0.000103
