data_functionalizedCrystal
_audit_creation_method	'MofGen! by Chris Wilmer'
_symmetry_space_group_name_H-M	'P1'
_symmetry_Int_Tables_number	1
_symmetry_cell_setting	triclinic
loop_
_symmetry_equiv_pos_as_xyz
  x,y,z
_cell_length_a	29.999520
_cell_length_b	29.998686
_cell_length_c	29.995014
_cell_angle_alpha	60.005185
_cell_angle_beta	60.010401
_cell_angle_gamma	59.993433
loop_
_atom_site_label
_atom_site_type_symbol
_atom_site_fract_x
_atom_site_fract_y
_atom_site_fract_z
O1	O	0.061772	-0.651300	0.544623
O2	O	0.023267	-0.507084	0.438819
O3	O	0.114589	-0.598332	0.438743
O4	O	-0.029550	-0.560051	0.544699
O5	O	0.144886	-0.568039	0.468961
O6	O	0.053564	-0.476791	0.469038
O7	O	0.092069	-0.621007	0.574841
Zn8	Zn	0.077627	-0.544089	0.526737
Zn9	Zn	0.037709	-0.584002	0.486923
O10	O	0.000748	-0.529758	0.574918
N11	N	0.104871	-0.516854	0.553912
N12	N	0.010470	-0.611242	0.459748
C13	C	0.143162	-0.478782	0.827124
C14	C	0.378203	-0.478734	0.591892
C15	C	0.143005	-0.478752	0.591997
C16	C	0.142986	-0.243586	0.592008
C17	C	0.180857	-0.357087	0.629814
C18	C	0.180866	-0.440920	0.629807
C19	C	0.201840	-0.419964	0.650755
C20	C	0.293272	-0.404201	0.602606
C21	C	0.350426	-0.423248	0.583534
C22	C	0.350451	-0.515727	0.618798
C23	C	0.293297	-0.496678	0.637872
C24	C	0.194628	-0.328499	0.573626
C25	C	0.175551	-0.271340	0.554591
C26	C	0.128936	-0.271362	0.647935
C27	C	0.148014	-0.328521	0.666970
C28	C	0.124672	-0.427119	0.643641
C29	C	0.105611	-0.446170	0.624592
C30	C	0.198934	-0.492820	0.577889
C31	C	0.217998	-0.473770	0.596931
C32	C	0.124740	-0.427136	0.742229
C33	C	0.105728	-0.446202	0.799386
C34	C	0.199085	-0.492863	0.799337
C35	C	0.218096	-0.473798	0.742178
C36	C	0.180923	-0.440933	0.713626
C37	C	0.264710	-0.440915	0.629773
C38	C	0.121509	-0.499370	0.889991
C39	C	0.441068	-0.498953	0.570621
C40	C	0.121297	-0.499349	0.571429
C41	C	0.121653	-0.180715	0.571802
C42	C	-0.111071	-0.648912	0.421584
C43	C	-0.027286	-0.649018	0.421777
C44	C	-0.048200	-0.669944	0.400740
C45	C	-0.064036	-0.761340	0.448814
C46	C	-0.045033	-0.818500	0.467893
C47	C	0.047447	-0.818609	0.432797
C48	C	0.028444	-0.761451	0.413717
C49	C	-0.139731	-0.662677	0.477755
C50	C	-0.196885	-0.643554	0.496701
C51	C	-0.196717	-0.596907	0.403303
C52	C	-0.139562	-0.616030	0.384357
C53	C	-0.041053	-0.592827	0.407952
C54	C	-0.022041	-0.573809	0.427083
C55	C	0.024504	-0.667167	0.473848
C56	C	0.005492	-0.686188	0.454725
C57	C	-0.040886	-0.592836	0.309259
C58	C	-0.021740	-0.573821	0.252102
C59	C	0.024886	-0.667185	0.252163
C60	C	0.005743	-0.686199	0.309322
C61	C	-0.027145	-0.649023	0.337868
C62	C	-0.027299	-0.732818	0.421728
N63	N	0.492511	-0.516826	0.553742
O64	O	0.679283	-0.525926	0.419277
O65	O	0.679465	-0.632059	0.563349
O66	O	0.679393	-0.631817	0.471975
O67	O	0.679355	-0.526168	0.510650
O68	O	0.588593	-0.601610	0.502313
O69	O	0.588665	-0.601852	0.593686
O70	O	0.588483	-0.495720	0.449614
Zn71	Zn	0.574158	-0.543990	0.526467
Zn72	Zn	0.693790	-0.583788	0.486496
O73	O	0.588555	-0.495962	0.540987
N74	N	0.775436	-0.610952	0.459215
N75	N	0.104844	-0.129269	0.553931
O76	O	-0.029548	0.057600	0.544709
O77	O	0.114530	0.057617	0.438578
O78	O	0.023130	0.057594	0.438850
O79	O	0.061852	0.057623	0.544437
O80	O	0.053431	-0.033213	0.469115
O81	O	0.144831	-0.033190	0.468843
O82	O	0.000753	-0.033207	0.574974
Zn83	Zn	0.077603	-0.047616	0.526714
Zn84	Zn	0.037680	0.072026	0.486838
O85	O	0.092153	-0.033184	0.574702
N86	N	0.010432	0.153679	0.459622
N87	N	0.105130	-0.516904	0.941437
O88	O	0.095923	-0.651280	1.128292
O89	O	-0.010184	-0.507155	1.128318
O90	O	-0.009938	-0.598539	1.128284
O91	O	0.095677	-0.559897	1.128326
O92	O	0.020315	-0.568257	1.037481
O93	O	0.020068	-0.476874	1.037515
O94	O	0.126176	-0.620999	1.037489
Zn95	Zn	0.077925	-0.544128	1.023085
Zn96	Zn	0.038066	-0.584026	1.142722
O97	O	0.125929	-0.529616	1.037523
N98	N	0.010860	-0.611256	1.224371
C99	C	0.034807	-0.473765	0.439352
C100	C	0.147897	-0.586765	0.439257
C101	C	0.080529	-0.654326	0.574308
C102	C	-0.032561	-0.541326	0.574403
C103	C	0.634087	-0.631571	0.596668
C104	C	0.633999	-0.631272	0.483513
C105	C	0.633858	-0.496206	0.416295
C106	C	0.633949	-0.496507	0.529449
C107	C	0.147793	0.012327	0.439058
C108	C	0.034644	0.012187	0.439432
C109	C	-0.032548	0.012195	0.574457
C110	C	0.080639	0.012222	0.574120
C111	C	-0.009670	-0.473857	1.082920
C112	C	-0.009359	-0.587018	1.082860
C113	C	0.125662	-0.654297	1.082887
C114	C	0.125358	-0.541129	1.082927
H115	H	0.094465	-0.400370	0.718985
H116	H	0.189295	-0.594927	0.405983
H117	H	0.634133	-0.664888	0.638048
H118	H	-0.032937	-0.528066	0.228816
O119	O	-0.081971	-0.531498	0.614048
C120	C	-0.171888	-0.466817	0.639283
C121	C	-0.115954	-0.477871	0.594341
H122	H	-0.199384	-0.423464	0.623363
H123	H	-0.166198	-0.471703	0.676515
H124	H	-0.191505	-0.497121	0.651234
H125	H	-0.096308	-0.447576	0.582345
H126	H	-0.121680	-0.473004	0.557139
H127	H	0.634015	-0.664461	0.475235
O128	O	-0.048947	-0.596771	1.082727
C129	C	-0.108434	-0.570487	1.035584
C130	C	-0.063612	-0.559376	1.035673
H131	H	-0.120296	-0.540268	0.997539
H132	H	-0.145741	-0.565574	1.073546
H133	H	-0.092418	-0.613879	1.035586
H134	H	-0.079576	-0.515987	1.035651
H135	H	-0.026314	-0.564326	0.997714
O136	O	0.633812	-0.456519	0.366898
C137	C	0.633681	-0.431117	0.276989
C138	C	0.633747	-0.476115	0.332901
H139	H	0.633616	-0.446940	0.249490
H140	H	0.671666	-0.419180	0.257320
H141	H	0.595667	-0.393898	0.282779
H142	H	0.671735	-0.513364	0.327158
H143	H	0.595736	-0.488006	0.352550
H144	H	0.633941	-0.463320	0.537725
H145	H	0.189085	0.012584	0.405656
H146	H	0.026351	0.012184	0.406260
O147	O	-0.081871	0.012168	0.614276
C148	C	-0.137784	0.012207	0.706310
C149	C	-0.081898	0.012226	0.661268
H150	H	-0.137828	0.012266	0.744310
H151	H	-0.145787	-0.025810	0.716675
H152	H	-0.171127	0.050196	0.691273
H153	H	-0.048520	-0.025737	0.676269
H154	H	-0.073942	0.050268	0.650910
O155	O	0.090627	0.012197	0.613647
C156	C	0.155510	0.012230	0.638587
C157	C	0.144274	0.012250	0.593778
H158	H	0.198878	0.012285	0.622536
H159	H	0.150685	-0.025786	0.675850
H160	H	0.125262	0.050219	0.650540
H161	H	0.174511	-0.025713	0.581779
H162	H	0.149079	0.050292	0.556545
H163	H	-0.042983	-0.432464	1.082928
O164	O	0.165340	-0.703714	1.082900
C165	C	0.190737	-0.793644	1.082832
C166	C	0.145750	-0.737709	1.082832
H167	H	0.174920	-0.821140	1.082765
H168	H	0.202646	-0.813297	1.120844
H169	H	0.227969	-0.787887	1.044843
H170	H	0.108489	-0.743418	1.120795
H171	H	0.133888	-0.718075	1.044794
H172	H	0.158538	-0.532861	1.082933
O173	O	0.090331	-0.703789	0.613904
C174	C	0.114304	-0.800930	0.640074
C175	C	0.103206	-0.744948	0.595190
H176	H	0.124728	-0.834224	0.624956
H177	H	0.076417	-0.801154	0.678184
H178	H	0.150025	-0.808859	0.650299
H179	H	0.067504	-0.736984	0.584918
H180	H	0.141121	-0.744752	0.557109
H181	H	0.229358	-0.519614	0.822579
O182	O	0.051131	-0.432720	0.827082
C183	C	-0.039458	-0.384441	0.821093
C184	C	0.022356	-0.399658	0.789659
H185	H	-0.062740	-0.357718	0.790850
H186	H	-0.050722	-0.361142	0.847838
H187	H	-0.050674	-0.423236	0.847867
H188	H	0.033616	-0.360891	0.762854
H189	H	0.033587	-0.422978	0.762947
H190	H	0.094434	-0.400372	0.670409
O191	O	0.272693	-0.487235	0.714479
C192	C	0.363283	-0.535557	0.720466
C193	C	0.301469	-0.520370	0.751901
H194	H	0.386567	-0.562358	0.750707
H195	H	0.374548	-0.496786	0.693722
H196	H	0.374497	-0.558800	0.693689
H197	H	0.290211	-0.497140	0.778707
H198	H	0.290238	-0.559161	0.778610
H199	H	0.229173	-0.519573	0.551126
O200	O	0.051019	-0.432836	0.638122
C201	C	-0.034551	-0.437199	0.710619
C202	C	0.027267	-0.452342	0.695372
H203	H	-0.053774	-0.452953	0.756906
H204	H	-0.041824	-0.456476	0.691399
H205	H	-0.053825	-0.390916	0.694836
H206	H	0.046583	-0.498617	0.711152
H207	H	0.034502	-0.433027	0.714584
O208	O	0.272603	-0.487229	0.583450
C209	C	0.363160	-0.535445	0.535052
C210	C	0.301336	-0.520264	0.550297
H211	H	0.386408	-0.562147	0.508236
H212	H	0.374491	-0.558754	0.573795
H213	H	0.374349	-0.496634	0.511806
H214	H	0.290102	-0.559047	0.573529
H215	H	0.290038	-0.496934	0.511534
H216	H	0.373728	-0.561133	0.625383
O217	O	0.265575	-0.532353	0.664173
C218	C	0.248109	-0.599566	0.659098
C219	C	0.279527	-0.559176	0.629244
H220	H	0.259386	-0.621272	0.630875
H221	H	0.202342	-0.576398	0.671325
H222	H	0.259369	-0.630958	0.697218
H223	H	0.268312	-0.527775	0.591105
H224	H	0.325286	-0.582381	0.617058
O225	O	0.378147	-0.387550	0.557060
C226	C	0.395560	-0.308297	0.480041
C227	C	0.364142	-0.348696	0.509961
H228	H	0.384240	-0.276867	0.441962
H229	H	0.441327	-0.331456	0.467756
H230	H	0.384343	-0.286637	0.508281
H231	H	0.375313	-0.370367	0.481751
H232	H	0.318382	-0.325507	0.522255
O233	O	0.265444	-0.350054	0.594836
C234	C	0.200956	-0.280893	0.636959
C235	C	0.232428	-0.342231	0.645837
H236	H	0.174264	-0.274546	0.678186
H237	H	0.174139	-0.264781	0.611872
H238	H	0.231202	-0.257935	0.614241
H239	H	0.202221	-0.365233	0.668569
H240	H	0.259253	-0.358300	0.670901
H241	H	0.186762	-0.248063	0.508836
O242	O	0.226503	-0.356166	0.537461
C243	C	0.270739	-0.350111	0.442865
C244	C	0.234628	-0.318712	0.483764
H245	H	0.277329	-0.319844	0.399442
H246	H	0.249806	-0.376860	0.449421
H247	H	0.311853	-0.376882	0.449458
H248	H	0.193508	-0.291911	0.477195
H249	H	0.255604	-0.291998	0.477197
H250	H	0.102202	-0.248101	0.678192
H251	H	0.136793	-0.351798	0.712725
H252	H	0.051655	-0.697459	0.228927
O253	O	-0.072798	-0.556647	0.336904
C254	C	-0.117034	-0.462036	0.330810
C255	C	-0.080887	-0.502956	0.299435
H256	H	-0.123595	-0.418618	0.300530
H257	H	-0.096146	-0.468608	0.357617
H258	H	-0.158158	-0.468593	0.357519
H259	H	-0.039757	-0.496423	0.272697
H260	H	-0.101818	-0.496374	0.272663
H261	H	-0.067739	-0.562558	0.381123
O262	O	0.019122	-0.740800	0.337027
C263	C	0.067412	-0.831397	0.331052
C264	C	0.052292	-0.769577	0.299610
H265	H	0.094241	-0.854681	0.300815
H266	H	0.028619	-0.842623	0.357725
H267	H	0.090600	-0.842651	0.357900
H268	H	0.029118	-0.758278	0.272733
H269	H	0.091105	-0.758384	0.272972
H270	H	-0.033252	-0.528055	0.415829
H271	H	0.051198	-0.697438	0.500669
H272	H	0.016700	-0.731943	0.465981
H273	H	0.026581	-0.432337	0.406123
H274	H	0.058362	-0.738230	0.391661
H275	H	-0.074948	-0.841721	0.489940
O276	O	0.101617	-0.846342	0.424951
C277	C	0.191338	-0.840424	0.388153
C278	C	0.130008	-0.808949	0.396993
H279	H	0.214308	-0.810205	0.365559
H280	H	0.207488	-0.867178	0.362991
H281	H	0.197613	-0.867196	0.429407
H282	H	0.123686	-0.782147	0.355765
H283	H	0.113888	-0.782230	0.422181
H284	H	-0.109425	-0.738032	0.455342
H285	H	-0.220220	-0.654760	0.542443
O286	O	-0.112138	-0.694592	0.513988
C287	C	-0.118338	-0.738862	0.608628
C288	C	-0.149653	-0.702703	0.567651
H289	H	-0.148655	-0.745441	0.652024
H290	H	-0.091591	-0.717970	0.602148
H291	H	-0.091577	-0.779981	0.602044
H292	H	-0.176444	-0.661578	0.574210
H293	H	-0.176366	-0.723639	0.574142
H294	H	-0.219915	-0.570138	0.372989
H295	H	-0.116227	-0.604815	0.338615
