data_functionalizedCrystal
_audit_creation_method	'MofGen! by Chris Wilmer'
_symmetry_space_group_name_H-M	'P1'
_symmetry_Int_Tables_number	1
_symmetry_cell_setting	triclinic
loop_
_symmetry_equiv_pos_as_xyz
  x,y,z
_cell_length_a	15.944551
_cell_length_b	19.188930
_cell_length_c	14.421503
_cell_angle_alpha	89.999163
_cell_angle_beta	89.996859
_cell_angle_gamma	83.321760
loop_
_atom_site_label
_atom_site_type_symbol
_atom_site_fract_x
_atom_site_fract_y
_atom_site_fract_z
O1	O	1.114192	0.090038	-0.077026
O2	O	1.614192	0.590038	0.422974
O3	O	0.869601	0.101140	-0.077050
O4	O	1.369601	0.601140	0.422950
O5	O	0.998955	-0.006048	-0.077019
O6	O	1.498955	0.493952	0.422981
O7	O	0.984838	0.197227	-0.077057
O8	O	1.484838	0.697227	0.422943
O9	O	0.998934	-0.006032	0.077204
O10	O	1.498934	0.493968	0.577204
O11	O	0.869580	0.101156	0.077173
O12	O	1.369580	0.601156	0.577173
O13	O	1.114171	0.090054	0.077198
O14	O	1.614171	0.590054	0.577198
Cu15	Cu	0.991873	0.095607	0.091267
Cu16	Cu	1.491873	0.595607	0.591267
Cu17	Cu	0.991899	0.095588	-0.091120
Cu18	Cu	1.491899	0.595588	0.408880
O19	O	0.984817	0.197243	0.077167
O20	O	1.484817	0.697243	0.577167
C21	C	0.838298	0.100687	0.000059
C22	C	1.338298	0.600687	0.500059
C23	C	0.745057	0.099306	0.000050
C24	C	1.245057	0.599306	0.500050
C25	C	0.530462	0.029563	0.000081
C26	C	1.030462	0.529563	0.500081
C27	C	0.469331	0.061941	-0.075965
C28	C	0.969331	0.561941	0.424035
C29	C	0.574341	0.096806	0.000062
C30	C	1.074341	0.596806	0.500062
C31	C	0.469332	0.061973	0.076087
C32	C	0.969332	0.561973	0.576087
C33	C	0.409437	0.094386	0.000077
C34	C	0.909437	0.594386	0.500077
C35	C	0.514438	0.129203	-0.076047
C36	C	1.014438	0.629203	0.423953
C37	C	0.514446	0.129225	0.076073
C38	C	1.014446	0.629225	0.576073
C39	C	0.453332	0.161652	0.000008
C40	C	0.953332	0.661652	0.500008
C41	C	0.669338	0.098198	0.000052
C42	C	1.169338	0.598198	0.500052
C43	C	0.314441	0.093000	0.000080
C44	C	0.814441	0.593000	0.500080
C45	C	0.998487	-0.032052	0.000095
C46	C	1.498487	0.467948	0.500095
C47	C	0.997115	-0.109560	0.000103
C48	C	1.497115	0.390440	0.500103
C49	C	1.073016	-0.154288	0.000115
C50	C	1.573016	0.345712	0.500115
C51	C	1.071726	-0.227115	0.000100
C52	C	1.571726	0.272885	0.500100
C53	C	0.994532	-0.255211	0.000092
C54	C	1.494532	0.244789	0.500092
C55	C	0.918622	-0.210474	0.000075
C56	C	1.418622	0.289526	0.500075
C57	C	0.919913	-0.137648	0.000080
C58	C	1.419913	0.362352	0.500080
N59	N	0.935519	-0.363364	0.052571
N60	N	1.435519	0.136636	0.552571
N61	N	0.934298	-0.432545	0.052568
N62	N	1.434298	0.067455	0.552568
C63	C	0.990637	-0.474630	0.000073
C64	C	1.490637	0.025370	0.500073
N65	N	1.048256	-0.444921	-0.052407
N66	N	1.548256	0.055079	0.447593
N67	N	1.049480	-0.375733	-0.052400
N68	N	1.549480	0.124267	0.447600
C69	C	0.993123	-0.334178	0.000085
C70	C	1.493123	0.165822	0.500085
C71	C	1.065145	-0.598326	0.000067
C72	C	1.565145	-0.098326	0.500067
C73	C	1.063852	-0.671154	0.000046
C74	C	1.563852	-0.171154	0.500046
C75	C	0.910745	-0.654511	0.000030
C76	C	1.410745	-0.154511	0.500030
C77	C	0.912040	-0.581685	0.000041
C78	C	1.412040	-0.081685	0.500041
C79	C	0.989242	-0.553597	0.000064
C80	C	1.489242	-0.053597	0.500064
C81	C	1.145474	0.090507	0.000087
C82	C	1.645474	0.590507	0.500087
C83	C	1.238715	0.091889	0.000089
C84	C	1.738715	0.591889	0.500089
C85	C	0.985285	0.223247	0.000050
C86	C	1.485285	0.723247	0.500050
C87	C	0.986657	0.300755	0.000036
C88	C	1.486657	0.800755	0.500036
N89	N	0.991862	0.095619	0.219549
N90	N	1.491862	0.595619	0.719549
N91	N	0.991917	0.095569	-0.219401
N92	N	1.491917	0.595569	0.280599
C93	C	0.932038	0.145161	0.469188
C94	C	1.432038	0.645161	0.969188
C95	C	1.007887	0.158716	0.530995
C96	C	1.507887	0.658716	1.030995
C97	C	0.991882	0.095603	0.408710
C98	C	1.491882	0.595603	0.908710
C99	C	0.916052	0.082064	0.530997
C100	C	1.416052	0.582064	1.030997
C101	C	0.991895	0.095588	0.591431
C102	C	1.491895	0.595588	1.091431
C103	C	1.067770	0.109189	0.469157
C104	C	1.567770	0.609189	0.969157
C105	C	0.975885	0.032510	0.469153
C106	C	1.475885	0.532510	0.969153
C107	C	1.051789	0.046038	0.530932
C108	C	1.551789	0.546038	1.030932
C109	C	0.991874	0.095613	0.303449
C110	C	1.491874	0.595613	0.803449
C111	C	0.991913	0.095578	0.696690
C112	C	1.491913	0.595578	1.196690
H113	H	0.449336	0.033493	-0.140247
H114	H	0.949336	0.533493	0.359753
H115	H	0.850233	-0.545266	0.000037
H116	H	1.350233	-0.045266	0.500037
H117	H	0.851919	0.070620	0.558163
H118	H	1.351919	0.570620	1.058163
O119	O	0.827481	-0.684802	0.000025
O120	O	1.327481	-0.184802	0.500025
H121	H	0.839333	-0.742957	0.000029
H122	H	1.339333	-0.242957	0.500029
H123	H	0.534329	0.157616	-0.140409
H124	H	1.034329	0.657616	0.359591
H125	H	0.419965	0.217516	-0.000045
H126	H	0.919965	0.717516	0.499955
H127	H	1.128007	-0.575456	0.000081
H128	H	1.628007	-0.075456	0.500081
H129	H	1.131917	0.120698	0.442107
H130	H	1.631917	0.620698	0.942107
H131	H	0.564003	-0.026244	-0.000003
H132	H	1.064003	0.473756	0.499997
O133	O	1.025843	0.229372	0.567004
O134	O	1.525843	0.729372	1.067004
H135	H	1.026290	0.228535	0.643960
H136	H	1.526290	0.728535	1.143960
O137	O	1.118898	-0.009486	0.566637
O138	O	1.618898	0.490514	1.066637
H139	H	1.181747	0.001918	0.541738
H140	H	1.681747	0.501918	1.041738
O141	O	0.957923	-0.038138	0.433140
O142	O	1.457923	0.461862	0.933140
H143	H	0.958699	-0.037628	0.356184
H144	H	1.458699	0.462372	0.856184
O145	O	0.540972	0.166869	0.161227
O146	O	1.040972	0.666869	0.661227
H147	H	0.508841	0.221379	0.161805
H148	H	1.008841	0.721379	0.661805
O149	O	1.145725	-0.719396	0.000063
O150	O	1.645725	-0.219396	0.500063
H151	H	1.148821	-0.752965	-0.062804
H152	H	1.648821	-0.252965	0.437196
O153	O	0.865066	0.200711	0.433267
O154	O	1.365066	0.700711	0.933267
H155	H	0.895117	0.238632	0.389860
H156	H	1.395117	0.738632	0.889860
O157	O	0.442858	0.024302	0.161255
O158	O	0.942858	0.524302	0.661255
H159	H	0.474067	-0.030506	0.161099
H160	H	0.974067	0.469494	0.661099
H161	H	1.135880	-0.131424	0.000131
H162	H	1.635880	0.368576	0.500131
H163	H	1.133536	-0.263540	0.000106
H164	H	1.633536	0.236460	0.500106
O165	O	0.835362	-0.240775	0.000078
O166	O	1.335362	0.259225	0.500078
H167	H	0.831121	-0.273562	-0.062776
H168	H	1.331121	0.226438	0.437224
O169	O	0.838046	-0.089399	0.000083
O170	O	1.338046	0.410601	0.500083
H171	H	0.784149	-0.121167	0.000082
H172	H	1.284149	0.378833	0.500082
