data_functionalizedCrystal
_audit_creation_method	'MofGen! by Chris Wilmer'
_symmetry_space_group_name_H-M	'P1'
_symmetry_Int_Tables_number	1
_symmetry_cell_setting	triclinic
loop_
_symmetry_equiv_pos_as_xyz
  x,y,z
_cell_length_a	15.455322
_cell_length_b	16.992694
_cell_length_c	16.992698
_cell_angle_alpha	89.332416
_cell_angle_beta	87.161534
_cell_angle_gamma	87.141817
loop_
_atom_site_label
_atom_site_type_symbol
_atom_site_fract_x
_atom_site_fract_y
_atom_site_fract_z
O1	O	-0.072052	1.054080	-0.163693
O2	O	-0.072077	0.825681	-0.161860
O3	O	-0.072037	0.938965	-0.048578
O4	O	-0.072091	0.940796	-0.276975
O5	O	0.072223	0.932484	-0.055028
O6	O	0.072183	0.819201	-0.168311
O7	O	0.072208	1.047600	-0.170143
Cu8	Cu	0.085368	0.932808	-0.169816
Cu9	Cu	-0.085236	0.940473	-0.162188
O10	O	0.072169	0.934316	-0.283426
C11	C	0.000050	0.793081	-0.162730
C12	C	0.000042	0.705597	-0.155701
N13	N	0.205361	0.927423	-0.175181
C14	C	0.000027	0.659606	-0.223518
C15	C	0.000040	0.577405	-0.216909
C16	C	0.000063	0.541196	-0.142483
C17	C	0.000081	0.587193	-0.074661
C18	C	0.000074	0.669393	-0.081270
C19	C	0.000093	0.295881	-0.115090
C20	C	0.000097	0.213675	-0.108485
C21	C	0.000058	0.203892	-0.250735
C22	C	0.000046	0.286094	-0.257337
C23	C	0.000068	0.332084	-0.189515
N24	N	0.000074	0.457173	-0.135726
N25	N	0.000063	0.416105	-0.196273
C26	C	0.250772	0.975569	-0.127074
C27	C	0.341579	0.971504	-0.131140
C28	C	0.386973	0.919298	-0.183315
C29	C	0.341555	0.871147	-0.231424
C30	C	0.250751	0.875208	-0.227354
C31	C	0.658548	0.901767	-0.200859
C32	C	0.749359	0.897711	-0.204927
C33	C	0.749376	0.998069	-0.104642
C34	C	0.658570	1.002129	-0.100580
C35	C	0.613160	0.953975	-0.148685
N36	N	0.479792	0.915143	-0.187473
N37	N	0.520343	0.958126	-0.144523
N38	N	0.794770	0.945857	-0.156821
C39	C	0.000098	0.933369	-0.022443
C40	C	0.000112	0.926341	0.065041
C41	C	0.000079	1.080200	-0.169274
C42	C	0.000082	1.167684	-0.176303
C43	C	0.000050	0.879123	0.556962
C44	C	0.000055	0.885732	0.474762
C45	C	0.000074	0.960159	0.438554
C46	C	0.000078	1.027982	0.484552
C47	C	0.000066	1.021372	0.566751
C48	C	0.000104	0.987554	0.193239
C49	C	0.000119	0.994158	0.111033
C50	C	0.000095	0.851908	0.101248
C51	C	0.000088	0.845305	0.183450
C52	C	0.000088	0.913127	0.229441
N53	N	0.000082	0.966916	0.354531
N54	N	0.000073	0.906370	0.313462
C55	C	0.000043	0.939912	0.690439
C56	C	0.000056	0.946940	0.602954
H57	H	0.000008	0.689080	-0.284124
H58	H	0.000115	0.184197	-0.047875
H59	H	0.000086	0.706838	-0.026046
N60	N	0.798332	0.841406	-0.261205
H61	H	0.782507	0.854674	-0.316940
H62	H	0.782536	0.785694	-0.247832
N63	N	0.000031	0.325155	-0.337608
H64	H	-0.053451	0.361436	-0.341124
H65	H	0.000057	0.283505	-0.379528
H66	H	0.000112	0.333316	-0.059864
H67	H	0.000045	0.818516	0.586436
N68	N	0.000151	1.074435	0.071975
H69	H	-0.053311	1.082755	0.040452
H70	H	0.053678	1.077874	0.035762
N71	N	0.201767	0.823275	-0.279235
H72	H	0.244301	0.789586	-0.312906
H73	H	0.164071	0.857272	-0.314254
H74	H	0.000042	0.166439	-0.305952
N75	N	0.201815	1.031883	-0.070804
H76	H	0.244365	1.061765	-0.040945
H77	H	0.164156	1.001254	-0.032408
N78	N	0.000101	0.548150	0.005618
H79	H	0.053586	0.562200	0.033169
H80	H	0.000067	0.489109	-0.000543
N81	N	0.000119	1.060702	0.242836
H82	H	-0.053363	1.063545	0.279532
H83	H	0.000171	1.108808	0.207367
H84	H	0.621583	0.862560	-0.240030
H85	H	0.000094	1.088582	0.455065
H86	H	0.621612	1.044640	-0.058094
H87	H	0.378552	1.010708	-0.091967
H88	H	0.000047	0.830508	0.437318
H89	H	0.000063	0.784699	0.212924
N90	N	0.798357	1.050001	-0.052760
H91	H	0.836049	1.016054	-0.017690
H92	H	0.755767	1.083681	-0.019140
N93	N	0.000122	0.527795	-0.290059
H94	H	0.000133	0.563205	-0.338212
H95	H	-0.053322	0.495828	-0.288081
N96	N	0.390511	0.814831	-0.287694
H97	H	0.454927	0.819564	-0.282975
H98	H	0.374616	0.828128	-0.343402
H99	H	0.000094	0.796691	0.063794
H100	H	0.000068	1.076597	0.604197
