data_functionalizedCrystal
_audit_creation_method	'MofGen! by Chris Wilmer'
_symmetry_space_group_name_H-M	'P1'
_symmetry_Int_Tables_number	1
_symmetry_cell_setting	triclinic
loop_
_symmetry_equiv_pos_as_xyz
  x,y,z
_cell_length_a	7.681452
_cell_length_b	10.654550
_cell_length_c	10.654550
_cell_angle_alpha	84.484931
_cell_angle_beta	96.370705
_cell_angle_gamma	96.379076
loop_
_atom_site_label
_atom_site_type_symbol
_atom_site_fract_x
_atom_site_fract_y
_atom_site_fract_z
O1	O	0.146297	-1.657147	-0.165715
O2	O	0.146330	-1.291666	-0.182519
O3	O	0.146302	-1.482810	0.008622
O4	O	0.146325	-1.466003	-0.356855
O5	O	-0.146557	-1.504202	-0.012760
O6	O	-0.146529	-1.313057	-0.203900
O7	O	-0.146561	-1.678538	-0.187096
Zn8	Zn	-0.193043	-1.499194	-0.198893
Zn9	Zn	0.192811	-1.471010	-0.170722
O10	O	-0.146533	-1.487394	-0.378236
C11	C	-0.000096	-1.255563	-0.191975
C12	C	-0.000084	-1.116119	-0.188282
C13	C	-0.000127	-1.492272	0.044729
C14	C	-0.000124	-1.488580	0.184172
N15	N	-0.456378	-1.518438	-0.218118
N16	N	0.456146	-1.451776	-0.151487
C17	C	-0.000132	-1.714640	-0.177640
C18	C	-0.000133	-1.854084	-0.181332
C19	C	-0.000081	-1.036634	-0.300824
C20	C	-0.000112	-0.905615	-0.297349
C21	C	-0.000140	-0.933580	-0.068782
C22	C	-0.000122	-1.064597	-0.072258
C23	C	-0.000101	-1.477932	-0.414344
C24	C	-0.000093	-1.481623	-0.553786
C25	C	-0.000133	-1.601122	0.263657
C26	C	-0.000111	-1.597644	0.394680
C27	C	-0.000078	-1.369072	0.366719
C28	C	-0.000087	-1.372551	0.235700
H29	H	-0.531579	-1.586484	-0.286124
H30	H	-0.468644	-1.383713	-0.083489
H31	H	-0.000159	-1.695600	0.221709
H32	H	-0.000063	-1.078579	-0.395298
H33	H	-0.000114	-0.840902	-0.388992
O34	O	-0.000085	-0.883314	0.043817
C35	C	-0.000140	-0.750633	0.022753
H36	H	0.055312	-0.716666	-0.070939
H37	H	0.084872	-0.703551	0.103270
H38	H	-0.140644	-0.724391	0.018897
O39	O	-0.000044	-1.141633	0.037195
C40	C	-0.000110	-1.068069	0.140344
H41	H	0.055328	-0.966520	0.113375
H42	H	0.084908	-1.109490	0.225475
H43	H	-0.140616	-1.068712	0.165591
O44	O	-0.000204	-1.707092	0.471705
C45	C	-0.000190	-1.810237	0.398127
H46	H	-0.055641	-1.783258	0.296591
H47	H	-0.085224	-1.895369	0.439558
H48	H	0.140301	-1.835490	0.398735
O49	O	-0.000138	-1.256482	0.416977
C50	C	-0.000094	-1.277538	0.549665
H51	H	-0.055547	-1.379330	0.575530
H52	H	-0.085110	-1.209439	0.584326
H53	H	0.140407	-1.260872	0.596435
H54	H	-0.000075	-1.280899	0.170980
