data_functionalizedCrystal
_audit_creation_method	'MofGen! by Chris Wilmer'
_symmetry_space_group_name_H-M	'P1'
_symmetry_Int_Tables_number	1
_symmetry_cell_setting	triclinic
loop_
_symmetry_equiv_pos_as_xyz
  x,y,z
_cell_length_a	19.188905
_cell_length_b	19.188930
_cell_length_c	15.072220
_cell_angle_alpha	89.993728
_cell_angle_beta	89.980393
_cell_angle_gamma	83.139668
loop_
_atom_site_label
_atom_site_type_symbol
_atom_site_fract_x
_atom_site_fract_y
_atom_site_fract_z
O1	O	0.926165	0.087080	-0.073939
O2	O	1.426165	0.587080	0.426061
O3	O	0.722851	0.098832	-0.073910
O4	O	1.222851	0.598832	0.426090
O5	O	0.830375	-0.008700	-0.073908
O6	O	1.330375	0.491300	0.426092
O7	O	0.818641	0.194612	-0.073941
O8	O	1.318641	0.694612	0.426059
O9	O	0.830348	-0.008694	0.073658
O10	O	1.330348	0.491306	0.573658
O11	O	0.722824	0.098838	0.073656
O12	O	1.222824	0.598838	0.573656
O13	O	0.926138	0.087086	0.073627
O14	O	1.426138	0.587086	0.573627
Zn15	Zn	0.824477	0.092963	0.097070
Zn16	Zn	1.324477	0.592963	0.597070
Zn17	Zn	0.824512	0.092955	-0.097353
Zn18	Zn	1.324512	0.592955	0.402647
O19	O	0.818614	0.194618	0.073625
O20	O	1.318614	0.694618	0.573625
C21	C	0.696826	0.098458	-0.000123
C22	C	1.196826	0.598458	0.499877
C23	C	0.619321	0.097324	-0.000111
C24	C	1.119321	0.597324	0.499889
C25	C	0.582943	0.096776	-0.080551
C26	C	1.082943	0.596776	0.419449
C27	C	0.510120	0.095703	-0.080562
C28	C	1.010120	0.595703	0.419438
C29	C	0.473678	0.095164	-0.000128
C30	C	0.973678	0.595164	0.499872
C31	C	0.510064	0.095716	0.080322
C32	C	1.010064	0.595716	0.580322
C33	C	0.582885	0.096796	0.080331
C34	C	1.082885	0.596796	0.580331
N35	N	0.364647	0.053738	0.059737
N36	N	0.864647	0.553738	0.559737
N37	N	0.295470	0.052710	0.059724
N38	N	0.795470	0.552710	0.559724
C39	C	0.254272	0.091911	-0.000149
C40	C	0.754272	0.591911	0.499851
N41	N	0.284864	0.132170	-0.060022
N42	N	0.784864	0.632170	0.439978
N43	N	0.354048	0.133194	-0.060011
N44	N	0.854048	0.633194	0.439989
C45	C	0.394716	0.093993	-0.000129
C46	C	0.894716	0.593993	0.499871
C47	C	0.138930	0.090201	-0.080607
C48	C	0.638930	0.590201	0.419393
C49	C	0.066105	0.089132	-0.080614
C50	C	0.566105	0.589132	0.419386
C51	C	0.066051	0.089138	0.080273
C52	C	0.566051	0.589138	0.580273
C53	C	0.138874	0.090214	0.080278
C54	C	0.638874	0.590214	0.580278
C55	C	0.175310	0.090742	-0.000164
C56	C	0.675310	0.590742	0.499836
C57	C	0.829982	-0.034708	-0.000122
C58	C	1.329982	0.465292	0.499878
C59	C	0.828841	-0.112213	-0.000115
C60	C	1.328841	0.387787	0.499885
C61	C	0.891933	-0.157142	-0.000119
C62	C	1.391933	0.342858	0.499881
C63	C	0.890861	-0.229966	-0.000133
C64	C	1.390861	0.270034	0.499867
C65	C	0.826694	-0.257857	-0.000125
C66	C	1.326694	0.242143	0.499875
C67	C	0.763594	-0.212917	-0.000125
C68	C	1.263594	0.287083	0.499875
C69	C	0.764668	-0.140095	-0.000120
C70	C	1.264668	0.359905	0.499880
N71	N	0.777637	-0.365855	0.050101
N72	N	1.277637	0.134145	0.550101
N73	N	0.776622	-0.435034	0.050098
N74	N	1.276622	0.064966	0.550098
C75	C	0.823456	-0.477265	-0.000142
C76	C	1.323456	0.022735	0.499858
N77	N	0.871355	-0.447706	-0.050369
N78	N	1.371355	0.052294	0.449631
N79	N	0.872372	-0.378521	-0.050362
N80	N	1.372372	0.121479	0.449638
C81	C	0.825523	-0.336819	-0.000131
C82	C	1.325523	0.163181	0.499869
C83	C	0.885390	-0.601159	-0.000164
C84	C	1.385390	-0.101159	0.499836
C85	C	0.884315	-0.673984	-0.000183
C86	C	1.384315	-0.173984	0.499817
C87	C	0.757047	-0.656933	-0.000166
C88	C	1.257047	-0.156933	0.499834
C89	C	0.758123	-0.584110	-0.000155
C90	C	1.258123	-0.084110	0.499845
C91	C	0.822296	-0.556228	-0.000150
C92	C	1.322296	-0.056228	0.499850
C93	C	0.952163	0.087460	-0.000162
C94	C	1.452163	0.587460	0.499838
C95	C	1.029668	0.088594	-0.000180
C96	C	1.529668	0.588594	0.499820
C97	C	0.819007	0.220626	-0.000163
C98	C	1.319007	0.720626	0.499837
C99	C	0.820148	0.298131	-0.000176
C100	C	1.320148	0.798131	0.499824
N101	N	0.824458	0.092968	0.229759
N102	N	1.324458	0.592968	0.729759
N103	N	0.824536	0.092944	-0.230042
N104	N	1.324536	0.592944	0.269958
C105	C	0.824511	0.092952	0.588961
C106	C	1.324511	0.592952	1.088961
C107	C	0.766784	0.150299	0.551353
C108	C	1.266784	0.650299	1.051353
C109	C	0.766916	0.150507	0.448527
C110	C	1.266916	0.650507	0.948527
C111	C	0.824484	0.092960	0.410756
C112	C	1.324484	0.592960	0.910756
C113	C	0.897287	0.108643	0.448034
C114	C	1.397287	0.608643	0.948034
C115	C	0.896964	0.109050	0.550892
C116	C	1.396964	0.609050	1.050892
C117	C	0.810083	0.019751	0.551076
C118	C	1.310083	0.519751	1.051076
C119	C	0.808410	0.020245	0.448212
C120	C	1.308410	0.520245	0.948212
C121	C	0.824474	0.092963	0.310043
C122	C	1.324474	0.592963	0.810043
C123	C	0.824526	0.092951	0.689674
C124	C	1.324526	0.592951	1.189674
H125	H	0.942239	-0.266555	-0.000141
H126	H	1.442239	0.233445	0.499859
C127	C	0.956980	0.054628	0.677382
C128	C	1.456980	0.554628	1.177382
C129	C	0.956679	0.054799	0.584481
C130	C	1.456679	0.554799	1.084481
H131	H	0.993845	0.021135	0.698113
H132	H	1.493845	0.521135	1.198113
H133	H	0.963993	0.099917	0.698445
H134	H	1.463993	0.599917	1.198445
H135	H	0.913309	0.042704	0.698590
H136	H	1.413309	0.542704	1.198590
H137	H	1.000349	0.066728	0.563273
H138	H	1.500349	0.566728	1.063273
H139	H	0.949672	0.009500	0.563409
H140	H	1.449672	0.509500	1.063409
C141	C	0.495645	0.035380	0.217459
C142	C	0.995645	0.535380	0.717459
C143	C	0.470013	0.095121	0.168739
C144	C	0.970013	0.595121	0.668739
H145	H	0.470922	0.035019	0.272048
H146	H	0.970922	0.535019	0.772048
H147	H	0.489176	-0.005498	0.184414
H148	H	0.989176	0.494502	0.684414
H149	H	0.544222	0.036111	0.228969
H150	H	1.044222	0.536111	0.728969
H151	H	0.421437	0.094387	0.157223
H152	H	0.921437	0.594387	0.657223
H153	H	0.476476	0.136010	0.201791
H154	H	0.976476	0.636010	0.701791
H155	H	0.910345	0.161411	0.422254
H156	H	1.410345	0.661411	0.922254
C157	C	0.672788	0.038004	0.173678
C158	C	1.172788	0.538004	0.673678
C159	C	0.622878	0.097391	0.168756
C160	C	1.122878	0.597391	0.668756
H161	H	0.697481	0.038374	0.228267
H162	H	1.197481	0.538374	0.728267
H163	H	0.649832	-0.003114	0.170342
H164	H	1.149832	0.496886	0.670342
H165	H	0.704907	0.038484	0.125770
H166	H	1.204907	0.538484	0.625770
H167	H	0.590756	0.096909	0.216661
H168	H	1.090756	0.596909	0.716661
H169	H	0.645835	0.138520	0.172101
H170	H	1.145835	0.638520	0.672101
H171	H	0.706747	-0.547527	-0.000147
H172	H	1.206747	-0.047527	0.499853
H173	H	0.775846	0.204319	0.577180
H174	H	1.275846	0.704319	1.077180
H175	H	0.713289	-0.103513	-0.000116
H176	H	1.213289	0.396487	0.499884
H177	H	0.711349	-0.235631	-0.000120
H178	H	1.211349	0.264369	0.499880
C179	C	0.436298	0.034469	-0.173884
C180	C	0.936298	0.534469	0.326116
C181	C	0.470123	0.095097	-0.168988
C182	C	0.970123	0.595097	0.331012
H183	H	0.411605	0.034097	-0.228472
H184	H	0.911605	0.534097	0.271528
H185	H	0.470163	-0.005807	-0.170530
H186	H	0.970163	0.494193	0.329470
H187	H	0.404177	0.034005	-0.125975
H188	H	0.904177	0.534005	0.374025
H189	H	0.502248	0.095557	-0.216893
H190	H	1.002248	0.595557	0.283107
H191	H	0.436255	0.135383	-0.172350
H192	H	0.936255	0.635383	0.327650
C193	C	0.959098	0.055211	0.322175
C194	C	1.459098	0.555211	0.822175
C195	C	0.956655	0.053752	0.415001
C196	C	1.456655	0.553752	0.915001
H197	H	0.995752	0.021326	0.301783
H198	H	1.495752	0.521326	0.801783
H199	H	0.915559	0.044737	0.298868
H200	H	1.415559	0.544737	0.798868
H201	H	0.967653	0.100560	0.302925
H202	H	1.467653	0.600560	0.802925
H203	H	0.948095	0.008405	0.434251
H204	H	1.448095	0.508405	0.934251
H205	H	1.000205	0.064221	0.438317
H206	H	1.500205	0.564221	0.938317
C207	C	0.035537	0.148816	0.217387
C208	C	0.535537	0.648816	0.717387
C209	C	0.025999	0.088546	0.168686
C210	C	0.525999	0.588546	0.668686
H211	H	0.010803	0.148453	0.271967
H212	H	0.510803	0.648453	0.771967
H213	H	0.084108	0.149530	0.228907
H214	H	0.584108	0.649530	0.728907
H215	H	0.018157	0.189340	0.184317
H216	H	0.518157	0.689340	0.684317
H217	H	0.043384	0.048023	0.201753
H218	H	0.543384	0.548023	0.701753
H219	H	-0.022582	0.087826	0.157168
H220	H	0.477418	0.587826	0.657168
H221	H	0.712793	0.141197	0.423326
H222	H	1.212793	0.641197	0.923326
C223	C	0.779495	0.224398	0.322375
C224	C	1.279495	0.724398	0.822375
C225	C	0.779320	0.223844	0.415274
C226	C	1.279320	0.723844	0.915274
H227	H	0.787150	0.269677	0.301849
H228	H	1.287150	0.769677	0.801849
H229	H	0.815898	0.190606	0.301178
H230	H	1.315898	0.690606	0.801178
H231	H	0.735551	0.213298	0.301097
H232	H	1.235551	0.713298	0.801097
H233	H	0.823266	0.234940	0.436552
H234	H	1.323266	0.734940	0.936552
H235	H	0.742915	0.257647	0.436480
H236	H	1.242915	0.757647	0.936480
H237	H	0.168597	0.090638	-0.146107
H238	H	0.668597	0.590638	0.353893
C239	C	0.169293	0.030536	0.217411
C240	C	0.669293	0.530536	0.717411
C241	C	0.178867	0.090804	0.168701
C242	C	0.678867	0.590804	0.668701
H243	H	0.193986	0.030902	0.272000
H244	H	0.693986	0.530902	0.772000
H245	H	0.120713	0.029823	0.228915
H246	H	0.620713	0.529823	0.728915
H247	H	0.186697	-0.009989	0.184356
H248	H	0.686697	0.490011	0.684356
H249	H	0.161458	0.131329	0.201754
H250	H	0.661458	0.631329	0.701754
H251	H	0.227456	0.091524	0.157199
H252	H	0.727456	0.591524	0.657199
C253	C	0.708805	0.052279	0.642276
C254	C	1.208805	0.552279	1.142276
C255	C	0.739973	-0.000670	0.586137
C256	C	1.239973	0.499330	1.086137
H257	H	0.665518	0.039678	0.663915
H258	H	1.165518	0.539678	1.163915
H259	H	0.739230	0.057973	0.690751
H260	H	1.239230	0.557973	1.190751
H261	H	0.700519	0.095095	0.610226
H262	H	1.200519	0.595095	1.110226
H263	H	0.748263	-0.043486	0.618188
H264	H	1.248263	0.456514	1.118188
H265	H	0.709540	-0.006372	0.537654
H266	H	1.209540	0.493628	1.037654
H267	H	0.937644	-0.578456	-0.000163
H268	H	1.437644	-0.078456	0.499837
C269	C	0.597361	0.157108	-0.217690
C270	C	1.097361	0.657108	0.282310
C271	C	0.622991	0.097365	-0.168973
C272	C	1.122991	0.597365	0.331027
H273	H	0.622089	0.157473	-0.272275
H274	H	1.122089	0.657473	0.227725
H275	H	0.548790	0.156380	-0.229202
H276	H	1.048790	0.656380	0.270798
H277	H	0.603832	0.197989	-0.184636
H278	H	1.103832	0.697989	0.315364
H279	H	0.616514	0.056484	-0.202024
H280	H	1.116514	0.556484	0.297976
H281	H	0.671573	0.098086	-0.157464
H282	H	1.171573	0.598086	0.342536
C283	C	0.073480	0.089214	-0.239640
C284	C	0.573480	0.589214	0.260360
C285	C	0.026116	0.088527	-0.169041
C286	C	0.526116	0.588527	0.330959
H287	H	0.048791	0.088835	-0.294231
H288	H	0.548791	0.588835	0.205769
H289	H	0.096425	0.130339	-0.236305
H290	H	0.596425	0.630339	0.263695
H291	H	0.107339	0.048926	-0.236270
H292	H	0.607339	0.548926	0.263730
H293	H	-0.007740	0.128819	-0.172408
H294	H	0.492260	0.628819	0.327592
H295	H	0.003160	0.047398	-0.172378
H296	H	0.503160	0.547398	0.327622
H297	H	0.754856	0.008338	0.423850
H298	H	1.254856	0.508338	0.923850
C299	C	0.858208	-0.042212	0.320767
C300	C	1.358208	0.457788	0.820767
C301	C	0.861509	-0.040040	0.413516
C302	C	1.361509	0.459960	0.913516
H303	H	0.890998	-0.079425	0.299350
H304	H	1.390998	0.420575	0.799350
H305	H	0.812224	-0.049737	0.302952
H306	H	1.312224	0.450263	0.802952
H307	H	0.869176	0.001053	0.297098
H308	H	1.369176	0.501053	0.797098
H309	H	0.850537	-0.083303	0.437185
H310	H	1.350537	0.416697	0.937185
H311	H	0.907503	-0.032519	0.431339
H312	H	1.407503	0.467481	0.931339
H313	H	0.852183	-0.022921	0.575395
H314	H	1.352183	0.477079	1.075395
H315	H	0.712486	0.141146	0.576124
H316	H	1.212486	0.641146	1.076124
H317	H	0.944187	-0.134445	-0.000118
H318	H	1.444187	0.365555	0.499882
C319	C	1.010221	-0.683518	-0.000175
C320	C	1.510221	-0.183518	0.499825
C321	C	0.953672	-0.723374	-0.000186
C322	C	1.453672	-0.223374	0.499814
H323	H	1.053038	-0.714011	-0.000171
H324	H	1.553038	-0.214011	0.499829
H325	H	1.008008	-0.654755	-0.051628
H326	H	1.508008	-0.154755	0.448372
H327	H	1.007973	-0.654764	0.051291
H328	H	1.507973	-0.154764	0.551291
H329	H	0.955917	-0.752124	-0.051656
H330	H	1.455917	-0.252124	0.448344
H331	H	0.955886	-0.752149	0.051272
H332	H	1.455886	-0.252149	0.551272
H333	H	0.704801	-0.679641	-0.000164
H334	H	1.204801	-0.179641	0.499836
C335	C	0.924665	0.223507	0.509995
C336	C	1.424665	0.723507	1.009995
C337	C	0.914164	0.181109	0.583258
C338	C	1.414164	0.681109	1.083258
H339	H	0.935278	0.267996	0.529976
H340	H	1.435278	0.767996	1.029976
H341	H	0.962572	0.201770	0.475407
H342	H	1.462572	0.701770	0.975407
H343	H	0.883258	0.229519	0.474924
H344	H	1.383258	0.729519	0.974924
H345	H	0.955573	0.175093	0.618326
H346	H	1.455573	0.675093	1.118326
H347	H	0.876254	0.202851	0.617860
H348	H	1.376254	0.702851	1.117860
