data_functionalizedCrystal
_audit_creation_method	'MofGen! by Chris Wilmer'
_symmetry_space_group_name_H-M	'P1'
_symmetry_Int_Tables_number	1
_symmetry_cell_setting	triclinic
loop_
_symmetry_equiv_pos_as_xyz
  x,y,z
_cell_length_a	12.759401
_cell_length_b	12.759394
_cell_length_c	12.759393
_cell_angle_alpha	89.967706
_cell_angle_beta	89.981504
_cell_angle_gamma	90.014998
loop_
_atom_site_label
_atom_site_type_symbol
_atom_site_fract_x
_atom_site_fract_y
_atom_site_fract_z
Zn1	Zn	1.606254	-0.418200	-0.593976
Zn2	Zn	1.606148	-0.593919	-0.418294
Zn3	Zn	1.430556	-0.418255	-0.418315
Zn4	Zn	1.430545	-0.593838	-0.593935
O5	O	1.518376	-0.506053	-0.506130
O6	O	1.753261	-0.441520	-0.570679
O7	O	1.582816	-0.570674	-0.271276
O8	O	1.453912	-0.271227	-0.441643
O9	O	1.753183	-0.570620	-0.441607
O10	O	1.582997	-0.271186	-0.570700
O11	O	1.453810	-0.441614	-0.271291
O12	O	1.283534	-0.441536	-0.441604
O13	O	1.453892	-0.570482	-0.740962
O14	O	1.283525	-0.570536	-0.570631
O15	O	1.582986	-0.441442	-0.740992
O16	O	1.582805	-0.740929	-0.441567
O17	O	1.453789	-0.740870	-0.570610
C18	C	1.245409	-0.506034	-0.506116
C19	C	1.128632	-0.506051	-0.506135
C20	C	1.518313	-0.779021	-0.506105
C21	C	1.518382	-0.895797	-0.506129
C22	C	1.073793	-0.573329	-0.573208
C23	C	0.964069	-0.573342	-0.573219
C24	C	0.964032	-0.438796	-0.439075
C25	C	1.073755	-0.438779	-0.439070
C26	C	1.128670	-0.640601	-0.640273
C27	C	1.073831	-0.707885	-0.707351
C28	C	0.964107	-0.707898	-0.707362
C29	C	0.909222	-0.640627	-0.640296
C30	C	1.652826	-0.895806	-0.371857
C31	C	1.720076	-0.950671	-0.304734
C32	C	1.720138	-1.060392	-0.304762
C33	C	1.652945	-1.115251	-0.371924
C34	C	1.585695	-1.060386	-0.439047
C35	C	1.585638	-0.950662	-0.439009
C36	C	1.451257	-1.060378	-0.573323
C37	C	1.451189	-0.950656	-0.573291
C38	C	1.384064	-1.115237	-0.640484
C39	C	1.316808	-1.060372	-0.707604
C40	C	1.316748	-0.950644	-0.707572
C41	C	1.383939	-0.895791	-0.640414
C42	C	1.792409	-0.506073	-0.506145
C43	C	1.909186	-0.506082	-0.506151
C44	C	1.518449	-0.505947	-0.780164
C45	C	1.518481	-0.505902	-0.896940
C46	C	1.518468	-0.232020	-0.506179
C47	C	1.518507	-0.115243	-0.506199
C48	C	1.585709	-0.438704	-0.951820
C49	C	1.585734	-0.438666	-1.061544
C50	C	1.451300	-0.573033	-1.061500
C51	C	1.451270	-0.573065	-0.951778
C52	C	1.652919	-0.371541	-0.896982
C53	C	1.720154	-0.304339	-0.951862
C54	C	1.720179	-0.304301	-1.061586
C55	C	1.652969	-0.371465	-1.116431
C56	C	1.518363	-0.506083	-0.233163
C57	C	1.518535	-0.505832	-0.116387
H58	H	1.218013	-0.640599	-0.640269
H59	H	1.653010	-1.204592	-0.371950
F60	F	1.652987	-0.371408	-1.233210
F61	F	1.791665	-0.232848	-0.893491
H62	H	1.774786	-0.905995	-0.250053
F63	F	1.132245	-0.779469	-0.778729
F64	F	1.652902	-0.371579	-0.780205
F65	F	1.791716	-1.118785	-0.233327
F66	F	1.383784	-1.232012	-0.640165
F67	F	0.905617	-0.367209	-0.367702
F68	F	1.652997	-0.779030	-0.372052
H69	H	1.774917	-0.249574	-1.106266
F70	F	0.905746	-0.779498	-0.778759
F71	F	1.245311	-1.118762	-0.779081
H72	H	1.261990	-0.905978	-0.762236
F73	F	0.792443	-0.640637	-0.640319
F74	F	1.132122	-0.367174	-0.367683
H75	H	1.383890	-0.806450	-0.640375
H76	H	1.396581	-0.627714	-1.106163
F77	F	1.379717	-0.644583	-0.893368
