data_functionalizedCrystal
_audit_creation_method	'MofGen! by Chris Wilmer'
_symmetry_space_group_name_H-M	'P1'
_symmetry_Int_Tables_number	1
_symmetry_cell_setting	triclinic
loop_
_symmetry_equiv_pos_as_xyz
  x,y,z
_cell_length_a	12.827893
_cell_length_b	19.805405
_cell_length_c	19.805399
_cell_angle_alpha	89.970699
_cell_angle_beta	90.016454
_cell_angle_gamma	89.973428
loop_
_atom_site_label
_atom_site_type_symbol
_atom_site_fract_x
_atom_site_fract_y
_atom_site_fract_z
Zn1	Zn	1.597562	0.269476	0.382655
Zn2	Zn	1.597431	0.382664	0.269464
Zn3	Zn	1.422812	0.269495	0.269486
Zn4	Zn	1.422756	0.382629	0.382616
O5	O	1.510140	0.326066	0.326055
O6	O	1.743781	0.284498	0.367647
O7	O	1.574236	0.367675	0.174750
O8	O	1.446072	0.174776	0.284524
O9	O	1.743684	0.367657	0.284486
O10	O	1.574460	0.174762	0.367669
O11	O	1.445944	0.284530	0.174766
O12	O	1.276568	0.284495	0.284486
O13	O	1.445975	0.367596	0.477338
O14	O	1.276527	0.367614	0.367603
O15	O	1.574405	0.284463	0.477367
O16	O	1.574181	0.477376	0.284448
O17	O	1.445848	0.477350	0.367581
C18	C	1.238630	0.326054	0.326043
C19	C	1.122477	0.326065	0.326054
C20	C	0.950655	0.367269	0.367129
C21	C	1.070706	0.367259	0.367119
C22	C	1.510023	0.501922	0.326023
C23	C	1.510068	0.577154	0.326031
C24	C	1.510199	0.326023	0.502598
C25	C	1.510224	0.326005	0.577830
C26	C	1.782710	0.326079	0.326068
C27	C	1.898863	0.326085	0.326073
C28	C	1.510287	0.149523	0.326103
C29	C	1.510349	0.074291	0.326123
C30	C	1.576956	0.612489	0.282789
C31	C	1.577000	0.683178	0.282804
C32	C	1.510151	0.718530	0.326058
C33	C	1.443260	0.683189	0.369305
C34	C	1.443221	0.612502	0.369293
C35	C	1.443414	0.968263	0.369355
C36	C	1.443455	1.038955	0.369362
C37	C	1.577193	1.038938	0.282866
C38	C	1.577154	0.968251	0.282854
C39	C	1.510268	0.932917	0.326103
C40	C	1.510222	0.856269	0.326087
C41	C	1.510191	0.795177	0.326071
C42	C	1.510142	0.326060	0.150199
C43	C	1.510319	0.325887	0.074968
C44	C	1.577099	0.282716	0.613190
C45	C	1.577109	0.282696	0.683879
C46	C	1.510250	0.325970	0.719206
C47	C	1.443367	0.369261	0.683841
C48	C	1.443352	0.369277	0.613154
C49	C	1.443426	0.369198	0.968914
C50	C	1.443449	0.369180	1.039606
C51	C	1.577184	0.282617	1.039639
C52	C	1.577168	0.282633	0.968952
C53	C	1.510283	0.325922	0.933593
C54	C	1.510271	0.325941	0.856945
C55	C	1.510266	0.325954	0.795853
H56	H	1.631388	0.583711	0.247564
C57	C	0.890494	0.414916	0.414626
N58	N	0.845182	0.450804	0.450403
C59	C	1.369721	0.722079	0.416883
N60	N	1.314325	0.751370	0.452716
H61	H	1.115245	0.402515	0.402272
C62	C	1.062316	0.278426	0.278565
N63	N	1.016995	0.242546	0.242796
C64	C	1.650576	0.722043	0.235230
N65	N	1.705995	0.751317	0.199394
H66	H	0.943399	0.290820	0.290914
H67	H	1.388885	0.404521	0.584364
H68	H	1.388999	0.404420	1.068368
H69	H	1.631586	0.939470	0.247631
H70	H	1.631659	1.067716	0.247653
H71	H	1.389019	1.067736	0.404590
H72	H	1.388950	0.939499	0.404569
H73	H	1.388756	0.583733	0.404506
H74	H	1.631616	0.247397	0.940192
H75	H	1.631547	0.247479	0.584432
H76	H	1.631642	0.247367	1.068437
H77	H	1.631568	0.247447	0.712666
C78	C	1.369847	0.416815	0.930029
N79	N	1.314421	0.452681	0.900738
H80	H	1.388925	0.404493	0.712610
