data_functionalizedCrystal
_audit_creation_method	'MofGen! by Chris Wilmer'
_symmetry_space_group_name_H-M	'P1'
_symmetry_Int_Tables_number	1
_symmetry_cell_setting	triclinic
loop_
_symmetry_equiv_pos_as_xyz
  x,y,z
_cell_length_a	25.639243
_cell_length_b	25.639239
_cell_length_c	14.908794
_cell_angle_alpha	86.718037
_cell_angle_beta	86.711216
_cell_angle_gamma	90.041410
loop_
_atom_site_label
_atom_site_type_symbol
_atom_site_fract_x
_atom_site_fract_y
_atom_site_fract_z
Zn1	Zn	0.782113	-0.225268	0.510130
Zn2	Zn	0.787097	-0.307632	0.359267
Zn3	Zn	0.699749	-0.220217	0.359283
Zn4	Zn	0.694636	-0.312676	0.510067
O5	O	0.740899	-0.266448	0.434687
O6	O	0.855939	-0.236196	0.490137
O7	O	0.779736	-0.291812	0.233028
O8	O	0.710729	-0.147723	0.379326
O9	O	0.859600	-0.296709	0.379299
O10	O	0.771241	-0.151434	0.490153
O11	O	0.715562	-0.227588	0.233040
O12	O	0.625907	-0.232479	0.379265
O13	O	0.702015	-0.305306	0.636316
O14	O	0.622150	-0.300408	0.490046
O15	O	0.766283	-0.241087	0.636362
O16	O	0.774778	-0.381465	0.379238
O17	O	0.706848	-0.385171	0.490031
C18	C	0.605058	-0.266443	0.434651
C19	C	0.546943	-0.266455	0.434657
C20	C	0.740812	-0.402289	0.434645
C21	C	0.740822	-0.460404	0.434658
C22	C	0.184664	-0.234995	0.492497
C23	C	0.130059	-0.234995	0.492502
O24	O	0.100195	-0.208235	0.541635
N25	N	0.104659	-0.266447	0.434712
C26	C	0.133867	-0.297899	0.376905
O27	O	0.107248	-0.324651	0.327750
C28	C	0.188470	-0.297896	0.376896
C29	C	0.213867	-0.266445	0.434696
C30	C	0.210061	-0.203546	0.550292
C31	C	0.264662	-0.203547	0.550287
C32	C	0.293865	-0.234997	0.492487
C33	C	0.268468	-0.266446	0.434692
C34	C	0.217677	-0.329344	0.319085
C35	C	0.272284	-0.329338	0.319080
C36	C	0.297681	-0.297887	0.376881
C37	C	0.352272	-0.297897	0.376887
N38	N	0.377672	-0.266444	0.434678
C39	C	0.348469	-0.234994	0.492478
C40	C	0.019195	-0.297902	0.376928
C41	C	-0.035408	-0.297908	0.376942
C42	C	-0.039211	-0.235003	0.492538
C43	C	0.015393	-0.235000	0.492528
C44	C	0.044595	-0.266449	0.434719
C45	C	0.463134	-0.234999	0.492464
C46	C	0.517740	-0.235005	0.492457
C47	C	0.521539	-0.297907	0.376858
C48	C	0.466938	-0.297904	0.376868
C49	C	0.437737	-0.266446	0.434674
O50	O	0.382171	-0.324641	0.327777
O51	O	0.375095	-0.208241	0.541617
C52	C	0.776354	-0.818829	0.377095
C53	C	0.776374	-0.873434	0.377107
O54	O	0.806495	-0.900021	0.328120
N55	N	0.740989	-0.902689	0.434747
C56	C	0.705585	-0.877338	0.492384
O57	O	0.675489	-0.907236	0.541412
C58	C	0.705568	-0.822734	0.492376
C59	C	0.740952	-0.793481	0.434726
C60	C	0.811736	-0.789576	0.319452
C61	C	0.811715	-0.734975	0.319439
C62	C	0.776313	-0.709627	0.377069
C63	C	0.740931	-0.738880	0.434713
C64	C	0.670167	-0.797383	0.550017
C65	C	0.670153	-0.742776	0.550004
C66	C	0.705537	-0.713523	0.492355
C67	C	0.705509	-0.658931	0.492331
N68	N	0.740894	-0.629675	0.434692
C69	C	0.776296	-0.655023	0.377061
C70	C	0.705624	-0.992009	0.492398
C71	C	0.705638	-1.046611	0.492402
C72	C	0.776428	-1.042703	0.377127
C73	C	0.776411	-0.988100	0.377118
C74	C	0.741009	-0.962753	0.434759
C75	C	0.776250	-0.540358	0.377038
C76	C	0.776224	-0.485752	0.377027
C77	C	0.705437	-0.489664	0.492305
C78	C	0.705460	-0.544265	0.492313
C79	C	0.740871	-0.569610	0.434676
O80	O	0.675404	-0.632308	0.541296
O81	O	0.806391	-0.625119	0.328050
C82	C	0.877271	-0.266453	0.434723
C83	C	0.935384	-0.266456	0.434739
C84	C	0.733023	-0.274322	0.669987
C85	C	0.729666	-0.277678	0.770259
C86	C	0.740999	-0.130077	0.434748
C87	C	0.741042	-0.071964	0.434774
C88	C	0.691476	-0.315836	0.911563
C89	C	0.694628	-0.312687	0.817350
C90	C	0.761553	-0.245814	0.817388
C91	C	0.758400	-0.248963	0.911601
C92	C	0.723361	-0.283976	0.958686
C93	C	0.720212	-0.287127	1.052901
C94	C	0.787133	-0.220252	1.052937
C95	C	0.790286	-0.217103	0.958724
C96	C	0.748741	-0.258617	1.200301
C97	C	0.752098	-0.255264	1.100030
H98	H	0.538415	-0.209393	0.539529
F99	F	0.682921	-0.324391	1.103011
F100	F	0.632510	-0.828505	0.611384
F101	F	0.813886	-0.454621	0.315666
F102	F	0.660691	-0.346596	0.767202
H103	H	0.840529	-0.711160	0.272498
F104	F	0.432064	-0.201518	0.553988
F105	F	0.667762	-0.462678	0.553640
H106	H	0.790077	-0.217306	0.779035
H107	H	0.805086	-0.560987	0.330106
H108	H	0.285335	-0.177936	0.597353
F109	F	0.849420	-0.816545	0.258109
H110	H	0.186289	-0.177933	0.597360
H111	H	0.197008	-0.354954	0.272017
F112	F	0.827566	-0.179833	0.908603
H113	H	0.662949	-0.344348	0.949900
F114	F	0.667791	-0.575399	0.553653
H115	H	0.036067	-0.209389	0.539593
H116	H	0.813097	-0.194310	1.091314
F117	F	0.814071	-0.956971	0.315761
H118	H	0.446258	-0.323520	0.329812
H119	H	-0.062998	-0.209393	0.539600
F120	F	0.814106	-1.069690	0.315789
H121	H	-0.056081	-0.323524	0.329884
F122	F	0.667972	-1.077738	0.553750
H123	H	0.676791	-0.971374	0.539333
F124	F	0.050270	-0.331379	0.315400
H125	H	0.296058	-0.354947	0.272002
H126	H	0.641325	-0.722142	0.596945
H127	H	0.545326	-0.323514	0.329801
