data_functionalizedCrystal
_audit_creation_method	'MofGen! by Chris Wilmer'
_symmetry_space_group_name_H-M	'P1'
_symmetry_Int_Tables_number	1
_symmetry_cell_setting	triclinic
loop_
_symmetry_equiv_pos_as_xyz
  x,y,z
_cell_length_a	6.817900
_cell_length_b	9.514072
_cell_length_c	10.943881
_cell_angle_alpha	88.510522
_cell_angle_beta	108.843448
_cell_angle_gamma	118.843421
loop_
_atom_site_label
_atom_site_type_symbol
_atom_site_fract_x
_atom_site_fract_y
_atom_site_fract_z
V1	V	-4.173078	-0.222159	-0.403564
O2	O	-4.070480	0.010723	-0.394841
O3	O	-4.207581	-0.440548	-0.401805
O4	O	-4.150174	-0.218721	-0.579115
O5	O	-4.128285	-0.212641	-0.216303
V6	V	-4.642660	-0.194306	-0.381044
O7	O	-4.464917	-0.283256	-0.452962
O8	O	-4.801018	-0.133208	-0.331646
O9	O	-4.384950	0.024084	-0.382803
O10	O	-4.862654	-0.427187	-0.389767
O11	O	-4.804850	-0.203824	-0.568305
O12	O	-4.442357	-0.197744	-0.205493
C13	C	-4.071925	-0.493788	-0.395697
C14	C	-4.181592	-0.672324	-0.395429
C15	C	-3.998694	-0.210822	-0.621872
C16	C	-4.061799	-0.209457	-0.765393
C17	C	-4.293201	-0.217020	-0.856310
C18	C	-4.143997	-0.078969	-0.921418
C19	C	-4.323359	-0.344976	-0.955999
C20	C	-3.911690	-0.071314	-0.828596
C21	C	-4.091157	-0.337442	-0.863186
C22	C	-3.941772	-0.199353	-0.928246
C23	C	-4.183951	0.077315	-0.388908
C24	C	-4.053524	0.255850	-0.389184
C25	C	-4.257180	-0.205647	-0.162729
C26	C	-4.173310	-0.207005	-0.019207
H27	H	-4.375174	-0.747433	-0.400615
H28	H	-4.166924	0.030327	-0.947454
C29	C	-4.492861	-0.226897	-0.813290
N30	N	-4.643232	-0.234328	-0.780881
H31	H	-3.737106	0.044442	-0.773468
C32	C	-3.741594	-0.189189	-0.970900
N33	N	-3.590819	-0.181526	-1.003029
C34	C	-3.792003	-0.642690	-0.382154
N35	N	-3.595017	-0.566260	-0.376858
H36	H	-4.068296	-0.446748	-0.837129
H37	H	-4.498020	-0.460610	-1.011272
