data_functionalizedCrystal
_audit_creation_method	'MofGen! by Chris Wilmer'
_symmetry_space_group_name_H-M	'P1'
_symmetry_Int_Tables_number	1
_symmetry_cell_setting	triclinic
loop_
_symmetry_equiv_pos_as_xyz
  x,y,z
_cell_length_a	23.532361
_cell_length_b	22.010155
_cell_length_c	10.654550
_cell_angle_alpha	89.996780
_cell_angle_beta	96.342715
_cell_angle_gamma	90.011417
loop_
_atom_site_label
_atom_site_type_symbol
_atom_site_fract_x
_atom_site_fract_y
_atom_site_fract_z
O1	O	0.756277	0.050463	-0.152157
O2	O	1.256277	0.550463	0.347843
O3	O	0.590554	0.050477	-0.174274
O4	O	1.090554	0.550477	0.325726
O5	O	0.677226	0.050467	0.019646
O6	O	1.177226	0.550467	0.519646
O7	O	0.669606	0.050473	-0.346077
O8	O	1.169606	0.550473	0.153923
O9	O	0.677200	-0.050583	0.019646
O10	O	1.177200	0.449417	0.519646
O11	O	0.590528	-0.050573	-0.174274
O12	O	1.090528	0.449427	0.325726
O13	O	0.756251	-0.050588	-0.152157
O14	O	1.256251	0.449412	0.347843
Cu15	Cu	0.673387	-0.059807	-0.163216
Cu16	Cu	1.173387	0.440193	0.336784
Cu17	Cu	0.673418	0.059697	-0.163216
Cu18	Cu	1.173418	0.559697	0.336784
O19	O	0.669579	-0.050578	-0.346077
O20	O	1.169579	0.449422	0.153923
C21	C	0.569321	-0.000046	-0.173721
C22	C	1.069321	0.499954	0.326279
C23	C	0.506092	-0.000041	-0.172055
C24	C	1.006092	0.499959	0.327945
N25	N	0.673369	-0.143860	-0.163215
N26	N	1.173369	0.356140	0.336785
C27	C	0.232815	0.055038	-0.164771
C28	C	0.732815	0.555038	0.335229
C29	C	0.292225	0.055040	-0.166348
C30	C	0.792225	0.555040	0.333652
O31	O	0.322968	0.101884	-0.167120
O32	O	0.822968	0.601884	0.332880
N33	N	0.321921	-0.000043	-0.167144
N34	N	0.821921	0.499957	0.332856
C35	C	0.292206	-0.055131	-0.166351
C36	C	0.792206	0.444869	0.333649
O37	O	0.322920	-0.101983	-0.167172
O38	O	0.822920	0.398017	0.332828
C39	C	0.232797	-0.055132	-0.164766
C40	C	0.732797	0.444868	0.335234
C41	C	0.203103	-0.000045	-0.163982
C42	C	0.703103	0.499955	0.336018
C43	C	0.203121	0.110120	-0.163987
C44	C	0.703121	0.610120	0.336013
C45	C	0.143715	0.110118	-0.162413
C46	C	0.643715	0.610118	0.337587
C47	C	0.114003	0.055035	-0.161624
C48	C	0.614003	0.555035	0.338376
C49	C	0.143697	-0.000047	-0.162408
C50	C	0.643697	0.499953	0.337592
C51	C	0.203083	-0.110219	-0.163964
C52	C	0.703083	0.389781	0.336036
C53	C	0.143670	-0.110215	-0.162377
C54	C	0.643670	0.389785	0.337623
C55	C	0.113976	-0.055129	-0.161594
C56	C	0.613976	0.444871	0.338406
C57	C	0.054579	-0.055133	-0.160045
C58	C	0.554579	0.444867	0.339955
N59	N	0.024882	-0.000050	-0.159249
N60	N	0.524882	0.499950	0.340751
C61	C	0.054594	0.055034	-0.160038
C62	C	0.554594	0.555034	0.339962
C63	C	0.416967	-0.055125	-0.169678
C64	C	0.916967	0.444875	0.330322
C65	C	0.476374	-0.055125	-0.171273
C66	C	0.976374	0.444875	0.328727
C67	C	0.476390	0.055046	-0.171267
C68	C	0.976390	0.555046	0.328733
C69	C	0.416981	0.055045	-0.169681
C70	C	0.916981	0.555045	0.330319
C71	C	0.387271	-0.000042	-0.168882
C72	C	0.887271	0.499958	0.331118
C73	C	-0.070163	0.055026	-0.156734
C74	C	0.429837	0.555026	0.343266
C75	C	-0.129574	0.055019	-0.155165
C76	C	0.370426	0.555019	0.344835
C77	C	-0.129584	-0.055151	-0.155164
C78	C	0.370416	0.444849	0.344836
C79	C	-0.070178	-0.055145	-0.156740
C80	C	0.429822	0.444855	0.343260
C81	C	-0.040469	-0.000051	-0.157520
C82	C	0.459531	0.499949	0.342480
O83	O	0.023798	-0.101953	-0.159267
O84	O	0.523798	0.398047	0.340733
O85	O	0.023874	0.101878	-0.159200
O86	O	0.523874	0.601878	0.340800
C87	C	0.708258	-0.563641	-0.238966
C88	C	1.208258	-0.063641	0.261034
C89	C	0.708265	-0.627249	-0.238963
C90	C	1.208265	-0.127249	0.261037
O91	O	0.737908	-0.660142	-0.303361
O92	O	1.237908	-0.160142	0.196639
N93	N	0.673429	-0.659067	-0.163201
N94	N	1.173429	-0.159067	0.336799
C95	C	0.638589	-0.627274	-0.087428
C96	C	1.138589	-0.127274	0.412572
O97	O	0.608960	-0.660178	-0.022986
O98	O	1.108960	-0.160178	0.477014
C99	C	0.638586	-0.563667	-0.087426
C100	C	1.138586	-0.063667	0.412574
C101	C	0.673419	-0.531853	-0.163202
C102	C	1.173419	-0.031853	0.336798
C103	C	0.743089	-0.531826	-0.314735
C104	C	1.243089	-0.031826	0.185265
C105	C	0.743082	-0.468223	-0.314739
C106	C	1.243082	0.031777	0.185261
C107	C	0.708243	-0.436435	-0.238975
C108	C	1.208243	0.063565	0.261025
C109	C	0.673412	-0.468249	-0.163206
C110	C	1.173412	0.031751	0.336794
C111	C	0.603749	-0.531876	-0.011647
C112	C	1.103749	-0.031876	0.488353
C113	C	0.603749	-0.468265	-0.011650
C114	C	1.103749	0.031735	0.488350
C115	C	0.638583	-0.436450	-0.087426
C116	C	1.138583	0.063550	0.412574
C117	C	0.638565	-0.372858	-0.087447
C118	C	1.138565	0.127142	0.412553
N119	N	0.673401	-0.341040	-0.163208
N120	N	1.173401	0.158960	0.336792
C121	C	0.708240	-0.372828	-0.238972
C122	C	1.208240	0.127172	0.261028
C123	C	0.638600	-0.760852	-0.087438
C124	C	1.138600	-0.260852	0.412562
C125	C	0.638599	-0.824457	-0.087447
C126	C	1.138599	-0.324457	0.412553
C127	C	0.708276	-0.824427	-0.238980
C128	C	1.208276	-0.324427	0.261020
C129	C	0.708273	-0.760821	-0.238977
C130	C	1.208273	-0.260821	0.261023
C131	C	0.673435	-0.729034	-0.163200
C132	C	1.173435	-0.229034	0.336800
C133	C	0.708221	-0.239257	-0.238977
C134	C	1.208221	0.260743	0.261023
C135	C	0.708208	-0.175648	-0.238979
C136	C	1.208208	0.324352	0.261021
C137	C	0.638534	-0.175683	-0.087442
C138	C	1.138534	0.324317	0.412558
C139	C	0.638544	-0.239286	-0.087444
C140	C	1.138544	0.260714	0.412556
C141	C	0.673392	-0.271072	-0.163216
C142	C	1.173392	0.228928	0.336784
O143	O	0.608939	-0.339924	-0.023078
O144	O	1.108939	0.160076	0.476922
O145	O	0.737870	-0.339916	-0.303391
O146	O	1.237870	0.160084	0.196609
C147	C	0.777484	-0.000063	-0.152711
C148	C	1.277484	0.499937	0.347289
C149	C	0.840714	-0.000064	-0.154376
C150	C	1.340714	0.499936	0.345624
C151	C	0.676654	-0.000057	0.066426
C152	C	1.176654	0.499943	0.566426
C153	C	0.674979	-0.000055	0.205815
C154	C	1.174979	0.499945	0.705815
N155	N	0.673441	0.143749	-0.163206
N156	N	1.173441	0.643749	0.336794
C157	C	0.670152	-0.000052	-0.392857
C158	C	1.170152	0.499948	0.107143
C159	C	0.671826	-0.000050	-0.532247
C160	C	1.171826	0.499950	-0.032247
C161	C	0.726010	-0.000061	0.286937
C162	C	1.226010	0.499939	0.786937
C163	C	0.724434	-0.000057	0.417907
C164	C	1.224434	0.499943	0.917907
C165	C	0.620791	-0.000042	0.386622
C166	C	1.120791	0.499958	0.886622
C167	C	0.622368	-0.000042	0.255654
C168	C	1.122368	0.499958	0.755654
C169	C	0.785848	-0.000072	0.305000
C170	C	1.285848	0.499928	0.805000
C171	C	0.784271	-0.000067	0.435970
C172	C	1.284271	0.499933	0.935970
H173	H	-0.153749	0.099879	-0.154531
H174	H	0.346251	0.599879	0.345469
H175	H	0.804891	-0.043705	0.269984
H176	H	1.304891	0.456295	0.769984
C177	C	-0.009356	-0.119063	-0.266479
C178	C	0.490644	0.380937	0.233521
C179	C	-0.037538	-0.115697	-0.157615
C180	C	0.462462	0.384303	0.342385
H181	H	0.010788	-0.156448	-0.267012
H182	H	0.510788	0.343552	0.232988
H183	H	0.016844	-0.086263	-0.267158
H184	H	0.516844	0.413737	0.232842
H185	H	-0.036591	-0.116769	-0.339099
H186	H	0.463409	0.383231	0.160901
H187	H	-0.010303	-0.117986	-0.084995
H188	H	0.489697	0.382014	0.415005
H189	H	-0.063741	-0.148506	-0.156924
H190	H	0.436259	0.351494	0.343076
H191	H	0.227250	-0.155076	-0.164598
H192	H	0.727250	0.344924	0.335402
C193	C	0.860830	-0.039847	0.580298
C194	C	1.360830	0.460153	1.080298
C195	C	0.814680	-0.057161	0.493337
C196	C	1.314680	0.442839	0.993337
H197	H	0.879600	-0.075094	0.615708
H198	H	1.379600	0.424906	1.115708
H199	H	0.847243	-0.016349	0.645541
H200	H	1.347243	0.483651	1.145541
H201	H	0.886950	-0.016364	0.538612
H202	H	1.386950	0.483636	1.038612
H203	H	0.788557	-0.080640	0.535025
H204	H	1.288557	0.419360	1.035025
H205	H	0.828266	-0.080669	0.428084
H206	H	1.328266	0.419331	0.928084
H207	H	0.802367	0.043562	0.482193
H208	H	1.302367	0.543562	0.982193
C209	C	0.561924	-0.310845	-0.080463
C210	C	1.061924	0.189155	0.419537
C211	C	0.600250	-0.274257	-0.004157
C212	C	1.100250	0.225743	0.495843
H213	H	0.538284	-0.332427	-0.029035
H214	H	1.038284	0.167573	0.470965
H215	H	0.582675	-0.338882	-0.125563
H216	H	1.082675	0.161118	0.374437
H217	H	0.538815	-0.286035	-0.138528
H218	H	1.038815	0.213965	0.361472
H219	H	0.623362	-0.299068	0.053902
H220	H	1.123362	0.200932	0.553902
H221	H	0.579498	-0.246217	0.040964
H222	H	1.079498	0.253783	0.540964
H223	H	-0.045980	0.099888	-0.157371
H224	H	0.454020	0.599888	0.342629
H225	H	0.580814	-0.000029	0.189608
H226	H	1.080814	0.499971	0.689608
H227	H	0.610168	-0.149789	-0.025760
H228	H	1.110168	0.350211	0.474240
C229	C	0.518504	-0.000022	0.342542
C230	C	1.018504	0.499978	0.842542
C231	C	0.562962	-0.000029	0.441408
C232	C	1.062962	0.499971	0.941408
H233	H	0.482802	-0.000010	0.376365
H234	H	0.982802	0.499990	0.876365
H235	H	0.521262	-0.035261	0.292120
H236	H	1.021262	0.464739	0.792120
H237	H	0.521291	0.035216	0.292102
H238	H	1.021291	0.535216	0.792102
H239	H	0.560178	-0.035270	0.491842
H240	H	1.060178	0.464730	0.991842
H241	H	0.560203	0.035213	0.491850
H242	H	1.060203	0.535213	0.991850
C243	C	0.527128	-0.603419	-0.004638
C244	C	1.027128	-0.103419	0.495362
C245	C	0.565463	-0.566836	0.071658
C246	C	1.065463	-0.066836	0.571658
H247	H	0.503490	-0.624999	0.046799
H248	H	1.003490	-0.124999	0.546799
H249	H	0.547873	-0.631459	-0.049746
H250	H	1.047873	-0.131459	0.450254
H251	H	0.504018	-0.578607	-0.062695
H252	H	1.004018	-0.078607	0.437305
H253	H	0.588576	-0.591649	0.129709
H254	H	1.088576	-0.091649	0.629709
H255	H	0.544717	-0.538793	0.116787
H256	H	1.044717	-0.038793	0.616787
C257	C	0.569719	-0.767280	0.062329
C258	C	1.069719	-0.267280	0.562329
C259	C	0.600294	-0.725914	-0.004155
C260	C	1.100294	-0.225914	0.495845
H261	H	0.546069	-0.745712	0.113737
H262	H	1.046069	-0.245712	0.613737
H263	H	0.595727	-0.792080	0.114088
H264	H	1.095727	-0.292080	0.614088
H265	H	0.546619	-0.792095	0.004246
H266	H	1.046619	-0.292095	0.504246
H267	H	0.623397	-0.701101	0.053929
H268	H	1.123397	-0.201101	0.553929
H269	H	0.574283	-0.701103	-0.055918
H270	H	1.074283	-0.201103	0.444082
C271	C	0.197152	0.219014	-0.163844
C272	C	0.697152	0.719014	0.336156
C273	C	0.235773	0.170675	-0.164865
C274	C	0.735773	0.670675	0.335135
H275	H	0.217307	0.256400	-0.164402
H276	H	0.717307	0.756400	0.335598
H277	H	0.178043	0.216720	-0.089988
H278	H	0.678043	0.716720	0.410012
H279	H	0.169919	0.216709	-0.236466
H280	H	0.669919	0.716709	0.263534
H281	H	0.263004	0.172978	-0.092238
H282	H	0.763004	0.672978	0.407762
H283	H	0.254891	0.172971	-0.238729
H284	H	0.754891	0.672971	0.261271
C285	C	0.070944	0.174052	-0.268590
C286	C	0.570944	0.674052	0.231410
C287	C	0.111083	0.170673	-0.161537
C288	C	0.611083	0.670673	0.338463
H289	H	0.050806	0.211441	-0.268047
H290	H	0.550806	0.711441	0.231953
H291	H	0.044741	0.141257	-0.267887
H292	H	0.544741	0.641257	0.232113
H293	H	0.090067	0.171761	-0.342439
H294	H	0.590067	0.671761	0.157561
H295	H	0.091959	0.172960	-0.087688
H296	H	0.591959	0.672960	0.412312
H297	H	0.137290	0.203477	-0.162229
H298	H	0.637290	0.703477	0.337771
H299	H	0.392780	-0.099987	-0.169044
H300	H	0.892780	0.400013	0.330956
C301	C	0.777087	-0.232821	-0.388775
C302	C	1.277087	0.267179	0.111225
C303	C	0.746522	-0.274189	-0.322274
C304	C	1.246522	0.225811	0.177726
H305	H	0.800727	-0.254388	-0.440207
H306	H	1.300727	0.245612	0.059793
H307	H	0.800191	-0.208009	-0.330712
H308	H	1.300191	0.291991	0.169288
H309	H	0.751069	-0.208018	-0.440524
H310	H	1.251069	0.291982	0.059476
H311	H	0.772540	-0.298989	-0.270518
H312	H	1.272540	0.201011	0.229482
H313	H	0.723416	-0.299011	-0.380344
H314	H	1.223416	0.200989	0.119656
H315	H	0.809263	0.042213	0.276392
H316	H	1.309263	0.542213	0.776392
C317	C	0.819698	-0.396669	-0.321712
C318	C	1.319698	0.103331	0.178288
C319	C	0.781372	-0.433253	-0.398027
C320	C	1.281372	0.066747	0.101973
H321	H	0.843335	-0.375080	-0.373135
H322	H	1.343335	0.124920	0.126865
H323	H	0.842805	-0.421477	-0.263661
H324	H	1.342805	0.078523	0.236339
H325	H	0.798944	-0.368632	-0.276599
H326	H	1.298944	0.131368	0.223401
H327	H	0.802127	-0.461293	-0.443133
H328	H	1.302127	0.038707	0.056867
H329	H	0.758263	-0.408442	-0.456101
H330	H	1.258263	0.091558	0.043899
H331	H	0.392808	0.099902	-0.169044
H332	H	0.892808	0.599902	0.330956
H333	H	0.500545	-0.099982	-0.171931
H334	H	1.000545	0.400018	0.328069
C335	C	0.567473	0.103958	-0.173668
C336	C	1.067473	0.603958	0.326332
C337	C	0.509058	0.115597	-0.172121
C338	C	1.009058	0.615597	0.327879
H339	H	0.587641	0.141338	-0.174189
H340	H	1.087641	0.641338	0.325811
H341	H	0.573142	0.081333	-0.247165
H342	H	1.073142	0.581333	0.252835
H343	H	0.581252	0.081319	-0.100686
H344	H	1.081252	0.581319	0.399314
H345	H	0.495277	0.138232	-0.245108
H346	H	0.995277	0.638232	0.254892
H347	H	0.503385	0.138232	-0.098617
H348	H	1.003385	0.638232	0.401383
C349	C	0.149628	-0.219116	-0.162531
C350	C	0.649628	0.280884	0.337469
C351	C	0.111013	-0.170771	-0.161506
C352	C	0.611013	0.329229	0.338494
H353	H	0.129466	-0.256499	-0.162004
H354	H	0.629466	0.243501	0.337996
H355	H	0.176854	-0.216822	-0.089911
H356	H	0.676854	0.283178	0.410089
H357	H	0.168745	-0.216817	-0.236390
H358	H	0.668745	0.283183	0.263610
H359	H	0.091899	-0.173067	-0.087643
H360	H	0.591899	0.326933	0.412357
H361	H	0.083777	-0.173065	-0.234133
H362	H	0.583777	0.326935	0.265867
C363	C	-0.220665	-0.104059	-0.152734
C364	C	0.279335	0.395941	0.347266
C365	C	-0.162251	-0.115697	-0.154292
C366	C	0.337749	0.384303	0.345708
H367	H	-0.240832	-0.141439	-0.152181
H368	H	0.259168	0.358561	0.347819
H369	H	-0.234449	-0.081431	-0.225713
H370	H	0.265551	0.418569	0.274287
H371	H	-0.226331	-0.081422	-0.079235
H372	H	0.273669	0.418578	0.420765
H373	H	-0.156585	-0.138331	-0.227796
H374	H	0.343415	0.361669	0.272204
H375	H	-0.148463	-0.138335	-0.081305
H376	H	0.351537	0.361665	0.418695
H377	H	0.736637	-0.734922	-0.300681
H378	H	1.236637	-0.234922	0.199319
C379	C	0.811950	-0.525391	-0.464528
C380	C	1.311950	-0.025391	0.035472
C381	C	0.781385	-0.566761	-0.398033
C382	C	1.281385	-0.066761	0.101967
H383	H	0.835589	-0.546957	-0.515967
H384	H	1.335589	-0.046957	-0.015967
H385	H	0.835057	-0.500583	-0.406461
H386	H	1.335057	-0.000583	0.093539
H387	H	0.785933	-0.500584	-0.516269
H388	H	1.285933	-0.000584	-0.016269
H389	H	0.807403	-0.591565	-0.346285
H390	H	1.307403	-0.091565	0.153715
H391	H	0.758277	-0.591580	-0.456107
H392	H	1.258277	-0.091580	0.043893
C393	C	0.777153	-0.818025	-0.388768
C394	C	1.277153	-0.318025	0.111232
C395	C	0.746576	-0.859377	-0.322258
C396	C	1.246576	-0.359377	0.177742
H397	H	0.800793	-0.839604	-0.440182
H398	H	1.300793	-0.339604	0.059818
H399	H	0.800258	-0.793211	-0.330711
H400	H	1.300258	-0.293211	0.169289
H401	H	0.751143	-0.793222	-0.440535
H402	H	1.251143	-0.293222	0.059465
H403	H	0.772586	-0.884177	-0.270483
H404	H	1.272586	-0.384177	0.229517
H405	H	0.723468	-0.884201	-0.380322
H406	H	1.223468	-0.384201	0.119678
C407	C	0.534879	-0.474688	0.138142
C408	C	1.034879	0.025312	0.638142
C409	C	0.565450	-0.433325	0.071642
C410	C	1.065450	0.066675	0.571642
H411	H	0.511233	-0.453117	0.189553
H412	H	1.011233	0.046883	0.689553
H413	H	0.560889	-0.499487	0.189898
H414	H	1.060889	0.000513	0.689898
H415	H	0.511776	-0.499505	0.080067
H416	H	1.011776	0.000495	0.580067
H417	H	0.588557	-0.408511	0.129717
H418	H	1.088557	0.091489	0.629717
H419	H	0.539438	-0.408516	0.019881
H420	H	1.039438	0.091484	0.519881
H421	H	0.736574	-0.149747	-0.300691
H422	H	1.236574	0.350253	0.199309
H423	H	0.610228	-0.850355	-0.025757
H424	H	1.110228	-0.350355	0.474243
