data_functionalizedCrystal
_audit_creation_method	'MofGen! by Chris Wilmer'
_symmetry_space_group_name_H-M	'P1'
_symmetry_Int_Tables_number	1
_symmetry_cell_setting	triclinic
loop_
_symmetry_equiv_pos_as_xyz
  x,y,z
_cell_length_a	18.215407
_cell_length_b	12.594516
_cell_length_c	18.215399
_cell_angle_alpha	90.022106
_cell_angle_beta	90.017368
_cell_angle_gamma	90.013496
loop_
_atom_site_label
_atom_site_type_symbol
_atom_site_fract_x
_atom_site_fract_y
_atom_site_fract_z
Zn1	Zn	1.125117	-0.423826	0.416097
Zn2	Zn	1.625117	0.076174	0.916097
Zn3	Zn	1.125044	-0.601823	0.293044
Zn4	Zn	1.625044	-0.101823	0.793044
Zn5	Zn	1.002050	-0.423851	0.293050
Zn6	Zn	1.502050	0.076149	0.793050
Zn7	Zn	1.002035	-0.601755	0.416074
Zn8	Zn	1.502035	-0.101755	0.916074
O9	O	1.063561	-0.512814	0.354566
O10	O	1.563561	-0.012814	0.854566
O11	O	1.228092	-0.447455	0.399781
O12	O	1.728092	0.052545	0.899781
O13	O	1.108705	-0.578254	0.190060
O14	O	1.608705	-0.078254	0.690060
O15	O	1.018412	-0.274902	0.309385
O16	O	1.518412	0.225098	0.809385
O17	O	1.228038	-0.578229	0.309374
O18	O	1.728038	-0.078229	0.809374
O19	O	1.108829	-0.274883	0.399787
O20	O	1.608829	0.225117	0.899787
O21	O	1.018341	-0.447499	0.190065
O22	O	1.518341	0.052501	0.690065
O23	O	0.899063	-0.447432	0.309362
O24	O	1.399063	0.052568	0.809362
O25	O	1.018386	-0.578113	0.519061
O26	O	1.518386	-0.078113	1.019061
O27	O	0.899052	-0.578137	0.399747
O28	O	1.399052	-0.078137	0.899747
O29	O	1.108814	-0.447389	0.519079
O30	O	1.608814	0.052611	1.019079
O31	O	1.108690	-0.750760	0.309351
O32	O	1.608690	-0.250760	0.809351
O33	O	1.018315	-0.750709	0.399741
O34	O	1.518315	-0.250709	0.899741
C35	C	0.872355	-0.512781	0.354553
C36	C	1.372355	-0.012781	0.854553
C37	C	0.790556	-0.512793	0.354565
C38	C	1.290556	-0.012793	0.854565
C39	C	1.063513	-0.789355	0.354559
C40	C	1.563513	-0.289355	0.854559
C41	C	1.063560	-0.907660	0.354581
C42	C	1.563560	-0.407660	0.854581
C43	C	0.602389	-0.444839	0.401715
C44	C	1.102389	0.055161	0.901715
C45	C	0.525530	-0.444848	0.401717
C46	C	1.025530	0.055152	0.901717
C47	C	0.525486	-0.580818	0.307431
C48	C	1.025486	-0.080818	0.807431
C49	C	0.602343	-0.580803	0.307425
C50	C	1.102343	-0.080803	0.807425
C51	C	0.640793	-0.512815	0.354571
C52	C	1.140793	-0.012815	0.854571
C53	C	0.487077	-0.512839	0.354579
C54	C	0.987077	-0.012839	0.854579
C55	C	0.403743	-0.512850	0.354582
C56	C	0.903743	-0.012850	0.854582
C57	C	0.724132	-0.512803	0.354568
C58	C	1.224132	-0.012803	0.854568
C59	C	1.014400	-0.976924	0.403709
C60	C	1.514400	-0.476924	0.903709
C61	C	0.996471	-1.047782	0.336557
C62	C	1.496471	-0.547782	0.836557
C63	C	1.081556	-1.047602	0.421744
C64	C	1.581556	-0.547602	0.921744
C65	C	1.045595	-0.976959	0.287393
C66	C	1.545595	-0.476959	0.787393
C67	C	1.130712	-0.976773	0.372625
C68	C	1.630712	-0.476773	0.872625
C69	C	1.112808	-1.047598	0.305427
C70	C	1.612808	-0.547598	0.805427
C71	C	1.255514	-0.512847	0.354580
C72	C	1.755514	-0.012847	0.854580
C73	C	1.337313	-0.512862	0.354585
C74	C	1.837313	-0.012862	0.854585
C75	C	1.063606	-0.512740	0.546519
C76	C	1.563606	-0.012740	1.046519
C77	C	1.063625	-0.512709	0.628318
C78	C	1.563625	-0.012709	1.128318
C79	C	1.063630	-0.235193	0.354590
C80	C	1.563630	0.264807	0.854590
C81	C	1.063659	-0.116887	0.354599
C82	C	1.563659	0.383113	0.854599
C83	C	1.063559	-0.512810	0.163360
C84	C	1.563559	-0.012810	0.663360
C85	C	1.063683	-0.512541	0.081561
C86	C	1.563683	-0.012541	0.581561
C87	C	1.110728	-0.444578	0.816522
C88	C	1.610728	0.055422	1.316522
C89	C	1.110737	-0.444547	0.893381
C90	C	1.610737	0.055453	1.393381
C91	C	1.016574	-0.580676	0.893352
C92	C	1.516574	-0.080676	1.393352
C93	C	1.016563	-0.580701	0.816494
C94	C	1.516563	-0.080701	1.316494
C95	C	1.063644	-0.512653	0.778082
C96	C	1.563644	-0.012653	1.278082
C97	C	1.063664	-0.512597	0.931798
C98	C	1.563664	-0.012597	1.431798
C99	C	1.063674	-0.512564	1.015132
C100	C	1.563674	-0.012564	1.515132
C101	C	1.063634	-0.512685	0.694743
C102	C	1.563634	-0.012685	1.194743
H103	H	0.633693	-0.389475	0.440102
H104	H	1.133693	0.110525	0.940102
Br105	Br	0.952685	-0.673025	0.945488
Br106	Br	1.452685	-0.173025	1.445488
H107	H	0.494266	-0.389493	0.440105
H108	H	0.994266	0.110507	0.940105
Br109	Br	0.952651	-0.673086	0.764320
Br110	Br	1.452651	-0.173086	1.264320
Br111	Br	1.174622	-0.352226	0.764393
Br112	Br	1.674622	0.147774	1.264393
Br113	Br	1.174646	-0.352162	0.945548
Br114	Br	1.674646	0.147838	1.445548
H115	H	0.633612	-0.636159	0.269031
H116	H	1.133612	-0.136159	0.769031
Br117	Br	0.473300	-0.673085	0.243451
Br118	Br	0.973300	-0.173085	0.743451
H119	H	0.972753	-0.945891	0.445195
H120	H	1.472753	-0.445891	0.945195
Br121	Br	0.901891	-1.099763	0.311120
Br122	Br	1.401891	-0.599763	0.811120
H123	H	1.030348	-0.946057	0.230585
H124	H	1.530348	-0.446057	0.730585
H125	H	1.154423	-1.078434	0.263841
H126	H	1.654423	-0.578434	0.763841
H127	H	1.187442	-0.945562	0.387905
H128	H	1.687442	-0.445562	0.887905
H129	H	1.096738	-1.078632	0.478536
H130	H	1.596738	-0.578632	0.978536
