data_functionalizedCrystal
_audit_creation_method	'MofGen! by Chris Wilmer'
_symmetry_space_group_name_H-M	'P1'
_symmetry_Int_Tables_number	1
_symmetry_cell_setting	triclinic
loop_
_symmetry_equiv_pos_as_xyz
  x,y,z
_cell_length_a	11.169417
_cell_length_b	13.032721
_cell_length_c	11.169409
_cell_angle_alpha	97.146003
_cell_angle_beta	89.980176
_cell_angle_gamma	97.204996
loop_
_atom_site_label
_atom_site_type_symbol
_atom_site_fract_x
_atom_site_fract_y
_atom_site_fract_z
Zn1	Zn	1.774209	-0.415926	-0.739163
Zn2	Zn	2.107543	-0.082592	-0.405830
Zn3	Zn	2.440876	0.250741	-0.072497
Zn4	Zn	1.748568	-0.590714	-0.563955
Zn5	Zn	2.081901	-0.257380	-0.230622
Zn6	Zn	2.415234	0.075953	0.102711
Zn7	Zn	1.573486	-0.415989	-0.538507
Zn8	Zn	1.906819	-0.082656	-0.205174
Zn9	Zn	2.240152	0.250677	0.128160
Zn10	Zn	1.547984	-0.590629	-0.764588
Zn11	Zn	1.881318	-0.257295	-0.431254
Zn12	Zn	2.214651	0.076038	-0.097921
O13	O	1.661062	-0.503314	-0.651553
O14	O	1.994395	-0.169981	-0.318220
O15	O	2.327728	0.163352	0.015113
O16	O	1.938756	-0.439121	-0.715931
O17	O	2.272090	-0.105787	-0.382598
O18	O	2.605423	0.227546	-0.049265
O19	O	1.725284	-0.567598	-0.392639
O20	O	2.058618	-0.234265	-0.059305
O21	O	2.391951	0.099068	0.274028
O22	O	1.621516	-0.269744	-0.543834
O23	O	1.954849	0.063589	-0.210501
O24	O	2.288182	0.396922	0.122833
O25	O	1.919918	-0.567537	-0.587207
O26	O	2.253251	-0.234203	-0.253874
O27	O	2.586584	0.099130	0.079460
O28	O	1.768986	-0.269697	-0.691255
O29	O	2.102320	0.063636	-0.357922
O30	O	2.435653	0.396969	-0.024589
O31	O	1.596652	-0.439229	-0.373942
O32	O	1.929986	-0.105896	-0.040609
O33	O	2.263319	0.227438	0.292725
O34	O	1.402155	-0.439147	-0.568487
O35	O	1.735488	-0.105813	-0.235154
O36	O	2.068821	0.227520	0.098180
O37	O	1.578052	-0.567392	-0.929156
O38	O	1.911385	-0.234058	-0.595822
O39	O	2.244719	0.099275	-0.262489
O40	O	1.383419	-0.567453	-0.734588
O41	O	1.716752	-0.234120	-0.401254
O42	O	2.050085	0.099213	-0.067921
O43	O	1.744259	-0.439038	-0.910477
O44	O	2.077592	-0.105705	-0.577143
O45	O	2.410925	0.227629	-0.243810
O46	O	1.700556	-0.736939	-0.611860
O47	O	2.033890	-0.403606	-0.278527
O48	O	2.367223	-0.070272	0.054807
O49	O	1.553189	-0.736877	-0.759264
O50	O	1.886522	-0.403543	-0.425930
O51	O	2.219855	-0.070210	-0.092597
C52	C	1.349239	-0.503298	-0.651535
C53	C	1.682573	-0.169965	-0.318202
C54	C	2.015906	0.163368	0.015131
C55	C	1.215837	-0.503317	-0.651560
C56	C	1.549170	-0.169984	-0.318227
C57	C	1.882503	0.163350	0.015107
C58	C	1.621355	-0.774825	-0.691108
C59	C	1.954689	-0.441492	-0.357775
C60	C	2.288022	-0.108159	-0.024442
C61	C	1.604479	-0.890979	-0.708070
C62	C	1.937812	-0.557646	-0.374737
C63	C	2.271145	-0.224312	-0.041404
C64	C	1.669934	-0.942760	-0.642755
C65	C	2.003267	-0.609427	-0.309421
C66	C	2.336600	-0.276093	0.023912
C67	C	1.652492	-1.062811	-0.660284
C68	C	1.985826	-0.729478	-0.326951
C69	C	2.319159	-0.396144	0.006383
C70	C	1.974102	-0.503331	-0.651572
C71	C	2.307435	-0.169998	-0.318239
C72	C	2.640768	0.163336	0.015095
C73	C	2.107501	-0.503338	-0.651580
C74	C	2.440834	-0.170005	-0.318246
C75	C	2.774167	0.163329	0.015087
C76	C	1.661171	-0.503198	-0.964579
C77	C	1.994504	-0.169865	-0.631246
C78	C	2.327838	0.163468	-0.297912
C79	C	1.661217	-0.503149	-1.097972
C80	C	1.994551	-0.169815	-0.764638
C81	C	2.327884	0.163518	-0.431305
C82	C	1.700956	-0.230743	-0.611870
C83	C	2.034289	0.102590	-0.278537
C84	C	2.367623	0.435924	0.054797
C85	C	1.717956	-0.114589	-0.594959
C86	C	2.051290	0.218744	-0.261626
C87	C	2.384623	0.552077	0.071707
C88	C	1.661033	-0.503355	-0.339734
C89	C	1.994366	-0.170021	-0.006401
C90	C	2.327700	0.163312	0.326932
C91	C	1.661262	-0.503110	-0.206299
C92	C	1.994595	-0.169776	0.127034
C93	C	2.327929	0.163557	0.460367
H94	H	1.738890	-0.898217	-0.573862
H95	H	2.072223	-0.564884	-0.240528
H96	H	2.405556	-0.231551	0.092805
H97	H	1.583541	-1.107352	-0.729190
H98	H	1.916875	-0.774019	-0.395857
H99	H	2.250208	-0.440685	-0.062524
H100	H	1.786917	-1.070049	-0.526062
H101	H	2.120250	-0.736716	-0.192729
H102	H	2.453584	-0.403383	0.140605
H103	H	1.535533	-0.935524	-0.776972
H104	H	1.868866	-0.602191	-0.443638
H105	H	2.202199	-0.268857	-0.110305
