data_functionalizedCrystal
_audit_creation_method	'MofGen! by Chris Wilmer'
_symmetry_space_group_name_H-M	'P1'
_symmetry_Int_Tables_number	1
_symmetry_cell_setting	triclinic
loop_
_symmetry_equiv_pos_as_xyz
  x,y,z
_cell_length_a	15.944493
_cell_length_b	15.944493
_cell_length_c	17.766277
_cell_angle_alpha	89.999511
_cell_angle_beta	89.991205
_cell_angle_gamma	83.475044
loop_
_atom_site_label
_atom_site_type_symbol
_atom_site_fract_x
_atom_site_fract_y
_atom_site_fract_z
O1	O	1.114538	0.108104	-0.062574
O2	O	0.869979	0.121512	-0.062577
O3	O	0.998962	-0.007471	-0.062582
O4	O	0.985554	0.237088	-0.062569
O5	O	0.998939	-0.007478	0.062607
O6	O	0.869956	0.121505	0.062612
O7	O	1.114515	0.108098	0.062614
Cu8	Cu	0.992233	0.114801	0.074044
Cu9	Cu	0.992260	0.114809	-0.074006
O10	O	0.985532	0.237081	0.062619
C11	C	0.838673	0.120961	0.000017
C12	C	0.745424	0.119318	0.000016
C13	C	0.509649	0.195240	0.000019
C14	C	0.459088	0.154295	0.061745
C15	C	0.574704	0.116273	0.000017
C16	C	0.459115	0.154283	-0.061682
C17	C	0.409795	0.113339	0.000015
C18	C	0.525371	0.075350	0.061793
C19	C	0.525401	0.075349	-0.061688
C20	C	0.474873	0.034346	0.000053
C21	C	0.669704	0.117966	0.000019
C22	C	0.314798	0.111640	0.000018
C23	C	0.998403	-0.038769	0.000009
C24	C	0.996760	-0.132018	-0.000000
C25	C	1.072682	-0.367793	0.000015
C26	C	1.031751	-0.418350	-0.061710
C27	C	0.993716	-0.302738	0.000009
C28	C	1.031711	-0.418332	0.061716
C29	C	0.990781	-0.467647	0.000021
C30	C	0.952806	-0.352066	-0.061767
C31	C	0.952777	-0.352045	0.061715
C32	C	0.911788	-0.402569	-0.000025
C33	C	0.995408	-0.207739	0.000001
C34	C	0.989082	-0.562644	0.000023
C35	C	1.145821	0.108649	0.000019
C36	C	1.239069	0.110292	0.000015
C37	C	0.986091	0.268379	0.000026
C38	C	0.987734	0.361627	0.000031
N39	N	0.992221	0.114795	0.178174
N40	N	0.992280	0.114808	-0.178137
C41	C	1.049353	0.057709	0.217559
C42	C	1.049358	0.057705	0.296361
C43	C	0.992238	0.114802	0.335775
C44	C	0.935095	0.171892	0.296380
C45	C	0.935087	0.171888	0.217580
C46	C	0.981221	0.191304	0.460616
C47	C	0.981236	0.191309	0.539415
C48	C	0.992261	0.114812	0.578821
C49	C	1.003289	0.038307	0.539418
C50	C	1.003280	0.038304	0.460618
C51	C	0.992241	0.114811	0.421220
C52	C	1.049402	0.057717	0.703652
C53	C	1.049401	0.057712	0.782455
C54	C	0.935142	0.171906	0.782473
C55	C	0.935139	0.171904	0.703671
C56	C	0.992273	0.114810	0.664265
H57	H	0.554197	0.042018	0.114029
O58	O	0.879494	0.227271	0.334631
C59	C	0.796349	0.213588	0.315384
H60	H	0.795952	0.146334	0.293725
H61	H	0.771659	0.260134	0.269648
C62	C	0.739898	0.309218	0.412000
C63	C	0.739410	0.226613	0.385404
H64	H	0.704774	0.317256	0.455191
H65	H	0.795914	0.318440	0.424966
H66	H	0.719325	0.347997	0.373880
H67	H	0.759992	0.187836	0.423520
H68	H	0.683396	0.217385	0.372446
H69	H	0.919447	-0.323080	0.113900
O70	O	0.830546	-0.420906	0.000038
C71	C	0.788756	-0.385676	0.064551
H72	H	0.822348	-0.330891	0.085854
H73	H	0.789448	-0.435880	0.110307
C74	C	0.655536	-0.420670	0.018272
C75	C	0.696790	-0.353377	0.044433
H76	H	0.598806	-0.400749	0.005864
H77	H	0.683691	-0.444408	-0.025191
H78	H	0.656121	-0.462500	0.056407
H79	H	0.696214	-0.311553	0.006295
H80	H	0.668633	-0.329631	0.087889
O81	O	0.424693	0.194196	-0.123916
C82	C	0.442036	0.278958	-0.123669
H83	H	0.500100	0.285065	-0.087526
H84	H	0.385612	0.320727	-0.099585
C85	C	0.387449	0.299375	-0.249144
C86	C	0.458769	0.306874	-0.204759
H87	H	0.397767	0.316597	-0.299164
H88	H	0.375762	0.242271	-0.249311
H89	H	0.340436	0.334183	-0.229065
H90	H	0.505777	0.272059	-0.224832
H91	H	0.470464	0.363974	-0.204597
H92	H	0.554364	0.042028	-0.113878
H93	H	1.065066	-0.447273	0.113896
O94	O	1.104760	0.002017	0.179429
C95	C	1.090992	-0.081053	0.198874
H96	H	1.023699	-0.081338	0.220479
H97	H	1.137454	-0.105628	0.244709
C98	C	1.186740	-0.137862	0.102477
C99	C	1.104087	-0.138213	0.129007
H100	H	1.194822	-0.173123	0.059381
H101	H	1.196019	-0.081897	0.089378
H102	H	1.225450	-0.158340	0.140680
H103	H	1.065380	-0.117726	0.090808
H104	H	1.094802	-0.194177	0.142098
H105	H	0.888562	0.218375	0.185512
O106	O	0.424561	0.194209	0.123947
C107	C	0.441926	0.278964	0.123742
H108	H	0.455000	0.299017	0.063676
H109	H	0.499577	0.285432	0.160322
C110	C	0.349297	0.311090	0.229019
C111	C	0.365348	0.335722	0.155244
H112	H	0.302063	0.346101	0.248453
H113	H	0.337600	0.253988	0.229159
H114	H	0.397346	0.316481	0.259492
H115	H	0.317304	0.330320	0.124769
H116	H	0.377035	0.392824	0.155099
H117	H	0.919486	-0.323237	-0.114006
H118	H	1.065109	-0.447300	-0.113893
O119	O	0.528391	0.276348	0.000191
C120	C	0.576395	0.290259	0.064713
H121	H	0.609171	0.227431	0.085912
H122	H	0.533017	0.320679	0.110526
C123	C	0.602899	0.426401	0.018631
C124	C	0.643160	0.349235	0.044665
H125	H	0.644080	0.462783	0.006267
H126	H	0.570555	0.417031	-0.024837
H127	H	0.566752	0.451740	0.056813
H128	H	0.679297	0.323893	0.006480
H129	H	0.675512	0.358603	0.088127
H130	H	1.095883	0.011217	0.328434
H131	H	1.140702	-0.352179	-0.000047
H132	H	1.012258	-0.023989	0.428539
O133	O	0.456472	-0.046874	0.000221
C134	C	0.490549	-0.088197	0.065372
H135	H	0.499756	-0.039422	0.110654
H136	H	0.554004	-0.125237	0.051230
C137	C	0.418309	-0.209094	0.038857
C138	C	0.429611	-0.149188	0.094476
H139	H	0.380723	-0.246719	0.056808
H140	H	0.395353	-0.181256	-0.005038
H141	H	0.471194	-0.239951	0.027077
H142	H	0.376729	-0.118325	0.106248
H143	H	0.452557	-0.177022	0.138373
O144	O	1.105024	0.002394	0.665359
C145	C	1.156813	0.047446	0.619788
H146	H	1.158141	0.113702	0.643534
H147	H	1.130572	0.051808	0.560053
C148	C	1.245406	-0.080114	0.589459
C149	C	1.247043	0.001262	0.618628
H150	H	1.301064	-0.108603	0.588740
H151	H	1.210514	-0.110467	0.620158
H152	H	1.223535	-0.076467	0.539683
H153	H	1.268904	-0.002386	0.668406
H154	H	1.281942	0.031613	0.587937
O155	O	1.013850	-0.035995	0.577715
C156	C	0.942567	-0.042803	0.623323
H157	H	0.886013	-0.000949	0.599591
H158	H	0.955877	-0.021752	0.683044
C159	C	0.992576	-0.186615	0.653679
C160	C	0.923113	-0.135216	0.624526
H161	H	0.980578	-0.243620	0.654425
H162	H	1.040603	-0.182029	0.622954
H163	H	1.003661	-0.169064	0.703443
H164	H	0.912036	-0.152761	0.574760
H165	H	0.875084	-0.139808	0.655243
H166	H	1.095922	0.011221	0.814522
O167	O	0.879619	0.227254	0.820832
C168	C	0.827800	0.182246	0.866411
H169	H	0.861269	0.116531	0.878212
H170	H	0.765722	0.176509	0.836054
C171	C	0.768734	0.310313	0.926770
C172	C	0.809844	0.229603	0.941270
H173	H	0.757654	0.339526	0.972945
H174	H	0.803643	0.340637	0.896061
H175	H	0.717007	0.305521	0.901470
H176	H	0.861574	0.234396	0.966560
H177	H	0.774943	0.199280	0.971985
H178	H	0.888620	0.218392	0.671602
H179	H	0.972261	0.253603	0.571491
H180	H	0.972228	0.253601	0.428539
