data_functionalizedCrystal
_audit_creation_method	'MofGen! by Chris Wilmer'
_symmetry_space_group_name_H-M	'P1'
_symmetry_Int_Tables_number	1
_symmetry_cell_setting	triclinic
loop_
_symmetry_equiv_pos_as_xyz
  x,y,z
_cell_length_a	19.288864
_cell_length_b	13.448316
_cell_length_c	14.971487
_cell_angle_alpha	90.005515
_cell_angle_beta	96.624676
_cell_angle_gamma	89.978852
loop_
_atom_site_label
_atom_site_type_symbol
_atom_site_fract_x
_atom_site_fract_y
_atom_site_fract_z
O1	O	0.921715	-0.083009	-0.111581
O2	O	1.421715	0.416991	0.388419
O3	O	0.719503	-0.082941	-0.126633
O4	O	1.219503	0.417059	0.373367
O5	O	0.826029	-0.082972	0.011122
O6	O	1.326029	0.417028	0.511122
O7	O	0.815190	-0.082978	-0.249336
O8	O	1.315190	0.417022	0.250664
O9	O	0.826014	0.082412	0.011130
O10	O	1.326014	0.582412	0.511130
O11	O	0.719489	0.082443	-0.126626
O12	O	1.219489	0.582443	0.373374
O13	O	0.921700	0.082375	-0.111574
O14	O	1.421700	0.582375	0.388426
Cu15	Cu	0.820593	0.097509	-0.119099
Cu16	Cu	1.320593	0.597509	0.380901
Cu17	Cu	0.820611	-0.098076	-0.119108
Cu18	Cu	1.320611	0.401924	0.380892
O19	O	0.815175	0.082406	-0.249329
O20	O	1.315175	0.582406	0.250671
C21	C	0.693618	-0.000240	-0.126145
C22	C	1.193618	0.499760	0.373855
C23	C	0.616510	-0.000214	-0.124691
C24	C	1.116510	0.499786	0.375309
N25	N	0.820586	0.235074	-0.119092
N26	N	1.320586	0.735074	0.380908
C27	C	0.825537	-0.000281	0.044448
C28	C	1.325537	0.499719	0.544448
C29	C	0.824084	-0.000283	0.143737
C30	C	1.324084	0.499717	0.643737
C31	C	0.572077	-0.000232	-0.205520
C32	C	1.072077	0.499768	0.294480
C33	C	0.499626	-0.000243	-0.204154
C34	C	0.999626	0.499757	0.295846
C35	C	0.471610	-0.000256	-0.121955
C36	C	0.971610	0.499744	0.378045
C37	C	0.516052	-0.000233	-0.041116
C38	C	1.016052	0.499767	0.458884
C39	C	0.588502	-0.000212	-0.042484
C40	C	1.088502	0.499788	0.457516
C41	C	0.363142	-0.058230	-0.057340
C42	C	0.863142	0.441770	0.442660
C43	C	0.290693	-0.058257	-0.055975
C44	C	0.790693	0.441743	0.444025
C45	C	0.248151	-0.000316	-0.117732
C46	C	0.748151	0.499684	0.382268
C47	C	0.278064	0.057638	-0.180868
C48	C	0.778064	0.557638	0.319132
C49	C	0.350514	0.057659	-0.182236
C50	C	0.850514	0.557659	0.317764
C51	C	0.393051	-0.000278	-0.120462
C52	C	0.893051	0.499722	0.379538
C53	C	0.125157	-0.000344	-0.197085
C54	C	0.625157	0.499656	0.302915
C55	C	0.052705	-0.000349	-0.195715
C56	C	0.552705	0.499651	0.304285
C57	C	0.069133	-0.000350	-0.032675
C58	C	0.569133	0.499650	0.467325
C59	C	0.141584	-0.000335	-0.034046
C60	C	0.641584	0.499665	0.465954
C61	C	0.169591	-0.000337	-0.116254
C62	C	0.669591	0.499663	0.383746
C63	C	0.947586	-0.000328	-0.112062
C64	C	1.447586	0.499672	0.387938
C65	C	1.024694	-0.000361	-0.113516
C66	C	1.524694	0.499639	0.386484
C67	C	0.867770	0.287100	-0.058120
C68	C	1.367770	0.787100	0.441880
C69	C	0.867774	0.391204	-0.058120
C70	C	1.367774	0.891204	0.441880
C71	C	0.820596	0.443278	-0.119097
C72	C	1.320596	0.943278	0.380903
C73	C	0.773407	0.391245	-0.180073
C74	C	1.273407	0.891245	0.319927
C75	C	0.773401	0.287143	-0.180068
C76	C	1.273401	0.787143	0.319932
C77	C	0.773425	0.608225	-0.180080
C78	C	1.273425	1.108225	0.319920
C79	C	0.773432	0.712333	-0.180087
C80	C	1.273432	1.212333	0.319913
C81	C	0.867798	0.712285	-0.058132
C82	C	1.367798	1.212285	0.441868
C83	C	0.867791	0.608184	-0.058127
C84	C	1.367791	1.108184	0.441873
C85	C	0.820603	0.556157	-0.119104
C86	C	1.320603	1.056157	0.380896
N87	N	0.820616	0.764360	-0.119114
N88	N	1.320616	1.264360	0.380886
C89	C	0.886665	-0.000305	0.201301
C90	C	1.386665	0.499695	0.701301
C91	C	0.885295	-0.000316	0.294593
C92	C	1.385295	0.499684	0.794593
C93	C	0.821344	-0.000299	0.330319
C94	C	1.321344	0.499701	0.830319
C95	C	0.758759	-0.000280	0.272748
C96	C	1.258759	0.499720	0.772748
C97	C	0.760129	-0.000276	0.179458
C98	C	1.260129	0.499724	0.679458
C99	C	0.755908	-0.000287	0.467195
C100	C	1.255908	0.499713	0.967195
C101	C	0.754537	-0.000289	0.560492
C102	C	1.254537	0.499711	1.060492
C103	C	0.881074	-0.000326	0.582330
C104	C	1.381074	0.499674	1.082330
C105	C	0.882444	-0.000322	0.489040
C106	C	1.382444	0.499678	0.989040
C107	C	0.819858	-0.000302	0.431475
C108	C	1.319858	0.499698	0.931475
C109	C	0.815667	-0.000292	0.717345
C110	C	1.315667	0.499708	1.217345
C111	C	0.817118	-0.000310	0.618056
C112	C	1.317118	0.499690	1.118056
H113	H	0.594876	-0.000235	-0.272459
H114	H	1.094876	0.499765	0.227541
Cl115	Cl	0.927086	0.221646	0.018539
Cl116	Cl	1.427086	0.721646	0.518539
Cl117	Cl	0.927120	0.777693	0.018522
Cl118	Cl	1.427120	1.277693	0.518522
H119	H	0.706689	-0.000273	0.301844
H120	H	1.206689	0.499727	0.801844
Cl121	Cl	0.681452	-0.000253	0.107092
Cl122	Cl	1.181452	0.499747	0.607092
H123	H	0.374867	0.104851	-0.233641
H124	H	0.874867	0.604851	0.266359
Cl125	Cl	0.714119	0.777791	-0.256746
Cl126	Cl	1.214119	1.277791	0.243254
Cl127	Cl	0.714100	0.542824	-0.256737
Cl128	Cl	1.214100	1.042824	0.243263
H129	H	0.906194	0.433563	-0.008470
H130	H	1.406194	0.933563	0.491530
Cl131	Cl	0.959754	-0.000357	0.654696
Cl132	Cl	1.459754	0.499643	1.154696
H133	H	0.938741	-0.000313	0.172220
H134	H	1.438741	0.499687	0.672220
H135	H	0.704944	-0.000273	0.420328
H136	H	1.204944	0.499727	0.920328
H137	H	0.243427	0.104819	-0.231156
H138	H	0.743427	0.604819	0.268844
H139	H	0.046324	-0.000422	0.034253
H140	H	0.546324	0.499578	0.534253
H141	H	0.463442	-0.000254	-0.269976
H142	H	0.963442	0.499746	0.230024
H143	H	0.936255	-0.000331	0.341458
H144	H	1.436255	0.499669	0.841458
Cl145	Cl	0.160370	-0.000337	-0.300429
Cl146	Cl	0.660370	0.499663	0.199571
Cl147	Cl	0.674141	-0.000266	0.605404
Cl148	Cl	1.174141	0.499734	1.105404
Cl149	Cl	0.197445	-0.000319	0.067573
Cl150	Cl	0.697445	0.499681	0.567573
Cl151	Cl	0.927104	0.542716	0.018525
Cl152	Cl	1.427104	1.042716	0.518525
H153	H	0.016528	-0.000357	-0.261539
H154	H	0.516528	0.499643	0.238461
H155	H	0.266343	-0.105451	-0.004569
H156	H	0.766343	0.394549	0.495431
H157	H	0.397775	-0.105417	-0.007048
H158	H	0.897775	0.394583	0.492952
H159	H	0.734979	0.244784	-0.229717
H160	H	1.234979	0.744784	0.270283
Cl161	Cl	0.714094	0.456708	-0.256728
Cl162	Cl	1.214094	0.956708	0.243272
H163	H	0.493237	-0.000258	0.025811
H164	H	0.993237	0.499742	0.525811
Cl165	Cl	0.962841	-0.000349	0.444128
Cl166	Cl	1.462841	0.499651	0.944128
H167	H	0.624680	-0.000199	0.023339
H168	H	1.124680	0.499801	0.523339
