data_functionalizedCrystal
_audit_creation_method	'MofGen! by Chris Wilmer'
_symmetry_space_group_name_H-M	'P1'
_symmetry_Int_Tables_number	1
_symmetry_cell_setting	triclinic
loop_
_symmetry_equiv_pos_as_xyz
  x,y,z
_cell_length_a	14.908780
_cell_length_b	14.908326
_cell_length_c	14.908308
_cell_angle_alpha	90.223626
_cell_angle_beta	90.212689
_cell_angle_gamma	96.408993
loop_
_atom_site_label
_atom_site_type_symbol
_atom_site_fract_x
_atom_site_fract_y
_atom_site_fract_z
Zn1	Zn	-1.328185	0.315484	-0.568648
Zn2	Zn	-0.828185	0.815484	-0.068648
Zn3	Zn	-1.329074	0.457145	-0.409659
Zn4	Zn	-0.829074	0.957145	0.090341
Zn5	Zn	-1.186551	0.314503	-0.409675
Zn6	Zn	-0.686551	0.814503	0.090325
Zn7	Zn	-1.169163	0.474410	-0.550225
Zn8	Zn	-0.669163	0.974410	-0.050225
O9	O	-1.253243	0.390385	-0.484552
O10	O	-0.753243	0.890385	0.015448
O11	O	-1.454500	0.327460	-0.555261
O12	O	-0.954500	0.827460	-0.055261
O13	O	-1.317818	0.430588	-0.284304
O14	O	-0.817818	0.930588	0.215696
O15	O	-1.212244	0.188426	-0.438480
O16	O	-0.712244	0.688426	0.061520
O17	O	-1.455154	0.431538	-0.438453
O18	O	-0.955154	0.931538	0.061547
O19	O	-1.316302	0.189146	-0.555277
O20	O	-0.816302	0.689146	-0.055277
O21	O	-1.213107	0.325789	-0.284315
O22	O	-0.713107	0.825789	0.215685
O23	O	-1.058047	0.342530	-0.420616
O24	O	-0.558047	0.842530	0.079384
O25	O	-1.182608	0.460963	-0.678027
O26	O	-0.682608	0.960963	-0.178027
O27	O	-1.045272	0.460013	-0.523878
O28	O	-0.545272	0.960013	-0.023878
O29	O	-1.299441	0.344201	-0.691562
O30	O	-0.799441	0.844201	-0.191562
O31	O	-1.300957	0.585642	-0.420589
O32	O	-0.800957	1.085642	0.079411
O33	O	-1.183471	0.598327	-0.523862
O34	O	-0.683471	1.098327	-0.023862
C35	C	-1.018938	0.403039	-0.470250
C36	C	-0.518938	0.903039	0.029750
C37	C	-0.918699	0.408475	-0.464152
C38	C	-0.418699	0.908475	0.035848
C39	C	-0.729636	0.310483	-0.574490
C40	C	-0.229636	0.810483	-0.074490
C41	C	-0.635452	0.315588	-0.568763
C42	C	-0.135452	0.815588	-0.068763
C43	C	-0.636146	0.423785	-0.446967
C44	C	-0.136146	0.923785	0.053033
C45	C	-0.730330	0.418680	-0.452694
C46	C	-0.230330	0.918680	0.047306
C47	C	-0.777071	0.362028	-0.516458
C48	C	-0.277071	0.862028	-0.016458
C49	C	-0.871257	0.356929	-0.522189
C50	C	-0.371257	0.856929	-0.022189
C51	C	-0.871949	0.465120	-0.400390
C52	C	-0.371949	0.965120	0.099610
C53	C	-0.777765	0.470225	-0.394663
C54	C	-0.277765	0.970225	0.105337
C55	C	-1.240447	0.624709	-0.470246
C56	C	-0.740447	1.124709	0.029754
C57	C	-1.235053	0.724950	-0.464160
C58	C	-0.735053	1.224950	0.035840
C59	C	-0.488464	0.377675	-0.498904
C60	C	0.011536	0.877675	0.001096
C61	C	-0.588704	0.372238	-0.505004
C62	C	-0.088704	0.872238	-0.005004
C63	C	-1.238985	0.404617	-0.718207
C64	C	-0.738985	0.904617	-0.218207
C65	C	-1.232910	0.410682	-0.817777
C66	C	-0.732910	0.910682	-0.317777
C67	C	-1.333177	0.913928	-0.574463
C68	C	-0.833177	1.413928	-0.074463
C69	C	-1.328112	1.008114	-0.568749
C70	C	-0.828112	1.508114	-0.068749
C71	C	-1.219854	1.007511	-0.447022
C72	C	-0.719854	1.507511	0.052978
C73	C	-1.224919	0.913325	-0.452736
C74	C	-0.724919	1.413325	0.047264
C75	C	-1.281583	0.866536	-0.516458
C76	C	-0.781583	1.366536	-0.016458
C77	C	-1.286653	0.772348	-0.522168
C78	C	-0.786653	1.272348	-0.022168
C79	C	-1.178390	0.771747	-0.400446
C80	C	-0.678390	1.271747	0.099554
C81	C	-1.173325	0.865934	-0.394731
C82	C	-0.673325	1.365934	0.105269
C83	C	-1.266077	1.155149	-0.498926
C84	C	-0.766077	1.655149	0.001074
C85	C	-1.271453	1.054909	-0.505029
C86	C	-0.771453	1.554909	-0.005029
C87	C	-1.343149	0.300473	-1.018977
C88	C	-0.843149	0.800473	-0.518977
C89	C	-1.337443	0.306169	-1.112532
C90	C	-0.837443	0.806169	-0.612532
C91	C	-1.215788	0.427763	-1.098445
C92	C	-0.715788	0.927763	-0.598445
C93	C	-1.221494	0.422068	-1.004890
C94	C	-0.721494	0.922068	-0.504890
C95	C	-1.285177	0.358422	-0.965159
C96	C	-0.785177	0.858422	-0.465159
C97	C	-1.290887	0.352732	-0.871602
C98	C	-0.790887	0.852732	-0.371602
C99	C	-1.169229	0.474321	-0.857517
C100	C	-0.669229	0.974321	-0.357517
C101	C	-1.163523	0.480016	-0.951072
C102	C	-0.663523	0.980016	-0.451072
C103	C	-1.267501	0.376141	-0.251813
C104	C	-0.767501	0.876141	0.248187
C105	C	-1.273766	0.369812	-0.152270
C106	C	-0.773766	0.869812	0.347730
H107	H	-0.739695	0.516346	-0.342745
H108	H	-0.239695	1.016346	0.157255
H109	H	-1.384647	0.258979	-1.156348
H110	H	-0.884647	0.758979	-0.656348
H111	H	-0.767694	0.264359	-0.626413
H112	H	-0.267694	0.764359	-0.126413
Cl113	Cl	-1.096355	0.547184	-0.789854
Cl114	Cl	-0.596355	1.047184	-0.289854
H115	H	-1.111672	0.531833	-0.983433
H116	H	-0.611672	1.031833	-0.483433
Cl117	Cl	-1.135731	0.507762	-1.148408
Cl118	Cl	-0.635731	1.007762	-0.648408
H119	H	-1.173716	1.045623	-0.395146
H120	H	-0.673716	1.545623	0.104854
Cl121	Cl	-0.930016	0.285712	-0.602350
Cl122	Cl	-0.430016	0.785712	-0.102350
Cl123	Cl	-1.392974	1.067689	-0.641675
Cl124	Cl	-0.892974	1.567689	-0.141675
Cl125	Cl	-0.575822	0.250784	-0.641718
Cl126	Cl	-0.075822	0.750784	-0.141718
Cl127	Cl	-0.577371	0.494987	-0.366803
Cl128	Cl	-0.077371	0.994987	0.133197
Cl129	Cl	-1.370947	0.272723	-0.821656
Cl130	Cl	-0.870947	0.772723	-0.321656
H131	H	-0.910580	0.507099	-0.353142
H132	H	-0.410580	1.007099	0.146858
Cl133	Cl	-1.102086	0.924763	-0.314634
Cl134	Cl	-0.602086	1.424763	0.185366
Cl135	Cl	-1.357890	0.713529	-0.602272
Cl136	Cl	-0.857890	1.213529	-0.102272
Cl137	Cl	-1.404422	0.855104	-0.654558
Cl138	Cl	-0.904422	1.355104	-0.154558
Cl139	Cl	-1.113532	0.712164	-0.327515
Cl140	Cl	-0.613532	1.212164	0.172485
Cl141	Cl	-1.423214	0.220473	-0.969027
Cl142	Cl	-0.923214	0.720473	-0.469027
