data_functionalizedCrystal
_audit_creation_method	'MofGen! by Chris Wilmer'
_symmetry_space_group_name_H-M	'P1'
_symmetry_Int_Tables_number	1
_symmetry_cell_setting	triclinic
loop_
_symmetry_equiv_pos_as_xyz
  x,y,z
_cell_length_a	21.295418
_cell_length_b	21.295417
_cell_length_c	16.120297
_cell_angle_alpha	92.870657
_cell_angle_beta	87.141709
_cell_angle_gamma	89.956327
loop_
_atom_site_label
_atom_site_type_symbol
_atom_site_fract_x
_atom_site_fract_y
_atom_site_fract_z
Zn1	Zn	0.944272	0.268428	0.471796
Zn2	Zn	1.277606	0.601761	0.805130
Zn3	Zn	1.610939	0.935095	1.138463
Zn4	Zn	0.949527	0.368357	0.332385
Zn5	Zn	1.282860	0.701690	0.665718
Zn6	Zn	1.616193	1.035024	0.999052
Zn7	Zn	0.844344	0.263134	0.332356
Zn8	Zn	1.177677	0.596467	0.665689
Zn9	Zn	1.511010	0.929800	0.999023
Zn10	Zn	0.838974	0.373689	0.471702
Zn11	Zn	1.172307	0.707022	0.805035
Zn12	Zn	1.505640	1.040355	1.138368
O13	O	0.894279	0.318402	0.402060
O14	O	1.227612	0.651735	0.735393
O15	O	1.560946	0.985069	1.068726
O16	O	1.033057	0.281668	0.453355
O17	O	1.366390	0.615001	0.786689
O18	O	1.699724	0.948335	1.120022
O19	O	0.940020	0.349952	0.215721
O20	O	1.273353	0.683286	0.549054
O21	O	1.606687	1.016619	0.882387
O22	O	0.857648	0.175748	0.350881
O23	O	1.190981	0.509081	0.684214
O24	O	1.524315	0.842414	1.017547
O25	O	1.036917	0.355086	0.350930
O26	O	1.370250	0.688419	0.684264
O27	O	1.703584	1.021752	1.017597
O28	O	0.931065	0.179637	0.453327
O29	O	1.264399	0.512971	0.786660
O30	O	1.597732	0.846304	1.119994
O31	O	0.862743	0.272645	0.215699
O32	O	1.196076	0.605978	0.549032
O33	O	1.529409	0.939312	0.882366
O34	O	0.755544	0.277815	0.350788
O35	O	1.088877	0.611148	0.684122
O36	O	1.422211	0.944481	1.017455
O37	O	0.848495	0.364172	0.588375
O38	O	1.181829	0.697506	0.921708
O39	O	1.515162	1.030839	1.255042
O40	O	0.751598	0.359039	0.453165
O41	O	1.084932	0.692372	0.786498
O42	O	1.418265	1.025706	1.119832
O43	O	0.925858	0.286838	0.588445
O44	O	1.259191	0.620171	0.921778
O45	O	1.592525	0.953504	1.255111
O46	O	0.934813	0.457153	0.350838
O47	O	1.268146	0.790486	0.684172
O48	O	1.601480	1.123819	1.017505
O49	O	0.853590	0.461070	0.453193
O50	O	1.186923	0.794403	0.786527
O51	O	1.520257	1.127736	1.119860
C52	C	0.730731	0.318431	0.401964
C53	C	1.064064	0.651765	0.735297
C54	C	1.397398	0.985098	1.068630
C55	C	0.660764	0.318460	0.401943
C56	C	0.994097	0.651793	0.735276
C57	C	1.327430	0.985126	1.068609
C58	C	0.625862	0.360803	0.455170
C59	C	0.959196	0.694137	0.788504
C60	C	1.292529	1.027470	1.121837
C61	C	0.560118	0.360789	0.455208
C62	C	0.893452	0.694123	0.788541
C63	C	1.226785	1.027456	1.121874
C64	C	0.529279	0.318438	0.402002
C65	C	0.862612	0.651771	0.735336
C66	C	1.195946	0.985104	1.068669
C67	C	0.564189	0.276086	0.348771
C68	C	0.897522	0.609419	0.682104
C69	C	1.230855	0.942753	1.015438
C70	C	0.629931	0.276097	0.348741
C71	C	0.963264	0.609430	0.682074
C72	C	1.296598	0.942764	1.015408
N73	N	0.428799	0.310727	0.329087
N74	N	0.762133	0.644060	0.662420
N75	N	1.095466	0.977393	0.995754
N76	N	0.366347	0.310720	0.329118
N77	N	0.699680	0.644053	0.662451
N78	N	1.033013	0.977387	0.995784
C79	C	0.331201	0.318401	0.402091
C80	C	0.664534	0.651734	0.735424
C81	C	0.997868	0.985068	1.068758
N82	N	0.360867	0.326101	0.475034
N83	N	0.694200	0.659434	0.808367
N84	N	1.027534	0.992768	1.141700
N85	N	0.423325	0.326111	0.475002
N86	N	0.756659	0.659444	0.808335
N87	N	1.089992	0.992778	1.141669
C88	C	0.457993	0.318421	0.402029
C89	C	0.791326	0.651754	0.735363
C90	C	1.124659	0.985087	1.068696
C91	C	0.225012	0.360732	0.455364
C92	C	0.558346	0.694065	0.788697
C93	C	0.891679	1.027398	1.122031
C94	C	0.159267	0.360713	0.455403
C95	C	0.492600	0.694047	0.788736
C96	C	0.825934	1.027380	1.122069
C97	C	0.163339	0.276013	0.348958
C98	C	0.496672	0.609346	0.682292
C99	C	0.830005	0.942680	1.015625
C100	C	0.229082	0.276028	0.348927
C101	C	0.562416	0.609362	0.682260
C102	C	0.895749	0.942695	1.015594
C103	C	0.259915	0.318391	0.402129
C104	C	0.593249	0.651724	0.735462
C105	C	0.926582	0.985058	1.068795
C106	C	0.894205	0.481952	0.402027
C107	C	1.227539	0.815286	0.735360
C108	C	1.560872	1.148619	1.068694
C109	C	0.894230	0.551921	0.402041
C110	C	1.227564	0.885254	0.735374
C111	C	1.560897	1.218588	1.068707
C112	C	0.936711	1.049325	0.348929
C113	C	1.270044	1.382659	0.682262
C114	C	1.603377	1.715992	1.015596
C115	C	0.936688	0.983582	0.348907
C116	C	1.270021	1.316915	0.682240
C117	C	1.603355	1.650249	1.015573
C118	C	0.894359	0.952764	0.402145
C119	C	1.227693	1.286098	0.735479
C120	C	1.561026	1.619431	1.068812
C121	C	0.852039	0.987695	0.455395
C122	C	1.185372	1.321028	0.788728
C123	C	1.518706	1.654361	1.122062
C124	C	0.852059	1.053437	0.455410
C125	C	1.185392	1.386770	0.788744
C126	C	1.518725	1.720103	1.122077
N127	N	0.886674	0.852307	0.475087
N128	N	1.220007	1.185641	0.808421
N129	N	1.553340	1.518974	1.141754
N130	N	0.886659	0.789855	0.475071
N131	N	1.219992	1.123189	0.808404
N132	N	1.553325	1.456522	1.141737
C133	C	0.894297	0.754688	0.402102
C134	C	1.227630	1.088021	0.735435
C135	C	1.560964	1.421355	1.068768
N136	N	0.901963	0.784332	0.329148
N137	N	1.235296	1.117665	0.662482
N138	N	1.568630	1.450998	0.995815
N139	N	0.901981	0.846789	0.329166
N140	N	1.235314	1.180123	0.662499
N141	N	1.568648	1.513456	0.995833
C142	C	0.894333	0.881478	0.402134
C143	C	1.227667	1.214812	0.735468
C144	C	1.561000	1.548145	1.068801
C145	C	0.936587	0.648479	0.348827
C146	C	1.269921	0.981812	0.682160
C147	C	1.603254	1.315145	1.015493
C148	C	0.936560	0.582734	0.348803
C149	C	1.269894	0.916067	0.682136
C150	C	1.603227	1.249401	1.015469
C151	C	0.851914	0.586849	0.455299
C152	C	1.185248	0.920182	0.788632
C153	C	1.518581	1.253515	1.121965
C154	C	0.851938	0.652592	0.455315
C155	C	1.185271	0.985925	0.788648
C156	C	1.518605	1.319258	1.121982
C157	C	0.894278	0.683403	0.402080
C158	C	1.227611	1.016736	0.735414
C159	C	1.560945	1.350069	1.068747
C160	C	1.058466	0.318373	0.402157
C161	C	1.391799	0.651706	0.735490
C162	C	1.725132	0.985039	1.068823
C163	C	1.128432	0.318360	0.402198
C164	C	1.461766	0.651694	0.735531
C165	C	1.795099	0.985027	1.068865
C166	C	0.885992	0.326690	0.619504
C167	C	1.219325	0.660024	0.952838
C168	C	1.552658	0.993357	1.286171
C169	C	0.882460	0.330222	0.712166
C170	C	1.215793	0.663556	1.045500
C171	C	1.549127	0.996889	1.378833
C172	C	0.894367	1.154214	0.402122
C173	C	1.227700	1.487547	0.735455
C174	C	1.561034	1.820881	1.068788
C175	C	0.894398	1.084248	0.402175
C176	C	1.227732	1.417581	0.735509
C177	C	1.561065	1.750914	1.068842
C178	C	0.902570	0.310100	0.185461
C179	C	1.235904	0.643433	0.518794
C180	C	1.569237	0.976767	0.852128
C181	C	0.906224	0.306391	0.092800
C182	C	1.239557	0.639724	0.426133
C183	C	1.572891	0.973057	0.759466
C184	C	0.875989	0.336657	0.881821
C185	C	1.209322	0.669990	1.215154
C186	C	1.542656	1.003324	1.548487
C187	C	0.912693	0.299958	0.923151
C188	C	1.246026	0.633291	1.256484
C189	C	1.579360	0.966625	1.589817
C190	C	0.909093	0.303538	1.017552
C191	C	1.242426	0.636872	1.350886
C192	C	1.575759	0.970205	1.684219
C193	C	0.879589	0.333078	0.787411
C194	C	1.212922	0.666411	1.120744
C195	C	1.546255	0.999744	1.454077
H196	H	0.250117	0.395223	0.498688
H197	H	0.583451	0.728556	0.832021
H198	H	0.916784	1.061889	1.165355
H199	H	0.817485	0.681026	0.498676
H200	H	1.150818	1.014360	0.832010
H201	H	1.484151	1.347693	1.165343
Br202	Br	0.794457	0.545031	0.527539
Br203	Br	1.127790	0.878365	0.860872
Br204	Br	1.461123	1.211698	1.194205
Br205	Br	0.969590	0.243123	0.863963
Br206	Br	1.302923	0.576456	1.197296
Br207	Br	1.636256	0.909789	1.530630
Br208	Br	0.276452	0.218559	0.276685
Br209	Br	0.609786	0.551892	0.610018
Br210	Br	0.943119	0.885225	0.943351
H211	H	0.650962	0.395298	0.498492
H212	H	0.984295	0.728631	0.831826
H213	H	1.317629	1.061964	1.165159
H214	H	0.658348	0.241614	0.305396
H215	H	0.991681	0.574947	0.638730
H216	H	1.325014	0.908280	0.972063
H217	H	0.138230	0.241526	0.305642
H218	H	0.471563	0.574860	0.638975
H219	H	0.804897	0.908193	0.972308
Br220	Br	0.512742	0.418259	0.527452
Br221	Br	0.846075	0.751592	0.860786
Br222	Br	1.179408	1.084925	1.194119
Br223	Br	0.111899	0.418180	0.527654
Br224	Br	0.445232	0.751513	0.860988
Br225	Br	0.778565	1.084846	1.194321
Br226	Br	0.522337	0.218603	0.276570
Br227	Br	0.855670	0.551937	0.609903
Br228	Br	1.189004	0.885270	0.943237
Br229	Br	0.994170	1.091138	0.276681
Br230	Br	1.327504	1.424471	0.610014
Br231	Br	1.660837	1.757804	0.943347
H232	H	0.971145	0.955143	0.305545
H233	H	1.304478	1.288476	0.638879
H234	H	1.637812	1.621809	0.972212
Br235	Br	0.794589	0.945873	0.527644
Br236	Br	1.127922	1.279206	0.860977
Br237	Br	1.461256	1.612539	1.194310
H238	H	0.817603	1.081871	0.498773
H239	H	1.150936	1.415204	0.832106
H240	H	1.484270	1.748537	1.165439
Br241	Br	0.994044	0.690298	0.276577
Br242	Br	1.327377	1.023631	0.609911
Br243	Br	1.660710	1.356964	0.943244
H244	H	0.841865	0.370763	0.917332
H245	H	1.175198	0.704096	1.250666
H246	H	1.508532	1.037429	1.583999
H247	H	0.971014	0.554299	0.305438
H248	H	1.304347	0.887632	0.638772
H249	H	1.637681	1.220966	0.972105
