data_functionalizedCrystal
_audit_creation_method	'MofGen! by Chris Wilmer'
_symmetry_space_group_name_H-M	'P1'
_symmetry_Int_Tables_number	1
_symmetry_cell_setting	triclinic
loop_
_symmetry_equiv_pos_as_xyz
  x,y,z
_cell_length_a	12.827892
_cell_length_b	12.759401
_cell_length_c	12.759387
_cell_angle_alpha	89.963213
_cell_angle_beta	89.938948
_cell_angle_gamma	90.019665
loop_
_atom_site_label
_atom_site_type_symbol
_atom_site_fract_x
_atom_site_fract_y
_atom_site_fract_z
Zn1	Zn	-0.415541	1.606460	-0.593933
Zn2	Zn	0.084459	2.106460	-0.093933
Zn3	Zn	-0.590414	1.606290	-0.418255
Zn4	Zn	-0.090414	2.106290	0.081745
Zn5	Zn	-0.415700	1.430700	-0.418278
Zn6	Zn	0.084300	1.930700	0.081722
Zn7	Zn	-0.590254	1.430749	-0.593902
Zn8	Zn	-0.090254	1.930749	-0.093902
O9	O	-0.502977	1.518550	-0.506092
O10	O	-0.002977	2.018550	-0.006092
O11	O	-0.438738	1.753459	-0.570632
O12	O	0.061262	2.253459	-0.070632
O13	O	-0.567371	1.582907	-0.271237
O14	O	-0.067371	2.082907	0.228763
O15	O	-0.269443	1.454066	-0.441601
O16	O	0.230557	1.954066	0.058399
O17	O	-0.567217	1.753334	-0.441562
O18	O	-0.067217	2.253334	0.058438
O19	O	-0.269326	1.583196	-0.570654
O20	O	0.230674	2.083196	-0.070654
O21	O	-0.439010	1.453901	-0.271253
O22	O	0.060990	1.953901	0.228747
O23	O	-0.438855	1.283686	-0.441572
O24	O	0.061145	1.783686	0.058428
O25	O	-0.566944	1.454149	-0.740928
O26	O	-0.066944	1.954149	-0.240928
O27	O	-0.567098	1.283721	-0.570602
O28	O	-0.067098	1.783721	-0.070602
O29	O	-0.438583	1.583243	-0.740950
O30	O	0.061417	2.083243	-0.240950
O31	O	-0.736628	1.582954	-0.441532
O32	O	-0.236628	2.082954	0.058468
O33	O	-0.736511	1.453984	-0.570580
O34	O	-0.236511	1.953984	-0.070580
C35	C	-0.774487	1.518484	-0.506073
C36	C	-0.274487	2.018484	-0.006073
C37	C	-0.890640	1.518552	-0.506101
C38	C	-0.390640	2.018552	-0.006101
C39	C	-0.502977	1.245583	-0.506087
C40	C	-0.002977	1.745583	-0.006087
C41	C	-0.503003	1.128806	-0.506110
C42	C	-0.003003	1.628806	-0.006110
C43	C	-0.502728	1.518720	-0.780126
C44	C	-0.002728	2.018720	-0.280126
C45	C	-0.502622	1.518793	-0.896902
C46	C	-0.002622	2.018793	-0.396902
C47	C	-0.942448	1.582446	-0.442315
C48	C	-0.442448	2.082446	0.057685
C49	C	-1.062499	1.582518	-0.442341
C50	C	-0.562499	2.082518	0.057659
C51	C	-0.230407	1.518644	-0.506133
C52	C	0.269593	2.018644	-0.006133
C53	C	-0.114254	1.518685	-0.506151
C54	C	0.385746	2.018685	-0.006151
C55	C	-0.502978	1.792583	-0.506097
C56	C	-0.002978	2.292583	-0.006097
C57	C	-0.502978	1.909360	-0.506100
C58	C	-0.002978	2.409360	-0.006100
C59	C	-0.436090	1.964288	-0.573299
C60	C	0.063910	2.464288	-0.073299
C61	C	-0.436105	2.074012	-0.573307
C62	C	0.063895	2.574012	-0.073307
C63	C	-0.569897	2.073870	-0.438908
C64	C	-0.069897	2.573870	0.061092
C65	C	-0.569887	1.964148	-0.438906
C66	C	-0.069887	2.464148	0.061094
C67	C	-0.503150	1.518441	-0.233124
C68	C	-0.003150	2.018441	0.266876
C69	C	-0.502962	1.518571	-0.116348
C70	C	-0.002962	2.018571	0.383652
C71	C	-0.435394	1.585460	0.047952
C72	C	0.064606	2.085460	0.547952
C73	C	-0.435561	1.585347	-0.061771
C74	C	0.064439	2.085347	0.438229
C75	C	-0.570192	1.451897	-0.061195
C76	C	-0.070192	1.951897	0.438805
C77	C	-0.570019	1.452005	0.048527
C78	C	-0.070019	1.952005	0.548527
H79	H	-0.897929	1.637100	-0.387688
H80	H	-0.397929	2.137100	0.112312
H81	H	-0.625067	1.397523	-0.105640
H82	H	-0.125067	1.897523	0.394360
C83	C	-1.054806	1.445914	-0.579105
C84	C	-0.554806	1.945914	-0.079105
C85	C	-0.992022	1.505412	-0.646439
C86	C	-0.492022	2.005412	-0.146439
C87	C	-0.937245	1.438414	-0.713667
C88	C	-0.437245	1.938414	-0.213667
H89	H	-1.012236	1.400137	-0.538952
H90	H	-0.512236	1.900137	-0.038952
H91	H	-1.102816	1.405894	-0.619205
H92	H	-0.602816	1.905894	-0.119205
H93	H	-0.944017	1.545414	-0.606343
H94	H	-0.444017	2.045414	-0.106343
H95	H	-1.034566	1.551187	-0.686615
H96	H	-0.534566	2.051187	-0.186615
H97	H	-0.985255	1.398394	-0.753767
H98	H	-0.485255	1.898394	-0.253767
H99	H	-0.894681	1.392640	-0.673505
H100	H	-0.394681	1.892640	-0.173505
H101	H	-0.894647	1.478773	-0.759367
H102	H	-0.394647	1.978773	-0.259367
H103	H	-0.380512	1.639840	0.092381
H104	H	0.119488	2.139840	0.592381
C105	C	-0.642475	1.904313	-0.366059
C106	C	-0.142475	2.404313	0.133941
C107	C	-0.628166	1.796498	-0.380465
C108	C	-0.128166	2.296498	0.119535
C109	C	-0.695026	1.741345	-0.313395
C110	C	-0.195026	2.241345	0.186605
H111	H	-0.627320	1.922125	-0.295425
H112	H	-0.127320	2.422125	0.204575
H113	H	-0.712698	1.922214	-0.381440
H114	H	-0.212698	2.422214	0.118560
H115	H	-0.557959	1.778604	-0.365076
H116	H	-0.057959	2.278604	0.134924
H117	H	-0.643329	1.778654	-0.451085
H118	H	-0.143329	2.278654	0.048915
H119	H	-0.765249	1.759246	-0.328776
H120	H	-0.265249	2.259246	0.171224
H121	H	-0.679865	1.759166	-0.242766
H122	H	-0.179865	2.259166	0.257234
H123	H	-0.685334	1.668187	-0.323167
H124	H	-0.185334	2.168187	0.176833
H125	H	-0.935162	1.463907	-0.560734
H126	H	-0.435162	1.963907	-0.060734
C127	C	-0.363627	1.904668	-0.646319
C128	C	0.136373	2.404668	-0.146319
C129	C	-0.422730	1.841673	-0.713629
C130	C	0.077270	2.341673	-0.213629
C131	C	-0.356013	1.786729	-0.780905
C132	C	0.143987	2.286729	-0.280905
H133	H	-0.323771	1.952980	-0.686443
H134	H	0.176229	2.452980	-0.186443
H135	H	-0.318142	1.861800	-0.606166
H136	H	0.181858	2.361800	-0.106166
H137	H	-0.468197	1.884538	-0.753779
H138	H	0.031803	2.384538	-0.253779
H139	H	-0.462583	1.793343	-0.673534
H140	H	0.037417	2.293343	-0.173534
H141	H	-0.310528	1.743861	-0.740752
H142	H	0.189472	2.243861	-0.240752
H143	H	-0.316161	1.835048	-0.821022
H144	H	0.183839	2.335048	-0.321022
H145	H	-0.396104	1.743973	-0.826576
H146	H	0.103896	2.243973	-0.326576
C147	C	-0.362532	1.657848	-0.121454
C148	C	0.137468	2.157848	0.378546
C149	C	-0.303493	1.716375	-0.050174
C150	C	0.196507	2.216375	0.449826
C151	C	-0.236213	1.783185	-0.105115
C152	C	0.263787	2.283185	0.394885
H153	H	-0.317261	1.617418	-0.164313
H154	H	0.182739	2.117418	0.335687
H155	H	-0.402219	1.703914	-0.164206
H156	H	0.097781	2.203914	0.335794
H157	H	-0.263808	1.670314	-0.007440
H158	H	0.236192	2.170314	0.492560
H159	H	-0.348736	1.756825	-0.007313
H160	H	0.151264	2.256825	0.492687
H161	H	-0.275901	1.829251	-0.147866
H162	H	0.224099	2.329251	0.352134
H163	H	-0.190950	1.742747	-0.147972
H164	H	0.309050	2.242747	0.352028
H165	H	-0.196155	1.822910	-0.056760
H166	H	0.303845	2.322910	0.443240
H167	H	-0.624371	2.118491	-0.384199
H168	H	-0.124371	2.618491	0.115801
C169	C	-0.643132	1.379581	0.108218
C170	C	-0.143132	1.879581	0.608218
C171	C	-0.702219	1.321095	0.036946
C172	C	-0.202219	1.821095	0.536946
C173	C	-0.769584	1.254379	0.091895
C174	C	-0.269584	1.754379	0.591895
H175	H	-0.603537	1.333479	0.150994
H176	H	-0.103537	1.833479	0.650994
H177	H	-0.688359	1.420109	0.151053
H178	H	-0.188359	1.920109	0.651053
H179	H	-0.656997	1.280571	-0.005871
H180	H	-0.156997	1.780571	0.494129
H181	H	-0.741835	1.367170	-0.005833
H182	H	-0.241835	1.867170	0.494167
H183	H	-0.814811	1.294907	0.134730
H184	H	-0.314811	1.794907	0.634730
H185	H	-0.729980	1.208284	0.134669
H186	H	-0.229980	1.708284	0.634669
H187	H	-0.809689	1.214696	0.043545
H188	H	-0.309689	1.714696	0.543545
H189	H	-1.107052	1.637217	-0.387729
H190	H	-0.607052	2.137217	0.112271
H191	H	-0.381640	2.118730	-0.628027
H192	H	0.118360	2.618730	-0.128027
