data_functionalizedCrystal
_audit_creation_method	'MofGen! by Chris Wilmer'
_symmetry_space_group_name_H-M	'P1'
_symmetry_Int_Tables_number	1
_symmetry_cell_setting	triclinic
loop_
_symmetry_equiv_pos_as_xyz
  x,y,z
_cell_length_a	12.759401
_cell_length_b	25.639234
_cell_length_c	25.639239
_cell_angle_alpha	89.975095
_cell_angle_beta	90.038698
_cell_angle_gamma	89.981665
loop_
_atom_site_label
_atom_site_type_symbol
_atom_site_fract_x
_atom_site_fract_y
_atom_site_fract_z
Zn1	Zn	1.606069	-0.295589	-0.208182
Zn2	Zn	2.106069	0.204411	0.291818
Zn3	Zn	1.605893	-0.208153	-0.295611
Zn4	Zn	2.105893	0.291847	0.204389
Zn5	Zn	1.430374	-0.208169	-0.208191
Zn6	Zn	1.930374	0.291831	0.291809
Zn7	Zn	1.430286	-0.295560	-0.295589
Zn8	Zn	1.930286	0.204440	0.204411
O9	O	1.518155	-0.251868	-0.251893
O10	O	2.018155	0.248132	0.248107
O11	O	1.753066	-0.283995	-0.219786
O12	O	2.253066	0.216005	0.280214
O13	O	1.582573	-0.134990	-0.284027
O14	O	2.082573	0.365010	0.215973
O15	O	1.453791	-0.219785	-0.135025
O16	O	1.953791	0.280215	0.364975
O17	O	1.752937	-0.219757	-0.284019
O18	O	2.252937	0.280243	0.215981
O19	O	1.582873	-0.284011	-0.135018
O20	O	2.082873	0.215989	0.364982
O21	O	1.453620	-0.135002	-0.219800
O22	O	1.953620	0.364998	0.280200
O23	O	1.283341	-0.219757	-0.219779
O24	O	1.783341	0.280243	0.280221
O25	O	1.453641	-0.368729	-0.283981
O26	O	1.953641	0.131271	0.216019
O27	O	1.283277	-0.283962	-0.283990
O28	O	1.783277	0.216038	0.216010
O29	O	1.582787	-0.368750	-0.219764
O30	O	2.082787	0.131250	0.280236
O31	O	1.582488	-0.219729	-0.368773
O32	O	2.082488	0.280271	0.131227
O33	O	1.453470	-0.283946	-0.368757
O34	O	1.953470	0.216054	0.131243
C35	C	1.245188	-0.251858	-0.251883
C36	C	1.745188	0.248142	0.248117
C37	C	1.128411	-0.251867	-0.251892
C38	C	1.628411	0.248133	0.248108
C39	C	1.518224	-0.388241	-0.251869
C40	C	2.018224	0.111759	0.248131
C41	C	1.518253	-0.446355	-0.251859
C42	C	2.018253	0.053645	0.248141
C43	C	0.963818	-0.285255	-0.285385
C44	C	1.463818	0.214745	0.214615
C45	C	1.073542	-0.285246	-0.285379
C46	C	1.573542	0.214754	0.214621
C47	C	1.073551	-0.218490	-0.218413
C48	C	1.573551	0.281510	0.281587
C49	C	0.963829	-0.218496	-0.218423
C50	C	1.463829	0.281504	0.281577
C51	C	0.908955	-0.318640	-0.318871
C52	C	1.408955	0.181360	0.181129
C53	C	0.963808	-0.352017	-0.352350
C54	C	1.463808	0.147983	0.147650
C55	C	1.073532	-0.352008	-0.352344
C56	C	1.573532	0.147992	0.147656
C57	C	1.128403	-0.318623	-0.318857
C58	C	1.628403	0.181377	0.181143
C59	C	1.451137	-0.806730	-0.218354
C60	C	1.951137	-0.306730	0.281646
C61	C	1.451142	-0.861334	-0.218345
C62	C	1.951142	-0.361334	0.281655
O63	O	1.394025	-0.889581	-0.189915
O64	O	1.894025	-0.389581	0.310085
N65	N	1.518288	-0.888637	-0.251777
N66	N	2.018288	-0.388637	0.248223
C67	C	1.585424	-0.861334	-0.285225
C68	C	2.085424	-0.361334	0.214775
O69	O	1.642537	-0.889571	-0.313662
O70	O	2.142537	-0.389571	0.186338
C71	C	1.585413	-0.806730	-0.285237
C72	C	2.085413	-0.306730	0.214763
C73	C	1.518270	-0.779430	-0.251798
C74	C	2.018270	-0.279430	0.248202
C75	C	1.383999	-0.779429	-0.184919
C76	C	1.883999	-0.279429	0.315081
C77	C	1.383995	-0.724829	-0.184928
C78	C	1.883995	-0.224829	0.315072
C79	C	1.451129	-0.697529	-0.218372
C80	C	1.951129	-0.197529	0.281628
C81	C	1.518266	-0.724829	-0.251807
C82	C	2.018266	-0.224829	0.248193
C83	C	1.652543	-0.779427	-0.318687
C84	C	2.152543	-0.279427	0.181313
C85	C	1.652525	-0.724820	-0.318696
C86	C	2.152525	-0.224820	0.181304
C87	C	1.585383	-0.697520	-0.285258
C88	C	2.085383	-0.197520	0.214742
C89	C	1.585396	-0.642929	-0.285261
C90	C	2.085396	-0.142929	0.214739
N91	N	1.518251	-0.615625	-0.251828
N92	N	2.018251	-0.115625	0.248172
C93	C	1.451117	-0.642925	-0.218384
C94	C	1.951117	-0.142925	0.281616
C95	C	1.585443	-0.976004	-0.285199
C96	C	2.085443	-0.476004	0.214801
C97	C	1.585461	-1.030607	-0.285185
C98	C	2.085461	-0.530607	0.214815
C99	C	1.451177	-1.030603	-0.218305
C100	C	1.951177	-0.530603	0.281695
C101	C	1.451165	-0.976000	-0.218316
C102	C	1.951165	-0.476000	0.281684
C103	C	1.518297	-0.948701	-0.251766
C104	C	2.018297	-0.448701	0.248234
C105	C	1.451114	-0.528260	-0.218405
C106	C	1.951114	-0.028260	0.281595
C107	C	1.451119	-0.473655	-0.218415
C108	C	1.951119	0.026345	0.281585
C109	C	1.585399	-0.473663	-0.285297
C110	C	2.085399	0.026337	0.214703
C111	C	1.585398	-0.528263	-0.285285
C112	C	2.085398	-0.028263	0.214715
C113	C	1.518247	-0.555561	-0.251837
C114	C	2.018247	-0.055561	0.248163
O115	O	1.642482	-0.614647	-0.313677
O116	O	2.142482	-0.114647	0.186323
O117	O	1.394004	-0.614681	-0.189957
O118	O	1.894004	-0.114681	0.310043
C119	C	1.792189	-0.251877	-0.251904
C120	C	2.292189	0.248123	0.248096
C121	C	1.908965	-0.251881	-0.251908
C122	C	2.408965	0.248119	0.248092
C123	C	1.517979	-0.251844	-0.387736
C124	C	2.017979	0.248156	0.112264
C125	C	1.517999	-0.251851	-0.445850
C126	C	2.017999	0.248149	0.054150
C127	C	1.518148	-0.116025	-0.251879
C128	C	2.018148	0.383975	0.248121
C129	C	1.518322	-0.057911	-0.251742
C130	C	2.018322	0.442089	0.248258
C131	C	1.585510	-0.218487	-0.806209
C132	C	2.085510	0.281513	-0.306209
C133	C	1.585551	-0.218494	-0.860813
C134	C	2.085551	0.281506	-0.360813
O135	O	1.642768	-0.190100	-0.889046
O136	O	2.142768	0.309900	-0.389046
N137	N	1.518340	-0.251902	-0.888132
N138	N	2.018340	0.248098	-0.388132
C139	C	1.451092	-0.285310	-0.860844
C140	C	1.951092	0.214690	-0.360844
O141	O	1.393928	-0.313728	-0.889096
O142	O	1.893928	0.186272	-0.389096
C143	C	1.451057	-0.285305	-0.806241
C144	C	1.951057	0.214695	-0.306241
C145	C	1.518265	-0.251891	-0.778925
C146	C	2.018265	0.248109	-0.278925
C147	C	1.652713	-0.185075	-0.778892
C148	C	2.152713	0.314925	-0.278892
C149	C	1.652671	-0.185068	-0.724292
C150	C	2.152671	0.314932	-0.224292
C151	C	1.585426	-0.218472	-0.697008
C152	C	2.085426	0.281528	-0.197008
C153	C	1.518222	-0.251883	-0.724324
C154	C	2.018222	0.248117	-0.224324
C155	C	1.383815	-0.318715	-0.778954
C156	C	1.883815	0.181285	-0.278954
C157	C	1.383786	-0.318708	-0.724347
C158	C	1.883786	0.181292	-0.224347
C159	C	1.450994	-0.285293	-0.697031
C160	C	1.950994	0.214707	-0.197031
C161	C	1.450934	-0.285279	-0.642440
C162	C	1.950934	0.214721	-0.142440
N163	N	1.518145	-0.251871	-0.615120
N164	N	2.018145	0.248129	-0.115120
C165	C	1.585391	-0.218467	-0.642404
C166	C	2.085391	0.281533	-0.142404
C167	C	1.451171	-0.285318	-0.975515
C168	C	1.951171	0.214682	-0.475515
C169	C	1.451199	-0.285320	-1.030117
C170	C	1.951199	0.214680	-0.530117
C171	C	1.585660	-0.218505	-1.030082
C172	C	2.085660	0.281495	-0.530082
C173	C	1.585626	-0.218500	-0.975479
C174	C	2.085626	0.281500	-0.475479
C175	C	1.518382	-0.251909	-0.948196
C176	C	2.018382	0.248091	-0.448196
C177	C	1.585296	-0.218453	-0.527739
C178	C	2.085296	0.281547	-0.027739
C179	C	1.585245	-0.218447	-0.473134
C180	C	2.085245	0.281553	0.026866
C181	C	1.450788	-0.285264	-0.473174
C182	C	1.950788	0.214736	0.026826
C183	C	1.450835	-0.285269	-0.527774
C184	C	1.950835	0.214731	-0.027774
C185	C	1.518098	-0.251861	-0.555056
C186	C	2.018098	0.248139	-0.055056
O187	O	1.393750	-0.313660	-0.614172
O188	O	1.893750	0.186340	-0.114172
O189	O	1.642555	-0.190059	-0.614147
O190	O	2.142555	0.309941	-0.114147
C191	C	1.518361	-0.251903	-0.115520
C192	C	2.018361	0.248097	0.384480
C193	C	1.518449	-0.251918	-0.057406
C194	C	2.018449	0.248082	0.442594
H195	H	0.819612	-0.318652	-0.318879
H196	H	1.319612	0.181348	0.181121
H197	H	1.396112	-0.312479	-0.550017
H198	H	1.896112	0.187521	-0.050017
H199	H	0.919166	-0.191323	-0.191160
H200	H	1.419166	0.308677	0.308840
C201	C	1.726717	-0.211259	-0.589052
C202	C	2.226717	0.288741	-0.089052
C203	C	1.659248	-0.181735	-0.557715
C204	C	2.159248	0.318265	-0.057715
H205	H	1.772376	-0.188590	-0.607553
H206	H	2.272376	0.311410	-0.107553
H207	H	1.686706	-0.231145	-0.613144
H208	H	2.186706	0.268855	-0.113144
H209	H	1.766838	-0.234058	-0.567708
H210	H	2.266838	0.265942	-0.067708
H211	H	1.619121	-0.158938	-0.579060
H212	H	2.119121	0.341062	-0.079060
H213	H	1.699263	-0.161839	-0.533621
H214	H	2.199263	0.338161	-0.033621
C215	C	1.332577	-0.407233	-0.795724
C216	C	1.832577	0.092767	-0.295724
C217	C	1.309944	-0.355451	-0.808970
C218	C	1.809944	0.144549	-0.308970
H219	H	1.286974	-0.429914	-0.814256
H220	H	1.786974	0.070086	-0.314256
H221	H	1.322938	-0.411999	-0.759302
H222	H	1.822938	0.088001	-0.259302
H223	H	1.403168	-0.414906	-0.804638
H224	H	1.903168	0.085094	-0.304638
H225	H	1.239355	-0.347776	-0.800052
H226	H	1.739355	0.152224	-0.300052
H227	H	1.319574	-0.350682	-0.845400
H228	H	1.819574	0.149318	-0.345400
H229	H	1.396404	-0.312522	-0.953304
H230	H	1.896404	0.187478	-0.453304
H231	H	1.396444	-0.451429	-0.191183
H232	H	1.896444	0.048571	0.308817
C233	C	0.795607	-0.381675	-0.382093
C234	C	1.295607	0.118325	0.117907
C235	C	0.903498	-0.388712	-0.389158
C236	C	1.403498	0.111288	0.110842
H237	H	0.758378	-0.404332	-0.404816
H238	H	1.258378	0.095668	0.095184
H239	H	0.777588	-0.346537	-0.389700
H240	H	1.277588	0.153463	0.110300
H241	H	0.777683	-0.389391	-0.346974
H242	H	1.277683	0.110609	0.153026
H243	H	0.921424	-0.380991	-0.424276
H244	H	1.421424	0.119009	0.075724
H245	H	0.921524	-0.423857	-0.381554
H246	H	1.421524	0.076143	0.118446
H247	H	1.707400	-0.157860	-0.702054
H248	H	2.207400	0.342140	-0.202054
C249	C	1.391051	-0.314920	-0.389481
C250	C	1.891051	0.185080	0.110519
C251	C	1.376879	-0.321984	-0.443176
C252	C	1.876879	0.178016	0.056824
H253	H	1.345430	-0.337594	-0.370962
H254	H	1.845430	0.162406	0.129038
H255	H	1.375698	-0.279787	-0.380564
H256	H	1.875698	0.220213	0.119436
H257	H	1.461634	-0.322597	-0.380502
H258	H	1.961634	0.177403	0.119498
H259	H	1.306297	-0.314302	-0.452156
H260	H	1.806297	0.185698	0.047844
H261	H	1.392224	-0.357124	-0.452096
H262	H	1.892224	0.142876	0.047904
H263	H	1.217748	-0.318616	-0.318857
H264	H	1.717748	0.181384	0.181143
H265	H	1.118190	-0.379181	-0.379608
H266	H	1.618190	0.120819	0.120392
H267	H	1.329316	-0.702605	-0.157700
H268	H	1.829316	-0.202605	0.342300
H269	H	1.396434	-0.550479	-0.191168
H270	H	1.896434	-0.050479	0.308832
C271	C	1.436647	-0.914613	-0.147994
C272	C	1.936647	-0.414613	0.352006
C273	C	1.377353	-0.945995	-0.181563
C274	C	1.877353	-0.445995	0.318437
H275	H	1.391073	-0.896094	-0.125302
H276	H	1.891073	-0.396094	0.374698
H277	H	1.476610	-0.890536	-0.167913
H278	H	1.976610	-0.390536	0.332087
H279	H	1.482458	-0.935927	-0.127995
H280	H	1.982458	-0.435927	0.372005
H281	H	1.331547	-0.924680	-0.201565
H282	H	1.831547	-0.424680	0.298435
H283	H	1.337373	-0.970074	-0.161642
H284	H	1.837373	-0.470074	0.338358
C285	C	1.636413	-0.456829	-0.373836
C286	C	2.136413	0.043171	0.126164
C287	C	1.659181	-0.443647	-0.322062
C288	C	2.159181	0.056353	0.177938
H289	H	1.681962	-0.438298	-0.396535
H290	H	2.181962	0.061702	0.103465
H291	H	1.565812	-0.447873	-0.381475
H292	H	2.065812	0.052127	0.118525
H293	H	1.646041	-0.493255	-0.378611
H294	H	2.146041	0.006745	0.121389
H295	H	1.649545	-0.407220	-0.317285
H296	H	2.149545	0.092780	0.182715
H297	H	1.729798	-0.452599	-0.314420
H298	H	2.229798	0.047401	0.185580
H299	H	1.329325	-0.801651	-0.157684
H300	H	1.829325	-0.301651	0.342316
C301	C	1.391547	-1.114310	-0.188611
C302	C	1.891547	-0.614310	0.311389
C303	C	1.377361	-1.060619	-0.181550
C304	C	1.877361	-0.560619	0.318450
H305	H	1.345971	-1.132840	-0.165925
H306	H	1.845971	-0.632840	0.334075
H307	H	1.462139	-1.123267	-0.180952
H308	H	1.962139	-0.623267	0.319048
H309	H	1.376134	-1.123236	-0.223743
H310	H	1.876134	-0.623236	0.276257
H311	H	1.392781	-1.051692	-0.146419
H312	H	1.892781	-0.551692	0.353581
H313	H	1.306753	-1.051658	-0.189205
H314	H	1.806753	-0.551658	0.310795
H315	H	1.118236	-0.191310	-0.191149
H316	H	1.618236	0.308690	0.308851
C317	C	1.718190	-1.025111	-0.351293
C318	C	2.218190	-0.525111	0.148707
C319	C	1.659272	-1.060612	-0.321938
C320	C	2.159272	-0.560612	0.178062
H321	H	1.763751	-1.043635	-0.373987
H322	H	2.263751	-0.543635	0.126013
H323	H	1.758405	-1.003828	-0.328517
H324	H	2.258405	-0.503828	0.171483
H325	H	1.672367	-1.003801	-0.371291
H326	H	2.172367	-0.503801	0.128709
H327	H	1.705095	-1.081919	-0.301938
H328	H	2.205095	-0.581919	0.198062
H329	H	1.619054	-1.081904	-0.344718
H330	H	2.119054	-0.581904	0.155282
H331	H	1.640123	-0.953781	-0.312434
H332	H	2.140123	-0.453781	0.187566
C333	C	1.718165	-0.152403	-0.478592
C334	C	2.218165	0.347597	0.021408
C335	C	1.659129	-0.181717	-0.443108
C336	C	2.159129	0.318283	0.056892
H337	H	1.763781	-0.129732	-0.460056
H338	H	2.263781	0.370268	0.039944
H339	H	1.672428	-0.132388	-0.499923
H340	H	2.172428	0.367612	0.000077
H341	H	1.758337	-0.175211	-0.499856
H342	H	2.258337	0.324789	0.000144
H343	H	1.618951	-0.158910	-0.421847
H344	H	2.118951	0.341090	0.078153
H345	H	1.704872	-0.201734	-0.421768
H346	H	2.204872	0.298266	0.078232
H347	H	1.707217	-0.801646	-0.345917
H348	H	2.207217	-0.301646	0.154083
H349	H	1.707200	-0.702596	-0.345933
H350	H	2.207200	-0.202596	0.154067
H351	H	1.640082	-0.550493	-0.312507
H352	H	2.140082	-0.050493	0.187493
C353	C	1.369069	-0.389029	-0.662914
C354	C	1.869069	0.110971	-0.162914
C355	C	1.309868	-0.355433	-0.694358
C356	C	1.809868	0.144567	-0.194358
H357	H	1.323433	-0.411703	-0.644403
H358	H	1.823433	0.088297	-0.144403
H359	H	1.409074	-0.369130	-0.638831
H360	H	1.909074	0.130870	-0.138831
H361	H	1.414837	-0.409047	-0.684186
H362	H	1.914837	0.090953	-0.184186
H363	H	1.264105	-0.335412	-0.673085
H364	H	1.764105	0.164588	-0.173085
H365	H	1.269845	-0.375335	-0.718444
H366	H	1.769845	0.124665	-0.218444
C367	C	1.399932	-0.373833	-1.046898
C368	C	1.899932	0.126167	-0.546898
C369	C	1.377317	-0.322047	-1.060141
C370	C	1.877317	0.177953	-0.560141
H371	H	1.354325	-0.396508	-1.065435
H372	H	1.854325	0.103492	-0.565435
H373	H	1.390285	-0.378602	-1.010477
H374	H	1.890285	0.121398	-0.510477
H375	H	1.470522	-0.381511	-1.055811
H376	H	1.970522	0.118489	-0.555811
H377	H	1.306729	-0.314369	-1.051225
H378	H	1.806729	0.185631	-0.551225
H379	H	1.386955	-0.317276	-1.096570
H380	H	1.886955	0.182724	-0.596570
C381	C	1.830674	-0.159697	-0.795570
C382	C	2.330674	0.340303	-0.295570
C383	C	1.726671	-0.148352	-0.808855
C384	C	2.226671	0.351648	-0.308855
H385	H	1.876339	-0.137019	-0.814057
H386	H	2.376339	0.362981	-0.314057
H387	H	1.846007	-0.194826	-0.804508
H388	H	2.346007	0.305174	-0.304508
H389	H	1.840211	-0.154931	-0.759134
H390	H	2.340211	0.345069	-0.259134
H391	H	1.717131	-0.153122	-0.845291
H392	H	2.217131	0.346878	-0.345291
H393	H	1.711332	-0.113214	-0.799920
H394	H	2.211332	0.386786	-0.299920
C395	C	1.718533	-0.152457	-0.980941
C396	C	2.218533	0.347543	-0.480941
C397	C	1.659508	-0.181773	-0.945455
C398	C	2.159508	0.318227	-0.445455
H399	H	1.764151	-0.129785	-0.962407
H400	H	2.264151	0.370215	-0.462407
H401	H	1.672789	-0.132441	-1.002269
H402	H	2.172789	0.367559	-0.502269
H403	H	1.758702	-0.175263	-1.002209
H404	H	2.258702	0.324737	-0.502209
H405	H	1.619333	-0.158967	-0.924190
H406	H	2.119333	0.341033	-0.424190
H407	H	1.705258	-0.201790	-0.924119
H408	H	2.205258	0.298210	-0.424119
C409	C	1.645548	-0.188919	-1.113775
C410	C	2.145548	0.311081	-0.613775
C411	C	1.659674	-0.181832	-1.060080
C412	C	2.159674	0.318168	-0.560080
H413	H	1.691268	-0.166294	-1.132294
H414	H	2.191268	0.333706	-0.632294
H415	H	1.575010	-0.181193	-1.122781
H416	H	2.075010	0.318807	-0.622781
H417	H	1.660804	-0.224074	-1.122664
H418	H	2.160804	0.275926	-0.622664
H419	H	1.644410	-0.146678	-1.051189
H420	H	2.144410	0.353322	-0.551189
H421	H	1.730228	-0.189554	-1.051070
H422	H	2.230228	0.310446	-0.551070
