data_functionalizedCrystal
_audit_creation_method	'MofGen! by Chris Wilmer'
_symmetry_space_group_name_H-M	'P1'
_symmetry_Int_Tables_number	1
_symmetry_cell_setting	triclinic
loop_
_symmetry_equiv_pos_as_xyz
  x,y,z
_cell_length_a	12.759400
_cell_length_b	18.050590
_cell_length_c	12.759393
_cell_angle_alpha	90.003161
_cell_angle_beta	89.968436
_cell_angle_gamma	89.998495
loop_
_atom_site_label
_atom_site_type_symbol
_atom_site_fract_x
_atom_site_fract_y
_atom_site_fract_z
Zn1	Zn	-0.418574	-1.135412	-0.593551
Zn2	Zn	-0.594293	-1.135337	-0.417871
Zn3	Zn	-0.418588	-1.011217	-0.417938
Zn4	Zn	-0.594171	-1.011209	-0.593560
O5	O	-0.506407	-1.073294	-0.505730
O6	O	-0.441929	-1.239327	-0.570216
O7	O	-0.571042	-1.118845	-0.270859
O8	O	-0.271565	-1.027726	-0.441257
O9	O	-0.571028	-1.239272	-0.441144
O10	O	-0.271555	-1.118972	-0.570280
O11	O	-0.441953	-1.027654	-0.270908
O12	O	-0.441835	-0.907291	-0.441266
O13	O	-0.570821	-1.027712	-0.740580
O14	O	-0.570835	-0.907285	-0.570295
O15	O	-0.441811	-1.118964	-0.740573
O16	O	-0.741298	-1.118837	-0.441153
O17	O	-0.741208	-1.027640	-0.570230
C18	C	-0.506324	-0.880341	-0.505789
C19	C	-0.506313	-0.797796	-0.505839
C20	C	-0.576653	-0.598363	-0.575852
C21	C	-0.480849	-0.548956	-0.601704
C22	C	-0.506363	-0.646665	-0.505798
C23	C	-0.602214	-0.548991	-0.479956
C24	C	-0.506420	-0.500680	-0.505761
C25	C	-0.410508	-0.598346	-0.531700
C26	C	-0.531938	-0.598384	-0.409908
C27	C	-0.436068	-0.548999	-0.435723
C28	C	-0.506332	-0.730764	-0.505822
C29	C	-0.506441	-0.416584	-0.505737
C30	C	-0.779374	-1.073250	-0.505708
C31	C	-0.896151	-1.073299	-0.505734
C32	C	-0.951024	-1.120837	-0.438597
C33	C	-1.060748	-1.120883	-0.438630
C34	C	-1.060715	-1.025845	-0.572938
C35	C	-0.950993	-1.025803	-0.572910
C36	C	-0.951044	-1.175705	-0.361052
C37	C	-1.060768	-1.175751	-0.361085
C38	C	-0.232373	-1.073358	-0.505775
C39	C	-0.115597	-1.073386	-0.505794
C40	C	-0.506301	-1.073346	-0.779763
C41	C	-0.506255	-1.073368	-0.896540
C42	C	-0.506476	-0.266999	-0.505689
C43	C	-0.506468	-0.349545	-0.505717
C44	C	-0.439073	-1.120889	-0.951401
C45	C	-0.439035	-1.120907	-1.061125
C46	C	-0.573371	-1.025880	-1.061118
C47	C	-0.573403	-1.025859	-0.951396
C48	C	-0.361519	-1.175755	-0.951405
C49	C	-0.361481	-1.175772	-1.061129
C50	C	-0.506436	-1.073285	-0.232763
C51	C	-0.506186	-1.073406	-0.115986
H52	H	-0.329449	-0.619935	-0.553633
C53	C	-0.656815	-0.627653	-0.655960
H54	H	-0.638488	-0.610728	-0.724048
H55	H	-0.724714	-0.610031	-0.638286
H56	H	-0.656678	-0.680279	-0.654981
H57	H	-1.094731	-1.230394	-0.390276
C58	C	-0.890630	-0.973520	-0.646769
H59	H	-0.817429	-0.980302	-0.637141
H60	H	-0.908662	-0.923632	-0.631370
H61	H	-0.908550	-0.984383	-0.717374
C62	C	-0.647232	-0.973626	-1.121458
H63	H	-0.687244	-0.945317	-1.073068
H64	H	-0.693009	-1.002028	-1.164245
H65	H	-0.607005	-0.941282	-1.164275
C66	C	-0.355713	-0.519895	-0.355674
H67	H	-0.287707	-0.536886	-0.374190
H68	H	-0.373279	-0.537567	-0.287775
H69	H	-0.356567	-0.467268	-0.355692
C70	C	-0.910726	-1.253375	-0.390553
H71	H	-0.968602	-1.285344	-0.402716
H72	H	-0.869394	-1.272492	-0.334873
H73	H	-0.869320	-1.250202	-0.452292
H74	H	-0.553580	-0.620112	-0.328854
H75	H	-0.459235	-0.527245	-0.682781
H76	H	-1.090626	-1.160385	-0.279710
H77	H	-1.105381	-0.987176	-0.627631
C78	C	-0.647283	-0.973572	-0.891053
H79	H	-0.687269	-0.945284	-0.939440
H80	H	-0.607075	-0.941222	-0.848276
H81	H	-0.693098	-1.001953	-0.848225
H82	H	-0.383292	-1.233291	-1.090886
C83	C	-0.711679	-0.519691	-0.450455
H84	H	-0.761509	-0.536599	-0.500316
H85	H	-0.710745	-0.467070	-0.450032
H86	H	-0.730323	-0.537341	-0.382826
H87	H	-0.917090	-1.155117	-0.283734
H88	H	-0.390705	-1.230376	-0.917349
C89	C	-0.251606	-1.154957	-0.911207
H90	H	-0.206383	-1.146411	-0.969133
H91	H	-0.224598	-1.194318	-0.869840
H92	H	-0.256033	-1.111298	-0.869860
H93	H	-0.284165	-1.155193	-1.095185
