data_functionalizedCrystal
_audit_creation_method	'MofGen! by Chris Wilmer'
_symmetry_space_group_name_H-M	'P1'
_symmetry_Int_Tables_number	1
_symmetry_cell_setting	triclinic
loop_
_symmetry_equiv_pos_as_xyz
  x,y,z
_cell_length_a	6.817900
_cell_length_b	11.452831
_cell_length_c	10.773894
_cell_angle_alpha	83.899974
_cell_angle_beta	96.645922
_cell_angle_gamma	108.696887
loop_
_atom_site_label
_atom_site_type_symbol
_atom_site_fract_x
_atom_site_fract_y
_atom_site_fract_z
V1	V	-3.967650	-0.164839	-0.353163
V2	V	-3.634316	0.168494	-0.019830
V3	V	-3.300983	0.501828	0.313504
O4	O	-3.936515	0.012549	-0.384264
O5	O	-3.603182	0.345883	-0.050931
O6	O	-3.269848	0.679216	0.282402
O7	O	-3.938588	-0.331299	-0.314370
O8	O	-3.605254	0.002034	0.018963
O9	O	-3.271921	0.335368	0.352297
O10	O	-3.884792	-0.160273	-0.523786
O11	O	-3.551459	0.173061	-0.190453
O12	O	-3.218125	0.506394	0.142880
O13	O	-3.990683	-0.159661	-0.173398
O14	O	-3.657350	0.173672	0.159935
O15	O	-3.324017	0.507006	0.493268
V16	V	-4.453237	-0.143861	-0.336081
V17	V	-4.119903	0.189472	-0.002748
V18	V	-3.786570	0.522805	0.330586
O19	O	-4.224380	-0.210855	-0.390634
O20	O	-3.891047	0.122478	-0.057301
O21	O	-3.557714	0.455811	0.276033
O22	O	-4.646703	-0.097845	-0.298610
O23	O	-4.313370	0.235488	0.034724
O24	O	-3.980036	0.568822	0.368057
O25	O	-4.259092	0.022599	-0.374874
O26	O	-3.925758	0.355932	-0.041541
O27	O	-3.592425	0.689265	0.291793
O28	O	-4.601768	-0.321249	-0.304980
O29	O	-4.268435	0.012084	0.028354
O30	O	-3.935101	0.345417	0.361687
O31	O	-4.547600	-0.149039	-0.515846
O32	O	-4.214266	0.184294	-0.182512
O33	O	-3.880933	0.517628	0.150821
O34	O	-4.312888	-0.148428	-0.165458
O35	O	-3.979554	0.184906	0.167876
O36	O	-3.646221	0.518239	0.501209
C37	C	-3.789408	-0.371942	-0.299412
C38	C	-3.456075	-0.038609	0.033921
C39	C	-3.122741	0.294725	0.367255
C40	C	-3.846704	-0.508012	-0.268831
C41	C	-3.513370	-0.174679	0.064502
C42	C	-3.180037	0.158655	0.397835
C43	C	-3.949740	-0.724671	-0.328823
C44	C	-3.616406	-0.391337	0.004510
C45	C	-3.283073	-0.058004	0.337844
C46	C	-3.890521	-0.584036	-0.360437
C47	C	-3.557187	-0.250703	-0.027104
C48	C	-3.223854	0.082631	0.306230
C49	C	-3.720785	-0.153779	-0.566542
C50	C	-3.387452	0.179554	-0.233209
C51	C	-3.054119	0.512887	0.100125
C52	C	-3.734452	-0.151147	-0.705788
C53	C	-3.401118	0.182186	-0.372455
C54	C	-3.067785	0.515519	-0.039122
C55	C	-3.913056	-0.155709	-0.772660
C56	C	-3.579723	0.177625	-0.439327
C57	C	-3.246390	0.510958	-0.105994
C58	C	-3.927185	-0.152989	-0.916579
C59	C	-3.593852	0.180345	-0.583246
C60	C	-3.260518	0.513678	-0.249912
C61	C	-4.071615	0.063235	-0.389827
C62	C	-3.738282	0.396568	-0.056494
C63	C	-3.404948	0.729902	0.276840
C64	C	-3.993556	0.199304	-0.420416
C65	C	-3.660223	0.532638	-0.087082
C66	C	-3.326889	0.865971	0.246251
C67	C	-4.140238	-0.154925	-0.122695
C68	C	-3.806905	0.178408	0.210639
C69	C	-3.473572	0.511742	0.543972
C70	C	-4.105810	-0.157551	0.016552
C71	C	-3.772477	0.175783	0.349885
C72	C	-3.439143	0.509116	0.683218
H73	H	-3.987217	-0.761668	-0.522235
H74	H	-3.653884	-0.428334	-0.188902
H75	H	-3.320550	-0.095001	0.144431
H76	H	-3.956059	-0.763698	-0.227003
H77	H	-3.622725	-0.430365	0.106331
H78	H	-3.289392	-0.097031	0.439664
H79	H	-3.884185	-0.545014	-0.462264
H80	H	-3.550852	-0.211680	-0.128930
H81	H	-3.217518	0.121653	0.204403
H82	H	-3.853011	-0.547032	-0.167003
H83	H	-3.519678	-0.213698	0.166330
H84	H	-3.186344	0.119635	0.499663
H85	H	-4.055502	-0.161620	-0.723366
H86	H	-3.722169	0.171714	-0.390032
H87	H	-3.388836	0.505047	-0.056699
H88	H	-3.784718	-0.147061	-0.965869
H89	H	-3.451385	0.186272	-0.632536
H90	H	-3.118052	0.519606	-0.299203
H91	H	-4.248277	-0.163475	-0.934160
H92	H	-3.914944	0.169858	-0.600826
H93	H	-3.581610	0.503192	-0.267493
H94	H	-3.591998	-0.145220	-0.755084
H95	H	-3.258665	0.188113	-0.421751
H96	H	-2.925331	0.521447	-0.088417
