data_functionalizedCrystal
_audit_creation_method	'MofGen! by Chris Wilmer'
_symmetry_space_group_name_H-M	'P1'
_symmetry_Int_Tables_number	1
_symmetry_cell_setting	triclinic
loop_
_symmetry_equiv_pos_as_xyz
  x,y,z
_cell_length_a	14.908618
_cell_length_b	14.908520
_cell_length_c	14.908308
_cell_angle_alpha	96.360765
_cell_angle_beta	90.173623
_cell_angle_gamma	90.204437
loop_
_atom_site_label
_atom_site_type_symbol
_atom_site_fract_x
_atom_site_fract_y
_atom_site_fract_z
Zn1	Zn	-1.316646	0.470652	0.613103
Zn2	Zn	-1.316544	0.613291	0.470467
Zn3	Zn	-1.176016	0.453326	0.453158
Zn4	Zn	-1.157638	0.612215	0.612056
O5	O	-1.241711	0.537371	0.537196
O6	O	-1.441990	0.497274	0.601863
O7	O	-1.305552	0.585271	0.341978
O8	O	-1.202405	0.329434	0.467570
O9	O	-1.441915	0.602070	0.497069
O10	O	-1.305725	0.342163	0.585080
O11	O	-1.202306	0.467746	0.329262
O12	O	-1.048221	0.466702	0.466555
O13	O	-1.171082	0.600236	0.738387
O14	O	-1.034719	0.583437	0.583296
O15	O	-1.287905	0.496231	0.739156
O16	O	-1.287731	0.739338	0.496054
O17	O	-1.170983	0.738548	0.600079
C18	C	-1.008966	0.523073	0.522934
C19	C	-0.909394	0.516980	0.516856
C20	C	-1.227455	0.550046	0.772407
C21	C	-1.221379	0.555448	0.872640
C22	C	-1.227375	0.771665	0.549852
C23	C	-1.221322	0.871904	0.555302
C24	C	-0.708275	0.627255	0.626851
C25	C	-0.614718	0.621533	0.621143
C26	C	-0.628721	0.499808	0.499737
C27	C	-0.722278	0.505531	0.505445
C28	C	-0.762052	0.569257	0.569003
C29	C	-0.855610	0.574984	0.574706
C30	C	-0.869612	0.453255	0.453305
C31	C	-0.776055	0.447533	0.447597
C32	C	-0.475366	0.551718	0.551507
C33	C	-0.574937	0.557812	0.557587
C34	C	-1.256126	0.302164	0.524511
C35	C	-1.262269	0.201933	0.519106
C36	C	-1.331630	1.061038	0.457322
C37	C	-1.325946	1.155221	0.462440
C38	C	-1.204275	1.154456	0.570660
C39	C	-1.209959	1.060273	0.565542
C40	C	-1.273638	1.013567	0.508870
C41	C	-1.279317	0.919381	0.503748
C42	C	-1.157651	0.918619	0.611973
C43	C	-1.151967	1.012802	0.617090
C44	C	-1.255968	0.524683	0.302899
C45	C	-1.262232	0.519038	0.202664
C46	C	-1.331609	0.457275	1.061790
C47	C	-1.325904	0.462347	1.155968
C48	C	-1.204260	0.570659	1.155175
C49	C	-1.209965	0.565587	1.060997
C50	C	-1.273643	0.508894	1.014308
C51	C	-1.279352	0.503827	0.920129
C52	C	-1.157704	0.612133	0.919337
C53	C	-1.151999	0.617205	1.013515
H54	H	-0.740659	0.679148	0.678598
H55	H	-1.152416	0.616815	1.193206
H56	H	-1.331203	0.457666	0.882116
C57	C	-0.555562	0.685329	0.684772
H58	H	-0.494146	0.672791	0.672276
H59	H	-0.568000	0.746121	0.675690
H60	H	-0.568037	0.676419	0.745613
H61	H	-1.331165	0.881354	0.457601
C62	C	-0.899365	0.645081	0.644611
H63	H	-0.962787	0.640191	0.639721
H64	H	-0.881176	0.634307	0.703580
H65	H	-0.881134	0.703997	0.633646
H66	H	-1.383474	1.023008	0.411171
C67	C	-1.389671	0.405576	1.208200
H68	H	-1.377152	0.416711	1.270976
H69	H	-1.449985	0.421638	1.197161
H70	H	-1.381203	0.343346	1.188695
C71	C	-1.093937	0.668915	0.867106
H72	H	-1.106450	0.657773	0.804329
H73	H	-1.102401	0.731139	0.886615
H74	H	-1.033618	0.652848	0.878139
C75	C	-0.584960	0.429726	0.429822
H76	H	-0.521539	0.434633	0.434705
H77	H	-0.603183	0.370805	0.440763
H78	H	-0.603149	0.440521	0.370853
C79	C	-1.081962	0.679565	1.064878
H80	H	-1.086869	0.675198	1.127769
H81	H	-1.023515	0.661849	1.045045
H82	H	-1.092309	0.740130	1.053518
H83	H	-0.743659	0.395647	0.395852
C84	C	-1.389733	1.207436	0.405732
H85	H	-1.428464	1.166126	0.371245
H86	H	-1.424427	1.248386	0.444643
H87	H	-1.355655	1.239997	0.366307
C88	C	-1.401653	0.394925	1.010426
H89	H	-1.396753	0.399303	0.947537
H90	H	-1.391327	0.334361	1.021786
H91	H	-1.460100	0.412661	1.030259
C92	C	-0.928768	0.389453	0.389672
H93	H	-0.990185	0.401982	0.402176
H94	H	-0.916293	0.398352	0.328833
H95	H	-0.916332	0.328658	0.398765
H96	H	-1.100124	1.050843	0.663233
C97	C	-1.134235	1.205842	0.632989
H98	H	-1.139155	1.268732	0.628648
H99	H	-1.144545	1.194442	0.693552
H100	H	-1.075785	1.186063	0.615206
H101	H	-1.110427	0.879957	0.653944
