data_functionalizedCrystal
_audit_creation_method	'MofGen! by Chris Wilmer'
_symmetry_space_group_name_H-M	'P1'
_symmetry_Int_Tables_number	1
_symmetry_cell_setting	triclinic
loop_
_symmetry_equiv_pos_as_xyz
  x,y,z
_cell_length_a	10.654550
_cell_length_b	13.330367
_cell_length_c	10.654550
_cell_angle_alpha	90.003444
_cell_angle_beta	84.484903
_cell_angle_gamma	90.011076
loop_
_atom_site_label
_atom_site_type_symbol
_atom_site_fract_x
_atom_site_fract_y
_atom_site_fract_z
O1	O	1.667847	0.083503	0.176398
O2	O	1.302368	0.083487	0.193204
O3	O	1.493511	0.083492	0.002062
O4	O	1.476705	0.083498	0.367540
O5	O	1.493483	-0.083355	0.002057
O6	O	1.302340	-0.083360	0.193199
O7	O	1.667819	-0.083344	0.176393
Cu8	Cu	1.485077	-0.098586	0.184796
Cu9	Cu	1.485110	0.098730	0.184801
O10	O	1.476677	-0.083349	0.367536
C11	C	1.255556	0.000061	0.191968
C12	C	1.116113	0.000055	0.188276
N13	N	1.485063	-0.237368	0.184792
C14	C	1.036627	0.000072	0.300817
C15	C	0.905607	0.000089	0.297341
C16	C	0.933570	0.000077	0.068771
C17	C	1.064588	0.000053	0.072249
C18	C	1.020482	0.000083	0.432780
C19	C	0.889461	0.000100	0.429304
C20	C	1.400468	-0.709993	0.269406
C21	C	1.569786	-0.709957	0.100188
C22	C	1.569772	-0.604938	0.100184
C23	C	1.485106	-0.552442	0.184793
C24	C	1.400454	-0.604965	0.269407
C25	C	1.654430	-0.552408	0.015580
C26	C	1.654420	-0.447383	0.015574
C27	C	1.569747	-0.394885	0.100178
C28	C	1.485091	-0.447414	0.184794
C29	C	1.400426	-0.394918	0.269404
C30	C	1.315763	-0.447446	0.354015
C31	C	1.315781	-0.552467	0.354011
C32	C	1.569729	-0.289864	0.100182
C33	C	1.400411	-0.289890	0.269405
C34	C	1.714631	0.000084	0.177630
C35	C	1.854074	0.000097	0.181321
C36	C	1.492263	0.000069	-0.044739
C37	C	1.488571	0.000073	-0.184182
N38	N	1.485134	0.237511	0.184796
C39	C	1.601112	0.000075	-0.263668
C40	C	1.597636	0.000082	-0.394688
C41	C	1.369066	0.000080	-0.366725
C42	C	1.372544	0.000081	-0.235707
C43	C	1.733075	0.000071	-0.279813
C44	C	1.729599	0.000078	-0.410834
C45	C	1.477925	0.000076	0.414336
C46	C	1.481616	0.000079	0.553779
H47	H	0.891602	0.000091	-0.025694
H48	H	1.723356	-0.404622	-0.053322
H49	H	1.769492	0.072120	-0.456475
H50	H	1.779309	-0.069744	-0.452596
C51	C	1.822967	-0.161228	-0.333683
C52	C	1.789429	-0.097303	-0.231664
H53	H	1.857654	-0.221378	-0.303942
H54	H	1.750276	-0.176616	-0.375090
H55	H	1.883734	-0.129044	-0.391196
H56	H	1.728655	-0.129484	-0.174156
H57	H	1.862130	-0.081916	-0.190237
H58	H	1.129302	0.000025	-0.019393
H59	H	1.331533	-0.752763	0.338291
C60	C	1.737099	-0.300382	-0.067074
C61	C	1.662779	-0.232127	0.007186
H62	H	1.794541	-0.264736	-0.124494
H63	H	1.782728	-0.341325	-0.014370
H64	H	1.684429	-0.341365	-0.112736
H65	H	1.715449	-0.191148	0.052856
H66	H	1.617148	-0.191166	-0.045525
C67	C	1.023968	-0.179937	0.439052
C68	C	1.060079	-0.094181	0.502441
H69	H	1.048422	-0.238128	0.482053
H70	H	0.935078	-0.179917	0.436700
H71	H	1.063933	-0.179930	0.355419
H72	H	1.020107	-0.094184	0.586072
H73	H	1.148986	-0.094201	0.504807
H74	H	1.280902	0.000093	-0.170993
H75	H	1.331461	-0.247155	0.338300
C76	C	1.680187	-0.670515	-0.155082
C77	C	1.747480	-0.610120	-0.077419
H78	H	1.737633	-0.706145	-0.212503
H79	H	1.629777	-0.716813	-0.104686
H80	H	1.627529	-0.629542	-0.200743
H81	H	1.800132	-0.651094	-0.031750
H82	H	1.797913	-0.563817	-0.127820
C83	C	1.012915	0.108659	0.613165
C84	C	1.068644	0.097321	0.489516
H85	H	1.042656	0.168688	0.648188
H86	H	0.923914	0.111988	0.612680
H87	H	1.034399	0.052995	0.662489
H88	H	1.047152	0.152981	0.440190
H89	H	1.157665	0.094000	0.489994
C90	C	1.240578	-0.286463	0.429145
C91	C	1.222699	-0.389734	0.447017
H92	H	1.183121	-0.250834	0.486555
H93	H	1.324501	-0.269246	0.443570
H94	H	1.226216	-0.269270	0.345192
H95	H	1.237071	-0.406929	0.530968
H96	H	1.138756	-0.406958	0.432601
C97	C	1.145136	-0.670629	0.379677
C98	C	1.222737	-0.610212	0.447014
H99	H	1.087704	-0.706286	0.437096
H100	H	1.099496	-0.629675	0.326996
H101	H	1.195581	-0.716912	0.329288
H102	H	1.172292	-0.563924	0.497397
H103	H	1.268380	-0.651170	0.499717
H104	H	1.274601	0.000087	-0.408693
H105	H	1.638724	-0.752702	0.031307
H106	H	0.843778	-0.071931	0.469183
C107	C	1.721731	0.151494	-0.157204
C108	C	1.802755	0.094330	-0.240162
H109	H	1.764750	0.209681	-0.132720
H110	H	1.650087	0.170883	-0.197989
H111	H	1.695423	0.112688	-0.084630
H112	H	1.829056	0.133134	-0.312740
H113	H	1.874422	0.074943	-0.199377
H114	H	0.847740	0.069932	0.479027
