data_functionalizedCrystal
_audit_creation_method	'MofGen! by Chris Wilmer'
_symmetry_space_group_name_H-M	'P1'
_symmetry_Int_Tables_number	1
_symmetry_cell_setting	triclinic
loop_
_symmetry_equiv_pos_as_xyz
  x,y,z
_cell_length_a	16.109301
_cell_length_b	14.519709
_cell_length_c	14.586319
_cell_angle_alpha	89.995260
_cell_angle_beta	89.999213
_cell_angle_gamma	83.570813
loop_
_atom_site_label
_atom_site_type_symbol
_atom_site_fract_x
_atom_site_fract_y
_atom_site_fract_z
O1	O	1.103336	0.118540	-0.076184
O2	O	0.861300	0.133292	-0.076199
O3	O	0.988735	-0.008336	-0.076183
O4	O	0.975901	0.260168	-0.076200
O5	O	0.988726	-0.008338	0.076298
O6	O	0.861291	0.133290	0.076282
O7	O	1.103327	0.118538	0.076296
Cu8	Cu	0.982308	0.125914	0.090212
Cu9	Cu	0.982319	0.125916	-0.090114
O10	O	0.975892	0.260166	0.076280
C11	C	0.830319	0.132693	0.000039
C12	C	0.738021	0.130902	0.000034
C13	C	0.515887	0.210775	0.000040
C14	C	0.429163	0.209085	0.000046
C15	C	0.448747	0.041048	0.000053
C16	C	0.535468	0.042739	0.000053
C17	C	0.569036	0.127606	0.000042
C18	C	0.395591	0.124224	0.000047
C19	C	0.301562	0.122390	0.000054
C20	C	0.663071	0.129440	0.000037
C21	C	0.988132	-0.042696	0.000057
C22	C	0.986340	-0.145073	0.000058
C23	C	0.979741	-0.519955	0.000034
C24	C	0.981574	-0.415651	0.000041
C25	C	0.983041	-0.332517	0.000047
C26	C	0.984873	-0.228207	0.000052
C27	C	1.134307	0.119136	0.000056
C28	C	1.226606	0.120928	0.000055
C29	C	0.976494	0.294526	0.000038
C30	C	0.978287	0.396903	0.000031
N31	N	0.982307	0.125911	0.217044
N32	N	0.982326	0.125911	-0.216946
C33	C	1.038754	0.063219	0.452057
C34	C	1.038756	0.063217	0.548038
C35	C	0.925873	0.188606	0.548034
C36	C	0.925868	0.188603	0.452054
C37	C	0.982313	0.125911	0.404068
C38	C	0.982321	0.125912	0.596029
C39	C	0.982323	0.125910	0.700096
C40	C	0.982310	0.125911	0.299995
H41	H	0.385892	0.276810	0.000045
H42	H	0.543214	0.279879	0.000037
H43	H	1.084715	0.012167	0.587108
O44	O	0.870958	0.249381	0.405389
C45	C	0.819608	0.199973	0.349863
H46	H	0.818095	0.127244	0.378800
H47	H	0.845621	0.195140	0.277122
C48	C	0.732281	0.340101	0.312840
C49	C	0.730417	0.250777	0.348385
H50	H	0.677264	0.371440	0.311924
H51	H	0.766878	0.373389	0.350246
H52	H	0.753962	0.336060	0.252226
H53	H	0.708746	0.254818	0.409002
H54	H	0.695814	0.217490	0.310989
O55	O	0.415999	-0.041307	0.000015
C56	C	0.328059	-0.024968	0.000035
H57	H	0.307800	0.047008	-0.028835
H58	H	0.303911	-0.029435	0.073187
C59	C	0.316867	-0.186716	-0.024304
C60	C	0.291985	-0.098317	-0.059770
H61	H	0.294613	-0.231963	-0.061190
H62	H	0.376114	-0.197726	-0.024314
H63	H	0.296742	-0.190426	0.036655
H64	H	0.312119	-0.094605	-0.120724
H65	H	0.232740	-0.087309	-0.059772
H66	H	1.084714	0.012170	0.412989
H67	H	0.879918	0.239650	0.587113
O68	O	0.587069	-0.038082	-0.000109
C69	C	0.571825	-0.089616	-0.079067
H70	H	0.542256	-0.040921	-0.134266
H71	H	0.527595	-0.142988	-0.061211
C72	C	0.691183	-0.199398	-0.047074
C73	C	0.654872	-0.139589	-0.114873
H74	H	0.742409	-0.230227	-0.069159
H75	H	0.701452	-0.164681	0.006124
H76	H	0.654316	-0.243866	-0.032200
H77	H	0.691734	-0.095114	-0.129737
H78	H	0.644611	-0.174299	-0.168074
