data_functionalizedCrystal
_audit_creation_method	'MofGen! by Chris Wilmer'
_symmetry_space_group_name_H-M	'P1'
_symmetry_Int_Tables_number	1
_symmetry_cell_setting	triclinic
loop_
_symmetry_equiv_pos_as_xyz
  x,y,z
_cell_length_a	23.532407
_cell_length_b	23.532407
_cell_length_c	22.610064
_cell_angle_alpha	90.000603
_cell_angle_beta	89.997161
_cell_angle_gamma	97.151322
loop_
_atom_site_label
_atom_site_type_symbol
_atom_site_fract_x
_atom_site_fract_y
_atom_site_fract_z
O1	O	0.755263	-0.069127	-0.049117
O2	O	1.255263	0.430873	0.450883
O3	O	0.589400	-0.079130	-0.049135
O4	O	1.089400	0.420870	0.450865
O5	O	0.677333	0.008803	-0.049114
O6	O	1.177333	0.508803	0.450886
O7	O	0.667330	-0.157060	-0.049137
O8	O	1.167330	0.342940	0.450863
O9	O	0.677318	0.008790	0.049255
O10	O	1.177318	0.508790	0.549255
O11	O	0.589385	-0.079143	0.049234
O12	O	1.089385	0.420857	0.549234
O13	O	0.755248	-0.069140	0.049252
O14	O	1.255248	0.430860	0.549252
Zn15	Zn	0.672314	-0.074144	0.064862
Zn16	Zn	1.172314	0.425856	0.564862
Zn17	Zn	0.672334	-0.074127	-0.064744
Zn18	Zn	1.172334	0.425873	0.435256
O19	O	0.667315	-0.157073	0.049232
O20	O	1.167315	0.342927	0.549232
C21	C	0.568176	-0.078882	0.000048
C22	C	1.068176	0.421118	0.500048
C23	C	0.504959	-0.078116	0.000041
C24	C	1.004959	0.421884	0.500041
C25	C	0.105856	-0.125350	0.000061
C26	C	0.605856	0.374650	0.500061
C27	C	0.046456	-0.124638	0.000065
C28	C	0.546456	0.375362	0.500065
O29	O	0.009711	-0.168424	0.000081
O30	O	0.509711	0.331576	0.500081
N31	N	0.023830	-0.072362	0.000071
N32	N	0.523830	0.427638	0.500071
C33	C	0.060607	-0.020794	0.000080
C34	C	0.560607	0.479206	0.500080
O35	O	0.035908	0.023737	0.000086
O36	O	0.535908	0.523737	0.500086
C37	C	0.120006	-0.021506	0.000080
C38	C	0.620006	0.478494	0.500080
C39	C	0.142629	-0.073785	0.000068
C40	C	0.642629	0.426215	0.500068
C41	C	0.128479	-0.177625	0.000050
C42	C	0.628479	0.322375	0.500050
C43	C	0.187876	-0.178336	0.000045
C44	C	0.687876	0.321664	0.500045
C45	C	0.224649	-0.126772	0.000052
C46	C	0.724649	0.373228	0.500052
C47	C	0.202025	-0.074497	0.000063
C48	C	0.702025	0.425503	0.500063
C49	C	0.156783	0.030062	0.000093
C50	C	0.656783	0.530062	0.500093
C51	C	0.216185	0.029345	0.000094
C52	C	0.716185	0.529345	0.500094
C53	C	0.238808	-0.022934	0.000082
C54	C	0.738808	0.477066	0.500082
C55	C	0.298194	-0.023643	0.000065
C56	C	0.798194	0.476357	0.500065
N57	N	0.320820	-0.075920	0.000059
N58	N	0.820820	0.424080	0.500059
C59	C	0.284048	-0.127484	0.000052
C60	C	0.784048	0.372516	0.500052
C61	C	-0.064135	-0.019302	0.000080
C62	C	0.435865	0.480698	0.500080
C63	C	-0.123533	-0.018589	0.000075
C64	C	0.376467	0.481411	0.500075
C65	C	-0.137680	-0.122434	0.000061
C66	C	0.362320	0.377566	0.500061
C67	C	-0.078281	-0.123146	0.000062
C68	C	0.421719	0.376854	0.500062
C69	C	-0.041509	-0.071578	0.000074
C70	C	0.458491	0.428422	0.500074
C71	C	0.408784	-0.128974	0.000042
C72	C	0.908784	0.371026	0.500042
C73	C	0.468186	-0.129680	0.000034
C74	C	0.968186	0.370320	0.500034
C75	C	0.482329	-0.025836	0.000051
C76	C	0.982329	0.474164	0.500051
C77	C	0.422932	-0.025129	0.000055
C78	C	0.922932	0.474871	0.500055
C79	C	0.386160	-0.076702	0.000052
C80	C	0.886160	0.423298	0.500052
O81	O	0.334974	0.020119	0.000052
O82	O	0.834974	0.520119	0.500052
O83	O	0.308755	-0.172007	0.000054
O84	O	0.808755	0.327993	0.500054
C85	C	0.677071	0.030013	0.000072
C86	C	1.177071	0.530013	0.500072
C87	C	0.676305	0.093230	0.000076
C88	C	1.176305	0.593230	0.500076
C89	C	0.776472	-0.069388	0.000069
C90	C	1.276472	0.430612	0.500069
C91	C	0.839689	-0.070154	0.000071
C92	C	1.339689	0.429846	0.500071
C93	C	0.667577	-0.178283	0.000045
C94	C	1.167577	0.321717	0.500045
C95	C	0.668343	-0.241500	0.000036
C96	C	1.168343	0.258500	0.500036
N97	N	0.672304	-0.074155	0.153314
N98	N	1.172304	0.425845	0.653314
C99	C	0.723539	0.492333	0.000049
C100	C	1.223539	0.992333	0.500049
C101	C	0.722827	0.551733	0.000044
C102	C	1.222827	1.051733	0.500044
O103	O	0.766613	0.588478	0.000027
O104	O	1.266613	1.088478	0.500027
N105	N	0.670551	0.574359	0.000039
N106	N	1.170551	1.074359	0.500039
C107	C	0.618983	0.537582	0.000032
C108	C	1.118983	1.037582	0.500032
O109	O	0.574452	0.562281	0.000027
O110	O	1.074452	1.062281	0.500027
C111	C	0.619695	0.478182	0.000033
C112	C	1.119695	0.978182	0.500033
C113	C	0.671974	0.455560	0.000044
C114	C	1.171974	0.955560	0.500044
C115	C	0.775814	0.469710	0.000060
C116	C	1.275814	0.969710	0.500060
C117	C	0.776525	0.410313	0.000065
C118	C	1.276525	0.910313	0.500065
C119	C	0.724961	0.373540	0.000060
C120	C	1.224961	0.873540	0.500060
C121	C	0.672685	0.396164	0.000050
C122	C	1.172685	0.896164	0.500050
C123	C	0.568127	0.441406	0.000022
C124	C	1.068127	0.941406	0.500022
C125	C	0.568844	0.382004	0.000021
C126	C	1.068844	0.882004	0.500021
C127	C	0.621123	0.359381	0.000033
C128	C	1.121123	0.859381	0.500033
C129	C	0.621832	0.299995	0.000050
C130	C	1.121832	0.799995	0.500050
N131	N	0.674109	0.277368	0.000056
N132	N	1.174109	0.777368	0.500056
C133	C	0.725673	0.314141	0.000061
C134	C	1.225673	0.814141	0.500061
C135	C	0.617491	0.662324	0.000031
C136	C	1.117491	1.162324	0.500031
C137	C	0.616778	0.721722	0.000034
C138	C	1.116778	1.221722	0.500034
C139	C	0.720623	0.735869	0.000045
C140	C	1.220623	1.235869	0.500045
C141	C	0.721335	0.676470	0.000046
C142	C	1.221335	1.176470	0.500046
C143	C	0.669767	0.639698	0.000036
C144	C	1.169767	1.139698	0.500036
C145	C	0.727163	0.189405	0.000073
C146	C	1.227163	0.689405	0.500073
C147	C	0.727869	0.130003	0.000081
C148	C	1.227869	0.630003	0.500081
C149	C	0.624025	0.115860	0.000067
C150	C	1.124025	0.615860	0.500067
C151	C	0.623318	0.175257	0.000062
C152	C	1.123318	0.675257	0.500062
C153	C	0.674891	0.212029	0.000063
C154	C	1.174891	0.712029	0.500063
O155	O	0.578070	0.263215	0.000065
O156	O	1.078070	0.763215	0.500065
O157	O	0.770196	0.289433	0.000058
O158	O	1.270196	0.789433	0.500058
N159	N	0.672349	-0.074111	-0.153196
N160	N	1.172349	0.425889	0.346804
C161	C	0.711273	-0.035196	0.561965
C162	C	1.211273	0.464804	1.061965
C163	C	0.711276	-0.035192	0.623884
C164	C	1.211276	0.464808	1.123884
O165	O	0.744384	-0.002076	0.655911
O166	O	1.244384	0.497924	1.155911
N167	N	0.672334	-0.074115	0.654851
N168	N	1.172334	0.425885	1.154851
C169	C	0.633383	-0.113041	0.623895
C170	C	1.133383	0.386959	1.123895
O171	O	0.600259	-0.146147	0.655920
O172	O	1.100259	0.353853	1.155920
C173	C	0.633377	-0.113042	0.561976
C174	C	1.133377	0.386958	1.061976
C175	C	0.672326	-0.074120	0.531013
C176	C	1.172326	0.425880	1.031013
C177	C	0.750218	0.003724	0.531001
C178	C	1.250218	0.503724	1.031001
C179	C	0.750215	0.003719	0.469085
C180	C	1.250215	0.503719	0.969085
C181	C	0.711268	-0.035206	0.438133
C182	C	1.211268	0.464794	0.938133
C183	C	0.672323	-0.074125	0.469097
C184	C	1.172323	0.425875	0.969097
C185	C	0.594424	-0.151965	0.531021
C186	C	1.094424	0.348035	1.031021
C187	C	0.594422	-0.151962	0.469098
C188	C	1.094422	0.348038	0.969098
C189	C	0.633370	-0.113040	0.438134
C190	C	1.133370	0.386960	0.938134
C191	C	0.633374	-0.113054	0.376229
C192	C	1.133374	0.386946	0.876229
N193	N	0.672316	-0.074131	0.345262
N194	N	1.172316	0.425869	0.845262
C195	C	0.711263	-0.035207	0.376214
C196	C	1.211263	0.464793	0.876214
C197	C	0.633396	-0.113035	0.753928
C198	C	1.133396	0.386965	1.253928
C199	C	0.633403	-0.113037	0.815846
C200	C	1.133403	0.386963	1.315846
C201	C	0.711296	-0.035187	0.815831
C202	C	1.211296	0.464813	1.315831
C203	C	0.711291	-0.035188	0.753913
C204	C	1.211291	0.464812	1.253913
C205	C	0.672338	-0.074112	0.722962
C206	C	1.172338	0.425888	1.222962
C207	C	0.711255	-0.035220	0.246187
C208	C	1.211255	0.464780	0.746187
C209	C	0.711251	-0.035230	0.184266
C210	C	1.211251	0.464770	0.684266
C211	C	0.633357	-0.113078	0.184286
C212	C	1.133357	0.386922	0.684286
C213	C	0.633363	-0.113071	0.246202
C214	C	1.133363	0.386929	0.746202
C215	C	0.672314	-0.074137	0.277151
C216	C	1.172314	0.425863	0.777151
O217	O	0.600281	-0.146152	0.344163
O218	O	1.100281	0.353848	0.844163
O219	O	0.744376	-0.002101	0.344182
O220	O	1.244376	0.497899	0.844182
H221	H	0.512280	0.016146	0.000054
H222	H	1.012280	0.516146	0.500054
C223	C	0.556361	-0.190029	0.190505
C224	C	1.056361	0.309971	0.690505
C225	C	0.590547	-0.155863	0.150256
C226	C	1.090547	0.344137	0.650256
H227	H	0.529933	-0.216442	0.169494
H228	H	1.029933	0.283558	0.669494
H229	H	0.536014	-0.166425	0.214656
H230	H	1.036014	0.333575	0.714656
H231	H	0.579952	-0.210397	0.214655
H232	H	1.079952	0.289603	0.714655
H233	H	0.566956	-0.135492	0.126109
H234	H	1.066956	0.364508	0.626109
H235	H	0.610896	-0.179470	0.126095
H236	H	1.110896	0.320530	0.626095
H237	H	0.404512	0.017441	0.000056
H238	H	0.904512	0.517441	0.500056
C239	C	0.829881	0.197406	0.000093
C240	C	1.329881	0.697406	0.500093
C241	C	0.783853	0.229818	0.000079
C242	C	1.283853	0.729818	0.500079
H243	H	0.864878	0.222356	0.000103
H244	H	1.364878	0.722356	0.500103
H245	H	0.828003	0.173945	-0.034208
H246	H	1.328003	0.673945	0.465792
H247	H	0.827982	0.173943	0.034399
H248	H	1.327982	0.673943	0.534399
H249	H	0.785750	0.253278	-0.034230
H250	H	1.285750	0.753278	0.465770
H251	H	0.785731	0.253289	0.034383
H252	H	1.285731	0.753289	0.534383
C253	C	0.723958	0.042409	0.114725
C254	C	1.223958	0.542409	0.614725
C255	C	0.754025	0.007633	0.150275
C256	C	1.254025	0.507633	0.650275
H257	H	0.750353	0.068890	0.093753
H258	H	1.250353	0.568890	0.593753
H259	H	0.700331	0.062695	0.138912
H260	H	1.200331	0.562695	0.638912
H261	H	0.700806	0.019225	0.087393
H262	H	1.200806	0.519225	0.587393
H263	H	0.777174	0.030816	0.177610
H264	H	1.277174	0.530816	0.677610
H265	H	0.777662	-0.012655	0.126086
H266	H	1.277662	0.487345	0.626086
H267	H	0.763906	0.658056	0.000054
H268	H	1.263906	1.158056	0.500054
H269	H	0.762610	0.765821	0.000047
H270	H	1.262610	1.265821	0.500047
C271	C	0.556409	-0.189994	0.760172
C272	C	1.056409	0.310006	1.260172
C273	C	0.590583	-0.155832	0.719910
C274	C	1.090583	0.344168	1.219910
H275	H	0.529981	-0.216417	0.739172
H276	H	1.029981	0.283583	1.239172
H277	H	0.536062	-0.166389	0.784322
H278	H	1.036062	0.333611	1.284322
H279	H	0.580010	-0.210353	0.784322
H280	H	1.080010	0.289647	1.284322
H281	H	0.566982	-0.135471	0.695763
H282	H	1.066982	0.364529	1.195763
H283	H	0.610931	-0.179440	0.695750
H284	H	1.110931	0.320560	1.195750
C285	C	0.558032	0.587318	0.050596
C286	C	1.058032	1.087318	0.550596
C287	C	0.560803	0.621904	0.000029
C288	C	1.060803	1.121904	0.500029
H289	H	0.523037	0.562365	0.050591
H290	H	1.023037	1.062365	0.550591
H291	H	0.559909	0.610785	0.084892
H292	H	1.059909	1.110785	0.584892
H293	H	0.589267	0.565341	0.050592
H294	H	1.089267	1.065341	0.550592
H295	H	0.529570	0.643884	0.000034
H296	H	1.029570	1.143884	0.500034
H297	H	0.558921	0.598434	-0.034277
H298	H	1.058921	1.098434	0.465723
C299	C	0.562285	0.233847	-0.050518
C300	C	1.062285	0.733847	0.449482
C301	C	0.565854	0.200132	0.000055
C302	C	1.065854	0.700132	0.500055
H303	H	0.526810	0.249203	-0.050523
H304	H	1.026810	0.749203	0.449477
H305	H	0.564723	0.210962	-0.084811
H306	H	1.064723	0.710962	0.415189
H307	H	0.592897	0.264247	-0.050512
H308	H	1.092897	0.764247	0.449488
H309	H	0.535245	0.169729	0.000047
H310	H	1.035245	0.669729	0.500047
H311	H	0.563410	0.223017	0.034356
H312	H	1.063410	0.723017	0.534356
C313	C	0.150582	0.118811	-0.050445
C314	C	0.650582	0.618811	0.449555
C315	C	0.131930	0.087532	0.000112
C316	C	0.631930	0.587532	0.500112
H317	H	0.135243	0.154294	-0.050429
H318	H	0.635243	0.654294	0.449571
H319	H	0.137931	0.097607	-0.084748
H320	H	0.637931	0.597607	0.415252
H321	H	0.191222	0.125751	-0.050440
H322	H	0.691222	0.625751	0.449560
H323	H	0.091290	0.080589	0.000105
H324	H	0.591290	0.580589	0.500105
H325	H	0.144578	0.108740	0.034424
H326	H	0.644578	0.608740	0.534424
C327	C	0.313522	0.074373	0.000102
C328	C	0.813522	0.574373	0.500102
C329	C	0.256606	0.086032	0.000106
C330	C	0.756606	0.586032	0.500106
H331	H	0.338473	0.109369	0.000111
H332	H	0.838473	0.609369	0.500111
H333	H	0.320349	0.052935	-0.034205
H334	H	0.820349	0.552935	0.465795
H335	H	0.320344	0.052917	0.034403
H336	H	0.820344	0.552917	0.534403
H337	H	0.249782	0.107485	-0.034198
H338	H	0.749782	0.607485	0.465802
H339	H	0.249776	0.107480	0.034416
H340	H	0.749776	0.607480	0.534416
C341	C	0.448226	-0.232257	0.000025
C342	C	0.948226	0.267743	0.500025
C343	C	0.493052	-0.187150	0.000025
C344	C	0.993052	0.312850	0.500025
H345	H	0.463577	-0.267735	0.000024
H346	H	0.963577	0.232265	0.500024
H347	H	0.425355	-0.229816	-0.034275
H348	H	0.925355	0.270184	0.465725
H349	H	0.425353	-0.229817	0.034332
H350	H	0.925353	0.270183	0.534332
H351	H	0.515923	-0.189588	-0.034285
H352	H	1.015923	0.310412	0.465715
H353	H	0.515933	-0.189593	0.034328
H354	H	1.015933	0.310407	0.534328
H355	H	-0.167632	-0.164421	0.000059
H356	H	0.332368	0.335579	0.500059
H357	H	0.817806	0.499645	0.000061
H358	H	1.317806	0.999645	0.500061
C359	C	0.784236	0.102490	0.550044
C360	C	1.284236	0.602490	1.050044
C361	C	0.793036	0.046512	0.565015
C362	C	1.293036	0.546512	1.065015
H363	H	0.810677	0.128904	0.571037
H364	H	1.310677	0.628904	1.071037
H365	H	0.746273	0.108485	0.560207
H366	H	1.246273	0.608485	1.060207
H367	H	0.789798	0.108046	0.508733
H368	H	1.289798	0.608046	1.008733
H369	H	0.787469	0.040955	0.606326
H370	H	1.287469	0.540955	1.106326
H371	H	0.831008	0.040515	0.554856
H372	H	1.331008	0.540515	1.054856
C373	C	0.528057	0.727938	-0.050545
C374	C	1.028057	1.227938	0.449455
C375	C	0.559312	0.746586	0.000027
C376	C	1.059312	1.246586	0.500027
H377	H	0.492579	0.743290	-0.050552
H378	H	0.992579	1.243290	0.449448
H379	H	0.521107	0.687304	-0.050537
H380	H	1.021107	1.187304	0.449463
H381	H	0.549284	0.740584	-0.084842
H382	H	1.049284	1.240584	0.415158
H383	H	0.538085	0.733936	0.034324
H384	H	1.038085	1.233936	0.534324
H385	H	0.566260	0.787228	0.000025
H386	H	1.066260	1.287228	0.500025
C387	C	0.620599	-0.190616	0.885476
C388	C	1.120599	0.309384	1.385476
C389	C	0.590594	-0.155827	0.849877
C390	C	1.090594	0.344173	1.349877
H391	H	0.594167	-0.217033	0.906480
H392	H	1.094167	0.282967	1.406480
H393	H	0.643786	-0.167435	0.912775
H394	H	1.143786	0.332565	1.412775
H395	H	0.644187	-0.210980	0.861314
H396	H	1.144187	0.289020	1.361314
H397	H	0.567010	-0.135459	0.874039
H398	H	1.067010	0.364541	1.374039
H399	H	0.567398	-0.179010	0.822575
H400	H	1.067398	0.320990	1.322575
H401	H	0.525555	0.459814	0.000009
H402	H	1.025555	0.959814	0.500009
H403	H	0.742973	-0.003516	0.271379
H404	H	1.242973	0.496484	0.771379
H405	H	0.562709	-0.183658	0.556223
H406	H	1.062709	0.316342	1.056223
C407	C	0.879096	0.430282	0.000070
C408	C	1.379096	0.930282	0.500070
C409	C	0.833993	0.385452	0.000070
C410	C	1.333993	0.885452	0.500070
H411	H	0.914576	0.414935	0.000067
H412	H	1.414576	0.914935	0.500067
H413	H	0.876652	0.453153	0.034371
H414	H	1.376652	0.953153	0.534371
H415	H	0.876653	0.453155	-0.034237
H416	H	1.376653	0.953155	0.465763
H417	H	0.836434	0.362581	0.034378
H418	H	1.336434	0.862581	0.534378
H419	H	0.836439	0.362571	-0.034235
H420	H	1.336439	0.862571	0.465765
H421	H	0.526850	0.352066	0.000013
H422	H	1.026850	0.852066	0.500013
C423	C	-0.019697	-0.184203	0.050617
C424	C	0.480303	0.315797	0.550617
C425	C	-0.053414	-0.180611	0.000051
C426	C	0.446586	0.319389	0.500051
H427	H	-0.004345	-0.219680	0.050607
H428	H	0.495655	0.280320	0.550607
H429	H	-0.042579	-0.181774	0.084914
H430	H	0.457421	0.318226	0.584914
H431	H	0.010706	-0.153594	0.050618
H432	H	0.510706	0.346406	0.550618
H433	H	-0.083820	-0.211218	0.000053
H434	H	0.416180	0.288782	0.500053
H435	H	-0.030532	-0.183046	-0.034255
H436	H	0.469468	0.316954	0.465745
H437	H	0.770443	0.111587	0.000092
H438	H	1.270443	0.611587	0.500092
H439	H	0.582043	0.085909	0.000065
H440	H	1.082043	0.585909	0.500065
H441	H	0.781929	0.035414	0.443878
H442	H	1.281929	0.535414	0.943878
C443	C	0.517426	-0.228913	0.475337
C444	C	1.017426	0.271087	0.975337
C445	C	0.551605	-0.194753	0.435078
C446	C	1.051605	0.305247	0.935078
H447	H	0.490997	-0.255332	0.454334
H448	H	0.990997	0.244668	0.954334
H449	H	0.497080	-0.205306	0.499485
H450	H	0.997080	0.294694	0.999485
H451	H	0.541022	-0.249274	0.499488
H452	H	1.041022	0.250726	0.999488
H453	H	0.528009	-0.174388	0.410929
H454	H	1.028009	0.325612	0.910929
H455	H	0.571953	-0.218363	0.410919
H456	H	1.071953	0.281637	0.910919
H457	H	0.743005	-0.003494	0.728706
H458	H	1.243005	0.496506	1.228706
C459	C	0.724092	0.042390	0.885461
C460	C	1.224092	0.542390	1.385461
C461	C	0.754104	0.007606	0.849860
C462	C	1.254104	0.507606	1.349860
H463	H	0.750520	0.068809	0.906467
H464	H	1.250520	0.568809	1.406467
H465	H	0.700904	0.019207	0.912758
H466	H	1.200904	0.519207	1.412758
H467	H	0.700505	0.062753	0.861300
H468	H	1.200505	0.562753	1.361300
H469	H	0.777689	-0.012760	0.874022
H470	H	1.277689	0.487240	1.374022
H471	H	0.777302	0.030792	0.822560
H472	H	1.277302	0.530792	1.322560
H473	H	0.098544	-0.219617	0.000046
H474	H	0.598544	0.280383	0.500046
C475	C	0.555794	-0.125814	0.315845
C476	C	1.055794	0.374186	0.815845
C477	C	0.590556	-0.155854	0.280245
C478	C	1.090556	0.344146	0.780245
H479	H	0.529367	-0.152226	0.336862
H480	H	1.029367	0.347774	0.836862
H481	H	0.535446	-0.102220	0.291686
H482	H	1.035446	0.397780	0.791686
H483	H	0.578996	-0.102631	0.343137
H484	H	1.078996	0.397369	0.843137
H485	H	0.567354	-0.179035	0.252950
H486	H	1.067354	0.320965	0.752950
H487	H	0.610905	-0.179458	0.304407
H488	H	1.110905	0.320542	0.804407
H489	H	0.378851	-0.170970	0.000041
H490	H	0.878851	0.329030	0.500041
H491	H	0.206289	-0.220908	0.000035
H492	H	0.706289	0.279092	0.500035
H493	H	-0.034198	0.022693	0.000084
H494	H	0.465802	0.522693	0.500084
C495	C	-0.103568	0.083983	0.000089
C496	C	0.396432	0.583983	0.500089
C497	C	-0.148396	0.038878	0.000083
C498	C	0.351604	0.538878	0.500083
H499	H	-0.118917	0.119461	0.000100
H500	H	0.381083	0.619461	0.500100
H501	H	-0.080697	0.081548	-0.034215
H502	H	0.419303	0.581548	0.465785
H503	H	-0.080694	0.081533	0.034392
H504	H	0.419306	0.581533	0.534392
H505	H	-0.171267	0.041325	-0.034223
H506	H	0.328733	0.541325	0.465777
H507	H	-0.171276	0.041314	0.034390
H508	H	0.328724	0.541314	0.534390
