data_functionalizedCrystal
_audit_creation_method	'MofGen! by Chris Wilmer'
_symmetry_space_group_name_H-M	'P1'
_symmetry_Int_Tables_number	1
_symmetry_cell_setting	triclinic
loop_
_symmetry_equiv_pos_as_xyz
  x,y,z
_cell_length_a	10.654550
_cell_length_b	10.654551
_cell_length_c	9.730223
_cell_angle_alpha	90.001469
_cell_angle_beta	89.996251
_cell_angle_gamma	84.485132
loop_
_atom_site_label
_atom_site_type_symbol
_atom_site_fract_x
_atom_site_fract_y
_atom_site_fract_z
O1	O	1.667835	0.176393	-0.114394
O2	O	1.302356	0.193199	-0.114371
O3	O	1.493498	0.002057	-0.114383
O4	O	1.476693	0.367535	-0.114381
O5	O	1.493496	0.002062	0.114197
O6	O	1.302354	0.193204	0.114209
O7	O	1.667832	0.176398	0.114186
Zn8	Zn	1.485093	0.184802	0.150490
Zn9	Zn	1.485096	0.184795	-0.150674
O10	O	1.476691	0.367540	0.114199
C11	C	1.255557	0.191968	-0.000078
C12	C	1.116114	0.188276	-0.000069
C13	C	1.036629	0.300817	-0.000089
C14	C	0.905608	0.297341	-0.000113
C15	C	0.933570	0.068771	-0.000104
C16	C	1.064589	0.072249	-0.000070
C17	C	1.088154	0.416844	-0.000088
C18	C	1.008667	0.529395	-0.000109
C19	C	0.877647	0.525918	-0.000133
C20	C	0.826112	0.409891	-0.000136
C21	C	1.492263	-0.044739	-0.000096
C22	C	1.488570	-0.184182	-0.000105
C23	C	1.486839	-0.249696	-0.124702
C24	C	1.483359	-0.380717	-0.124695
C25	C	1.483346	-0.380697	0.124515
C26	C	1.486817	-0.249678	0.124507
C27	C	1.488592	-0.184200	-0.249314
C28	C	1.486862	-0.249715	-0.373921
C29	C	1.483382	-0.380735	-0.373914
C30	C	1.481631	-0.446241	-0.249301
C31	C	1.714632	0.177629	-0.000109
C32	C	1.854075	0.181321	-0.000127
C33	C	1.477926	0.414336	-0.000091
C34	C	1.481619	0.553779	-0.000091
N35	N	1.485100	0.184805	0.356026
N36	N	1.485099	0.184782	-0.356211
C37	C	1.569760	0.100197	0.427947
C38	C	1.569756	0.100181	0.571830
C39	C	1.400430	0.269395	0.571859
C40	C	1.400428	0.269403	0.427979
C41	C	1.654431	0.015599	0.355994
C42	C	1.739099	-0.069016	0.427915
C43	C	1.739095	-0.069031	0.571798
C44	C	1.654425	0.015568	0.643760
H45	H	0.719425	0.407069	-0.000134
C46	C	1.481434	-0.452751	0.261575
H47	H	1.479131	-0.540166	0.243734
H48	H	1.408895	-0.422340	0.312780
H49	H	1.555122	-0.440216	0.312763
H50	H	1.481961	-0.434073	-0.475375
H51	H	1.488276	-0.196370	-0.475376
C52	C	1.477769	-0.590356	-0.249296
H53	H	1.476984	-0.619996	-0.341349
H54	H	1.403866	-0.611027	-0.203270
H55	H	1.550092	-0.628956	-0.203282
H56	H	0.891600	-0.025693	-0.000129
C57	C	1.488724	-0.177607	0.261560
H58	H	1.487200	-0.235379	0.335775
H59	H	1.416968	-0.117556	0.266734
H60	H	1.563195	-0.135438	0.266732
C61	C	1.832225	-0.162075	0.348769
H62	H	1.882636	-0.212476	0.412213
H63	H	1.884895	-0.116406	0.292644
H64	H	1.786590	-0.214777	0.292639
H65	H	1.654444	0.015606	0.238837
C66	C	1.832221	-0.162103	0.650907
H67	H	1.882650	-0.212475	0.587444
H68	H	1.786599	-0.214814	0.707032
H69	H	1.884890	-0.116429	0.707035
H70	H	1.654421	0.015540	0.760919
C71	C	1.232271	0.420673	-0.000056
H72	H	1.251576	0.505889	-0.000048
H73	H	1.267095	0.379242	-0.079755
H74	H	1.267050	0.379263	0.079677
H75	H	1.331496	0.338273	0.630460
H76	H	1.129308	-0.019392	-0.000058
H77	H	1.491429	-0.077517	-0.249334
H78	H	1.331490	0.338298	0.369421
H79	H	0.812931	0.617562	-0.000136
C80	C	1.065350	0.657013	-0.000104
H81	H	1.154764	0.642968	-0.000100
H82	H	1.038117	0.703408	0.079599
H83	H	1.038150	0.703391	-0.079833
