data_functionalizedCrystal
_audit_creation_method	'MofGen! by Chris Wilmer'
_symmetry_space_group_name_H-M	'P1'
_symmetry_Int_Tables_number	1
_symmetry_cell_setting	triclinic
loop_
_symmetry_equiv_pos_as_xyz
  x,y,z
_cell_length_a	14.853567
_cell_length_b	14.853567
_cell_length_c	13.930277
_cell_angle_alpha	90.000757
_cell_angle_beta	89.995755
_cell_angle_gamma	96.365070
loop_
_atom_site_label
_atom_site_type_symbol
_atom_site_fract_x
_atom_site_fract_y
_atom_site_fract_z
O1	O	1.196368	-0.117704	-0.079756
O2	O	0.933909	-0.131725	-0.079772
O3	O	1.072149	0.006516	-0.079767
O4	O	1.058128	-0.255944	-0.079762
O5	O	1.072130	0.006519	0.079895
O6	O	0.933890	-0.131722	0.079890
O7	O	1.196349	-0.117701	0.079905
Zn8	Zn	1.065116	-0.124711	0.105247
Zn9	Zn	1.065142	-0.124715	-0.105114
O10	O	1.058109	-0.255941	0.079900
C11	C	0.900311	-0.131088	0.000057
C12	C	0.800227	-0.129184	0.000051
C13	C	0.387693	-0.039019	0.000070
C14	C	0.366412	-0.203251	0.000073
C15	C	0.460446	-0.205042	0.000070
C16	C	0.518108	-0.123819	0.000066
C17	C	0.481736	-0.040806	0.000065
C18	C	0.496825	-0.288053	0.000061
C19	C	0.590864	-0.289846	0.000057
C20	C	0.648528	-0.208623	0.000060
C21	C	0.612150	-0.125607	0.000060
C22	C	0.669812	-0.044384	0.000056
C23	C	0.633437	0.038633	0.000063
C24	C	0.539399	0.040417	0.000067
C25	C	0.742565	-0.210407	0.000055
C26	C	0.763855	-0.046172	0.000050
C27	C	1.071504	0.040106	0.000061
C28	C	1.069601	0.140189	0.000053
C29	C	1.229947	-0.118337	0.000075
C30	C	1.330031	-0.120241	0.000075
C31	C	1.058754	-0.289531	0.000070
C32	C	1.060657	-0.389615	0.000072
N33	N	1.065106	-0.124708	0.248814
C34	C	0.979435	0.552723	0.000066
C35	C	1.143668	0.574004	0.000076
C36	C	1.145458	0.479971	0.000070
C37	C	1.064235	0.422309	0.000064
C38	C	0.981223	0.458680	0.000063
C39	C	1.228469	0.443591	0.000080
C40	C	1.230262	0.349552	0.000076
C41	C	1.149039	0.291889	0.000063
C42	C	1.066023	0.328266	0.000061
C43	C	0.984800	0.270604	0.000055
C44	C	0.901783	0.306979	0.000047
C45	C	0.899999	0.401017	0.000050
C46	C	1.150823	0.197851	0.000059
C47	C	0.986588	0.176561	0.000052
N48	N	1.065160	-0.124711	-0.248680
C49	C	1.003926	-0.185904	0.701081
C50	C	1.126382	-0.063519	0.701055
C51	C	1.126371	-0.063516	0.600559
C52	C	1.065138	-0.124709	0.550319
C53	C	1.003916	-0.185904	0.600576
C54	C	1.187598	-0.002328	0.550295
C55	C	1.187591	-0.002323	0.449793
C56	C	1.126353	-0.063512	0.399552
C57	C	1.065127	-0.124710	0.449814
C58	C	1.003894	-0.185902	0.399575
C59	C	0.942664	-0.247096	0.449835
C60	C	0.942677	-0.247094	0.550334
C61	C	1.126339	-0.063515	0.299053
C62	C	1.003883	-0.185903	0.299070
H63	H	0.449870	-0.354180	0.000054
C64	C	0.446002	0.137698	-0.082015
C65	C	0.499413	0.131663	0.000063
H66	H	0.421318	0.194031	-0.082021
H67	H	0.398211	0.089584	-0.082005
H68	H	0.482259	0.133585	-0.137685
H69	H	0.463154	0.135769	0.055734
H70	H	0.547211	0.179790	0.000062
H71	H	0.892827	-0.296916	0.591263
H72	H	0.954071	-0.235724	0.742005
C73	C	1.343596	0.050348	0.581213
C74	C	1.254896	0.064946	0.605509
H75	H	1.385140	0.091884	0.615305
H76	H	1.352348	0.059098	0.514173
H77	H	1.353459	-0.009836	0.597699
H78	H	1.245032	0.125128	0.589016
H79	H	1.246141	0.056203	0.672563
C80	C	1.327550	0.256147	0.082147
C81	C	1.321511	0.309572	0.000076
H82	H	1.383887	0.231469	0.082144
H83	H	1.279441	0.208352	0.082134
H84	H	1.323435	0.292394	0.137822
H85	H	1.325621	0.273323	-0.055600
H86	H	1.369635	0.357373	0.000079
H87	H	1.209795	0.620958	0.000088
C88	C	0.881954	0.047103	0.082116
C89	C	0.827233	0.043114	0.000046
H90	H	0.921076	0.102227	0.082114
H91	H	0.917076	-0.002582	0.082103
H92	H	0.844819	0.044385	0.137792
H93	H	0.864368	0.045825	-0.055630
H94	H	0.792108	0.092812	0.000050
C95	C	0.817275	0.522227	0.000044
C96	C	0.888184	0.592701	0.000052
H97	H	0.760941	0.546910	0.000028
H98	H	0.821379	0.485997	0.055721
H99	H	0.821407	0.485988	-0.055635
H100	H	0.884056	0.628936	0.055735
H101	H	0.884078	0.628946	-0.055631
H102	H	1.294596	0.490546	0.000094
C103	C	0.888287	-0.301433	0.295782
C104	C	0.875357	-0.314358	0.394605
H105	H	0.846732	-0.342954	0.261684
H106	H	0.948457	-0.311339	0.279314
H107	H	0.878426	-0.241241	0.279325
H108	H	0.885225	-0.374548	0.411063
H109	H	0.815173	-0.304459	0.411079
H110	H	1.237447	0.047505	0.408877
C111	C	0.847161	0.129472	-0.082035
C112	C	0.897302	0.113184	0.000045
H113	H	0.792038	0.090348	-0.082035
H114	H	0.881202	0.118426	-0.137698
H115	H	0.834225	0.190686	-0.082027
H116	H	0.910244	0.051970	0.000034
H117	H	0.863254	0.124222	0.055722
C118	C	1.179106	0.092452	0.268071
C119	C	1.193635	0.003731	0.243791
H120	H	1.220651	0.133964	0.233945
H121	H	1.187890	0.101213	0.335104
H122	H	1.118925	0.102350	0.251615
H123	H	1.253814	-0.006170	0.260254
H124	H	1.184858	-0.005035	0.176743
H125	H	1.218414	0.168238	0.000072
H126	H	0.358072	0.028572	0.000080
H127	H	0.620472	-0.357443	0.000051
H128	H	0.832411	0.430643	0.000044
C129	C	0.248312	-0.296511	-0.081996
C130	C	0.303029	-0.292526	0.000077
H131	H	0.209175	-0.351626	-0.081987
H132	H	0.285442	-0.293806	-0.137664
H133	H	0.213197	-0.246811	-0.081988
H134	H	0.338149	-0.342223	0.000065
H135	H	0.265895	-0.295240	0.055759
H136	H	0.954016	-0.235731	0.258171
C137	C	1.179116	0.092456	0.731993
C138	C	1.193678	0.003747	0.756279
H139	H	1.220664	0.133986	0.766088
H140	H	1.118943	0.102340	0.748475
H141	H	1.187878	0.101207	0.664946
H142	H	1.184909	-0.005006	0.823326
H143	H	1.253865	-0.006141	0.739804
H144	H	0.835652	0.260019	0.000048
H145	H	0.680397	0.104764	0.000053
H146	H	0.772178	-0.277998	0.000051
