data_functionalizedCrystal
_audit_creation_method	'MofGen! by Chris Wilmer'
_symmetry_space_group_name_H-M	'P1'
_symmetry_Int_Tables_number	1
_symmetry_cell_setting	triclinic
loop_
_symmetry_equiv_pos_as_xyz
  x,y,z
_cell_length_a	16.974800
_cell_length_b	10.540510
_cell_length_c	9.616153
_cell_angle_alpha	89.995953
_cell_angle_beta	93.654593
_cell_angle_gamma	83.950335
loop_
_atom_site_label
_atom_site_type_symbol
_atom_site_fract_x
_atom_site_fract_y
_atom_site_fract_z
O1	O	1.050051	0.161695	0.002584
O2	O	0.819958	0.182322	-0.023323
O3	O	0.940266	-0.012787	-0.009776
O4	O	0.929743	0.356804	-0.010962
O5	O	0.940262	-0.012800	0.221515
O6	O	0.819954	0.182309	0.207968
O7	O	1.050046	0.161681	0.233875
Zn8	Zn	0.934999	0.171993	0.257644
Zn9	Zn	0.935005	0.172011	-0.047092
O10	O	0.929738	0.356790	0.220329
C11	C	0.790493	0.181534	0.089005
C12	C	0.702703	0.179191	0.079120
C13	C	0.661461	0.178080	0.200556
C14	C	0.578975	0.175859	0.191272
C15	C	0.537731	0.174757	0.060551
C16	C	0.578978	0.175865	-0.060894
C17	C	0.661464	0.178077	-0.051609
C18	C	0.291035	0.168132	0.019261
C19	C	0.208543	0.165923	0.009984
C20	C	0.208545	0.165915	0.262152
C21	C	0.291032	0.168135	0.271426
C22	C	0.332273	0.169236	0.149981
N23	N	0.453416	0.172490	0.051058
N24	N	0.416587	0.171493	0.159475
C25	C	0.939480	-0.060084	0.105778
C26	C	0.937134	-0.200996	0.105506
C27	C	1.020711	-0.419821	0.115446
C28	C	1.023214	-0.273267	0.115199
C29	C	0.893072	-0.245024	-0.031532
C30	C	0.891179	-0.391754	-0.031848
C31	C	0.889380	-0.391549	0.230971
C32	C	0.893463	-0.245275	0.233169
C33	C	1.079511	0.162469	0.121544
C34	C	1.167301	0.164812	0.131420
C35	C	0.930525	0.404088	0.104771
C36	C	0.932871	0.544999	0.105035
N37	N	0.935001	0.171980	0.465619
N38	N	0.935010	0.172014	-0.255066
C39	C	0.999598	0.067962	0.693219
C40	C	0.999424	0.067572	0.532032
C41	C	0.852347	0.143203	0.514843
C42	C	0.852731	0.142475	0.676104
C43	C	0.952334	0.305146	0.687444
C44	C	0.954199	0.304243	0.526426
H45	H	0.324608	0.169026	0.377873
H46	H	0.174964	0.165030	-0.096470
H47	H	0.829701	-0.196596	-0.043578
F48	F	1.080146	0.089974	0.752940
H49	H	1.054245	-0.462331	0.213940
H50	H	0.988611	-0.030280	0.732513
F51	F	1.064297	-0.477390	-0.002749
H52	H	1.060840	0.084685	0.499373
H53	H	0.988277	-0.031234	0.492224
F54	F	0.832921	0.015575	0.723047
F55	F	0.334916	0.169305	-0.109993
F56	F	1.068540	-0.236868	-0.003663
H57	H	0.545392	0.174959	-0.167330
H58	H	0.830618	-0.195178	0.234069
F59	F	0.930547	-0.444961	-0.156456
F60	F	0.705348	0.179261	0.339689
F61	F	0.896768	0.410173	0.467322
F62	F	0.787974	0.237772	0.719823
H63	H	0.545401	0.174932	0.290158
H64	H	0.826796	-0.413694	-0.045081
H65	H	1.057689	-0.244493	0.213756
F66	F	0.924895	-0.447689	0.365819
H67	H	0.174958	0.165016	0.361025
F68	F	0.705357	0.179255	-0.180858
F69	F	0.933073	-0.205348	-0.155504
H70	H	0.925525	-0.217194	0.334488
F71	F	0.804906	-0.419117	0.222626
H72	H	0.905244	0.382577	0.720296
F73	F	0.787968	0.239623	0.457511
H74	H	0.836837	0.047218	0.472734
F75	F	1.029486	0.341345	0.749249
F76	F	1.033675	0.332799	0.485363
