data_functionalizedCrystal
_audit_creation_method	'MofGen! by Chris Wilmer'
_symmetry_space_group_name_H-M	'P1'
_symmetry_Int_Tables_number	1
_symmetry_cell_setting	triclinic
loop_
_symmetry_equiv_pos_as_xyz
  x,y,z
_cell_length_a	9.065218
_cell_length_b	23.532357
_cell_length_c	8.140239
_cell_angle_alpha	89.990966
_cell_angle_beta	89.997198
_cell_angle_gamma	83.922088
loop_
_atom_site_label
_atom_site_type_symbol
_atom_site_fract_x
_atom_site_fract_y
_atom_site_fract_z
O1	O	1.956245	0.083499	-0.136641
O2	O	2.456245	0.583499	0.363359
O3	O	1.526619	0.090348	-0.136645
O4	O	2.026619	0.590348	0.363355
O5	O	1.754426	0.004085	-0.136609
O6	O	2.254426	0.504085	0.363391
O7	O	1.728438	0.169762	-0.136677
O8	O	2.228438	0.669762	0.363323
O9	O	1.754413	0.004084	0.136618
O10	O	2.254413	0.504084	0.636618
O11	O	1.526607	0.090347	0.136582
O12	O	2.026607	0.590347	0.636582
O13	O	1.956232	0.083498	0.136586
O14	O	2.456232	0.583498	0.636586
Zn15	Zn	1.741417	0.086922	0.179965
Zn16	Zn	2.241417	0.586922	0.679965
Zn17	Zn	1.741434	0.086924	-0.180024
Zn18	Zn	2.241434	0.586924	0.319976
O19	O	1.728426	0.169761	0.136550
O20	O	2.228426	0.669761	0.636550
C21	C	1.471659	0.089689	-0.000032
C22	C	1.971659	0.589689	0.499968
C23	C	1.307914	0.087721	-0.000032
C24	C	1.807914	0.587721	0.499968
C25	C	1.753769	-0.017137	0.000009
C26	C	2.253769	0.482863	0.500009
C27	C	1.751815	-0.080370	0.000025
C28	C	2.251815	0.419630	0.500025
C29	C	1.739553	-0.472470	-0.149000
C30	C	2.239553	0.027530	0.351000
C31	C	1.737695	-0.531883	-0.149010
C32	C	2.237695	-0.031883	0.350990
O33	O	1.736690	-0.562607	-0.275674
O34	O	2.236690	-0.062607	0.224326
N35	N	1.736767	-0.561602	-0.000075
N36	N	2.236767	-0.061602	0.499925
C37	C	1.737682	-0.531904	0.148878
C38	C	2.237682	-0.031904	0.648878
O39	O	1.736720	-0.562637	0.275557
O40	O	2.236720	-0.062637	0.775557
C41	C	1.739529	-0.472491	0.148885
C42	C	2.239529	0.027509	0.648885
C43	C	1.740472	-0.442776	-0.000058
C44	C	2.240472	0.057224	0.499942
C45	C	1.740494	-0.442755	-0.297932
C46	C	2.240494	0.057245	0.202068
C47	C	1.742354	-0.383347	-0.297922
C48	C	2.242354	0.116653	0.202078
C49	C	1.743274	-0.353653	-0.148980
C50	C	2.243274	0.146347	0.351020
C51	C	1.742332	-0.383367	-0.000048
C52	C	2.242332	0.116633	0.499952
C53	C	1.740433	-0.442793	0.297837
C54	C	2.240433	0.057207	0.797837
C55	C	1.742279	-0.383377	0.297832
C56	C	2.242279	0.116623	0.797832
C57	C	1.743222	-0.353662	0.148888
C58	C	2.243222	0.146338	0.648888
C59	C	1.745112	-0.294265	0.148903
C60	C	2.245112	0.205735	0.648903
N61	N	1.746040	-0.264546	-0.000031
N62	N	2.246040	0.235454	0.499969
C63	C	1.745121	-0.294240	-0.148972
C64	C	2.245121	0.205760	0.351028
C65	C	1.733800	-0.656674	0.148850
C66	C	2.233800	-0.156674	0.648850
C67	C	1.731963	-0.716086	0.148844
C68	C	2.231963	-0.216086	0.648844
C69	C	1.731974	-0.716061	-0.149044
C70	C	2.231974	-0.216061	0.350956
C71	C	1.733821	-0.656649	-0.149036
C72	C	2.233821	-0.156649	0.350964
C73	C	1.734728	-0.626955	-0.000084
C74	C	2.234728	-0.126955	0.499916
C75	C	1.749029	-0.169477	-0.148940
C76	C	2.249029	0.330523	0.351060
C77	C	1.750896	-0.110063	-0.148917
C78	C	2.250896	0.389937	0.351083
C79	C	1.750877	-0.110093	0.148970
C80	C	2.250877	0.389907	0.648970
C81	C	1.749019	-0.169502	0.148948
C82	C	2.249019	0.330498	0.648948
C83	C	1.748089	-0.199192	-0.000021
C84	C	2.248089	0.300808	0.499979
O85	O	1.746112	-0.263503	0.275503
O86	O	2.246112	0.236497	0.775503
O87	O	1.746063	-0.263499	-0.275630
O88	O	2.246063	0.236501	0.224370
C89	C	2.011192	0.084157	-0.000031
C90	C	2.511192	0.584157	0.499969
C91	C	2.174937	0.086125	-0.000042
C92	C	2.674937	0.586125	0.499958
C93	C	1.729082	0.190983	-0.000072
C94	C	2.229082	0.690983	0.499928
C95	C	1.731036	0.254216	-0.000099
C96	C	2.231036	0.754216	0.499901
N97	N	1.741417	0.086921	0.425647
N98	N	2.241417	0.586921	0.925647
N99	N	1.741446	0.086921	-0.425706
N100	N	2.241446	0.586921	0.074294
H101	H	1.751667	-0.085872	-0.270210
H102	H	2.251667	0.414128	0.229790
H103	H	1.751633	-0.085905	0.270234
H104	H	2.251633	0.414095	0.770234
H105	H	1.748265	-0.193644	-0.270244
H106	H	2.248265	0.306356	0.229756
C107	C	1.733618	-0.662676	0.443301
C108	C	2.233618	-0.162676	0.943301
C109	C	1.734819	-0.624038	0.312594
C110	C	2.234819	-0.124038	0.812594
H111	H	1.734253	-0.642529	0.544386
H112	H	2.234253	-0.142529	1.044386
H113	H	1.646866	-0.681945	0.437093
H114	H	2.146866	-0.181945	0.937093
H115	H	1.818939	-0.689751	0.437078
H116	H	2.318939	-0.189751	0.937078
H117	H	1.649492	-0.596965	0.318809
H118	H	2.149492	-0.096965	0.818809
H119	H	1.821579	-0.604760	0.318805
H120	H	2.321579	-0.104760	0.818805
H121	H	1.743117	-0.359158	-0.419207
H122	H	2.243117	0.140842	0.080793
H123	H	1.739740	-0.466926	-0.419225
H124	H	2.239740	0.033074	0.080775
C125	C	1.856675	-0.788666	0.321683
C126	C	2.356675	-0.288666	0.821683
C127	C	1.730924	-0.748748	0.312562
C128	C	2.230924	-0.248748	0.812562
H129	H	1.856022	-0.808826	0.422762
H130	H	2.356022	-0.308826	0.922762
H131	H	1.855854	-0.814853	0.232990
H132	H	2.355854	-0.314853	0.732990
H133	H	1.943432	-0.769389	0.315509
H134	H	2.443432	-0.269389	0.815509
H135	H	1.644166	-0.768025	0.318723
H136	H	2.144166	-0.268025	0.818723
H137	H	1.731732	-0.722558	0.401279
H138	H	2.231732	-0.222558	0.901279
H139	H	1.739667	-0.466977	0.419123
H140	H	2.239667	0.033023	0.919123
C141	C	1.729111	-0.807129	-0.281304
C142	C	2.229111	-0.307129	0.218696
C143	C	1.730944	-0.748708	-0.312768
C144	C	2.230944	-0.248708	0.187232
H145	H	1.728466	-0.827283	-0.382376
H146	H	2.228466	-0.327283	0.117624
H147	H	1.814839	-0.820768	-0.220123
H148	H	2.314839	-0.320768	0.279877
H149	H	1.642767	-0.812957	-0.220096
H150	H	2.142767	-0.312957	0.279904
H151	H	1.817294	-0.742879	-0.373966
H152	H	2.317294	-0.242879	0.126034
H153	H	1.645207	-0.735065	-0.373974
H154	H	2.145207	-0.235065	0.126026
C155	C	1.620126	-0.230585	0.321754
C156	C	2.120126	0.269415	0.821754
C157	C	1.748018	-0.202176	0.312655
C158	C	2.248018	0.297824	0.812655
H159	H	1.619513	-0.250757	0.422816
H160	H	2.119513	0.249243	0.922816
H161	H	1.534831	-0.203504	0.315594
H162	H	2.034831	0.296496	0.815594
H163	H	1.619315	-0.256768	0.233032
H164	H	2.119315	0.243232	0.733032
H165	H	1.748824	-0.175989	0.401371
H166	H	2.248824	0.324011	0.901371
H167	H	1.833336	-0.229260	0.318831
H168	H	2.333336	0.270740	0.818831
H169	H	1.734587	-0.632459	-0.270319
H170	H	2.234587	-0.132459	0.229681
H171	H	1.742995	-0.359202	0.419129
H172	H	2.242995	0.140798	0.919129
