data_functionalizedCrystal
_audit_creation_method	'MofGen! by Chris Wilmer'
_symmetry_space_group_name_H-M	'P1'
_symmetry_Int_Tables_number	1
_symmetry_cell_setting	triclinic
loop_
_symmetry_equiv_pos_as_xyz
  x,y,z
_cell_length_a	16.625547
_cell_length_b	12.645330
_cell_length_c	16.625539
_cell_angle_alpha	89.975479
_cell_angle_beta	89.978691
_cell_angle_gamma	90.012583
loop_
_atom_site_label
_atom_site_type_symbol
_atom_site_fract_x
_atom_site_fract_y
_atom_site_fract_z
Zn1	Zn	1.232708	-0.422059	-0.456012
Zn2	Zn	1.566041	-0.088725	-0.122678
Zn3	Zn	1.899374	0.244608	0.210655
Zn4	Zn	1.232642	-0.599339	-0.321183
Zn5	Zn	1.565976	-0.266006	0.012150
Zn6	Zn	1.899309	0.067328	0.345483
Zn7	Zn	1.097878	-0.422090	-0.321182
Zn8	Zn	1.431211	-0.088756	0.012151
Zn9	Zn	1.764544	0.244577	0.345485
Zn10	Zn	1.097863	-0.599280	-0.455963
Zn11	Zn	1.431196	-0.265947	-0.122630
Zn12	Zn	1.764530	0.067386	0.210703
O13	O	1.165273	-0.510692	-0.388585
O14	O	1.498606	-0.177359	-0.055252
O15	O	1.831939	0.155975	0.278082
O16	O	1.345531	-0.445587	-0.438147
O17	O	1.678865	-0.112253	-0.104814
O18	O	2.012198	0.221080	0.228520
O19	O	1.214744	-0.575864	-0.208351
O20	O	1.548078	-0.242531	0.124983
O21	O	1.881411	0.090803	0.458316
O22	O	1.115797	-0.273738	-0.339087
O23	O	1.449130	0.059595	-0.005754
O24	O	1.782463	0.392928	0.327579
O25	O	1.345483	-0.575834	-0.339089
O26	O	1.678817	-0.242500	-0.005756
O27	O	2.012150	0.090833	0.327577
O28	O	1.214856	-0.273716	-0.438146
O29	O	1.548189	0.059618	-0.104813
O30	O	1.881522	0.392951	0.228521
O31	O	1.115733	-0.445640	-0.208350
O32	O	1.449067	-0.112306	0.124983
O33	O	1.782400	0.221027	0.458317
O34	O	0.985043	-0.445583	-0.339040
O35	O	1.318377	-0.112250	-0.005707
O36	O	1.651710	0.221084	0.327626
O37	O	1.115772	-0.575734	-0.568802
O38	O	1.449105	-0.242401	-0.235469
O39	O	1.782438	0.090933	0.097865
O40	O	0.985032	-0.575764	-0.438063
O41	O	1.318366	-0.242431	-0.104730
O42	O	1.651699	0.090903	0.228603
O43	O	1.214841	-0.445530	-0.568838
O44	O	1.548175	-0.112197	-0.235504
O45	O	1.881508	0.221137	0.097829
O46	O	1.214730	-0.747678	-0.339042
O47	O	1.548063	-0.414345	-0.005709
O48	O	1.881397	-0.081012	0.327624
O49	O	1.115708	-0.747635	-0.438065
O50	O	1.449041	-0.414302	-0.104731
O51	O	1.782375	-0.080969	0.228602
C52	C	0.955782	-0.510671	-0.388547
C53	C	1.289115	-0.177338	-0.055214
C54	C	1.622448	0.155995	0.278120
C55	C	0.866161	-0.510688	-0.388550
C56	C	1.199494	-0.177355	-0.055216
C57	C	1.532827	0.155979	0.278117
C58	C	0.793378	-0.510690	-0.388560
C59	C	1.126712	-0.177357	-0.055226
C60	C	1.460045	0.155977	0.278107
C61	C	0.702070	-0.510696	-0.388580
C62	C	1.035403	-0.177362	-0.055247
C63	C	1.368736	0.155971	0.278087
C64	C	0.629293	-0.510705	-0.388600
C65	C	0.962627	-0.177372	-0.055267
C66	C	1.295960	0.155961	0.278066
C67	C	0.537979	-0.510713	-0.388620
C68	C	0.871312	-0.177379	-0.055286
C69	C	1.204646	0.155954	0.278047
C70	C	1.165232	-0.786122	-0.388566
C71	C	1.498566	-0.452788	-0.055233
C72	C	1.831899	-0.119455	0.278101
C73	C	1.165289	-0.903952	-0.388585
C74	C	1.498622	-0.570618	-0.055251
C75	C	1.831955	-0.237285	0.278082
C76	C	1.227483	-1.071499	-0.326163
C77	C	1.560817	-0.738165	0.007170
C78	C	1.894150	-0.404832	0.340503
C79	C	1.227686	-0.948938	-0.326316
C80	C	1.561019	-0.615605	0.007017
C81	C	1.894352	-0.282272	0.340350
C82	C	1.188327	-0.948339	-0.473579
C83	C	1.521660	-0.615005	-0.140246
C84	C	1.854993	-0.281672	0.193087
C85	C	1.188820	-1.070937	-0.473248
C86	C	1.522154	-0.737603	-0.139915
C87	C	1.855487	-0.404270	0.193419
C88	C	1.080032	-1.071278	-0.366849
C89	C	1.413365	-0.737944	-0.033516
C90	C	1.746698	-0.404611	0.299817
C91	C	1.080440	-0.948673	-0.364943
C92	C	1.413774	-0.615340	-0.031610
C93	C	1.747107	-0.282007	0.301723
C94	C	1.375581	-0.510713	-0.388624
C95	C	1.708915	-0.177380	-0.055290
C96	C	2.042248	0.155953	0.278043
C97	C	1.465203	-0.510722	-0.388640
C98	C	1.798536	-0.177389	-0.055307
C99	C	2.131869	0.155944	0.278026
C100	C	1.165312	-0.510622	-0.598894
C101	C	1.498645	-0.177289	-0.265561
C102	C	1.831979	0.156045	0.067773
C103	C	1.165329	-0.510592	-0.688515
C104	C	1.498662	-0.177259	-0.355182
C105	C	1.831996	0.156075	-0.021849
C106	C	1.165335	-0.234187	-0.388622
C107	C	1.498668	0.099147	-0.055289
C108	C	1.832002	0.432480	0.278045
C109	C	1.165362	-0.116357	-0.388638
C110	C	1.498695	0.216977	-0.055304
C111	C	1.832028	0.550310	0.278029
C112	C	1.165342	-0.510569	-0.761298
C113	C	1.498675	-0.177235	-0.427964
C114	C	1.832009	0.156098	-0.094631
C115	C	1.165361	-0.510529	-0.852606
C116	C	1.498694	-0.177196	-0.519273
C117	C	1.832028	0.156137	-0.185940
C118	C	1.165380	-0.510492	-0.925383
C119	C	1.498713	-0.177159	-0.592049
C120	C	1.832047	0.156175	-0.258716
C121	C	1.165400	-0.510454	-1.016697
C122	C	1.498733	-0.177120	-0.683364
C123	C	1.832067	0.156213	-0.350030
C124	C	1.165280	-0.510685	-0.179094
C125	C	1.498613	-0.177352	0.154239
C126	C	1.831946	0.155982	0.487572
C127	C	1.165419	-0.510416	-0.089474
C128	C	1.498752	-0.177083	0.243860
C129	C	1.832086	0.156250	0.577193
H130	H	1.213272	-0.918932	-0.263295
H131	H	1.546606	-0.585598	0.070039
H132	H	1.879939	-0.252265	0.403372
H133	H	1.063069	-0.919673	-0.302395
H134	H	1.396403	-0.586340	0.030939
H135	H	1.729736	-0.253006	0.364272
Cl136	Cl	1.205516	-1.117126	-0.228575
Cl137	Cl	1.538849	-0.783793	0.104758
Cl138	Cl	1.872183	-0.450459	0.438092
Cl139	Cl	1.324540	-1.118938	-0.348164
Cl140	Cl	1.657874	-0.785604	-0.014831
Cl141	Cl	1.991207	-0.452271	0.318503
H142	H	1.031659	-0.918061	-0.407109
H143	H	1.364992	-0.584728	-0.073776
H144	H	1.698325	-0.251395	0.259557
Cl145	Cl	1.325263	-0.903528	-0.348573
Cl146	Cl	1.658596	-0.570195	-0.015240
Cl147	Cl	1.991930	-0.236861	0.318094
Cl148	Cl	1.285118	-1.114965	-0.501738
Cl149	Cl	1.618451	-0.781631	-0.168405
Cl150	Cl	1.951785	-0.448298	0.164928
H151	H	1.059080	-1.102283	-0.305951
H152	H	1.392413	-0.768950	0.027383
H153	H	1.725747	-0.435617	0.360716
H154	H	1.145555	-1.100607	-0.521400
H155	H	1.478889	-0.767274	-0.188067
H156	H	1.812222	-0.433940	0.145267
Cl157	Cl	1.120592	-0.903360	-0.547374
Cl158	Cl	1.453925	-0.570026	-0.214040
Cl159	Cl	1.787259	-0.236693	0.119293
H160	H	1.249994	-0.917552	-0.492342
H161	H	1.583328	-0.584218	-0.159008
H162	H	1.916661	-0.250885	0.174325
Cl163	Cl	1.008569	-1.116070	-0.437098
Cl164	Cl	1.341902	-0.782736	-0.103765
Cl165	Cl	1.675236	-0.449403	0.229569
