data_functionalizedCrystal
_audit_creation_method	'MofGen! by Chris Wilmer'
_symmetry_space_group_name_H-M	'P1'
_symmetry_Int_Tables_number	1
_symmetry_cell_setting	triclinic
loop_
_symmetry_equiv_pos_as_xyz
  x,y,z
_cell_length_a	10.685661
_cell_length_b	10.685594
_cell_length_c	12.759393
_cell_angle_alpha	94.342232
_cell_angle_beta	85.614593
_cell_angle_gamma	90.338790
loop_
_atom_site_label
_atom_site_type_symbol
_atom_site_fract_x
_atom_site_fract_y
_atom_site_fract_z
Zn1	Zn	1.879688	-0.646547	-0.755062
Zn2	Zn	1.863486	-0.856350	-0.591744
Zn3	Zn	1.669891	-0.630511	-0.565006
Zn4	Zn	1.653813	-0.840160	-0.752989
O5	O	1.766720	-0.743392	-0.666200
O6	O	2.053088	-0.687865	-0.745455
O7	O	1.837753	-0.826456	-0.441177
O8	O	1.711230	-0.457096	-0.579894
O9	O	2.041184	-0.842006	-0.625466
O10	O	1.865367	-0.468878	-0.719528
O11	O	1.695520	-0.660533	-0.421532
O12	O	1.492209	-0.644834	-0.577885
O13	O	1.683828	-0.814412	-0.900284
O14	O	1.480397	-0.798863	-0.715995
O15	O	1.849778	-0.672166	-0.901807
O16	O	1.822163	-1.029745	-0.623456
O17	O	1.668118	-1.017850	-0.741922
C18	C	1.440785	-0.718352	-0.643814
C19	C	1.301346	-0.707671	-0.634264
C20	C	1.741671	-1.069316	-0.685391
C21	C	1.731071	-1.208756	-0.693644
C22	C	2.093927	-0.768530	-0.688674
C23	C	2.233363	-0.779243	-0.698251
C24	C	1.766817	-0.743272	-0.940232
C25	C	1.766858	-0.743221	-1.057008
C26	C	1.791900	-0.416198	-0.646960
C27	C	1.802630	-0.276767	-0.638761
C28	C	1.692827	-0.656812	-1.101642
C29	C	1.692860	-0.656776	-1.211366
C30	C	1.840964	-0.829561	-1.231814
C31	C	1.840924	-0.829602	-1.122091
C32	C	1.548416	-0.600530	-1.348522
C33	C	1.474398	-0.514103	-1.393159
C34	C	1.464546	-0.390235	-1.349033
C35	C	1.528734	-0.352771	-1.260272
C36	C	1.602762	-0.439192	-1.215640
C37	C	1.612588	-0.563076	-1.259764
C38	C	1.985371	-0.885835	-0.984933
C39	C	2.059407	-0.972251	-0.940300
C40	C	2.069270	-1.096122	-0.984425
C41	C	2.005105	-1.133584	-1.073191
C42	C	1.931070	-1.047167	-1.117824
C43	C	1.921204	-0.923297	-1.073691
C44	C	1.766702	-0.743427	-0.393234
C45	C	1.766930	-0.743143	-0.276454
H46	H	1.252868	-0.638215	-0.572173
O47	O	1.557840	-0.720933	-1.391232
C48	C	1.524407	-0.939680	-1.363966
C49	C	1.513635	-0.803382	-1.315468
H50	H	1.488699	-1.006379	-1.302727
H51	H	1.465783	-0.951696	-1.435044
H52	H	1.626813	-0.961869	-1.390019
H53	H	1.411269	-0.781101	-1.289352
H54	H	1.572335	-0.791436	-1.244435
H55	H	1.655028	-0.408688	-1.143376
O56	O	1.620988	-0.572963	-1.038268
C57	C	1.555220	-0.496500	-0.860174
C58	C	1.636666	-0.591506	-0.931818
H59	H	1.567847	-0.511476	-0.774095
H60	H	1.585044	-0.397006	-0.877237
H61	H	1.452394	-0.510740	-0.876160
H62	H	1.739513	-0.577381	-0.915873
H63	H	1.606737	-0.690966	-0.914741
H64	H	1.520719	-0.251900	-1.224358
O65	O	1.648277	-1.266348	-0.757320
C66	C	1.489998	-1.240590	-0.878723
C67	C	1.583730	-1.175199	-0.806668
H68	H	1.437768	-1.166925	-0.918624
H69	H	1.542899	-1.306218	-0.941299
H70	H	1.419870	-1.297048	-0.829523
H71	H	1.653882	-1.118675	-0.855781
H72	H	1.530746	-1.109644	-0.744089
H73	H	1.872016	-1.228314	-0.585460
H74	H	1.404278	-0.319865	-1.385384
H75	H	1.281836	-0.848682	-0.760346
H76	H	1.422135	-0.544618	-1.465429
O77	O	1.912883	-0.913341	-1.295190
C78	C	1.978527	-0.989903	-1.473284
C79	C	1.897040	-0.894936	-1.401637
H80	H	1.965726	-0.975073	-1.559360
H81	H	2.081398	-0.975659	-1.457443
H82	H	1.948716	-1.089356	-1.456079
H83	H	1.926740	-0.795445	-1.418800
H84	H	1.794187	-0.909290	-1.417491
H85	H	1.878825	-1.077678	-1.190104
H86	H	2.013142	-1.234448	-1.109123
H87	H	2.129570	-1.166479	-0.948081
H88	H	2.111667	-0.941735	-0.868030
H89	H	1.977310	-0.784980	-0.948975
