data_functionalizedCrystal
_audit_creation_method	'MofGen! by Chris Wilmer'
_symmetry_space_group_name_H-M	'P1'
_symmetry_Int_Tables_number	1
_symmetry_cell_setting	triclinic
loop_
_symmetry_equiv_pos_as_xyz
  x,y,z
_cell_length_a	13.033291
_cell_length_b	18.101395
_cell_length_c	13.032268
_cell_angle_alpha	97.146252
_cell_angle_beta	89.079236
_cell_angle_gamma	97.200752
loop_
_atom_site_label
_atom_site_type_symbol
_atom_site_fract_x
_atom_site_fract_y
_atom_site_fract_z
Zn1	Zn	1.498388	-0.230406	-0.781468
Zn2	Zn	1.520096	-0.336832	-0.609490
Zn3	Zn	1.348249	-0.226495	-0.587644
Zn4	Zn	1.326337	-0.367705	-0.759528
O5	O	1.423267	-0.290359	-0.684533
O6	O	1.645190	-0.233239	-0.776979
O7	O	1.515556	-0.307639	-0.462684
O8	O	1.368251	-0.123377	-0.613395
O9	O	1.661139	-0.311431	-0.650627
O10	O	1.478557	-0.126250	-0.755797
O11	O	1.389301	-0.226574	-0.446635
O12	O	1.201420	-0.256510	-0.592121
O13	O	1.330904	-0.364049	-0.906346
O14	O	1.185321	-0.360257	-0.718403
O15	O	1.457309	-0.263176	-0.922466
O16	O	1.494308	-0.444565	-0.629353
O17	O	1.351954	-0.467247	-0.739586
C18	C	1.156053	-0.311310	-0.650511
C19	C	1.041734	-0.320293	-0.635981
C20	C	0.864711	-0.294968	-0.677107
C21	C	0.982866	-0.285685	-0.692124
C22	C	1.423134	-0.482778	-0.684485
C23	C	1.423166	-0.565091	-0.684511
C24	C	1.423385	-0.864170	-0.684595
C25	C	1.333979	-0.847152	-0.754171
C26	C	1.333633	-0.761539	-0.753874
C27	C	1.423276	-0.715794	-0.684554
C28	C	1.407705	-0.738260	-0.572443
C29	C	1.407133	-0.823994	-0.572854
C30	C	1.528657	-0.826791	-0.726199
C31	C	1.527715	-0.741431	-0.728494
C32	C	1.423217	-0.631937	-0.684525
C33	C	1.423442	-0.948026	-0.684617
C34	C	1.691525	-0.269328	-0.718687
C35	C	1.805841	-0.260365	-0.733242
C36	C	1.389241	-0.317492	-0.952763
C37	C	1.374741	-0.329055	-1.067067
C38	C	1.423427	-0.097190	-0.684607
C39	C	1.423495	-0.014872	-0.684638
C40	C	1.430819	-0.284300	-1.126002
C41	C	1.415834	-0.296249	-1.244142
C42	C	1.457221	-0.263274	-0.417353
C43	C	1.471920	-0.251487	-0.303076
H44	H	1.004668	-0.356794	-0.576800
O45	O	0.854934	-0.212011	-0.811624
H46	H	0.824145	-0.234560	-0.889712
H47	H	1.341780	-0.747181	-0.836571
H48	H	1.341910	-0.874447	-0.837105
H49	H	1.545538	-0.854115	-0.807285
O50	O	1.509110	-0.221824	-1.076993
H51	H	1.547905	-0.190854	-1.138134
O52	O	1.543607	-0.722859	-0.837870
H53	H	1.548758	-0.775255	-0.890828
O54	O	1.490641	-0.837456	-0.500868
H55	H	1.490867	-0.898733	-0.500633
H56	H	1.256131	-0.873187	-0.725816
O57	O	1.229918	-0.740384	-0.715900
H58	H	1.179816	-0.791334	-0.697669
O59	O	1.492043	-0.697279	-0.501088
H60	H	1.546078	-0.660372	-0.544879
O61	O	1.550225	-0.189013	-1.254075
H62	H	1.530046	-0.134333	-1.272402
H63	H	0.827640	-0.331462	-0.617926
H64	H	1.596746	-0.709685	-0.682613
O65	O	1.337528	-0.358724	-1.293138
H66	H	1.377362	-0.397714	-1.347923
O67	O	1.296446	-0.391529	-1.116075
H68	H	1.218327	-0.383085	-1.085249
H69	H	1.019934	-0.249182	-0.751300
O70	O	1.305747	-0.855664	-0.528304
H71	H	1.240987	-0.844610	-0.576176
O72	O	1.307499	-0.714908	-0.527463
H73	H	1.268643	-0.687306	-0.584754
O74	O	1.616705	-0.839861	-0.659479
H75	H	1.585702	-0.872790	-0.596973
