data_functionalizedCrystal
_audit_creation_method	'MofGen! by Chris Wilmer'
_symmetry_space_group_name_H-M	'P1'
_symmetry_Int_Tables_number	1
_symmetry_cell_setting	triclinic
loop_
_symmetry_equiv_pos_as_xyz
  x,y,z
_cell_length_a	10.967829
_cell_length_b	10.489741
_cell_length_c	10.066291
_cell_angle_alpha	98.832205
_cell_angle_beta	69.181212
_cell_angle_gamma	84.627091
loop_
_atom_site_label
_atom_site_type_symbol
_atom_site_fract_x
_atom_site_fract_y
_atom_site_fract_z
O1	O	0.201819	1.667716	-0.160864
O2	O	0.218996	1.295848	-0.164924
O3	O	0.021729	1.497577	-0.118515
O4	O	0.399086	1.465986	-0.207272
O5	O	-0.016037	1.536016	0.117343
O6	O	0.181230	1.334286	0.070934
O7	O	0.164053	1.706154	0.074995
Zn8	Zn	0.166646	1.526323	0.110412
Zn9	Zn	0.216404	1.475679	-0.200341
O10	O	0.361320	1.504425	0.028586
C11	C	0.198816	1.267585	-0.046693
C12	C	0.194937	1.126106	-0.045788
C13	C	-0.045474	1.517402	0.010776
C14	C	-0.189453	1.519192	0.044632
C15	C	0.069421	1.062857	-0.016253
C16	C	0.147333	0.949469	-0.146486
C17	C	0.110128	0.987399	0.086044
C18	C	0.272916	1.014565	-0.176130
C19	C	0.235677	1.052523	0.056510
C20	C	0.313685	0.939154	-0.073773
C21	C	-0.234073	1.500077	-0.062457
C22	C	-0.382882	1.501926	-0.027469
C23	C	0.428524	1.484599	-0.100708
C24	C	0.572504	1.482809	-0.134573
C25	C	0.184233	1.734416	-0.043240
C26	C	0.188114	1.875894	-0.044153
N27	N	0.132686	1.560896	0.322493
C28	C	0.204594	1.487686	0.373384
C29	C	0.178445	1.514327	0.536693
N30	N	0.250363	1.441106	0.587577
H31	H	-0.033736	1.116541	0.007870
H32	H	0.272999	1.097526	0.142348
H33	H	0.109967	0.904500	-0.232310
C34	C	0.435816	1.399219	0.274737
C35	C	0.313842	1.376445	0.268997
H36	H	0.503262	1.330545	0.210287
H37	H	0.432569	1.402518	0.370779
H38	H	0.454347	1.480032	0.247014
H39	H	0.295306	1.295636	0.296731
H40	H	0.317087	1.373132	0.172935
C41	C	0.481589	1.352636	0.488952
C42	C	0.359618	1.329858	0.483203
H43	H	0.549037	1.283961	0.424509
H44	H	0.478335	1.355942	0.584997
H45	H	0.500122	1.433447	0.461223
H46	H	0.341081	1.249051	0.510942
H47	H	0.362871	1.326538	0.387137
H48	H	-0.261418	1.536917	0.162217
H49	H	0.041256	0.974513	0.196853
C50	C	0.096549	1.744679	0.600185
C51	C	0.069192	1.625575	0.641071
H52	H	0.029104	1.813355	0.664631
H53	H	0.099784	1.741362	0.504145
H54	H	0.179306	1.760103	0.604075
H55	H	-0.013562	1.610146	0.637171
H56	H	0.065943	1.628891	0.737136
C57	C	-0.098535	1.649362	0.421130
C58	C	0.023437	1.672138	0.426876
H59	H	-0.165980	1.718044	0.485564
H60	H	-0.117070	1.568563	0.448857
H61	H	-0.095278	1.646055	0.325071
H62	H	0.020184	1.675435	0.522933
H63	H	0.041977	1.752958	0.399157
H64	H	-0.355533	1.465058	-0.252168
H65	H	0.341741	1.027286	-0.287034
H66	H	-0.162105	1.482337	-0.180044
H67	H	-0.454844	1.519653	0.090125
C68	C	0.538030	0.879882	-0.243892
C69	C	0.453128	0.866974	-0.106649
H70	H	0.624112	0.835311	-0.264193
H71	H	0.541365	0.969820	-0.245424
H72	H	0.506199	0.843247	-0.315140
H73	H	0.484953	0.903618	-0.035400
H74	H	0.449797	0.777018	-0.105107
