data_functionalizedCrystal
_audit_creation_method	'MofGen! by Chris Wilmer'
_symmetry_space_group_name_H-M	'P1'
_symmetry_Int_Tables_number	1
_symmetry_cell_setting	triclinic
loop_
_symmetry_equiv_pos_as_xyz
  x,y,z
_cell_length_a	16.625548
_cell_length_b	16.120484
_cell_length_c	16.120728
_cell_angle_alpha	84.367400
_cell_angle_beta	87.110992
_cell_angle_gamma	92.926626
loop_
_atom_site_label
_atom_site_type_symbol
_atom_site_fract_x
_atom_site_fract_y
_atom_site_fract_z
Zn1	Zn	1.191060	-0.356887	0.489462
Zn2	Zn	1.190985	-0.489533	0.356770
Zn3	Zn	1.063452	-0.349779	0.349706
Zn4	Zn	1.048986	-0.496623	0.496495
O5	O	1.123621	-0.423205	0.423108
O6	O	1.303882	-0.374490	0.471873
O7	O	1.180090	-0.465052	0.238870
O8	O	1.086465	-0.233755	0.362345
O9	O	1.303826	-0.471944	0.374385
O10	O	1.180218	-0.238977	0.465023
O11	O	1.086392	-0.362376	0.233679
O12	O	0.948702	-0.369251	0.369165
O13	O	1.061810	-0.484028	0.612526
O14	O	0.938074	-0.477136	0.477010
O15	O	1.166191	-0.381365	0.607359
O16	O	1.166063	-0.607440	0.381205
O17	O	1.061737	-0.612649	0.483860
C18	C	0.914132	-0.423192	0.423084
C19	C	0.824510	-0.423208	0.423095
C20	C	0.496332	-0.423215	0.423131
C21	C	0.587641	-0.423211	0.423118
C22	C	0.660418	-0.423212	0.423112
C23	C	0.751733	-0.423206	0.423101
C24	C	1.112343	-0.640374	0.434081
C25	C	1.107591	-0.733281	0.438803
C26	C	1.098918	-0.903384	0.447441
C27	C	1.148467	-0.942186	0.398790
C28	C	1.143642	-1.036837	0.403596
C29	C	1.103743	-0.808725	0.442636
C30	C	1.333928	-0.423219	0.423133
C31	C	1.423548	-0.423225	0.423143
C32	C	1.112395	-0.434280	0.641118
C33	C	1.107612	-0.439000	0.734020
C34	C	1.134964	-0.205189	0.412111
C35	C	1.139797	-0.112284	0.407425
C36	C	1.098849	-0.447598	0.904113
C37	C	1.148364	-0.398893	0.942959
C38	C	1.143488	-0.403677	1.037604
C39	C	1.103723	-0.442815	0.809459
C40	C	1.134802	-0.412196	1.205948
C41	C	1.139604	-0.407488	1.113046
H42	H	1.052877	-0.941248	0.492698
C43	C	1.210667	-0.891041	0.337635
C44	C	1.208447	-0.898174	0.243208
C45	C	1.270641	-0.847025	0.182052
C46	C	1.335056	-0.788744	0.215325
C47	C	1.337279	-0.781608	0.309757
C48	C	1.275084	-0.832756	0.370912
H49	H	1.160761	-0.941320	0.218573
H50	H	1.268995	-0.852308	0.112147
H51	H	1.381096	-0.750880	0.170054
H52	H	1.384965	-0.738462	0.334391
H53	H	1.276730	-0.827474	0.440817
H54	H	1.194416	-0.353601	0.905134
C55	C	1.036642	-0.508786	0.955204
C56	C	1.031801	-0.513545	1.051214
C57	C	0.969598	-0.574735	1.102317
C58	C	0.912237	-0.631167	1.057410
C59	C	0.917076	-0.626410	0.961395
C60	C	0.979279	-0.565220	0.910292
H61	H	1.074265	-0.471770	1.084462
H62	H	0.966016	-0.578257	1.173394
H63	H	0.866191	-0.676464	1.095239
H64	H	0.874612	-0.668186	0.928147
H65	H	0.982861	-0.561699	0.839215
