data_functionalizedCrystal
_audit_creation_method	'MofGen! by Chris Wilmer'
_symmetry_space_group_name_H-M	'P1'
_symmetry_Int_Tables_number	1
_symmetry_cell_setting	triclinic
loop_
_symmetry_equiv_pos_as_xyz
  x,y,z
_cell_length_a	15.944551
_cell_length_b	27.732048
_cell_length_c	14.421503
_cell_angle_alpha	89.999321
_cell_angle_beta	89.996859
_cell_angle_gamma	83.070697
loop_
_atom_site_label
_atom_site_type_symbol
_atom_site_fract_x
_atom_site_fract_y
_atom_site_fract_z
O1	O	1.113714	0.062334	-0.077025
O2	O	0.869064	0.070020	-0.077050
O3	O	0.998987	-0.004187	-0.077019
O4	O	0.983791	0.136540	-0.077056
O5	O	0.998966	-0.004176	0.077204
O6	O	0.869042	0.070031	0.077174
O7	O	1.113693	0.062345	0.077198
Cu8	Cu	0.991366	0.066189	0.091268
Cu9	Cu	0.991391	0.066176	-0.091119
O10	O	0.983769	0.136552	0.077168
C11	C	0.837763	0.069706	0.000059
C12	C	0.744530	0.068749	0.000051
C13	C	0.530305	0.020466	0.000081
C14	C	0.469002	0.042882	-0.075965
C15	C	0.573827	0.067019	0.000062
C16	C	0.469003	0.042904	0.076087
C17	C	0.408936	0.065344	0.000077
C18	C	0.513752	0.089447	-0.076047
C19	C	0.513759	0.089463	0.076074
C20	C	0.452474	0.111912	0.000009
C21	C	0.668816	0.067983	0.000053
C22	C	0.313947	0.064384	0.000080
C23	C	0.998658	-0.022190	0.000095
C24	C	0.997697	-0.075849	0.000103
C25	C	1.068426	-0.414358	0.000062
C26	C	1.064862	-0.616033	0.000049
O27	O	1.129539	-0.647008	0.000015
N28	N	0.987823	-0.635490	0.000042
C29	C	0.911669	-0.604525	0.000032
O30	O	0.846061	-0.625703	0.000017
C31	C	0.915234	-0.402851	0.000039
C32	C	0.992278	-0.383397	0.000055
C33	C	1.145464	-0.394903	0.000077
C34	C	1.146354	-0.344487	0.000086
C35	C	1.070206	-0.313526	0.000079
C36	C	0.993168	-0.332981	0.000064
C37	C	0.839081	-0.371887	0.000023
C38	C	0.839979	-0.321466	0.000022
C39	C	0.917024	-0.302012	0.000038
C40	C	0.917911	-0.251604	0.000065
N41	N	0.994950	-0.232147	0.000072
C42	C	1.071098	-0.263108	0.000079
C43	C	0.909803	-0.710408	0.000031
C44	C	0.908912	-0.760826	0.000031
C45	C	1.062105	-0.772330	0.000045
C46	C	1.062995	-0.721911	0.000052
C47	C	0.986842	-0.690950	0.000038
C48	C	1.072961	-0.157231	0.000097
C49	C	1.073845	-0.106810	0.000109
C50	C	0.920652	-0.095310	0.000090
C51	C	0.919768	-0.145727	0.000083
C52	C	0.995930	-0.176686	0.000083
O53	O	0.853269	-0.220600	0.000089
O54	O	1.136697	-0.241921	0.000074
C55	C	1.067536	-0.464774	0.000054
C56	C	0.990498	-0.484228	0.000039
C57	C	0.914350	-0.453268	0.000032
C58	C	0.989607	-0.534647	0.000039
C59	C	1.065754	-0.565608	0.000045
C60	C	1.142794	-0.546150	0.000052
C61	C	1.143684	-0.495734	0.000061
C62	C	0.837311	-0.472725	0.000025
C63	C	0.836427	-0.523141	0.000018
C64	C	0.912575	-0.554102	0.000024
C65	C	1.144993	0.062658	0.000087
C66	C	1.238227	0.063615	0.000090
C67	C	0.984099	0.154554	0.000051
C68	C	0.985059	0.208213	0.000038
N69	N	0.991354	0.066198	0.219549
N70	N	0.991409	0.066163	-0.219401
C71	C	0.931267	0.100495	0.469189
C72	C	1.007044	0.109880	0.530996
C73	C	0.991374	0.066186	0.408710
C74	C	0.915616	0.056813	0.530997
C75	C	0.991387	0.066176	0.591432
C76	C	1.067190	0.075592	0.469157
C77	C	0.975712	0.022507	0.469153
C78	C	1.051545	0.031872	0.530932
C79	C	0.991366	0.066193	0.303449
C80	C	0.991405	0.066169	0.696691
H81	H	0.564143	-0.018169	-0.000003
H82	H	1.136586	-0.090973	0.000125
O83	O	0.766056	-0.291343	0.000134
C84	C	0.761957	-0.261845	0.080022
H85	H	0.828587	-0.259285	0.106664
H86	H	0.723807	-0.278441	0.135943
C87	C	0.637174	-0.213810	0.023035
C88	C	0.719010	-0.210661	0.055753
H89	H	0.610679	-0.182238	0.008068
H90	H	0.639932	-0.233684	-0.030785
H91	H	0.605393	-0.227642	0.069642
H92	H	0.750792	-0.196836	0.009143
H93	H	0.716256	-0.190784	0.109566
H94	H	1.020304	0.146814	0.558160
H95	H	1.102436	0.002852	0.557872
O96	O	0.839144	0.047328	0.563245
C97	C	0.785251	0.041149	0.487777
H98	H	0.824794	0.030256	0.423593
H99	H	0.743352	0.076695	0.473813
C100	C	0.680995	0.014473	0.589739
C101	C	0.729563	0.001091	0.510909
H102	H	0.646641	-0.010234	0.604008
H103	H	0.717302	0.018638	0.640584
H104	H	0.646087	0.044096	0.578092
H105	H	0.764477	-0.028527	0.522561
H106	H	0.693260	-0.003080	0.460066
H107	H	0.962429	-0.014416	0.441967
H108	H	0.533491	0.109118	-0.140408
O109	O	0.846762	-0.065161	0.000041
C110	C	0.864079	-0.016491	0.000070
H111	H	0.930036	-0.014554	-0.029112
H112	H	0.860687	-0.001910	0.074059
C113	C	0.717469	0.011985	-0.024582
C114	C	0.798476	0.014363	-0.060432
H115	H	0.677001	0.031018	-0.061898
H116	H	0.705801	-0.020805	-0.024598
H117	H	0.714654	0.024134	0.037075
H118	H	0.801293	0.002208	-0.122083
H119	H	0.810143	0.047152	-0.060427
O120	O	1.135999	-0.802479	0.000003
C121	C	1.118682	-0.851149	0.000021
H122	H	1.052730	-0.853083	-0.029170
H123	H	1.122058	-0.865733	0.074008
C124	C	1.265296	-0.879625	-0.024617
C125	C	1.184295	-0.882001	-0.060478
H126	H	1.305771	-0.898656	-0.061931
H127	H	1.276964	-0.846835	-0.024625
H128	H	1.268098	-0.891777	0.037038
H129	H	1.181491	-0.869843	-0.122127
H130	H	1.172628	-0.914789	-0.060481
H131	H	0.418809	0.150587	-0.000044
O132	O	0.870791	0.135161	0.436723
C133	C	0.908789	0.168493	0.381628
H134	H	0.972067	0.150453	0.354491
H135	H	0.919330	0.201543	0.425163
C136	C	0.772859	0.206783	0.332624
C137	C	0.850575	0.184625	0.299287
H138	H	0.736950	0.216736	0.281834
H139	H	0.747258	0.184327	0.369745
H140	H	0.781655	0.234322	0.368903
H141	H	0.841780	0.157083	0.263019
H142	H	0.876174	0.207076	0.262158
H143	H	1.131276	0.083559	0.442107
H144	H	0.533624	0.109141	0.140358
O145	O	0.445378	0.019311	-0.152582
C146	C	0.485428	-0.028880	-0.152314
H147	H	0.503815	-0.040092	-0.078314
H148	H	0.544542	-0.031416	-0.197382
C149	C	0.401902	-0.049178	-0.281992
C150	C	0.424479	-0.062951	-0.191102
H151	H	0.364308	-0.070194	-0.305922
H152	H	0.374921	-0.016710	-0.282175
H153	H	0.451169	-0.051292	-0.319537
H154	H	0.375213	-0.060831	-0.153557
H155	H	0.451449	-0.095419	-0.190913
H156	H	0.449165	0.023210	0.140376
O157	O	1.146998	-0.187251	-0.000021
C158	C	1.193816	-0.178433	-0.079897
H159	H	1.172678	-0.140191	-0.106527
H160	H	1.182718	-0.206012	-0.135832
C161	C	1.314468	-0.230173	-0.022908
C162	C	1.288510	-0.183202	-0.055611
H163	H	1.372880	-0.233117	-0.007929
H164	H	1.282925	-0.236116	0.030904
H165	H	1.305212	-0.253151	-0.069526
H166	H	1.297757	-0.160226	-0.008989
H167	H	1.320057	-0.177256	-0.109414
O168	O	1.221270	-0.325673	0.000053
C169	C	1.288279	-0.363819	0.000079
H170	H	1.265181	-0.398069	-0.029121
H171	H	1.311726	-0.370953	0.074069
C172	C	1.389374	-0.307519	-0.024533
C173	C	1.361006	-0.349584	-0.060405
H174	H	1.434238	-0.298738	-0.061838
H175	H	1.344229	-0.281818	-0.024548
H176	H	1.408908	-0.313469	0.037125
H177	H	1.341463	-0.343632	-0.122056
H178	H	1.406149	-0.375283	-0.060402
H179	H	0.846175	-0.776661	0.000034
H180	H	1.207476	-0.420107	0.000079
H181	H	1.125732	-0.706075	0.000065
H182	H	0.847786	-0.685203	0.000019
O183	O	0.764165	-0.390697	-0.000038
C184	C	0.697158	-0.352550	-0.000027
H185	H	0.720269	-0.318299	-0.029214
H186	H	0.673685	-0.345418	0.073957
C187	C	0.596068	-0.408847	-0.024680
C188	C	0.624451	-0.366781	-0.060536
H189	H	0.551217	-0.417626	-0.062001
H190	H	0.641211	-0.434548	-0.024685
H191	H	0.576513	-0.402898	0.036972
H192	H	0.644015	-0.372732	-0.122183
H193	H	0.579309	-0.341081	-0.060544
O194	O	1.218599	-0.476920	0.000029
C195	C	1.285608	-0.515067	0.000056
H196	H	1.262511	-0.549316	-0.029146
H197	H	1.309055	-0.522201	0.074046
C198	C	1.386704	-0.458766	-0.024553
C199	C	1.358337	-0.500831	-0.060426
H200	H	1.431568	-0.449985	-0.061857
H201	H	1.341559	-0.433066	-0.024568
H202	H	1.406236	-0.464717	0.037105
H203	H	1.338795	-0.494878	-0.122078
H204	H	1.403480	-0.526530	-0.060423
O205	O	0.761506	-0.541956	-0.000038
C206	C	0.694493	-0.503811	-0.000021
H207	H	0.717598	-0.469558	-0.029203
H208	H	0.671020	-0.496683	0.073964
C209	C	0.593413	-0.560114	-0.024682
C210	C	0.621789	-0.518044	-0.060532
H211	H	0.548563	-0.568893	-0.062004
H212	H	0.638560	-0.585813	-0.024690
H213	H	0.573858	-0.554168	0.036971
H214	H	0.641353	-0.523992	-0.122179
H215	H	0.576643	-0.492347	-0.060535
O216	O	1.216742	-0.576250	-0.000108
C217	C	1.220799	-0.605763	-0.079975
H218	H	1.177610	-0.587298	-0.135801
H219	H	1.199533	-0.642427	-0.061924
C220	C	1.365342	-0.636098	-0.047624
C221	C	1.312302	-0.613416	-0.116193
H222	H	1.421785	-0.640821	-0.069963
H223	H	1.362609	-0.616216	0.006186
H224	H	1.347610	-0.666648	-0.032587
H225	H	1.330028	-0.582864	-0.131220
H226	H	1.315040	-0.633293	-0.170007
H227	H	0.857033	-0.161567	0.000095
H228	H	0.775301	-0.447521	0.000017
