data_functionalizedCrystal
_audit_creation_method	'MofGen! by Chris Wilmer'
_symmetry_space_group_name_H-M	'P1'
_symmetry_Int_Tables_number	1
_symmetry_cell_setting	triclinic
loop_
_symmetry_equiv_pos_as_xyz
  x,y,z
_cell_length_a	18.878441
_cell_length_b	14.560438
_cell_length_c	14.560438
_cell_angle_alpha	60.000069
_cell_angle_beta	90.000284
_cell_angle_gamma	60.000347
loop_
_atom_site_label
_atom_site_type_symbol
_atom_site_fract_x
_atom_site_fract_y
_atom_site_fract_z
Zr1	Zr	0.682392	1.005281	-0.120498
O2	O	0.569287	1.196884	-0.267145
O3	O	0.717064	0.813680	-0.075546
O4	O	0.717064	1.005284	-0.267147
O5	O	0.569287	1.005277	0.075597
O6	O	0.833634	1.005284	-0.267145
O7	O	0.569287	1.005279	-0.075544
O8	O	0.833634	0.662540	0.075594
O9	O	0.569287	1.348022	-0.267142
O10	O	0.818846	0.892488	-0.056370
O11	O	0.731852	0.892486	0.056424
O12	O	0.731852	1.118075	-0.169162
O13	O	0.644858	1.118072	-0.056368
Zr14	Zr	0.868307	1.005278	0.120556
Zr15	Zr	0.868307	1.005282	-0.120496
Zr16	Zr	0.682392	1.005277	0.120554
Zr17	Zr	0.682392	1.246329	-0.120494
Zr18	Zr	0.868307	0.764230	0.120552
O19	O	0.833635	1.196879	0.075604
O20	O	0.833634	1.196885	-0.267141
O21	O	0.569287	1.196878	0.075600
O22	O	0.981412	0.813675	0.267203
O23	O	0.981412	0.813681	-0.075542
O24	O	0.717065	0.813674	0.267199
O25	O	0.981412	1.005282	-0.075539
O26	O	0.833635	1.005275	0.267205
O27	O	0.717065	1.005274	0.267203
O28	O	0.981412	1.005279	0.075602
O29	O	0.717065	1.348022	-0.267140
O30	O	0.833634	0.662536	0.267198
O31	O	0.981412	0.662537	0.267200
O32	O	0.981411	0.662541	0.075596
O33	O	0.569287	1.348018	-0.075538
O34	O	0.717065	1.348019	-0.075536
O35	O	0.818847	0.892484	0.169220
O36	O	0.905841	0.892487	0.056426
O37	O	0.818847	1.118073	-0.056366
O38	O	0.731852	1.118071	0.056428
C39	C	0.775349	0.703766	0.000023
C40	C	0.775349	0.601435	0.000021
C41	C	0.820757	0.553360	-0.058856
C42	C	0.820761	0.457200	-0.058845
C43	C	0.729940	0.457203	0.058921
C44	C	0.729942	0.553354	0.058917
C45	C	0.542798	1.005278	0.000026
C46	C	0.463872	1.005278	0.000025
C47	C	0.426792	1.005282	-0.083243
C48	C	0.352635	1.005275	-0.083238
C49	C	0.315557	1.005273	0.000030
C50	C	0.352643	1.005264	0.083306
C51	C	0.426802	1.005262	0.083305
C52	C	0.198072	1.005272	0.083301
C53	C	0.123907	1.005276	0.083301
C54	C	0.123905	1.005285	-0.083243
C55	C	0.198064	1.005283	-0.083244
C56	C	0.235144	1.005277	0.000031
C57	C	1.007901	1.005281	0.000032
C58	C	1.086827	1.005281	0.000033
C59	C	0.775349	1.005285	-0.301491
C60	C	0.775349	1.005287	-0.403824
C61	C	0.775350	1.306793	0.000035
C62	C	0.775350	1.409124	0.000037
C63	C	0.839568	1.005288	-0.451899
C64	C	0.839571	1.005276	-0.548045
C65	C	0.711127	1.005267	-0.548035
C66	C	0.711129	1.005269	-0.451886
C67	C	0.775350	1.005274	0.301549
C68	C	0.775350	1.005272	0.403882
C69	C	1.007900	0.703767	0.000026
C70	C	1.086826	0.601436	0.000026
C71	C	0.775349	0.703760	0.301543
C72	C	0.775349	0.601427	0.403874
C73	C	1.007901	0.703762	0.301546
C74	C	1.086827	0.601429	0.403878
C75	C	0.542798	1.306797	-0.301488
C76	C	0.463872	1.409130	-0.403820
C77	C	0.542798	1.306792	0.000032
C78	C	0.463873	1.409122	0.000033
C79	C	0.775350	1.306799	-0.301485
C80	C	0.775350	1.409131	-0.403816
C81	C	1.078480	0.553382	-0.058863
C82	C	1.152632	0.457244	-0.058887
C83	C	1.235129	0.409157	-0.000014
C84	C	1.243473	0.457222	0.058877
C85	C	1.169322	0.553364	0.058893
C86	C	1.169309	0.553374	0.393057
C87	C	1.243475	0.457235	0.489200
C88	C	1.235157	0.409147	0.596162
C89	C	1.152666	0.457211	0.606981
C90	C	1.078502	0.553355	0.510839
C91	C	0.381390	1.457196	-0.392999
C92	C	0.307224	1.553365	-0.489142
C93	C	0.315542	1.601458	-0.596104
C94	C	0.398033	1.553388	-0.606923
C95	C	0.472197	1.457227	-0.510781
C96	C	0.472219	1.457187	0.058911
C97	C	0.398067	1.553351	0.058908
C98	C	0.315570	1.601441	0.000032
C99	C	0.307225	1.553373	-0.058854
C100	C	0.381376	1.457217	-0.058857
C101	C	0.820759	0.553348	0.510828
C102	C	0.820749	0.457205	0.606975
C103	C	0.729919	0.457224	0.489201
C104	C	0.729924	0.553372	0.393056
H105	H	0.857738	0.418059	-0.106787
F106	F	1.331280	0.406027	0.121532
H107	H	0.891864	1.005275	-0.587184
F108	F	0.642778	1.005260	-0.400713
F109	F	1.178218	0.604490	0.121581
F110	F	0.869103	0.604491	0.522345
F111	F	0.559979	1.406074	-0.522315
F112	F	0.990687	0.604546	-0.121532
H113	H	0.539385	1.418039	0.106863
F114	F	0.681615	0.604515	0.121592
F115	F	0.313173	1.005278	-0.171859
F116	F	0.406966	1.604488	0.121589
H117	H	1.295501	0.330871	-0.000035
F118	F	0.372517	1.406026	-0.279171
H119	H	1.176098	0.592514	0.305972
F120	F	1.143827	0.406019	0.720828
H121	H	0.255198	1.679737	0.000043
H122	H	0.456993	1.005255	0.151111
F123	F	0.313184	1.005252	0.171933
H124	H	1.295554	0.330861	0.674438
F125	F	1.143733	0.406104	-0.121565
F126	F	0.681586	0.604550	0.279218
F127	F	1.331260	0.406095	0.477662
F128	F	0.990720	0.604483	0.522373
H129	H	0.240063	1.592488	-0.480311
F130	F	0.236601	1.703801	-0.698418
F131	F	0.406872	1.604583	-0.720770
F132	F	0.907918	1.005301	-0.400749
H133	H	0.228250	1.005295	-0.151051
H134	H	0.240046	1.592543	-0.106789
H135	H	0.658840	1.005255	-0.587178
F136	F	0.372481	1.406066	-0.121521
H137	H	0.857724	0.418065	0.694058
H138	H	0.857731	0.592503	-0.106810
F139	F	0.681622	0.406019	0.121603
F140	F	0.466244	1.005295	-0.171875
H141	H	0.692937	0.418084	0.480407
F142	F	0.084437	1.005294	-0.171870
H143	H	0.228263	1.005260	0.151115
F144	F	0.084451	1.005271	0.171928
