data_functionalizedCrystal
_audit_creation_method	'MofGen! by Chris Wilmer'
_symmetry_space_group_name_H-M	'P1'
_symmetry_Int_Tables_number	1
_symmetry_cell_setting	triclinic
loop_
_symmetry_equiv_pos_as_xyz
  x,y,z
_cell_length_a	14.853567
_cell_length_b	10.654550
_cell_length_c	9.130313
_cell_angle_alpha	90.004127
_cell_angle_beta	90.001047
_cell_angle_gamma	84.059931
loop_
_atom_site_label
_atom_site_type_symbol
_atom_site_fract_x
_atom_site_fract_y
_atom_site_fract_z
O1	O	-1.197242	-0.163960	-0.121698
O2	O	-0.934887	-0.183492	-0.121723
O3	O	-1.072097	0.009076	-0.121701
O4	O	-1.060032	-0.356528	-0.121720
O5	O	-1.072086	0.009080	0.121898
O6	O	-0.934876	-0.183487	0.121876
O7	O	-1.197231	-0.163956	0.121901
Cu8	Cu	-1.066053	-0.173721	0.144131
Cu9	Cu	-1.066066	-0.173726	-0.143953
O10	O	-1.060022	-0.356523	0.121879
C11	C	-0.901288	-0.182605	0.000073
C12	C	-0.801190	-0.179953	0.000064
C13	C	-1.071205	0.055867	0.000098
C14	C	-1.068555	0.195283	0.000095
C15	C	-1.230830	-0.164843	0.000101
C16	C	-1.330928	-0.167495	0.000101
C17	C	-0.387984	-0.054353	0.000103
C18	C	-0.367928	-0.283127	0.000090
C19	C	-0.461975	-0.285621	0.000085
C20	C	-0.519031	-0.172479	0.000087
C21	C	-0.482040	-0.056843	0.000094
C22	C	-0.498973	-0.401255	0.000063
C23	C	-0.593026	-0.403753	0.000057
C24	C	-0.650083	-0.290609	0.000069
C25	C	-0.613087	-0.174969	0.000078
C26	C	-0.670143	-0.061826	0.000080
C27	C	-0.633149	0.053816	0.000099
C28	C	-0.539098	0.056301	0.000107
C29	C	-0.744134	-0.293095	0.000062
C30	C	-0.764199	-0.064317	0.000071
C31	C	-1.060913	-0.403314	0.000077
C32	C	-1.063563	-0.542730	0.000070
N33	N	-1.066050	-0.173717	0.346754
C34	C	-1.149342	0.275608	0.000103
C35	C	-1.146846	0.406602	0.000085
C36	C	-0.982770	0.376935	0.000058
C37	C	-0.985267	0.245942	0.000066
C38	C	-1.126827	-0.088484	0.423415
C39	C	-1.126835	-0.088485	0.576752
C40	C	-1.005286	-0.258962	0.576752
C41	C	-1.005275	-0.258955	0.423418
N42	N	-1.066069	-0.173725	0.653424
H43	H	-0.810649	0.027819	0.000079
H44	H	-0.955779	-0.328362	0.360996
H45	H	-0.679616	0.145936	0.000091
H46	H	-1.176323	-0.019079	0.639166
Br47	Br	-0.337781	0.102583	0.000142
Br48	Br	-0.922810	-0.374641	0.680801
Br49	Br	-0.488885	0.213229	0.000128
Br50	Br	-0.290495	-0.436670	0.000060
H51	H	-0.774251	-0.387249	0.000049
H52	H	-1.212631	0.471999	0.000087
H53	H	-1.217161	0.234365	0.000124
H54	H	-0.914959	0.418198	0.000037
Br55	Br	-1.209306	0.027198	0.319376
Br56	Br	-0.421538	-0.554795	0.000028
H57	H	-0.623138	-0.497916	0.000041
Br58	Br	-0.875619	0.136920	0.000036
