data_functionalizedCrystal
_audit_creation_method	'MofGen! by Chris Wilmer'
_symmetry_space_group_name_H-M	'P1'
_symmetry_Int_Tables_number	1
_symmetry_cell_setting	triclinic
loop_
_symmetry_equiv_pos_as_xyz
  x,y,z
_cell_length_a	14.853567
_cell_length_b	17.699077
_cell_length_c	16.776229
_cell_angle_alpha	89.993415
_cell_angle_beta	90.008646
_cell_angle_gamma	96.542246
loop_
_atom_site_label
_atom_site_type_symbol
_atom_site_fract_x
_atom_site_fract_y
_atom_site_fract_z
O1	O	-0.113983	1.004377	-0.066281
O2	O	0.386017	1.504377	0.433719
O3	O	-0.128821	0.784037	-0.066286
O4	O	0.371179	1.284037	0.433714
O5	O	0.009850	0.900093	-0.066274
O6	O	0.509850	1.400093	0.433726
O7	O	-0.252653	0.888321	-0.066293
O8	O	0.247347	1.388321	0.433707
O9	O	0.009858	0.900077	0.066303
O10	O	0.509858	1.400077	0.566303
O11	O	-0.128812	0.784021	0.066291
O12	O	0.371188	1.284021	0.566291
O13	O	-0.113974	1.004362	0.066295
O14	O	0.386026	1.504362	0.566295
Zn15	Zn	-0.121392	0.894189	0.087343
Zn16	Zn	0.378608	1.394189	0.587343
Zn17	Zn	-0.121403	0.894209	-0.087333
Zn18	Zn	0.378597	1.394209	0.412667
O19	O	-0.252645	0.888306	0.066284
O20	O	0.247355	1.388306	0.566284
C21	C	-0.128286	0.755830	0.000002
C22	C	0.371714	1.255830	0.500002
C23	C	-0.126694	0.671808	0.000001
C24	C	0.373306	1.171808	0.500001
C25	C	-0.125939	0.632330	0.072269
C26	C	0.374061	1.132330	0.572269
C27	C	-0.124428	0.553384	0.072270
C28	C	0.375572	1.053384	0.572270
C29	C	-0.123679	0.513916	0.000002
C30	C	0.376321	1.013916	0.500002
C31	C	-0.124431	0.553399	-0.072272
C32	C	0.375569	1.053399	0.427728
C33	C	-0.125935	0.632345	-0.072272
C34	C	0.374065	1.132345	0.427728
C35	C	-0.118364	0.235020	-0.072273
C36	C	0.381636	0.735020	0.427727
C37	C	-0.116863	0.156069	-0.072267
C38	C	0.383137	0.656069	0.427733
C39	C	-0.116857	0.156059	0.072269
C40	C	0.383143	0.656059	0.572269
C41	C	-0.118361	0.235005	0.072269
C42	C	0.381639	0.735005	0.572269
C43	C	-0.119108	0.274482	-0.000004
C44	C	0.380892	0.774482	0.499996
C45	C	-0.120745	0.360085	-0.000004
C46	C	0.379255	0.860085	0.499996
C47	C	-0.122049	0.428314	0.000001
C48	C	0.377951	0.928314	0.500001
C49	C	-0.286236	0.888847	-0.000007
C50	C	0.213764	1.388847	0.499993
C51	C	-0.386313	0.890445	-0.000014
C52	C	0.113687	1.390445	0.499986
C53	C	-0.798567	0.966141	0.000016
C54	C	-0.298567	1.466141	0.500016
C55	C	-0.820359	0.828264	0.000013
C56	C	-0.320359	1.328264	0.500013
C57	C	-0.726331	0.826761	0.000005
C58	C	-0.226331	1.326761	0.500005
C59	C	-0.668416	0.894950	0.000004
C60	C	-0.168416	1.394950	0.500004
C61	C	-0.704529	0.964641	0.000011
C62	C	-0.204529	1.464641	0.500011
C63	C	-0.690210	0.757072	0.000006
C64	C	-0.190210	1.257072	0.500006
C65	C	-0.596177	0.755566	-0.000001
C66	C	-0.096177	1.255566	0.499999
C67	C	-0.538260	0.823755	-0.000007
C68	C	-0.038260	1.323755	0.499993
C69	C	-0.574379	0.893449	-0.000001
C70	C	-0.074379	1.393449	0.499999
C71	C	-0.516464	0.961637	-0.000002
C72	C	-0.016464	1.461637	0.499998
C73	C	-0.552581	1.031332	-0.000002
C74	C	-0.052581	1.531332	0.499998
C75	C	-0.646613	1.032829	0.000004
C76	C	-0.146613	1.532829	0.500004
C77	C	-0.444228	0.822257	-0.000013
C78	C	0.055772	1.322257	0.499987
C79	C	-0.422427	0.960136	-0.000007
C80	C	0.077573	1.460136	0.499993
C81	C	0.043441	0.899551	0.000015
C82	C	0.543441	1.399551	0.500015
C83	C	0.143519	0.897953	0.000017
C84	C	0.643519	1.397953	0.500017
C85	C	-0.114509	1.032568	0.000006
C86	C	0.385491	1.532568	0.500006
C87	C	-0.116101	1.116590	0.000002
C88	C	0.383899	1.616590	0.500002
N89	N	-0.121384	0.894181	0.206554
N90	N	0.378616	1.394181	0.706554
N91	N	-0.121404	0.894224	-0.206544
N92	N	0.378596	1.394224	0.293456
C93	C	-0.060005	0.945586	0.248276
C94	C	0.439995	1.445586	0.748276
C95	C	-0.060005	0.945590	0.331728
C96	C	0.439995	1.445590	0.831728
C97	C	-0.121387	0.894192	0.373457
C98	C	0.378613	1.394192	0.873457
C99	C	-0.182768	0.842781	0.331729
C100	C	0.317232	1.342781	0.831729
C101	C	-0.182764	0.842774	0.248278
C102	C	0.317236	1.342774	0.748278
C103	C	-0.182786	0.842809	0.668276
C104	C	0.317214	1.342809	1.168276
C105	C	-0.182787	0.842821	0.751732
C106	C	0.317213	1.342821	1.251732
C107	C	-0.060027	0.945625	0.751726
C108	C	0.439973	1.445625	1.251726
C109	C	-0.060022	0.945618	0.668275
C110	C	0.439978	1.445618	1.168275
C111	C	-0.121400	0.894204	0.626555
C112	C	0.378600	1.394204	1.126555
C113	C	-0.121399	0.894200	0.536066
C114	C	0.378601	1.394200	1.036066
C115	C	-0.121393	0.894200	0.463943
C116	C	0.378607	1.394200	0.963943
H117	H	-0.126552	0.664487	-0.131120
H118	H	0.373448	1.164487	0.368880
C119	C	-0.038921	0.140184	0.195486
C120	C	0.461079	0.640184	0.695486
C121	C	-0.116024	0.112667	0.151718
C122	C	0.383976	0.612667	0.651718
H123	H	-0.038413	0.113399	0.244534
H124	H	0.461587	0.613399	0.744534
H125	H	0.013868	0.132963	0.165799
H126	H	0.513868	0.632963	0.665799
H127	H	-0.039937	0.192849	0.205818
H128	H	0.460063	0.692849	0.705818
H129	H	-0.115005	0.060002	0.141381
H130	H	0.384995	0.560002	0.641381
H131	H	-0.168827	0.119881	0.181411
H132	H	0.331173	0.619881	0.681411
C133	C	-0.200183	0.456148	0.156112
C134	C	0.299817	0.956148	0.656112
C135	C	-0.123589	0.509982	0.151705
C136	C	0.376411	1.009982	0.651705
H137	H	-0.199655	0.429351	0.205151
H138	H	0.300345	0.929351	0.705151
H139	H	-0.253317	0.481222	0.153116
H140	H	0.246683	0.981222	0.653116
H141	H	-0.199511	0.421354	0.113064
H142	H	0.300489	0.921354	0.613064
H143	H	-0.124264	0.544780	0.194750
H144	H	0.375736	1.044780	0.694750
H145	H	-0.070441	0.484907	0.154709
H146	H	0.429559	0.984907	0.654709
C147	C	0.062724	0.961916	0.425580
C148	C	0.562724	1.461916	0.925580
C149	C	0.007464	1.002102	0.377583
C150	C	0.507464	1.502102	0.877583
H151	H	0.104382	0.996807	0.453883
H152	H	0.604382	1.496807	0.953883
H153	H	0.026174	0.931314	0.462376
H154	H	0.526174	1.431314	0.962376
H155	H	0.095104	0.930380	0.393028
H156	H	0.595104	1.430380	0.893028
H157	H	-0.024922	1.033633	0.410136
H158	H	0.475078	1.533633	0.910136
H159	H	0.044019	1.032716	0.340783
H160	H	0.544019	1.532716	0.840783
H161	H	-0.505415	1.086850	0.000002
H162	H	-0.005415	1.586850	0.500002
C163	C	-0.197515	0.315348	0.156120
C164	C	0.302485	0.815348	0.656120
C165	C	-0.119182	0.278388	0.151708
C166	C	0.380818	0.778388	0.651708
H167	H	-0.198019	0.342126	0.205166
H168	H	0.301981	0.842126	0.705166
H169	H	-0.198175	0.350155	0.113083
H170	H	0.301825	0.850155	0.613083
H171	H	-0.249475	0.278824	0.153115
H172	H	0.250525	0.778824	0.653115
H173	H	-0.067221	0.314912	0.154707
H174	H	0.432779	0.814912	0.654707
H175	H	-0.118513	0.243577	0.194757
H176	H	0.381487	0.743577	0.694757
H177	H	-0.010042	0.987473	0.634303
H178	H	0.489958	1.487473	1.134303
H179	H	-0.414826	0.765513	-0.000001
H180	H	0.085174	1.265513	0.499999
H181	H	-0.123815	0.521259	-0.131114
H182	H	0.376185	1.021259	0.368886
C183	C	0.096143	0.989847	0.222646
C184	C	0.596143	1.489847	0.722646
C185	C	0.007492	1.002083	0.202432
C186	C	0.507492	1.502083	0.702432
H187	H	0.137820	1.024723	0.194347
H188	H	0.637820	1.524723	0.694347
H189	H	0.104896	0.997196	0.278315
H190	H	0.604896	1.497196	0.778315
H191	H	0.105838	0.939323	0.208971
H192	H	0.605838	1.439323	0.708971
H193	H	-0.002206	1.052605	0.216112
H194	H	0.497794	1.552605	0.716112
H195	H	-0.001265	0.994739	0.146751
H196	H	0.498735	1.494739	0.646751
C197	C	-0.120671	0.356036	-0.136461
C198	C	0.379329	0.856036	0.363539
C199	C	-0.119197	0.278407	-0.151714
C200	C	0.380803	0.778407	0.348286
H201	H	-0.121182	0.382822	-0.185509
H202	H	0.378818	0.882822	0.314491
H203	H	-0.173462	0.363249	-0.106775
H204	H	0.326538	0.863249	0.393225
H205	H	-0.068357	0.374685	-0.106766
H206	H	0.431643	0.874685	0.393234
H207	H	-0.171515	0.259756	-0.181404
H208	H	0.328485	0.759756	0.318596
H209	H	-0.066400	0.271188	-0.181413
H210	H	0.433600	0.771188	0.318587
C211	C	-0.338907	0.798484	0.357396
C212	C	0.161093	1.298484	0.857396
C213	C	-0.250241	0.786278	0.377590
C214	C	0.249759	1.286278	0.877590
H215	H	-0.380562	0.763596	0.385704
H216	H	0.119438	1.263596	0.885704
H217	H	-0.348622	0.848997	0.371065
H218	H	0.151378	1.348997	0.871065
H219	H	-0.347674	0.791124	0.301722
H220	H	0.152326	1.291124	0.801722
H221	H	-0.241472	0.793643	0.433263
H222	H	0.258528	1.293643	0.933263
H223	H	-0.240523	0.735753	0.363926
H224	H	0.259477	1.235753	0.863926
H225	H	-0.867518	0.772749	0.000018
H226	H	-0.367518	1.272749	0.500018
H227	H	-0.010047	0.987486	0.785704
H228	H	0.489953	1.487486	1.285704
H229	H	-0.375278	1.015664	-0.000014
H230	H	0.124722	1.515664	0.499986
H231	H	-0.232743	0.800914	0.214308
H232	H	0.267257	1.300914	0.714308
C233	C	-0.193860	0.123342	-0.195486
C234	C	0.306140	0.623342	0.304514
C235	C	-0.116033	0.112685	-0.151711
C236	C	0.383967	0.612685	0.348289
H237	H	-0.193344	0.096562	-0.244530
H238	H	0.306656	0.596562	0.255470
H239	H	-0.246158	0.104682	-0.165800
H240	H	0.253842	0.604682	0.334200
H241	H	-0.194850	0.176012	-0.205828
H242	H	0.305150	0.676012	0.294172
H243	H	-0.115046	0.060016	-0.141365
H244	H	0.384954	0.560016	0.358635
H245	H	-0.063721	0.131342	-0.181404
H246	H	0.436279	0.631342	0.318596
H247	H	-0.232774	0.800964	0.785706
H248	H	0.267226	1.300964	1.285706
H249	H	-0.232763	0.800948	0.634313
H250	H	0.267237	1.300948	1.134313
C251	C	-0.808612	0.678787	-0.068145
C252	C	-0.308612	1.178787	0.431855
C253	C	-0.753871	0.682124	0.000008
C254	C	-0.253871	1.182124	0.500008
H255	H	-0.847913	0.632513	-0.068145
H256	H	-0.347913	1.132513	0.431855
H257	H	-0.843570	0.720504	-0.068139
H258	H	-0.343570	1.220504	0.431861
H259	H	-0.771474	0.681067	-0.114372
H260	H	-0.271474	1.181067	0.385628
H261	H	-0.791009	0.679849	0.046235
H262	H	-0.291009	1.179849	0.546235
H263	H	-0.718909	0.640396	0.000010
H264	H	-0.218909	1.140396	0.500010
C265	C	-0.125769	0.624384	0.215142
C266	C	0.374231	1.124384	0.715142
C267	C	-0.126757	0.675710	0.151710
C268	C	0.373243	1.175710	0.651710
H269	H	-0.126266	0.651166	0.264186
H270	H	0.373734	1.151166	0.764186
H271	H	-0.177733	0.587876	0.212134
H272	H	0.322267	1.087876	0.712134
H273	H	-0.072628	0.599310	0.212130
H274	H	0.427372	1.099310	0.712130
H275	H	-0.179902	0.700780	0.154719
H276	H	0.320098	1.200780	0.654719
H277	H	-0.074788	0.712231	0.154719
H278	H	0.425212	1.212231	0.654719
H279	H	-0.676028	1.089571	0.000025
H280	H	-0.176028	1.589571	0.500025
H281	H	-0.566779	0.698817	-0.000003
H282	H	-0.066779	1.198817	0.499997
C283	C	-0.933026	1.029671	0.000024
C284	C	-0.433026	1.529671	0.500024
C285	C	-0.838261	1.042747	0.000020
C286	C	-0.338261	1.542747	0.500020
H287	H	-0.957530	1.076966	0.000032
H288	H	-0.457530	1.576966	0.500032
H289	H	-0.952918	1.001604	-0.046206
H290	H	-0.452918	1.501604	0.453794
H291	H	-0.952899	1.001585	0.046259
H292	H	-0.452899	1.501585	0.546259
H293	H	-0.818389	1.070829	-0.046218
H294	H	-0.318389	1.570829	0.453782
H295	H	-0.818362	1.070827	0.046255
H296	H	-0.318362	1.570827	0.546255
