data_functionalizedCrystal
_audit_creation_method	'MofGen! by Chris Wilmer'
_symmetry_space_group_name_H-M	'P1'
_symmetry_Int_Tables_number	1
_symmetry_cell_setting	triclinic
loop_
_symmetry_equiv_pos_as_xyz
  x,y,z
_cell_length_a	27.732048
_cell_length_b	27.732048
_cell_length_c	9.565339
_cell_angle_alpha	89.995294
_cell_angle_beta	90.001982
_cell_angle_gamma	82.642655
loop_
_atom_site_label
_atom_site_type_symbol
_atom_site_fract_x
_atom_site_fract_y
_atom_site_fract_z
O1	O	0.640927	0.057514	-0.116095
O2	O	1.140927	0.557514	0.383905
O3	O	0.500133	0.066259	-0.116139
O4	O	1.000133	0.566259	0.383861
O5	O	0.574903	-0.008510	-0.116089
O6	O	1.074903	0.491490	0.383911
O7	O	0.566157	0.132283	-0.116145
O8	O	1.066157	0.632283	0.383855
O9	O	0.574897	-0.008506	0.116431
O10	O	1.074897	0.491494	0.616431
O11	O	0.500128	0.066264	0.116381
O12	O	1.000128	0.566264	0.616381
O13	O	0.640921	0.057518	0.116425
O14	O	1.140921	0.557518	0.616425
Zn15	Zn	0.570523	0.061892	0.153321
Zn16	Zn	1.070523	0.561892	0.653321
Zn17	Zn	0.570531	0.061886	-0.153034
Zn18	Zn	1.070531	0.561886	0.346966
O19	O	0.566152	0.132288	0.116375
O20	O	1.066152	0.632288	0.616375
C21	C	0.482124	0.066078	0.000116
C22	C	0.982124	0.566078	0.500116
C23	C	0.428469	0.065525	0.000100
C24	C	0.928469	0.565525	0.500100
C25	C	0.574716	-0.026515	0.000175
C26	C	1.074716	0.473485	0.500175
C27	C	0.574164	-0.080170	0.000186
C28	C	1.074164	0.419830	0.500186
C29	C	0.089654	0.106229	0.000144
C30	C	0.589654	0.606229	0.500144
C31	C	-0.112006	0.104178	0.000158
C32	C	0.387994	0.604178	0.500158
O33	O	-0.143262	0.141398	0.000203
O34	O	0.356738	0.641398	0.500203
N35	N	-0.131130	0.059843	0.000173
N36	N	0.368870	0.559843	0.500173
C37	C	-0.099835	0.016017	0.000194
C38	C	0.400165	0.516017	0.500194
O39	O	-0.120728	-0.021740	0.000221
O40	O	0.379272	0.478260	0.500221
C41	C	0.101824	0.018068	0.000190
C42	C	0.601824	0.518068	0.500190
C43	C	0.120944	0.062407	0.000161
C44	C	0.620944	0.562407	0.500161
C45	C	0.108775	0.150563	0.000116
C46	C	0.608775	0.650563	0.500116
C47	C	0.159187	0.151075	0.000106
C48	C	0.659187	0.651075	0.500106
C49	C	0.190477	0.107253	0.000122
C50	C	0.690477	0.607253	0.500122
C51	C	0.171356	0.062919	0.000150
C52	C	0.671356	0.562919	0.500150
C53	C	0.133117	-0.025757	0.000221
C54	C	0.633117	0.474243	0.500221
C55	C	0.183535	-0.025240	0.000224
C56	C	0.683535	0.474760	0.500224
C57	C	0.202655	0.019098	0.000195
C58	C	0.702655	0.519098	0.500195
C59	C	0.253059	0.019609	0.000156
C60	C	0.753059	0.519609	0.500156
N61	N	0.272183	0.063944	0.000141
N62	N	0.772183	0.563944	0.500141
C63	C	0.240892	0.107766	0.000124
C64	C	0.740892	0.607766	0.500124
C65	C	-0.205709	0.014943	0.000193
C66	C	0.294291	0.514943	0.500193
C67	C	-0.256124	0.014430	0.000191
C68	C	0.243876	0.514430	0.500191
C69	C	-0.268291	0.102591	0.000157
C70	C	0.231709	0.602591	0.500157
C71	C	-0.217876	0.103104	0.000149
C72	C	0.282124	0.603104	0.500149
C73	C	-0.186585	0.059278	0.000177
C74	C	0.313415	0.559278	0.500177
C75	C	0.346761	0.108839	0.000100
C76	C	0.846761	0.608839	0.500100
C77	C	0.397178	0.109347	0.000083
C78	C	0.897178	0.609347	0.500083
C79	C	0.409341	0.021186	0.000124
C80	C	0.909341	0.521186	0.500124
C81	C	0.358929	0.020678	0.000133
C82	C	0.858929	0.520678	0.500133
C83	C	0.327639	0.064508	0.000126
C84	C	0.827639	0.564508	0.500126
O85	O	0.284343	-0.017592	0.000126
O86	O	0.784343	0.482408	0.500126
O87	O	0.261794	0.145518	0.000127
O88	O	0.761794	0.645518	0.500127
C89	C	0.039242	0.105716	0.000155
C90	C	0.539242	0.605716	0.500155
C91	C	0.020120	0.061382	0.000183
C92	C	0.520120	0.561382	0.500183
C93	C	0.051411	0.017560	0.000200
C94	C	0.551411	0.517560	0.500200
C95	C	-0.030294	0.060869	0.000181
C96	C	0.469706	0.560869	0.500181
C97	C	-0.061585	0.104691	0.000164
C98	C	0.438415	0.604691	0.500164
C99	C	-0.042461	0.149026	0.000149
C100	C	0.457539	0.649026	0.500149
C101	C	0.007951	0.149539	0.000138
C102	C	0.507951	0.649539	0.500138
C103	C	0.032287	-0.026775	0.000215
C104	C	0.532287	0.473225	0.500215
C105	C	-0.018125	-0.027284	0.000224
C106	C	0.481875	0.472716	0.500224
C107	C	-0.049416	0.016538	0.000207
C108	C	0.450584	0.516538	0.500207
C109	C	0.614867	-0.418985	0.000127
C110	C	1.114867	0.081015	0.500127
C111	C	0.612816	-0.620645	0.000107
C112	C	1.112816	-0.120645	0.500107
O113	O	0.650037	-0.651900	0.000058
O114	O	1.150037	-0.151900	0.500058
N115	N	0.568481	-0.639768	0.000095
N116	N	1.068481	-0.139768	0.500095
C117	C	0.524656	-0.608474	0.000078
C118	C	1.024656	-0.108474	0.500078
O119	O	0.486899	-0.629367	0.000052
O120	O	0.986899	-0.129367	0.500052
C121	C	0.526707	-0.406815	0.000088
C122	C	1.026707	0.093185	0.500088
C123	C	0.571045	-0.387694	0.000115
C124	C	1.071045	0.112306	0.500115
C125	C	0.659202	-0.399864	0.000153
C126	C	1.159202	0.100136	0.500153
C127	C	0.659714	-0.349452	0.000165
C128	C	1.159714	0.150548	0.500165
C129	C	0.615892	-0.318161	0.000153
C130	C	1.115892	0.181839	0.500153
C131	C	0.571557	-0.337282	0.000127
C132	C	1.071557	0.162718	0.500127
C133	C	0.482882	-0.375521	0.000061
C134	C	0.982882	0.124479	0.500061
C135	C	0.483399	-0.325104	0.000060
C136	C	0.983399	0.174896	0.500060
C137	C	0.527737	-0.305983	0.000087
C138	C	1.027737	0.194017	0.500087
C139	C	0.528247	-0.255580	0.000127
C140	C	1.028247	0.244420	0.500127
N141	N	0.572583	-0.236456	0.000140
N142	N	1.072583	0.263544	0.500140
C143	C	0.616405	-0.267747	0.000153
C144	C	1.116405	0.232253	0.500153
C145	C	0.523582	-0.714348	0.000075
C146	C	1.023582	-0.214348	0.500075
C147	C	0.523069	-0.764762	0.000075
C148	C	1.023069	-0.264762	0.500075
C149	C	0.611230	-0.776930	0.000102
C150	C	1.111230	-0.276930	0.500102
C151	C	0.611742	-0.726514	0.000112
C152	C	1.111742	-0.226514	0.500112
C153	C	0.567917	-0.695224	0.000088
C154	C	1.067917	-0.195224	0.500088
C155	C	0.617477	-0.161878	0.000180
C156	C	1.117477	0.338122	0.500180
C157	C	0.617986	-0.111461	0.000199
C158	C	1.117986	0.388539	0.500199
C159	C	0.529825	-0.099298	0.000165
C160	C	1.029825	0.400702	0.500165
C161	C	0.529316	-0.149710	0.000154
C162	C	1.029316	0.350290	0.500154
C163	C	0.573147	-0.180999	0.000157
C164	C	1.073147	0.319001	0.500157
O165	O	0.491047	-0.224296	0.000161
O166	O	0.991047	0.275704	0.500161
O167	O	0.654156	-0.246844	0.000147
O168	O	1.154156	0.253156	0.500147
C169	C	0.614355	-0.469397	0.000115
C170	C	1.114355	0.030603	0.500115
C171	C	0.570021	-0.488518	0.000089
C172	C	1.070021	0.011482	0.500089
C173	C	0.526198	-0.457228	0.000077
C174	C	1.026198	0.042772	0.500077
C175	C	0.569508	-0.538933	0.000089
C176	C	1.069508	-0.038933	0.500089
C177	C	0.613330	-0.570223	0.000102
C178	C	1.113330	-0.070223	0.500102
C179	C	0.657665	-0.551100	0.000115
C180	C	1.157665	-0.051100	0.500115
C181	C	0.658177	-0.500688	0.000127
C182	C	1.158177	-0.000688	0.500127
C183	C	0.481863	-0.476351	0.000064
C184	C	0.981863	0.023649	0.500064
C185	C	0.481355	-0.526764	0.000053
C186	C	0.981355	-0.026764	0.500053
C187	C	0.525177	-0.558054	0.000066
C188	C	1.025177	-0.058054	0.500066
C189	C	0.658931	0.057699	0.000168
C190	C	1.158931	0.557699	0.500168
C191	C	0.712586	0.058252	0.000174
C192	C	1.212586	0.558252	0.500174
C193	C	0.566338	0.150292	0.000108
C194	C	1.066338	0.650292	0.500108
C195	C	0.566891	0.203947	0.000088
C196	C	1.066891	0.703947	0.500088
N197	N	0.570522	0.061896	0.362400
N198	N	1.070522	0.561896	0.862400
N199	N	0.570537	0.061878	-0.362114
N200	N	1.070537	0.561878	0.137886
C201	C	0.535933	0.096463	0.453580
C202	C	1.035933	0.596463	0.953580
C203	C	0.579544	0.105516	0.546768
C204	C	1.079544	0.605516	1.046768
C205	C	0.526929	0.052846	0.546767
C206	C	1.026929	0.552846	1.046767
C207	C	0.614155	0.070971	0.453537
C208	C	1.114155	0.570971	0.953537
C209	C	0.561511	0.018281	0.453527
C210	C	1.061511	0.518281	0.953527
C211	C	0.605154	0.027316	0.546674
C212	C	1.105154	0.527316	1.046674
H213	H	0.412743	0.145454	0.000058
H214	H	0.912743	0.645454	0.500058
H215	H	0.634443	-0.001926	0.587292
H216	H	1.134443	0.498074	1.087292
N217	N	0.662243	-0.193841	0.000181
N218	N	1.162243	0.306159	0.500181
N219	N	0.671802	-0.223326	-0.097830
N220	N	1.171802	0.276674	0.402170
H221	H	0.703418	-0.245901	-0.097822
H222	H	1.203418	0.254099	0.402178
H223	H	0.651035	0.078662	0.412757
H224	H	1.151035	0.578662	0.912757
H225	H	-0.293777	0.138273	0.000144
H226	H	0.206223	0.638273	0.500144
H227	H	0.694282	-0.485125	0.000149
H228	H	1.194282	0.014875	0.500149
N229	N	-0.198355	0.148398	0.000147
N230	N	0.301645	0.648398	0.500147
N231	N	-0.208066	0.177855	0.098150
N232	N	0.291934	0.677855	0.598150
H233	H	-0.194282	0.209846	0.098153
H234	H	0.305718	0.709846	0.598153
H235	H	0.695819	-0.333889	0.000181
H236	H	1.195819	0.166111	0.500181
H237	H	-0.180236	-0.020747	0.000216
H238	H	0.319764	0.479253	0.500216
H239	H	0.083302	0.186251	0.000108
H240	H	0.583302	0.686251	0.500108
N241	N	0.551916	-0.027965	0.402120
N242	N	1.051916	0.472035	0.902120
N243	N	0.512816	-0.043502	0.431938
N244	N	1.012816	0.456498	0.931938
H245	H	0.506035	-0.076164	0.395631
H246	H	1.006035	0.423836	0.895631
N247	N	0.339401	-0.024615	0.000167
N248	N	0.839401	0.475385	0.500167
N249	N	0.349114	-0.054068	0.098194
N250	N	0.849114	0.445932	0.598194
H251	H	0.335326	-0.086058	0.098231
H252	H	0.835326	0.413942	0.598231
N253	N	0.480672	0.043259	0.598149
N254	N	0.980672	0.543259	1.098149
N255	N	0.443180	0.071368	0.568321
N256	N	0.943180	0.571368	1.068321
H257	H	0.410511	0.064602	0.604609
H258	H	0.910511	0.564602	1.104609
N259	N	-0.074436	0.193786	0.000153
N260	N	0.425564	0.693786	0.500153
N261	N	-0.103922	0.203328	0.098174
N262	N	0.396078	0.703328	0.598174
H263	H	-0.126506	0.234937	0.098186
H264	H	0.373494	0.734937	0.598186
H265	H	0.486964	-0.780325	0.000077
H266	H	0.986964	-0.280325	0.500077
N267	N	0.589112	0.151773	0.598185
N268	N	1.089112	0.651773	1.098185
N269	N	0.591004	0.159046	0.726917
N270	N	1.091004	0.659046	1.226917
H271	H	0.597757	0.191716	0.763229
H272	H	1.097757	0.691716	1.263229
N273	N	0.314812	0.153614	0.000100
N274	N	0.814812	0.653614	0.500100
N275	N	0.331899	0.193192	0.000076
N276	N	0.831899	0.693192	0.500076
H277	H	0.309336	0.224815	0.000070
H278	H	0.809336	0.724815	0.500070
N279	N	0.064246	-0.071541	0.000196
N280	N	0.564246	0.428459	0.500196
N281	N	0.093729	-0.081094	-0.097828
N282	N	0.593729	0.418906	0.402172
H283	H	0.116299	-0.112712	-0.097850
H284	H	0.616299	0.387288	0.402150
N285	N	0.178706	0.196370	0.000074
N286	N	0.678706	0.696370	0.500074
N287	N	0.150755	0.235490	0.000060
N288	N	0.650755	0.735490	0.500060
H289	H	0.164536	0.267483	0.000039
H290	H	0.664536	0.767483	0.500039
N291	N	-0.275644	-0.030865	0.000190
N292	N	0.224356	0.469135	0.500190
N293	N	-0.247694	-0.069986	0.000204
N294	N	0.252306	0.430014	0.500204
H295	H	-0.261478	-0.101977	0.000208
H296	H	0.238522	0.398023	0.500208
H297	H	0.506708	0.125721	0.412706
H298	H	1.006708	0.625721	0.912706
N299	N	0.484026	-0.169242	0.000111
N300	N	0.984026	0.330758	0.500111
N301	N	0.473904	-0.196005	-0.097924
N302	N	0.973904	0.303995	0.402076
H303	H	0.441916	-0.209795	-0.097967
H304	H	0.941916	0.290205	0.402033
H305	H	0.117558	-0.061861	0.000246
H306	H	0.617558	0.438139	0.500246
N307	N	0.663278	-0.091930	0.000252
N308	N	1.163278	0.408070	0.500252
N309	N	0.692731	-0.101642	0.098278
N310	N	1.192731	0.398358	0.598278
H311	H	0.724718	-0.087850	0.098316
H312	H	1.224718	0.412150	0.598316
H313	H	-0.033688	-0.063392	0.000237
H314	H	0.466312	0.436608	0.500237
N315	N	0.215489	-0.070012	0.000268
N316	N	0.715489	0.429988	0.500268
N317	N	0.198406	-0.109593	0.000300
N318	N	0.698406	0.390407	0.500300
H319	H	0.220973	-0.141213	0.000331
H320	H	0.720973	0.358787	0.500331
H321	H	0.434827	-0.014492	0.000132
H322	H	0.934827	0.485508	0.500132
N323	N	0.027470	0.194834	0.000103
N324	N	0.527470	0.694834	0.500103
N325	N	-0.000481	0.233954	0.000087
N326	N	0.499519	0.733954	0.500087
H327	H	0.013301	0.265946	0.000063
H328	H	0.513301	0.765946	0.500063
H329	H	0.694889	-0.425336	0.000158
H330	H	1.194889	0.074664	0.500158
N331	N	0.657036	-0.706993	0.000146
N332	N	1.157036	-0.206993	0.500146
N333	N	0.696157	-0.734943	0.000168
N334	N	1.196157	-0.234943	0.500168
H335	H	0.728149	-0.721159	0.000192
H336	H	1.228149	-0.221159	0.500192
H337	H	0.646911	-0.802415	0.000113
H338	H	1.146911	-0.302415	0.500113
N339	N	0.478807	-0.682396	0.000051
N340	N	0.978807	-0.182396	0.500051
N341	N	0.439229	-0.699483	0.000042
N342	N	0.939229	-0.199483	0.500042
H343	H	0.407607	-0.676919	0.000031
H344	H	0.907607	-0.176919	0.500031
N345	N	0.436061	-0.546292	0.000056
N346	N	0.936061	-0.046292	0.500056
N347	N	0.406600	-0.536590	0.098057
N348	N	0.906600	-0.036590	0.598057
H349	H	0.374612	-0.550381	0.098052
H350	H	0.874612	-0.050381	0.598052
N351	N	0.438630	-0.293144	0.000068
N352	N	0.938630	0.206856	0.500068
N353	N	0.429074	-0.263661	0.098087
N354	N	0.929074	0.236339	0.598087
H355	H	0.397456	-0.241090	0.098099
H356	H	0.897456	0.258910	0.598099
N357	N	0.437587	-0.395036	0.000030
N358	N	0.937587	0.104964	0.500030
N359	N	0.398468	-0.367083	0.000004
N360	N	0.898468	0.132917	0.500004
H361	H	0.366474	-0.380864	-0.000023
H362	H	0.866474	0.119136	0.499977
H363	H	0.446177	-0.450879	0.000051
H364	H	0.946177	0.049121	0.500051
H365	H	0.494146	-0.073812	0.000159
H366	H	0.994146	0.426188	0.500159
N367	N	0.702424	-0.583074	0.000142
N368	N	1.202424	-0.083074	0.500142
N369	N	0.701954	-0.628085	0.000137
N370	N	1.201954	-0.128085	0.500137
H371	H	0.733563	-0.650670	0.000152
H372	H	1.233563	-0.150670	0.500152
