data_functionalizedCrystal
_audit_creation_method	'MofGen! by Chris Wilmer'
_symmetry_space_group_name_H-M	'P1'
_symmetry_Int_Tables_number	1
_symmetry_cell_setting	triclinic
loop_
_symmetry_equiv_pos_as_xyz
  x,y,z
_cell_length_a	10.723024
_cell_length_b	9.565339
_cell_length_c	10.723023
_cell_angle_alpha	89.998758
_cell_angle_beta	84.467709
_cell_angle_gamma	90.003287
loop_
_atom_site_label
_atom_site_type_symbol
_atom_site_fract_x
_atom_site_fract_y
_atom_site_fract_z
O1	O	1.657187	0.116248	0.175018
O2	O	2.157187	0.616248	0.675018
O3	O	1.294035	0.116252	0.191772
O4	O	1.794035	0.616252	0.691772
O5	O	1.483988	0.116244	0.001819
O6	O	1.983988	0.616244	0.501819
O7	O	1.467234	0.116256	0.364971
O8	O	1.967234	0.616256	0.864971
O9	O	1.483973	-0.116276	0.001831
O10	O	1.983973	0.383724	0.501831
O11	O	1.294020	-0.116268	0.191783
O12	O	1.794020	0.383732	0.691783
O13	O	1.657172	-0.116272	0.175030
O14	O	2.157172	0.383728	0.675030
Zn15	Zn	1.475594	-0.153188	0.183409
Zn16	Zn	1.975594	0.346812	0.683409
Zn17	Zn	1.475613	0.153167	0.183393
Zn18	Zn	1.975613	0.653167	0.683393
O19	O	1.467219	-0.116264	0.364983
O20	O	1.967219	0.383736	0.864983
C21	C	1.247528	-0.000007	0.190558
C22	C	1.747528	0.499993	0.690558
C23	C	1.108973	-0.000006	0.186911
C24	C	1.608973	0.499994	0.686911
N25	N	1.475589	-0.362267	0.183419
N26	N	1.975589	0.137733	0.683419
C27	C	1.033991	-0.000001	0.293198
C28	C	1.533991	0.499999	0.793198
C29	C	0.890787	0.000000	0.289431
C30	C	1.390787	0.500000	0.789431
C31	C	1.387715	-0.453467	0.271236
C32	C	1.887715	0.046533	0.771236
C33	C	1.500690	-0.546646	0.296416
C34	C	2.000690	-0.046646	0.796416
C35	C	1.362663	-0.546643	0.158249
C36	C	1.862663	-0.046643	0.658249
C37	C	1.588622	-0.453395	0.208655
C38	C	2.088622	0.046605	0.708655
C39	C	1.450520	-0.453384	0.070439
C40	C	1.950520	0.046616	0.570439
C41	C	1.563576	-0.546521	0.095571
C42	C	2.063576	-0.046521	0.595571
C43	C	1.703679	-0.000010	0.176243
C44	C	2.203679	0.499990	0.676243
C45	C	1.842234	-0.000002	0.179891
C46	C	2.342234	0.499998	0.679891
C47	C	1.482762	-0.000015	-0.044675
C48	C	1.982762	0.499985	0.455325
C49	C	1.479114	-0.000010	-0.183229
C50	C	1.979114	0.499990	0.316771
N51	N	1.475628	0.362247	0.183373
N52	N	1.975628	0.862247	0.683373
C53	C	1.477496	0.120444	-0.245001
C54	C	1.977496	0.620444	0.254999
C55	C	1.473727	0.120452	-0.388204
C56	C	1.973727	0.620452	0.111796
C57	C	1.468445	-0.000003	0.411477
C58	C	1.968445	0.499997	0.911477
C59	C	1.472093	0.000002	0.550031
C60	C	1.972093	0.500002	1.050031
H61	H	1.075812	-0.000006	0.386984
H62	H	1.575812	0.499994	0.886984
H63	H	1.313471	-0.412609	0.345569
H64	H	1.813471	0.087391	0.845569
Cl65	Cl	1.533471	-0.609895	0.443897
Cl66	Cl	2.033471	-0.109895	0.943897
H67	H	1.267147	-0.587607	0.136980
H68	H	1.767147	-0.087607	0.636980
Cl69	Cl	0.941699	0.000003	0.039396
Cl70	Cl	1.441699	0.500003	0.539396
Cl71	Cl	1.417687	-0.390080	-0.077000
Cl72	Cl	1.917687	0.109920	0.423000
H73	H	1.472341	0.223577	-0.441327
H74	H	1.972341	0.723577	0.058673
H75	H	0.826354	0.000010	0.380421
H76	H	1.326354	0.500010	0.880421
Cl77	Cl	1.479695	0.279662	-0.162983
Cl78	Cl	1.979695	0.779662	0.337017
H79	H	1.477701	-0.103130	-0.236361
H80	H	1.977701	0.396870	0.263639
Cl81	Cl	1.736128	-0.390431	0.241667
Cl82	Cl	2.236128	0.109569	0.741667
Cl83	Cl	1.474251	-0.159230	-0.367969
Cl84	Cl	1.974251	0.340770	0.132031
Cl85	Cl	1.678455	-0.609220	-0.019121
Cl86	Cl	2.178455	-0.109220	0.480879
H87	H	1.067152	0.000027	0.093125
H88	H	1.567152	0.500027	0.593125
