data_functionalizedCrystal
_audit_creation_method	'MofGen! by Chris Wilmer'
_symmetry_space_group_name_H-M	'P1'
_symmetry_Int_Tables_number	1
_symmetry_cell_setting	triclinic
loop_
_symmetry_equiv_pos_as_xyz
  x,y,z
_cell_length_a	18.215407
_cell_length_b	13.897447
_cell_length_c	18.215407
_cell_angle_alpha	90.009321
_cell_angle_beta	90.010236
_cell_angle_gamma	90.019978
loop_
_atom_site_label
_atom_site_type_symbol
_atom_site_fract_x
_atom_site_fract_y
_atom_site_fract_z
Zn1	Zn	1.125030	-0.384163	0.416130
Zn2	Zn	1.458363	-0.050830	0.749464
Zn3	Zn	1.791696	0.282504	1.082797
Zn4	Zn	1.124970	-0.545428	0.293070
Zn5	Zn	1.458303	-0.212095	0.626404
Zn6	Zn	1.791637	0.121238	0.959737
Zn7	Zn	1.001983	-0.384150	0.293078
Zn8	Zn	1.335316	-0.050817	0.626411
Zn9	Zn	1.668649	0.282516	0.959745
Zn10	Zn	1.001940	-0.545419	0.416095
Zn11	Zn	1.335273	-0.212086	0.749429
Zn12	Zn	1.668606	0.121248	1.082762
O13	O	1.063481	-0.464790	0.354593
O14	O	1.396814	-0.131457	0.687927
O15	O	1.730147	0.201876	1.021260
O16	O	1.228006	-0.405565	0.399818
O17	O	1.561339	-0.072231	0.733151
O18	O	1.894673	0.261102	1.066485
O19	O	1.108649	-0.524033	0.190087
O20	O	1.441982	-0.190700	0.523420
O21	O	1.775315	0.142634	0.856754
O22	O	1.018348	-0.249170	0.309419
O23	O	1.351682	0.084163	0.642752
O24	O	1.685015	0.417496	0.976086
O25	O	1.227962	-0.524046	0.309406
O26	O	1.561296	-0.190712	0.642740
O27	O	1.894629	0.142621	0.976073
O28	O	1.108750	-0.249180	0.399825
O29	O	1.442083	0.084154	0.733158
O30	O	1.775417	0.417487	1.066492
O31	O	1.018291	-0.405543	0.190093
O32	O	1.351624	-0.072209	0.523426
O33	O	1.684957	0.261124	0.856759
O34	O	0.898993	-0.405534	0.309385
O35	O	1.232326	-0.072200	0.642718
O36	O	1.565659	0.261133	0.976051
O37	O	1.018275	-0.524029	0.519084
O38	O	1.351608	-0.190696	0.852418
O39	O	1.684941	0.142637	1.185751
O40	O	0.898961	-0.524017	0.399765
O41	O	1.232294	-0.190684	0.733098
O42	O	1.565628	0.142650	1.066432
O43	O	1.108708	-0.405555	0.519110
O44	O	1.442042	-0.072222	0.852443
O45	O	1.775375	0.261111	1.185777
O46	O	1.108607	-0.680409	0.309372
O47	O	1.441940	-0.347075	0.642705
O48	O	1.775274	-0.013742	0.976039
O49	O	1.018217	-0.680402	0.399758
O50	O	1.351550	-0.347069	0.733091
O51	O	1.684884	-0.013735	1.066425
C52	C	0.872274	-0.464774	0.354572
C53	C	1.205608	-0.131440	0.687906
C54	C	1.538941	0.201893	1.021239
C55	C	0.790475	-0.464790	0.354581
C56	C	1.123809	-0.131457	0.687914
C57	C	1.457142	0.201877	1.021247
C58	C	1.063421	-0.715405	0.354576
C59	C	1.396754	-0.382071	0.687910
C60	C	1.730087	-0.048738	1.021243
C61	C	1.063462	-0.822618	0.354594
C62	C	1.396796	-0.489285	0.687927
C63	C	1.730129	-0.155952	1.021260
C64	C	0.602284	-0.526581	0.401583
C65	C	0.935617	-0.193248	0.734916
C66	C	1.268951	0.140086	1.068249
C67	C	0.525425	-0.526584	0.401592
C68	C	0.858759	-0.193251	0.734925
C69	C	1.192092	0.140082	1.068259
C70	C	0.525429	-0.403017	0.307620
C71	C	0.858762	-0.069683	0.640954
C72	C	1.192096	0.263650	0.974287
C73	C	0.602286	-0.403010	0.307615
C74	C	0.935620	-0.069676	0.640949
C75	C	1.268953	0.263657	0.974282
C76	C	0.640712	-0.464797	0.354596
C77	C	0.974045	-0.131464	0.687929
C78	C	1.307379	0.201869	1.021262
C79	C	0.486996	-0.464807	0.354610
C80	C	0.820329	-0.131474	0.687943
C81	C	1.153662	0.201859	1.021276
C82	C	0.403662	-0.464810	0.354619
C83	C	0.736995	-0.131477	0.687953
C84	C	1.070329	0.201856	1.021286
C85	C	0.724051	-0.464793	0.354587
C86	C	1.057384	-0.131460	0.687920
C87	C	1.390718	0.201873	1.021254
C88	C	1.063498	-0.909688	0.354611
C89	C	1.396831	-0.576355	0.687944
C90	C	1.730165	-0.243022	1.021277
C91	C	1.063550	-1.018921	0.354629
C92	C	1.396883	-0.685587	0.687963
C93	C	1.730216	-0.352254	1.021296
C94	C	1.255433	-0.464807	0.354615
C95	C	1.588767	-0.131474	0.687948
C96	C	1.922100	0.201859	1.021282
C97	C	1.337232	-0.464815	0.354624
C98	C	1.670566	-0.131482	0.687958
C99	C	2.003899	0.201852	1.021291
C100	C	1.063493	-0.464793	0.546546
C101	C	1.396827	-0.131459	0.879880
C102	C	1.730160	0.201874	1.213213
C103	C	1.063499	-0.464794	0.628345
C104	C	1.396832	-0.131461	0.961679
C105	C	1.730165	0.201873	1.295012
C106	C	1.063561	-0.213197	0.354627
C107	C	1.396894	0.120136	0.687960
C108	C	1.730227	0.453469	1.021293
C109	C	1.063595	-0.105983	0.354641
C110	C	1.396928	0.227350	0.687974
C111	C	1.730261	0.560683	1.021308
C112	C	1.110573	-0.403115	0.816554
C113	C	1.443906	-0.069781	1.149887
C114	C	1.777239	0.263552	1.483220
C115	C	1.110569	-0.403114	0.893413
C116	C	1.443902	-0.069781	1.226746
C117	C	1.777235	0.263553	1.560079
C118	C	1.016400	-0.526487	0.893374
C119	C	1.349734	-0.193154	1.226708
C120	C	1.683067	0.140179	1.560041
C121	C	1.016401	-0.526482	0.816517
C122	C	1.349735	-0.193149	1.149850
C123	C	1.683068	0.140184	1.483184
C124	C	1.063492	-0.464797	0.778109
C125	C	1.396825	-0.131464	1.111442
C126	C	1.730158	0.201869	1.444775
C127	C	1.063487	-0.464802	0.931825
C128	C	1.396820	-0.131469	1.265158
C129	C	1.730153	0.201865	1.598492
C130	C	1.063482	-0.464802	1.015159
C131	C	1.396815	-0.131469	1.348492
C132	C	1.730149	0.201865	1.681825
C133	C	1.063496	-0.464796	0.694770
C134	C	1.396829	-0.131462	1.028103
C135	C	1.730162	0.201871	1.361436
C136	C	1.063468	-0.464808	1.163387
C137	C	1.396801	-0.131475	1.496721
C138	C	1.730135	0.201858	1.830054
C139	C	1.063480	-0.464805	1.081588
C140	C	1.396813	-0.131472	1.414922
C141	C	1.730147	0.201861	1.748255
H142	H	0.494141	-0.576893	0.439855
H143	H	0.827474	-0.243560	0.773188
H144	H	1.160808	0.089773	1.106521
H145	H	0.494133	-0.352713	0.269370
H146	H	0.827467	-0.019380	0.602703
H147	H	1.160800	0.313954	0.936036
N148	N	0.643740	-0.336356	0.256943
N149	N	0.977073	-0.003022	0.590277
N150	N	1.310407	0.330311	0.923610
H151	H	0.607736	-0.297217	0.227181
H152	H	0.941070	0.036117	0.560514
H153	H	1.274403	0.369450	0.893848
H154	H	0.675617	-0.375540	0.222833
H155	H	1.008951	-0.042207	0.556166
H156	H	1.342284	0.291127	0.889499
N157	N	1.161359	-0.336585	0.775126
N158	N	1.494693	-0.003252	1.108459
N159	N	1.828026	0.330081	1.441793
H160	H	1.191183	-0.297509	0.811146
H161	H	1.524517	0.035824	1.144480
H162	H	1.857850	0.369158	1.477813
H163	H	1.131417	-0.291944	0.743238
H164	H	1.464750	0.041390	1.076571
H165	H	1.798083	0.374723	1.409905
N166	N	1.161340	-0.336574	0.934879
N167	N	1.494674	-0.003241	1.268213
N168	N	1.828007	0.330092	1.601546
H169	H	1.191167	-0.297496	0.898883
H170	H	1.524501	0.035837	1.232216
H171	H	1.857834	0.369171	1.565550
H172	H	1.195387	-0.375832	0.966774
H173	H	1.528720	-0.042499	1.300107
H174	H	1.862053	0.290835	1.633441
H175	H	0.978057	-0.576711	0.785214
H176	H	1.311390	-0.243378	1.118548
H177	H	1.644724	0.089956	1.451881
H178	H	0.633568	-0.576890	0.439839
H179	H	0.966901	-0.243557	0.773172
H180	H	1.300235	0.089776	1.106506
H181	H	0.978063	-0.576711	0.924656
H182	H	1.311396	-0.243378	1.257989
H183	H	1.644729	0.089956	1.591322
