data_functionalizedCrystal
_audit_creation_method	'MofGen! by Chris Wilmer'
_symmetry_space_group_name_H-M	'P1'
_symmetry_Int_Tables_number	1
_symmetry_cell_setting	triclinic
loop_
_symmetry_equiv_pos_as_xyz
  x,y,z
_cell_length_a	12.784905
_cell_length_b	14.044190
_cell_length_c	11.892095
_cell_angle_alpha	94.240074
_cell_angle_beta	86.511728
_cell_angle_gamma	83.149548
loop_
_atom_site_label
_atom_site_type_symbol
_atom_site_fract_x
_atom_site_fract_y
_atom_site_fract_z
O1	O	1.417047	-0.000676	-0.094010
O2	O	1.111413	0.039602	-0.094015
O3	O	1.259637	-0.118142	-0.093990
O4	O	1.268823	0.157068	-0.094035
O5	O	1.247277	-0.105008	0.094015
O6	O	1.099052	0.052736	0.093990
O7	O	1.404687	0.012457	0.093996
Zn8	Zn	1.249907	0.034682	0.123843
Zn9	Zn	1.266192	0.017377	-0.123862
O10	O	1.256462	0.170201	0.093971
C11	C	1.065882	0.048788	-0.000013
C12	C	0.948627	0.056583	-0.000014
C13	C	1.249439	-0.146558	0.000016
C14	C	1.237456	-0.250796	0.000025
C15	C	0.737182	-0.102219	-0.000008
C16	C	0.627011	-0.094900	-0.000009
C17	C	0.618113	0.078538	-0.000025
C18	C	0.728284	0.071219	-0.000024
C19	C	0.787815	-0.019162	-0.000014
C20	C	0.897987	-0.026480	-0.000005
C21	C	0.889088	0.146957	-0.000028
C22	C	0.778917	0.154276	-0.000029
C23	C	1.300537	-0.506284	-0.000018
C24	C	1.215568	-0.441652	-0.000011
C25	C	1.227749	-0.335450	0.000009
C26	C	1.288357	-0.612496	-0.000038
C27	C	1.450218	0.003271	-0.000009
C28	C	1.567473	-0.004524	-0.000016
C29	C	1.266660	0.198617	-0.000038
C30	C	1.278644	0.302855	-0.000055
N31	N	1.238800	0.046491	0.292895
N32	N	1.277307	0.005561	-0.292915
C33	C	1.354587	-0.076663	0.529562
C34	C	1.346832	-0.068402	0.647903
C35	C	1.215530	0.071267	0.647919
C36	C	1.223285	0.063006	0.529578
C37	C	1.292817	-0.010960	0.470404
C38	C	1.300577	-0.019215	0.352062
C39	C	1.169270	0.120449	0.352080
C40	C	1.161515	0.128709	0.470420
H41	H	0.785652	-0.175810	0.000007
H42	H	1.382422	-0.481859	-0.000005
O43	O	1.375551	-0.098997	0.288222
H44	H	1.457422	-0.092188	0.310909
O45	O	1.140519	0.151028	0.711745
H46	H	1.162381	0.221668	0.689023
O47	O	0.943703	0.236546	-0.000017
H48	H	0.883794	0.300620	-0.000009
O49	O	1.107087	-0.473996	-0.000002
H50	H	1.102520	-0.523069	-0.076628
O51	O	1.429577	-0.156434	0.465726
H52	H	1.471226	-0.200737	0.526745
H53	H	1.397130	-0.121905	0.696066
O54	O	1.086529	0.208490	0.534244
H55	H	1.091518	0.203202	0.626473
H56	H	0.585791	-0.162533	-0.000007
H57	H	1.118976	0.173951	0.303900
H58	H	0.946455	-0.100073	0.000005
O59	O	0.553888	0.176011	-0.000027
H60	H	0.508514	0.178138	-0.076652
O61	O	0.714708	0.251757	-0.000024
H62	H	0.629591	0.242896	-0.000012
