data_functionalizedCrystal
_audit_creation_method	'MofGen! by Chris Wilmer'
_symmetry_space_group_name_H-M	'P1'
_symmetry_Int_Tables_number	1
_symmetry_cell_setting	triclinic
loop_
_symmetry_equiv_pos_as_xyz
  x,y,z
_cell_length_a	8.559649
_cell_length_b	22.610064
_cell_length_c	8.559649
_cell_angle_alpha	90.005107
_cell_angle_beta	110.221336
_cell_angle_gamma	90.006862
loop_
_atom_site_label
_atom_site_type_symbol
_atom_site_fract_x
_atom_site_fract_y
_atom_site_fract_z
O1	O	2.126895	0.049175	0.055058
O2	O	1.651411	0.049178	-0.028723
O3	O	1.931044	0.049176	0.250910
O4	O	1.847262	0.049177	-0.224575
O5	O	1.930995	-0.049194	0.250869
O6	O	1.651362	-0.049192	-0.028764
O7	O	2.126847	-0.049194	0.055017
Zn8	Zn	1.889097	-0.064811	0.013119
Zn9	Zn	1.889161	0.064795	0.013174
O10	O	1.847214	-0.049192	-0.224616
C11	C	1.591077	-0.000007	-0.035093
C12	C	1.411378	-0.000006	-0.053992
N13	N	1.889065	-0.153263	0.013084
C14	C	2.012985	-0.561906	0.136980
C15	C	2.012995	-0.623826	0.136992
O16	O	2.118284	-0.655845	0.242300
N17	N	1.889163	-0.654801	0.013208
C18	C	1.765305	-0.623852	-0.110588
O19	O	1.659977	-0.655885	-0.215874
C20	C	1.765290	-0.561934	-0.110592
C21	C	1.889139	-0.530962	0.013191
C22	C	2.136823	-0.530934	0.260754
C23	C	2.136815	-0.469018	0.260739
C24	C	2.012968	-0.438074	0.136950
C25	C	1.889130	-0.469046	0.013176
C26	C	1.641426	-0.530987	-0.234380
C27	C	1.641420	-0.469064	-0.234373
C28	C	1.765269	-0.438092	-0.110590
C29	C	1.765276	-0.376187	-0.110628
N30	N	1.889107	-0.345212	0.013156
C31	C	2.012953	-0.376156	0.136945
C32	C	1.765344	-0.753886	-0.110567
C33	C	1.765365	-0.815804	-0.110571
C34	C	2.013053	-0.815773	0.137011
C35	C	2.013038	-0.753854	0.137007
C36	C	1.889175	-0.722911	0.013217
C37	C	2.012927	-0.246128	0.136903
C38	C	2.012911	-0.184207	0.136873
C39	C	1.765219	-0.184244	-0.110703
C40	C	1.765238	-0.246159	-0.110679
C41	C	1.889100	-0.277100	0.013138
O42	O	1.660036	-0.344128	-0.215878
O43	O	2.118251	-0.344116	0.242226
C44	C	2.187180	-0.000008	0.061387
C45	C	2.366879	-0.000005	0.080286
C46	C	1.937369	-0.000008	0.311198
C47	C	1.956268	-0.000005	0.490898
N48	N	1.889207	0.153247	0.013224
C49	C	1.840889	-0.000007	-0.284904
C50	C	1.821990	-0.000006	-0.464604
H51	H	1.466258	-0.000003	0.209705
O52	O	1.650554	-0.000008	0.403763
H53	H	1.555168	-0.000016	0.464619
H54	H	1.664388	-0.159040	-0.211495
O55	O	1.279747	-0.000009	-0.225444
H56	H	1.154523	-0.000014	-0.213889
H57	H	1.664403	-0.271377	-0.211488
O58	O	2.146639	-0.849150	0.270543
H59	H	2.088036	-0.877356	0.341060
H60	H	1.664530	-0.841017	-0.211381
O61	O	2.270413	-0.564305	0.394276
H62	H	2.340865	-0.592513	0.335609
O63	O	2.127713	-0.000013	0.622540
H64	H	2.223095	-0.000016	0.561680
H65	H	2.113785	-0.271313	0.237729
O66	O	2.146486	-0.150800	0.270396
H67	H	2.232589	-0.182724	0.356485
H68	H	1.664483	-0.728695	-0.211384
O69	O	2.270377	-0.435619	0.394273
H70	H	2.394295	-0.447501	0.389068
O71	O	2.146601	-0.720449	0.270527
H72	H	2.232708	-0.752375	0.356604
H73	H	1.540576	-0.556195	-0.335174
H74	H	1.540551	-0.443873	-0.335176
