data_functionalizedCrystal
_audit_creation_method	'MofGen! by Chris Wilmer'
_symmetry_space_group_name_H-M	'P1'
_symmetry_Int_Tables_number	1
_symmetry_cell_setting	triclinic
loop_
_symmetry_equiv_pos_as_xyz
  x,y,z
_cell_length_a	12.827893
_cell_length_b	12.827892
_cell_length_c	18.215399
_cell_angle_alpha	90.024028
_cell_angle_beta	90.017704
_cell_angle_gamma	90.015172
loop_
_atom_site_label
_atom_site_type_symbol
_atom_site_fract_x
_atom_site_fract_y
_atom_site_fract_z
Zn1	Zn	1.597655	-0.416045	0.416094
Zn2	Zn	1.597554	-0.590804	0.293036
Zn3	Zn	1.422901	-0.416077	0.293046
Zn4	Zn	1.422882	-0.590744	0.416066
O5	O	1.510248	-0.503417	0.354561
O6	O	1.743877	-0.439238	0.399778
O7	O	1.574352	-0.567665	0.190053
O8	O	1.446132	-0.269837	0.309385
O9	O	1.743804	-0.567633	0.309368
O10	O	1.574523	-0.269813	0.399788
O11	O	1.446035	-0.439294	0.190060
O12	O	1.276662	-0.439236	0.309357
O13	O	1.446100	-0.567531	0.519054
O14	O	1.276649	-0.567563	0.399739
O15	O	1.574505	-0.439180	0.519075
O16	O	1.574334	-0.737032	0.309340
O17	O	1.446003	-0.736988	0.399730
C18	C	1.238738	-0.503397	0.354547
C19	C	1.122585	-0.503414	0.354558
C20	C	1.510184	-0.774927	0.354547
C21	C	1.510252	-0.891081	0.354566
C22	C	1.070821	-0.567013	0.399213
C23	C	0.950771	-0.567032	0.399226
C24	C	1.446735	-0.942878	0.399260
C25	C	1.446803	-1.062928	0.399281
C26	C	1.782818	-0.503438	0.354575
C27	C	1.898971	-0.503447	0.354581
C28	C	1.510312	-0.503345	0.546514
C29	C	1.510339	-0.503315	0.628312
C30	C	1.510341	-0.230847	0.354590
C31	C	1.510381	-0.114694	0.354603
C32	C	1.510245	-0.503414	0.163354
C33	C	1.510420	-0.503150	0.081556
C34	C	1.577223	-0.436420	0.816519
C35	C	1.577236	-0.436389	0.893377
C36	C	1.443528	-0.570048	0.893344
C37	C	1.443511	-0.570072	0.816487
C38	C	1.510365	-0.503260	0.778076
C39	C	1.510394	-0.503205	0.931792
C40	C	1.510407	-0.503173	1.015126
C41	C	1.510351	-0.503291	0.694737
H42	H	1.115381	-0.621446	0.437437
H43	H	1.564679	-0.935611	0.316314
H44	H	1.392428	-1.107473	0.437548
Cl45	Cl	1.362694	-0.874135	0.458318
Cl46	Cl	1.661300	-0.352367	0.941702
Cl47	Cl	1.661263	-0.352423	0.768233
H48	H	1.389060	-0.624501	0.785186
Cl49	Cl	1.594351	-1.045933	0.295524
Cl50	Cl	1.359495	-0.654042	0.941638
H51	H	0.906255	-0.621485	0.437454
H52	H	1.078025	-0.448974	0.316340
Cl53	Cl	0.967688	-0.419379	0.295547
