data_functionalizedCrystal
_audit_creation_method	'MofGen! by Chris Wilmer'
_symmetry_space_group_name_H-M	'P1'
_symmetry_Int_Tables_number	1
_symmetry_cell_setting	triclinic
loop_
_symmetry_equiv_pos_as_xyz
  x,y,z
_cell_length_a	21.295417
_cell_length_b	10.685727
_cell_length_c	10.685880
_cell_angle_alpha	98.400383
_cell_angle_beta	94.332822
_cell_angle_gamma	94.350410
loop_
_atom_site_label
_atom_site_type_symbol
_atom_site_fract_x
_atom_site_fract_y
_atom_site_fract_z
Zn1	Zn	-0.360118	-1.995472	-0.866137
Zn2	Zn	-0.456656	-1.979008	-0.653854
Zn3	Zn	-0.342662	-1.766929	-0.637663
Zn4	Zn	-0.456595	-1.783126	-0.849800
O5	O	-0.404008	-1.881134	-0.751863
O6	O	-0.380255	-2.170911	-0.851590
O7	O	-0.434254	-1.937206	-0.474086
O8	O	-0.256895	-1.797358	-0.668032
O9	O	-0.451180	-2.158815	-0.695627
O10	O	-0.269720	-1.965268	-0.835890
O11	O	-0.350503	-1.781393	-0.462190
O12	O	-0.350445	-1.591455	-0.652190
O13	O	-0.451077	-1.824963	-1.029587
O14	O	-0.434151	-1.603354	-0.808046
O15	O	-0.380196	-1.980973	-1.041590
O16	O	-0.544730	-1.952911	-0.679786
O17	O	-0.544686	-1.808998	-0.823746
C18	C	-0.390398	-1.551349	-0.726589
C19	C	-0.384592	-1.410268	-0.715807
C20	C	-0.567550	-1.880962	-0.751780
C21	C	-0.637520	-1.881008	-0.751796
C22	C	-0.670395	-1.956022	-0.676925
C23	C	-0.736141	-1.956084	-0.676958
C24	C	-0.769008	-1.881108	-0.751847
C25	C	-0.736125	-1.806089	-0.826734
C26	C	-0.670381	-1.806039	-0.826709
N27	N	-0.868093	-1.770812	-0.753014
N28	N	-0.930547	-1.770863	-0.753031
C29	C	-0.967092	-1.881255	-0.751931
N30	N	-0.938822	-1.991596	-0.750789
N31	N	-0.876362	-1.991544	-0.750765
C32	C	-0.840297	-1.881154	-0.751884
C33	C	-1.071257	-1.956343	-0.677092
C34	C	-1.137004	-1.956407	-0.677134
C35	C	-1.136986	-1.806401	-0.826903
C36	C	-1.071241	-1.806348	-0.826868
C37	C	-1.038379	-1.881317	-0.751956
C38	C	-0.239830	-1.881343	-0.751977
C39	C	-0.169867	-1.881432	-0.752026
C40	C	-0.417577	-1.906611	-1.082932
C41	C	-0.423360	-1.917468	-1.224013
C42	C	-0.417667	-1.212206	-0.777225
C43	C	-0.423475	-1.353286	-0.788001
C44	C	-0.390449	-1.855828	-0.422089
C45	C	-0.384499	-1.845217	-0.281027
H46	H	-0.346856	-1.351122	-0.645758
H47	H	-0.461208	-1.412440	-0.858066
C48	C	-0.634836	-2.037566	-0.595573
C49	C	-0.677707	-2.103303	-0.530038
C50	C	-0.644973	-2.178450	-0.455102
H51	H	-0.604952	-1.984918	-0.536399
H52	H	-0.613443	-2.096620	-0.648380
H53	H	-0.699090	-2.044256	-0.477235
H54	H	-0.707593	-2.155974	-0.589180
H55	H	-0.623580	-2.237504	-0.507910
H56	H	-0.615090	-2.125792	-0.395936
H57	H	-0.674056	-2.223070	-0.410637
H58	H	-0.762914	-2.017174	-0.615989
H59	H	-0.762890	-1.745045	-0.887712
H60	H	-0.461055	-1.987636	-1.283133
C61	C	-0.634794	-1.724450	-0.908035
C62	C	-0.677644	-1.658780	-0.973611
C63	C	-0.644881	-1.583593	-1.048526
H64	H	-0.613375	-1.777067	-0.967183
H65	H	-0.604926	-1.665356	-0.855210
H66	H	-0.707500	-1.717866	-1.026431
H67	H	-0.699064	-1.606140	-0.914494
H68	H	-0.615013	-1.524500	-0.995702
H69	H	-0.623464	-1.636219	-1.107667
H70	H	-0.673949	-1.539018	-1.093020
H71	H	-1.163771	-2.017501	-0.616168
C72	C	-1.035691	-2.037875	-0.595731
C73	C	-1.078560	-2.103618	-0.530199
C74	C	-1.045823	-2.178747	-0.455248
H75	H	-1.005812	-1.985214	-0.536556
H76	H	-1.014291	-2.096925	-0.648528
H77	H	-1.099950	-2.044575	-0.477406
H78	H	-1.108440	-2.156302	-0.589343
H79	H	-1.024423	-2.237797	-0.508046
H80	H	-1.015945	-2.126076	-0.396081
H81	H	-1.074905	-2.223371	-0.410785
C82	C	-1.172773	-1.725040	-0.908085
C83	C	-1.237385	-1.741118	-0.892066
C84	C	-1.270373	-1.666181	-0.966826
H85	H	-1.166302	-1.750029	-0.994841
H86	H	-1.157797	-1.638298	-0.882889
H87	H	-1.252355	-1.827842	-0.917270
H88	H	-1.243874	-1.716121	-0.805326
H89	H	-1.255397	-1.579438	-0.941630
H90	H	-1.263897	-1.691177	-1.053577
H91	H	-1.314214	-1.677071	-0.955959
C92	C	-1.035652	-1.724751	-0.908181
C93	C	-1.078502	-1.659075	-0.973749
C94	C	-1.045740	-1.583882	-1.048659
H95	H	-1.014234	-1.777364	-0.967335
H96	H	-1.005783	-1.665661	-0.855354
H97	H	-1.108360	-1.718158	-1.026572
H98	H	-1.099922	-1.606439	-0.914627
H99	H	-1.015872	-1.524791	-0.995832
H100	H	-1.024324	-1.636504	-1.107805
H101	H	-1.074809	-1.539303	-1.093147
C102	C	-0.334305	-1.751436	-1.202250
C103	C	-0.344141	-1.628279	-1.224758
C104	C	-0.297922	-1.541855	-1.152198
H105	H	-0.293625	-1.771543	-1.225297
H106	H	-0.336968	-1.756234	-1.114704
H107	H	-0.341472	-1.623486	-1.312285
H108	H	-0.384812	-1.608133	-1.201704
H109	H	-0.300585	-1.546652	-1.064652
H110	H	-0.257245	-1.561973	-1.175252
H111	H	-0.304593	-1.458282	-1.167451
