data_functionalizedCrystal
_audit_creation_method	'MofGen! by Chris Wilmer'
_symmetry_space_group_name_H-M	'P1'
_symmetry_Int_Tables_number	1
_symmetry_cell_setting	triclinic
loop_
_symmetry_equiv_pos_as_xyz
  x,y,z
_cell_length_a	19.288840
_cell_length_b	18.366186
_cell_length_c	19.288865
_cell_angle_alpha	89.993214
_cell_angle_beta	96.868869
_cell_angle_gamma	90.013590
loop_
_atom_site_label
_atom_site_type_symbol
_atom_site_fract_x
_atom_site_fract_y
_atom_site_fract_z
O1	O	0.921362	0.060680	-0.086561
O2	O	1.171362	0.310680	0.163439
O3	O	1.421362	0.560680	0.413439
O4	O	1.671362	0.810680	0.663439
O5	O	0.719099	0.060655	-0.098268
O6	O	0.969099	0.310655	0.151732
O7	O	1.219099	0.560655	0.401732
O8	O	1.469099	0.810655	0.651732
O9	O	0.826075	0.060654	0.008716
O10	O	1.076075	0.310654	0.258716
O11	O	1.326075	0.560654	0.508716
O12	O	1.576075	0.810654	0.758716
O13	O	0.814386	0.060681	-0.193546
O14	O	1.064386	0.310681	0.056454
O15	O	1.314386	0.560681	0.306454
O16	O	1.564386	0.810681	0.556454
O17	O	0.826061	-0.060446	0.008712
O18	O	1.076061	0.189554	0.258712
O19	O	1.326061	0.439554	0.508712
O20	O	1.576061	0.689554	0.758712
O21	O	0.719085	-0.060444	-0.098272
O22	O	0.969085	0.189556	0.151728
O23	O	1.219085	0.439556	0.401728
O24	O	1.469085	0.689556	0.651728
O25	O	0.921348	-0.060420	-0.086565
O26	O	1.171348	0.189580	0.163435
O27	O	1.421348	0.439580	0.413435
O28	O	1.671348	0.689580	0.663435
Zn29	Zn	0.820214	-0.079659	-0.092419
Zn30	Zn	1.070214	0.170341	0.157581
Zn31	Zn	1.320214	0.420341	0.407581
Zn32	Zn	1.570214	0.670341	0.657581
Zn33	Zn	0.820232	0.079895	-0.092414
Zn34	Zn	1.070232	0.329895	0.157586
Zn35	Zn	1.320232	0.579895	0.407586
Zn36	Zn	1.570232	0.829895	0.657586
O37	O	0.814372	-0.060418	-0.193549
O38	O	1.064372	0.189582	0.056451
O39	O	1.314372	0.439582	0.306451
O40	O	1.564372	0.689582	0.556451
C41	C	0.693215	0.000102	-0.097896
C42	C	0.943215	0.250102	0.152104
C43	C	1.193215	0.500102	0.402104
C44	C	1.443215	0.750102	0.652104
C45	C	0.616110	0.000093	-0.096774
C46	C	0.866110	0.250093	0.153226
C47	C	1.116110	0.500093	0.403226
C48	C	1.366110	0.750093	0.653226
C49	C	0.579914	0.066106	-0.096233
C50	C	0.829914	0.316106	0.153767
C51	C	1.079914	0.566106	0.403767
C52	C	1.329914	0.816106	0.653767
C53	C	0.507467	0.066114	-0.095171
C54	C	0.757467	0.316114	0.154829
C55	C	1.007467	0.566114	0.404829
C56	C	1.257467	0.816114	0.654829
C57	C	0.471221	0.000106	-0.094636
C58	C	0.721221	0.250106	0.155364
C59	C	0.971221	0.500106	0.405364
C60	C	1.221221	0.750106	0.655364
C61	C	0.507425	-0.065915	-0.095181
C62	C	0.757425	0.184085	0.154819
C63	C	1.007425	0.434085	0.404819
C64	C	1.257425	0.684085	0.654819
C65	C	0.579870	-0.065922	-0.096250
C66	C	0.829870	0.184078	0.153750
C67	C	1.079870	0.434078	0.403750
C68	C	1.329870	0.684078	0.653750
C69	C	0.361888	-0.050461	-0.052260
C70	C	0.611888	0.199539	0.197740
C71	C	0.861888	0.449539	0.447740
C72	C	1.111888	0.699539	0.697740
C73	C	0.289445	-0.050451	-0.051187
C74	C	0.539445	0.199549	0.198813
C75	C	0.789445	0.449549	0.448813
C76	C	1.039445	0.699549	0.698813
C77	C	0.247778	0.000125	-0.091342
C78	C	0.497778	0.250125	0.158658
C79	C	0.747778	0.500125	0.408658
C80	C	0.997778	0.750125	0.658658
C81	C	0.278563	0.050703	-0.132562
C82	C	0.528563	0.300703	0.117438
C83	C	0.778563	0.550703	0.367438
C84	C	1.028563	0.800703	0.617438
C85	C	0.351007	0.050697	-0.133631
C86	C	0.601007	0.300697	0.116369
C87	C	0.851007	0.550697	0.366369
C88	C	1.101007	0.800697	0.616369
C89	C	0.392667	0.000107	-0.093477
C90	C	0.642667	0.250107	0.156523
C91	C	0.892667	0.500107	0.406523
C92	C	1.142667	0.750107	0.656523
C93	C	0.133026	0.066152	-0.089651
C94	C	0.383026	0.316152	0.160349
C95	C	0.633026	0.566152	0.410349
C96	C	0.883026	0.816152	0.660349
C97	C	0.060577	0.066158	-0.088593
C98	C	0.310577	0.316158	0.161407
C99	C	0.560577	0.566158	0.411407
C100	C	0.810577	0.816158	0.661407
C101	C	0.060538	-0.065874	-0.088596
C102	C	0.310538	0.184126	0.161404
C103	C	0.560538	0.434126	0.411404
C104	C	0.810538	0.684126	0.661404
C105	C	0.132984	-0.065878	-0.089661
C106	C	0.382984	0.184122	0.160339
C107	C	0.632984	0.434122	0.410339
C108	C	0.882984	0.684122	0.660339
C109	C	0.169225	0.000137	-0.090185
C110	C	0.419225	0.250137	0.159815
C111	C	0.669225	0.500137	0.409815
C112	C	0.919225	0.750137	0.659815
C113	C	0.825692	0.000102	0.034591
C114	C	1.075692	0.250102	0.284591
C115	C	1.325692	0.500102	0.534591
C116	C	1.575692	0.750102	0.784591
C117	C	0.824563	0.000095	0.111694
C118	C	1.074563	0.250095	0.361694
C119	C	1.324563	0.500095	0.611694
C120	C	1.574563	0.750095	0.861694
C121	C	0.947232	0.000135	-0.086937
C122	C	1.197232	0.250135	0.163063
C123	C	1.447232	0.500135	0.413063
C124	C	1.697232	0.750135	0.663063
C125	C	1.024336	0.000149	-0.088059
C126	C	1.274336	0.250149	0.161941
C127	C	1.524336	0.500149	0.411941
C128	C	1.774336	0.750149	0.661941
N129	N	0.820207	-0.188550	-0.092422
N130	N	1.070207	0.061450	0.157578
N131	N	1.320207	0.311450	0.407578
N132	N	1.570207	0.561450	0.657578
C133	C	0.862238	-0.773088	-0.134416
C134	C	1.112238	-0.523088	0.115584
C135	C	1.362238	-0.273088	0.365584
C136	C	1.612238	-0.023088	0.615584
C137	C	0.862231	-0.696861	-0.134423
C138	C	1.112231	-0.446861	0.115577
C139	C	1.362231	-0.196861	0.365577
C140	C	1.612231	0.053139	0.615577
C141	C	0.820239	-0.658761	-0.092407
C142	C	1.070239	-0.408761	0.157593
C143	C	1.320239	-0.158761	0.407593
C144	C	1.570239	0.091239	0.657593
C145	C	0.778237	-0.696896	-0.050394
C146	C	1.028237	-0.446896	0.199606
C147	C	1.278237	-0.196896	0.449606
C148	C	1.528237	0.053104	0.699606
C149	C	0.778240	-0.773123	-0.050393
C150	C	1.028240	-0.523123	0.199607
C151	C	1.278240	-0.273123	0.449607
C152	C	1.528240	-0.023123	0.699607
C153	C	0.818512	-0.538004	-0.029782
C154	C	1.068512	-0.288004	0.220218
C155	C	1.318512	-0.038004	0.470218
C156	C	1.568512	0.211996	0.720218
C157	C	0.818514	-0.461779	-0.029781
C158	C	1.068514	-0.211779	0.220219
C159	C	1.318514	0.038221	0.470219
C160	C	1.568514	0.288221	0.720219
C161	C	0.820225	-0.423654	-0.092408
C162	C	1.070225	-0.173654	0.157592
C163	C	1.320225	0.076346	0.407592
C164	C	1.570225	0.326346	0.657592
C165	C	0.821949	-0.461763	-0.155038
C166	C	1.071949	-0.211763	0.094962
C167	C	1.321949	0.038237	0.344962
C168	C	1.571949	0.288237	0.594962
C169	C	0.821952	-0.537989	-0.155037
C170	C	1.071952	-0.287989	0.094963
C171	C	1.321952	-0.037989	0.344963
C172	C	1.571952	0.212011	0.594963
C173	C	0.820230	-0.576107	-0.092403
C174	C	1.070230	-0.326107	0.157597
C175	C	1.320230	-0.076107	0.407597
C176	C	1.570230	0.173893	0.657597
C177	C	0.862213	-0.302873	-0.134429
C178	C	1.112213	-0.052873	0.115571
C179	C	1.362213	0.197127	0.365571
C180	C	1.612213	0.447127	0.615571
C181	C	0.862200	-0.226644	-0.134438
C182	C	1.112200	0.023356	0.115562
C183	C	1.362200	0.273356	0.365562
C184	C	1.612200	0.523356	0.615562
C185	C	0.778211	-0.226681	-0.050402
C186	C	1.028211	0.023319	0.199598
C187	C	1.278211	0.273319	0.449598
C188	C	1.528211	0.523319	0.699598
C189	C	0.778219	-0.302909	-0.050400
C190	C	1.028219	-0.052909	0.199600
C191	C	1.278219	0.197091	0.449600
C192	C	1.528219	0.447091	0.699600
C193	C	0.820223	-0.341000	-0.092413
C194	C	1.070223	-0.091000	0.157587
C195	C	1.320223	0.159000	0.407587
C196	C	1.570223	0.409000	0.657587
N197	N	0.820245	0.188786	-0.092406
N198	N	1.070245	0.438786	0.157594
N199	N	1.320245	0.688786	0.407594
N200	N	1.570245	0.938786	0.657594
C201	C	0.814755	0.000135	-0.219424
C202	C	1.064755	0.250135	0.030576
C203	C	1.314755	0.500135	0.280576
C204	C	1.564755	0.750135	0.530576
C205	C	0.815884	0.000147	-0.296527
C206	C	1.065884	0.250147	-0.046527
C207	C	1.315884	0.500147	0.203473
C208	C	1.565884	0.750147	0.453473
C209	C	0.887331	0.000099	0.156396
C210	C	1.137331	0.250099	0.406396
C211	C	1.387331	0.500099	0.656396
C212	C	1.637331	0.750099	0.906396
C213	C	0.886270	0.000111	0.228843
C214	C	1.136270	0.250111	0.478843
C215	C	1.386270	0.500111	0.728843
C216	C	1.636270	0.750111	0.978843
C217	C	0.822438	0.000103	0.256585
C218	C	1.072438	0.250103	0.506585
C219	C	1.322438	0.500103	0.756585
C220	C	1.572438	0.750103	1.006585
C221	C	0.759661	0.000104	0.211873
C222	C	1.009661	0.250104	0.461873
C223	C	1.259661	0.500104	0.711873
C224	C	1.509661	0.750104	0.961873
C225	C	0.760723	0.000100	0.139428
C226	C	1.010723	0.250100	0.389428
C227	C	1.260723	0.500100	0.639428
C228	C	1.510723	0.750100	0.889428
C229	C	0.772253	-0.042321	0.364866
C230	C	1.022253	0.207679	0.614866
C231	C	1.272253	0.457679	0.864866
C232	C	1.522253	0.707679	1.114866
C233	C	0.771193	-0.042321	0.437311
C234	C	1.021193	0.207679	0.687311
C235	C	1.271193	0.457679	0.937311
C236	C	1.521193	0.707679	1.187311
C237	C	0.819158	0.000119	0.480030
C238	C	1.069158	0.250119	0.730030
C239	C	1.319158	0.500119	0.980030
C240	C	1.569158	0.750119	1.230030
C241	C	0.868195	0.042551	0.450298
C242	C	1.118195	0.292551	0.700298
C243	C	1.368195	0.542551	0.950298
C244	C	1.618195	0.792551	1.200298
C245	C	0.869257	0.042547	0.377852
C246	C	1.119257	0.292547	0.627852
C247	C	1.369257	0.542547	0.877852
C248	C	1.619257	0.792547	1.127852
C249	C	0.821278	0.000108	0.335139
C250	C	1.071278	0.250108	0.585139
C251	C	1.321278	0.500108	0.835139
C252	C	1.571278	0.750108	1.085139
C253	C	0.880781	0.000137	0.603288
C254	C	1.130781	0.250137	0.853288
C255	C	1.380781	0.500137	1.103288
C256	C	1.630781	0.750137	1.353288
C257	C	0.879717	0.000153	0.675736
C258	C	1.129717	0.250153	0.925736
C259	C	1.379717	0.500153	1.175736
C260	C	1.629717	0.750153	1.425736
C261	C	0.753106	0.000138	0.658764
C262	C	1.003106	0.250138	0.908764
C263	C	1.253106	0.500138	1.158764
C264	C	1.503106	0.750138	1.408764
C265	C	0.754171	0.000130	0.586318
C266	C	1.004171	0.250130	0.836318
C267	C	1.254171	0.500130	1.086318
C268	C	1.504171	0.750130	1.336318
C269	C	0.818010	0.000125	0.558584
C270	C	1.068010	0.250125	0.808584
C271	C	1.318010	0.500125	1.058584
C272	C	1.568010	0.750125	1.308584
H273	H	0.477909	-0.119660	-0.094747
H274	H	0.727909	0.130340	0.155253
H275	H	0.977909	0.380340	0.405253
H276	H	1.227909	0.630340	0.655253
F277	F	0.906936	-0.656276	-0.179129
F278	F	1.156936	-0.406276	0.070871
F279	F	1.406936	-0.156276	0.320871
F280	F	1.656936	0.093724	0.570871
F281	F	0.685169	0.000134	0.688284
F282	F	0.935169	0.250134	0.938284
F283	F	1.185169	0.500134	1.188284
F284	F	1.435169	0.750134	1.438284
H285	H	0.244638	0.091885	-0.165263
H286	H	0.494638	0.341885	0.084737
H287	H	0.744638	0.591885	0.334737
H288	H	0.994638	0.841885	0.584737
F289	F	0.921441	0.087708	0.346211
F290	F	1.171441	0.337708	0.596211
F291	F	1.421441	0.587708	0.846211
F292	F	1.671441	0.837708	1.096211
F293	F	0.021966	-0.136125	-0.088032
F294	F	0.271966	0.113875	0.161968
F295	F	0.521966	0.363875	0.411968
F296	F	0.771966	0.613875	0.661968
H297	H	0.707687	0.000099	0.234465
H298	H	0.957687	0.250099	0.484465
H299	H	1.207687	0.500099	0.734465
H300	H	1.457687	0.750099	0.984465
F301	F	0.468937	0.136377	-0.094595
F302	F	0.718937	0.386377	0.155405
F303	F	0.968937	0.636377	0.405405
F304	F	1.218937	0.886377	0.655405
H305	H	0.939314	0.000098	0.133820
H306	H	1.189314	0.250098	0.383820
H307	H	1.439314	0.500098	0.633820
H308	H	1.689314	0.750098	0.883820
H309	H	0.896412	-0.333889	-0.168642
H310	H	1.146412	-0.083889	0.081358
H311	H	1.396412	0.166111	0.331358
H312	H	1.646412	0.416111	0.581358
H313	H	0.733192	-0.076885	0.330089
H314	H	0.983192	0.173115	0.580089
H315	H	1.233192	0.423115	0.830089
H316	H	1.483192	0.673115	1.080089
H317	H	0.703058	0.000122	0.549920
H318	H	0.953058	0.250122	0.799920
H319	H	1.203058	0.500122	1.049920
H320	H	1.453058	0.750122	1.299920
F321	F	0.719007	-0.087483	0.468948
F322	F	0.969007	0.162517	0.718948
F323	F	1.219007	0.412517	0.968948
F324	F	1.469007	0.662517	1.218948
F325	F	0.733543	-0.813700	-0.005678
F326	F	0.983543	-0.563700	0.244322
F327	F	1.233543	-0.313700	0.494322
F328	F	1.483543	-0.063700	0.744322
H329	H	0.896395	-0.195603	-0.168652
H330	H	1.146395	0.054397	0.081348
H331	H	1.396395	0.304397	0.331348
H332	H	1.646395	0.554397	0.581348
F333	F	0.022054	0.136422	-0.088022
F334	F	0.272054	0.386422	0.161978
F335	F	0.522054	0.636422	0.411978
F336	F	0.772054	0.886422	0.661978
F337	F	0.406227	-0.104295	-0.009519
F338	F	0.656227	0.145705	0.240481
F339	F	0.906227	0.395705	0.490481
F340	F	1.156227	0.645705	0.740481
F341	F	0.733514	-0.186139	-0.005690
F342	F	0.983514	0.063861	0.244310
F343	F	1.233514	0.313861	0.494310
F344	F	1.483514	0.563861	0.744310
F345	F	0.618394	-0.136186	-0.096826
F346	F	0.868394	0.113814	0.153174
F347	F	1.118394	0.363814	0.403174
F348	F	1.368394	0.613814	0.653174
F349	F	0.946528	0.000161	0.723312
F350	F	1.196528	0.250161	0.973312
F351	F	1.446528	0.500161	1.223312
F352	F	1.696528	0.750161	1.473312
F353	F	0.733526	-0.343487	-0.005684
F354	F	0.983526	-0.093487	0.244316
F355	F	1.233526	0.156513	0.494316
F356	F	1.483526	0.406513	0.744316
H357	H	0.896441	-0.804098	-0.168627
H358	H	1.146441	-0.554098	0.081373
H359	H	1.396441	-0.304098	0.331373
H360	H	1.646441	-0.054098	0.581373
H361	H	0.932763	0.000137	0.580706
H362	H	1.182763	0.250137	0.830706
H363	H	1.432763	0.500137	1.080706
H364	H	1.682763	0.750137	1.330706
H365	H	0.823354	-0.569014	-0.206032
H366	H	1.073354	-0.319014	0.043968
H367	H	1.323354	-0.069014	0.293968
H368	H	1.573354	0.180986	0.543968
F369	F	0.816675	-0.421228	0.036873
F370	F	1.066675	-0.171228	0.286873
F371	F	1.316675	0.078772	0.536873
F372	F	1.566675	0.328772	0.786873
H373	H	0.937386	0.000117	0.265246
H374	H	1.187386	0.250117	0.515246
H375	H	1.437386	0.500117	0.765246
H376	H	1.687386	0.750117	1.015246
F377	F	0.823773	-0.421193	-0.221695
F378	F	1.073773	-0.171193	0.028305
F379	F	1.323773	0.078807	0.278305
F380	F	1.573773	0.328807	0.528305
H381	H	0.817112	-0.569040	0.021219
H382	H	1.067112	-0.319040	0.271219
H383	H	1.317112	-0.069040	0.521219
H384	H	1.567112	0.180960	0.771219
H385	H	0.907252	0.077111	0.485079
H386	H	1.157252	0.327111	0.735079
H387	H	1.407252	0.577111	0.985079
H388	H	1.657252	0.827111	1.235079
F389	F	0.618480	0.136365	-0.096793
F390	F	0.868480	0.386365	0.153207
F391	F	1.118480	0.636365	0.403207
F392	F	1.368480	0.886365	0.653207
F393	F	0.383769	0.104522	-0.177501
F394	F	0.633769	0.354522	0.072499
F395	F	0.883769	0.604522	0.322499
F396	F	1.133769	0.854522	0.572499
H397	H	0.744045	-0.665871	-0.016185
H398	H	0.994045	-0.415871	0.233815
H399	H	1.244045	-0.165871	0.483815
H400	H	1.494045	0.084129	0.733815
H401	H	0.264386	-0.091632	-0.017620
H402	H	0.514386	0.158368	0.232380
H403	H	0.764386	0.408368	0.482380
H404	H	1.014386	0.658368	0.732380
H405	H	0.162534	0.119905	-0.090084
H406	H	0.412534	0.369905	0.159916
H407	H	0.662534	0.619905	0.409916
H408	H	0.912534	0.869905	0.659916
F409	F	0.171509	-0.136139	-0.090233
F410	F	0.421509	0.113861	0.159767
F411	F	0.671509	0.363861	0.409767
F412	F	0.921509	0.613861	0.659767
F413	F	0.693913	0.000096	0.091850
F414	F	0.943913	0.250096	0.341850
F415	F	1.193913	0.500096	0.591850
F416	F	1.443913	0.750096	0.841850
