data_functionalizedCrystal
_audit_creation_method	'MofGen! by Chris Wilmer'
_symmetry_space_group_name_H-M	'P1'
_symmetry_Int_Tables_number	1
_symmetry_cell_setting	triclinic
loop_
_symmetry_equiv_pos_as_xyz
  x,y,z
_cell_length_a	6.817900
_cell_length_b	17.982959
_cell_length_c	23.752930
_cell_angle_alpha	96.571773
_cell_angle_beta	100.066047
_cell_angle_gamma	102.451857
loop_
_atom_site_label
_atom_site_type_symbol
_atom_site_fract_x
_atom_site_fract_y
_atom_site_fract_z
V1	V	-3.983595	-0.106418	-0.178634
O2	O	-3.977231	0.004080	-0.174988
O3	O	-3.930310	-0.210016	-0.177649
O4	O	-3.918694	-0.105235	-0.256435
O5	O	-3.988927	-0.101426	-0.095657
V6	V	-4.469994	-0.093148	-0.168681
O7	O	-4.238545	-0.135528	-0.200468
O8	O	-4.665242	-0.064038	-0.146847
O9	O	-4.300073	0.010449	-0.169666
O10	O	-4.593756	-0.203646	-0.172327
O11	O	-4.582060	-0.098140	-0.251658
O12	O	-4.311689	-0.094331	-0.090880
C13	C	-3.774656	-0.235256	-0.174892
C14	C	-3.812266	-0.319951	-0.174605
C15	C	-4.011244	-0.363638	-0.177333
C16	C	-4.046573	-0.443218	-0.177067
C17	C	-3.882917	-0.479110	-0.174068
C18	C	-3.683923	-0.435418	-0.171342
C19	C	-3.648600	-0.355840	-0.171612
C20	C	-3.826374	-0.756347	-0.170252
C21	C	-3.861713	-0.835931	-0.169980
C22	C	-4.224347	-0.843726	-0.175706
C23	C	-4.189024	-0.764148	-0.175977
C24	C	-3.990036	-0.720463	-0.173253
C25	C	-3.951732	-0.634173	-0.173543
C26	C	-3.921217	-0.565397	-0.173774
C27	C	-3.759838	-0.101597	-0.275390
C28	C	-3.788026	-0.101315	-0.338994
C29	C	-4.144306	-0.103315	-0.736324
C30	C	-4.170814	-0.103040	-0.796085
O31	O	-4.338699	-0.106119	-0.829476
N32	N	-4.002764	-0.099088	-0.823053
C33	C	-3.808189	-0.095402	-0.790254
O34	O	-3.667683	-0.092015	-0.818679
C35	C	-3.781681	-0.095672	-0.730492
C36	C	-3.949748	-0.099632	-0.703529
C37	C	-4.312357	-0.107274	-0.709360
C38	C	-4.285851	-0.107550	-0.649602
C39	C	-4.091293	-0.103868	-0.616808
C40	C	-3.923241	-0.099909	-0.643772
C41	C	-3.587106	-0.091981	-0.697694
C42	C	-3.560611	-0.092251	-0.637929
C43	C	-3.728678	-0.096211	-0.610966
C44	C	-3.702177	-0.096503	-0.551220
N45	N	-3.870227	-0.100455	-0.524253
C46	C	-4.064785	-0.104137	-0.557047
C47	C	-3.863871	-0.094835	-0.915757
C48	C	-3.890380	-0.094571	-0.975518
C49	C	-4.253002	-0.102207	-0.981345
C50	C	-4.226494	-0.102477	-0.921584
C51	C	-4.031921	-0.098787	-0.888790
C52	C	-4.009107	-0.104718	-0.431551
C53	C	-3.982583	-0.104998	-0.371789
C54	C	-3.619962	-0.097358	-0.365966
C55	C	-3.646484	-0.097082	-0.425724
C56	C	-3.841070	-0.100760	-0.458515
O57	O	-3.534353	-0.093422	-0.517792
O58	O	-4.205256	-0.107514	-0.528613
C59	C	-4.119069	0.035686	-0.172421
C60	C	-4.060697	0.120380	-0.172712
C61	C	-4.133888	-0.097972	-0.071921
C62	C	-4.084939	-0.098250	-0.008317
H63	H	-3.486574	-0.320271	-0.169393
H64	H	-4.119454	-0.108225	-0.349839
Br65	Br	-4.233364	-0.314935	-0.181398
H66	H	-3.509634	-0.093866	-0.447680
H67	H	-4.167553	-0.107715	-0.458243
H68	H	-4.208598	-0.478785	-0.179289
H69	H	-3.461555	-0.094363	-0.339255
Br70	Br	-3.556321	-0.697070	-0.166553
H71	H	-3.550676	-0.464648	-0.168904
H72	H	-4.422710	-0.110772	-0.627654
Br73	Br	-4.576430	-0.112274	-0.753856
Br74	Br	-4.517053	-0.107204	-1.025863
H75	H	-4.322291	-0.734929	-0.178415
Br76	Br	-4.494410	-0.903016	-0.179402
Br77	Br	-3.639592	-0.884640	-0.165909
Br78	Br	-3.662286	-0.089216	-1.012105
Br79	Br	-3.599791	-0.089837	-0.871257
Br80	Br	-3.296530	-0.087236	-0.593425
Br81	Br	-4.454595	-0.107851	-0.884997
H82	H	-3.450242	-0.088757	-0.719637
