data_functionalizedCrystal
_audit_creation_method	'MofGen! by Chris Wilmer'
_symmetry_space_group_name_H-M	'P1'
_symmetry_Int_Tables_number	1
_symmetry_cell_setting	triclinic
loop_
_symmetry_equiv_pos_as_xyz
  x,y,z
_cell_length_a	13.596369
_cell_length_b	10.654541
_cell_length_c	10.654545
_cell_angle_alpha	84.484678
_cell_angle_beta	89.996370
_cell_angle_gamma	89.996035
loop_
_atom_site_label
_atom_site_type_symbol
_atom_site_fract_x
_atom_site_fract_y
_atom_site_fract_z
O1	O	0.081756	-1.667846	-0.176387
O2	O	0.081764	-1.302367	-0.193196
O3	O	0.081759	-1.493509	-0.002052
O4	O	0.081761	-1.476704	-0.367530
O5	O	-0.081824	-1.493489	-0.002041
O6	O	-0.081819	-1.302348	-0.193185
O7	O	-0.081827	-1.667827	-0.176376
Zn8	Zn	-0.107795	-1.485084	-0.184779
Zn9	Zn	0.107732	-1.485110	-0.184793
O10	O	-0.081822	-1.476685	-0.367520
C11	C	-0.000027	-1.255559	-0.191957
C12	C	-0.000023	-1.116116	-0.188266
C13	C	-0.000031	-1.492265	0.044751
C14	C	-0.000025	-1.488572	0.184195
N15	N	-0.254887	-1.485076	-0.184769
C16	C	-0.656178	-1.485108	-0.184794
C17	C	-0.544527	-1.485095	-0.184791
C18	C	-0.455536	-1.485093	-0.184783
C19	C	-0.343878	-1.485079	-0.184778
N20	N	0.254824	-1.485128	-0.184793
C21	C	-0.000035	-1.714634	-0.177615
C22	C	-0.000031	-1.854078	-0.181306
C23	C	-0.000010	-1.088146	-0.416831
C24	C	0.000001	-1.008652	-0.529374
C25	C	0.000002	-0.877634	-0.525898
C26	C	-0.000011	-0.826108	-0.409867
C27	C	-0.000022	-0.905602	-0.297324
C28	C	-0.000020	-1.036622	-0.300812
C29	C	-0.000042	-0.933572	-0.068763
C30	C	-0.000036	-1.064590	-0.072235
C31	C	-0.000055	-0.882046	0.047269
C32	C	-0.000058	-0.961540	0.159814
C33	C	-0.000058	-1.092565	0.156334
C34	C	-0.000047	-1.144084	0.040308
C35	C	-0.000031	-1.477929	-0.414323
C36	C	-0.000030	-1.481621	-0.553766
C37	C	0.178318	-1.488608	0.184192
C38	C	0.267489	-1.486896	0.249700
C39	C	0.267491	-1.483427	0.380719
C40	C	0.178311	-1.481666	0.446232
C41	C	0.089140	-1.483378	0.380723
C42	C	0.089148	-1.486851	0.249702
C43	C	-0.089201	-1.483333	0.380725
C44	C	-0.089204	-1.486811	0.249707
C45	C	-0.178381	-1.481572	0.446238
C46	C	-0.267554	-1.483293	0.380730
C47	C	-0.267551	-1.486764	0.249704
C48	C	-0.178376	-1.488523	0.184199
H49	H	0.000011	-1.194826	-0.419672
Cl50	Cl	-0.178379	-1.477199	0.610947
Cl51	Cl	0.000006	-0.777695	-0.667382
H52	H	-0.000022	-0.719425	-0.407048
Cl53	Cl	0.000017	-1.073433	-0.675234
H54	H	-0.000060	-0.775363	0.050090
Cl55	Cl	-0.000083	-0.896758	0.305665
H56	H	-0.000071	-1.157283	0.247981
H57	H	-0.340157	-1.481851	0.434080
H58	H	0.340102	-1.482022	0.434054
Cl59	Cl	-0.000041	-1.308791	0.035923
H60	H	0.178326	-1.491448	0.077511
H61	H	0.340098	-1.488328	0.196345
Cl62	Cl	0.178316	-1.477278	0.610939
Cl63	Cl	-0.379660	-1.488908	0.167360
Cl64	Cl	-0.178365	-1.492894	0.019489
