data_functionalizedCrystal
_audit_creation_method	'MofGen! by Chris Wilmer'
_symmetry_space_group_name_H-M	'P1'
_symmetry_Int_Tables_number	1
_symmetry_cell_setting	triclinic
loop_
_symmetry_equiv_pos_as_xyz
  x,y,z
_cell_length_a	11.169417
_cell_length_b	11.169416
_cell_length_c	12.759393
_cell_angle_alpha	89.971356
_cell_angle_beta	89.981660
_cell_angle_gamma	90.011219
loop_
_atom_site_label
_atom_site_type_symbol
_atom_site_fract_x
_atom_site_fract_y
_atom_site_fract_z
Zn1	Zn	1.834945	-0.477708	-0.593998
Zn2	Zn	2.168278	-0.144375	-0.260665
Zn3	Zn	2.501611	0.188958	0.072668
Zn4	Zn	1.834839	-0.678441	-0.418327
Zn5	Zn	2.168173	-0.345108	-0.084994
Zn6	Zn	2.501506	-0.011774	0.248339
Zn7	Zn	1.634236	-0.477774	-0.418338
Zn8	Zn	1.967569	-0.144440	-0.085005
Zn9	Zn	2.300902	0.188893	0.248328
Zn10	Zn	1.634238	-0.678351	-0.593969
Zn11	Zn	1.967571	-0.345018	-0.260636
Zn12	Zn	2.300905	-0.011684	0.072697
O13	O	1.734564	-0.578068	-0.506158
O14	O	2.067898	-0.244735	-0.172825
O15	O	2.401231	0.088598	0.160508
O16	O	2.002880	-0.504346	-0.570703
O17	O	2.336214	-0.171013	-0.237369
O18	O	2.669547	0.162321	0.095964
O19	O	1.808184	-0.651887	-0.271308
O20	O	2.141517	-0.318554	0.062026
O21	O	2.474850	0.014780	0.395359
O22	O	1.660903	-0.309815	-0.441657
O23	O	1.994237	0.023518	-0.108323
O24	O	2.327570	0.356851	0.225010
O25	O	2.002803	-0.651824	-0.441638
O26	O	2.336136	-0.318490	-0.108305
O27	O	2.669470	0.014843	0.225029
O28	O	1.808363	-0.309767	-0.570713
O29	O	2.141697	0.023566	-0.237380
O30	O	2.475030	0.356899	0.095953
O31	O	1.660801	-0.504457	-0.271316
O32	O	1.994135	-0.171124	0.062018
O33	O	2.327468	0.162209	0.395351
O34	O	1.466286	-0.504370	-0.441628
O35	O	1.799620	-0.171037	-0.108295
O36	O	2.132953	0.162296	0.225038
O37	O	1.660907	-0.651670	-0.740994
O38	O	1.994241	-0.318337	-0.407661
O39	O	2.327574	0.014996	-0.074328
O40	O	1.466288	-0.651734	-0.570664
O41	O	1.799621	-0.318400	-0.237331
O42	O	2.132955	0.014933	0.096003
O43	O	1.808366	-0.504259	-0.741016
O44	O	2.141699	-0.170926	-0.407682
O45	O	2.475032	0.162408	-0.074349
O46	O	1.808186	-0.846379	-0.441610
O47	O	2.141519	-0.513045	-0.108277
O48	O	2.474853	-0.179712	0.225057
O49	O	1.660805	-0.846313	-0.570653
O50	O	1.994138	-0.512979	-0.237320
O51	O	2.327472	-0.179646	0.096013
C52	C	1.734517	-0.889893	-0.506150
C53	C	2.067850	-0.556560	-0.172817
C54	C	2.401184	-0.223226	0.160516
C55	C	1.734606	-1.023293	-0.506182
C56	C	2.067940	-0.689960	-0.172849
C57	C	2.401273	-0.356626	0.160485
C58	C	1.422740	-0.578050	-0.506145
C59	C	1.756073	-0.244717	-0.172811
C60	C	2.089406	0.088616	0.160522
C61	C	1.289340	-0.578071	-0.506164
C62	C	1.622673	-0.244738	-0.172831
C63	C	1.956006	0.088595	0.160503
C64	C	2.047607	-0.578088	-0.506172
C65	C	2.380940	-0.244754	-0.172839
C66	C	2.714273	0.088579	0.160494
C67	C	2.181007	-0.578096	-0.506179
C68	C	2.514340	-0.244762	-0.172845
C69	C	2.847673	0.088571	0.160488
C70	C	1.734649	-0.577947	-0.780192
C71	C	2.067982	-0.244614	-0.446858
C72	C	2.401315	0.088719	-0.113525
C73	C	1.734684	-0.577896	-0.896968
C74	C	2.068018	-0.244562	-0.563635
C75	C	2.401351	0.088771	-0.230302
C76	C	1.734645	-0.265026	-0.506189
C77	C	2.067978	0.068307	-0.172856
C78	C	2.401312	0.401641	0.160477
C79	C	1.734679	-0.131626	-0.506203
C80	C	2.068013	0.201707	-0.172869
C81	C	2.401346	0.535041	0.160464
C82	C	1.811476	-0.501131	-0.951843
C83	C	2.144810	-0.167798	-0.618510
C84	C	2.478143	0.165535	-0.285177
C85	C	1.811505	-0.501088	-1.061567
C86	C	2.144838	-0.167755	-0.728234
C87	C	2.478172	0.165579	-0.394901
C88	C	1.657946	-0.654584	-1.061532
C89	C	1.991279	-0.321250	-0.728199
C90	C	2.324613	0.012083	-0.394866
C91	C	1.657912	-0.654620	-0.951810
C92	C	1.991246	-0.321287	-0.618477
C93	C	2.324579	0.012046	-0.285143
C94	C	1.900136	-0.412515	-0.951865
C95	C	2.233470	-0.079182	-0.618531
C96	C	2.566803	0.254151	-0.285198
C97	C	1.900165	-0.412472	-1.061589
C98	C	2.233498	-0.079139	-0.728255
C99	C	2.566832	0.254195	-0.394922
C100	C	1.734550	-0.578102	-0.233191
C101	C	2.067883	-0.244769	0.100142
C102	C	2.401217	0.088564	0.433476
C103	C	1.734747	-0.577816	-0.116415
C104	C	2.068080	-0.244483	0.216919
C105	C	2.401413	0.088851	0.550252
H106	H	1.595376	-0.717125	-0.907135
H107	H	1.928710	-0.383792	-0.573802
H108	H	2.262043	-0.050458	-0.240469
H109	H	1.875262	-0.319569	-0.922104
H110	H	2.208595	0.013764	-0.588771
H111	H	2.541928	0.347098	-0.255438
H112	H	1.866900	-0.324158	-1.095633
H113	H	2.200233	0.009175	-0.762299
H114	H	2.533567	0.342508	-0.428966
H115	H	1.988410	-0.445835	-0.917830
H116	H	2.321744	-0.112501	-0.584496
H117	H	2.655077	0.220832	-0.251163
H118	H	1.993121	-0.437365	-1.091368
H119	H	2.326454	-0.104032	-0.758035
H120	H	2.659787	0.229301	-0.424701
H121	H	1.595438	-0.717047	-1.106198
H122	H	1.928772	-0.383714	-0.772864
H123	H	2.262105	-0.050381	-0.439531
