data_functionalizedCrystal
_audit_creation_method	'MofGen! by Chris Wilmer'
_symmetry_space_group_name_H-M	'P1'
_symmetry_Int_Tables_number	1
_symmetry_cell_setting	triclinic
loop_
_symmetry_equiv_pos_as_xyz
  x,y,z
_cell_length_a	10.723024
_cell_length_b	10.723024
_cell_length_c	15.455313
_cell_angle_alpha	92.703187
_cell_angle_beta	92.698308
_cell_angle_gamma	95.532131
loop_
_atom_site_label
_atom_site_type_symbol
_atom_site_fract_x
_atom_site_fract_y
_atom_site_fract_z
O1	O	0.180439	-1.651755	0.072136
O2	O	0.197193	-1.288602	0.072136
O3	O	0.007239	-1.478555	0.072132
O4	O	0.370392	-1.461802	0.072139
O5	O	-0.003590	-1.489406	-0.072130
O6	O	0.186363	-1.299453	-0.072127
O7	O	0.169610	-1.662605	-0.072127
Cu8	Cu	0.176998	-1.482020	-0.085299
Cu9	Cu	0.189805	-1.469188	0.085308
O10	O	0.359563	-1.472652	-0.072123
C11	C	0.190559	-1.247528	0.000005
C12	C	0.186911	-1.108974	0.000005
C13	C	0.073604	-0.917217	0.000003
C14	C	0.077371	-1.060420	0.000003
C15	C	-0.044675	-1.482761	0.000002
C16	C	-0.183229	-1.479113	0.000005
C17	C	-0.374986	-1.365806	0.000010
C18	C	-0.231783	-1.369574	0.000007
C19	C	0.411477	-1.468446	0.000009
C20	C	0.550032	-1.472093	0.000011
C21	C	0.176244	-0.703679	0.000005
C22	C	0.179891	-0.842234	0.000005
N23	N	0.198803	-1.460163	0.205304
N24	N	0.167989	-1.491054	-0.205295
C25	C	0.118263	-1.541018	0.250696
C26	C	0.125066	-1.534191	0.341504
C27	C	0.212404	-1.446501	0.386918
C28	C	0.292953	-1.365643	0.341519
C29	C	0.286155	-1.372477	0.250713
C30	C	0.241741	-1.417030	0.658500
C31	C	0.248530	-1.410199	0.749313
C32	C	0.080643	-1.578750	0.749292
C33	C	0.073848	-1.585571	0.658484
C34	C	0.154402	-1.504717	0.613093
N35	N	0.219357	-1.439518	0.479738
N36	N	0.147454	-1.511707	0.520274
H37	H	0.273677	-0.884056	0.000001
H38	H	0.047138	-1.612419	0.213727
H39	H	0.015062	-1.644579	0.786258
H40	H	-0.167350	-1.278584	0.000000
H41	H	0.059484	-1.600030	0.378463
H42	H	0.277907	-1.044548	0.000010
H43	H	0.002731	-1.656975	0.621510
H44	H	-0.416807	-1.272020	0.000016
H45	H	0.364072	-1.294248	0.378500
H46	H	-0.247654	-1.570109	0.000003
H47	H	-0.408144	-1.565877	0.000041
H48	H	-0.020183	-0.875395	-0.000012
H49	H	0.319655	-1.338787	0.786284
H50	H	0.307328	-1.351193	0.621550
H51	H	0.351741	-1.306638	0.213755
H52	H	-0.013619	-1.124852	0.000006
