data_functionalizedCrystal
_audit_creation_method	'MofGen! by Chris Wilmer'
_symmetry_space_group_name_H-M	'P1'
_symmetry_Int_Tables_number	1
_symmetry_cell_setting	triclinic
loop_
_symmetry_equiv_pos_as_xyz
  x,y,z
_cell_length_a	13.897448
_cell_length_b	13.897449
_cell_length_c	11.169409
_cell_angle_alpha	89.972648
_cell_angle_beta	90.035576
_cell_angle_gamma	89.982380
loop_
_atom_site_label
_atom_site_type_symbol
_atom_site_fract_x
_atom_site_fract_y
_atom_site_fract_z
Zn1	Zn	-0.383939	-1.474715	0.678757
Zn2	Zn	-0.545274	-1.474605	0.478062
Zn3	Zn	-0.383995	-1.313400	0.478065
Zn4	Zn	-0.545193	-1.313386	0.678681
O5	O	-0.464600	-1.394027	0.578391
O6	O	-0.405351	-1.609682	0.652165
O7	O	-0.523938	-1.453181	0.310113
O8	O	-0.249006	-1.334851	0.504720
O9	O	-0.523883	-1.609601	0.504716
O10	O	-0.248964	-1.453368	0.652167
O11	O	-0.405446	-1.334745	0.310115
O12	O	-0.405368	-1.178417	0.504646
O13	O	-0.523745	-1.334826	0.846641
O14	O	-0.523799	-1.178406	0.652038
O15	O	-0.405272	-1.453354	0.846697
O16	O	-0.680245	-1.453167	0.504642
O17	O	-0.680185	-1.334720	0.652036
C18	C	-0.464581	-1.143412	0.578335
C19	C	-0.464597	-1.036198	0.578339
C20	C	-0.464598	-0.949129	0.578354
C21	C	-0.464603	-0.839896	0.578384
C22	C	-0.715215	-1.393956	0.578356
C23	C	-0.822428	-1.394014	0.578382
C24	C	-1.018723	-1.394116	0.578457
C25	C	-0.909491	-1.394057	0.578419
C26	C	-0.213007	-1.394124	0.578452
C27	C	-0.105793	-1.394165	0.578478
C28	C	-0.464493	-1.394101	0.891434
C29	C	-0.464447	-1.394132	1.024834
C30	C	-0.464616	-0.645620	0.578434
C31	C	-0.464612	-0.752833	0.578415
C32	C	-0.464637	-1.394008	0.266566
C33	C	-0.464411	-1.394164	0.133167
