data_functionalizedCrystal
_audit_creation_method	'MofGen! by Chris Wilmer'
_symmetry_space_group_name_H-M	'P1'
_symmetry_Int_Tables_number	1
_symmetry_cell_setting	triclinic
loop_
_symmetry_equiv_pos_as_xyz
  x,y,z
_cell_length_a	6.817900
_cell_length_b	19.551136
_cell_length_c	14.858572
_cell_angle_alpha	95.614431
_cell_angle_beta	104.524003
_cell_angle_gamma	101.650842
loop_
_atom_site_label
_atom_site_type_symbol
_atom_site_fract_x
_atom_site_fract_y
_atom_site_fract_z
V1	V	-4.029268	-0.097117	-0.290420
O2	O	-4.026005	0.004214	-0.284421
O3	O	-3.971850	-0.192132	-0.288887
O4	O	-3.986028	-0.095822	-0.416876
O5	O	-4.011729	-0.092762	-0.155546
V6	V	-4.513395	-0.084973	-0.274233
O7	O	-4.289200	-0.123756	-0.325928
O8	O	-4.703661	-0.058335	-0.238725
O9	O	-4.347606	0.010041	-0.275766
O10	O	-4.634055	-0.186305	-0.280233
O11	O	-4.648331	-0.089328	-0.409107
O12	O	-4.333428	-0.086268	-0.147778
C13	C	-3.814490	-0.215288	-0.284423
C14	C	-3.848866	-0.292965	-0.284012
C15	C	-3.822319	-0.319326	-0.198595
C16	C	-3.854689	-0.392309	-0.198181
C17	C	-3.913566	-0.438929	-0.283188
C18	C	-3.940125	-0.412561	-0.368616
C19	C	-3.907775	-0.339579	-0.369029
C20	C	-3.880593	-0.560034	-0.344824
C21	C	-3.912928	-0.633014	-0.344408
C22	C	-4.013355	-0.664032	-0.281920
C23	C	-4.081410	-0.622057	-0.219831
C24	C	-4.049059	-0.549075	-0.220243
C25	C	-3.948650	-0.518067	-0.282750
C26	C	-4.021908	-0.769529	-0.196047
C27	C	-4.054292	-0.842515	-0.195637
C28	C	-4.139709	-0.862765	-0.366075
C29	C	-4.107344	-0.789781	-0.366483
C30	C	-4.048435	-0.743167	-0.281466
C31	C	-3.832575	-0.092434	-0.447684
C32	C	-3.878446	-0.092004	-0.551065
C33	C	-4.046335	-0.090431	-0.929625
C34	C	-3.999615	-0.090869	-0.824298
C35	C	-3.962392	-0.091218	-0.740348
C36	C	-3.915669	-0.091654	-0.635014
C37	C	-4.168308	0.033194	-0.280228
C38	C	-4.113171	0.110870	-0.280645
C39	C	-4.150223	-0.089658	-0.116965
C40	C	-4.083591	-0.090085	-0.013583
H41	H	-4.163168	-0.647309	-0.168941
N42	N	-4.025680	-0.870951	-0.103504
H43	H	-3.983451	-0.830344	-0.049713
H44	H	-3.913507	-0.898383	-0.096457
N45	N	-4.203232	-0.913038	-0.457764
H46	H	-4.219705	-0.963273	-0.444543
H47	H	-4.092486	-0.902294	-0.491884
N48	N	-3.826128	-0.420777	-0.106066
H49	H	-3.678093	-0.401259	-0.065696
H50	H	-3.855701	-0.474082	-0.118826
H51	H	-3.988068	-0.450524	-0.437830
H52	H	-3.857506	-0.667184	-0.394962
N53	N	-4.135944	-0.761349	-0.458616
H54	H	-4.000681	-0.729109	-0.459415
H55	H	-4.248239	-0.733966	-0.465704
H56	H	-3.798814	-0.534786	-0.395714
H57	H	-3.929402	-0.318118	-0.438588
H58	H	-3.774366	-0.281376	-0.129368
H59	H	-4.104477	-0.514903	-0.169690
N60	N	-3.958387	-0.719247	-0.104358
H61	H	-3.946501	-0.747024	-0.050181
H62	H	-4.066847	-0.690934	-0.103988
