data_functionalizedCrystal
_audit_creation_method	'MofGen! by Chris Wilmer'
_symmetry_space_group_name_H-M	'P1'
_symmetry_Int_Tables_number	1
_symmetry_cell_setting	triclinic
loop_
_symmetry_equiv_pos_as_xyz
  x,y,z
_cell_length_a	10.268362
_cell_length_b	10.654550
_cell_length_c	10.654550
_cell_angle_alpha	84.484903
_cell_angle_beta	90.004111
_cell_angle_gamma	90.008099
loop_
_atom_site_label
_atom_site_type_symbol
_atom_site_fract_x
_atom_site_fract_y
_atom_site_fract_z
O1	O	-0.108404	-1.667841	-0.176400
O2	O	0.391596	-1.167841	0.323600
O3	O	-0.108383	-1.302363	-0.193206
O4	O	0.391617	-0.802363	0.306794
O5	O	-0.108389	-1.493505	-0.002063
O6	O	0.391611	-0.993505	0.497937
O7	O	-0.108398	-1.476699	-0.367542
O8	O	0.391602	-0.976699	0.132458
O9	O	0.108212	-1.493488	-0.002055
O10	O	0.608212	-0.993488	0.497945
O11	O	0.108218	-1.302346	-0.193198
O12	O	0.608218	-0.802346	0.306802
O13	O	0.108197	-1.667824	-0.176392
O14	O	0.608197	-1.167824	0.323608
Cu15	Cu	0.127985	-1.485084	-0.184794
Cu16	Cu	0.627985	-0.985084	0.315206
Cu17	Cu	-0.128171	-1.485104	-0.184803
Cu18	Cu	0.371829	-0.985104	0.315197
O19	O	0.108203	-1.476682	-0.367534
O20	O	0.608203	-0.976682	0.132466
C21	C	-0.000080	-1.255556	-0.191968
C22	C	0.499920	-0.755556	0.308032
C23	C	-0.000072	-1.116113	-0.188276
C24	C	0.499928	-0.616113	0.311724
N25	N	0.308151	-1.485079	-0.184787
N26	N	0.808151	-0.985079	0.315213
N27	N	-0.308336	-1.485118	-0.184801
N28	N	0.191664	-0.985118	0.315199
C29	C	0.573821	-1.485097	-0.184801
C30	C	1.073821	-0.985097	0.315199
C31	C	0.425983	-1.485083	-0.184797
C32	C	0.925983	-0.985083	0.315203
C33	C	-0.000090	-1.492263	0.044739
C34	C	0.499910	-0.992263	0.544739
C35	C	-0.000094	-1.488571	0.184182
C36	C	0.499906	-0.988571	0.684182
C37	C	-0.000109	-1.714631	-0.177630
C38	C	0.499891	-1.214631	0.322370
C39	C	-0.000126	-1.854074	-0.181321
C40	C	0.499874	-1.354074	0.318679
C41	C	-0.000093	-1.036627	-0.300817
C42	C	0.499907	-0.536627	0.199183
C43	C	-0.000116	-0.905607	-0.297341
C44	C	0.499884	-0.405607	0.202659
C45	C	-0.000100	-0.933570	-0.068771
C46	C	0.499900	-0.433570	0.431229
C47	C	-0.000068	-1.064588	-0.072249
C48	C	0.499932	-0.564588	0.427751
C49	C	-0.000108	-1.020482	-0.432780
C50	C	0.499892	-0.520482	0.067220
C51	C	-0.000130	-0.889461	-0.429304
C52	C	0.499870	-0.389461	0.070696
C53	C	-0.000099	-1.477925	-0.414336
C54	C	0.499901	-0.977925	0.085664
C55	C	-0.000103	-1.481616	-0.553779
C56	C	0.499897	-0.981616	-0.053779
C57	C	-0.000097	-1.601112	0.263668
C58	C	0.499903	-1.101112	0.763668
C59	C	-0.000106	-1.597636	0.394688
C60	C	0.499894	-1.097636	0.894688
C61	C	-0.000104	-1.369066	0.366725
C62	C	0.499896	-0.869066	0.866725
C63	C	-0.000105	-1.372544	0.235707
C64	C	0.499895	-0.872544	0.735707
C65	C	-0.000092	-1.733075	0.279813
C66	C	0.499908	-1.233075	0.779813
C67	C	-0.000101	-1.729599	0.410834
C68	C	0.499899	-1.229599	0.910834
H69	H	-0.000032	-1.129302	0.019393
H70	H	0.499968	-0.629302	0.519393
C71	C	-0.000110	-1.248749	0.148276
C72	C	0.499890	-0.748749	0.648276
H73	H	-0.000104	-1.179154	0.197731
H74	H	0.499896	-0.679154	0.697731
H75	H	-0.075642	-1.245366	0.096578
H76	H	0.424358	-0.745366	0.596578
H77	H	0.075434	-1.245343	0.096592
H78	H	0.575434	-0.745343	0.596592
C79	C	-0.000105	-1.241448	0.423407
C80	C	0.499895	-0.741448	0.923407
H81	H	-0.000099	-1.255493	0.512821
H82	H	0.499901	-0.755493	1.012821
H83	H	-0.075635	-1.195066	0.396183
H84	H	0.424365	-0.695066	0.896183
H85	H	0.075442	-1.195057	0.396198
H86	H	0.575442	-0.695057	0.896198
C87	C	-0.122543	-1.802799	0.240137
C88	C	0.377457	-1.302799	0.740137
H89	H	-0.172911	-1.829104	0.312727
H90	H	0.327089	-1.329104	0.812727
H91	H	-0.097370	-1.874459	0.199356
H92	H	0.402630	-1.374459	0.699356
H93	H	-0.172906	-1.747831	0.183860
H94	H	0.327094	-1.247831	0.683860
C95	C	0.126236	-1.789841	0.231680
C96	C	0.626236	-1.289841	0.731680
H97	H	0.182491	-1.812719	0.300909
H98	H	0.682491	-1.312719	0.800909
H99	H	0.168214	-1.729307	0.174074
H100	H	0.668214	-1.229307	0.674074
H101	H	0.105936	-1.862539	0.190378
H102	H	0.605936	-1.362539	0.690378
H103	H	0.093381	-0.843782	-0.469181
H104	H	0.593381	-0.343782	0.030819
H105	H	0.090543	-1.049806	-0.484387
H106	H	0.590543	-0.549806	0.015613
C107	C	-0.126428	-1.068668	-0.489559
C108	C	0.373572	-0.568668	0.010441
H109	H	-0.182701	-0.999462	-0.512444
H110	H	0.317299	-0.499462	-0.012444
H111	H	-0.168389	-1.126291	-0.429029
H112	H	0.331611	-0.626291	0.070971
H113	H	-0.106123	-1.109962	-0.562255
H114	H	0.393877	-0.609962	-0.062255
H115	H	-0.000118	-0.891602	0.025694
H116	H	0.499882	-0.391602	0.525694
H117	H	-0.090785	-0.847735	-0.479029
H118	H	0.409215	-0.347735	0.020971
H119	H	-0.093626	-1.769487	0.456473
H120	H	0.406374	-1.269487	0.956473
H121	H	0.090541	-1.779313	0.452597
H122	H	0.590541	-1.279313	0.952597
