data_functionalizedCrystal
_audit_creation_method	'MofGen! by Chris Wilmer'
_symmetry_space_group_name_H-M	'P1'
_symmetry_Int_Tables_number	1
_symmetry_cell_setting	triclinic
loop_
_symmetry_equiv_pos_as_xyz
  x,y,z
_cell_length_a	14.519709
_cell_length_b	18.366186
_cell_length_c	19.288862
_cell_angle_alpha	90.013742
_cell_angle_beta	96.592285
_cell_angle_gamma	89.996571
loop_
_atom_site_label
_atom_site_type_symbol
_atom_site_fract_x
_atom_site_fract_y
_atom_site_fract_z
O1	O	1.223295	-0.060467	-0.091051
O2	O	0.954750	-0.060491	-0.101773
O3	O	1.096783	-0.060460	0.004690
O4	O	1.081261	-0.060499	-0.197515
O5	O	1.096759	0.060639	0.004696
O6	O	0.954726	0.060608	-0.101768
O7	O	1.223271	0.060632	-0.091046
Zn8	Zn	1.088994	0.079847	-0.096406
Zn9	Zn	1.089026	-0.079706	-0.096413
O10	O	1.081237	0.060601	-0.197509
C11	C	0.920381	0.000056	-0.101271
C12	C	0.818009	0.000048	-0.099773
N13	N	1.088979	0.188738	-0.096401
N14	N	1.089048	-0.188597	-0.096413
C15	C	0.443149	0.000082	-0.094261
C16	C	0.547447	0.000072	-0.095792
C17	C	0.630576	0.000064	-0.097017
C18	C	0.734880	0.000056	-0.098548
C19	C	1.257639	0.000083	-0.091548
C20	C	1.360011	0.000087	-0.093045
C21	C	1.096272	0.000093	0.030571
C22	C	1.094774	0.000102	0.107680
C23	C	1.151892	0.226853	-0.049282
C24	C	1.151898	0.303080	-0.049279
C25	C	1.089000	0.341191	-0.096407
C26	C	1.026075	0.303068	-0.143529
C27	C	1.026065	0.226841	-0.143526
C28	C	1.076654	0.461939	-0.159650
C29	C	1.076671	0.538164	-0.159654
C30	C	1.089026	0.576299	-0.096415
C31	C	1.101385	0.538199	-0.033170
C32	C	1.101374	0.461973	-0.033167
C33	C	1.089004	0.423846	-0.096415
C34	C	1.151949	0.697068	-0.049289
C35	C	1.151948	0.773297	-0.049285
C36	C	1.026130	0.773283	-0.143541
C37	C	1.026126	0.697055	-0.143539
C38	C	1.089040	0.658952	-0.096414
C39	C	1.178112	0.000115	0.152077
C40	C	1.176705	0.000106	0.224529
C41	C	1.091954	0.000100	0.252582
C42	C	1.008605	0.000083	0.208175
C43	C	1.010015	0.000084	0.135725
C44	C	1.025323	0.042517	0.361111
C45	C	1.023916	0.042520	0.433560
C46	C	1.087602	0.000092	0.476043
C47	C	1.152710	-0.042329	0.446069
C48	C	1.154120	-0.042328	0.373618
C49	C	1.090416	0.000098	0.331141
C50	C	1.169420	0.000095	0.599001
C51	C	1.168009	0.000081	0.671454
C52	C	0.999907	0.000065	0.655099
C53	C	1.001320	0.000071	0.582647
C54	C	1.086079	0.000089	0.554603
C55	C	1.081751	0.000057	0.776610
C56	C	1.083258	0.000074	0.699502
H57	H	1.203119	0.195831	-0.010908
F58	F	0.959183	0.813839	-0.193694
H59	H	1.244571	0.000114	0.260684
H60	H	0.939600	0.000076	0.231020
F61	F	0.959131	0.343628	-0.193684
F62	F	0.912619	0.000061	0.535395
F63	F	0.957536	0.087679	0.315904
H64	H	1.238436	0.000106	0.576166
F65	F	0.909708	0.000055	0.684950
H66	H	1.203177	0.804330	-0.010912
H67	H	0.942148	0.000074	0.099576
H68	H	1.111445	0.569247	0.018325
H69	H	0.974900	0.666020	-0.181911
H70	H	1.203131	0.334119	-0.010908
H71	H	0.974833	0.195808	-0.181897
F72	F	1.223406	-0.087478	0.341719
H73	H	1.203175	0.666043	-0.010915
F74	F	1.114519	0.421428	0.034140
H75	H	1.066613	0.569178	-0.211152
H76	H	1.247130	0.000127	0.129248
F77	F	0.954627	0.087671	0.465455
H78	H	1.066576	0.430896	-0.211150
F79	F	1.220494	-0.087488	0.491276
F80	F	1.256715	0.000090	0.718705
