data_functionalizedCrystal
_audit_creation_method	'MofGen! by Chris Wilmer'
_symmetry_space_group_name_H-M	'P1'
_symmetry_Int_Tables_number	1
_symmetry_cell_setting	triclinic
loop_
_symmetry_equiv_pos_as_xyz
  x,y,z
_cell_length_a	15.298206
_cell_length_b	29.839132
_cell_length_c	15.296720
_cell_angle_alpha	99.634725
_cell_angle_beta	69.221745
_cell_angle_gamma	99.615607
loop_
_atom_site_label
_atom_site_type_symbol
_atom_site_fract_x
_atom_site_fract_y
_atom_site_fract_z
Zn1	Zn	1.330378	0.317445	0.279336
Zn2	Zn	1.357147	0.381481	0.123831
Zn3	Zn	1.201811	0.295318	0.150797
Zn4	Zn	1.174790	0.381474	0.306251
O5	O	1.266031	0.343930	0.215054
O6	O	1.464053	0.335203	0.236159
O7	O	1.359053	0.360794	-0.002729
O8	O	1.218971	0.235397	0.167869
O9	O	1.483720	0.382250	0.121910
O10	O	1.313429	0.251654	0.262306
O11	O	1.244928	0.297490	0.017082
O12	O	1.068103	0.297483	0.193968
O13	O	1.172918	0.382238	0.432818
O14	O	1.048251	0.360782	0.308179
O15	O	1.287228	0.335196	0.413044
O16	O	1.332851	0.444337	0.148008
O17	O	1.198874	0.444331	0.282031
C18	C	1.024437	0.326731	0.256921
C19	C	0.921078	0.319386	0.274853
C20	C	0.862271	0.291492	0.342859
C21	C	0.765159	0.284586	0.359710
C22	C	0.726846	0.305578	0.308562
C23	C	0.785653	0.333475	0.240560
C24	C	0.882774	0.340378	0.223703
C25	C	0.747350	0.354464	0.189406
C26	C	0.806157	0.382362	0.121404
C27	C	0.903269	0.389264	0.104550
C28	C	0.941582	0.368273	0.155697
C29	C	0.650228	0.347561	0.206264
C30	C	0.670732	0.396448	0.087108
C31	C	0.767843	0.403353	0.070257
C32	C	1.265857	0.460635	0.215030
C33	C	1.265862	0.510571	0.215036
C34	C	1.335827	0.820226	0.145309
C35	C	1.335912	1.007907	0.145315
O36	O	1.395302	1.032175	0.086032
N37	N	1.266126	1.031380	0.215052
C38	C	1.196318	1.007930	0.284796
O39	O	1.136968	1.032202	0.344117
C40	C	1.196237	0.820250	0.284793
C41	C	1.266022	0.796779	0.215046
C42	C	1.405607	0.796756	0.075569
C43	C	1.405582	0.749838	0.075565
C44	C	1.335777	0.726391	0.145302
C45	C	1.265997	0.749861	0.215043
C46	C	1.126433	0.796802	0.354540
C47	C	1.126421	0.749879	0.354535
C48	C	1.196206	0.726408	0.284788
C49	C	1.196168	0.679496	0.284776
N50	N	1.265953	0.656024	0.215039
C51	C	1.335758	0.679471	0.145302
C52	C	1.196364	1.106464	0.284791
C53	C	1.196383	1.153383	0.284791
C54	C	1.335978	1.153358	0.145311
C55	C	1.335955	1.106437	0.145308
C56	C	1.266150	1.082991	0.215054
C57	C	1.335700	0.580940	0.145299
C58	C	1.335667	0.534018	0.145299
C59	C	1.196074	0.534048	0.284782
C60	C	1.196104	0.580965	0.284779
C61	C	1.265925	0.604411	0.215034
O62	O	1.136815	0.655201	0.344034
O63	O	1.395111	0.655193	0.086002
C64	C	1.335852	0.867144	0.145313
C65	C	1.266072	0.890615	0.215054
C66	C	1.196267	0.867168	0.284791
C67	C	1.266091	0.937535	0.215054
C68	C	1.335896	0.960982	0.145317
C69	C	1.405682	0.937509	0.075580
C70	C	1.405657	0.890591	0.075576
C71	C	1.126482	0.890640	0.354527
C72	C	1.126512	0.937558	0.354525
C73	C	1.196316	0.961005	0.284788
C74	C	1.508569	0.361196	0.173024
C75	C	1.611924	0.368553	0.155113
C76	C	1.224073	0.361185	0.457617
C77	C	1.206192	0.368538	0.560984
C78	C	1.266197	1.226768	0.215079
C79	C	1.266187	1.176830	0.215054
C80	C	1.307881	0.326713	-0.026576
C81	C	1.325941	0.319246	-0.129972
C82	C	1.393860	0.291300	0.811173
C83	C	1.410665	0.284392	0.714054
C84	C	1.359548	0.305428	0.675782
C85	C	1.291623	0.333372	0.734637
C86	C	1.274822	0.340283	0.831765
C87	C	1.240510	0.354412	0.696374
C88	C	1.172585	0.382356	0.755230
C89	C	1.155786	0.389265	0.852347
C90	C	1.206903	0.368230	0.890620
C91	C	1.257312	0.347501	0.599246
C92	C	1.138274	0.396484	0.619838
C93	C	1.121468	0.403392	0.716957
H94	H	0.951149	0.411975	0.049171
C95	C	1.482394	0.822540	-0.001153
H96	H	1.523939	0.801834	-0.042685
H97	H	1.516740	0.846233	0.027422
H98	H	1.453872	0.835449	-0.035550
H99	H	1.462482	0.871485	0.018782
C100	C	1.188419	0.375828	0.997451
H101	H	1.228593	0.359298	1.011810
H102	H	1.124626	0.365352	1.029822
H103	H	1.200656	0.407523	1.016625
H104	H	1.312616	0.324748	0.551335
C105	C	0.904417	0.268404	0.399109
H106	H	0.970678	0.276513	0.379332
H107	H	0.890875	0.236121	0.388375
H108	H	0.877710	0.278342	0.464333
C109	C	0.585547	0.316879	0.281064
H110	H	0.522221	0.315770	0.283776
H111	H	0.590670	0.329076	0.340757
H112	H	0.603838	0.286856	0.264795
C113	C	0.832538	0.434034	-0.004547
H114	H	0.895862	0.435135	-0.007262
H115	H	0.814253	0.464056	0.011709
H116	H	0.827421	0.421833	-0.064246
H117	H	1.373235	0.299802	0.596702
C118	C	1.048406	0.375871	0.137162
H119	H	1.077943	0.395493	0.089340
H120	H	1.073181	0.347298	0.117380
H121	H	1.059995	0.389519	0.193337
H122	H	0.639538	0.413541	0.045460
H123	H	1.069639	0.871554	0.411317
C124	C	1.485369	0.253654	0.649317
H125	H	1.488061	0.252554	0.585993
H126	H	1.469060	0.223638	0.667603
H127	H	1.545085	0.265811	0.654405
H128	H	1.392494	0.514909	0.088500
H129	H	1.392557	0.600024	0.088507
C130	C	0.700478	0.253904	0.434508
H131	H	0.737202	0.242394	0.462561
H132	H	0.668752	0.229086	0.405583
H133	H	0.655583	0.271307	0.481542
C134	C	1.450077	0.268163	0.853274
H135	H	1.430336	0.276280	0.919546
H136	H	1.515297	0.278051	0.826531
H137	H	1.439265	0.235880	0.839732
H138	H	1.096652	0.413614	0.588678
H139	H	1.462409	0.730731	0.018774
H140	H	1.066163	0.426144	0.764891
H141	H	1.392780	1.087330	0.088515
C142	C	1.081075	0.420005	0.917086
H143	H	1.053031	0.431540	0.880387
H144	H	1.110054	0.444804	0.948804
H145	H	1.034033	0.402629	0.961998
H146	H	1.392816	1.172457	0.088529
C147	C	1.482464	0.963307	-0.001130
H148	H	1.472479	0.994612	0.008872
H149	H	1.479718	0.950229	-0.061279
H150	H	1.542567	0.961004	0.001711
H151	H	1.139238	0.514949	0.341559
H152	H	1.139518	1.087377	0.341589
H153	H	1.069603	0.815903	0.411332
C154	C	1.119615	1.179195	0.361508
H155	H	1.078048	1.158508	0.403042
H156	H	1.085290	1.192112	0.332925
H157	H	1.148151	1.202886	0.395903
C158	C	1.049634	0.724092	0.431258
H159	H	1.008077	0.744792	0.472789
H160	H	1.078149	0.711176	0.465646
H161	H	1.015288	0.700401	0.402668
H162	H	1.069676	0.956664	0.411322
H163	H	1.139282	0.600077	0.341575
H164	H	0.647773	0.299952	0.322284
