data_functionalizedCrystal
_audit_creation_method	'MofGen! by Chris Wilmer'
_symmetry_space_group_name_H-M	'P1'
_symmetry_Int_Tables_number	1
_symmetry_cell_setting	triclinic
loop_
_symmetry_equiv_pos_as_xyz
  x,y,z
_cell_length_a	14.519709
_cell_length_b	14.853567
_cell_length_c	13.930277
_cell_angle_alpha	90.000757
_cell_angle_beta	90.001602
_cell_angle_gamma	83.657537
loop_
_atom_site_label
_atom_site_type_symbol
_atom_site_fract_x
_atom_site_fract_y
_atom_site_fract_z
O1	O	-1.223823	-0.118178	-0.079698
O2	O	-0.955341	-0.132096	-0.079726
O3	O	-1.096754	0.006090	-0.079714
O4	O	-1.082410	-0.256364	-0.079710
O5	O	-1.096734	0.006093	0.079948
O6	O	-0.955321	-0.132093	0.079936
O7	O	-1.223804	-0.118176	0.079964
Zn8	Zn	-1.089559	-0.125134	0.105300
Zn9	Zn	-1.089585	-0.125138	-0.105061
O10	O	-1.082391	-0.256361	0.079952
C11	C	-1.096094	0.039680	0.000114
C12	C	-1.094146	0.139765	0.000106
C13	C	-0.920971	-0.131446	0.000101
C14	C	-0.818591	-0.129502	0.000090
C15	C	-1.258173	-0.118826	0.000135
C16	C	-1.360553	-0.120769	0.000140
C17	C	-0.443698	-0.122347	0.000134
C18	C	-0.548005	-0.124334	0.000121
C19	C	-0.631141	-0.125924	0.000111
C20	C	-0.735455	-0.127912	0.000100
C21	C	-1.083050	-0.289952	0.000122
C22	C	-1.084998	-0.390036	0.000124
N23	N	-1.089548	-0.125130	0.248866
C24	C	-1.001911	0.552334	0.000114
C25	C	-1.169913	0.573550	0.000132
C26	C	-1.171744	0.479516	0.000126
C27	C	-1.088658	0.421886	0.000116
C28	C	-1.003740	0.458291	0.000112
C29	C	-1.256661	0.443104	0.000141
C30	C	-1.258495	0.349064	0.000136
C31	C	-1.175408	0.291433	0.000119
C32	C	-1.090486	0.327843	0.000114
C33	C	-1.007400	0.270213	0.000104
C34	C	-0.922478	0.306621	0.000091
C35	C	-0.920653	0.400660	0.000095
C36	C	-1.177233	0.197394	0.000116
C37	C	-1.009229	0.176170	0.000101
N38	N	-1.089603	-0.125134	-0.248628
C39	C	-1.026965	-0.186302	0.701130
C40	C	-1.152231	-0.063966	0.701110
C41	C	-1.152220	-0.063963	0.600614
C42	C	-1.089581	-0.125132	0.550372
C43	C	-1.026954	-0.186303	0.600625
C44	C	-1.214852	-0.002799	0.550354
C45	C	-1.214844	-0.002795	0.449852
C46	C	-1.152201	-0.063959	0.399607
C47	C	-1.089570	-0.125132	0.449867
C48	C	-1.026932	-0.186301	0.399624
C49	C	-0.964296	-0.247470	0.449882
C50	C	-0.964310	-0.247468	0.550381
C51	C	-1.152186	-0.063962	0.299108
C52	C	-1.026921	-0.186302	0.299119
H53	H	-0.941568	0.129253	0.000089
Br54	Br	-1.373743	0.299660	0.000139
H55	H	-1.265855	0.046998	0.591264
H56	H	-1.246375	0.167755	0.000132
H57	H	-1.203233	-0.014169	0.742021
Br58	Br	-0.941900	-0.269313	0.230940
Br59	Br	-1.369414	0.521317	0.000181
H60	H	-0.932770	0.581982	0.000100
H61	H	-0.851513	0.430312	0.000085
H62	H	-1.237558	0.620477	0.000148
Br63	Br	-1.299845	0.080219	0.381651
Br64	Br	-0.879299	-0.330490	0.381685
Br65	Br	-1.237193	0.019039	0.230908
H66	H	-0.913316	-0.297271	0.591306
H67	H	-0.975965	-0.236103	0.742052
H68	H	-0.854829	0.259687	0.000089
