data_functionalizedCrystal
_audit_creation_method	'MofGen! by Chris Wilmer'
_symmetry_space_group_name_H-M	'P1'
_symmetry_Int_Tables_number	1
_symmetry_cell_setting	triclinic
loop_
_symmetry_equiv_pos_as_xyz
  x,y,z
_cell_length_a	29.839134
_cell_length_b	29.839131
_cell_length_c	29.839125
_cell_angle_alpha	90.017709
_cell_angle_beta	90.021980
_cell_angle_gamma	90.036281
loop_
_atom_site_label
_atom_site_type_symbol
_atom_site_fract_x
_atom_site_fract_y
_atom_site_fract_z
Zn1	Zn	0.686720	-0.178978	0.254125
Zn2	Zn	0.686652	-0.254090	0.178995
Zn3	Zn	0.611602	-0.178968	0.178995
Zn4	Zn	0.611550	-0.254075	0.254083
O5	O	0.649131	-0.216528	0.216549
O6	O	0.749578	-0.188952	0.244176
O7	O	0.676690	-0.244127	0.116128
O8	O	0.621617	-0.116102	0.188978
O9	O	0.749528	-0.244137	0.188979
O10	O	0.676805	-0.116109	0.244176
O11	O	0.621551	-0.188935	0.116127
O12	O	0.548728	-0.188921	0.188938
O13	O	0.621528	-0.244111	0.316956
O14	O	0.548690	-0.244101	0.244105
O15	O	0.676755	-0.188937	0.316987
O16	O	0.676639	-0.316955	0.188938
O17	O	0.621462	-0.316944	0.244105
C18	C	0.532408	-0.216509	0.216517
C19	C	0.482474	-0.216511	0.216514
C20	C	0.649050	-0.333250	0.216527
C21	C	0.649056	-0.383185	0.216533
C22	C	0.172820	-0.245303	0.245240
C23	C	-0.014853	-0.245315	0.245260
O24	O	-0.039127	-0.269774	0.269665
N25	N	-0.038311	-0.216544	0.216583
C26	C	-0.014848	-0.187766	0.187902
O27	O	-0.039107	-0.163291	0.163514
C28	C	0.172824	-0.187751	0.187884
C29	C	0.196280	-0.216527	0.216560
C30	C	0.196276	-0.274076	0.273913
C31	C	0.243191	-0.274075	0.273906
C32	C	0.266651	-0.245299	0.245226
C33	C	0.243195	-0.216526	0.216553
C34	C	0.196286	-0.158971	0.159205
C35	C	0.243207	-0.158969	0.159204
C36	C	0.266663	-0.187745	0.187880
C37	C	0.313570	-0.187749	0.187865
N38	N	0.337029	-0.216520	0.216542
C39	C	0.313569	-0.245295	0.245222
C40	C	-0.113379	-0.187776	0.187912
C41	C	-0.160297	-0.187780	0.187916
C42	C	-0.160298	-0.245329	0.245275
C43	C	-0.113380	-0.245327	0.245269
C44	C	-0.089921	-0.216547	0.216589
C45	C	0.412095	-0.245290	0.245205
C46	C	0.459014	-0.245287	0.245194
C47	C	0.459012	-0.187736	0.187837
C48	C	0.412096	-0.187740	0.187846
C49	C	0.388639	-0.216519	0.216534
O50	O	0.337873	-0.163299	0.163477
O51	O	0.337836	-0.269759	0.269613
C52	C	0.125905	-0.245304	0.245247
C53	C	0.102449	-0.216531	0.216574
C54	C	0.125909	-0.187755	0.187893
C55	C	0.055531	-0.216535	0.216577
C56	C	0.032071	-0.245310	0.245258
C57	C	0.055529	-0.274082	0.273934
C58	C	0.102445	-0.274080	0.273927
C59	C	0.102451	-0.158984	0.159217
C60	C	0.055535	-0.158989	0.159226
C61	C	0.032075	-0.187764	0.187906
C62	C	0.677914	-0.692821	0.187866
C63	C	0.677969	-0.880494	0.187883
O64	O	0.702441	-0.904753	0.163493
N65	N	0.649224	-0.903970	0.216583
C66	C	0.620465	-0.880524	0.245283
O67	O	0.596020	-0.904798	0.269698
C68	C	0.620412	-0.692852	0.245268
C69	C	0.649156	-0.669379	0.216563
C70	C	0.706656	-0.669348	0.159164
C71	C	0.706640	-0.622433	0.159158
C72	C	0.677882	-0.598990	0.187854
C73	C	0.649140	-0.622463	0.216557
C74	C	0.591656	-0.669407	0.273969
C75	C	0.591646	-0.622486	0.273964
C76	C	0.620390	-0.599013	0.245259
C77	C	0.620367	-0.552106	0.245248
N78	N	0.649112	-0.528630	0.216548
C79	C	0.677869	-0.552072	0.187851
C80	C	0.620494	-0.979055	0.245289
C81	C	0.620507	-1.025973	0.245292
C82	C	0.678012	-1.025939	0.187893
C83	C	0.677996	-0.979021	0.187887
C84	C	0.649239	-0.955579	0.216589
C85	C	0.677834	-0.453547	0.187841
C86	C	0.677814	-0.406627	0.187836
C87	C	0.620311	-0.406664	0.245237
C88	C	0.620329	-0.453580	0.245240
C89	C	0.649094	-0.477020	0.216540
O90	O	0.595912	-0.527818	0.269629
O91	O	0.702318	-0.527791	0.163447
C92	C	0.677930	-0.739737	0.187872
C93	C	0.649188	-0.763210	0.216574
C94	C	0.620430	-0.739767	0.245271
C95	C	0.649200	-0.810128	0.216578
C96	C	0.677958	-0.833570	0.187881
C97	C	0.706703	-0.810094	0.159181
C98	C	0.706687	-0.763179	0.159175
C99	C	0.591685	-0.763243	0.273971
C100	C	0.591703	-0.810158	0.273974
C101	C	0.620461	-0.833601	0.245277
C102	C	0.766309	-0.216547	0.216582
C103	C	0.816244	-0.216555	0.216596
C104	C	0.649143	-0.216524	0.333728
C105	C	0.649148	-0.216522	0.383662
C106	C	0.649225	-0.099349	0.216582
C107	C	0.649265	-0.049415	0.216595
C108	C	0.649145	-0.216499	0.099827
C109	C	0.649227	-0.216374	0.049893
C110	C	0.677935	-0.187718	0.693325
C111	C	0.677957	-0.187680	0.880998
O112	O	0.702399	-0.163232	0.905279
N113	N	0.649208	-0.216402	0.904448
C114	C	0.620449	-0.245133	0.880976
O115	O	0.595993	-0.269559	0.905228
C116	C	0.620424	-0.245169	0.693304
C117	C	0.649179	-0.216448	0.669857
C118	C	0.706687	-0.158999	0.669877
C119	C	0.706683	-0.159011	0.622962
C120	C	0.677927	-0.187741	0.599494
C121	C	0.649175	-0.216460	0.622941
C122	C	0.591663	-0.273898	0.669833
C123	C	0.591659	-0.273903	0.622912
C124	C	0.620414	-0.245183	0.599465
C125	C	0.620415	-0.245202	0.552558
N126	N	0.649164	-0.216480	0.529108
C127	C	0.677920	-0.187749	0.552576
C128	C	0.620464	-0.245113	0.979507
C129	C	0.620471	-0.245105	1.026425
C130	C	0.677979	-0.187650	1.026443
C131	C	0.677974	-0.187661	0.979524
C132	C	0.649214	-0.216391	0.956057
C133	C	0.677910	-0.187776	0.454050
C134	C	0.677904	-0.187792	0.407130
C135	C	0.620395	-0.245244	0.407116
C136	C	0.620401	-0.245230	0.454032
C137	C	0.649161	-0.216493	0.477497
O138	O	0.595982	-0.269633	0.528248
O139	O	0.702366	-0.163320	0.528316
C140	C	0.677939	-0.187706	0.740240
C141	C	0.649187	-0.216425	0.763688
C142	C	0.620431	-0.245155	0.740219
C143	C	0.649194	-0.216417	0.810605
C144	C	0.677950	-0.187686	0.834074
C145	C	0.706699	-0.158964	0.810624
C146	C	0.706695	-0.158976	0.763708
C147	C	0.591682	-0.273877	0.763669
C148	C	0.591689	-0.273864	0.810585
C149	C	0.620445	-0.245133	0.834053
H150	H	0.478110	-0.268721	0.268545
H151	H	0.568229	-0.603402	0.297337
O152	O	0.589474	-0.953771	0.276243
H153	H	0.566629	-0.932422	0.256107
O154	O	0.737708	-0.127995	0.738424
H155	H	0.760552	-0.148109	0.717056
H156	H	0.597097	-1.045080	0.268662
O157	O	0.560655	-0.694715	0.304935
H158	H	0.537811	-0.716118	0.284811
O159	O	0.030241	-0.305135	0.304869
H160	H	0.008888	-0.285077	0.327777
O161	O	0.030238	-0.127948	0.128297
H162	H	0.054438	-0.107937	0.108358
O163	O	0.589294	-0.381373	0.276185
H164	H	0.569305	-0.405574	0.296144
O165	O	0.709005	-0.953702	0.156935
H166	H	0.701332	-0.962728	0.121667
H167	H	0.478121	-0.164309	0.164485
H168	H	0.597044	-0.268511	0.960404
O169	O	0.560657	-0.737961	0.304914
H170	H	0.540669	-0.762171	0.324864
H171	H	0.701220	-0.387517	0.164459
H172	H	0.701388	-0.164274	0.960437
H173	H	-0.179407	-0.268759	0.268628
H174	H	0.393001	-0.268723	0.268566
H175	H	0.177197	-0.135539	0.135854
O176	O	-0.185594	-0.156746	0.156986
H177	H	-0.161394	-0.136734	0.137047
H178	H	0.568248	-0.297285	0.688916
O179	O	0.268510	-0.127932	0.128265
H180	H	0.244315	-0.107930	0.108325
H181	H	0.568265	-0.297274	0.744566
O182	O	0.708995	-0.156659	1.051758
H183	H	0.701313	-0.121402	1.042751
O184	O	0.268488	-0.305105	0.304841
H185	H	0.244286	-0.325108	0.324787
O186	O	0.560671	-0.304844	0.835869
H187	H	0.565502	-0.300015	0.872438
O188	O	0.708854	-0.478826	0.156884
H189	H	0.728831	-0.454615	0.136923
H190	H	-0.094283	-0.164339	0.164556
O191	O	0.386793	-0.156705	0.156918
H192	H	0.410990	-0.136695	0.136975
H193	H	-0.094285	-0.268759	0.268619
O194	O	0.589376	-0.276225	0.381798
H195	H	0.597048	-0.311487	0.390793
O196	O	0.589327	-0.478902	0.276198
H197	H	0.569329	-0.454716	0.296153
O198	O	0.737645	-0.597118	0.128200
H199	H	0.760480	-0.575712	0.148331
H200	H	0.730093	-0.744071	0.135801
H201	H	0.730076	-0.688430	0.135795
O202	O	0.709038	-1.051227	0.156948
H203	H	0.704220	-1.087795	0.161781
H204	H	0.177180	-0.297509	0.297271
H205	H	0.597061	-0.268497	1.045512
H206	H	0.568233	-0.297294	0.603808
O207	O	0.737731	-0.835382	0.128237
H208	H	0.732914	-0.871950	0.133073
O209	O	0.589388	-0.276205	0.479326
H210	H	0.597059	-0.311470	0.470323
O211	O	0.127741	-0.305113	0.304860
H212	H	0.103540	-0.325116	0.324805
O213	O	0.560699	-0.835474	0.304937
H214	H	0.540705	-0.811286	0.324892
H215	H	0.701321	-0.164403	0.388042
H216	H	0.701327	-0.164374	0.473150
H217	H	0.730097	-0.135623	0.603875
O218	O	0.737708	-0.128012	0.695186
H219	H	0.757699	-0.108050	0.670992
O220	O	0.127751	-0.127956	0.128272
H221	H	0.103553	-0.107958	0.108330
O222	O	0.737707	-0.127966	0.835940
H223	H	0.732870	-0.132782	0.872503
