data_functionalizedCrystal
_audit_creation_method	'MofGen! by Chris Wilmer'
_symmetry_space_group_name_H-M	'P1'
_symmetry_Int_Tables_number	1
_symmetry_cell_setting	triclinic
loop_
_symmetry_equiv_pos_as_xyz
  x,y,z
_cell_length_a	13.897449
_cell_length_b	16.625545
_cell_length_c	13.897441
_cell_angle_alpha	89.969815
_cell_angle_beta	89.978743
_cell_angle_gamma	90.026384
loop_
_atom_site_label
_atom_site_type_symbol
_atom_site_fract_x
_atom_site_fract_y
_atom_site_fract_z
Zn1	Zn	1.474630	-0.320966	-0.545446
Zn2	Zn	1.807963	0.012367	-0.212113
Zn3	Zn	2.141296	0.345701	0.121221
Zn4	Zn	1.474507	-0.455814	-0.384146
Zn5	Zn	1.807841	-0.122481	-0.050812
Zn6	Zn	2.141174	0.210853	0.282521
Zn7	Zn	1.313325	-0.321001	-0.384157
Zn8	Zn	1.646658	0.012332	-0.050823
Zn9	Zn	1.979991	0.345666	0.282510
Zn10	Zn	1.313278	-0.455762	-0.545391
Zn11	Zn	1.646612	-0.122429	-0.212057
Zn12	Zn	1.979945	0.210905	0.121276
O13	O	1.393935	-0.388386	-0.464785
O14	O	1.727268	-0.055052	-0.131451
O15	O	2.060602	0.278281	0.201882
O16	O	1.609595	-0.338861	-0.524068
O17	O	1.942928	-0.005527	-0.190734
O18	O	2.276262	0.327806	0.142599
O19	O	1.453095	-0.437967	-0.249165
O20	O	1.786428	-0.104634	0.084168
O21	O	2.119761	0.228700	0.417501
O22	O	1.334793	-0.208164	-0.405580
O23	O	1.668126	0.125170	-0.072246
O24	O	2.001459	0.458503	0.261087
O25	O	1.609505	-0.437933	-0.405561
O26	O	1.942839	-0.104600	-0.072228
O27	O	2.276172	0.228734	0.261106
O28	O	1.453303	-0.208138	-0.524078
O29	O	1.786636	0.125195	-0.190745
O30	O	2.119969	0.458529	0.142588
O31	O	1.334674	-0.338920	-0.249174
O32	O	1.668008	-0.005587	0.084160
O33	O	2.001341	0.327746	0.417493
O34	O	1.178337	-0.338870	-0.405526
O35	O	1.511670	-0.005537	-0.072193
O36	O	1.845004	0.327796	0.261140
O37	O	1.334714	-0.437845	-0.680380
O38	O	1.668047	-0.104511	-0.347047
O39	O	2.001380	0.228822	-0.013713
O40	O	1.178303	-0.437879	-0.523984
O41	O	1.511636	-0.104545	-0.190651
O42	O	1.844970	0.228788	0.142682
O43	O	1.453258	-0.338811	-0.680420
O44	O	1.786591	-0.005477	-0.347087
O45	O	2.119924	0.327856	-0.013754
O46	O	1.453050	-0.568639	-0.405508
O47	O	1.786383	-0.235306	-0.072174
O48	O	2.119716	0.098027	0.261159
O49	O	1.334595	-0.568601	-0.523974
O50	O	1.667928	-0.235268	-0.190640
O51	O	2.001262	0.098065	0.142693
C52	C	1.143321	-0.388373	-0.464751
C53	C	1.476654	-0.055040	-0.131418
C54	C	1.809987	0.278293	0.201915
C55	C	1.036107	-0.388387	-0.464760
C56	C	1.369440	-0.055054	-0.131426
C57	C	1.702773	0.278279	0.201907
C58	C	0.949037	-0.388390	-0.464776
C59	C	1.282370	-0.055057	-0.131442
C60	C	1.615704	0.278277	0.201891
C61	C	0.839804	-0.388396	-0.464805
C62	C	1.173138	-0.055062	-0.131472
C63	C	1.506471	0.278271	0.201862
C64	C	1.393830	-0.597877	-0.464754
C65	C	1.727164	-0.264543	-0.131421
C66	C	2.060497	0.068790	0.201912
C67	C	1.393874	-0.687498	-0.464774
C68	C	1.727207	-0.354164	-0.131440
C69	C	2.060540	-0.020831	0.201893
C70	C	1.393911	-0.760280	-0.464793
C71	C	1.727244	-0.426947	-0.131460
C72	C	2.060578	-0.093613	0.201874
C73	C	1.393967	-0.851589	-0.464814
C74	C	1.727301	-0.518255	-0.131481
C75	C	2.060634	-0.184922	0.201852
C76	C	1.394017	-0.924365	-0.464826
C77	C	1.727351	-0.591032	-0.131493
C78	C	2.060684	-0.257698	0.201840
C79	C	1.394072	-1.015679	-0.464846
C80	C	1.727406	-0.682346	-0.131513
C81	C	2.060739	-0.349013	0.201820
C82	C	1.645528	-0.388399	-0.464819
C83	C	1.978861	-0.055065	-0.131486
C84	C	2.312195	0.278268	0.201848
C85	C	1.752742	-0.388404	-0.464834
C86	C	2.086075	-0.055071	-0.131500
C87	C	2.419409	0.278262	0.201833
C88	C	1.393994	-0.388318	-0.716378
C89	C	1.727327	-0.054985	-0.383045
C90	C	2.060661	0.278349	-0.049711
C91	C	1.394019	-0.388289	-0.823592
C92	C	1.727353	-0.054956	-0.490259
C93	C	2.060686	0.278378	-0.156925
C94	C	1.394066	-0.178077	-0.464836
C95	C	1.727400	0.155257	-0.131503
C96	C	2.060733	0.488590	0.201830
C97	C	1.394123	-0.088456	-0.464858
C98	C	1.727456	0.244878	-0.131525
C99	C	2.060789	0.578211	0.201808
C100	C	1.394039	-0.388266	-0.910662
C101	C	1.727372	-0.054933	-0.577328
C102	C	2.060706	0.278400	-0.243995
C103	C	1.394067	-0.388230	-1.019894
C104	C	1.727400	-0.054897	-0.686561
C105	C	2.060733	0.278437	-0.353228
C106	C	1.393932	-0.388395	-0.214170
C107	C	1.727265	-0.055062	0.119163
C108	C	2.060598	0.278272	0.452496
C109	C	1.394093	-0.388197	-0.106957
C110	C	1.727427	-0.054863	0.226376
C111	C	2.060760	0.278470	0.559710
