data_functionalizedCrystal
_audit_creation_method	'MofGen! by Chris Wilmer'
_symmetry_space_group_name_H-M	'P1'
_symmetry_Int_Tables_number	1
_symmetry_cell_setting	triclinic
loop_
_symmetry_equiv_pos_as_xyz
  x,y,z
_cell_length_a	14.044220
_cell_length_b	15.072220
_cell_length_c	14.044220
_cell_angle_alpha	90.001345
_cell_angle_beta	93.188878
_cell_angle_gamma	90.007881
loop_
_atom_site_label
_atom_site_type_symbol
_atom_site_fract_x
_atom_site_fract_y
_atom_site_fract_z
O1	O	1.277179	0.073692	0.230162
O2	O	1.000508	0.073714	0.221856
O3	O	1.134691	0.073694	0.087674
O4	O	1.142996	0.073711	0.364345
O5	O	1.134655	-0.073871	0.087679
O6	O	1.000472	-0.073851	0.221862
O7	O	1.277144	-0.073873	0.230167
Zn8	Zn	1.138802	-0.097291	0.226015
Zn9	Zn	1.138849	0.097132	0.226009
O10	O	1.142961	-0.073854	0.364350
C11	C	0.964868	-0.000066	0.218223
C12	C	0.858725	-0.000058	0.207379
N13	N	1.138777	-0.229980	0.226020
C14	C	0.664388	-0.000076	0.187553
C15	C	0.613258	-0.000075	0.264467
C16	C	0.505122	-0.000086	0.253435
C17	C	0.772534	-0.000066	0.198583
C18	C	1.138847	-0.589182	0.226005
C19	C	1.066763	-0.551564	0.297518
C20	C	1.066967	-0.448739	0.297819
C21	C	1.138811	-0.410978	0.226012
C22	C	1.240266	-0.448275	0.256192
C23	C	1.239872	-0.551133	0.256710
C24	C	1.110345	-0.551286	0.124155
C25	C	1.108116	-0.448423	0.124630
C26	C	1.138798	-0.310264	0.226015
C27	C	1.138867	-0.689895	0.226004
C28	C	1.312783	-0.000092	0.233800
C29	C	1.418926	-0.000094	0.244645
C30	C	1.131037	-0.000088	0.052054
C31	C	1.120193	-0.000088	-0.054088
N32	N	1.138881	0.229821	0.225997
C33	C	1.100366	-0.000074	-0.248426
C34	C	1.177281	-0.000078	-0.299556
C35	C	1.166249	-0.000070	-0.407692
C36	C	1.111397	-0.000082	-0.140280
C37	C	1.146614	-0.000069	0.399969
C38	C	1.157459	-0.000063	0.506112
H39	H	0.626951	-0.000086	0.113425
H40	H	1.264446	-0.422504	0.329931
C41	C	0.989289	0.075786	-0.356071
C42	C	1.000295	-0.000071	-0.298964
H43	H	0.927512	0.075781	-0.387283
H44	H	0.996776	0.127235	-0.317319
H45	H	1.036109	0.075779	-0.402352
H46	H	0.953479	-0.000061	-0.252677
H47	H	0.992798	-0.051533	-0.337719
C48	C	0.762688	-0.000011	0.356250
C49	C	0.663792	-0.000033	0.364547
H50	H	0.793886	0.000029	0.418033
H51	H	0.780633	-0.051477	0.322580
H52	H	0.780614	0.051442	0.322521
H53	H	0.645865	-0.051489	0.398270
H54	H	0.645839	0.051439	0.398232
H55	H	0.991826	-0.423523	0.278595
C56	C	0.965825	-0.639834	0.191413
C57	C	0.965023	-0.584993	0.271844
H58	H	0.903015	-0.660480	0.175568
H59	H	0.988317	-0.607193	0.139349
H60	H	1.006678	-0.689030	0.204785
H61	H	0.924176	-0.535794	0.258470
H62	H	0.942519	-0.617635	0.323920
H63	H	1.085628	-0.577399	0.372490
H64	H	1.086044	-0.424121	0.373224
C65	C	1.291471	-0.510254	0.416580
C66	C	1.272030	-0.583511	0.357331
H67	H	1.311317	-0.530242	0.478702
H68	H	1.340714	-0.475675	0.391395
H69	H	1.235558	-0.475173	0.419837
H70	H	1.327945	-0.618589	0.354069
H71	H	1.222783	-0.618105	0.382522
C72	C	1.119135	-0.366395	-0.020901
C73	C	1.173514	-0.413728	0.048540
H74	H	1.159519	-0.344972	-0.067868
H75	H	1.072041	-0.404346	-0.050065
H76	H	1.088980	-0.317755	0.008136
H77	H	1.203664	-0.462372	0.019505
H78	H	1.220626	-0.375775	0.077707
H79	H	1.295635	-0.576016	0.207128
H80	H	1.295537	-0.423814	0.205843
C81	C	0.946586	-0.488419	0.078538
C82	C	1.007310	-0.415520	0.093963
H83	H	0.884352	-0.468100	0.059611
H84	H	0.969915	-0.524822	0.029787
H85	H	0.944297	-0.521765	0.135761
H86	H	1.009603	-0.382177	0.036737
H87	H	0.983975	-0.379102	0.142718
C88	C	1.155234	-0.550052	-0.038334
C89	C	1.181167	-0.584128	0.052172
H90	H	1.198963	-0.570328	-0.082765
H91	H	1.092815	-0.569648	-0.057551
H92	H	1.156355	-0.487068	-0.036068
H93	H	1.180040	-0.647113	0.049907
H94	H	1.243603	-0.564537	0.071392
H95	H	1.037515	-0.577272	0.097225
H96	H	1.251414	-0.000024	-0.262117
