data_functionalizedCrystal
_audit_creation_method	'MofGen! by Chris Wilmer'
_symmetry_space_group_name_H-M	'P1'
_symmetry_Int_Tables_number	1
_symmetry_cell_setting	triclinic
loop_
_symmetry_equiv_pos_as_xyz
  x,y,z
_cell_length_a	19.805407
_cell_length_b	25.639240
_cell_length_c	25.639234
_cell_angle_alpha	89.971713
_cell_angle_beta	89.989828
_cell_angle_gamma	90.030074
loop_
_atom_site_label
_atom_site_type_symbol
_atom_site_fract_x
_atom_site_fract_y
_atom_site_fract_z
Zn1	Zn	1.034655	-0.208240	-0.295582
Zn2	Zn	1.284655	0.041760	-0.045582
Zn3	Zn	1.534655	0.291760	0.204418
Zn4	Zn	1.784655	0.541760	0.454418
Zn5	Zn	1.034572	-0.295662	-0.208136
Zn6	Zn	1.284572	-0.045662	0.041864
Zn7	Zn	1.534572	0.204338	0.291864
Zn8	Zn	1.784572	0.454338	0.541864
Zn9	Zn	0.921485	-0.208238	-0.208161
Zn10	Zn	1.171485	0.041762	0.041839
Zn11	Zn	1.421485	0.291762	0.291839
Zn12	Zn	1.671485	0.541762	0.541839
Zn13	Zn	0.921420	-0.295642	-0.295540
Zn14	Zn	1.171420	-0.045642	-0.045540
Zn15	Zn	1.421420	0.204358	0.204460
Zn16	Zn	1.671420	0.454358	0.454460
O17	O	0.978033	-0.251945	-0.251855
O18	O	1.228033	-0.001945	-0.001855
O19	O	1.478033	0.248055	0.248145
O20	O	1.728033	0.498055	0.498145
O21	O	1.129360	-0.219845	-0.283989
O22	O	1.379360	0.030155	-0.033989
O23	O	1.629360	0.280155	0.216011
O24	O	1.879360	0.530155	0.466011
O25	O	1.019563	-0.284073	-0.134974
O26	O	1.269563	-0.034073	0.115026
O27	O	1.519563	0.215927	0.365026
O28	O	1.769563	0.465927	0.615026
O29	O	0.936558	-0.135073	-0.219786
O30	O	1.186558	0.114927	0.030214
O31	O	1.436558	0.364927	0.280214
O32	O	1.686558	0.614927	0.530214
O33	O	1.129300	-0.284074	-0.219743
O34	O	1.379300	-0.034074	0.030257
O35	O	1.629300	0.215926	0.280257
O36	O	1.879300	0.465926	0.530257
O37	O	1.019704	-0.135074	-0.284014
O38	O	1.269704	0.114926	-0.034014
O39	O	1.519704	0.364926	0.215986
O40	O	1.769704	0.614926	0.465986
O41	O	0.936478	-0.219843	-0.134992
O42	O	1.186478	0.030157	0.115008
O43	O	1.436478	0.280157	0.365008
O44	O	1.686478	0.530157	0.615008
O45	O	0.826759	-0.219824	-0.219745
O46	O	1.076759	0.030176	0.030255
O47	O	1.326759	0.280176	0.280255
O48	O	1.576759	0.530176	0.530255
O49	O	0.936449	-0.284040	-0.368711
O50	O	1.186449	-0.034040	-0.118711
O51	O	1.436449	0.215960	0.131289
O52	O	1.686449	0.465960	0.381289
O53	O	0.826712	-0.284039	-0.283942
O54	O	1.076712	-0.034039	-0.033942
O55	O	1.326712	0.215961	0.216058
O56	O	1.576712	0.465961	0.466058
O57	O	1.019642	-0.219826	-0.368742
O58	O	1.269642	0.030174	-0.118742
O59	O	1.519642	0.280174	0.131258
O60	O	1.769642	0.530174	0.381258
O61	O	1.019501	-0.368825	-0.219702
O62	O	1.269501	-0.118825	0.030298
O63	O	1.519501	0.131175	0.280298
O64	O	1.769501	0.381175	0.530298
O65	O	0.936369	-0.368810	-0.283918
O66	O	1.186369	-0.118810	-0.033918
O67	O	1.436369	0.131190	0.216082
O68	O	1.686369	0.381190	0.466082
C69	C	0.802177	-0.251929	-0.251842
C70	C	1.052177	-0.001929	-0.001842
C71	C	1.302177	0.248071	0.248158
C72	C	1.552177	0.498071	0.498158
C73	C	0.726945	-0.251935	-0.251849
C74	C	0.976945	-0.001935	-0.001849
C75	C	1.226945	0.248065	0.248151
C76	C	1.476945	0.498065	0.498151
C77	C	0.691633	-0.218550	-0.285353
C78	C	0.941633	0.031450	-0.035353
C79	C	1.191633	0.281450	0.214647
C80	C	1.441633	0.531450	0.464647
C81	C	0.620945	-0.218553	-0.285355
C82	C	0.870945	0.031447	-0.035355
C83	C	1.120945	0.281447	0.214645
C84	C	1.370945	0.531447	0.464645
C85	C	0.585569	-0.251943	-0.251855
C86	C	0.835569	-0.001943	-0.001855
C87	C	1.085569	0.248057	0.248145
C88	C	1.335569	0.498057	0.498145
C89	C	0.620886	-0.285329	-0.218348
C90	C	0.870886	-0.035329	0.031652
C91	C	1.120886	0.214671	0.281652
C92	C	1.370886	0.464671	0.531652
C93	C	0.691573	-0.285324	-0.218343
C94	C	0.941573	-0.035324	0.031657
C95	C	1.191573	0.214676	0.281657
C96	C	1.441573	0.464676	0.531657
C97	C	0.335813	-0.285353	-0.218364
C98	C	0.585813	-0.035353	0.031636
C99	C	0.835813	0.214647	0.281636
C100	C	1.085813	0.464647	0.531636
C101	C	0.265121	-0.285357	-0.218372
C102	C	0.515121	-0.035357	0.031628
C103	C	0.765121	0.214643	0.281628
C104	C	1.015121	0.464643	0.531628
C105	C	0.265184	-0.218582	-0.285376
C106	C	0.515184	0.031418	-0.035376
C107	C	0.765184	0.281418	0.214624
C108	C	1.015184	0.531418	0.464624
C109	C	0.335871	-0.218576	-0.285371
C110	C	0.585871	0.031424	-0.035371
C111	C	0.835871	0.281424	0.214629
C112	C	1.085871	0.531424	0.464629
C113	C	0.371182	-0.251960	-0.251862
C114	C	0.621182	-0.001960	-0.001862
C115	C	0.871182	0.248040	0.248138
C116	C	1.121182	0.498040	0.498138
C117	C	0.447830	-0.251956	-0.251859
C118	C	0.697830	-0.001956	-0.001859
C119	C	0.947830	0.248044	0.248141
C120	C	1.197830	0.498044	0.498141
C121	C	0.508922	-0.251950	-0.251860
C122	C	0.758922	-0.001950	-0.001860
C123	C	1.008922	0.248050	0.248140
C124	C	1.258922	0.498050	0.498140
C125	C	0.977937	-0.387788	-0.251814
C126	C	1.227937	-0.137788	-0.001814
C127	C	1.477937	0.112212	0.248186
C128	C	1.727937	0.362212	0.498186
C129	C	0.977958	-0.445902	-0.251814
C130	C	1.227958	-0.195902	-0.001814
C131	C	1.477958	0.054098	0.248186
C132	C	1.727958	0.304098	0.498186
C133	C	1.021348	-0.806227	-0.285359
C134	C	1.271348	-0.556227	-0.035359
C135	C	1.521348	-0.306227	0.214641
C136	C	1.771348	-0.056227	0.464641
C137	C	1.021368	-0.860831	-0.285369
C138	C	1.271368	-0.610831	-0.035369
C139	C	1.521368	-0.360831	0.214631
C140	C	1.771368	-0.110831	0.464631
O141	O	1.058146	-0.889036	-0.313848
O142	O	1.308146	-0.639036	-0.063848
O143	O	1.558146	-0.389036	0.186152
O144	O	1.808146	-0.139036	0.436152
N145	N	0.978127	-0.888185	-0.251905
N146	N	1.228127	-0.638185	-0.001905
N147	N	1.478127	-0.388185	0.248095
N148	N	1.728127	-0.138185	0.498095
C149	C	0.934858	-0.860930	-0.218432
C150	C	1.184858	-0.610930	0.031568
C151	C	1.434858	-0.360930	0.281568
C152	C	1.684858	-0.110930	0.531568
O153	O	0.898079	-0.889210	-0.189970
O154	O	1.148079	-0.639210	0.060030
O155	O	1.398079	-0.389210	0.310030
O156	O	1.648079	-0.139210	0.560030
C157	C	0.934835	-0.806327	-0.218425
C158	C	1.184835	-0.556327	0.031575
C159	C	1.434835	-0.306327	0.281575
C160	C	1.684835	-0.056327	0.531575
C161	C	0.978084	-0.778977	-0.251887
C162	C	1.228084	-0.528977	-0.001887
C163	C	1.478084	-0.278977	0.248113
C164	C	1.728084	-0.028977	0.498113
C165	C	1.064594	-0.778877	-0.318819
C166	C	1.314594	-0.528877	-0.068819
C167	C	1.564594	-0.278877	0.181181
C168	C	1.814594	-0.028877	0.431181
C169	C	1.064574	-0.724276	-0.318807
C170	C	1.314574	-0.474276	-0.068807
C171	C	1.564574	-0.224276	0.181193
C172	C	1.814574	0.025724	0.431193
C173	C	1.021310	-0.697026	-0.285336
C174	C	1.271310	-0.447026	-0.035336
C175	C	1.521310	-0.197026	0.214664
C176	C	1.771310	0.052974	0.464664
C177	C	0.978065	-0.724376	-0.251876
C178	C	1.228065	-0.474376	-0.001876
C179	C	1.478065	-0.224376	0.248124
C180	C	1.728065	0.025624	0.498124
C181	C	0.891563	-0.779074	-0.184955
C182	C	1.141563	-0.529074	0.065045
C183	C	1.391563	-0.279074	0.315045
C184	C	1.641563	-0.029074	0.565045
C185	C	0.891543	-0.724467	-0.184950
C186	C	1.141543	-0.474467	0.065050
C187	C	1.391543	-0.224467	0.315050
C188	C	1.641543	0.025533	0.565050
C189	C	0.934792	-0.697117	-0.218413
C190	C	1.184792	-0.447117	0.031587
C191	C	1.434792	-0.197117	0.281587
C192	C	1.684792	0.052883	0.531587
C193	C	0.934781	-0.642526	-0.218393
C194	C	1.184781	-0.392526	0.031607
C195	C	1.434781	-0.142526	0.281607
C196	C	1.684781	0.107474	0.531607
N197	N	0.978023	-0.615173	-0.251857
N198	N	1.228023	-0.365173	-0.001857
N199	N	1.478023	-0.115173	0.248143
N200	N	1.728023	0.134827	0.498143
C201	C	1.021287	-0.642423	-0.285328
C202	C	1.271287	-0.392423	-0.035328
C203	C	1.521287	-0.142423	0.214672
C204	C	1.771287	0.107577	0.464672
C205	C	0.934908	-0.975601	-0.218452
C206	C	1.184908	-0.725601	0.031548
C207	C	1.434908	-0.475601	0.281548
C208	C	1.684908	-0.225601	0.531548
C209	C	0.934934	-1.030203	-0.218456
C210	C	1.184934	-0.780203	0.031544
C211	C	1.434934	-0.530203	0.281544
C212	C	1.684934	-0.280203	0.531544
C213	C	1.021444	-1.030101	-0.285394
C214	C	1.271444	-0.780101	-0.035394
C215	C	1.521444	-0.530101	0.214606
C216	C	1.771444	-0.280101	0.464606
C217	C	1.021421	-0.975497	-0.285386
C218	C	1.271421	-0.725497	-0.035386
C219	C	1.521421	-0.475497	0.214614
C220	C	1.771421	-0.225497	0.464614
C221	C	0.978150	-0.948248	-0.251915
C222	C	1.228150	-0.698248	-0.001915
C223	C	1.478150	-0.448248	0.248085
C224	C	1.728150	-0.198248	0.498085
C225	C	1.021244	-0.527758	-0.285301
C226	C	1.271244	-0.277758	-0.035301
C227	C	1.521244	-0.027758	0.214699
C228	C	1.771244	0.222242	0.464699
C229	C	1.021223	-0.473152	-0.285285
C230	C	1.271223	-0.223152	-0.035285
C231	C	1.521223	0.026848	0.214715
C232	C	1.771223	0.276848	0.464715
C233	C	0.934711	-0.473260	-0.218350
C234	C	1.184711	-0.223260	0.031650
C235	C	1.434711	0.026740	0.281650
C236	C	1.684711	0.276740	0.531650
C237	C	0.934734	-0.527860	-0.218364
C238	C	1.184734	-0.277860	0.031636
C239	C	1.434734	-0.027860	0.281636
C240	C	1.684734	0.222140	0.531636
C241	C	0.978003	-0.555108	-0.251844
C242	C	1.228003	-0.305108	-0.001844
C243	C	1.478003	-0.055108	0.248156
C244	C	1.728003	0.194892	0.498156
O245	O	0.898020	-0.614286	-0.189930
O246	O	1.148020	-0.364286	0.060070
O247	O	1.398020	-0.114286	0.310070
O248	O	1.648020	0.135714	0.560070
O249	O	1.058054	-0.614136	-0.313791
O250	O	1.308054	-0.364136	-0.063791
O251	O	1.558054	-0.114136	0.186209
O252	O	1.808054	0.135864	0.436209
C253	C	1.154576	-0.251962	-0.251868
C254	C	1.404576	-0.001962	-0.001868
C255	C	1.654576	0.248038	0.248132
C256	C	1.904576	0.498038	0.498132
C257	C	1.229808	-0.251969	-0.251873
C258	C	1.479808	-0.001969	-0.001873
C259	C	1.729808	0.248031	0.248127
C260	C	1.979808	0.498031	0.498127
C261	C	0.978047	-0.251931	-0.388228
C262	C	1.228047	-0.001931	-0.138228
C263	C	1.478047	0.248069	0.111772
C264	C	1.728047	0.498069	0.361772
C265	C	0.978054	-0.251924	-0.446342
C266	C	1.228054	-0.001924	-0.196342
C267	C	1.478054	0.248076	0.053658
C268	C	1.728054	0.498076	0.303658
C269	C	0.978147	-0.115572	-0.251907
C270	C	1.228147	0.134428	-0.001907
C271	C	1.478147	0.384428	0.248093
C272	C	1.728147	0.634428	0.498093
C273	C	0.978196	-0.057458	-0.251930
C274	C	1.228196	0.192542	-0.001930
C275	C	1.478196	0.442542	0.248070
C276	C	1.728196	0.692542	0.498070
C277	C	0.934780	-0.285295	-0.697514
C278	C	1.184780	-0.035295	-0.447514
C279	C	1.434780	0.214705	-0.197514
C280	C	1.684780	0.464705	0.052486
C281	C	0.934768	-0.285307	-0.642909
C282	C	1.184768	-0.035307	-0.392909
C283	C	1.434768	0.214693	-0.142909
C284	C	1.684768	0.464693	0.107091
O285	O	0.897911	-0.313732	-0.614654
O286	O	1.147911	-0.063732	-0.364654
O287	O	1.397911	0.186268	-0.114654
O288	O	1.647911	0.436268	0.135346
N289	N	0.978079	-0.251882	-0.615616
N290	N	1.228079	-0.001882	-0.365616
N291	N	1.478079	0.248118	-0.115616
N292	N	1.728079	0.498118	0.134384
C293	C	1.021400	-0.218440	-0.642930
C294	C	1.271400	0.031560	-0.392930
C295	C	1.521400	0.281560	-0.142930
C296	C	1.771400	0.531560	0.107070
O297	O	1.058238	-0.190011	-0.614700
O298	O	1.308238	0.059989	-0.364700
O299	O	1.558238	0.309989	-0.114700
O300	O	1.808238	0.559989	0.135300
C301	C	1.021408	-0.218426	-0.697533
C302	C	1.271408	0.031574	-0.447533
C303	C	1.521408	0.281574	-0.197533
C304	C	1.771408	0.531574	0.052467
C305	C	0.978099	-0.251856	-0.724824
C306	C	1.228099	-0.001856	-0.474824
C307	C	1.478099	0.248144	-0.224824
C308	C	1.728099	0.498144	0.025176
C309	C	0.891474	-0.318722	-0.724804
C310	C	1.141474	-0.068722	-0.474804
C311	C	1.391474	0.181278	-0.224804
C312	C	1.641474	0.431278	0.025196
C313	C	0.891487	-0.318711	-0.779405
C314	C	1.141487	-0.068711	-0.529405
C315	C	1.391487	0.181289	-0.279405
C316	C	1.641487	0.431289	-0.029405
C317	C	0.934806	-0.285272	-0.806715
C318	C	1.184806	-0.035272	-0.556715
C319	C	1.434806	0.214728	-0.306715
C320	C	1.684806	0.464728	-0.056715
C321	C	0.978112	-0.251845	-0.779424
C322	C	1.228112	-0.001845	-0.529424
C323	C	1.478112	0.248155	-0.279424
C324	C	1.728112	0.498155	-0.029424
C325	C	1.064725	-0.184982	-0.724846
C326	C	1.314725	0.065018	-0.474846
C327	C	1.564725	0.315018	-0.224846
C328	C	1.814725	0.565018	0.025154
C329	C	1.064729	-0.184970	-0.779453
C330	C	1.314729	0.065030	-0.529453
C331	C	1.564729	0.315030	-0.279453
C332	C	1.814729	0.565030	-0.029453
C333	C	1.021420	-0.218401	-0.806743
C334	C	1.271420	0.031599	-0.556743
C335	C	1.521420	0.281599	-0.306743
C336	C	1.771420	0.531599	-0.056743
C337	C	1.021444	-0.218395	-0.861335
C338	C	1.271444	0.031605	-0.611335
C339	C	1.521444	0.281605	-0.361335
C340	C	1.771444	0.531605	-0.111335
N341	N	0.978133	-0.251820	-0.888628
N342	N	1.228133	-0.001820	-0.638628
N343	N	1.478133	0.248180	-0.388628
N344	N	1.728133	0.498180	-0.138628
C345	C	0.934814	-0.285258	-0.861318
C346	C	1.184814	-0.035258	-0.611318
C347	C	1.434814	0.214742	-0.361318
C348	C	1.684814	0.464742	-0.111318
C349	C	1.021379	-0.218471	-0.528259
C350	C	1.271379	0.031529	-0.278259
C351	C	1.521379	0.281529	-0.028259
C352	C	1.771379	0.531529	0.221741
C353	C	1.021375	-0.218488	-0.473657
C354	C	1.271375	0.031512	-0.223657
C355	C	1.521375	0.281512	0.026343
C356	C	1.771375	0.531512	0.276343
C357	C	0.934742	-0.285354	-0.473640
C358	C	1.184742	-0.035354	-0.223640
C359	C	1.434742	0.214646	0.026360
C360	C	1.684742	0.464646	0.276360
C361	C	0.934750	-0.285340	-0.528243
C362	C	1.184750	-0.035340	-0.278243
C363	C	1.434750	0.214660	-0.028243
C364	C	1.684750	0.464660	0.221757
C365	C	0.978068	-0.251896	-0.555552
C366	C	1.228068	-0.001896	-0.305552
C367	C	1.478068	0.248104	-0.055552
C368	C	1.728068	0.498104	0.194448
C369	C	0.934845	-0.285233	-0.975983
C370	C	1.184845	-0.035233	-0.725983
C371	C	1.434845	0.214767	-0.475983
C372	C	1.684845	0.464767	-0.225983
C373	C	0.934864	-0.285220	-1.030589
C374	C	1.184864	-0.035220	-0.780589
C375	C	1.434864	0.214780	-0.530589
C376	C	1.684864	0.464780	-0.280589
C377	C	1.021494	-0.218352	-1.030600
C378	C	1.271494	0.031648	-0.780600
C379	C	1.521494	0.281648	-0.530600
C380	C	1.771494	0.531648	-0.280600
C381	C	1.021478	-0.218367	-0.976000
C382	C	1.271478	0.031633	-0.726000
C383	C	1.521478	0.281633	-0.476000
C384	C	1.771478	0.531633	-0.226000
C385	C	0.978148	-0.251809	-0.948693
C386	C	1.228148	-0.001809	-0.698693
C387	C	1.478148	0.248191	-0.448693
C388	C	1.728148	0.498191	-0.198693
O389	O	1.058280	-0.189984	-0.889625
O390	O	1.308280	0.060016	-0.639625
O391	O	1.558280	0.310016	-0.389625
O392	O	1.808280	0.560016	-0.139625
O393	O	0.897976	-0.313678	-0.889554
O394	O	1.147976	-0.063678	-0.639554
O395	O	1.397976	0.186322	-0.389554
O396	O	1.647976	0.436322	-0.139554
C397	C	0.978058	-0.251922	-0.116012
C398	C	1.228058	-0.001922	0.133988
C399	C	1.478058	0.248078	0.383988
C400	C	1.728058	0.498078	0.633988
C401	C	0.978183	-0.251782	-0.057899
C402	C	1.228183	-0.001782	0.192101
C403	C	1.478183	0.248218	0.442101
C404	C	1.728183	0.498218	0.692101
H405	H	0.236426	-0.191397	-0.312659
H406	H	0.486426	0.058603	-0.062659
H407	H	0.736426	0.308603	0.187341
H408	H	0.986426	0.558603	0.437341
H409	H	0.899596	-0.312445	-1.052806
H410	H	1.149596	-0.062445	-0.802806
H411	H	1.399596	0.187555	-0.552806
H412	H	1.649596	0.437555	-0.302806
O413	O	0.226967	-0.321371	-0.182233
O414	O	0.476967	-0.071371	0.067767
O415	O	0.726967	0.178629	0.317767
O416	O	0.976967	0.428629	0.567767
H417	H	0.171882	-0.315769	-0.187871
H418	H	0.421882	-0.065769	0.062129
H419	H	0.671882	0.184231	0.312129
H420	H	0.921882	0.434231	0.562129
O421	O	1.111228	-0.694789	-0.354902
O422	O	1.361228	-0.444789	-0.104902
O423	O	1.611228	-0.194789	0.145098
O424	O	1.861228	0.055211	0.395098
H425	H	1.080910	-0.669910	-0.381481
H426	H	1.330910	-0.419910	-0.131481
H427	H	1.580910	-0.169910	0.118519
H428	H	1.830910	0.080090	0.368519
H429	H	0.364554	-0.312537	-0.191079
H430	H	0.614554	-0.062537	0.058921
H431	H	0.864554	0.187463	0.308921
H432	H	1.114554	0.437463	0.558921
O433	O	0.374023	-0.182556	-0.321499
O434	O	0.624023	0.067444	-0.071499
O435	O	0.874023	0.317444	0.178501
O436	O	1.124023	0.567444	0.428501
H437	H	0.360463	-0.191576	-0.362518
H438	H	0.610463	0.058424	-0.112518
H439	H	0.860463	0.308424	0.137482
H440	H	1.110463	0.558424	0.387482
H441	H	1.056638	-0.953232	-0.312635
H442	H	1.306638	-0.703232	-0.062635
H443	H	1.556638	-0.453232	0.187365
H444	H	1.806638	-0.203232	0.437365
O445	O	0.729784	-0.182530	-0.321482
O446	O	0.979784	0.067470	-0.071482
O447	O	1.229784	0.317470	0.178518
O448	O	1.479784	0.567470	0.428518
H449	H	0.716221	-0.191552	-0.362501
H450	H	0.966221	0.058448	-0.112501
H451	H	1.216221	0.308448	0.137499
H452	H	1.466221	0.558448	0.387499
H453	H	0.592078	-0.312514	-0.191069
H454	H	0.842078	-0.062514	0.058931
H455	H	1.092078	0.187486	0.308931
H456	H	1.342078	0.437486	0.558931
O457	O	0.888104	-0.321294	-0.946534
O458	O	1.138104	-0.071294	-0.696534
O459	O	1.388104	0.178706	-0.446534
O460	O	1.638104	0.428706	-0.196534
H461	H	0.857997	-0.344534	-0.974691
H462	H	1.107997	-0.094534	-0.724691
H463	H	1.357997	0.155466	-0.474691
H464	H	1.607997	0.405466	-0.224691
O465	O	1.067916	-0.557137	-0.321411
O466	O	1.317916	-0.307137	-0.071411
O467	O	1.567916	-0.057137	0.178589
O468	O	1.817916	0.192863	0.428589
H469	H	1.037611	-0.582011	-0.348004
H470	H	1.287611	-0.332011	-0.098004
H471	H	1.537611	-0.082011	0.151996
H472	H	1.787611	0.167989	0.401996
H473	H	1.099825	-0.801058	-0.346078
H474	H	1.349825	-0.551058	-0.096078
H475	H	1.599825	-0.301058	0.153922
H476	H	1.849825	-0.051058	0.403922
H477	H	0.720323	-0.312509	-0.191061
H478	H	0.970323	-0.062509	0.058939
H479	H	1.220323	0.187491	0.308939
H480	H	1.470323	0.437491	0.558939
O481	O	1.068095	-0.182434	-0.444227
O482	O	1.318095	0.067566	-0.194227
O483	O	1.568095	0.317566	0.055773
O484	O	1.818095	0.567566	0.305773
H485	H	1.102512	-0.205844	-0.419348
H486	H	1.352512	0.044156	-0.169348
H487	H	1.602512	0.294156	0.080652
H488	H	1.852512	0.544156	0.330652
O489	O	0.582860	-0.182542	-0.321492
O490	O	0.832860	0.067458	-0.071492
O491	O	1.082860	0.317458	0.178508
O492	O	1.332860	0.567458	0.428508
H493	H	0.550644	-0.205983	-0.348046
H494	H	0.800644	0.044017	-0.098046
H495	H	1.050644	0.294017	0.151954
H496	H	1.300644	0.544017	0.401954
O497	O	1.067872	-0.443652	-0.321378
O498	O	1.317872	-0.193652	-0.071378
O499	O	1.567872	0.056348	0.178622
O500	O	1.817872	0.306348	0.428622
H501	H	1.102324	-0.418775	-0.297992
H502	H	1.352324	-0.168775	-0.047992
H503	H	1.602324	0.081225	0.202008
H504	H	1.852324	0.331225	0.452008
H505	H	1.056671	-1.052298	-0.312649
H506	H	1.306671	-0.802298	-0.062649
H507	H	1.556671	-0.552298	0.187351
H508	H	1.806671	-0.302298	0.437351
H509	H	0.899723	-1.052467	-0.191202
H510	H	1.149723	-0.802467	0.058798
H511	H	1.399723	-0.552467	0.308798
H512	H	1.649723	-0.302467	0.558798
H513	H	0.899673	-0.953417	-0.191191
H514	H	1.149673	-0.703417	0.058809
H515	H	1.399673	-0.453417	0.308809
H516	H	1.649673	-0.203417	0.558809
O517	O	0.844871	-0.695080	-0.148846
O518	O	1.094871	-0.445080	0.101154
O519	O	1.344871	-0.195080	0.351154
O520	O	1.594871	0.054920	0.601154
H521	H	0.852115	-0.652515	-0.154460
H522	H	1.102115	-0.402515	0.095540
H523	H	1.352115	-0.152515	0.345540
H524	H	1.602115	0.097485	0.595540
H525	H	0.856345	-0.801333	-0.157706
H526	H	1.106345	-0.551333	0.092294
H527	H	1.356345	-0.301333	0.342294
H528	H	1.606345	-0.051333	0.592294
O529	O	0.888090	-0.557365	-0.182272
O530	O	1.138090	-0.307365	0.067728
O531	O	1.388090	-0.057365	0.317728
O532	O	1.638090	0.192635	0.567728
H533	H	0.858001	-0.529240	-0.158997
H534	H	1.108001	-0.279240	0.091003
H535	H	1.358001	-0.029240	0.341003
H536	H	1.608001	0.220760	0.591003
H537	H	0.899487	-0.451064	-0.191096
H538	H	1.149487	-0.201064	0.058904
H539	H	1.399487	0.048936	0.308904
H540	H	1.649487	0.298936	0.558904
H541	H	0.856219	-0.345932	-0.801620
H542	H	1.106219	-0.095932	-0.551620
H543	H	1.356219	0.154068	-0.301620
H544	H	1.606219	0.404068	-0.051620
O545	O	1.068111	-0.182397	-0.557705
O546	O	1.318111	0.067603	-0.307705
O547	O	1.568111	0.317603	-0.057705
O548	O	1.818111	0.567603	0.192295
H549	H	1.037845	-0.155779	-0.582581
H550	H	1.287845	0.094221	-0.332581
H551	H	1.537845	0.344221	-0.082581
H552	H	1.787845	0.594221	0.167419
H553	H	0.856195	-0.345952	-0.702574
H554	H	1.106195	-0.095952	-0.452574
H555	H	1.356195	0.154048	-0.202574
H556	H	1.606195	0.404048	0.047426
H557	H	0.899484	-0.312561	-0.550460
H558	H	1.149484	-0.062561	-0.300460
H559	H	1.399484	0.187439	-0.050460
H560	H	1.649484	0.437439	0.199540
O561	O	0.888010	-0.321416	-0.444180
O562	O	1.138010	-0.071416	-0.194180
O563	O	1.388010	0.178584	0.055820
O564	O	1.638010	0.428584	0.305820
H565	H	0.895278	-0.315802	-0.401627
H566	H	1.145278	-0.065802	-0.151627
H567	H	1.395278	0.184198	0.098373
H568	H	1.645278	0.434198	0.348373
H569	H	1.099992	-0.157759	-0.702635
H570	H	1.349992	0.092241	-0.452635
H571	H	1.599992	0.342241	-0.202635
H572	H	1.849992	0.592241	0.047365
O573	O	1.111455	-0.148901	-0.808909
O574	O	1.361455	0.101099	-0.558909
O575	O	1.611455	0.351099	-0.308909
O576	O	1.861455	0.601099	-0.058909
H577	H	1.141570	-0.125663	-0.780755
H578	H	1.391570	0.124337	-0.530755
H579	H	1.641570	0.374337	-0.280755
H580	H	1.891570	0.624337	-0.030755
O581	O	1.068189	-0.182312	-0.946560
O582	O	1.318189	0.067688	-0.696560
O583	O	1.568189	0.317688	-0.446560
O584	O	1.818189	0.567688	-0.196560
H585	H	1.098311	-0.159057	-0.974726
H586	H	1.348311	0.090943	-0.724726
H587	H	1.598311	0.340943	-0.474726
H588	H	1.848311	0.590943	-0.224726
O589	O	1.068195	-0.182271	-1.060060
O590	O	1.318195	0.067729	-0.810060
O591	O	1.568195	0.317729	-0.560060
O592	O	1.818195	0.567729	-0.310060
H593	H	1.060911	-0.187873	-1.102614
H594	H	1.310911	0.062127	-0.852614
H595	H	1.560911	0.312127	-0.602614
H596	H	1.810911	0.562127	-0.352614
