data_functionalizedCrystal
_audit_creation_method	'MofGen! by Chris Wilmer'
_symmetry_space_group_name_H-M	'P1'
_symmetry_Int_Tables_number	1
_symmetry_cell_setting	triclinic
loop_
_symmetry_equiv_pos_as_xyz
  x,y,z
_cell_length_a	14.971486
_cell_length_b	13.930277
_cell_length_c	14.971486
_cell_angle_alpha	89.995568
_cell_angle_beta	83.614129
_cell_angle_gamma	90.001649
loop_
_atom_site_label
_atom_site_type_symbol
_atom_site_fract_x
_atom_site_fract_y
_atom_site_fract_z
O1	O	1.186949	0.079721	0.116550
O2	O	1.686949	0.579721	0.616550
O3	O	0.926549	0.079747	0.130509
O4	O	1.426549	0.579747	0.630509
O5	O	1.063728	0.079726	-0.006671
O6	O	1.563728	0.579726	0.493329
O7	O	1.049769	0.079742	0.253730
O8	O	1.549769	0.579742	0.753730
O9	O	1.063708	-0.079935	-0.006650
O10	O	1.563708	0.420065	0.493350
O11	O	0.926529	-0.079915	0.130530
O12	O	1.426529	0.420085	0.630530
O13	O	1.186929	-0.079941	0.116571
O14	O	1.686929	0.420059	0.616571
Zn15	Zn	1.056725	-0.105278	0.123554
Zn16	Zn	1.556725	0.394722	0.623554
Zn17	Zn	1.056752	0.105084	0.123526
Zn18	Zn	1.556752	0.605084	0.623526
O19	O	1.049749	-0.079920	0.253751
O20	O	1.549749	0.420080	0.753751
C21	C	0.893214	-0.000080	0.129895
C22	C	1.393214	0.499920	0.629895
C23	C	0.793917	-0.000071	0.128024
C24	C	1.293917	0.499929	0.628024
N25	N	1.056714	-0.248844	0.123572
N26	N	1.556714	0.251156	0.623572
C27	C	0.736691	-0.000067	0.208614
C28	C	1.236691	0.499933	0.708614
C29	C	0.643392	-0.000082	0.206850
C30	C	1.143392	0.499918	0.706850
C31	C	0.607320	-0.000093	0.124497
C32	C	1.107320	0.499907	0.624497
C33	C	0.664552	-0.000099	0.043902
C34	C	1.164552	0.499901	0.543902
C35	C	0.757850	-0.000091	0.045666
C36	C	1.257850	0.499909	0.545666
C37	C	0.470090	-0.000112	0.040231
C38	C	0.970090	0.499888	0.540231
C39	C	0.376786	-0.000118	0.038466
C40	C	0.876786	0.499882	0.538466
C41	C	0.355632	-0.000103	0.201415
C42	C	0.855632	0.499897	0.701415
C43	C	0.448930	-0.000095	0.203179
C44	C	0.948930	0.499905	0.703179
C45	C	0.506156	-0.000100	0.122584
C46	C	1.006156	0.499900	0.622584
C47	C	1.111068	-0.701105	0.177849
C48	C	1.611068	-0.201105	0.677849
C49	C	1.002464	-0.701090	0.069167
C50	C	1.502464	-0.201090	0.569167
C51	C	1.002450	-0.600594	0.069181
C52	C	1.502450	-0.100594	0.569181
C53	C	1.056747	-0.550349	0.123529
C54	C	1.556747	-0.050349	0.623529
C55	C	1.111058	-0.600600	0.177863
C56	C	1.611058	-0.100600	0.677863
C57	C	0.948148	-0.550336	0.014842
C58	C	1.448148	-0.050336	0.514842
C59	C	0.948133	-0.449834	0.014853
C60	C	1.448133	0.050166	0.514853
C61	C	1.002425	-0.399587	0.069207
C62	C	1.502425	0.100413	0.569207
C63	C	1.056737	-0.449844	0.123544
C64	C	1.556737	0.050156	0.623544
C65	C	1.111034	-0.399600	0.177892
C66	C	1.611034	0.100400	0.677892
C67	C	1.165342	-0.449855	0.232234
C68	C	1.665342	0.050145	0.732234
C69	C	1.165350	-0.550354	0.232217
C70	C	1.665350	-0.050354	0.732217
C71	C	1.002417	-0.299088	0.069224
C72	C	1.502417	0.200912	0.569224
C73	C	1.111024	-0.299094	0.177906
C74	C	1.611024	0.200906	0.677906
C75	C	1.220263	-0.000111	0.117185
C76	C	1.720263	0.499889	0.617185
C77	C	1.319561	-0.000115	0.119056
C78	C	1.819561	0.499885	0.619056
C79	C	1.063094	-0.000104	-0.039985
C80	C	1.563094	0.499896	0.460015
C81	C	1.061223	-0.000103	-0.139282
C82	C	1.561223	0.499897	0.360718
N83	N	1.056771	0.248650	0.123501
N84	N	1.556771	0.748650	0.623501
C85	C	1.141812	-0.000112	-0.196507
C86	C	1.641812	0.499888	0.303493
C87	C	1.140049	-0.000102	-0.289807
C88	C	1.640049	0.499898	0.210193
C89	C	1.057696	-0.000090	-0.325879
C90	C	1.557696	0.499910	0.174121
C91	C	0.977101	-0.000079	-0.268646
C92	C	1.477101	0.499921	0.231354
C93	C	0.978865	-0.000082	-0.175349
C94	C	1.478865	0.499918	0.324651
C95	C	0.973430	-0.000075	-0.463109
C96	C	1.473430	0.499925	0.036891
C97	C	0.971665	-0.000074	-0.556413
C98	C	1.471665	0.499926	-0.056413
C99	C	1.134614	-0.000095	-0.577567
C100	C	1.634614	0.499905	-0.077567
C101	C	1.136378	-0.000098	-0.484269
C102	C	1.636378	0.499902	0.015731
C103	C	1.055782	-0.000088	-0.427043
C104	C	1.555782	0.499912	0.072957
C105	C	1.050384	-0.000088	0.287065
C106	C	1.550384	0.499912	0.787065
C107	C	1.052254	-0.000082	0.386362
C108	C	1.552254	0.499918	0.886362
H109	H	0.596802	-0.000078	0.272475
H110	H	1.096802	0.499922	0.772475
C111	C	1.225087	-0.605631	0.291984
C112	C	1.725087	-0.105631	0.791984
H113	H	1.257416	-0.561316	0.324362
H114	H	1.757416	-0.061316	0.824362
H115	H	1.266216	-0.644821	0.255392
H116	H	1.766216	-0.144821	0.755392
H117	H	1.188473	-0.644850	0.333085
H118	H	1.688473	-0.144850	0.833085
H119	H	0.903911	-0.408925	-0.029395
H120	H	1.403911	0.091075	0.470605
H121	H	0.516682	-0.000117	-0.025399
H122	H	1.016682	0.499883	0.474601
C123	C	0.942686	-0.243812	0.009457
C124	C	1.442686	0.256188	0.509457
H125	H	0.910348	-0.288130	-0.022911
H126	H	1.410348	0.211870	0.477089
H127	H	0.979291	-0.204588	-0.031639
H128	H	1.479291	0.295412	0.468361
H129	H	0.901549	-0.204626	0.046055
H130	H	1.401549	0.295374	0.546055
C131	C	0.624880	-0.000110	-0.046687
C132	C	1.124880	0.499890	0.453313
H133	H	0.672326	-0.000119	-0.094431
H134	H	1.172326	0.499881	0.405569
H135	H	0.588924	0.055565	-0.050771
H136	H	1.088924	0.555565	0.449229
H137	H	0.588925	-0.055797	-0.050754
H138	H	1.088925	0.444203	0.449246
C139	C	1.232402	-0.000125	-0.156836
C140	C	1.732402	0.499875	0.343164
H141	H	1.280145	-0.000120	-0.204283
H142	H	1.780145	0.499880	0.295717
H143	H	1.236473	-0.055803	-0.120876
H144	H	1.736473	0.444197	0.379124
H145	H	1.236483	0.055559	-0.120885
H146	H	1.736483	0.555559	0.379115
H147	H	0.766054	-0.000058	0.275675
H148	H	1.266054	0.499942	0.775675
H149	H	0.347419	-0.000128	-0.028593
H150	H	0.847419	0.499872	0.471407
H151	H	0.804443	-0.000093	-0.019958
H152	H	1.304443	0.499907	0.480042
H153	H	0.910047	-0.000063	-0.298024
H154	H	1.410047	0.499937	0.201976
C155	C	0.488608	-0.000085	0.293765
C156	C	0.988608	0.499915	0.793765
H157	H	0.441166	-0.000094	0.341513
H158	H	0.941166	0.499906	0.841513
H159	H	0.524565	0.055593	0.297833
H160	H	1.024565	0.555593	0.797833
H161	H	0.524563	-0.055769	0.297842
H162	H	1.024563	0.444231	0.797842
C163	C	0.942742	-0.756356	0.009389
C164	C	1.442742	-0.256356	0.509389
H165	H	0.950523	-0.823407	0.017166
H166	H	1.450523	-0.323407	0.517166
H167	H	0.959291	-0.739869	-0.051782
H168	H	1.459291	-0.239869	0.448218
H169	H	0.881557	-0.739901	0.025919
H170	H	1.381557	-0.239901	0.525919
H171	H	1.205673	-0.000111	-0.336396
H172	H	1.705673	0.499889	0.163604
H173	H	0.913240	-0.000074	-0.128756
H174	H	1.413240	0.499926	0.371244
C175	C	1.170756	-0.243833	0.237687
C176	C	1.670756	0.256167	0.737687
H177	H	1.203103	-0.288158	0.270040
H178	H	1.703103	0.211842	0.770040
H179	H	1.134147	-0.204636	0.278795
H180	H	1.634147	0.295364	0.778795
H181	H	1.211884	-0.204621	0.201096
H182	H	1.711884	0.295379	0.701096
H183	H	0.309033	-0.000103	0.267039
H184	H	0.809033	0.499897	0.767039
H185	H	1.209555	-0.408932	0.276480
H186	H	1.709555	0.091068	0.776480
C187	C	1.170804	-0.756380	0.237618
C188	C	1.670804	-0.256380	0.737618
H189	H	1.163040	-0.823430	0.229825
H190	H	1.663040	-0.323430	0.729825
H191	H	1.154249	-0.739921	0.298793
H192	H	1.654249	-0.239921	0.798793
H193	H	1.231986	-0.739898	0.221093
H194	H	1.731986	-0.239898	0.721093
H195	H	0.903950	-0.591253	-0.029413
H196	H	1.403950	-0.091253	0.470587
C197	C	1.226964	-0.000109	-0.444591
C198	C	1.726964	0.499891	0.055409
H199	H	1.274712	-0.000105	-0.492033
H200	H	1.774712	0.499895	0.007967
H201	H	1.231032	-0.055786	-0.408629
H202	H	1.731032	0.444214	0.091371
H203	H	1.231041	0.055576	-0.408641
H204	H	1.731041	0.555576	0.091359
H205	H	1.200238	-0.000100	-0.624165
H206	H	1.700238	0.499900	-0.124165
H207	H	0.904606	-0.000079	-0.585780
H208	H	1.404606	0.499921	-0.085780
C209	C	0.884776	-0.000065	-0.400162
C210	C	1.384776	0.499935	0.099838
H211	H	0.835476	-0.000068	-0.435006
H212	H	1.335476	0.499932	0.064994
H213	H	0.882082	0.055610	-0.363328
H214	H	1.382082	0.555610	0.136672
H215	H	0.882073	-0.055752	-0.363326
H216	H	1.382073	0.444248	0.136674
