data_functionalizedCrystal
_audit_creation_method	'MofGen! by Chris Wilmer'
_symmetry_space_group_name_H-M	'P1'
_symmetry_Int_Tables_number	1
_symmetry_cell_setting	triclinic
loop_
_symmetry_equiv_pos_as_xyz
  x,y,z
_cell_length_a	16.120530
_cell_length_b	18.050589
_cell_length_c	18.050582
_cell_angle_alpha	90.018205
_cell_angle_beta	92.911603
_cell_angle_gamma	87.123928
loop_
_atom_site_label
_atom_site_type_symbol
_atom_site_fract_x
_atom_site_fract_y
_atom_site_fract_z
Zn1	Zn	1.274469	-0.353358	0.477436
Zn2	Zn	1.274369	-0.477536	0.353251
Zn3	Zn	1.135065	-0.347063	0.346971
Zn4	Zn	1.135006	-0.471202	0.471112
O5	O	1.204727	-0.412290	0.412192
O6	O	1.391120	-0.375115	0.466238
O7	O	1.255872	-0.460246	0.248492
O8	O	1.153623	-0.243977	0.364295
O9	O	1.391047	-0.466349	0.374999
O10	O	1.256043	-0.248601	0.460148
O11	O	1.153526	-0.364388	0.243878
O12	O	1.018392	-0.358245	0.358163
O13	O	1.153524	-0.455552	0.575876
O14	O	1.018349	-0.449449	0.449369
O15	O	1.255986	-0.368973	0.580523
O16	O	1.255816	-0.580618	0.368867
O17	O	1.153427	-0.575964	0.455459
C18	C	0.988121	-0.402477	0.402399
C19	C	0.895456	-0.398297	0.398227
C20	C	0.725795	-0.390648	0.390616
C21	C	0.684499	-0.433986	0.433823
C22	C	0.590094	-0.429730	0.429588
C23	C	0.820209	-0.394903	0.394849
C24	C	1.204626	-0.605237	0.412175
C25	C	1.204660	-0.687785	0.412197
C26	C	1.149035	-0.884734	0.459270
C27	C	1.128719	-0.933249	0.390586
C28	C	1.204742	-0.838919	0.412210
C29	C	1.225099	-0.937487	0.480903
C30	C	1.204819	-0.984907	0.412229
C31	C	1.184385	-0.886344	0.343488
C32	C	1.280801	-0.890580	0.433853
C33	C	1.260513	-0.939074	0.365123
C34	C	1.204695	-0.754818	0.412200
C35	C	1.204866	-1.069006	0.412231
C36	C	1.422179	-0.422141	0.422025
C37	C	1.514844	-0.426339	0.426215
C38	C	1.204760	-0.412258	0.605899
C39	C	1.204774	-0.412245	0.688446
C40	C	1.204851	-0.218590	0.412227
C41	C	1.204904	-0.136046	0.412241
C42	C	1.204743	-0.412270	0.219241
C43	C	1.204890	-0.412081	0.136702
C44	C	1.149097	-0.459261	0.885372
C45	C	1.225159	-0.480855	0.938196
C46	C	1.204815	-0.412190	0.839578
C47	C	1.128795	-0.390577	0.933837
C48	C	1.204848	-0.412138	0.985565
C49	C	1.280916	-0.433821	0.891317
C50	C	1.184501	-0.343510	0.886952
C51	C	1.260615	-0.365080	0.939756
C52	C	1.204795	-0.412222	0.755479
C53	C	1.204877	-0.412107	1.069663
H54	H	0.720045	-0.474283	0.473995
O55	O	0.683527	-0.342516	0.342671
C56	C	0.740510	-0.303070	0.303308
H57	H	0.802627	-0.303276	0.336460
H58	H	0.715289	-0.243435	0.294368
H59	H	0.749694	-0.330601	0.247266
O60	O	1.092644	-0.856387	0.506585
C61	C	1.012579	-0.878031	0.483507
H62	H	1.011060	-0.891843	0.421838
H63	H	0.964986	-0.830744	0.493703
H64	H	0.996949	-0.929007	0.516319
H65	H	1.345238	-0.452145	0.872618
O66	O	1.316856	-0.967205	0.317654
C67	C	1.396712	-0.944474	0.339961
H68	H	1.390633	-0.891912	0.374702
H69	H	1.432730	-0.932868	0.288830
H70	H	1.431348	-0.990259	0.374387
O71	O	1.093031	-0.506918	0.857019
C72	C	1.114772	-0.579240	0.883195
H73	H	1.183927	-0.583770	0.900171
H74	H	1.100827	-0.620992	0.837397
H75	H	1.077142	-0.591441	0.933180
O76	O	1.052034	-0.955836	0.368854
C77	C	1.021127	-0.998481	0.425788
H78	H	1.075239	-1.022524	0.462843
H79	H	0.984844	-1.045595	0.400283
H80	H	0.978307	-0.961810	0.460274
O81	O	1.163765	-0.859566	0.274220
C82	C	1.163959	-0.781468	0.275049
H83	H	1.154633	-0.760585	0.333799
H84	H	1.111384	-0.757583	0.236178
H85	H	1.226015	-0.763085	0.255839
H86	H	1.167278	-0.285465	0.864455
H87	H	1.345070	-0.871709	0.452174
O88	O	1.245512	-0.964159	0.550249
C89	C	1.186561	-0.936390	0.599662
H90	H	1.154792	-0.882989	0.576193
H91	H	1.219199	-0.924504	0.655601
H92	H	1.138024	-0.979220	0.607151
H93	H	1.242360	-0.538915	0.960676
O94	O	1.317018	-0.317657	0.967962
C95	C	1.397046	-0.340675	0.946258
H96	H	1.398588	-0.402365	0.932541
H97	H	1.444723	-0.330355	0.993477
H98	H	1.412540	-0.307920	0.895207
H99	H	1.064493	-0.372319	0.952629
