data_functionalizedCrystal
_audit_creation_method	'MofGen! by Chris Wilmer'
_symmetry_space_group_name_H-M	'P1'
_symmetry_Int_Tables_number	1
_symmetry_cell_setting	triclinic
loop_
_symmetry_equiv_pos_as_xyz
  x,y,z
_cell_length_a	15.944499
_cell_length_b	10.654549
_cell_length_c	9.130313
_cell_angle_alpha	90.002014
_cell_angle_beta	90.006312
_cell_angle_gamma	83.981193
loop_
_atom_site_label
_atom_site_type_symbol
_atom_site_fract_x
_atom_site_fract_y
_atom_site_fract_z
O1	O	1.115486	0.161654	0.121884
O2	O	1.615486	0.661654	0.621884
O3	O	0.871046	0.181690	0.121867
O4	O	1.371046	0.681690	0.621867
O5	O	0.998886	-0.011142	0.121870
O6	O	1.498886	0.488858	0.621870
O7	O	0.987646	0.354486	0.121881
O8	O	1.487646	0.854486	0.621881
O9	O	0.998877	-0.011141	-0.121729
O10	O	1.498877	0.488859	0.378271
O11	O	0.871037	0.181690	-0.121731
O12	O	1.371037	0.681690	0.378269
O13	O	1.115476	0.161654	-0.121715
O14	O	1.615476	0.661654	0.378285
Cu15	Cu	0.993256	0.171672	-0.143966
Cu16	Cu	1.493256	0.671672	0.356034
Cu17	Cu	0.993267	0.171672	0.144118
Cu18	Cu	1.493267	0.671672	0.644118
O19	O	0.987636	0.354486	-0.121717
O20	O	1.487636	0.854486	0.378283
C21	C	0.839742	0.180870	0.000066
C22	C	1.339742	0.680870	0.500066
C23	C	0.746480	0.178411	0.000059
C24	C	1.246480	0.678411	0.500059
C25	C	0.455592	0.290441	0.000085
C26	C	0.955592	0.790441	0.500085
C27	C	0.516289	0.232205	0.120193
C28	C	1.016289	0.732205	0.620193
C29	C	0.410791	0.169476	0.000093
C30	C	0.910791	0.669476	0.500093
C31	C	0.516265	0.232172	-0.119977
C32	C	1.016265	0.732172	0.380023
C33	C	0.575726	0.173872	0.000074
C34	C	1.075726	0.673872	0.500074
C35	C	0.470260	0.111206	0.120300
C36	C	0.970260	0.611206	0.620300
C37	C	0.470230	0.111191	-0.119977
C38	C	0.970230	0.611191	0.380023
C39	C	0.530909	0.052866	0.000160
C40	C	1.030909	0.552866	0.500160
C41	C	0.315777	0.166947	0.000105
C42	C	0.815777	0.666947	0.500105
C43	C	0.670739	0.176392	0.000072
C44	C	1.170739	0.676392	0.500072
C45	C	0.998056	-0.057929	0.000072
C46	C	1.498056	0.442071	0.500072
C47	C	0.995587	-0.197339	0.000077
C48	C	1.495587	0.302661	0.500077
C49	C	1.146781	0.162474	0.000090
C50	C	1.646781	0.662474	0.500090
C51	C	1.240043	0.164934	0.000106
C52	C	1.740043	0.664934	0.500106
C53	C	1.068531	-0.408818	0.000092
C54	C	1.568531	0.091182	0.500092
C55	C	1.070858	-0.277828	0.000080
C56	C	1.570858	0.222172	0.500080
C57	C	0.917985	-0.247846	0.000069
C58	C	1.417985	0.252154	0.500069
C59	C	0.915660	-0.378834	0.000070
C60	C	1.415660	0.121166	0.500070
C61	C	0.988466	0.401273	0.000084
C62	C	1.488466	0.901273	0.500084
C63	C	0.990935	0.540683	0.000089
C64	C	1.490935	1.040683	0.500089
N65	N	0.993254	0.171672	-0.346588
N66	N	1.493254	0.671672	0.153412
C67	C	1.044640	0.247875	-0.423229
C68	C	1.544640	0.747875	0.076771
C69	C	1.044653	0.247867	-0.576565
C70	C	1.544653	0.747867	-0.076565
C71	C	0.941887	0.095451	-0.576608
C72	C	1.441887	0.595451	-0.076608
C73	C	0.941879	0.095453	-0.423274
C74	C	1.441879	0.595453	0.076726
N75	N	0.993276	0.171663	0.346741
N76	N	1.493276	0.671663	0.846741
H77	H	0.536687	0.283372	0.221731
H78	H	1.036687	0.783372	0.721731
H79	H	0.900059	0.033398	-0.639064
H80	H	1.400059	0.533398	-0.139064
H81	H	1.086473	0.309937	-0.360796
H82	H	1.586473	0.809937	0.139204
C83	C	0.442639	0.042134	-0.257155
C84	C	0.942639	0.542134	0.242845
H85	H	0.458218	0.085234	-0.342416
H86	H	0.958218	0.585234	0.157584
H87	H	0.469468	-0.041789	-0.258021
H88	H	0.969468	0.458211	0.241979
H89	H	0.383197	0.040383	-0.255676
H90	H	0.883197	0.540383	0.244324
C91	C	0.442883	0.042158	0.257632
C92	C	0.942883	0.542158	0.757632
H93	H	0.383384	0.041029	0.256828
H94	H	0.883384	0.541029	0.756828
H95	H	0.469345	-0.041981	0.257984
H96	H	0.969345	0.458019	0.757984
H97	H	0.459016	0.084854	0.342817
H98	H	0.959016	0.584854	0.842817
H99	H	0.563504	-0.047613	0.000220
H100	H	1.063504	0.452387	0.500220
C101	C	0.830303	-0.434393	0.000069
C102	C	1.330303	0.065607	0.500069
H103	H	0.839701	-0.523931	0.000057
H104	H	1.339701	-0.023931	0.500057
H105	H	0.799279	-0.406768	0.085014
H106	H	1.299279	0.093232	0.585014
H107	H	0.799276	-0.406770	-0.084893
H108	H	1.299276	0.093230	0.415107
H109	H	1.086498	0.309918	-0.638959
H110	H	1.586498	0.809918	-0.138959
C111	C	0.885349	0.011628	-0.338964
C112	C	1.385349	0.511628	0.161036
H113	H	0.854744	-0.033751	-0.406593
H114	H	1.354744	0.466249	0.093407
H115	H	0.919432	-0.046141	-0.279137
H116	H	1.419432	0.453859	0.220863
H117	H	0.846985	0.063076	-0.279162
H118	H	1.346985	0.563076	0.220838
H119	H	1.134044	-0.236719	0.000080
H120	H	1.634044	0.263281	0.500080
H121	H	0.422843	0.390830	0.000204
H122	H	0.922843	0.890830	0.500204
H123	H	1.129825	-0.474344	0.000107
H124	H	1.629825	0.025656	0.500107
C125	C	0.543773	0.301305	-0.257154
C126	C	1.043773	0.801305	0.242846
H127	H	0.517724	0.385691	-0.256996
H128	H	1.017724	0.885691	0.243004
H129	H	0.603319	0.301739	-0.256658
H130	H	1.103319	0.801739	0.243342
H131	H	0.527227	0.259148	-0.342441
H132	H	1.027227	0.759148	0.157559
H133	H	0.856699	-0.182301	0.000058
H134	H	1.356699	0.317699	0.500058
