data_functionalizedCrystal
_audit_creation_method	'MofGen! by Chris Wilmer'
_symmetry_space_group_name_H-M	'P1'
_symmetry_Int_Tables_number	1
_symmetry_cell_setting	triclinic
loop_
_symmetry_equiv_pos_as_xyz
  x,y,z
_cell_length_a	11.792254
_cell_length_b	11.792254
_cell_length_c	9.730223
_cell_angle_alpha	89.998472
_cell_angle_beta	89.999834
_cell_angle_gamma	84.198598
loop_
_atom_site_label
_atom_site_type_symbol
_atom_site_fract_x
_atom_site_fract_y
_atom_site_fract_z
O1	O	1.506901	0.155631	-0.114289
O2	O	1.176562	0.171648	-0.114292
O3	O	1.349740	-0.001530	-0.114281
O4	O	1.333723	0.328809	-0.114301
O5	O	1.349738	-0.001525	0.114299
O6	O	1.176560	0.171653	0.114287
O7	O	1.506899	0.155635	0.114291
Zn8	Zn	1.341729	0.163644	0.150581
Zn9	Zn	1.341732	0.163639	-0.150583
O10	O	1.333721	0.328813	0.114279
C11	C	1.134271	0.170642	-0.000003
C12	C	1.008257	0.167621	-0.000004
C13	C	1.348730	-0.043818	0.000008
C14	C	1.345710	-0.169832	0.000007
C15	C	0.905921	0.165168	-0.000009
C16	C	0.777534	0.162099	-0.000010
C17	C	1.343256	-0.272168	0.000002
C18	C	1.340188	-0.400555	-0.000010
C19	C	1.549190	0.156642	-0.000002
C20	C	1.675204	0.159662	-0.000010
C21	C	1.334731	0.371102	-0.000013
C22	C	1.337751	0.497115	-0.000021
N23	N	1.341736	0.163648	0.356117
N24	N	1.341734	0.163627	-0.356119
C25	C	1.418439	0.086991	0.428048
C26	C	1.418436	0.086977	0.571931
C27	C	1.265023	0.240287	0.571940
C28	C	1.265021	0.240295	0.428059
C29	C	1.507014	-0.001519	0.428045
C30	C	1.507011	-0.001533	0.571928
H31	H	1.202554	0.302705	0.369494
N32	N	1.616078	0.034810	0.368911
H33	H	1.598152	0.105128	0.310477
H34	H	1.668725	0.052298	0.446241
N35	N	1.182282	0.322950	0.649534
H36	H	1.193917	0.311312	0.751597
H37	H	1.195882	0.403563	0.624393
H38	H	1.487854	-0.088711	0.388996
H39	H	1.479642	-0.083906	0.616548
H40	H	1.594184	0.017695	0.610978
