data_functionalizedCrystal
_audit_creation_method	'MofGen! by Chris Wilmer'
_symmetry_space_group_name_H-M	'P1'
_symmetry_Int_Tables_number	1
_symmetry_cell_setting	triclinic
loop_
_symmetry_equiv_pos_as_xyz
  x,y,z
_cell_length_a	12.759401
_cell_length_b	21.395361
_cell_length_c	21.395355
_cell_angle_alpha	90.021511
_cell_angle_beta	89.978644
_cell_angle_gamma	89.969131
loop_
_atom_site_label
_atom_site_type_symbol
_atom_site_fract_x
_atom_site_fract_y
_atom_site_fract_z
Zn1	Zn	1.606168	0.249508	-0.354195
Zn2	Zn	1.606005	0.354268	-0.249412
Zn3	Zn	1.430461	0.249509	-0.249437
Zn4	Zn	1.430410	0.354252	-0.354158
O5	O	1.518261	0.301884	-0.301801
O6	O	1.753167	0.263412	-0.340300
O7	O	1.582672	0.340378	-0.161737
O8	O	1.453859	0.161831	-0.263360
O9	O	1.753047	0.340378	-0.263316
O10	O	1.582950	0.161831	-0.340325
O11	O	1.453701	0.263412	-0.161756
O12	O	1.283433	0.263397	-0.263324
O13	O	1.453771	0.340351	-0.441841
O14	O	1.283395	0.340351	-0.340262
O15	O	1.582900	0.263396	-0.441868
O16	O	1.582621	0.441944	-0.263281
O17	O	1.453613	0.441932	-0.340237
C18	C	1.245294	0.301873	-0.301792
C19	C	1.128517	0.301883	-0.301803
C20	C	1.518122	0.464672	-0.301766
C21	C	1.518159	0.534313	-0.301772
C22	C	1.518348	0.301872	-0.465224
C23	C	1.518385	0.301866	-0.534865
C24	C	1.073663	0.342018	-0.341798
C25	C	0.963938	0.342025	-0.341805
C26	C	0.963933	0.261763	-0.261816
C27	C	1.073655	0.261752	-0.261813
C28	C	1.128525	0.382148	-0.381789
C29	C	1.073670	0.422287	-0.421787
C30	C	0.963946	0.422295	-0.421793
C31	C	0.909076	0.382164	-0.381802
C32	C	1.792294	0.301897	-0.301809
C33	C	1.909071	0.301902	-0.301813
C34	C	1.518429	0.138461	-0.301849
C35	C	1.518500	0.068820	-0.301870
C36	C	1.585393	0.567012	-0.261742
C37	C	1.585442	0.632447	-0.261756
C38	C	1.518238	0.665182	-0.301793
C39	C	1.450999	0.632475	-0.341831
C40	C	1.450959	0.567041	-0.341820
C41	C	1.423640	0.768897	-0.306706
C42	C	1.423678	0.834330	-0.306713
C43	C	1.518360	0.867002	-0.301830
C44	C	1.613008	0.834234	-0.296928
C45	C	1.612969	0.768800	-0.296917
C46	C	1.518274	0.736134	-0.301810
C47	C	1.585653	0.970653	-0.261813
C48	C	1.585704	1.036090	-0.261831
C49	C	1.451251	1.036117	-0.341904
C50	C	1.451210	0.970682	-0.341888
C51	C	1.518410	0.937954	-0.301840
C52	C	1.585620	0.261794	-0.567593
C53	C	1.585618	0.261767	-0.633029
C54	C	1.518393	0.301824	-0.665734
C55	C	1.451146	0.341899	-0.632997
C56	C	1.451142	0.341920	-0.567563
C57	C	1.510050	0.358239	-0.769396
C58	C	1.510061	0.358219	-0.834829
C59	C	1.518400	0.301757	-0.867554
C60	C	1.526749	0.245315	-0.834838
C61	C	1.526745	0.245336	-0.769404
C62	C	1.518390	0.301805	-0.736686
C63	C	1.585637	0.261653	-0.971235
C64	C	1.585628	0.261625	-1.036672
C65	C	1.451161	0.341762	-1.036639
C66	C	1.451164	0.341784	-0.971204
C67	C	1.518408	0.301730	-0.938506
C68	C	1.518234	0.301852	-0.139013
C69	C	1.518401	0.301681	-0.069372
H70	H	1.217867	0.382148	-0.381786
F71	F	1.501198	0.418338	-0.734574
H72	H	0.919287	0.454972	-0.454366
H73	H	1.118352	0.454955	-0.454350
F74	F	0.792297	0.382170	-0.381816
F75	F	1.379733	1.070951	-0.384519
F76	F	1.379645	0.935880	-0.384492
H77	H	1.396282	0.659132	-0.374431
H78	H	1.396208	0.540418	-0.374419
H79	H	1.346609	0.861005	-0.310698
H80	H	1.640114	0.540367	-0.229133
H81	H	1.640377	0.228990	-1.063318
F82	F	1.657182	0.219163	-0.532798
H83	H	1.396407	0.374511	-0.659630
H84	H	1.640367	0.229132	-0.659681
F85	F	1.379606	0.384437	-0.936371
F86	F	1.535626	0.185268	-0.734588
F87	F	0.905533	0.219058	-0.219257
F88	F	1.132038	0.219037	-0.219246
H89	H	1.690108	0.860834	-0.292952
F90	F	1.535629	0.185220	-0.869661
H91	H	1.640196	0.659075	-0.229158
H92	H	1.396414	0.374370	-1.063267
F93	F	1.657198	0.219022	-0.936433
H94	H	1.690033	0.742121	-0.292927
F95	F	1.657171	0.935820	-0.219190
F96	F	1.657275	1.070890	-0.219227
F97	F	1.322859	0.734131	-0.311904
F98	F	1.501184	0.418290	-0.869642
F99	F	1.379578	0.384572	-0.532730
