data_functionalizedCrystal
_audit_creation_method	'MofGen! by Chris Wilmer'
_symmetry_space_group_name_H-M	'P1'
_symmetry_Int_Tables_number	1
_symmetry_cell_setting	triclinic
loop_
_symmetry_equiv_pos_as_xyz
  x,y,z
_cell_length_a	18.215407
_cell_length_b	29.839131
_cell_length_c	18.215399
_cell_angle_alpha	89.966717
_cell_angle_beta	89.983176
_cell_angle_gamma	90.041868
loop_
_atom_site_label
_atom_site_type_symbol
_atom_site_fract_x
_atom_site_fract_y
_atom_site_fract_z
Zn1	Zn	1.124966	-0.178842	-0.416101
Zn2	Zn	1.624966	0.321158	0.083899
Zn3	Zn	1.124845	-0.253974	-0.293028
Zn4	Zn	1.624845	0.246026	0.206972
Zn5	Zn	1.001905	-0.178860	-0.293048
Zn6	Zn	1.501905	0.321140	0.206952
Zn7	Zn	1.001828	-0.253946	-0.416053
Zn8	Zn	1.501828	0.246054	0.083947
O9	O	1.063386	-0.216406	-0.354558
O10	O	1.563386	0.283594	0.145442
O11	O	1.227934	-0.188813	-0.399787
O12	O	1.727934	0.311187	0.100213
O13	O	1.108518	-0.244030	-0.190047
O14	O	1.608518	0.255970	0.309953
O15	O	1.018311	-0.115990	-0.309400
O16	O	1.518311	0.384010	0.190600
O17	O	1.227845	-0.244012	-0.309366
O18	O	1.727845	0.255988	0.190634
O19	O	1.108724	-0.115977	-0.399806
O20	O	1.608724	0.384023	0.100194
O21	O	1.018194	-0.188843	-0.190061
O22	O	1.518194	0.311157	0.309939
O23	O	0.898910	-0.188816	-0.309354
O24	O	1.398910	0.311184	0.190646
O25	O	1.018182	-0.243964	-0.519044
O26	O	1.518182	0.256036	-0.019044
O27	O	0.898854	-0.243982	-0.399725
O28	O	1.398854	0.256018	0.100275
O29	O	1.108650	-0.188785	-0.519079
O30	O	1.608650	0.311215	-0.019079
O31	O	1.108444	-0.316838	-0.309320
O32	O	1.608444	0.183162	0.190680
O33	O	1.018065	-0.316817	-0.399705
O34	O	1.518065	0.183183	0.100295
C35	C	0.872180	-0.216398	-0.354537
C36	C	1.372180	0.283602	0.145463
C37	C	0.790381	-0.216405	-0.354545
C38	C	1.290381	0.283595	0.145455
C39	C	0.602177	-0.245175	-0.401542
C40	C	1.102177	0.254825	0.098458
C41	C	0.525318	-0.245177	-0.401551
C42	C	1.025318	0.254823	0.098449
C43	C	0.525347	-0.187644	-0.307589
C44	C	1.025347	0.312356	0.192411
C45	C	0.602204	-0.187641	-0.307584
C46	C	1.102204	0.312359	0.192416
C47	C	0.640617	-0.216409	-0.354560
C48	C	1.140617	0.283591	0.145440
C49	C	0.486901	-0.216414	-0.354574
C50	C	0.986901	0.283586	0.145426
C51	C	0.403567	-0.216415	-0.354583
C52	C	0.903567	0.283585	0.145417
C53	C	0.723956	-0.216407	-0.354551
C54	C	1.223956	0.283593	0.145449
C55	C	1.063253	-0.333128	-0.354521
C56	C	1.563253	0.166872	0.145479
C57	C	1.063263	-0.383063	-0.354530
C58	C	1.563263	0.116937	0.145470
C59	C	1.110532	-0.692704	-0.307563
C60	C	1.610532	-0.192704	0.192437
C61	C	1.110623	-0.880377	-0.307591
C62	C	1.610623	-0.380377	0.192409
O63	O	1.150707	-0.904640	-0.267629
O64	O	1.650707	-0.404640	0.232371
N65	N	1.063538	-0.903848	-0.354613
N66	N	1.563538	-0.403848	0.145387
C67	C	1.016431	-0.880397	-0.401635
C68	C	1.516431	-0.380397	0.098365
O69	O	0.976391	-0.904666	-0.441636
O70	O	1.476391	-0.404666	0.058364
C71	C	1.016345	-0.692725	-0.401609
C72	C	1.516345	-0.192725	0.098391
C73	C	1.063427	-0.669257	-0.354579
C74	C	1.563427	-0.169257	0.145421
C75	C	1.157611	-0.669236	-0.260536
C76	C	1.657611	-0.169236	0.239464
C77	C	1.157585	-0.622320	-0.260527
C78	C	1.657585	-0.122320	0.239473
C79	C	1.110480	-0.598873	-0.307544
C80	C	1.610480	-0.098873	0.192456
C81	C	1.063401	-0.622341	-0.354570
C82	C	1.563401	-0.122341	0.145430
C83	C	0.969242	-0.669275	-0.448634
C84	C	1.469242	-0.169275	0.051366
C85	C	0.969226	-0.622354	-0.448625
C86	C	1.469226	-0.122354	0.051375
C87	C	1.016308	-0.598886	-0.401595
C88	C	1.516308	-0.098886	0.098405
C89	C	1.016270	-0.551978	-0.401577
C90	C	1.516270	-0.051978	0.098423
N91	N	1.063354	-0.528508	-0.354554
N92	N	1.563354	-0.028508	0.145446
C93	C	1.110460	-0.551955	-0.307538
C94	C	1.610460	-0.051955	0.192462
C95	C	1.016479	-0.978928	-0.401644
C96	C	1.516479	-0.478928	0.098356
C97	C	1.016500	-1.025845	-0.401649
C98	C	1.516500	-0.525845	0.098351
C99	C	1.110692	-1.025822	-0.307606
C100	C	1.610692	-0.525822	0.192394
C101	C	1.110668	-0.978904	-0.307598
C102	C	1.610668	-0.478904	0.192402
C103	C	1.063564	-0.955457	-0.354622
C104	C	1.563564	-0.455457	0.145378
C105	C	1.110401	-0.453430	-0.307521
C106	C	1.610401	0.046570	0.192479
C107	C	1.110369	-0.406510	-0.307514
C108	C	1.610369	0.093490	0.192486
C109	C	1.016179	-0.406537	-0.401559
C110	C	1.516179	0.093463	0.098441
C111	C	1.016208	-0.453453	-0.401564
C112	C	1.516208	0.046547	0.098436
C113	C	1.063325	-0.476898	-0.354543
C114	C	1.563325	0.023102	0.145457
O115	O	0.976213	-0.527686	-0.441523
O116	O	1.476213	-0.027686	0.058477
O117	O	1.150506	-0.527678	-0.267554
O118	O	1.650506	-0.027678	0.232446
C119	C	1.110558	-0.739619	-0.307572
C120	C	1.610558	-0.239619	0.192428
C121	C	1.063479	-0.763088	-0.354598
C122	C	1.563479	-0.263088	0.145402
C123	C	1.016374	-0.739640	-0.401615
C124	C	1.516374	-0.239640	0.098385
C125	C	1.063500	-0.810005	-0.354604
C126	C	1.563500	-0.310005	0.145396
C127	C	1.110605	-0.833453	-0.307587
C128	C	1.610605	-0.333453	0.192413
C129	C	1.157689	-0.809982	-0.260565
C130	C	1.657689	-0.309982	0.239435
C131	C	1.157663	-0.763067	-0.260555
C132	C	1.657663	-0.263067	0.239445
C133	C	0.969290	-0.763111	-0.448637
C134	C	1.469290	-0.263111	0.051363
C135	C	0.969319	-0.810026	-0.448642
C136	C	1.469319	-0.310026	0.051358
C137	C	1.016424	-0.833474	-0.401625
C138	C	1.516424	-0.333474	0.098375
C139	C	1.255339	-0.216414	-0.354579
C140	C	1.755339	0.283586	0.145421
C141	C	1.337138	-0.216417	-0.354589
C142	C	1.837138	0.283583	0.145411
C143	C	1.063421	-0.216370	-0.546511
C144	C	1.563421	0.283630	-0.046511
C145	C	1.063435	-0.216354	-0.628310
C146	C	1.563435	0.283646	-0.128310
C147	C	1.063539	-0.099227	-0.354610
C148	C	1.563539	0.400773	0.145390
C149	C	1.063605	-0.049293	-0.354633
C150	C	1.563605	0.450707	0.145367
C151	C	1.016444	-0.187599	-0.816512
C152	C	1.516444	0.312401	-0.316512
C153	C	1.016456	-0.187590	-0.893371
C154	C	1.516456	0.312410	-0.393371
C155	C	1.110515	-0.245056	-0.893345
C156	C	1.610515	0.254944	-0.393345
C157	C	1.110498	-0.245067	-0.816488
C158	C	1.610498	0.254933	-0.316488
C159	C	1.063464	-0.216336	-0.778073
C160	C	1.563464	0.283664	-0.278073
C161	C	1.063493	-0.216316	-0.931789
C162	C	1.563493	0.283684	-0.431789
C163	C	1.063508	-0.216306	-1.015123
C164	C	1.563508	0.283694	-0.515123
C165	C	1.063448	-0.216346	-0.694734
C166	C	1.563448	0.283654	-0.194734
C167	C	1.063394	-0.216409	-0.163351
C168	C	1.563394	0.283591	0.336649
C169	C	1.063521	-0.216298	-0.081553
C170	C	1.563521	0.283702	0.418447
H171	H	0.633503	-0.164213	-0.269325
H172	H	1.133503	0.335787	0.230675
O173	O	1.156231	-0.273002	-0.930548
O174	O	1.656231	0.226998	-0.430548
C175	C	1.197742	-0.298360	-0.880137
C176	C	1.697742	0.201640	-0.380137
H177	H	1.167583	-0.299925	-0.825349
H178	H	1.667583	0.200075	-0.325349
H179	H	1.205556	-0.333753	-0.902326
H180	H	1.705556	0.166247	-0.402326
H181	H	1.253652	-0.281910	-0.871974
H182	H	1.753652	0.218090	-0.371974
H183	H	0.978145	-0.164205	-0.785237
H184	H	1.478145	0.335795	-0.285237
H185	H	0.494062	-0.164223	-0.269342
H186	H	0.994062	0.335777	0.230658
O187	O	0.970760	-0.159632	-0.930597
O188	O	1.470760	0.340368	-0.430597
C189	C	0.929231	-0.134287	-0.880207
C190	C	1.429231	0.365713	-0.380207
H191	H	0.959367	-0.132740	-0.825425
H192	H	1.459367	0.367260	-0.325425
H193	H	0.921431	-0.098887	-0.902433
H194	H	1.421431	0.401113	-0.402433
H195	H	0.873316	-0.150737	-0.872016
H196	H	1.373316	0.349263	-0.372016
O197	O	1.156071	-0.273031	-0.779110
O198	O	1.656071	0.226969	-0.279110
C199	C	1.114123	-0.302044	-0.734621
C200	C	1.614123	0.197956	-0.234621
H201	H	1.056164	-0.304814	-0.757780
H202	H	1.556164	0.195186	-0.257780
H203	H	1.140696	-0.336619	-0.733728
H204	H	1.640696	0.163381	-0.233728
H205	H	1.111590	-0.288161	-0.676381
H206	H	1.611590	0.211839	-0.176381
H207	H	1.148708	-0.387404	-0.269213
H208	H	1.648708	0.112596	0.230787
O209	O	1.156274	-0.476146	-0.261879
O210	O	1.656274	0.023854	0.238121
C211	C	1.229602	-0.464627	-0.278044
C212	C	1.729602	0.035373	0.221956
H213	H	1.231078	-0.430553	-0.306342
H214	H	1.731078	0.069447	0.193658
H215	H	1.262633	-0.463011	-0.224961
H216	H	1.762633	0.036989	0.275039
H217	H	1.254391	-0.491003	-0.315898
H218	H	1.754391	0.008997	0.184102
O219	O	0.639459	-0.273068	-0.447283
O220	O	1.139459	0.226932	0.052717
C221	C	0.620700	-0.263310	-0.520659
C222	C	1.120700	0.236690	-0.020659
H223	H	0.599613	-0.227423	-0.524477
H224	H	1.099613	0.272577	-0.024477
H225	H	0.671253	-0.267203	-0.557003
H226	H	1.171253	0.232797	-0.057003
H227	H	0.576068	-0.287411	-0.539829
H228	H	1.076068	0.212589	-0.039829
O229	O	0.487945	-0.273057	-0.447267
O230	O	0.987945	0.226943	0.052733
C231	C	0.443521	-0.247518	-0.494869
C232	C	0.943521	0.252482	0.005131
H233	H	0.466724	-0.212138	-0.499518
H234	H	0.966724	0.287862	0.000482
H235	H	0.442654	-0.263810	-0.551456
H236	H	0.942654	0.236190	-0.051456
H237	H	0.385265	-0.245956	-0.472126
H238	H	0.885265	0.254044	0.027874
O239	O	0.923434	-0.692086	-0.494220
O240	O	1.423434	-0.192086	0.005780
C241	C	0.875942	-0.719284	-0.452301
C242	C	1.375942	-0.219284	0.047699
H243	H	0.871415	-0.705178	-0.394329
H244	H	1.371415	-0.205178	0.105671
H245	H	0.819296	-0.719836	-0.478878
H246	H	1.319296	-0.219836	0.021122
H247	H	0.898712	-0.754830	-0.449798
H248	H	1.398712	-0.254830	0.050202
O249	O	1.203398	-0.599596	-0.214826
O250	O	1.703398	-0.099596	0.285174
C251	C	1.244964	-0.630360	-0.173325
C252	C	1.744964	-0.130360	0.326675
H253	H	1.247495	-0.663790	-0.203480
H254	H	1.747495	-0.163790	0.296520
H255	H	1.302951	-0.616778	-0.165532
H256	H	1.802951	-0.116778	0.334468
H257	H	1.218058	-0.635390	-0.117405
H258	H	1.718058	-0.135390	0.382595
O259	O	1.203493	-0.692014	-0.214988
O260	O	1.703493	-0.192014	0.285012
C261	C	1.251006	-0.719096	-0.256958
C262	C	1.751006	-0.219096	0.243042
H263	H	1.255444	-0.704938	-0.314932
H264	H	1.755444	-0.204938	0.185068
H265	H	1.307680	-0.719570	-0.230437
H266	H	1.807680	-0.219570	0.269563
H267	H	1.228316	-0.754680	-0.259444
H268	H	1.728316	-0.254680	0.240556
O269	O	0.923456	-0.740407	-0.494330
O270	O	1.423456	-0.240407	0.005670
C271	C	0.881922	-0.771189	-0.535843
C272	C	1.381922	-0.271189	-0.035843
H273	H	0.879423	-0.804647	-0.505699
H274	H	1.379423	-0.304647	-0.005699
H275	H	0.823921	-0.757673	-0.543631
H276	H	1.323921	-0.257673	-0.043631
H277	H	0.908833	-0.776137	-0.591764
H278	H	1.408833	-0.276137	-0.091764
O279	O	1.156475	-0.956178	-0.261892
O280	O	1.656475	-0.456178	0.238108
C281	C	1.198035	-0.986940	-0.220383
C282	C	1.698035	-0.486940	0.279617
H283	H	1.200575	-1.020370	-0.250536
H284	H	1.700575	-0.520370	0.249464
H285	H	1.256020	-0.973356	-0.212581
H286	H	1.756020	-0.473356	0.287419
H287	H	1.171120	-0.991969	-0.164467
H288	H	1.671120	-0.491969	0.335533
H289	H	1.149047	-1.044921	-0.269324
H290	H	1.649047	-0.544921	0.230676
H291	H	0.978120	-0.959841	-0.439938
H292	H	1.478120	-0.459841	0.060062
O293	O	0.970735	-1.048570	-0.447398
O294	O	1.470735	-0.548570	0.052602
C295	C	0.929146	-1.017808	-0.488880
C296	C	1.429146	-0.517808	0.011120
H297	H	0.959277	-0.984345	-0.491445
H298	H	1.459277	-0.484345	0.008555
H299	H	0.921265	-1.031342	-0.546860
H300	H	1.421265	-0.531342	-0.046860
H301	H	0.873268	-1.012863	-0.461878
H302	H	1.373268	-0.512863	0.038122
H303	H	0.977872	-0.472561	-0.439862
H304	H	1.477872	0.027439	0.060138
O305	O	0.923400	-0.599648	-0.494331
O306	O	1.423400	-0.099648	0.005669
C307	C	0.881869	-0.630427	-0.535853
C308	C	1.381869	-0.130427	-0.035853
H309	H	0.879355	-0.663884	-0.505709
H310	H	1.379355	-0.163884	-0.005709
H311	H	0.823874	-0.616906	-0.543657
H312	H	1.323874	-0.116906	-0.043657
H313	H	0.908794	-0.635378	-0.591767
H314	H	1.408794	-0.135378	-0.091767
O315	O	0.970532	-0.383734	-0.447309
O316	O	1.470532	0.116266	0.052691
C317	C	1.012402	-0.356541	-0.494852
C318	C	1.512402	0.143459	0.005148
H319	H	1.070365	-0.370648	-0.499448
H320	H	1.570365	0.129352	0.000552
H321	H	0.985758	-0.355995	-0.551467
H322	H	1.485758	0.144005	-0.051467
H323	H	1.014941	-0.320993	-0.472087
H324	H	1.514941	0.179007	0.027913
O325	O	1.203472	-0.740343	-0.214850
O326	O	1.703472	-0.240343	0.285150
C327	C	1.245035	-0.771107	-0.173347
C328	C	1.745035	-0.271107	0.326653
H329	H	1.247572	-0.804535	-0.203504
H330	H	1.747572	-0.304535	0.296496
H331	H	1.303020	-0.757523	-0.165546
H332	H	1.803020	-0.257523	0.334454
H333	H	1.218123	-0.776138	-0.117430
H334	H	1.718123	-0.276138	0.382570
O335	O	1.203544	-0.832778	-0.215008
O336	O	1.703544	-0.332778	0.284992
C337	C	1.251043	-0.859869	-0.256979
C338	C	1.751043	-0.359869	0.243021
H339	H	1.255517	-0.845698	-0.314942
H340	H	1.755517	-0.345698	0.185058
H341	H	1.307707	-0.860371	-0.230438
H342	H	1.807707	-0.360371	0.269562
H343	H	1.228316	-0.895443	-0.259497
H344	H	1.728316	-0.395443	0.240503
H345	H	0.930972	-0.829130	-0.486939
H346	H	1.430972	-0.329130	0.013061
