data_functionalizedCrystal
_audit_creation_method	'MofGen! by Chris Wilmer'
_symmetry_space_group_name_H-M	'P1'
_symmetry_Int_Tables_number	1
_symmetry_cell_setting	triclinic
loop_
_symmetry_equiv_pos_as_xyz
  x,y,z
_cell_length_a	10.654550
_cell_length_b	23.532407
_cell_length_c	9.730223
_cell_angle_alpha	89.990960
_cell_angle_beta	89.999957
_cell_angle_gamma	83.666804
loop_
_atom_site_label
_atom_site_type_symbol
_atom_site_fract_x
_atom_site_fract_y
_atom_site_fract_z
O1	O	1.665305	0.079985	-0.114203
O2	O	1.299585	0.087605	-0.114230
O3	O	1.493473	0.000935	-0.114191
O4	O	1.471417	0.166655	-0.114242
O5	O	1.493461	0.000933	0.114389
O6	O	1.299573	0.087603	0.114350
O7	O	1.665293	0.079982	0.114377
Zn8	Zn	1.482431	0.083792	0.150655
Zn9	Zn	1.482447	0.083795	-0.150508
O10	O	1.471404	0.166652	0.114337
C11	C	1.252799	0.087044	0.000057
C12	C	1.113408	0.085370	0.000048
C13	C	1.032306	0.136400	0.000036
C14	C	0.901335	0.134824	0.000060
C15	C	0.932582	0.031183	0.000103
C16	C	1.063550	0.032760	0.000089
C17	C	1.492905	-0.020286	0.000103
C18	C	1.491217	-0.083514	0.000113
C19	C	1.595364	-0.481938	0.000046
C20	C	1.593795	-0.541349	0.000035
O21	O	1.690341	-0.577464	-0.000009
N22	N	1.478529	-0.564726	0.000028
C23	C	1.364824	-0.528689	0.000017
O24	O	1.266636	-0.554029	0.000008
C25	C	1.366394	-0.469280	0.000018
C26	C	1.481668	-0.445906	0.000039
C27	C	1.710629	-0.458564	0.000066
C28	C	1.712197	-0.399158	0.000079
C29	C	1.598500	-0.363126	0.000072
C30	C	1.483236	-0.386500	0.000052
C31	C	1.252690	-0.433244	-0.000003
C32	C	1.254270	-0.373831	-0.000003
C33	C	1.369544	-0.350458	0.000018
C34	C	1.371107	-0.291061	0.000058
N35	N	1.486374	-0.267684	0.000066
C36	C	1.600070	-0.303716	0.000073
C37	C	1.361535	-0.653453	0.000013
C38	C	1.359964	-0.712861	0.000022
C39	C	1.588936	-0.725517	0.000038
C40	C	1.590506	-0.666108	0.000038
C41	C	1.476802	-0.630076	0.000020
C42	C	1.603355	-0.178958	0.000101
C43	C	1.604913	-0.119546	0.000120
C44	C	1.375942	-0.106896	0.000097
C45	C	1.374383	-0.166303	0.000086
C46	C	1.488100	-0.202333	0.000083
O47	O	1.274613	-0.254911	0.000096
O48	O	1.698241	-0.278369	0.000063
C49	C	1.712079	0.080543	0.000087
C50	C	1.851469	0.082217	0.000087
C51	C	1.471972	0.187873	0.000041
C52	C	1.473661	0.251101	0.000022
N53	N	1.482429	0.083790	0.356192
N54	N	1.482459	0.083793	-0.356045
C55	C	1.568311	0.045429	0.428135
C56	C	1.568324	0.045429	0.572018
C57	C	1.396567	0.122156	0.572002
C58	C	1.396550	0.122153	0.428121
H59	H	1.695954	-0.208288	0.000094
O60	O	1.313172	0.159367	0.358014
C61	C	1.331595	0.151146	0.215598
H62	H	1.379093	0.106066	0.195971
H63	H	1.236418	0.157079	0.160921
H64	H	1.394167	0.183642	0.174742
H65	H	0.835306	0.176378	0.000053
O66	O	1.821000	-0.493620	0.000257
C67	C	1.826960	-0.528359	0.118661
H68	H	1.727325	-0.531775	0.158114
H69	H	1.874331	-0.572810	0.092046
H70	H	1.884041	-0.508585	0.201565
H71	H	1.072896	0.179239	0.000013
O72	O	1.313279	0.159403	0.642090
C73	C	1.331689	0.151173	0.784511
H74	H	1.431793	0.130310	0.804157
H75	H	1.317183	0.194243	0.839168
H76	H	1.260981	0.122312	0.825371
O77	O	1.651795	0.008228	0.358169
C78	C	1.728857	0.039028	0.274844
H79	H	1.730500	0.083945	0.318175
H80	H	1.828930	0.016186	0.273153
H81	H	1.689456	0.041857	0.165826
H82	H	1.638255	0.014191	0.630591
O83	O	0.883937	-0.019871	0.000070
C84	C	0.750949	-0.010322	0.000111
H85	H	0.719632	0.033998	-0.043178
H86	H	0.711148	-0.044015	-0.066235
H87	H	0.714531	-0.013226	0.109777
H88	H	1.129588	-0.008797	0.000102
O89	O	1.716928	-0.096869	-0.000109
C90	C	1.786206	-0.115239	-0.118474
H91	H	1.718789	-0.127857	-0.201224
H92	H	1.839175	-0.079038	-0.158201
H93	H	1.856673	-0.153674	-0.091712
O94	O	1.824285	-0.376551	0.000027
C95	C	1.924286	-0.421103	0.000063
H96	H	1.889588	-0.461589	-0.043215
H97	H	2.004816	-0.408366	-0.066296
H98	H	1.959316	-0.429378	0.109725
H99	H	1.684372	-0.647081	0.000055
O100	O	1.699269	-0.760606	-0.000033
C101	C	1.673152	-0.818053	-0.000013
H102	H	1.574544	-0.820716	-0.043285
H103	H	1.745660	-0.844670	-0.066384
H104	H	1.678134	-0.835224	0.109644
O105	O	1.247954	-0.735535	-0.000228
C106	C	1.178689	-0.717141	-0.118597
H107	H	1.246115	-0.704508	-0.201331
H108	H	1.125717	-0.753332	-0.158347
H109	H	1.108225	-0.678708	-0.091830
H110	H	1.268937	-0.624119	0.000010
H111	H	1.158822	-0.452264	-0.000029
H112	H	1.161675	-0.344497	-0.000020
O113	O	1.262298	-0.188917	0.000009
C114	C	1.162285	-0.144372	0.000046
H115	H	1.196975	-0.103872	-0.043200
H116	H	1.081770	-0.157099	-0.066341
H117	H	1.127236	-0.136123	0.109704
O118	O	1.265617	-0.071807	0.000028
C119	C	1.291735	-0.014360	0.000071
H120	H	1.390347	-0.011689	-0.043184
H121	H	1.219233	0.012269	-0.066305
H122	H	1.286742	0.002791	0.109733
