data_functionalizedCrystal
_audit_creation_method	'MofGen! by Chris Wilmer'
_symmetry_space_group_name_H-M	'P1'
_symmetry_Int_Tables_number	1
_symmetry_cell_setting	triclinic
loop_
_symmetry_equiv_pos_as_xyz
  x,y,z
_cell_length_a	14.971486
_cell_length_b	17.038272
_cell_length_c	13.448316
_cell_angle_alpha	89.993314
_cell_angle_beta	89.998199
_cell_angle_gamma	87.362843
loop_
_atom_site_label
_atom_site_type_symbol
_atom_site_fract_x
_atom_site_fract_y
_atom_site_fract_z
O1	O	1.194577	0.101898	-0.082578
O2	O	0.935090	0.114100	-0.082605
O3	O	1.063291	-0.005818	-0.082584
O4	O	1.066375	0.221816	-0.082599
O5	O	1.063273	-0.005826	0.082800
O6	O	0.935072	0.114093	0.082779
O7	O	1.194559	0.101890	0.082806
Cu8	Cu	1.064814	0.107991	0.097893
Cu9	Cu	1.064835	0.107999	-0.097692
O10	O	1.066358	0.221809	0.082785
C11	C	0.901716	0.113551	0.000083
C12	C	0.802296	0.111915	0.000073
C13	C	0.750345	0.182364	0.000070
C14	C	0.656930	0.180823	0.000085
C15	C	0.615468	0.108832	0.000096
C16	C	0.667426	0.038378	0.000102
C17	C	0.760839	0.039920	0.000095
C18	C	0.472723	0.035169	0.000116
C19	C	0.379303	0.033626	0.000122
C20	C	0.368815	0.176072	0.000107
C21	C	0.462228	0.177614	0.000099
C22	C	0.514179	0.107159	0.000103
C23	C	1.060477	-0.034954	0.000108
C24	C	1.052107	-0.121756	0.000107
C25	C	1.128951	-0.171781	0.000116
C26	C	1.121081	-0.253341	0.000105
C27	C	1.036367	-0.284874	0.000093
C28	C	0.959518	-0.234843	0.000081
C29	C	0.967388	-0.153285	0.000084
C30	C	1.008563	-0.530664	0.000077
C31	C	1.000698	-0.612229	0.000077
C32	C	1.162262	-0.630721	0.000099
C33	C	1.170125	-0.549161	0.000108
C34	C	1.093276	-0.499137	0.000091
C35	C	1.028321	-0.368241	0.000086
C36	C	1.101323	-0.415771	0.000091
C37	C	1.227933	0.102440	0.000115
C38	C	1.327353	0.104075	0.000119
C39	C	1.069172	0.250944	0.000091
C40	C	1.077542	0.337746	0.000086
N41	N	1.064806	0.107984	0.235458
N42	N	1.064850	0.108000	-0.235257
C43	C	1.121593	0.054906	0.287507
C44	C	1.121599	0.054905	0.391611
C45	C	1.064821	0.107987	0.443662
C46	C	1.008026	0.161068	0.391605
C47	C	1.008017	0.161064	0.287504
C48	C	1.008052	0.161073	0.608585
C49	C	1.008062	0.161078	0.712694
C50	C	1.121634	0.054914	0.712692
C51	C	1.121624	0.054911	0.608591
C52	C	1.064831	0.107992	0.556541
H53	H	0.515019	-0.022203	0.000121
H54	H	1.170296	-0.390093	0.000079
Br55	Br	1.243926	-0.128994	0.000147
Br56	Br	0.931002	0.233120	0.783328
Br57	Br	0.518498	0.275316	0.000069
Br58	Br	0.930938	0.233097	0.216864
Br59	Br	0.930969	0.233110	0.537949
Br60	Br	0.831345	-0.055693	0.000108
Br61	Br	1.285099	-0.506371	0.000093
H62	H	0.345548	-0.024995	0.000133
H63	H	1.183656	-0.294068	0.000115
Br64	Br	1.266552	-0.698614	0.000122
Br65	Br	0.885721	-0.655023	0.000070
Br66	Br	0.913355	-0.411043	0.000060
H67	H	0.633660	-0.020239	0.000126
Br68	Br	0.806606	0.280071	0.000045
Br69	Br	0.844547	-0.277637	0.000048
Br70	Br	1.198662	-0.017132	0.216877
Br71	Br	1.198666	-0.017133	0.462253
H72	H	0.904813	-0.112555	0.000077
H73	H	1.167876	0.011694	0.755077
Br74	Br	0.586429	0.276436	0.000077
H75	H	1.167862	0.011692	0.566210
Br76	Br	0.930961	0.233104	0.462242
H77	H	0.945986	-0.489944	0.000063
H78	H	0.326511	0.233438	0.000107
