data_functionalizedCrystal
_audit_creation_method	'MofGen! by Chris Wilmer'
_symmetry_space_group_name_H-M	'P1'
_symmetry_Int_Tables_number	1
_symmetry_cell_setting	triclinic
loop_
_symmetry_equiv_pos_as_xyz
  x,y,z
_cell_length_a	19.805407
_cell_length_b	19.077068
_cell_length_c	19.077237
_cell_angle_alpha	85.344389
_cell_angle_beta	92.313575
_cell_angle_gamma	92.327086
loop_
_atom_site_label
_atom_site_type_symbol
_atom_site_fract_x
_atom_site_fract_y
_atom_site_fract_z
Zn1	Zn	1.039064	-0.296669	0.409869
Zn2	Zn	1.539064	0.203331	0.909869
Zn3	Zn	1.030244	-0.409826	0.296714
Zn4	Zn	1.530244	0.090174	0.796714
Zn5	Zn	0.921518	-0.291957	0.291997
Zn6	Zn	1.421518	0.208043	0.791997
Zn7	Zn	0.921467	-0.414518	0.414556
Zn8	Zn	1.421467	0.085482	0.914556
O9	O	0.978073	-0.353242	0.353284
O10	O	1.478073	0.146758	0.853284
O11	O	1.132610	-0.311687	0.394872
O12	O	1.632610	0.188313	0.894872
O13	O	1.012151	-0.390255	0.197441
O14	O	1.512151	0.109745	0.697441
O15	O	0.940823	-0.193933	0.303698
O16	O	1.440823	0.306067	0.803698
O17	O	1.126130	-0.394823	0.311737
O18	O	1.626130	0.105177	0.811737
O19	O	1.027183	-0.197394	0.390298
O20	O	1.527183	0.302606	0.890298
O21	O	0.932271	-0.303657	0.193975
O22	O	1.432271	0.196343	0.693975
O23	O	0.826794	-0.308207	0.308242
O24	O	1.326794	0.191793	0.808242
O25	O	0.940736	-0.402821	0.512581
O26	O	1.440736	0.097179	1.012581
O27	O	0.826757	-0.398252	0.398285
O28	O	1.326757	0.101748	0.898285
O29	O	1.027134	-0.316237	0.509138
O30	O	1.527134	0.183763	1.009138
O31	O	1.012102	-0.509098	0.316281
O32	O	1.512102	-0.009098	0.816281
O33	O	0.932184	-0.512545	0.402859
O34	O	1.432184	-0.012545	0.902859
C35	C	0.802217	-0.353228	0.353261
C36	C	1.302217	0.146772	0.853261
C37	C	0.726985	-0.353240	0.353268
C38	C	1.226985	0.146760	0.853268
C39	C	0.691633	-0.400191	0.400083
C40	C	1.191633	0.099809	0.900083
C41	C	0.620945	-0.400193	0.400093
C42	C	1.120945	0.099807	0.900093
C43	C	0.585609	-0.353246	0.353284
C44	C	1.085609	0.146754	0.853284
C45	C	0.620966	-0.306289	0.306466
C46	C	1.120966	0.193711	0.806466
C47	C	0.691653	-0.306285	0.306460
C48	C	1.191653	0.193715	0.806460
C49	C	0.335893	-0.306306	0.306490
C50	C	0.835893	0.193694	0.806490
C51	C	0.265200	-0.306315	0.306499
C52	C	0.765200	0.193685	0.806499
C53	C	0.265185	-0.400214	0.400123
C54	C	0.765185	0.099786	0.900123
C55	C	0.335872	-0.400209	0.400117
C56	C	0.835872	0.099791	0.900117
C57	C	0.371222	-0.353250	0.353303
C58	C	0.871222	0.146750	0.853303
C59	C	0.447871	-0.353248	0.353293
C60	C	0.947871	0.146752	0.853293
C61	C	0.508962	-0.353251	0.353289
C62	C	1.008962	0.146749	0.853289
C63	C	0.971199	-0.536401	0.360605
C64	C	1.471199	-0.036401	0.860605
C65	C	0.968321	-0.614757	0.363761
C66	C	1.468321	-0.114757	0.863761
C67	C	1.008613	-0.649753	0.320205
C68	C	1.508613	-0.149753	0.820205
C69	C	1.005910	-0.723377	0.323177
C70	C	1.505910	-0.223377	0.823177
C71	C	0.962912	-0.762005	0.369703
C72	C	1.462912	-0.262005	0.869703
C73	C	0.922619	-0.727005	0.413264
C74	C	1.422619	-0.227005	0.913264
C75	C	0.925325	-0.653382	0.410295
C76	C	1.425325	-0.153382	0.910295
C77	C	0.950355	-0.982391	0.383416
C78	C	1.450355	-0.482391	0.883416
C79	C	0.947650	-1.056019	0.386380
C80	C	1.447650	-0.556019	0.886380
C81	C	1.030943	-1.052386	0.296294
C82	C	1.530943	-0.552386	0.796294
C83	C	1.033643	-0.978762	0.293326
C84	C	1.533643	-0.478762	0.793326
C85	C	0.993352	-0.943768	0.336889
C86	C	1.493352	-0.443768	0.836889
N87	N	0.960147	-0.837262	0.372740
N88	N	1.460147	-0.337262	0.872740
N89	N	0.996121	-0.868513	0.333855
N90	N	1.496121	-0.368513	0.833855
C91	C	1.154616	-0.353257	0.353308
C92	C	1.654616	0.146743	0.853308
C93	C	1.229848	-0.353264	0.353318
C94	C	1.729848	0.146736	0.853318
C95	C	0.984913	-0.360578	0.537153
C96	C	1.484913	0.139422	1.037153
C97	C	0.987828	-0.363704	0.615507
C98	C	1.487828	0.136296	1.115507
C99	C	0.984993	-0.169370	0.345949
C100	C	1.484993	0.330630	0.845949
C101	C	0.987942	-0.091014	0.342824
C102	C	1.487942	0.408986	0.842824
C103	C	0.971300	-0.345885	0.170128
C104	C	1.471300	0.154115	0.670128
C105	C	0.968524	-0.342560	0.091766
C106	C	1.468524	0.157440	0.591766
C107	C	1.008738	-0.386176	1.056753
C108	C	1.508738	0.113824	1.556753
C109	C	1.005989	-0.383234	0.983131
C110	C	1.505989	0.116766	1.483131
C111	C	0.963029	-0.336673	0.944523
C112	C	1.463029	0.163327	1.444523
C113	C	0.922811	-0.293056	0.979541
C114	C	1.422811	0.206944	1.479541
C115	C	0.925556	-0.296002	1.053162
C116	C	1.425556	0.203998	1.553162
C117	C	0.950355	-0.323032	0.724147
C118	C	1.450355	0.176968	1.224147
C119	C	0.947614	-0.320088	0.650521
C120	C	1.447614	0.179912	1.150521
C121	C	1.030792	-0.410268	0.654115
C122	C	1.530792	0.089732	1.154115
C123	C	1.033537	-0.413206	0.727737
C124	C	1.533537	0.086794	1.227737
C125	C	0.993316	-0.369592	0.762749
C126	C	1.493316	0.130408	1.262749
N127	N	0.960220	-0.333664	0.869269
N128	N	1.460220	0.166336	1.369269
N129	N	0.996122	-0.372605	0.838002
N130	N	1.496122	0.127395	1.338002
H131	H	0.364666	-0.268074	0.268366
H132	H	0.864666	0.231926	0.768366
H133	H	1.068519	-0.451122	0.759167
H134	H	1.568519	0.048878	1.259167
F135	F	1.054374	-0.608648	0.270681
F136	F	1.554374	-0.108648	0.770681
H137	H	0.720399	-0.438423	0.438199
H138	H	1.220399	0.061577	0.938199
H139	H	0.887829	-0.255148	0.948101
H140	H	1.387829	0.244852	1.448101
F141	F	0.882443	-0.616137	0.456655
F142	F	1.382443	-0.116137	0.956655
H143	H	0.917547	-0.953904	0.418886
H144	H	1.417547	-0.453904	0.918886
F145	F	1.079415	-0.937656	0.243814
F146	F	1.579415	-0.437656	0.743814
F147	F	0.729276	-0.256311	0.256635
F148	F	1.229276	0.243689	0.756635
F149	F	0.373475	-0.450179	0.449935
F150	F	0.873475	0.049821	0.949935
F151	F	0.227557	-0.450191	0.449949
F152	F	0.727557	0.049809	0.949949
F153	F	0.882758	-0.249577	1.090426
F154	F	1.382758	0.250423	1.590426
H155	H	0.887611	-0.758462	0.451149
H156	H	1.387611	-0.258462	0.951149
F157	F	0.227595	-0.256344	0.256676
F158	F	0.727595	0.243656	0.756676
H159	H	0.592190	-0.268061	0.268356
H160	H	1.092190	0.231939	0.768356
F161	F	1.054466	-0.435729	1.097835
F162	F	1.554466	0.064271	1.597835
F163	F	1.073594	-0.456683	0.616847
F164	F	1.573594	0.043317	1.116847
F165	F	1.048792	-0.429655	0.945870
F166	F	1.548792	0.070345	1.445870
F167	F	1.048797	-0.760619	0.276820
F168	F	1.548797	-0.260619	0.776820
H169	H	0.592165	-0.438426	0.438214
H170	H	1.092165	0.061574	0.938214
H171	H	1.063746	-1.080886	0.260828
H172	H	1.563746	-0.580886	0.760828
H173	H	0.912644	-1.087468	0.424279
H174	H	1.412644	-0.587468	0.924279
H175	H	0.912633	-0.282168	0.619088
H176	H	1.412633	0.217832	1.119088
F177	F	0.907523	-0.276638	0.761401
F178	F	1.407523	0.223362	1.261401
