data_functionalizedCrystal
_audit_creation_method	'MofGen! by Chris Wilmer'
_symmetry_space_group_name_H-M	'P1'
_symmetry_Int_Tables_number	1
_symmetry_cell_setting	triclinic
loop_
_symmetry_equiv_pos_as_xyz
  x,y,z
_cell_length_a	14.908795
_cell_length_b	14.908178
_cell_length_c	12.827885
_cell_angle_alpha	86.668641
_cell_angle_beta	86.678625
_cell_angle_gamma	96.402092
loop_
_atom_site_label
_atom_site_type_symbol
_atom_site_fract_x
_atom_site_fract_y
_atom_site_fract_z
Zn1	Zn	1.363090	-0.280595	-0.663356
Zn2	Zn	1.354254	-0.432001	-0.477887
Zn3	Zn	1.211711	-0.289362	-0.477904
Zn4	Zn	1.202962	-0.440652	-0.641875
O5	O	1.283004	-0.360653	-0.565255
O6	O	1.488586	-0.293389	-0.647736
O7	O	1.335309	-0.413128	-0.331647
O8	O	1.239151	-0.161520	-0.511501
O9	O	1.482095	-0.404627	-0.511473
O10	O	1.350368	-0.155079	-0.647752
O11	O	1.230584	-0.308332	-0.331660
O12	O	1.083882	-0.316721	-0.490672
O13	O	1.224239	-0.419372	-0.790966
O14	O	1.077454	-0.427873	-0.611141
O15	O	1.341885	-0.301778	-0.806748
O16	O	1.326825	-0.559828	-0.490643
O17	O	1.215672	-0.566184	-0.611125
C18	C	1.047824	-0.374188	-0.548578
C19	C	0.947211	-0.380000	-0.541466
C20	C	0.802030	-0.446011	-0.460402
C21	C	0.896564	-0.440554	-0.467083
C22	C	0.903318	-0.324898	-0.609171
C23	C	0.808784	-0.330356	-0.602490
C24	C	0.758143	-0.390915	-0.528104
C25	C	0.663607	-0.396377	-0.521429
C26	C	0.670363	-0.280717	-0.663511
C27	C	0.764897	-0.275260	-0.670192
C28	C	1.269365	-0.595851	-0.548576
C29	C	1.263613	-0.696465	-0.541481
C30	C	1.368526	-0.878677	-0.670164
C31	C	1.363125	-0.973213	-0.663502
C32	C	1.247404	-0.980074	-0.521499
C33	C	1.252806	-0.885539	-0.528162
C34	C	1.313370	-0.834843	-0.602496
C35	C	1.318775	-0.740306	-0.609152
C36	C	1.203050	-0.747169	-0.467156
C37	C	1.197649	-0.841704	-0.460493
C38	C	1.519103	-0.347065	-0.581999
C39	C	1.619714	-0.341275	-0.589134
C40	C	1.283071	-0.360562	-0.837836
C41	C	1.283100	-0.360523	-0.953994
C42	C	1.296721	-0.124534	-0.582025
C43	C	1.302567	-0.023915	-0.589171
C44	C	1.231297	-0.308655	-1.005787
C45	C	1.231325	-0.308614	-1.125842
C46	C	1.282993	-0.360674	-0.293743
C47	C	1.283154	-0.360448	-0.177617
H48	H	0.806142	-0.225952	-0.730753
O49	O	1.341872	-0.419310	-1.012988
H50	H	1.322220	-0.491274	-0.985957
H51	H	1.186921	-0.264283	-0.961248
O52	O	1.433855	-0.823990	-0.750322
H53	H	1.417260	-0.842980	-0.829948
H54	H	1.198092	-1.021367	-0.460985
O55	O	0.747407	-0.511324	-0.380173
H56	H	0.701690	-0.559916	-0.420548
O57	O	1.422617	-1.020496	-0.736482
H58	H	1.465641	-0.969358	-0.789282
H59	H	1.148337	-0.882993	-0.399975
H60	H	0.634621	-0.235855	-0.718641
O61	O	1.384102	-0.685628	-0.689319
H62	H	1.346028	-0.644885	-0.742604
O63	O	1.143551	-0.699894	-0.394165
H64	H	1.157476	-0.625640	-0.411286
O65	O	1.172585	-0.249775	-1.184829
H66	H	1.181827	-0.258974	-1.269868
O67	O	1.341915	-0.419275	-1.118643
H68	H	1.298680	-0.467651	-1.062773
H69	H	0.622376	-0.445690	-0.460863
H70	H	0.932293	-0.485418	-0.411952
H71	H	0.944566	-0.275589	-0.669727
