data_functionalizedCrystal
_audit_creation_method	'MofGen! by Chris Wilmer'
_symmetry_space_group_name_H-M	'P1'
_symmetry_Int_Tables_number	1
_symmetry_cell_setting	triclinic
loop_
_symmetry_equiv_pos_as_xyz
  x,y,z
_cell_length_a	6.817900
_cell_length_b	11.102244
_cell_length_c	19.453114
_cell_angle_alpha	94.504759
_cell_angle_beta	101.709288
_cell_angle_gamma	108.604870
loop_
_atom_site_label
_atom_site_type_symbol
_atom_site_fract_x
_atom_site_fract_y
_atom_site_fract_z
V1	V	-4.033148	-0.177162	-0.218997
O2	O	-3.993679	0.007152	-0.214830
O3	O	-4.010456	-0.349972	-0.217498
O4	O	-3.975747	-0.175034	-0.314510
O5	O	-4.028628	-0.168998	-0.117146
V6	V	-4.514612	-0.155045	-0.206815
O7	O	-4.298925	-0.225676	-0.245719
O8	O	-4.699032	-0.106530	-0.180093
O9	O	-4.314098	0.017766	-0.208315
O10	O	-4.671478	-0.339358	-0.210982
O11	O	-4.636529	-0.163209	-0.308666
O12	O	-4.348807	-0.157173	-0.111302
C13	C	-3.862002	-0.392081	-0.214042
C14	C	-3.924675	-0.533360	-0.213453
C15	C	-3.916966	-0.581204	-0.148857
C16	C	-3.975866	-0.713953	-0.148311
C17	C	-4.050173	-0.751003	-0.276963
C18	C	-3.991288	-0.618257	-0.277509
C19	C	-3.874057	-0.559815	-0.074580
C20	C	-3.932957	-0.692564	-0.074034
C21	C	-3.817726	-0.168928	-0.337791
C22	C	-3.852248	-0.168332	-0.415873
C23	C	-4.051197	-0.174431	-0.456130
C24	C	-4.083634	-0.173871	-0.529497
C25	C	-3.917123	-0.167238	-0.562606
C26	C	-3.718142	-0.161130	-0.522339
C27	C	-3.685704	-0.161678	-0.448972
N28	N	-3.867364	-0.234354	-0.681394
N29	N	-3.898192	-0.233838	-0.751090
C30	C	-4.014843	-0.165586	-0.783654
N31	N	-4.099540	-0.097887	-0.743892
N32	N	-4.068718	-0.098410	-0.674191
C33	C	-3.952275	-0.166643	-0.642159
C34	C	-4.248977	-0.171076	-0.903464
C35	C	-4.281403	-0.170508	-0.976831
C36	C	-3.915911	-0.157780	-0.969673
C37	C	-3.883484	-0.158335	-0.896306
C38	C	-4.050028	-0.164990	-0.863206
C39	C	-4.125895	0.059868	-0.211768
C40	C	-4.042460	0.201145	-0.212362
C41	C	-4.170171	-0.163282	-0.088018
C42	C	-4.114887	-0.163872	-0.009935
H43	H	-4.186810	-0.179845	-0.429185
N44	N	-3.640481	-0.489671	-0.040597
H45	H	-3.625202	-0.424642	0.001251
H46	H	-3.568934	-0.444036	-0.076543
H47	H	-4.443410	-0.175465	-1.009607
N48	N	-3.538566	-0.154013	-0.558050
H49	H	-3.407607	-0.150241	-0.521412
H50	H	-3.505572	-0.074326	-0.581525
N51	N	-3.999618	-0.566645	-0.347178
H52	H	-4.150399	-0.602265	-0.377584
H53	H	-3.901726	-0.593438	-0.372769
H54	H	-3.523689	-0.156701	-0.416194
H55	H	-4.082676	-0.732241	-0.053590
H56	H	-3.721486	-0.153382	-0.863529
H57	H	-4.104415	-0.820141	-0.329115
N58	N	-4.298233	-0.180451	-0.572925
H59	H	-4.410941	-0.262525	-0.568539
H60	H	-4.293315	-0.179042	-0.624405
H61	H	-3.792157	-0.715393	-0.042682
N62	N	-4.016944	-0.507814	-0.040581
H63	H	-4.123189	-0.580358	-0.025018
H64	H	-4.095548	-0.467233	-0.076090
H65	H	-4.384584	-0.176490	-0.876513
H66	H	-3.780328	-0.152367	-0.996628
