data_functionalizedCrystal
_audit_creation_method	'MofGen! by Chris Wilmer'
_symmetry_space_group_name_H-M	'P1'
_symmetry_Int_Tables_number	1
_symmetry_cell_setting	triclinic
loop_
_symmetry_equiv_pos_as_xyz
  x,y,z
_cell_length_a	16.992694
_cell_length_b	7.088929
_cell_length_c	16.974813
_cell_angle_alpha	99.843264
_cell_angle_beta	87.024634
_cell_angle_gamma	83.364871
loop_
_atom_site_label
_atom_site_type_symbol
_atom_site_fract_x
_atom_site_fract_y
_atom_site_fract_z
O1	O	1.030781	0.186064	0.176566
O2	O	0.802509	0.185834	0.174716
O3	O	0.923916	0.168059	0.060082
O4	O	0.909375	0.203839	0.291200
O5	O	0.940141	-0.152297	0.044726
O6	O	0.818735	-0.134522	0.159359
O7	O	1.047006	-0.134292	0.161209
Cu8	Cu	0.934352	-0.163658	0.158882
Cu9	Cu	0.915164	0.215200	0.177043
O10	O	0.925600	-0.116517	0.275843
C11	C	0.781430	0.025295	0.164654
C12	C	0.694448	0.024216	0.157543
N13	N	0.947853	-0.430127	0.146108
C14	C	0.643596	0.034838	0.226167
C15	C	0.561871	0.033776	0.219479
C16	C	0.530998	0.022106	0.144165
C17	C	0.581857	0.011477	0.075535
C18	C	0.663582	0.012525	0.082224
C19	C	0.287650	0.017763	0.116442
C20	C	0.205919	0.016721	0.109758
C21	C	0.185938	0.039017	0.253703
C22	C	0.267665	0.040076	0.260386
C23	C	0.318517	0.029437	0.191755
N24	N	0.447461	0.021026	0.137326
N25	N	0.402053	0.030503	0.198594
C26	C	1.068085	0.026252	0.171271
C27	C	1.155066	0.027343	0.178383
C28	C	0.931777	0.003287	0.022695
C29	C	0.931019	-0.010405	-0.065830
N30	N	0.901669	0.481668	0.189811
C31	C	0.921820	0.157788	-0.099044
C32	C	0.921103	0.144918	-0.182222
C33	C	0.929590	-0.036147	-0.232186
C34	C	0.938787	-0.204352	-0.198967
C35	C	0.939498	-0.191480	-0.115789
C36	C	0.928405	-0.093370	-0.481848
C37	C	0.927695	-0.106229	-0.565030
C38	C	0.910009	0.243043	-0.548280
C39	C	0.910726	0.255899	-0.465102
C40	C	0.919919	0.087694	-0.431890
N41	N	0.928859	-0.049306	-0.317208
N42	N	0.920644	0.100855	-0.346869
C43	C	0.917738	0.048260	0.313231
C44	C	0.918496	0.061964	0.401756
H45	H	0.668726	0.044343	0.287496
Br46	Br	0.908617	0.373191	-0.227295
H47	H	0.853803	-0.429663	0.235098
Br48	Br	1.027649	-0.577915	0.070632
H49	H	0.914913	0.305231	-0.058369
H50	H	0.520469	0.042429	0.275360
Br51	Br	0.899213	0.501639	-0.397300
H52	H	0.556716	0.001947	0.014211
H53	H	0.902523	0.379986	-0.575330
H54	H	0.934603	-0.253681	-0.605710
Br55	Br	0.309556	0.055937	0.362602
H56	H	0.144526	0.047675	0.309578
Br57	Br	0.940864	-0.321650	-0.436783
Br58	Br	0.950292	-0.450087	-0.266773
H59	H	0.180786	0.007219	0.048426
Br60	Br	0.356654	0.003319	0.023299
H61	H	0.704986	0.003876	0.026342
H62	H	0.946978	-0.328441	-0.088748
