data_functionalizedCrystal
_audit_creation_method	'MofGen! by Chris Wilmer'
_symmetry_space_group_name_H-M	'P1'
_symmetry_Int_Tables_number	1
_symmetry_cell_setting	triclinic
loop_
_symmetry_equiv_pos_as_xyz
  x,y,z
_cell_length_a	18.215407
_cell_length_b	19.121063
_cell_length_c	18.215399
_cell_angle_alpha	92.409843
_cell_angle_beta	89.982632
_cell_angle_gamma	92.466339
loop_
_atom_site_label
_atom_site_type_symbol
_atom_site_fract_x
_atom_site_fract_y
_atom_site_fract_z
Zn1	Zn	1.112557	-0.279669	-0.428551
Zn2	Zn	1.445890	0.053665	-0.095217
Zn3	Zn	1.779223	0.386998	0.238116
Zn4	Zn	1.107209	-0.397123	-0.310727
Zn5	Zn	1.440542	-0.063790	0.022606
Zn6	Zn	1.773876	0.269543	0.355940
Zn7	Zn	0.989489	-0.279686	-0.305504
Zn8	Zn	1.322822	0.053648	0.027829
Zn9	Zn	1.656155	0.386981	0.361163
Zn10	Zn	0.984201	-0.397078	-0.433755
Zn11	Zn	1.317534	-0.063745	-0.100422
Zn12	Zn	1.650868	0.269588	0.232912
O13	O	1.048364	-0.338389	-0.369634
O14	O	1.381697	-0.005056	-0.036301
O15	O	1.715030	0.328278	0.297033
O16	O	1.214831	-0.295261	-0.412929
O17	O	1.548164	0.038072	-0.079595
O18	O	1.881498	0.371405	0.253738
O19	O	1.091568	-0.381571	-0.207051
O20	O	1.424901	-0.048238	0.126282
O21	O	1.758235	0.285096	0.459616
O22	O	1.010265	-0.181399	-0.317462
O23	O	1.343598	0.151935	0.015871
O24	O	1.676931	0.485268	0.349204
O25	O	1.210902	-0.381555	-0.326364
O26	O	1.544235	-0.048221	0.006969
O27	O	1.877569	0.285112	0.340302
O28	O	1.100682	-0.181386	-0.407864
O29	O	1.434016	0.151947	-0.074531
O30	O	1.767349	0.485280	0.258802
O31	O	1.005079	-0.295290	-0.203214
O32	O	1.338413	0.038043	0.130120
O33	O	1.671746	0.371377	0.463453
O34	O	0.885803	-0.295246	-0.322509
O35	O	1.219137	0.038087	0.010824
O36	O	1.552470	0.371421	0.344158
O37	O	1.001253	-0.381478	-0.536048
O38	O	1.334586	-0.048144	-0.202715
O39	O	1.667920	0.285189	0.130619
O40	O	0.881919	-0.381494	-0.416735
O41	O	1.215252	-0.048161	-0.083401
O42	O	1.548585	0.285173	0.249932
O43	O	1.095555	-0.295217	-0.532224
O44	O	1.428889	0.038116	-0.198891
O45	O	1.762222	0.371449	0.134443
O46	O	1.086441	-0.495402	-0.331411
O47	O	1.419774	-0.162069	0.001923
O48	O	1.753108	0.171265	0.335256
O49	O	0.996067	-0.495369	-0.421799
O50	O	1.329401	-0.162035	-0.088466
O51	O	1.662734	0.171298	0.244868
C52	C	0.857159	-0.338367	-0.369620
C53	C	1.190492	-0.005034	-0.036287
C54	C	1.523825	0.328299	0.297046
C55	C	0.775359	-0.338375	-0.369633
C56	C	1.108693	-0.005042	-0.036299
C57	C	1.442026	0.328292	0.297034
C58	C	0.589206	-0.293535	-0.414785
C59	C	0.922539	0.039799	-0.081452
C60	C	1.255873	0.373132	0.251881
C61	C	0.512347	-0.293541	-0.414788
C62	C	0.845680	0.039793	-0.081455
C63	C	1.179014	0.373126	0.251879
C64	C	0.508273	-0.383263	-0.324497
C65	C	0.841606	-0.049930	0.008836
C66	C	1.174939	0.283404	0.342170
C67	C	0.585131	-0.383253	-0.324491
C68	C	0.918464	-0.049920	0.008843
C69	C	1.251797	0.283414	0.342176
C70	C	0.625595	-0.338390	-0.369639
C71	C	0.958928	-0.005056	-0.036306
C72	C	1.292262	0.328277	0.297027
C73	C	0.471878	-0.338406	-0.369648
C74	C	0.805212	-0.005073	-0.036315
C75	C	1.138545	0.328261	0.297019
C76	C	0.388544	-0.338413	-0.369651
C77	C	0.721878	-0.005079	-0.036317
C78	C	1.055211	0.328254	0.297016
C79	C	0.708934	-0.338382	-0.369636
C80	C	1.042268	-0.005048	-0.036302
C81	C	1.375601	0.328285	0.297031
C82	C	1.040120	-0.520869	-0.377753
C83	C	1.373453	-0.187536	-0.044419
C84	C	1.706787	0.145797	0.288914
C85	C	1.036661	-0.598935	-0.381250
C86	C	1.369994	-0.265602	-0.047917
C87	C	1.703327	0.067731	0.285416
C88	C	1.082125	-0.635605	-0.335872
C89	C	1.415458	-0.302271	-0.002539
C90	C	1.748791	0.031062	0.330795
C91	C	1.078876	-0.708956	-0.339166
C92	C	1.412209	-0.375623	-0.005833
C93	C	1.745542	-0.042289	0.327501
C94	C	1.030158	-0.745636	-0.387835
C95	C	1.363492	-0.412303	-0.054501
C96	C	1.696825	-0.078970	0.278832
C97	C	0.984692	-0.708962	-0.433218
C98	C	1.318026	-0.375628	-0.099885
C99	C	1.651359	-0.042295	0.233449
C100	C	0.987946	-0.635612	-0.429927
C101	C	1.321279	-0.302278	-0.096594
C102	C	1.654612	0.031055	0.236739
C103	C	1.017983	-0.967106	-0.400126
C104	C	1.351316	-0.633772	-0.066793
C105	C	1.684649	-0.300439	0.266540
C106	C	1.014731	-1.040461	-0.403412
C107	C	1.348064	-0.707127	-0.070079
C108	C	1.681398	-0.373794	0.263255
C109	C	1.108916	-1.040450	-0.309361
C110	C	1.442249	-0.707117	0.023973
C111	C	1.775582	-0.373783	0.357306
C112	C	1.112162	-0.967099	-0.306071
C113	C	1.445495	-0.633765	0.027262
C114	C	1.778828	-0.300432	0.360595
C115	C	1.066699	-0.930430	-0.351457
C116	C	1.400032	-0.597097	-0.018124
C117	C	1.733365	-0.263764	0.315210
C118	C	1.026834	-0.820613	-0.391201
C119	C	1.360168	-0.487280	-0.057868
C120	C	1.693501	-0.153946	0.275465
C121	C	1.070027	-0.855455	-0.348094
C122	C	1.403360	-0.522122	-0.014761
C123	C	1.736693	-0.188788	0.318573
C124	C	1.240316	-0.338411	-0.369649
C125	C	1.573649	-0.005078	-0.036315
C126	C	1.906982	0.328256	0.297018
C127	C	1.322114	-0.338421	-0.369655
C128	C	1.655448	-0.005087	-0.036321
C129	C	1.988781	0.328246	0.297012
C130	C	1.048411	-0.338341	-0.561585
C131	C	1.381744	-0.005007	-0.228252
C132	C	1.715077	0.328326	0.105082
C133	C	1.048431	-0.338320	-0.643383
C134	C	1.381764	-0.004987	-0.310050
C135	C	1.715098	0.328347	0.023284
C136	C	1.056660	-0.155196	-0.361500
C137	C	1.389993	0.178137	-0.028167
C138	C	1.723326	0.511471	0.305166
C139	C	1.060195	-0.077130	-0.358034
C140	C	1.393528	0.256203	-0.024701
C141	C	1.726862	0.589537	0.308633
C142	C	1.097553	-0.293362	-0.829585
C143	C	1.430886	0.039971	-0.496252
C144	C	1.764220	0.373304	-0.162919
C145	C	1.097563	-0.293342	-0.906443
C146	C	1.430896	0.039992	-0.573110
C147	C	1.764229	0.373325	-0.239777
C148	C	0.999366	-0.383169	-0.910414
C149	C	1.332699	-0.049836	-0.577080
C150	C	1.666032	0.283498	-0.243747
C151	C	0.999353	-0.383185	-0.833557
C152	C	1.332686	-0.049852	-0.500224
C153	C	1.666020	0.283481	-0.166890
C154	C	1.048451	-0.338283	-0.793145
C155	C	1.381784	-0.004950	-0.459812
C156	C	1.715117	0.328384	-0.126478
C157	C	1.048473	-0.338246	-0.946859
C158	C	1.381806	-0.004913	-0.613526
C159	C	1.715140	0.328421	-0.280193
C160	C	1.048483	-0.338224	-1.030192
C161	C	1.381817	-0.004891	-0.696859
C162	C	1.715150	0.328442	-0.363526
C163	C	1.048440	-0.338304	-0.709807
C164	C	1.381773	-0.004970	-0.376474
C165	C	1.715107	0.328363	-0.043140
C166	C	1.048362	-0.338387	-0.178428
C167	C	1.381695	-0.005053	0.154906
C168	C	1.715028	0.328280	0.488239
C169	C	1.048493	-0.338209	-0.096621
C170	C	1.381826	-0.004876	0.236712
C171	C	1.715160	0.328457	0.570045
H172	H	0.475317	-0.419790	-0.287739
H173	H	0.808651	-0.086456	0.045594
H174	H	1.141984	0.246877	0.378927
H175	H	0.614759	-0.419780	-0.287724
H176	H	0.948093	-0.086447	0.045610
H177	H	1.281426	0.246886	0.378943
N178	N	0.632849	-0.245147	-0.463479
N179	N	0.966182	0.088186	-0.130146
N180	N	1.299515	0.421519	0.203188
H181	H	0.663457	-0.273730	-0.498806
H182	H	0.996791	0.059603	-0.165473
H183	H	1.330124	0.392936	0.167860
H184	H	0.598081	-0.216745	-0.492029
H185	H	0.931414	0.116588	-0.158696
H186	H	1.264747	0.449921	0.174638
H187	H	0.482723	-0.257014	-0.451549
H188	H	0.816056	0.076320	-0.118216
H189	H	1.149389	0.409653	0.215117
H190	H	1.121792	-0.605744	-0.296238
H191	H	1.455126	-0.272411	0.037096
H192	H	1.788459	0.060922	0.370429
H193	H	0.959363	-0.419765	-0.803887
H194	H	1.292696	-0.086431	-0.470553
H195	H	1.626030	0.246902	-0.137220
H196	H	1.115897	-0.738809	-0.302214
H197	H	1.449230	-0.405476	0.031120
H198	H	1.782563	-0.072142	0.364453
N199	N	1.164717	-0.927537	-0.253589
N200	N	1.498051	-0.594204	0.079744
N201	N	1.831384	-0.260871	0.413077
H202	H	1.193031	-0.961898	-0.225346
H203	H	1.526364	-0.628565	0.107988
H204	H	1.859698	-0.295232	0.441321
H205	H	1.200104	-0.897065	-0.282221
H206	H	1.533437	-0.563731	0.051112
H207	H	1.866770	-0.230398	0.384445
N208	N	1.157945	-1.079998	-0.260408
N209	N	1.491279	-0.746665	0.072925
N210	N	1.824612	-0.413332	0.406258
H211	H	1.148493	-1.132031	-0.269874
H212	H	1.481826	-0.798698	0.063459
H213	H	1.815160	-0.465364	0.396792
H214	H	1.211070	-1.067132	-0.271329
H215	H	1.544403	-0.733799	0.062005
H216	H	1.877736	-0.400465	0.395338
N217	N	0.938913	-0.596057	-0.478873
N218	N	1.272246	-0.262724	-0.145539
N219	N	1.605579	0.070609	0.187794
H220	H	0.907556	-0.630423	-0.510203
H221	H	1.240889	-0.297090	-0.176870
H222	H	1.574222	0.036244	0.156464
H223	H	0.906220	-0.565667	-0.447525
H224	H	1.239554	-0.232334	-0.114191
H225	H	1.572887	0.100999	0.219142
N226	N	0.962184	-1.080022	-0.455910
N227	N	1.295517	-0.746688	-0.122577
N228	N	1.628851	-0.413355	0.210756
H229	H	0.990726	-1.110414	-0.491398
H230	H	1.324059	-0.777081	-0.158065
H231	H	1.657392	-0.443747	0.175268
H232	H	0.926755	-1.110455	-0.427283
H233	H	1.260089	-0.777122	-0.093950
H234	H	1.593422	-0.443789	0.239383
H235	H	0.980963	-0.937256	-0.437080
H236	H	1.314297	-0.603923	-0.103747
H237	H	1.647630	-0.270589	0.229587
N238	N	0.932149	-0.748520	-0.485714
N239	N	1.265482	-0.415186	-0.152381
N240	N	1.598815	-0.081853	0.180952
H241	H	0.936983	-0.800551	-0.480912
H242	H	1.270317	-0.467218	-0.147579
H243	H	1.603650	-0.133885	0.185755
H244	H	0.880163	-0.735742	-0.473640
H245	H	1.213497	-0.402409	-0.140306
H246	H	1.546830	-0.069076	0.193027
N247	N	1.122572	-0.815893	-0.295608
N248	N	1.455906	-0.482559	0.037726
N249	N	1.789239	-0.149226	0.371059
H250	H	1.094028	-0.785503	-0.260118
H251	H	1.427362	-0.452170	0.073215
H252	H	1.760695	-0.118837	0.406548
H253	H	1.150871	-0.850292	-0.267406
H254	H	1.484205	-0.516959	0.065927
H255	H	1.817538	-0.183626	0.399261
N256	N	0.974283	-0.860173	-0.443689
N257	N	1.307617	-0.526840	-0.110355
N258	N	1.640950	-0.193507	0.222978
H259	H	1.002823	-0.890562	-0.479182
H260	H	1.336156	-0.557229	-0.145849
H261	H	1.669489	-0.223895	0.187485
H262	H	0.938861	-0.890611	-0.415058
H263	H	1.272195	-0.557278	-0.081725
H264	H	1.605528	-0.223944	0.251608
H265	H	1.137529	-0.256798	-0.796684
H266	H	1.470863	0.076535	-0.463350
H267	H	1.804196	0.409869	-0.130017
H268	H	1.137545	-0.256762	-0.936109
H269	H	1.470879	0.076572	-0.602776
H270	H	1.804212	0.409905	-0.269443
H271	H	0.959394	-0.419728	-0.943327
H272	H	1.292727	-0.086395	-0.609993
H273	H	1.626060	0.246938	-0.276660
