data_functionalizedCrystal
_audit_creation_method	'MofGen! by Chris Wilmer'
_symmetry_space_group_name_H-M	'P1'
_symmetry_Int_Tables_number	1
_symmetry_cell_setting	triclinic
loop_
_symmetry_equiv_pos_as_xyz
  x,y,z
_cell_length_a	20.016444
_cell_length_b	23.196402
_cell_length_c	23.196402
_cell_angle_alpha	90.003332
_cell_angle_beta	59.997308
_cell_angle_gamma	60.006021
loop_
_atom_site_label
_atom_site_type_symbol
_atom_site_fract_x
_atom_site_fract_y
_atom_site_fract_z
Zr1	Zr	0.731231	-0.075634	0.555368
O2	O	0.870605	-0.167676	0.463309
O3	O	0.591858	-0.047422	0.583589
O4	O	0.731229	-0.167684	0.583579
O5	O	0.731236	0.047457	0.463327
O6	O	0.731226	-0.167686	0.678451
O7	O	0.731235	-0.047413	0.463319
O8	O	0.481918	0.047441	0.678469
O9	O	0.980545	-0.167671	0.463309
O10	O	0.649182	-0.035386	0.666427
O11	O	0.649185	0.035416	0.595632
O12	O	0.813276	-0.106178	0.595620
O13	O	0.813280	-0.035376	0.524824
Zr14	Zr	0.731230	0.075670	0.706691
Zr15	Zr	0.731227	-0.075637	0.706678
Zr16	Zr	0.731234	0.075673	0.555381
Zr17	Zr	0.906572	-0.075626	0.555369
Zr18	Zr	0.555889	0.075662	0.706690
O19	O	0.870603	0.047458	0.678470
O20	O	0.870599	-0.167680	0.678452
O21	O	0.870609	0.047463	0.463327
O22	O	0.591856	0.167712	0.798750
O23	O	0.591852	-0.047426	0.798732
O24	O	0.591862	0.167717	0.583608
O25	O	0.731225	-0.047420	0.798733
O26	O	0.731232	0.167721	0.678480
O27	O	0.731235	0.167723	0.583608
O28	O	0.731226	0.047450	0.798741
O29	O	0.980541	-0.167674	0.583580
O30	O	0.481920	0.167710	0.678479
O31	O	0.481916	0.167707	0.798750
O32	O	0.481914	0.047439	0.798740
O33	O	0.980547	-0.047402	0.463319
O34	O	0.980543	-0.047405	0.583590
O35	O	0.649185	0.106214	0.666439
O36	O	0.649181	0.035412	0.737235
O37	O	0.813275	-0.035379	0.666428
O38	O	0.813279	0.035423	0.595632
C39	C	0.511906	0.000009	0.631029
C40	C	0.437469	0.000005	0.631029
C41	C	0.731236	0.000022	0.441764
C42	C	0.731238	0.000024	0.377529
C43	C	0.731234	0.189280	0.631046
C44	C	0.731235	0.253513	0.631051
C45	C	0.266197	-0.036941	0.667986
C46	C	0.196250	-0.036935	0.667988
C47	C	0.196267	0.036982	0.594072
C48	C	0.266208	0.036980	0.594075
C49	C	0.301175	0.000015	0.631030
C50	C	0.161286	0.000022	0.631029
C51	C	0.085446	0.000028	0.631031
C52	C	0.377019	0.000009	0.631029
C53	C	0.950555	0.000028	0.631030
C54	C	1.024992	0.000031	0.631030
C55	C	0.731227	-0.189243	0.631014
C56	C	0.731226	-0.253477	0.631008
C57	C	0.816888	0.246736	0.594093
C58	C	0.816889	0.307090	0.594083
C59	C	0.731233	0.374222	0.631044
C60	C	0.645568	0.380996	0.668003
C61	C	0.645570	0.320642	0.668007
C62	C	0.665607	0.498155	0.692947
C63	C	0.665609	0.558506	0.692945
C64	C	0.731225	0.560375	0.631032
C65	C	0.796855	0.501879	0.569121
C66	C	0.796856	0.441525	0.569125
C67	C	0.731222	0.439670	0.631044
C68	C	0.816886	0.619039	0.594060
C69	C	0.816883	0.679395	0.594048
C70	C	0.645560	0.753302	0.667975
C71	C	0.645565	0.692945	0.667980
C72	C	0.731230	0.625816	0.631025
C73	C	0.731244	-0.052244	0.347353
C74	C	0.731235	-0.052244	0.287001
C75	C	0.731240	0.000019	0.256821
C76	C	0.731229	0.052296	0.287007
C77	C	0.731228	0.052298	0.347362
C78	C	0.786293	0.016307	0.137448
C79	C	0.786300	0.016299	0.077092
C80	C	0.731239	0.000015	0.070671
C81	C	0.676183	-0.016278	0.124607
C82	C	0.676182	-0.016275	0.184961
C83	C	0.731240	0.000022	0.191378
C84	C	0.731234	-0.052256	-0.024945
C85	C	0.731220	-0.052251	-0.085295
C86	C	0.731223	0.052286	-0.085292
C87	C	0.731227	0.052284	-0.024939
C88	C	0.731238	0.000009	0.005229
C89	C	0.731225	0.000014	0.820295
C90	C	0.731223	0.000013	0.884530
C91	C	0.511900	0.000005	0.820295
C92	C	0.437461	-0.000000	0.884529
C93	C	0.511909	0.189270	0.631045
C94	C	0.437473	0.253500	0.631050
C95	C	0.511903	0.189266	0.820311
C96	C	0.437466	0.253495	0.884551
C97	C	0.950557	-0.189230	0.441749
C98	C	1.024995	-0.253459	0.377508
C99	C	0.950561	0.000032	0.441765
C100	C	1.025000	0.000036	0.377530
C101	C	0.950552	-0.189234	0.631014
C102	C	1.024988	-0.253464	0.631009
C103	C	0.402504	-0.036965	0.877734
C104	C	0.332571	-0.036983	0.938083
C105	C	0.297591	-0.000032	1.005228
C106	C	0.332555	0.036933	1.012022
C107	C	0.402491	0.036947	0.951673
C108	C	0.402517	0.320626	0.668014
C109	C	0.332587	0.380983	0.668016
C110	C	0.297609	0.374213	0.631059
C111	C	0.332572	0.307080	0.594091
C112	C	0.402506	0.246725	0.594085
C113	C	0.402507	0.246700	0.951680
C114	C	0.332575	0.307044	1.012046
C115	C	0.297598	0.374183	1.005282
C116	C	0.332563	0.380977	0.938146
C117	C	0.402499	0.320633	0.877781
C118	C	1.059962	-0.246664	0.310380
C119	C	1.129916	-0.307008	0.250013
C120	C	1.164897	-0.374146	0.256777
C121	C	1.129927	-0.380940	0.323913
C122	C	1.059979	-0.320597	0.384278
C123	C	1.059964	0.036995	0.384326
C124	C	1.129916	0.036997	0.323976
C125	C	1.164899	0.000044	0.256831
C126	C	1.129932	-0.036919	0.250037
C127	C	1.059985	-0.036925	0.310386
C128	C	1.059943	-0.246671	0.667973
C129	C	1.129874	-0.307017	0.667982
C130	C	1.164853	-0.374154	0.631022
C131	C	1.129890	-0.380946	0.594056
C132	C	1.059956	-0.320601	0.594052
H133	H	0.167771	-0.067026	0.698082
H134	H	0.240664	0.423364	0.631069
C135	C	0.731244	-0.109739	0.380539
H136	H	0.731238	-0.140865	0.353923
H137	H	0.786038	-0.135551	0.380441
H138	H	0.676437	-0.088267	0.427730
H139	H	0.304074	0.435649	0.932649
C140	C	0.869037	0.503922	0.501011
H141	H	0.908124	0.460440	0.464143
H142	H	0.836544	0.541479	0.488017
H143	H	0.906989	0.511098	0.508853
C144	C	0.846882	0.034205	0.144496
H145	H	0.879686	0.043892	0.103725
H146	H	0.807210	0.074482	0.185166
H147	H	0.891148	-0.004733	0.148932
C148	C	0.294080	0.299642	0.553450
H149	H	0.247415	0.345205	0.558760
H150	H	0.344275	0.274569	0.504822
H151	H	0.266778	0.274573	0.571712
H152	H	0.167789	0.067077	0.563984
H153	H	1.031484	-0.192001	0.304859
C154	C	0.304689	0.077630	0.553419
H155	H	0.273858	0.099637	0.531401
H156	H	0.293228	0.112600	0.585322
H157	H	0.370725	0.045725	0.518442
H158	H	1.158377	-0.301462	0.195354
H159	H	1.221853	-0.423276	0.207619
C160	C	0.294058	0.077590	1.085881
H161	H	0.324890	0.099610	1.081293
H162	H	0.228026	0.112550	1.110951
H163	H	0.305519	0.045690	1.110963
H164	H	0.304128	0.435640	0.698122
C165	C	0.615618	-0.034186	0.244293
H166	H	0.623510	-0.031855	0.281153
H167	H	0.551017	-0.001276	0.262278
H168	H	0.634976	-0.080484	0.226051
C169	C	0.220663	0.440554	1.071687
H170	H	0.204850	0.426885	1.112633
H171	H	0.243576	0.467865	1.071703
H172	H	0.166084	0.467853	1.071699
H173	H	1.031520	-0.067019	0.304843
C174	C	1.168405	-0.454795	0.331345
H175	H	1.215062	-0.489754	0.285776
H176	H	1.195692	-0.460102	0.356422
H177	H	1.118193	-0.460096	0.356412
C178	C	0.551350	0.328094	0.708664
H179	H	0.563619	0.282535	0.703370
H180	H	0.516149	0.353175	0.757287
H181	H	0.516159	0.353160	0.690406
C182	C	0.593427	0.496102	0.761054
H183	H	0.602820	0.451783	0.752189
H184	H	0.601686	0.502435	0.796908
H185	H	0.531239	0.532819	0.776074
C186	C	0.440976	0.172854	0.959130
H187	H	0.487631	0.137881	0.913569
H188	H	0.468264	0.167561	0.984204
H189	H	0.390761	0.167558	0.984211
H190	H	1.031486	0.067091	0.438993
H191	H	0.886643	0.192080	0.564000
C192	C	0.440992	0.328088	0.708660
H193	H	0.410160	0.376714	0.730662
H194	H	0.429531	0.306085	0.743636
H195	H	0.507028	0.306081	0.676745
H196	H	0.575826	0.435659	0.698096
C197	C	0.731232	0.109791	0.380552
H198	H	0.731239	0.140916	0.353935
H199	H	0.676439	0.135604	0.427744
H200	H	0.786041	0.088317	0.380442
C201	C	0.304655	-0.077594	0.708639
H202	H	0.351326	-0.072308	0.703344
H203	H	0.254442	-0.059343	0.757263
H204	H	0.331939	-0.126216	0.690381
H205	H	1.031474	-0.192010	0.698071
H206	H	0.731221	0.094842	-0.109862
H207	H	0.304113	0.301500	1.066705
C208	C	0.440944	0.172890	0.553428
H209	H	0.410086	0.177509	0.531426
H210	H	0.506976	0.147803	0.518449
H211	H	0.429464	0.147811	0.585331
C212	C	1.021512	-0.328080	0.458116
H213	H	1.052360	-0.376709	0.453492
H214	H	1.032961	-0.306075	0.483214
H215	H	0.955479	-0.306085	0.483191
C216	C	1.168358	0.077665	0.331462
H217	H	1.137490	0.099681	0.380095
H218	H	1.234388	0.045777	0.309463
H219	H	1.156893	0.112641	0.309456
H220	H	0.304112	-0.067085	0.932537
H221	H	0.430944	0.067053	0.957216
H222	H	1.221854	0.000054	0.207697
H223	H	0.631350	-0.029542	0.119381
H224	H	0.430953	0.326176	0.823124
C225	C	0.220655	-0.000045	1.071607
H226	H	0.204827	0.027252	1.112573
H227	H	0.166094	0.019736	1.071603
H228	H	0.243590	-0.047136	1.071601
H229	H	1.158426	-0.067005	0.195360
H230	H	1.158333	-0.301473	0.698083
H231	H	0.886640	0.301571	0.563985
H232	H	1.221798	-0.423285	0.631031
C233	C	0.551337	0.827137	0.708630
H234	H	0.500323	0.822527	0.730640
H235	H	0.547771	0.852226	0.743602
H236	H	0.547779	0.852208	0.676721
C237	C	1.168382	-0.454799	0.553397
H238	H	1.215046	-0.489760	0.558690
H239	H	1.118185	-0.460111	0.571636
H240	H	1.195684	-0.460094	0.504768
H241	H	1.031503	-0.326142	0.563948
C242	C	0.731250	-0.109745	0.253797
H243	H	0.731262	-0.140879	0.280405
H244	H	0.676457	-0.088284	0.253894
H245	H	0.786058	-0.135556	0.206605
C246	C	0.869032	0.377188	0.501026
H247	H	0.908109	0.386942	0.464148
H248	H	0.906982	0.337273	0.508867
H249	H	0.836525	0.367667	0.488043
H250	H	0.886639	0.564379	0.563965
C251	C	0.731235	0.109773	0.008251
H252	H	0.731245	0.140897	-0.018369
H253	H	0.676440	0.135588	0.055441
H254	H	0.786041	0.088301	0.008144
H255	H	0.575817	0.698467	0.698079
C256	C	0.911104	0.671942	0.553393
H257	H	0.898836	0.717501	0.558676
H258	H	0.946294	0.646876	0.571648
H259	H	0.946304	0.646860	0.504766
H260	H	0.731238	-0.094820	-0.000379
C261	C	0.593420	0.622845	0.761043
H262	H	0.554330	0.613094	0.797913
H263	H	0.625906	0.632378	0.774038
H264	H	0.555472	0.662756	0.753192
H265	H	0.831134	0.029562	0.033179
C266	C	0.731208	-0.109740	-0.118484
H267	H	0.731191	-0.102249	-0.158743
H268	H	0.786003	-0.154859	-0.132244
H269	H	0.676402	-0.107566	-0.084938
C270	C	0.731238	0.109781	0.253810
H271	H	0.731250	0.102290	0.213538
H272	H	0.676441	0.154898	0.287345
H273	H	0.786043	0.107612	0.240054
C274	C	0.440976	-0.077615	0.803881
H275	H	0.487631	-0.072314	0.768906
H276	H	0.468264	-0.126236	0.798584
H277	H	0.390762	-0.059366	0.798589
