data_functionalizedCrystal
_audit_creation_method	'MofGen! by Chris Wilmer'
_symmetry_space_group_name_H-M	'P1'
_symmetry_Int_Tables_number	1
_symmetry_cell_setting	triclinic
loop_
_symmetry_equiv_pos_as_xyz
  x,y,z
_cell_length_a	9.065215
_cell_length_b	10.908937
_cell_length_c	7.540329
_cell_angle_alpha	89.997201
_cell_angle_beta	89.997574
_cell_angle_gamma	72.550327
loop_
_atom_site_label
_atom_site_type_symbol
_atom_site_fract_x
_atom_site_fract_y
_atom_site_fract_z
O1	O	1.911454	0.187731	-0.147457
O2	O	1.478153	0.203135	-0.147464
O3	O	1.752241	0.009170	-0.147454
O4	O	1.637366	0.381696	-0.147467
O5	O	1.752228	0.009168	0.147511
O6	O	1.478140	0.203132	0.147501
O7	O	1.911441	0.187728	0.147508
Cu8	Cu	1.694789	0.195430	0.174437
Cu9	Cu	1.694805	0.195433	-0.174393
O10	O	1.637353	0.381693	0.147498
C11	C	1.423545	0.201654	0.000017
C12	C	1.260856	0.197230	0.000014
C13	C	1.762970	-0.038548	0.000026
C14	C	1.794940	-0.180727	0.000020
C15	C	1.711312	-0.378041	0.000013
C16	C	1.678266	-0.231091	0.000016
C17	C	1.966049	0.189209	0.000023
C18	C	2.128738	0.193633	0.000014
C19	C	1.626624	0.429411	0.000014
C20	C	1.594654	0.571591	0.000009
N21	N	1.694790	0.195427	0.419786
N22	N	1.694818	0.195426	-0.419742
H23	H	1.835652	-0.443711	0.000024
H24	H	1.553917	-0.165425	0.000027
N25	N	1.959659	-0.267692	0.000037
H26	H	1.959923	-0.360342	0.000037
H27	H	2.014621	-0.250391	-0.109308
N28	N	1.429944	-0.341438	0.000042
H29	H	1.429685	-0.248789	0.000053
H30	H	1.374977	-0.358723	-0.109301
