data_functionalizedCrystal
_audit_creation_method	'MofGen! by Chris Wilmer'
_symmetry_space_group_name_H-M	'P1'
_symmetry_Int_Tables_number	1
_symmetry_cell_setting	triclinic
loop_
_symmetry_equiv_pos_as_xyz
  x,y,z
_cell_length_a	16.109301
_cell_length_b	19.188924
_cell_length_c	15.186229
_cell_angle_alpha	89.994194
_cell_angle_beta	89.999006
_cell_angle_gamma	83.301774
loop_
_atom_site_label
_atom_site_type_symbol
_atom_site_fract_x
_atom_site_fract_y
_atom_site_fract_z
O1	O	1.102830	0.089745	-0.073184
O2	O	1.436164	0.423078	0.260149
O3	O	1.769497	0.756412	0.593482
O4	O	0.860731	0.100913	-0.073197
O5	O	1.194065	0.434247	0.260136
O6	O	1.527398	0.767580	0.593470
O7	O	0.988770	-0.006310	-0.073180
O8	O	1.322104	0.327023	0.260153
O9	O	1.655437	0.660356	0.593487
O10	O	0.974791	0.196969	-0.073201
O11	O	1.308125	0.530302	0.260132
O12	O	1.641458	0.863636	0.593465
O13	O	0.988762	-0.006312	0.073277
O14	O	1.322095	0.327021	0.406611
O15	O	1.655428	0.660355	0.739944
O16	O	0.860723	0.100912	0.073260
O17	O	1.194056	0.434245	0.406593
O18	O	1.527389	0.767579	0.739927
O19	O	1.102822	0.089744	0.073273
O20	O	1.436155	0.423077	0.406606
O21	O	1.769489	0.756410	0.739940
Zn22	Zn	0.981771	0.095327	0.096520
Zn23	Zn	1.315104	0.428661	0.429853
Zn24	Zn	1.648438	0.761994	0.763186
Zn25	Zn	0.981782	0.095329	-0.096444
Zn26	Zn	1.315116	0.428663	0.236889
Zn27	Zn	1.648449	0.761996	0.570223
O28	O	0.974783	0.196967	0.073256
O29	O	1.308116	0.530301	0.406589
O30	O	1.641450	0.863634	0.739922
C31	C	0.829754	0.100460	0.000030
C32	C	1.163087	0.433794	0.333363
C33	C	1.496420	0.767127	0.666697
C34	C	0.737463	0.099104	0.000025
C35	C	1.070796	0.432437	0.333359
C36	C	1.404129	0.765770	0.666692
C37	C	0.428267	0.158294	0.000035
C38	C	0.761600	0.491628	0.333368
C39	C	1.094933	0.824961	0.666701
C40	C	0.514983	0.159575	0.000029
C41	C	0.848316	0.492909	0.333363
C42	C	1.181649	0.826242	0.666696
C43	C	0.535281	0.032358	0.000031
C44	C	0.868615	0.365691	0.333364
C45	C	1.201948	0.699024	0.666698
C46	C	0.448567	0.031077	0.000030
C47	C	0.781900	0.364411	0.333363
C48	C	1.115233	0.697744	0.666697
C49	C	0.395061	0.094048	0.000036
C50	C	0.728395	0.427381	0.333369
C51	C	1.061728	0.760715	0.666703
C52	C	0.568492	0.096609	0.000032
C53	C	0.901825	0.429942	0.333365
C54	C	1.235158	0.763276	0.666699
C55	C	0.662513	0.097997	0.000026
C56	C	0.995846	0.431331	0.333360
C57	C	1.329180	0.764664	0.666693
C58	C	0.301034	0.092660	0.000040
C59	C	0.634367	0.425993	0.333374
C60	C	0.967701	0.759326	0.666707
C61	C	0.988314	-0.032323	0.000049
C62	C	1.321648	0.301010	0.333383
C63	C	1.654981	0.634343	0.666716
C64	C	0.986958	-0.109831	0.000052
C65	C	1.320292	0.223502	0.333385
C66	C	1.653625	0.556835	0.666718
C67	C	0.986330	-0.146231	-0.079782
C68	C	1.319663	0.187103	0.253551
C69	C	1.652997	0.520436	0.586884
C70	C	0.985044	-0.219057	-0.079789
C71	C	1.318377	0.114277	0.253544
C72	C	1.651711	0.447610	0.586878
C73	C	0.984403	-0.255482	0.000043
C74	C	1.317736	0.077852	0.333376
C75	C	1.651070	0.411185	0.666709
C76	C	0.985027	-0.219073	0.079887
C77	C	1.318360	0.114260	0.413221
C78	C	1.651693	0.447594	0.746554
C79	C	0.986304	-0.146248	0.079892
C80	C	1.319638	0.187086	0.413225
C81	C	1.652971	0.520419	0.746559
N82	N	1.029706	-0.375040	0.059462
N83	N	1.363040	-0.041706	0.392796
N84	N	1.696373	0.291627	0.726129
N85	N	1.028494	-0.444221	0.059452
N86	N	1.361828	-0.110887	0.392786
N87	N	1.695161	0.222446	0.726119
C88	C	0.980552	-0.474900	0.000034
C89	C	1.313885	-0.141567	0.333367
C90	C	1.647219	0.191767	0.666701
N91	N	0.933878	-0.433786	-0.059388
N92	N	1.267211	-0.100452	0.273946
N93	N	1.600545	0.232881	0.607279
N94	N	0.935094	-0.364598	-0.059381
N95	N	1.268427	-0.031265	0.273953
N96	N	1.601760	0.302068	0.607286
C97	C	0.983017	-0.334448	0.000047
C98	C	1.316351	-0.001115	0.333380
C99	C	1.649684	0.332218	0.666713
C100	C	0.978528	-0.590265	-0.079813
C101	C	1.311862	-0.256932	0.253520
C102	C	1.645195	0.076401	0.586854
C103	C	0.977237	-0.663092	-0.079816
C104	C	1.310570	-0.329758	0.253517
C105	C	1.643904	0.003575	0.586850
C106	C	0.977228	-0.663108	0.079863
C107	C	1.310562	-0.329774	0.413196
C108	C	1.643895	0.003559	0.746529
C109	C	0.978511	-0.590282	0.079864
C110	C	1.311844	-0.256948	0.413197
C111	C	1.645178	0.076385	0.746530
C112	C	0.979165	-0.553865	0.000024
C113	C	1.312498	-0.220532	0.333357
C114	C	1.645832	0.112801	0.666690
C115	C	1.133800	0.090197	0.000044
C116	C	1.467133	0.423530	0.333377
C117	C	1.800466	0.756863	0.666711
C118	C	1.226090	0.091553	0.000043
C119	C	1.559424	0.424886	0.333376
C120	C	1.892757	0.758220	0.666709
C121	C	0.975239	0.222980	0.000024
C122	C	1.308572	0.556314	0.333358
C123	C	1.641906	0.889647	0.666691
C124	C	0.976595	0.300488	0.000016
C125	C	1.309928	0.633822	0.333350
C126	C	1.643262	0.967155	0.666683
N127	N	0.981769	0.095326	0.228212
N128	N	1.315103	0.428659	0.561546
N129	N	1.648436	0.761992	0.894879
N130	N	0.981790	0.095326	-0.228137
N131	N	1.315124	0.428659	0.105197
N132	N	1.648457	0.761992	0.438530
C133	C	1.038484	0.047863	0.453943
C134	C	1.371818	0.381196	0.787276
C135	C	1.705151	0.714530	1.120610
C136	C	1.038487	0.047861	0.546133
C137	C	1.371820	0.381195	0.879466
C138	C	1.705154	0.714528	1.212799
C139	C	0.925069	0.142791	0.546126
C140	C	1.258403	0.476124	0.879460
C141	C	1.591736	0.809457	1.212793
C142	C	0.925064	0.142788	0.453938
C143	C	1.258397	0.476122	0.787272
C144	C	1.591730	0.809455	1.120605
C145	C	0.981776	0.095325	0.407849
C146	C	1.315109	0.428659	0.741182
C147	C	1.648442	0.761992	1.074516
C148	C	0.981784	0.095326	0.592227
C149	C	1.315117	0.428659	0.925560
C150	C	1.648451	0.761993	1.258893
C151	C	0.981787	0.095325	0.692183
C152	C	1.315120	0.428658	1.025516
C153	C	1.648453	0.761991	1.358850
C154	C	0.981772	0.095326	0.307887
C155	C	1.315106	0.428659	0.641220
C156	C	1.648439	0.761992	0.974553
H157	H	0.421532	-0.021243	0.000028
H158	H	0.754865	0.312091	0.333362
H159	H	1.088198	0.645424	0.666695
C160	C	0.987042	-0.106176	-0.167609
C161	C	1.320375	0.227157	0.165724
C162	C	1.653708	0.560490	0.499057
N163	N	0.987575	-0.076006	-0.233761
N164	N	1.320909	0.257328	0.099572
N165	N	1.654242	0.590661	0.432905
C166	C	0.984348	-0.259104	-0.167616
C167	C	1.317681	0.074230	0.165717
C168	C	1.651015	0.407563	0.499050
N169	N	0.983823	-0.289265	-0.233768
N170	N	1.317156	0.044069	0.099565
N171	N	1.650489	0.377402	0.432899
H172	H	0.384704	0.209569	0.000039
H173	H	0.718038	0.542902	0.333372
H174	H	1.051371	0.876236	0.666706
H175	H	0.542014	0.211891	0.000027
H176	H	0.875347	0.545224	0.333361
H177	H	1.208680	0.878558	0.666694
C178	C	0.979211	-0.550242	0.167689
C179	C	1.312544	-0.216908	0.501022
C180	C	1.645878	0.116425	0.834355
N181	N	0.979737	-0.520084	0.233843
N182	N	1.313070	-0.186750	0.567176
N183	N	1.646403	0.146583	0.900509
H184	H	0.578855	-0.018910	0.000028
H185	H	0.912189	0.314423	0.333361
H186	H	1.245522	0.647756	0.666695
C187	C	1.100862	-0.004353	0.403248
C188	C	1.434196	0.328980	0.736581
C189	C	1.767529	0.662313	1.069915
N190	N	1.147845	-0.043686	0.365067
N191	N	1.481178	0.289647	0.698400
N192	N	1.814512	0.622980	1.031734
C193	C	1.100864	-0.004357	0.596832
C194	C	1.434198	0.328976	0.930165
C195	C	1.767531	0.662310	1.263498
N196	N	1.147847	-0.043692	0.635018
N197	N	1.481180	0.289641	0.968351
N198	N	1.814514	0.622974	1.301684
H199	H	0.878897	0.181435	0.583662
H200	H	1.212230	0.514768	0.916995
H201	H	1.545563	0.848102	1.250328
C202	C	0.984320	-0.259142	0.167703
C203	C	1.317653	0.074191	0.501036
C204	C	1.650987	0.407525	0.834369
N205	N	0.983784	-0.289321	0.233848
N206	N	1.317118	0.044012	0.567181
N207	N	1.650451	0.377345	0.900515
H208	H	0.878880	0.181438	0.416406
H209	H	1.212214	0.514772	0.749740
H210	H	1.545547	0.848105	1.083073
H211	H	0.986812	-0.116611	0.144904
H212	H	1.320146	0.216722	0.478238
H213	H	1.653479	0.550055	0.811571
H214	H	0.976721	-0.692727	-0.144829
H215	H	1.310055	-0.359393	0.188504
H216	H	1.643388	-0.026060	0.521837
C217	C	0.979235	-0.550203	-0.167638
C218	C	1.312568	-0.216870	0.165696
C219	C	1.645902	0.116463	0.499029
N220	N	0.979765	-0.520030	-0.233788
N221	N	1.313098	-0.186697	0.099545
N222	N	1.646432	0.146636	0.432878
C223	C	0.976523	-0.703171	0.167679
C224	C	1.309856	-0.369838	0.501012
C225	C	1.643190	-0.036505	0.834346
N226	N	0.975991	-0.733350	0.233825
N227	N	1.309324	-0.400017	0.567158
N228	N	1.642657	-0.066684	0.900492
