data_functionalizedCrystal
_audit_creation_method	'MofGen! by Chris Wilmer'
_symmetry_space_group_name_H-M	'P1'
_symmetry_Int_Tables_number	1
_symmetry_cell_setting	triclinic
loop_
_symmetry_equiv_pos_as_xyz
  x,y,z
_cell_length_a	12.594516
_cell_length_b	12.594517
_cell_length_c	16.625539
_cell_angle_alpha	90.025391
_cell_angle_beta	89.975805
_cell_angle_gamma	89.986890
loop_
_atom_site_label
_atom_site_type_symbol
_atom_site_fract_x
_atom_site_fract_y
_atom_site_fract_z
Zn1	Zn	-0.423884	-1.627247	-0.456036
Zn2	Zn	-0.090551	-1.293914	-0.122703
Zn3	Zn	0.242783	-0.960580	0.210631
Zn4	Zn	-0.601885	-1.627132	-0.321213
Zn5	Zn	-0.268552	-1.293799	0.012120
Zn6	Zn	0.064781	-0.960466	0.345454
Zn7	Zn	-0.423905	-1.449252	-0.321205
Zn8	Zn	-0.090572	-1.115919	0.012128
Zn9	Zn	0.242761	-0.782585	0.345461
Zn10	Zn	-0.601805	-1.449226	-0.455991
Zn11	Zn	-0.268472	-1.115893	-0.122658
Zn12	Zn	0.064862	-0.782560	0.210675
O13	O	-0.512870	-1.538214	-0.388611
O14	O	-0.179537	-1.204881	-0.055278
O15	O	0.153797	-0.871548	0.278055
O16	O	-0.447521	-1.776177	-0.438173
O17	O	-0.114187	-1.442844	-0.104840
O18	O	0.219146	-1.109511	0.228493
O19	O	-0.578318	-1.603499	-0.208380
O20	O	-0.244985	-1.270166	0.124954
O21	O	0.088348	-0.936832	0.458287
O22	O	-0.274957	-1.472922	-0.339106
O23	O	0.058377	-1.139589	-0.005773
O24	O	0.391710	-0.806255	0.327560
O25	O	-0.578298	-1.776093	-0.339119
O26	O	-0.244964	-1.442760	-0.005786
O27	O	0.088369	-1.109427	0.327547
O28	O	-0.274941	-1.603694	-0.438166
O29	O	0.058392	-1.270361	-0.104833
O30	O	0.391726	-0.937027	0.228501
O31	O	-0.447557	-1.472811	-0.208374
O32	O	-0.114224	-1.139478	0.124959
O33	O	0.219109	-0.806144	0.458293
O34	O	-0.447480	-1.300303	-0.339063
O35	O	-0.114146	-0.966970	-0.005730
O36	O	0.219187	-0.633636	0.327604
O37	O	-0.578161	-1.472878	-0.568830
O38	O	-0.244828	-1.139545	-0.235497
O39	O	0.088506	-0.806212	0.097837
O40	O	-0.578182	-1.300284	-0.438090
O41	O	-0.244848	-0.966951	-0.104757
O42	O	0.088485	-0.633617	0.228577
O43	O	-0.447443	-1.603669	-0.568863
O44	O	-0.114110	-1.270336	-0.235529
O45	O	0.219224	-0.937002	0.097804
O46	O	-0.750820	-1.603474	-0.339076
O47	O	-0.417487	-1.270141	-0.005743
O48	O	-0.084154	-0.936807	0.327590
O49	O	-0.750762	-1.472767	-0.438097
O50	O	-0.417428	-1.139434	-0.104764
O51	O	-0.084095	-0.806101	0.228569
C52	C	-0.789411	-1.538134	-0.388600
C53	C	-0.456078	-1.204801	-0.055267
C54	C	-0.122744	-0.871468	0.278066
C55	C	-0.907716	-1.538198	-0.388623
C56	C	-0.574383	-1.204864	-0.055289
C57	C	-0.241050	-0.871531	0.278044
C58	C	-0.512825	-1.261673	-0.388571
C59	C	-0.179492	-0.928340	-0.055238
C60	C	0.153842	-0.595007	0.278095
C61	C	-0.512832	-1.143368	-0.388573
C62	C	-0.179498	-0.810035	-0.055240
C63	C	0.153835	-0.476701	0.278093
C64	C	-1.047740	-1.467164	-0.442453
C65	C	-0.714406	-1.133831	-0.109120
C66	C	-0.381073	-0.800497	0.224214
C67	C	-0.976838	-1.564199	-0.462241
C68	C	-0.643505	-1.230865	-0.128908
C69	C	-0.310172	-0.897532	0.204425
C70	C	-0.977046	-1.441173	-0.368870
C71	C	-0.643713	-1.107839	-0.035537
C72	C	-0.310379	-0.774506	0.297797
C73	C	-1.047600	-1.635457	-0.408479
C74	C	-0.714267	-1.302124	-0.075146
C75	C	-0.380934	-0.968791	0.258187
C76	C	-1.047814	-1.512366	-0.315074
C77	C	-0.714481	-1.179033	0.018260
C78	C	-0.381148	-0.845699	0.351593
C79	C	-0.976945	-1.609468	-0.334834
C80	C	-0.643612	-1.276134	-0.001501
C81	C	-0.310278	-0.942801	0.331833
C82	C	-0.441640	-1.074094	-0.334811
C83	C	-0.108306	-0.740761	-0.001478
C84	C	0.225027	-0.407428	0.331856
C85	C	-0.538721	-1.003280	-0.314976
C86	C	-0.205388	-0.669947	0.018357
C87	C	0.127945	-0.336613	0.351691
C88	C	-0.415780	-1.003383	-0.408410
C89	C	-0.082447	-0.670050	-0.075076
C90	C	0.250887	-0.336717	0.258257
C91	C	-0.609964	-1.074112	-0.368700
C92	C	-0.276631	-0.740778	-0.035366
C93	C	0.056703	-0.407445	0.297967
C94	C	-0.486957	-1.074222	-0.462168
C95	C	-0.153624	-0.740888	-0.128834
C96	C	0.179709	-0.407555	0.204499
C97	C	-0.584106	-1.003439	-0.442360
C98	C	-0.250772	-0.670106	-0.109027
C99	C	0.082561	-0.336772	0.224306
C100	C	-0.235249	-1.538324	-0.388640
C101	C	0.098084	-1.204990	-0.055307
C102	C	0.431418	-0.871657	0.278026
C103	C	-0.116944	-1.538370	-0.388652
C104	C	0.216390	-1.205037	-0.055319
C105	C	0.549723	-0.871704	0.278014
C106	C	-0.512791	-1.538284	-0.598920
C107	C	-0.179457	-1.204950	-0.265587
C108	C	0.153876	-0.871617	0.067746
C109	C	-0.512757	-1.538313	-0.688542
C110	C	-0.179424	-1.204980	-0.355208
C111	C	0.153910	-0.871646	-0.021875
C112	C	-0.512894	-0.815835	-0.388637
C113	C	-0.179561	-0.482502	-0.055304
C114	C	0.153772	-0.149169	0.278029
C115	C	-0.512850	-0.934141	-0.388610
C116	C	-0.179517	-0.600807	-0.055277
C117	C	0.153816	-0.267474	0.278056
C118	C	-0.512638	-1.538362	-1.016717
C119	C	-0.179304	-1.205029	-0.683384
C120	C	0.154029	-0.871695	-0.350051
C121	C	-0.512674	-1.538346	-0.925409
C122	C	-0.179341	-1.205012	-0.592076
C123	C	0.153992	-0.871679	-0.258742
C124	C	-0.512698	-1.538338	-0.852632
C125	C	-0.179365	-1.205005	-0.519299
C126	C	0.153969	-0.871672	-0.185966
C127	C	-0.512733	-1.538320	-0.761318
C128	C	-0.179400	-1.204987	-0.427985
C129	C	0.153934	-0.871654	-0.094651
C130	C	-0.512872	-1.538207	-0.179121
C131	C	-0.179539	-1.204873	0.154213
C132	C	0.153795	-0.871540	0.487546
C133	C	-0.512606	-1.538383	-0.089500
C134	C	-0.179273	-1.205050	0.243833
C135	C	0.154061	-0.871717	0.577167
H136	H	-1.078821	-1.407095	-0.487998
H137	H	-0.745488	-1.073762	-0.154664
H138	H	-0.412154	-0.740428	0.178669
H139	H	-1.079012	-1.490409	-0.252880
H140	H	-0.745679	-1.157076	0.080453
H141	H	-0.412345	-0.823742	0.413786
H142	H	-0.644388	-0.972611	-0.487841
H143	H	-0.311054	-0.639277	-0.154508
H144	H	0.022279	-0.305944	0.178826
C145	C	-0.568303	-0.961176	-0.230920
C146	C	-0.234969	-0.627843	0.102414
C147	C	0.098364	-0.294509	0.435747
N148	N	-0.590575	-0.929464	-0.167607
N149	N	-0.257242	-0.596131	0.165726
N150	N	0.076091	-0.262798	0.499060
H151	H	-0.381502	-1.105118	-0.289296
H152	H	-0.048168	-0.771784	0.044038
H153	H	0.285165	-0.438451	0.377371
H154	H	-0.692072	-1.105050	-0.351869
H155	H	-0.358738	-0.771717	-0.018535
H156	H	-0.025405	-0.438384	0.314798
H157	H	-0.333707	-0.972259	-0.425144
H158	H	-0.000374	-0.638926	-0.091811
H159	H	0.332959	-0.305593	0.241523
C160	C	-0.934728	-1.593827	-0.546286
C161	C	-0.601395	-1.260494	-0.212953
C162	C	-0.268062	-0.927161	0.120380
N163	N	-0.903018	-1.616139	-0.609591
N164	N	-0.569684	-1.282806	-0.276258
N165	N	-0.236351	-0.949472	0.057075
C166	C	-1.089294	-1.746438	-0.431170
C167	C	-0.755961	-1.413104	-0.097837
C168	C	-0.422627	-1.079771	0.235496
N169	N	-1.120700	-1.830025	-0.448265
N170	N	-0.787367	-1.496691	-0.114931
N171	N	-0.454033	-1.163358	0.218402
H172	H	-0.946058	-1.669680	-0.289324
H173	H	-0.612724	-1.336347	0.044009
H174	H	-0.279391	-1.003013	0.377343
C175	C	-0.935176	-1.330223	-0.346279
C176	C	-0.601843	-0.996889	-0.012946
C177	C	-0.268510	-0.663556	0.320387
N178	N	-0.903645	-1.246653	-0.329269
N179	N	-0.570311	-0.913319	0.004064
N180	N	-0.236978	-0.579986	0.337397
H181	H	-0.465028	-1.105406	-0.524370
H182	H	-0.131694	-0.772073	-0.191037
H183	H	0.201639	-0.438740	0.142296
