data_functionalizedCrystal
_audit_creation_method	'MofGen! by Chris Wilmer'
_symmetry_space_group_name_H-M	'P1'
_symmetry_Int_Tables_number	1
_symmetry_cell_setting	triclinic
loop_
_symmetry_equiv_pos_as_xyz
  x,y,z
_cell_length_a	9.065218
_cell_length_b	12.376457
_cell_length_c	13.262975
_cell_angle_alpha	63.189128
_cell_angle_beta	84.717314
_cell_angle_gamma	101.462611
loop_
_atom_site_label
_atom_site_type_symbol
_atom_site_fract_x
_atom_site_fract_y
_atom_site_fract_z
O1	O	1.973430	0.049943	0.143349
O2	O	1.542743	0.045795	0.156848
O3	O	1.783919	0.098050	-0.013171
O4	O	1.732253	-0.002311	0.313369
O5	O	1.723650	-0.103008	0.029275
O6	O	1.482474	-0.155262	0.199295
O7	O	1.913161	-0.151115	0.185796
Zn8	Zn	1.688248	-0.185111	0.199284
Zn9	Zn	1.767655	0.079792	0.143359
O10	O	1.671984	-0.203369	0.355815
C11	C	1.457757	-0.054335	0.176774
C12	C	1.294317	-0.053142	0.172895
N13	N	1.634066	-0.365899	0.237451
C14	C	1.947626	-0.652996	0.016565
C15	C	1.985540	-0.526446	-0.010149
C16	C	1.897675	-0.486303	0.051749
C17	C	1.771889	-0.572723	0.140365
C18	C	1.733978	-0.699287	0.167086
C19	C	1.684027	-0.532594	0.202271
C20	C	1.558241	-0.619014	0.290886
C21	C	1.520336	-0.745565	0.317603
C22	C	1.608202	-0.785708	0.255706
C23	C	1.721937	-0.406029	0.175549
C24	C	1.508290	-0.452320	0.326070
C25	C	1.470375	-0.578871	0.352784
C26	C	1.998148	-0.050982	0.165869
C27	C	2.161590	-0.052167	0.169747
C28	C	1.756425	0.010379	-0.033775
C29	C	1.764274	0.048691	-0.158406
N30	N	1.821850	0.260583	0.105184
C31	C	1.800835	0.176297	-0.240072
C32	C	1.808235	0.212321	-0.357176
C33	C	1.779086	0.120744	-0.392626
C34	C	1.742534	-0.006864	-0.310960
C35	C	1.735122	-0.042892	-0.193844
C36	C	1.713372	-0.098445	-0.346398
C37	C	1.676821	-0.226053	-0.264732
C38	C	1.669411	-0.262075	-0.147628
C39	C	1.698560	-0.170498	-0.112177
C40	C	1.720785	-0.062416	-0.463515
C41	C	1.655071	-0.281605	-0.417287
C42	C	1.647672	-0.317630	-0.300183
C43	C	1.699479	-0.115696	0.376418
C44	C	1.691633	-0.154000	0.501047
H45	H	1.824353	-0.335677	0.103398
H46	H	1.631330	-0.356176	-0.446148
N47	N	1.787104	0.159598	-0.518933
H48	H	1.709699	0.208804	-0.548077
H49	H	1.893945	0.213757	-0.564261
H50	H	1.692545	-0.199822	-0.016824
H51	H	2.019163	-0.685692	-0.033819
H52	H	1.837999	0.316220	-0.423661
H53	H	1.824556	0.250845	-0.211194
N54	N	2.121196	-0.433242	-0.105721
H55	H	2.198476	-0.394127	-0.073216
H56	H	2.170978	-0.477957	-0.140842
N57	N	1.384666	-0.838773	0.413177
H58	H	1.420955	-0.906733	0.474564
H59	H	1.334812	-0.794037	0.448236
H60	H	1.928550	-0.383259	0.029995
N61	N	1.413511	-0.409025	0.392826
H62	H	1.303422	-0.426752	0.383439
H63	H	1.417126	-0.455592	0.477289
H64	H	1.750541	0.041483	-0.529996
N65	N	1.629974	-0.399706	-0.059542
H66	H	1.612637	-0.452255	-0.099765
H67	H	1.717573	-0.416917	-0.018104
N68	N	1.567305	-0.922206	0.284520
H69	H	1.642052	-0.934516	0.231857
H70	H	1.573006	-0.976111	0.367462
H71	H	1.367958	-0.649249	0.424937
N72	N	1.608253	-0.455257	-0.212089
H73	H	1.511617	-0.477592	-0.154312
H74	H	1.590992	-0.507724	-0.252393
