data_functionalizedCrystal
_audit_creation_method	'MofGen! by Chris Wilmer'
_symmetry_space_group_name_H-M	'P1'
_symmetry_Int_Tables_number	1
_symmetry_cell_setting	triclinic
loop_
_symmetry_equiv_pos_as_xyz
  x,y,z
_cell_length_a	18.215407
_cell_length_b	12.759399
_cell_length_c	18.215399
_cell_angle_alpha	89.972629
_cell_angle_beta	89.986109
_cell_angle_gamma	90.012575
loop_
_atom_site_label
_atom_site_type_symbol
_atom_site_fract_x
_atom_site_fract_y
_atom_site_fract_z
Zn1	Zn	1.125100	-0.418323	-0.416074
Zn2	Zn	1.125036	-0.594028	-0.293014
Zn3	Zn	1.002039	-0.418356	-0.293027
Zn4	Zn	1.002019	-0.593953	-0.416045
O5	O	1.063549	-0.506165	-0.354540
O6	O	1.228076	-0.441649	-0.399756
O7	O	1.108701	-0.570770	-0.190031
O8	O	1.018398	-0.271331	-0.309367
O9	O	1.228029	-0.570738	-0.309344
O10	O	1.108811	-0.271307	-0.399769
O11	O	1.018336	-0.441704	-0.190041
O12	O	0.899052	-0.441632	-0.309339
O13	O	1.018365	-0.570610	-0.519033
O14	O	0.899038	-0.570642	-0.399720
O15	O	1.108792	-0.441576	-0.519054
O16	O	1.108682	-0.741039	-0.309316
O17	O	1.018303	-0.740984	-0.399707
C18	C	0.872342	-0.506133	-0.354528
C19	C	0.790543	-0.506144	-0.354541
C20	C	0.525498	-0.573451	-0.401536
C21	C	0.602356	-0.573442	-0.401533
C22	C	0.602341	-0.438903	-0.307556
C23	C	0.525483	-0.438918	-0.307557
C24	C	0.487064	-0.506190	-0.354551
C25	C	0.640780	-0.506166	-0.354547
C26	C	0.724114	-0.506156	-0.354543
C27	C	0.403725	-0.506202	-0.354554
C28	C	1.063504	-0.779133	-0.354523
C29	C	1.063552	-0.895909	-0.354541
C30	C	1.110666	-0.950765	-0.307528
C31	C	1.110713	-1.060489	-0.307552
C32	C	1.016525	-1.060492	-0.401605
C33	C	1.016482	-0.950770	-0.401583
C34	C	1.197581	-1.210371	-0.281362
C35	C	1.244688	-1.265230	-0.234338
C36	C	1.256018	-1.229685	-0.162532
C37	C	1.220228	-1.139281	-0.137736
C38	C	1.173115	-1.084427	-0.184756
C39	C	1.161800	-1.119971	-0.256572
C40	C	0.929614	-0.800886	-0.427766
C41	C	0.882496	-0.746030	-0.474783
C42	C	0.871160	-0.781574	-0.546590
C43	C	0.906936	-0.871981	-0.571384
C44	C	0.954054	-0.926836	-0.524367
C45	C	0.965392	-0.891285	-0.452560
C46	C	1.255502	-0.506198	-0.354552
C47	C	1.337300	-0.506212	-0.354557
C48	C	1.063583	-0.506081	-0.546493
C49	C	1.063598	-0.506045	-0.628292
C50	C	1.063614	-0.232132	-0.354573
C51	C	1.063642	-0.115355	-0.354587
C52	C	1.016585	-0.438796	-0.816492
C53	C	1.016598	-0.438774	-0.893351
C54	C	1.110700	-0.573170	-0.893330
C55	C	1.110683	-0.573196	-0.816472
C56	C	1.063626	-0.506003	-0.778055
C57	C	1.063656	-0.505956	-0.931771
C58	C	1.063670	-0.505933	-1.015105
C59	C	1.063611	-0.506026	-0.694716
C60	C	1.063556	-0.506173	-0.163334
C61	C	1.063684	-0.505913	-0.081535
H62	H	0.633631	-0.384130	-0.269296
H63	H	0.978291	-0.384049	-0.924642
N64	N	0.843935	-0.648468	-0.448094
H65	H	0.789056	-0.658875	-0.451196
H66	H	0.858321	-0.634263	-0.395488
H67	H	0.494219	-0.628229	-0.439802
N68	N	1.161448	-0.645644	-0.934765
H69	H	1.154322	-0.635431	-0.989287
H70	H	1.214009	-0.629308	-0.921336
N71	N	1.161419	-0.645693	-0.775010
H72	H	1.191234	-0.688250	-0.811008
H73	H	1.195477	-0.602943	-0.743127
H74	H	1.148994	-0.906100	-0.269224
N75	N	0.643811	-0.645992	-0.452206
H76	H	0.607807	-0.688609	-0.481974
H77	H	0.675714	-0.603280	-0.486312
N78	N	0.965823	-0.366340	-0.775058
H79	H	0.972949	-0.376550	-0.720536
H80	H	0.977293	-0.291302	-0.788505
N81	N	1.134511	-0.986930	-0.158022
H82	H	1.148832	-0.972736	-0.105394
H83	H	1.149219	-0.925400	-0.189677
H84	H	1.229450	-1.110353	-0.079261
H85	H	0.494190	-0.384144	-0.269292
N86	N	1.306802	-1.288874	-0.111802
H87	H	1.327746	-1.351543	-0.138401
H88	H	1.348098	-1.241286	-0.095756
H89	H	1.188368	-1.239314	-0.339834
N90	N	1.283286	-1.362737	-0.261076
H91	H	1.268968	-1.376928	-0.313705
H92	H	1.338149	-1.352215	-0.257915
N93	N	0.941847	-0.762545	-0.350315
H94	H	0.912028	-0.696954	-0.341742
H95	H	0.926084	-0.818591	-0.314450
N96	N	0.820335	-0.722411	-0.597300
H97	H	0.818585	-0.758651	-0.646552
H98	H	0.769435	-0.720520	-0.575344
N99	N	0.965757	-1.119663	-0.452338
H100	H	0.972930	-1.197496	-0.445217
H101	H	0.913198	-1.100551	-0.440834
H102	H	0.983188	-1.000448	-0.544561
H103	H	0.897706	-0.900921	-0.629855
