data_functionalizedCrystal
_audit_creation_method	'MofGen! by Chris Wilmer'
_symmetry_space_group_name_H-M	'P1'
_symmetry_Int_Tables_number	1
_symmetry_cell_setting	triclinic
loop_
_symmetry_equiv_pos_as_xyz
  x,y,z
_cell_length_a	18.050591
_cell_length_b	21.295417
_cell_length_c	18.050582
_cell_angle_alpha	90.025708
_cell_angle_beta	90.020922
_cell_angle_gamma	90.025707
loop_
_atom_site_label
_atom_site_type_symbol
_atom_site_fract_x
_atom_site_fract_y
_atom_site_fract_z
Zn1	Zn	1.135285	-0.250716	0.420015
Zn2	Zn	1.635285	0.249284	0.920015
Zn3	Zn	1.135192	-0.355977	0.295818
Zn4	Zn	1.635192	0.144023	0.795818
Zn5	Zn	1.011104	-0.250719	0.295826
Zn6	Zn	1.511104	0.249281	0.795826
Zn7	Zn	1.011049	-0.355944	0.419954
Zn8	Zn	1.511049	0.144056	0.919954
O9	O	1.073158	-0.303339	0.357903
O10	O	1.573158	0.196661	0.857903
O11	O	1.239197	-0.264692	0.403563
O12	O	1.739197	0.235308	0.903563
O13	O	1.118716	-0.342030	0.191895
O14	O	1.618716	0.157970	0.691895
O15	O	1.027639	-0.162629	0.312329
O16	O	1.527639	0.337371	0.812329
O17	O	1.239129	-0.342027	0.312316
O18	O	1.739129	0.157973	0.812316
O19	O	1.118874	-0.162627	0.403570
O20	O	1.618874	0.337373	0.903570
O21	O	1.027549	-0.264697	0.191901
O22	O	1.527549	0.235303	0.691901
O23	O	0.907172	-0.264664	0.312270
O24	O	1.407172	0.235336	0.812270
O25	O	1.027545	-0.341970	0.523887
O26	O	1.527545	0.158030	1.023887
O27	O	0.907132	-0.341973	0.403466
O28	O	1.407132	0.158027	0.903466
O29	O	1.118820	-0.264660	0.523932
O30	O	1.618820	0.235340	1.023932
O31	O	1.118663	-0.444062	0.312256
O32	O	1.618663	0.055938	0.812256
O33	O	1.027455	-0.444038	0.403458
O34	O	1.527455	0.055962	0.903458
C35	C	0.880205	-0.303316	0.357862
C36	C	1.380205	0.196684	0.857862
C37	C	0.797660	-0.303321	0.357862
C38	C	1.297660	0.196679	0.857862
C39	C	0.598210	-0.261232	0.308384
C40	C	1.098210	0.238768	0.808384
C41	C	0.548788	-0.318646	0.290105
C42	C	1.048788	0.181354	0.790105
C43	C	0.646529	-0.303340	0.357896
C44	C	1.146529	0.196660	0.857896
C45	C	0.548869	-0.245945	0.376174
C46	C	1.048869	0.254055	0.876174
C47	C	0.500544	-0.303353	0.357927
C48	C	1.000544	0.196647	0.857927
C49	C	0.598195	-0.360785	0.339581
C50	C	1.098195	0.139215	0.839581
C51	C	0.598280	-0.288045	0.425682
C52	C	1.098280	0.211955	0.925682
C53	C	0.548881	-0.345499	0.407428
C54	C	1.048881	0.154501	0.907428
C55	C	0.730628	-0.303331	0.357876
C56	C	1.230628	0.196669	0.857876
C57	C	0.416448	-0.303368	0.357947
C58	C	0.916448	0.196632	0.857947
C59	C	1.073063	-0.466891	0.357866
C60	C	1.573063	0.033109	0.857866
C61	C	1.073090	-0.536859	0.357875
C62	C	1.573090	-0.036859	0.857875
C63	C	1.120569	-0.569667	0.405418
C64	C	1.620569	-0.069667	0.905418
C65	C	1.120595	-0.635410	0.405436
C66	C	1.620595	-0.135410	0.905436
C67	C	1.073151	-0.668341	0.357898
C68	C	1.573151	-0.168341	0.857898
C69	C	1.025662	-0.635525	0.310352
C70	C	1.525662	-0.135525	0.810352
C71	C	1.025632	-0.569784	0.310340
C72	C	1.525632	-0.069784	0.810340
N73	N	1.067546	-0.771598	0.292903
N74	N	1.567546	-0.271598	0.792903
N75	N	1.067579	-0.834050	0.292916
N76	N	1.567579	-0.334050	0.792916
C77	C	1.073237	-0.866416	0.357932
C78	C	1.573237	-0.366416	0.857932
N79	N	1.078876	-0.833972	0.422935
N80	N	1.578876	-0.333972	0.922935
N81	N	1.078846	-0.771515	0.422920
N82	N	1.578846	-0.271515	0.922920
C83	C	1.073178	-0.739627	0.357906
C84	C	1.573178	-0.239627	0.857906
C85	C	1.120747	-0.970510	0.405499
C86	C	1.620747	-0.470510	0.905499
C87	C	1.120768	-1.036254	0.405518
C88	C	1.620768	-0.536254	0.905518
C89	C	1.025839	-1.036368	0.310427
C90	C	1.525839	-0.536368	0.810427
C91	C	1.025814	-0.970625	0.310414
C92	C	1.525814	-0.470625	0.810414
C93	C	1.073272	-0.937700	0.357949
C94	C	1.573272	-0.437700	0.857949
C95	C	1.266863	-0.303363	0.357945
C96	C	1.766863	0.196637	0.857945
C97	C	1.349409	-0.303373	0.357963
C98	C	1.849409	0.196627	0.857963
C99	C	1.073187	-0.303311	0.551609
C100	C	1.573187	0.196689	1.051609
C101	C	1.073199	-0.303299	0.634155
C102	C	1.573199	0.196701	1.134155
C103	C	1.073273	-0.139149	0.357957
C104	C	1.573273	0.360851	0.857957
C105	C	1.073322	-0.069181	0.357980
C106	C	1.573322	0.430819	0.857980
C107	C	1.073171	-0.303322	0.164951
C108	C	1.573171	0.196678	0.664951
C109	C	1.073303	-0.303156	0.082406
C110	C	1.573303	0.196844	0.582406
C111	C	1.023601	-0.345283	0.833581
C112	C	1.523601	0.154717	1.333581
C113	C	1.091356	-0.360675	0.882979
C114	C	1.591356	0.139325	1.382979
C115	C	1.073236	-0.303251	0.785285
C116	C	1.573236	0.196749	1.285285
C117	C	1.005518	-0.287842	0.882970
C118	C	1.505518	0.212158	1.382970
C119	C	1.073265	-0.303206	0.931271
C120	C	1.573265	0.196794	1.431271
C121	C	1.141026	-0.318673	0.833596
C122	C	1.641026	0.181327	1.333596
C123	C	1.055142	-0.245814	0.833582
C124	C	1.555142	0.254186	1.333582
C125	C	1.122944	-0.261183	0.882958
C126	C	1.622944	0.238817	1.382958
C127	C	1.073218	-0.303279	0.701187
C128	C	1.573218	0.196721	1.201187
C129	C	1.073291	-0.303178	1.015367
C130	C	1.573291	0.196822	1.515367
H131	H	1.159252	-0.662128	0.444160
H132	H	1.659252	-0.162128	0.944160
H133	H	0.527163	-0.197408	0.391595
H134	H	1.027163	0.302592	0.891595
H135	H	0.986968	-0.543070	0.271624
H136	H	1.486968	-0.043070	0.771624
H137	H	0.527359	-0.381156	0.449311
H138	H	1.027359	0.118844	0.949311
H139	H	0.987204	-1.063180	0.271725
H140	H	1.487204	-0.563180	0.771725
H141	H	1.159210	-0.542862	0.444125
H142	H	1.659210	-0.042862	0.944125
C143	C	0.983567	-0.736353	0.268141
C144	C	1.483567	-0.236353	0.768141
C145	C	0.973511	-0.671721	0.258095
C146	C	1.473511	-0.171721	0.758095
H147	H	0.951371	-0.758697	0.235877
H148	H	1.451371	-0.258697	0.735877
H149	H	0.972670	-0.747107	0.318024
H150	H	1.472670	-0.247107	0.818024
H151	H	1.033480	-0.747089	0.257323
H152	H	1.533480	-0.247089	0.757323
H153	H	0.923600	-0.660984	0.268918
H154	H	1.423600	-0.160984	0.768918
H155	H	0.984404	-0.660963	0.208201
H156	H	1.484404	-0.160963	0.708201
H157	H	0.619868	-0.225660	0.266468
H158	H	1.119868	0.274340	0.766468
C159	C	1.214568	-0.976998	0.499507
C160	C	1.714568	-0.476998	0.999507
C161	C	1.172897	-0.934314	0.457761
C162	C	1.672897	-0.434314	0.957761
H163	H	1.246758	-0.954652	0.531776
H164	H	1.746758	-0.454652	1.031776
H165	H	1.243013	-1.002634	0.467189
H166	H	1.743013	-0.502634	0.967189
H167	H	1.182192	-1.002651	0.527878
H168	H	1.682192	-0.502651	1.027878
H169	H	1.205274	-0.908665	0.429386
H170	H	1.705274	-0.408665	0.929386
H171	H	1.144450	-0.908668	0.490083
H172	H	1.644450	-0.408668	0.990083
H173	H	0.620036	-0.275080	0.482976
H174	H	1.120036	0.224920	0.982976
H175	H	1.159431	-1.062965	0.444237
H176	H	1.659431	-0.562965	0.944237
C177	C	1.092861	-0.156572	0.761601
C178	C	1.592861	0.343428	1.261601
C179	C	1.034436	-0.180287	0.804261
C180	C	1.534436	0.319713	1.304261
H181	H	1.080071	-0.116117	0.743503
H182	H	1.580071	0.383883	1.243503
H183	H	1.101970	-0.183940	0.721054
H184	H	1.601970	0.316060	1.221054
H185	H	1.136162	-0.153567	0.791320
H186	H	1.636162	0.346433	1.291320
H187	H	0.991136	-0.183296	0.774541
H188	H	1.491136	0.316704	1.274541
H189	H	1.025317	-0.152912	0.844814
H190	H	1.525317	0.347088	1.344814
C191	C	0.567405	-0.466695	0.305790
C192	C	1.067405	0.033305	0.805790
C193	C	0.627315	-0.426337	0.318635
C194	C	1.127315	0.073663	0.818635
H195	H	0.585385	-0.507163	0.292862
H196	H	1.085385	-0.007163	0.792862
H197	H	0.538067	-0.450652	0.266424
H198	H	1.038067	0.049348	0.766424
H199	H	0.538138	-0.469647	0.349378
H200	H	1.038138	0.030353	0.849378
H201	H	0.656579	-0.423381	0.275045
H202	H	1.156579	0.076619	0.775045
H203	H	0.656665	-0.442384	0.358004
H204	H	1.156665	0.057616	0.858004
C205	C	0.931995	-0.977343	0.216417
C206	C	1.431995	-0.477343	0.716417
C207	C	0.973633	-0.934558	0.258142
C208	C	1.473633	-0.434558	0.758142
H209	H	0.899783	-0.955075	0.184143
H210	H	1.399783	-0.455075	0.684143
H211	H	0.903577	-1.002985	0.248748
H212	H	1.403577	-0.502985	0.748748
H213	H	0.964392	-1.002979	0.188052
H214	H	1.464392	-0.502979	0.688052
H215	H	0.941237	-0.908925	0.286512
H216	H	1.441237	-0.408925	0.786512
H217	H	1.002054	-0.908905	0.225807
H218	H	1.502054	-0.408905	0.725807
C219	C	0.986139	-0.453422	0.829244
C220	C	1.486139	0.046578	1.329244
C221	C	0.966992	-0.393327	0.804306
C222	C	1.466992	0.106673	1.304306
H223	H	0.951195	-0.483082	0.811166
H224	H	1.451195	0.016918	1.311166
H225	H	0.986071	-0.453998	0.881859
H226	H	1.486071	0.046002	1.381859
H227	H	1.034133	-0.463947	0.811608
H228	H	1.534133	0.036053	1.311608
H229	H	0.919000	-0.382801	0.821947
H230	H	1.419000	0.117199	1.321947
H231	H	0.967052	-0.392750	0.751680
H232	H	1.467052	0.107250	1.251680
C233	C	1.112482	-0.425338	0.989846
C234	C	1.612482	0.074662	1.489846
C235	C	1.112036	-0.426218	0.912281
C236	C	1.612036	0.073782	1.412281
H237	H	1.125248	-0.465802	1.007934
H238	H	1.625248	0.034198	1.507934
H239	H	1.064710	-0.414119	1.007469
H240	H	1.564710	0.085881	1.507469
H241	H	1.147800	-0.395503	1.006739
H242	H	1.647800	0.104497	1.506739
H243	H	1.076714	-0.456050	0.895388
H244	H	1.576714	0.043950	1.395388
H245	H	1.159815	-0.437446	0.894651
H246	H	1.659815	0.062554	1.394651
H247	H	1.198323	-0.331742	0.811998
H248	H	1.698323	0.168258	1.311998
H249	H	1.164979	-0.225619	0.904500
H250	H	1.664979	0.274381	1.404500
H251	H	0.527050	-0.331593	0.232793
H252	H	1.027050	0.168407	0.732793
H253	H	0.948238	-0.274828	0.904659
H254	H	1.448238	0.225172	1.404659
