data_functionalizedCrystal
_audit_creation_method	'MofGen! by Chris Wilmer'
_symmetry_space_group_name_H-M	'P1'
_symmetry_Int_Tables_number	1
_symmetry_cell_setting	triclinic
loop_
_symmetry_equiv_pos_as_xyz
  x,y,z
_cell_length_a	15.944551
_cell_length_b	17.699083
_cell_length_c	16.776229
_cell_angle_alpha	89.992455
_cell_angle_beta	89.997350
_cell_angle_gamma	83.390876
loop_
_atom_site_label
_atom_site_type_symbol
_atom_site_fract_x
_atom_site_fract_y
_atom_site_fract_z
O1	O	1.114322	0.097616	-0.066207
O2	O	0.869747	0.109651	-0.066227
O3	O	0.998944	-0.006544	-0.066209
O4	O	0.985125	0.213811	-0.066224
O5	O	0.998927	-0.006551	0.066367
O6	O	0.869730	0.109643	0.066350
O7	O	1.114305	0.097609	0.066370
Zn8	Zn	0.992015	0.103625	0.087409
Zn9	Zn	0.992037	0.103634	-0.087266
O10	O	0.985107	0.213803	0.066352
C11	C	0.998440	-0.034746	0.000079
C12	C	0.996955	-0.118766	0.000079
C13	C	0.838445	0.109147	0.000059
C14	C	0.745203	0.107650	0.000052
C15	C	1.072791	-0.167258	0.000087
C16	C	1.071390	-0.246203	0.000080
C17	C	0.994152	-0.276656	0.000071
C18	C	0.918310	-0.228158	0.000061
C19	C	0.919712	-0.149214	0.000063
C20	C	0.912656	-0.546531	0.000054
C21	C	0.911260	-0.625481	0.000055
C22	C	1.064334	-0.643520	0.000071
C23	C	1.065735	-0.564576	0.000073
C24	C	0.989894	-0.516085	0.000059
C25	C	0.991414	-0.430484	0.000065
C26	C	0.992632	-0.362256	0.000070
C27	C	0.530505	0.032046	0.000072
C28	C	0.469419	0.067158	-0.065297
C29	C	0.574482	0.104940	0.000061
C30	C	0.469425	0.067168	0.065413
C31	C	0.409575	0.102317	0.000074
C32	C	0.514625	0.140071	-0.065362
C33	C	0.514637	0.140071	0.065406
C34	C	0.453569	0.175235	0.000021
C35	C	0.669481	0.106449	0.000053
C36	C	0.314577	0.100814	0.000076
C37	C	1.145606	0.098112	0.000082
C38	C	1.238849	0.099610	0.000084
C39	C	0.985611	0.242005	0.000062
C40	C	0.987097	0.326026	0.000057
N41	N	0.992005	0.103618	0.206620
N42	N	0.992053	0.103635	-0.206477
C43	C	1.049231	0.052188	0.248345
C44	C	1.049236	0.052187	0.331797
C45	C	0.992018	0.103621	0.373523
C46	C	0.934786	0.155053	0.331793
C47	C	0.934778	0.155050	0.248342
C48	C	0.934816	0.155068	0.668340
C49	C	0.934830	0.155069	0.751796
C50	C	1.049274	0.052206	0.751795
C51	C	1.049266	0.052202	0.668345
C52	C	0.992032	0.103632	0.626621
C53	C	0.992026	0.103631	0.536133
C54	C	0.992027	0.103626	0.464010
H55	H	1.135687	-0.142470	0.000099
H56	H	0.888178	0.196928	0.214370
C57	C	0.541539	0.181709	-0.140093
H58	H	0.601030	0.182387	-0.139652
H59	H	0.514496	0.232418	-0.140265
H60	H	0.525709	0.156002	-0.186466
C61	C	0.442347	0.025520	-0.139953
H62	H	0.404608	0.059261	-0.170733
H63	H	0.414977	-0.017020	-0.124245
H64	H	0.490764	0.008642	-0.170947
H65	H	0.850901	-0.507059	0.000043
H66	H	1.128630	-0.539786	0.000084
C67	C	1.154810	-0.299541	0.000096
H68	H	1.201010	-0.270098	0.000113
H69	H	1.157460	-0.330708	-0.046136
H70	H	1.157432	-0.330716	0.046335
H71	H	0.855422	-0.252959	0.000049
C72	C	0.575700	-0.049678	-0.000021
H73	H	0.560342	-0.075450	-0.046527
H74	H	0.559595	-0.075850	0.045942
H75	H	0.635060	-0.048145	0.000443
H76	H	0.888234	0.196954	0.785768
H77	H	0.857958	-0.109733	0.000056
C78	C	0.442366	0.025504	0.140070
H79	H	0.404618	0.059228	0.170853
H80	H	0.490781	0.008612	0.171055
H81	H	0.414990	-0.017031	0.124355
H82	H	0.420283	0.235793	-0.000020
H83	H	0.534696	0.170873	0.120670
H84	H	1.095828	0.010308	0.214378
C85	C	1.112192	-0.004378	0.377692
H86	H	1.146276	-0.035002	0.340889
H87	H	1.082057	-0.035907	0.410258
H88	H	1.147100	0.022881	0.410233
H89	H	1.126087	-0.683011	0.000078
C90	C	1.112203	-0.004376	0.622450
H91	H	1.146281	-0.035012	0.659253
H92	H	1.147106	0.022866	0.589884
H93	H	1.082043	-0.035903	0.589910
H94	H	1.095875	0.010327	0.785775
C95	C	0.871849	0.211630	0.377689
H96	H	0.880055	0.204273	0.433365
H97	H	0.815808	0.203380	0.364024
H98	H	0.880870	0.262150	0.363999
C99	C	0.871884	0.211656	0.622451
H100	H	0.880069	0.204290	0.566774
H101	H	0.880918	0.262169	0.636125
H102	H	0.815839	0.203414	0.636131
C103	C	0.826294	-0.658978	0.000035
H104	H	0.781326	-0.618793	0.000018
H105	H	0.822554	-0.689405	0.046265
H106	H	0.822584	-0.689393	-0.046205
