data_functionalizedCrystal
_audit_creation_method	'MofGen! by Chris Wilmer'
_symmetry_space_group_name_H-M	'P1'
_symmetry_Int_Tables_number	1
_symmetry_cell_setting	triclinic
loop_
_symmetry_equiv_pos_as_xyz
  x,y,z
_cell_length_a	8.559649
_cell_length_b	12.503572
_cell_length_c	8.559649
_cell_angle_alpha	86.971031
_cell_angle_beta	69.778664
_cell_angle_gamma	93.020673
loop_
_atom_site_label
_atom_site_type_symbol
_atom_site_fract_x
_atom_site_fract_y
_atom_site_fract_z
O1	O	2.137386	0.089304	-0.065566
O2	O	1.661902	0.089308	0.018215
O3	O	1.941534	0.089305	-0.261418
O4	O	1.857754	0.089307	0.214067
O5	O	1.920500	-0.089337	-0.240357
O6	O	1.640868	-0.089334	0.039276
O7	O	2.116352	-0.089338	-0.044505
Cu8	Cu	1.876690	-0.105647	-0.000692
Cu9	Cu	1.901564	0.105617	-0.025599
O10	O	1.836720	-0.089334	0.235128
C11	C	1.591076	-0.000012	0.035094
C12	C	1.411377	-0.000010	0.053993
N13	N	1.859206	-0.254239	0.016824
C14	C	1.833485	-0.473354	0.042604
C15	C	1.944778	-0.526683	-0.068903
C16	C	1.930466	-0.648606	-0.054559
C17	C	1.847794	-0.351420	0.028262
C18	C	2.187178	-0.000015	-0.061385
C19	C	2.366878	-0.000010	-0.080285
C20	C	1.937367	-0.000014	-0.311197
C21	C	1.956267	-0.000009	-0.490897
N22	N	1.919063	0.254209	-0.043129
C23	C	1.840887	-0.000013	0.284906
C24	C	1.821988	-0.000012	0.464605
H25	H	1.466257	-0.000005	-0.209705
C26	C	1.649333	0.000164	-0.403091
C27	C	1.573803	0.092057	-0.432300
C28	C	1.414742	0.092249	-0.310459
H29	H	1.658908	0.000225	-0.295796
H30	H	1.583080	-0.062100	-0.407946
H31	H	1.640039	0.154305	-0.427430
H32	H	1.564184	0.092016	-0.539572
H33	H	1.348489	0.029984	-0.315313
H34	H	1.424333	0.092307	-0.203172
H35	H	1.363469	0.154592	-0.330269
C36	C	2.128971	0.000154	-0.623249
C37	C	2.226142	0.092050	-0.615725
C38	C	2.385249	0.092229	-0.737605
H39	H	2.119414	0.000202	-0.730558
H40	H	2.180559	-0.062109	-0.603696
H41	H	2.174567	0.154296	-0.635289
H42	H	2.235748	0.092020	-0.508443
H43	H	2.436837	0.029967	-0.718052
H44	H	2.375675	0.092275	-0.844906
H45	H	2.451204	0.154574	-0.732506
C46	C	1.692058	-0.534702	0.184029
C47	C	1.595742	-0.599298	0.117432
C48	C	1.465467	-0.655853	0.247661
H49	H	1.623928	-0.485339	0.252199
H50	H	1.737161	-0.578631	0.249362
H51	H	1.550640	-0.555374	0.052127
H52	H	1.663824	-0.648682	0.049277
H53	H	1.510570	-0.699781	0.312995
H54	H	1.397350	-0.606482	0.315823
H55	H	1.400110	-0.699695	0.202494
C56	C	2.085783	-0.465469	-0.210931
C57	C	2.018543	-0.401043	-0.306877
C58	C	2.148315	-0.344683	-0.437845
H59	H	2.153611	-0.514948	-0.279125
H60	H	2.151585	-0.421441	-0.166486
H61	H	1.952770	-0.445067	-0.351322
H62	H	1.950729	-0.351544	-0.238732
H63	H	2.214116	-0.300655	-0.393399
H64	H	2.216134	-0.394170	-0.506025
H65	H	2.102711	-0.300956	-0.502951
H66	H	1.311989	-0.000004	0.183420
