data_functionalizedCrystal
_audit_creation_method	'MofGen! by Chris Wilmer'
_symmetry_space_group_name_H-M	'P1'
_symmetry_Int_Tables_number	1
_symmetry_cell_setting	triclinic
loop_
_symmetry_equiv_pos_as_xyz
  x,y,z
_cell_length_a	16.992694
_cell_length_b	15.995350
_cell_length_c	16.053802
_cell_angle_alpha	92.567808
_cell_angle_beta	87.249047
_cell_angle_gamma	87.080299
loop_
_atom_site_label
_atom_site_type_symbol
_atom_site_fract_x
_atom_site_fract_y
_atom_site_fract_z
O1	O	1.043694	0.174244	-0.069318
O2	O	0.815410	0.172295	-0.069342
O3	O	0.935792	0.051799	-0.069329
O4	O	0.923312	0.294739	-0.069332
O5	O	0.929166	0.058403	0.069530
O6	O	0.808784	0.178898	0.069516
O7	O	1.037068	0.180847	0.069540
Zn8	Zn	0.921874	0.180921	0.091575
Zn9	Zn	0.930604	0.172221	-0.091377
O10	O	0.916685	0.301343	0.069527
C11	C	0.782884	0.173091	0.000083
C12	C	0.695841	0.165614	0.000074
C13	C	0.645600	0.237749	0.000074
C14	C	0.563813	0.230720	0.000085
C15	C	0.532268	0.151555	0.000091
C16	C	0.582515	0.079414	0.000094
C17	C	0.664300	0.086444	0.000088
C18	C	0.288669	0.122417	0.000114
C19	C	0.206878	0.115392	0.000117
C20	C	0.188181	0.266699	0.000110
C21	C	0.269969	0.273722	0.000099
C22	C	0.320209	0.201582	0.000106
N23	N	0.448669	0.144368	0.000100
N24	N	0.403806	0.208770	0.000103
C25	C	0.931963	0.023872	0.000099
C26	C	0.930417	-0.069182	0.000094
C27	C	0.924861	-0.407302	0.000096
C28	C	0.839142	-0.365620	-0.000225
C29	C	0.840674	-0.268811	0.000089
C30	C	0.927617	-0.239557	0.000095
C31	C	0.966120	-0.274034	0.079392
C32	C	0.963963	-0.370810	0.079459
C33	C	0.973269	-0.378559	-0.078449
C34	C	0.973299	-0.281665	-0.079497
C35	C	0.929179	-0.144755	0.000096
C36	C	0.923302	-0.502103	0.000100
C37	C	1.069593	0.180051	0.000113
C38	C	1.156637	0.187528	0.000117
C39	C	0.920515	0.329270	0.000097
C40	C	0.922061	0.422324	0.000097
N41	N	0.915921	0.186859	0.216434
N42	N	0.936563	0.166277	-0.216236
C43	C	0.967163	0.135608	0.260134
C44	C	0.963006	0.139770	0.347541
C45	C	0.907611	0.195187	0.391245
C46	C	0.856364	0.246439	0.347539
C47	C	0.860518	0.242273	0.260135
C48	C	0.889469	0.213363	0.652653
C49	C	0.885321	0.217528	0.740064
C50	C	0.991962	0.110857	0.740059
C51	C	0.996114	0.106699	0.652652
C52	C	0.944864	0.157948	0.608954
N53	N	0.903363	0.199444	0.480589
N54	N	0.949109	0.153686	0.519612
H55	H	0.329565	0.063675	0.000120
O56	O	1.041706	0.060948	0.782418
C57	C	1.086335	-0.080274	0.809211
C58	C	1.029975	-0.023842	0.761172
H59	H	1.076859	-0.148837	0.792065
H60	H	1.149971	-0.066018	0.792004
H61	H	1.073861	-0.067736	0.879184
H62	H	1.042378	-0.036348	0.691188
H63	H	0.966357	-0.038108	0.778449
H64	H	0.671277	0.302214	0.000068
O65	O	0.939888	-0.254999	-0.149570
C66	C	0.943471	-0.262808	-0.299962
C67	C	0.981374	-0.293100	-0.220675
H68	H	0.977007	-0.293586	-0.357470
H69	H	0.879317	-0.280533	-0.299438
H70	H	0.946061	-0.191824	-0.301673
H71	H	0.978843	-0.364084	-0.218913
H72	H	1.045510	-0.275313	-0.221231
H73	H	0.522910	0.289461	0.000084
H74	H	0.930299	-0.388357	0.138731
O75	O	0.801390	-0.393571	-0.068038
C76	C	0.682090	-0.386892	-0.143324
C77	C	0.724757	-0.355148	-0.066496
H78	H	0.620119	-0.355854	-0.142093
H79	H	0.716414	-0.370616	-0.202659
H80	H	0.678135	-0.457762	-0.142066
H81	H	0.728723	-0.284277	-0.067673
H82	H	0.690417	-0.371487	-0.007194
O83	O	0.831429	0.271374	0.782391
C84	C	0.726107	0.376753	0.773177
C85	C	0.787086	0.315803	0.725138
H86	H	0.690251	0.412703	0.726910
H87	H	0.684953	0.339934	0.814084
H88	H	0.758018	0.422788	0.814113
H89	H	0.755242	0.269754	0.684158
H90	H	0.828238	0.352677	0.684284
O91	O	0.551907	0.002500	0.000246
C92	C	0.539486	-0.125573	0.072158
C93	C	0.574178	-0.038479	0.072104
H94	H	0.557492	-0.158737	0.130240
H95	H	0.472396	-0.118258	0.072211
H96	H	0.562933	-0.164226	0.014019
H97	H	0.550791	0.000220	0.130233
H98	H	0.641266	-0.045856	0.072007
H99	H	1.041221	0.061574	0.617070
H100	H	1.029854	-0.255493	0.082346
H101	H	0.295647	0.338187	0.000085
H102	H	0.847741	0.255094	0.617081
H103	H	0.147268	0.325432	0.000106
H104	H	0.181198	0.050923	0.000121
O105	O	0.713131	0.016403	0.000233
C106	C	0.812933	-0.060026	0.072143
C107	C	0.757661	0.019328	0.072089
H108	H	0.848962	-0.057680	0.130224
H109	H	0.776376	-0.117843	0.072200
H110	H	0.854421	-0.063275	0.014003
H111	H	0.716163	0.022658	0.130219
H112	H	0.794267	0.077106	0.071989
H113	H	0.810146	-0.245316	-0.056756
H114	H	0.802329	-0.384808	0.056318
O115	O	1.038801	-0.404199	0.083736
C116	C	1.122414	-0.529962	0.088797
C117	C	1.037629	-0.492268	0.083921
H118	H	1.121493	-0.601169	0.088966
H119	H	1.159974	-0.511395	0.032523
H120	H	1.148543	-0.505213	0.148578
H121	H	1.011430	-0.516997	0.024175
H122	H	1.000125	-0.510829	0.140236
O123	O	0.797522	-0.235141	0.068076
C124	C	0.717668	-0.261685	0.191226
C125	C	0.766527	-0.299926	0.114267
H126	H	0.692581	-0.314044	0.228583
H127	H	0.756989	-0.223345	0.232043
H128	H	0.667212	-0.219342	0.169987
H129	H	0.816986	-0.342305	0.135431
H130	H	0.727152	-0.338215	0.073467
H131	H	0.811257	0.291558	0.383129
H132	H	0.933934	-0.244811	0.138399
O133	O	0.943366	-0.408807	-0.150175
C134	C	0.967810	-0.493999	-0.277305
C135	C	1.001780	-0.459818	-0.196105
H136	H	1.015026	-0.535234	-0.314470
H137	H	0.914992	-0.532583	-0.261463
H138	H	0.948272	-0.439426	-0.316124
H139	H	1.021364	-0.514339	-0.157247
H140	H	1.054565	-0.421209	-0.212006
H141	H	1.036930	-0.262288	-0.084280
H142	H	1.036506	-0.406115	-0.078977
O143	O	0.810708	0.292145	0.217811
C144	C	0.704466	0.398351	0.227035
C145	C	0.760844	0.341935	0.275069
H146	H	0.664125	0.438608	0.273307
H147	H	0.740216	0.440572	0.186126
H148	H	0.667280	0.357588	0.186103
H149	H	0.798042	0.382632	0.316046
H150	H	0.725047	0.299709	0.315925
H151	H	1.012274	0.090486	0.224555
O152	O	1.012873	0.089963	0.389861
C153	C	1.119073	-0.016292	0.380632
C154	C	1.062653	0.040079	0.332601
H155	H	1.159323	-0.056650	0.334359
H156	H	1.156344	0.024424	0.421516
H157	H	1.083276	-0.058427	0.421589
H158	H	1.098388	0.082223	0.291599
H159	H	1.025380	-0.000687	0.291770
