data_functionalizedCrystal
_audit_creation_method	'MofGen! by Chris Wilmer'
_symmetry_space_group_name_H-M	'P1'
_symmetry_Int_Tables_number	1
_symmetry_cell_setting	triclinic
loop_
_symmetry_equiv_pos_as_xyz
  x,y,z
_cell_length_a	18.050591
_cell_length_b	19.121063
_cell_length_c	18.050583
_cell_angle_alpha	92.405296
_cell_angle_beta	89.975765
_cell_angle_gamma	92.465257
loop_
_atom_site_label
_atom_site_type_symbol
_atom_site_fract_x
_atom_site_fract_y
_atom_site_fract_z
Zn1	Zn	1.122704	-0.279663	-0.432627
Zn2	Zn	1.117311	-0.397127	-0.313727
Zn3	Zn	0.998515	-0.279686	-0.308439
Zn4	Zn	0.993177	-0.397069	-0.437860
O5	O	1.057927	-0.338386	-0.373163
O6	O	1.225913	-0.295259	-0.416877
O7	O	1.101529	-0.381582	-0.209102
O8	O	1.019481	-0.181399	-0.320509
O9	O	1.221950	-0.381559	-0.329522
O10	O	1.110722	-0.181382	-0.411750
O11	O	1.014251	-0.295299	-0.205217
O12	O	0.893883	-0.295243	-0.325584
O13	O	1.010382	-0.381461	-0.541089
O14	O	0.889961	-0.381484	-0.420669
O15	O	1.105546	-0.295204	-0.537244
O16	O	1.096352	-0.495403	-0.334596
O17	O	1.005152	-0.495361	-0.425796
C18	C	0.864976	-0.338360	-0.373121
C19	C	0.782430	-0.338366	-0.373121
C20	C	0.585093	-0.291414	-0.321526
C21	C	0.532783	-0.355476	-0.306135
C22	C	0.631299	-0.338387	-0.373155
C23	C	0.536526	-0.274347	-0.388545
C24	C	0.485313	-0.338402	-0.373187
C25	C	0.580074	-0.402483	-0.357731
C26	C	0.583823	-0.321311	-0.440171
C27	C	0.531534	-0.385418	-0.424808
C28	C	0.715397	-0.338378	-0.373135
C29	C	0.401215	-0.338419	-0.373208
C30	C	1.049608	-0.520866	-0.381354
C31	C	1.046117	-0.598931	-0.384883
C32	C	1.091997	-0.635605	-0.339098
C33	C	1.088718	-0.708956	-0.342421
C34	C	1.039555	-0.745632	-0.391527
C35	C	0.993673	-0.708953	-0.437318
C36	C	0.996956	-0.635603	-0.433997
C37	C	1.027268	-0.967100	-0.403929
C38	C	1.023986	-1.040455	-0.407244
C39	C	1.119033	-1.040453	-0.312348
C40	C	1.122308	-0.967102	-0.309029
C41	C	1.076429	-0.930430	-0.354823
C42	C	1.036200	-0.820608	-0.394924
C43	C	1.079788	-0.855455	-0.351429
C44	C	1.251631	-0.338413	-0.373206
C45	C	1.334176	-0.338425	-0.373224
C46	C	1.057970	-0.338324	-0.566866
C47	C	1.057988	-0.338297	-0.649410
C48	C	1.066299	-0.155194	-0.364956
C49	C	1.069866	-0.077129	-0.361459
C50	C	1.109787	-0.291342	-0.896143
C51	C	1.125018	-0.355429	-0.849617
C52	C	1.058038	-0.338252	-0.946529
C53	C	1.042817	-0.274191	-0.845974
C54	C	1.058016	-0.338271	-0.800545
C55	C	1.073304	-0.402372	-0.901092
C56	C	0.991073	-0.321092	-0.897451
C57	C	1.006276	-0.385222	-0.850949
C58	C	1.058053	-0.338241	-1.030627
C59	C	1.058000	-0.338290	-0.716449
C60	C	1.057929	-0.338398	-0.180211
C61	C	1.058063	-0.338227	-0.097658
H62	H	0.508221	-0.425194	-0.468485
H63	H	0.608538	-0.251733	-0.277820
H64	H	1.132027	-0.605749	-0.299107
H65	H	0.606235	-0.306837	-0.496813
C66	C	0.982113	-0.860959	-0.448931
N67	N	0.941374	-0.891353	-0.489607
C68	C	0.510556	-0.201173	-0.406117
N69	N	0.490999	-0.146057	-0.419347
H70	H	1.086251	-0.456567	-0.925117
C71	C	0.947158	-0.438890	-0.824208
N72	N	0.902639	-0.479316	-0.804055
C73	C	0.502525	-0.375001	-0.229591
N74	N	0.479735	-0.389701	-0.171937
H75	H	1.126078	-0.738813	-0.305137
C76	C	0.914605	-0.301438	-0.925898
N77	N	0.857010	-0.286626	-0.947327
C78	C	1.176373	-0.926765	-0.254990
N79	N	1.217086	-0.896382	-0.214278
C80	C	1.169499	-1.080799	-0.261981
N81	N	1.207513	-1.111188	-0.224045
H82	H	0.983961	-1.070314	-0.447245
H83	H	0.989910	-0.937247	-0.441214
C84	C	1.025433	-0.200992	-0.813398
N85	N	1.012345	-0.145857	-0.788864
H86	H	0.953646	-0.738820	-0.477304
C87	C	0.605921	-0.475677	-0.340069
N88	N	0.625391	-0.530804	-0.326762
C89	C	0.946484	-0.595262	-0.484366
N90	N	0.908470	-0.564878	-0.522307
C91	C	1.133865	-0.815109	-0.297413
N92	N	1.174592	-0.784715	-0.256725
H93	H	1.153588	-0.251714	-0.916057
H94	H	1.181640	-0.369955	-0.828579
