data_functionalizedCrystal
_audit_creation_method	'MofGen! by Chris Wilmer'
_symmetry_space_group_name_H-M	'P1'
_symmetry_Int_Tables_number	1
_symmetry_cell_setting	triclinic
loop_
_symmetry_equiv_pos_as_xyz
  x,y,z
_cell_length_a	16.992694
_cell_length_b	13.101039
_cell_length_c	16.992695
_cell_angle_alpha	86.408978
_cell_angle_beta	90.668223
_cell_angle_gamma	93.581737
loop_
_atom_site_label
_atom_site_type_symbol
_atom_site_fract_x
_atom_site_fract_y
_atom_site_fract_z
O1	O	1.054903	0.085087	0.162849
O2	O	0.826504	0.085117	0.161017
O3	O	0.939787	0.085094	0.047733
O4	O	0.941619	0.085110	0.276133
O5	O	0.931660	-0.085335	0.055876
O6	O	0.818377	-0.085311	0.169159
O7	O	1.046776	-0.085342	0.170992
Zn8	Zn	0.931286	-0.112386	0.171368
Zn9	Zn	0.941994	0.112161	0.160640
O10	O	0.933492	-0.085319	0.284275
C11	C	0.793081	-0.000094	0.162732
C12	C	0.705597	-0.000082	0.155703
N13	N	0.923984	-0.265633	0.178689
C14	C	0.659606	-0.000078	0.223520
C15	C	0.577404	-0.000093	0.216912
C16	C	0.541196	-0.000104	0.142485
C17	C	0.587192	-0.000111	0.074662
C18	C	0.669392	-0.000104	0.081272
C19	C	0.295880	-0.000133	0.115092
C20	C	0.213674	-0.000138	0.108488
C21	C	0.203892	-0.000121	0.250738
C22	C	0.286094	-0.000108	0.257341
C23	C	0.332083	-0.000120	0.189518
N24	N	0.457173	-0.000116	0.135728
N25	N	0.416104	-0.000116	0.196276
C26	C	0.914050	-0.474673	0.188658
C27	C	0.959233	-0.525558	0.143347
C28	C	0.953706	-0.641876	0.148894
C29	C	0.919576	-0.358345	0.183112
C30	C	1.080199	-0.000129	0.169276
C31	C	1.167684	-0.000134	0.176305
C32	C	0.933368	-0.000120	0.022444
C33	C	0.926339	-0.000119	-0.065040
N34	N	0.949302	0.265408	0.153313
C35	C	0.994157	-0.000129	-0.111031
C36	C	0.987549	-0.000118	-0.193232
C37	C	0.913122	-0.000105	-0.229441
C38	C	0.845299	-0.000092	-0.183445
C39	C	0.851909	-0.000095	-0.101245
C40	C	0.885728	-0.000087	-0.474756
C41	C	0.879123	-0.000087	-0.556961
C42	C	1.021373	-0.000112	-0.566743
C43	C	1.027976	-0.000121	-0.484542
C44	C	0.960154	-0.000102	-0.438553
N45	N	0.906365	-0.000097	-0.313464
N46	N	0.966912	-0.000103	-0.354532
C47	C	0.939912	-0.000103	0.309564
C48	C	0.946941	-0.000097	0.397048
H49	H	0.539962	-0.000088	0.272137
H50	H	0.706837	-0.000106	0.026047
N51	N	0.765024	-0.000087	-0.222496
H52	H	0.723064	-0.000080	-0.180886
H53	H	0.762194	0.063092	-0.259405
H54	H	1.042773	-0.000129	-0.230674
H55	H	1.002068	-0.481765	0.100391
N56	N	0.778764	-0.000078	-0.051637
H57	H	0.730611	-0.000070	-0.087047
H58	H	0.775392	-0.063257	-0.014302
N59	N	0.857320	-0.532667	0.245566
H60	H	0.801731	-0.514069	0.232197
H61	H	0.861434	-0.608724	0.241489
N62	N	1.074432	-0.000153	-0.071979
H63	H	1.116390	-0.000156	-0.113590
H64	H	1.083287	0.063024	-0.041101
N65	N	1.108251	-0.000141	-0.445489
H66	H	1.150211	-0.000146	-0.487097
H67	H	1.117106	0.063035	-0.414610
H68	H	0.166439	-0.000113	0.305955
N69	N	1.094521	-0.000133	-0.616344
H70	H	1.079044	-0.000130	-0.673912
H71	H	1.129749	0.063041	-0.607128
N72	N	0.174620	-0.000176	0.028209
H73	H	0.115568	-0.000178	0.034316
H74	H	0.194126	0.062994	-0.004726
N75	N	0.548149	-0.000118	-0.005617
H76	H	0.561589	-0.063299	-0.032540
H77	H	0.489108	-0.000079	0.000544
H78	H	0.818512	-0.000093	-0.586439
H79	H	0.315570	-0.000087	0.317946
H80	H	0.830502	-0.000072	-0.437321
N81	N	0.345476	-0.000154	0.041944
H82	H	0.310062	-0.000160	-0.006206
H83	H	0.382804	0.063024	0.038562
H84	H	0.689081	-0.000068	0.284127
