data_functionalizedCrystal
_audit_creation_method	'MofGen! by Chris Wilmer'
_symmetry_space_group_name_H-M	'P1'
_symmetry_Int_Tables_number	1
_symmetry_cell_setting	triclinic
loop_
_symmetry_equiv_pos_as_xyz
  x,y,z
_cell_length_a	18.050591
_cell_length_b	18.050588
_cell_length_c	18.050582
_cell_angle_alpha	89.978848
_cell_angle_beta	89.979078
_cell_angle_gamma	90.025567
loop_
_atom_site_label
_atom_site_type_symbol
_atom_site_fract_x
_atom_site_fract_y
_atom_site_fract_z
Zn1	Zn	1.135286	-0.295786	-0.420039
Zn2	Zn	1.135193	-0.419969	-0.295852
Zn3	Zn	1.011105	-0.295789	-0.295850
Zn4	Zn	1.011050	-0.419930	-0.419987
O5	O	1.073158	-0.357868	-0.357932
O6	O	1.239198	-0.312274	-0.403587
O7	O	1.118717	-0.403514	-0.191927
O8	O	1.027639	-0.191864	-0.312344
O9	O	1.239130	-0.403511	-0.312348
O10	O	1.118874	-0.191862	-0.403586
O11	O	1.027550	-0.312279	-0.191925
O12	O	0.907173	-0.312241	-0.312295
O13	O	1.027546	-0.403444	-0.523919
O14	O	0.907133	-0.403447	-0.403498
O15	O	1.118821	-0.312236	-0.523957
O16	O	1.118664	-0.523888	-0.312298
O17	O	1.027456	-0.523860	-0.403500
C18	C	0.880206	-0.357841	-0.357891
C19	C	0.797661	-0.357847	-0.357891
C20	C	1.073064	-0.550821	-0.357910
C21	C	1.073092	-0.633366	-0.357925
C22	C	0.598210	-0.308191	-0.308409
C23	C	0.548789	-0.375927	-0.290134
C24	C	0.646530	-0.357869	-0.357924
C25	C	0.548870	-0.290157	-0.376197
C26	C	0.500545	-0.357885	-0.357955
C27	C	0.598196	-0.425641	-0.339615
C28	C	0.598281	-0.339825	-0.425709
C29	C	0.548882	-0.407607	-0.407460
C30	C	0.730628	-0.357859	-0.357905
C31	C	0.416449	-0.357903	-0.357975
C32	C	1.023571	-0.882203	-0.407521
C33	C	1.091288	-0.832739	-0.425752
C34	C	1.073246	-0.930487	-0.357966
C35	C	1.005457	-0.832869	-0.339750
C36	C	1.073167	-0.784502	-0.357948
C37	C	1.140999	-0.882110	-0.376233
C38	C	1.055123	-0.882244	-0.290199
C39	C	1.122886	-0.832802	-0.308404
C40	C	1.073291	-1.014585	-0.357979
C41	C	1.073130	-0.700405	-0.357935
C42	C	1.266864	-0.357897	-0.357974
C43	C	1.349410	-0.357909	-0.357991
C44	C	1.073188	-0.357835	-0.551638
C45	C	1.073200	-0.357821	-0.634183
C46	C	1.073273	-0.164163	-0.357971
C47	C	1.073322	-0.081617	-0.357987
C48	C	1.023602	-0.407353	-0.833614
C49	C	1.091357	-0.425511	-0.883013
C50	C	1.073237	-0.357765	-0.785314
C51	C	1.005519	-0.339586	-0.882997
C52	C	1.073266	-0.357711	-0.931299
C53	C	1.141027	-0.375958	-0.833626
C54	C	1.055143	-0.290002	-0.833605
C55	C	1.122945	-0.308134	-0.882982
C56	C	1.073219	-0.357797	-0.701216
C57	C	1.073292	-0.357679	-1.015396
C58	C	1.073172	-0.357848	-0.164980
C59	C	1.073304	-0.357652	-0.082434
H60	H	0.527051	-0.391202	-0.232824
O61	O	1.111548	-0.803931	-0.501654
H62	H	1.167384	-0.824508	-0.517124
H63	H	1.198310	-0.903651	-0.391699
O64	O	1.178543	-0.804240	-0.252884
H65	H	1.234701	-0.824065	-0.268173
O66	O	0.929645	-0.319238	-0.911717
H67	H	0.907924	-0.365126	-0.946397
H68	H	0.948163	-0.811235	-0.324350
H69	H	1.164980	-0.266177	-0.904522
O70	O	1.111654	-0.501382	-0.911772
H71	H	1.070362	-0.542470	-0.892007
O72	O	0.626917	-0.252606	-0.252889
H73	H	0.607095	-0.267774	-0.196676
O74	O	0.626767	-0.501523	-0.319060
H75	H	0.688255	-0.500912	-0.319177
H76	H	1.198324	-0.391377	-0.812029
O77	O	0.968062	-0.462967	-0.804880
H78	H	0.983277	-0.519152	-0.824664
O79	O	1.034837	-0.911075	-0.214318
H80	H	0.978549	-0.891392	-0.199327
O81	O	1.034808	-0.214157	-0.804817
H82	H	1.024152	-0.176463	-0.852223
O83	O	0.520353	-0.463323	-0.462939
H84	H	0.540211	-0.519457	-0.447608
O85	O	0.627111	-0.319570	-0.501598
H86	H	0.607394	-0.263304	-0.516629
H87	H	0.527163	-0.232894	-0.391613
H88	H	0.981648	-0.903892	-0.449467
