data_functionalizedCrystal
_audit_creation_method	'MofGen! by Chris Wilmer'
_symmetry_space_group_name_H-M	'P1'
_symmetry_Int_Tables_number	1
_symmetry_cell_setting	triclinic
loop_
_symmetry_equiv_pos_as_xyz
  x,y,z
_cell_length_a	14.971482
_cell_length_b	8.597304
_cell_length_c	14.048226
_cell_angle_alpha	82.293729
_cell_angle_beta	89.994098
_cell_angle_gamma	84.477641
loop_
_atom_site_label
_atom_site_type_symbol
_atom_site_fract_x
_atom_site_fract_y
_atom_site_fract_z
O1	O	1.188614	0.204505	-0.095917
O2	O	0.928413	0.229004	-0.097930
O3	O	1.063633	-0.011704	-0.078185
O4	O	1.053394	0.445213	-0.115663
O5	O	1.063616	-0.011718	0.080138
O6	O	0.928396	0.228990	0.060392
O7	O	1.188597	0.204491	0.062405
Zn8	Zn	1.058494	0.216738	0.086536
Zn9	Zn	1.058516	0.216757	-0.122061
O10	O	1.053377	0.445199	0.042659
C11	C	0.895071	0.227902	-0.018680
C12	C	0.795747	0.224622	-0.018413
C13	C	0.749080	0.223070	0.068017
C14	C	0.655757	0.219962	0.068273
C15	C	0.609100	0.218419	-0.017903
C16	C	0.655773	0.219967	-0.104338
C17	C	0.749096	0.223063	-0.104592
C18	C	0.461259	0.213518	-0.103803
C19	C	0.367929	0.210425	-0.103550
C20	C	0.367920	0.210418	0.069062
C21	C	0.461242	0.213513	0.068808
C22	C	0.507909	0.215064	-0.017629
C23	C	1.062524	-0.070185	0.005771
C24	C	1.059235	-0.244419	0.020056
C25	C	1.221939	0.205592	-0.016847
C26	C	1.321263	0.208873	-0.017121
C27	C	1.054486	0.503680	-0.041298
C28	C	1.057775	0.677914	-0.055590
N29	N	1.058486	0.216724	0.228898
N30	N	1.058531	0.216758	-0.264422
C31	C	1.118381	0.110183	0.287456
C32	C	1.118387	0.110182	0.387113
C33	C	1.058501	0.216731	0.428211
C34	C	0.998600	0.323278	0.369645
C35	C	0.998590	0.323270	0.269990
C36	C	0.998626	0.323289	0.577359
C37	C	0.998636	0.323300	0.677020
C38	C	1.118422	0.110201	0.694482
C39	C	1.118412	0.110193	0.594827
C40	C	1.058512	0.216742	0.536268
H41	H	0.329944	0.209170	-0.173722
C42	C	1.184254	-0.007060	0.451526
N43	N	1.233860	-0.095387	0.500043
H44	H	1.059038	-0.255286	-0.131288
H45	H	1.057959	-0.311224	0.095759
H46	H	0.949871	0.410062	0.710476
C47	C	1.184260	-0.007033	0.242259
N48	N	1.233879	-0.095329	0.208220
C49	C	0.932722	0.440483	0.512947
N50	N	0.883085	0.528751	0.464433
H51	H	0.499252	0.214782	-0.174189
C52	C	0.932708	0.440487	0.205575
N53	N	0.883084	0.528779	0.157059
C54	C	1.184310	-0.007010	0.758899
N55	N	1.233937	-0.095287	0.807422
H56	H	0.787061	0.224339	0.138190
H57	H	0.949836	0.410027	0.403113
C58	C	0.604426	0.218291	0.163349
N59	N	0.565763	0.217044	0.234964
H60	H	0.499227	0.214780	0.138978
H61	H	0.617779	0.218700	-0.174503
C62	C	0.316585	0.208700	0.164143
N63	N	0.277916	0.207410	0.235756
C64	C	0.800428	0.224775	-0.199672
N65	N	0.839091	0.226060	-0.271288
H66	H	1.167180	0.023441	0.561365
