data_functionalizedCrystal
_audit_creation_method	'MofGen! by Chris Wilmer'
_symmetry_space_group_name_H-M	'P1'
_symmetry_Int_Tables_number	1
_symmetry_cell_setting	triclinic
loop_
_symmetry_equiv_pos_as_xyz
  x,y,z
_cell_length_a	11.792254
_cell_length_b	10.654559
_cell_length_c	9.130313
_cell_angle_alpha	90.001323
_cell_angle_beta	89.999802
_cell_angle_gamma	84.343641
loop_
_atom_site_label
_atom_site_type_symbol
_atom_site_fract_x
_atom_site_fract_y
_atom_site_fract_z
O1	O	1.507297	0.172205	-0.121789
O2	O	1.176999	0.189929	-0.121791
O3	O	1.349737	-0.001693	-0.121790
O4	O	1.334559	0.363826	-0.121790
O5	O	1.349734	-0.001688	0.121809
O6	O	1.176997	0.189934	0.121807
O7	O	1.507295	0.172210	0.121810
Cu8	Cu	1.342146	0.181072	0.144051
Cu9	Cu	1.342148	0.181066	-0.144033
O10	O	1.334557	0.363831	0.121808
C11	C	1.348619	-0.048485	0.000006
C12	C	1.345278	-0.187918	-0.000003
C13	C	1.134705	0.188815	0.000008
C14	C	1.008684	0.185473	0.000006
C15	C	1.240433	-0.239167	-0.000007
C16	C	1.237301	-0.370180	0.000004
C17	C	1.443869	-0.398686	0.000017
C18	C	1.446999	-0.267675	0.000017
C19	C	1.121173	-0.222710	-0.000022
C20	C	1.118041	-0.353724	-0.000011
C21	C	0.906341	0.182758	0.000000
C22	C	0.777946	0.179362	-0.000001
C23	C	1.549589	0.173324	0.000007
C24	C	1.675610	0.176666	-0.000001
C25	C	1.335675	0.410624	0.000009
C26	C	1.339015	0.550057	0.000009
N27	N	1.342152	0.181076	0.346674
N28	N	1.342150	0.181053	-0.346655
C29	C	1.418660	0.096255	0.423326
C30	C	1.418657	0.096240	0.576663
C31	C	1.265634	0.265878	0.576681
C32	C	1.265633	0.265886	0.423347
C33	C	1.507010	-0.001681	0.423317
C34	C	1.507007	-0.001696	0.576654
H35	H	1.532374	-0.225955	0.000039
N36	N	1.075992	-0.165322	-0.131975
N37	N	1.120657	-0.196121	-0.252525
H38	H	1.088752	-0.155591	-0.345721
H39	H	1.479428	-0.092841	0.624201
N40	N	1.547758	-0.480176	0.000047
N41	N	1.544951	-0.597147	0.000059
H42	H	1.618325	-0.654700	0.000081
H43	H	1.589417	0.028678	0.375759
H44	H	1.080036	-0.389243	0.105159
N45	N	1.059533	-0.390398	-0.127898
N46	N	1.020889	-0.308799	-0.218015
H47	H	0.979570	-0.334699	-0.308333
H48	H	1.203333	0.334927	0.639125
N49	N	1.482657	-0.122700	0.371115
N50	N	1.465493	-0.207969	0.460080
H51	H	1.448277	-0.293432	0.423214
N52	N	1.187472	0.352538	0.345076
N53	N	1.189924	0.468634	0.362220
H54	H	1.134718	0.529837	0.306944
N55	N	1.064783	-0.170186	0.127856
N56	N	1.022494	-0.240619	0.217960
H57	H	0.982669	-0.203525	0.308272
N58	N	1.616430	0.024984	0.628852
N59	N	1.693522	0.043804	0.539883
H60	H	1.770799	0.062647	0.576747
