data_functionalizedCrystal
_audit_creation_method	'MofGen! by Chris Wilmer'
_symmetry_space_group_name_H-M	'P1'
_symmetry_Int_Tables_number	1
_symmetry_cell_setting	triclinic
loop_
_symmetry_equiv_pos_as_xyz
  x,y,z
_cell_length_a	8.559649
_cell_length_b	10.654550
_cell_length_c	9.730223
_cell_angle_alpha	90.000043
_cell_angle_beta	89.997407
_cell_angle_gamma	102.868203
loop_
_atom_site_label
_atom_site_type_symbol
_atom_site_fract_x
_atom_site_fract_y
_atom_site_fract_z
O1	O	0.224185	-1.644681	-0.114181
O2	O	0.245543	-1.276996	-0.114206
O3	O	0.002621	-1.493232	-0.114190
O4	O	0.467107	-1.428445	-0.114197
O5	O	0.002614	-1.493220	0.114390
O6	O	0.245537	-1.276985	0.114374
O7	O	0.224178	-1.644669	0.114398
Zn8	Zn	0.234856	-1.460825	0.150678
Zn9	Zn	0.234865	-1.460841	-0.150486
O10	O	0.467100	-1.428434	0.114383
C11	C	0.243972	-1.230355	0.000081
C12	C	0.239280	-1.091396	0.000071
C13	C	-0.056858	-1.498136	0.000097
C14	C	-0.234076	-1.512750	0.000091
C15	C	0.225750	-1.691311	0.000109
C16	C	0.230442	-1.830270	0.000109
C17	C	0.526579	-1.423530	0.000092
C18	C	0.703797	-1.408915	0.000089
N19	N	0.234849	-1.460824	0.356214
C20	C	0.382309	-0.997136	0.000073
C21	C	0.377890	-0.866571	0.000097
C22	C	0.087402	-0.924541	0.000112
C23	C	0.091822	-1.055103	0.000097
N24	N	0.234860	-1.460853	-0.356022
C25	C	0.127329	-1.556598	0.428147
C26	C	0.127330	-1.556610	0.572030
C27	C	0.342385	-1.365070	0.572035
C28	C	0.342375	-1.365053	0.428154
H29	H	-0.316473	-1.612835	0.000109
O30	O	0.022741	-1.649433	0.358143
C31	C	-0.076553	-1.591706	0.275008
H32	H	-0.014083	-1.487438	0.253429
H33	H	-0.194568	-1.594506	0.330527
C34	C	-0.186708	-1.793779	0.164851
C35	C	-0.109975	-1.665718	0.138337
H36	H	-0.207332	-1.839435	0.080548
H37	H	-0.119817	-1.832673	0.220864
H38	H	-0.285045	-1.796094	0.211120
H39	H	-0.011631	-1.663404	0.092085
H40	H	-0.176851	-1.626826	0.082313
H41	H	0.494359	-0.789827	0.000101
O42	O	0.022947	-1.649520	0.642118
C43	C	0.046028	-1.629021	0.784539
H44	H	0.104498	-1.523542	0.804200
H45	H	0.126932	-1.692292	0.825354
C46	C	-0.188842	-1.793197	0.834266
C47	C	-0.117042	-1.663643	0.858416
H48	H	-0.289429	-1.814558	0.879840
H49	H	-0.204390	-1.807012	0.738316
H50	H	-0.121407	-1.845907	0.868280
H51	H	-0.184468	-1.610935	0.824387
H52	H	-0.101509	-1.649820	0.954363
H53	H	-0.032654	-0.894975	0.000141
H54	H	0.502378	-1.026680	0.000062
O55	O	0.446782	-1.272177	0.642133
C56	C	0.423714	-1.292710	0.784551
H57	H	0.365239	-1.398193	0.804192
H58	H	0.342821	-1.229444	0.825404
C59	C	0.658600	-1.128557	0.834281
C60	C	0.586792	-1.258115	0.858405
H61	H	0.759192	-1.107212	0.879840
H62	H	0.674139	-1.114719	0.738331
H63	H	0.591173	-1.075850	0.868325
H64	H	0.654209	-1.310819	0.824345
H65	H	0.571268	-1.271961	0.954351
H66	H	-0.024657	-1.131856	0.000100
H67	H	0.429932	-1.287057	0.369583
H68	H	-0.213815	-1.308837	0.000087
