data_functionalizedCrystal
_audit_creation_method	'MofGen! by Chris Wilmer'
_symmetry_space_group_name_H-M	'P1'
_symmetry_Int_Tables_number	1
_symmetry_cell_setting	triclinic
loop_
_symmetry_equiv_pos_as_xyz
  x,y,z
_cell_length_a	23.532407
_cell_length_b	17.038272
_cell_length_c	15.500227
_cell_angle_alpha	93.033254
_cell_angle_beta	87.178713
_cell_angle_gamma	86.980117
loop_
_atom_site_label
_atom_site_type_symbol
_atom_site_fract_x
_atom_site_fract_y
_atom_site_fract_z
O1	O	0.762716	0.091231	-0.071836
O2	O	1.262716	0.591231	0.428164
O3	O	0.597575	0.104957	-0.071862
O4	O	1.097575	0.604957	0.428138
O5	O	0.679164	-0.015714	-0.071842
O6	O	1.179164	0.484286	0.428158
O7	O	0.681127	0.211902	-0.071856
O8	O	1.181127	0.711902	0.428144
O9	O	0.674211	-0.008420	0.072045
O10	O	1.174211	0.491580	0.572045
O11	O	0.592623	0.112251	0.072026
O12	O	1.092623	0.612251	0.572026
O13	O	0.757763	0.098525	0.072051
O14	O	1.257763	0.598525	0.572051
Cu15	Cu	0.674741	0.106054	0.085177
Cu16	Cu	1.174741	0.606054	0.585177
Cu17	Cu	0.680598	0.097428	-0.084987
Cu18	Cu	1.180598	0.597428	0.415013
O19	O	0.676175	0.219196	0.072032
O20	O	1.176175	0.719196	0.572032
C21	C	0.573865	0.108255	0.000079
C22	C	1.073865	0.608255	0.500079
C23	C	0.510593	0.107203	0.000069
C24	C	1.010593	0.607203	0.500069
C25	C	0.674902	-0.041182	0.000101
C26	C	1.174902	0.458818	0.500101
C27	C	0.669576	-0.127935	0.000100
C28	C	1.169576	0.372065	0.500100
C29	C	0.718480	-0.178411	0.000109
C30	C	1.218480	0.321589	0.500109
C31	C	0.713472	-0.259925	0.000100
C32	C	1.213472	0.240075	0.500100
C33	C	0.659559	-0.290961	0.000088
C34	C	1.159559	0.209039	0.500088
C35	C	0.610651	-0.240479	0.000077
C36	C	1.110651	0.259521	0.500077
C37	C	0.615660	-0.158967	0.000080
C38	C	1.115660	0.341033	0.500080
C39	C	0.641864	-0.536589	0.000074
C40	C	1.141864	-0.036589	0.500074
C41	C	0.636859	-0.618107	0.000074
C42	C	1.136859	-0.118107	0.500074
C43	C	0.739681	-0.637548	0.000094
C44	C	1.239681	-0.137548	0.500094
C45	C	0.744684	-0.556033	0.000102
C46	C	1.244684	-0.056033	0.500102
C47	C	0.695777	-0.505558	0.000087
C48	C	1.195777	-0.005558	0.500087
C49	C	0.654438	-0.374281	0.000082
C50	C	1.154438	0.125719	0.500082
C51	C	0.700898	-0.422240	0.000087
C52	C	1.200898	0.077760	0.500087
C53	C	0.114896	0.172024	0.000105
C54	C	0.614896	0.672024	0.500105
C55	C	0.055444	0.171048	0.000110
C56	C	0.555444	0.671048	0.500110
O57	O	0.021858	0.231137	0.000138
O58	O	0.521858	0.731137	0.500138
N59	N	0.029046	0.099309	0.000113
N60	N	0.529046	0.599309	0.500113
C61	C	0.062103	0.028541	0.000119
C62	C	0.562103	0.528541	0.500119
O63	O	0.034191	-0.032568	0.000123
O64	O	0.534191	0.467432	0.500123
C65	C	0.121554	0.029518	0.000120
C66	C	0.621554	0.529518	0.500120
C67	C	0.147949	0.101262	0.000108
C68	C	0.647949	0.601262	0.500108
C69	C	0.141291	0.243762	0.000094
C70	C	0.641291	0.743762	0.500094
C71	C	0.200739	0.244737	0.000087
C72	C	0.700739	0.744737	0.500087
C73	C	0.233791	0.173975	0.000091
C74	C	0.733791	0.673975	0.500091
C75	C	0.207396	0.102238	0.000101
C76	C	0.707396	0.602238	0.500101
C77	C	0.154610	-0.041248	0.000132
C78	C	0.654610	0.458752	0.500132
C79	C	0.214064	-0.040264	0.000134
C80	C	0.714064	0.459736	0.500134
C81	C	0.240458	0.031479	0.000122
C82	C	0.740458	0.531479	0.500122
C83	C	0.299897	0.032451	0.000098
C84	C	0.799897	0.532451	0.500098
N85	N	0.326294	0.104190	0.000095
N86	N	0.826294	0.604190	0.500095
C87	C	0.293242	0.174952	0.000092
C88	C	0.793242	0.674952	0.500092
C89	C	-0.062747	0.026495	0.000119
C90	C	0.437253	0.526495	0.500119
C91	C	-0.122196	0.025516	0.000112
C92	C	0.377804	0.525516	0.500112
C93	C	-0.128851	0.168023	0.000104
C94	C	0.371149	0.668023	0.500104
C95	C	-0.069401	0.169000	0.000105
C96	C	0.430599	0.669000	0.500105
C97	C	-0.036349	0.098234	0.000116
C98	C	0.463651	0.598234	0.500116
C99	C	0.418087	0.176996	0.000076
C100	C	0.918087	0.676996	0.500076
C101	C	0.477540	0.177965	0.000066
C102	C	0.977540	0.677965	0.500066
C103	C	0.484190	0.035459	0.000078
C104	C	0.984190	0.535459	0.500078
C105	C	0.424742	0.034489	0.000084
C106	C	0.924742	0.534489	0.500084
C107	C	0.391691	0.105264	0.000086
C108	C	0.891691	0.605264	0.500086
O109	O	0.333519	-0.027606	0.000074
O110	O	0.833519	0.472394	0.500074
O111	O	0.321162	0.236052	0.000099
O112	O	0.821162	0.736052	0.500099
C113	C	0.781474	0.095228	0.000109
C114	C	1.281474	0.595228	0.500109
C115	C	0.844746	0.096279	0.000113
C116	C	1.344746	0.596279	0.500113
C117	C	0.680436	0.244664	0.000087
C118	C	1.180436	0.744664	0.500087
C119	C	0.685763	0.331417	0.000082
C120	C	1.185763	0.831417	0.500082
N121	N	0.670626	0.112121	0.204861
N122	N	1.170626	0.612121	0.704861
N123	N	0.684717	0.091355	-0.204671
N124	N	1.184717	0.591355	0.295329
C125	C	0.705211	0.061007	0.250146
C126	C	1.205211	0.561007	0.750146
C127	C	0.702105	0.065602	0.340718
C128	C	1.202105	0.565602	0.840718
C129	C	0.664415	0.121316	0.386003
C130	C	1.164415	0.621316	0.886003
C131	C	0.629825	0.172432	0.340712
C132	C	1.129825	0.672432	0.840712
C133	C	0.632929	0.167832	0.250142
C134	C	1.132929	0.667832	0.750142
C135	C	0.653232	0.137872	0.659467
C136	C	1.153232	0.637872	1.159467
C137	C	0.650131	0.142469	0.750044
C138	C	1.150131	0.642469	1.250044
C139	C	0.722410	0.035638	0.750044
C140	C	1.222410	0.535638	1.250044
C141	C	0.725514	0.031047	0.659471
C142	C	1.225514	0.531047	1.159471
C143	C	0.690922	0.082160	0.614188
C144	C	1.190922	0.582160	1.114188
C145	C	0.661240	0.126016	0.478582
C146	C	1.161240	0.626016	0.978582
C147	C	0.694095	0.077456	0.521611
C148	C	1.194095	0.577456	1.021611
H149	H	0.762382	-0.153148	0.000123
H150	H	1.262382	0.346852	0.500123
H151	H	0.133129	-0.099669	0.000143
H152	H	0.633129	0.400331	0.500143
H153	H	0.114385	0.301388	0.000094
H154	H	0.614385	0.801388	0.500094
H155	H	-0.047914	0.227420	0.000101
H156	H	0.452086	0.727420	0.500101
H157	H	0.222224	0.303158	0.000077
H158	H	0.722224	0.803158	0.500077
Cl159	Cl	0.812465	-0.517024	0.000088
Cl160	Cl	1.312465	-0.017024	0.500088
Cl161	Cl	0.569077	-0.657122	0.000065
Cl162	Cl	1.069077	-0.157122	0.500065
H163	H	0.630553	0.171380	0.515461
H164	H	1.130553	0.671380	1.015461
H165	H	-0.155774	0.225642	0.000106
H166	H	0.344226	0.725642	0.500106
Cl167	Cl	0.542874	-0.279496	0.000053
Cl168	Cl	1.042874	0.220504	0.500053
H169	H	0.625067	0.179492	0.622605
H170	H	1.125067	0.679492	1.122605
Cl171	Cl	-0.155369	-0.064680	0.000105
Cl172	Cl	0.344631	0.435320	0.500105
H173	H	0.619438	0.187841	0.786912
H174	H	1.119438	0.687841	1.286912
H175	H	0.750573	-0.005977	0.786922
H176	H	1.250573	0.494023	1.286922
H177	H	0.391183	0.234628	0.000081
H178	H	0.891183	0.734628	0.500081
Cl179	Cl	0.774955	-0.323378	0.000113
Cl180	Cl	1.274955	0.176622	0.500113
Cl181	Cl	0.741473	0.007416	0.464680
Cl182	Cl	1.241473	0.507416	0.964680
Cl183	Cl	0.255611	-0.129234	0.000149
Cl184	Cl	0.755611	0.370766	0.500149
Cl185	Cl	0.391559	-0.055703	0.000102
Cl186	Cl	0.891559	0.444297	0.500102
Cl187	Cl	0.745584	0.001343	0.397649
Cl188	Cl	1.245584	0.501343	0.897649
Cl189	Cl	0.801161	-0.701006	0.000111
Cl190	Cl	1.301161	-0.201006	0.500111
Cl191	Cl	0.586664	-0.413305	0.000063
Cl192	Cl	1.086664	0.086695	0.500063
H193	H	0.575836	-0.117869	0.000073
H194	H	1.075836	0.382131	0.500073
H195	H	-0.035839	-0.031136	0.000120
H196	H	0.464161	0.468864	0.500120
Cl197	Cl	0.768672	-0.383222	0.000096
Cl198	Cl	1.268672	0.116778	0.500096
Cl199	Cl	0.772896	-0.038993	0.602541
Cl200	Cl	1.272896	0.461007	1.102541
Cl201	Cl	0.525752	-0.053494	0.000086
Cl202	Cl	1.025752	0.446506	0.500086
H203	H	0.602039	-0.495501	0.000061
H204	H	1.102039	0.004499	0.500061
H205	H	0.604765	0.209454	0.213271
H206	H	1.104765	0.709454	0.713271
Cl207	Cl	0.752598	-0.009033	0.193225
Cl208	Cl	1.252598	0.490967	0.693225
Cl209	Cl	0.582440	0.242469	0.397641
Cl210	Cl	1.082440	0.742469	0.897641
H211	H	0.499027	0.236390	0.000056
H212	H	0.999027	0.736390	0.500056
