data_functionalizedCrystal
_audit_creation_method	'MofGen! by Chris Wilmer'
_symmetry_space_group_name_H-M	'P1'
_symmetry_Int_Tables_number	1
_symmetry_cell_setting	triclinic
loop_
_symmetry_equiv_pos_as_xyz
  x,y,z
_cell_length_a	27.732064
_cell_length_b	27.731994
_cell_length_c	26.210047
_cell_angle_alpha	90.002872
_cell_angle_beta	89.991443
_cell_angle_gamma	82.634978
loop_
_atom_site_label
_atom_site_type_symbol
_atom_site_fract_x
_atom_site_fract_y
_atom_site_fract_z
O1	O	0.057385	0.640952	0.042352
O2	O	0.557385	1.140952	0.542352
O3	O	0.066158	0.500155	0.042368
O4	O	0.566158	1.000155	0.542368
O5	O	-0.008626	0.574922	0.042362
O6	O	0.491374	1.074922	0.542362
O7	O	0.132168	0.566185	0.042359
O8	O	0.632168	1.066185	0.542359
O9	O	-0.008614	0.574908	-0.042496
O10	O	0.491386	1.074908	0.457504
O11	O	0.066169	0.500141	-0.042490
O12	O	0.566169	1.000141	0.457510
O13	O	0.057396	0.640937	-0.042506
O14	O	0.557396	1.140937	0.457494
Cu15	Cu	0.061784	0.570538	-0.050246
Cu16	Cu	0.561784	1.070538	0.449754
Cu17	Cu	0.061770	0.570555	0.050108
Cu18	Cu	0.561770	1.070555	0.550108
O19	O	0.132180	0.566170	-0.042499
O20	O	0.632180	1.066170	0.457501
C21	C	0.065983	0.482140	-0.000058
C22	C	0.565983	0.982140	0.499942
C23	C	0.065441	0.428484	-0.000052
C24	C	0.565441	0.928484	0.499948
C25	C	0.062032	0.095758	-0.046328
C26	C	0.562032	0.595758	0.453672
C27	C	0.059970	-0.105901	-0.046334
C28	C	0.559970	0.394099	0.453666
O29	O	0.059688	-0.131980	-0.085672
O30	O	0.559688	0.368020	0.414328
N31	N	0.059708	-0.131108	-0.000077
N32	N	0.559708	0.368892	0.499923
C33	C	0.059958	-0.105897	0.046183
C34	C	0.559958	0.394103	0.546183
O35	O	0.059682	-0.131963	0.085527
O36	O	0.559682	0.368037	0.585527
C37	C	0.062016	0.095761	0.046189
C38	C	0.562016	0.595761	0.546189
C39	C	0.062283	0.120965	-0.000071
C40	C	0.562283	0.620965	0.499929
C41	C	0.062298	0.120961	-0.092583
C42	C	0.562298	0.620961	0.407417
C43	C	0.062816	0.171373	-0.092581
C44	C	0.562816	0.671373	0.407419
C45	C	0.063068	0.196580	-0.046324
C46	C	0.563068	0.696580	0.453676
C47	C	0.062801	0.171376	-0.000069
C48	C	0.562801	0.671376	0.499931
C49	C	0.062262	0.120972	0.092449
C50	C	0.562262	0.620972	0.592449
C51	C	0.062775	0.171390	0.092446
C52	C	0.562775	0.671390	0.592446
C53	C	0.063043	0.196593	0.046187
C54	C	0.563043	0.696593	0.546187
C55	C	0.063570	0.246995	0.046191
C56	C	0.563570	0.746995	0.546191
N57	N	0.063833	0.272202	-0.000066
N58	N	0.563833	0.772202	0.499934
C59	C	0.063581	0.246994	-0.046323
C60	C	0.563581	0.746994	0.453677
C61	C	0.058878	-0.211770	0.046177
C62	C	0.558878	0.288230	0.546177
C63	C	0.058364	-0.262184	0.046176
C64	C	0.558364	0.237816	0.546176
C65	C	0.058376	-0.262185	-0.046341
C66	C	0.558376	0.237815	0.453659
C67	C	0.058893	-0.211770	-0.046339
C68	C	0.558893	0.288230	0.453661
C69	C	0.059140	-0.186563	-0.000079
C70	C	0.559140	0.313437	0.499921
C71	C	0.064670	0.352861	-0.046315
C72	C	0.564670	0.852861	0.453685
C73	C	0.065190	0.403277	-0.046309
C74	C	0.565190	0.903277	0.453691
C75	C	0.065176	0.403273	0.046207
C76	C	0.565176	0.903273	0.546207
C77	C	0.064658	0.352862	0.046202
C78	C	0.564658	0.852862	0.546202
C79	C	0.064403	0.327657	-0.000064
C80	C	0.564403	0.827657	0.499936
O81	O	0.063847	0.273106	0.085509
O82	O	0.563847	0.773106	0.585509
O83	O	0.063846	0.273071	-0.085660
O84	O	0.563846	0.773071	0.414340
C85	C	0.061514	0.045346	-0.046330
C86	C	0.561514	0.545346	0.453670
C87	C	0.061247	0.020143	-0.000074
C88	C	0.561247	0.520143	0.499926
C89	C	0.061498	0.045350	0.046183
C90	C	0.561498	0.545350	0.546183
C91	C	0.060733	-0.030272	-0.000076
C92	C	0.560733	0.469728	0.499924
C93	C	0.060482	-0.055479	-0.046333
C94	C	0.560482	0.444521	0.453667
C95	C	0.060744	-0.030272	-0.092589
C96	C	0.560744	0.469728	0.407411
C97	C	0.061262	0.020139	-0.092587
C98	C	0.561262	0.520139	0.407413
C99	C	0.061236	0.020143	0.092439
C100	C	0.561236	0.520143	0.592439
C101	C	0.060718	-0.030268	0.092433
C102	C	0.560718	0.469732	0.592433
C103	C	0.060467	-0.055476	0.046176
C104	C	0.560467	0.444524	0.546176
C105	C	-0.026627	0.574730	-0.000066
C106	C	0.473373	1.074730	0.499934
C107	C	-0.080281	0.574174	-0.000061
C108	C	0.419719	1.074174	0.499939
C109	C	-0.457344	0.526206	-0.000053
C110	C	0.042656	1.026206	0.499947
C111	C	-0.255685	0.528252	-0.000053
C112	C	0.244315	1.028252	0.499947
O113	O	-0.224425	0.491030	-0.000028
O114	O	0.275575	0.991030	0.499972
N115	N	-0.236566	0.572588	-0.000058
N116	N	0.263434	1.072588	0.499942
C117	C	-0.267865	0.616415	-0.000060
C118	C	0.232135	1.116415	0.499940
O119	O	-0.246976	0.654172	-0.000059
O120	O	0.253024	1.154172	0.499941
C121	C	-0.469524	0.614368	-0.000057
C122	C	0.030476	1.114368	0.499943
C123	C	-0.488640	0.570029	-0.000057
C124	C	0.011360	1.070029	0.499943
C125	C	-0.476461	0.481871	-0.000053
C126	C	0.023539	0.981871	0.499947
C127	C	-0.526873	0.481360	-0.000056
C128	C	-0.026873	0.981360	0.499944
C129	C	-0.558168	0.525184	-0.000059
C130	C	-0.058168	1.025184	0.499941
C131	C	-0.539052	0.569518	-0.000060
C132	C	-0.039052	1.069518	0.499940
C133	C	-0.500823	0.658194	-0.000055
C134	C	-0.000823	1.158194	0.499945
C135	C	-0.551240	0.657679	-0.000053
C136	C	-0.051240	1.157679	0.499947
C137	C	-0.570356	0.613340	-0.000053
C138	C	-0.070356	1.113340	0.499947
C139	C	-0.620760	0.612831	-0.000066
C140	C	-0.120760	1.112831	0.499934
N141	N	-0.639879	0.568495	-0.000061
N142	N	-0.139879	1.068495	0.499939
C143	C	-0.608583	0.524672	-0.000057
C144	C	-0.108583	1.024672	0.499943
C145	C	-0.161991	0.617486	-0.000063
C146	C	0.338009	1.117486	0.499937
C147	C	-0.111577	0.617998	-0.000064
C148	C	0.388423	1.117998	0.499936
C149	C	-0.099399	0.529835	-0.000056
C150	C	0.400601	1.029835	0.499944
C151	C	-0.149815	0.529324	-0.000058
C152	C	0.350185	1.029324	0.499942
C153	C	-0.181110	0.573151	-0.000057
C154	C	0.318890	1.073151	0.499943
C155	C	-0.714452	0.523602	-0.000064
C156	C	-0.214452	1.023602	0.499936
C157	C	-0.764869	0.523095	-0.000069
C158	C	-0.264869	1.023095	0.499931
C159	C	-0.777042	0.611257	-0.000074
C160	C	-0.277042	1.111257	0.499926
C161	C	-0.726630	0.611764	-0.000072
C162	C	-0.226630	1.111764	0.499928
C163	C	-0.695335	0.567933	-0.000065
C164	C	-0.195335	1.067933	0.499935
O165	O	-0.652048	0.650033	-0.000085
O166	O	-0.152048	1.150033	0.499915
O167	O	-0.629481	0.486920	-0.000047
O168	O	-0.129481	0.986920	0.499953
C169	C	-0.406932	0.526717	-0.000050
C170	C	0.093068	1.026717	0.499950
C171	C	-0.387816	0.571052	-0.000051
C172	C	0.112184	1.071052	0.499949
C173	C	-0.419112	0.614875	-0.000054
C174	C	0.080888	1.114875	0.499946
C175	C	-0.337402	0.571563	-0.000053
C176	C	0.162598	1.071563	0.499947
C177	C	-0.306106	0.527740	-0.000049
C178	C	0.193894	1.027740	0.499951
C179	C	-0.325225	0.483404	-0.000044
C180	C	0.174775	0.983404	0.499956
C181	C	-0.375637	0.482893	-0.000047
C182	C	0.124363	0.982893	0.499953
C183	C	-0.399993	0.659211	-0.000059
C184	C	0.100007	1.159211	0.499941
C185	C	-0.349580	0.659718	-0.000057
C186	C	0.150420	1.159718	0.499943
C187	C	-0.318285	0.615895	-0.000054
C188	C	0.181715	1.115895	0.499946
C189	C	0.150181	0.566362	-0.000071
C190	C	0.650181	1.066362	0.499929
C191	C	0.203835	0.566918	-0.000072
C192	C	0.703835	1.066918	0.499928
C193	C	0.057571	0.658952	-0.000078
C194	C	0.557571	1.158952	0.499922
C195	C	0.058113	0.712608	-0.000081
C196	C	0.558113	1.212608	0.499919
N197	N	0.061793	0.570529	-0.120830
N198	N	0.561793	1.070529	0.379170
C199	C	0.028663	0.603658	-0.473347
C200	C	0.528663	1.103658	0.026653
C201	C	0.028657	0.603669	-0.687006
C202	C	0.528657	1.103669	-0.187006
O203	O	0.000491	0.631818	-0.714630
O204	O	0.500491	1.131818	-0.214630
N205	N	0.061760	0.570557	-0.713724
N206	N	0.561760	1.070557	-0.213724
C207	C	0.094864	0.537439	-0.687024
C208	C	0.594864	1.037439	-0.187024
O209	O	0.123017	0.509272	-0.714652
O210	O	0.623017	1.009272	-0.214652
C211	C	0.094868	0.537426	-0.473367
C212	C	0.594868	1.037426	0.026633
C213	C	0.061767	0.570543	-0.446651
C214	C	0.561767	1.070543	0.053349
C215	C	-0.004436	0.636772	-0.446631
C216	C	0.495564	1.136772	0.053369
C217	C	-0.004432	0.636771	-0.393220
C218	C	0.495568	1.136771	0.106780
C219	C	0.028671	0.603656	-0.366524
C220	C	0.528671	1.103656	0.133476
C221	C	0.061770	0.570542	-0.393240
C222	C	0.561770	1.070542	0.106760
C223	C	0.127970	0.504306	-0.446668
C224	C	0.627970	1.004306	0.053332
C225	C	0.127968	0.504305	-0.393250
C226	C	0.627968	1.004305	0.106750
C227	C	0.094866	0.537422	-0.366535
C228	C	0.594866	1.037422	0.133465
C229	C	0.094877	0.537425	-0.313132
C230	C	0.594877	1.037425	0.186868
N231	N	0.061775	0.570537	-0.286414
N232	N	0.561775	1.070537	0.213586
C233	C	0.028671	0.603652	-0.313110
C234	C	0.528671	1.103652	0.186890
C235	C	0.094860	0.537448	-0.799198
C236	C	0.594860	1.037448	-0.299198
C237	C	0.094860	0.537452	-0.852612
C238	C	0.594860	1.037452	-0.352612
C239	C	0.028652	0.603682	-0.852589
C240	C	0.528652	1.103682	-0.352589
C241	C	0.028655	0.603680	-0.799174
C242	C	0.528655	1.103680	-0.299174
C243	C	0.061758	0.570560	-0.772479
C244	C	0.561758	1.070560	-0.272479
C245	C	0.028682	0.603647	-0.200942
C246	C	0.528682	1.103647	0.299058
C247	C	0.028690	0.603644	-0.147526
C248	C	0.528690	1.103644	0.352474
C249	C	0.094897	0.537413	-0.147553
C250	C	0.594897	1.037413	0.352447
C251	C	0.094890	0.537418	-0.200964
C252	C	0.594890	1.037418	0.299036
C253	C	0.061779	0.570536	-0.227658
C254	C	0.561779	1.070536	0.272342
O255	O	0.123025	0.509288	-0.285475
O256	O	0.623025	1.009288	0.214525
O257	O	0.000516	0.631807	-0.285473
O258	O	0.500516	1.131807	0.214527
C259	C	0.028660	0.603659	-0.526758
C260	C	0.528660	1.103659	-0.026758
C261	C	0.061759	0.570546	-0.553474
C262	C	0.561759	1.070546	-0.053474
C263	C	0.094862	0.537430	-0.526778
C264	C	0.594862	1.037430	-0.026778
C265	C	0.061759	0.570549	-0.606888
C266	C	0.561759	1.070549	-0.106888
C267	C	0.028656	0.603664	-0.633584
C268	C	0.528656	1.103664	-0.133584
C269	C	-0.004447	0.636776	-0.606866
C270	C	0.495553	1.136776	-0.106866
C271	C	-0.004443	0.636775	-0.553454
C272	C	0.495557	1.136775	-0.053454
C273	C	0.127965	0.504319	-0.553496
C274	C	0.627965	1.004319	-0.053496
C275	C	0.127959	0.504323	-0.606908
C276	C	0.627959	1.004323	-0.106908
C277	C	0.094856	0.537438	-0.633604
C278	C	0.594856	1.037438	-0.133604
N279	N	0.061757	0.570567	0.120692
N280	N	0.561757	1.070567	0.620692
H281	H	0.060505	-0.050785	0.130106
H282	H	0.560505	0.449215	0.630106
H283	H	0.065409	0.423795	-0.083981
H284	H	0.565409	0.923795	0.416019
F285	F	-0.810358	0.657895	-0.000081
F286	F	-0.310358	1.157895	0.499919
H287	H	0.061439	0.040662	0.130108
H288	H	0.561439	0.540662	0.630108
H289	H	0.001700	0.630646	-0.777426
H290	H	0.501700	1.130646	-0.277426
H291	H	0.064467	0.332345	-0.083989
H292	H	0.564467	0.832345	0.416011
F293	F	-0.006542	0.638894	-0.119096
F294	F	0.493458	1.138894	0.380904
F295	F	0.064381	0.326036	0.095436
F296	F	0.564381	0.826036	0.595436
F297	F	-0.091238	0.665189	-0.000072
F298	F	0.408762	1.165189	0.499928
F299	F	-0.785210	0.475902	-0.000070
F300	F	-0.285210	0.975902	0.499930
F301	F	0.059177	-0.184951	-0.095574
F302	F	0.559177	0.315049	0.404426
F303	F	-0.006559	0.638896	-0.229343
F304	F	0.493441	1.138896	0.270657
F305	F	0.130097	0.502211	-0.881039
F306	F	0.630097	1.002211	-0.381039
F307	F	0.062032	0.094141	-0.141821
F308	F	0.562032	0.594141	0.358179
H309	H	-0.031400	0.663741	-0.628610
H310	H	0.468600	1.163741	-0.128610
H311	H	-0.031398	0.663741	-0.531706
H312	H	0.468602	1.163741	-0.031706
H313	H	0.063031	0.191889	-0.130250
H314	H	0.563031	0.691889	0.369750
H315	H	0.059079	-0.191251	0.083850
H316	H	0.559079	0.308749	0.583850
F317	F	-0.681153	0.476951	-0.000057
F318	F	-0.181153	0.976951	0.499943
F319	F	0.058108	-0.289021	-0.095572
F320	F	0.558108	0.210979	0.404428
H321	H	-0.187468	0.653177	-0.000063
H322	H	0.312532	1.153177	0.499937
H323	H	-0.031388	0.663736	-0.371471
H324	H	0.468612	1.163736	0.128529
H325	H	0.058154	-0.282702	0.083845
H326	H	0.558154	0.217298	0.583845
H327	H	-0.031395	0.663738	-0.468362
H328	H	0.468605	1.163738	0.031638
F329	F	-0.395975	0.435702	-0.000046
F330	F	0.104025	0.935702	0.499954
F331	F	0.061977	0.094159	0.141685
F332	F	0.561977	0.594159	0.641685
F333	F	0.163195	0.469076	-0.635336
F334	F	0.663195	0.969076	-0.135336
F335	F	-0.706284	0.658954	-0.000088
F336	F	-0.206284	1.158954	0.499912
H337	H	0.062977	0.191911	0.130118
H338	H	0.562977	0.691911	0.630118
F339	F	-0.006579	0.638925	-0.881011
F340	F	0.493421	1.138925	-0.381011
F341	F	0.065442	0.430110	0.095435
F342	F	0.565442	0.930110	0.595435
F343	F	-0.066084	0.483195	-0.000053
F344	F	0.433916	0.983195	0.499947
F345	F	0.061547	0.046956	-0.141823
F346	F	0.561547	0.546956	0.358177
H347	H	0.060542	-0.050805	-0.130253
H348	H	0.560542	0.449195	0.369747
H349	H	0.121818	0.510477	-0.777466
H350	H	0.621818	1.010477	-0.277466
H351	H	0.121849	0.510455	-0.222717
H352	H	0.621849	1.010455	0.277283
H353	H	0.154924	0.477339	-0.468412
H354	H	0.654924	0.977339	0.031588
F355	F	-0.547211	0.434169	-0.000051
F356	F	-0.047211	0.934169	0.499949
F357	F	0.163199	0.469072	-0.525091
F358	F	0.663199	0.969072	-0.025091
H359	H	-0.450984	0.446182	-0.000048
H360	H	0.049016	0.946182	0.499952
F361	F	0.163200	0.469051	-0.364843
F362	F	0.663200	0.969051	0.135157
F363	F	-0.480490	0.705386	-0.000046
F364	F	0.019510	1.205386	0.499954
F365	F	-0.170154	0.482134	-0.000058
F366	F	0.329846	0.982134	0.499942
H367	H	-0.576719	0.693369	-0.000049
H368	H	-0.076719	1.193369	0.499951
H369	H	0.121850	0.510453	-0.125809
H370	H	0.621850	1.010453	0.374191
F371	F	-0.291909	0.436764	-0.000043
F372	F	0.208091	0.936764	0.499957
H373	H	-0.334022	0.695827	-0.000061
H374	H	0.165978	1.195827	0.499939
H375	H	-0.425469	0.694898	-0.000062
H376	H	0.074531	1.194898	0.499938
