data_functionalizedCrystal
_audit_creation_method	'MofGen! by Chris Wilmer'
_symmetry_space_group_name_H-M	'P1'
_symmetry_Int_Tables_number	1
_symmetry_cell_setting	triclinic
loop_
_symmetry_equiv_pos_as_xyz
  x,y,z
_cell_length_a	27.780882
_cell_length_b	27.780884
_cell_length_c	27.780936
_cell_angle_alpha	90.002261
_cell_angle_beta	59.997799
_cell_angle_gamma	119.999789
loop_
_atom_site_label
_atom_site_type_symbol
_atom_site_fract_x
_atom_site_fract_y
_atom_site_fract_z
O1	O	0.424592	-0.330213	-0.014321
O2	O	0.326022	-0.260214	0.014251
O3	O	0.424588	-0.260214	-0.084318
O4	O	0.326026	-0.330213	0.084247
O5	O	0.344528	-0.340274	-0.084318
O6	O	0.245962	-0.340274	0.014251
O7	O	0.344532	-0.410273	-0.014321
Cu8	Cu	0.287937	-0.382584	-0.000035
Cu9	Cu	0.382617	-0.287904	-0.000035
O10	O	0.245966	-0.410273	0.084248
C11	C	0.177734	-0.120430	0.029862
C12	C	0.211527	-0.056934	0.025772
C13	C	0.119397	-0.149664	0.030267
C14	C	0.177730	-0.207598	0.029867
C15	C	0.211519	-0.237303	0.025783
C16	C	0.119393	-0.236700	0.030273
C17	C	0.090568	-0.207596	0.029862
C18	C	0.031162	-0.237298	0.025772
C19	C	0.206427	-0.149666	0.030273
C20	C	-0.016831	-0.261295	0.022466
C21	C	0.238829	-0.005636	0.022467
C22	C	0.238818	-0.261301	0.022482
C23	C	-0.077040	-0.291400	0.018321
C24	C	0.273079	0.058719	0.018322
C25	C	0.273065	-0.291409	0.018343
O26	O	-0.234707	-0.410266	-0.014339
O27	O	-0.094711	-0.340265	0.014229
O28	O	-0.094704	-0.340270	-0.084338
O29	O	-0.234714	-0.410261	0.084228
O30	O	-0.094701	-0.260209	-0.084343
O31	O	-0.094708	-0.260204	0.014225
O32	O	-0.234704	-0.330205	-0.014344
Cu33	Cu	-0.164706	-0.287894	-0.000060
Cu34	Cu	-0.164709	-0.382576	-0.000055
O35	O	-0.234711	-0.330200	0.084223
C36	C	0.492828	-0.207603	-0.372394
C37	C	0.459037	-0.237307	-0.402098
C38	C	0.551166	-0.149673	-0.401496
C39	C	0.492828	-0.207604	-0.285228
C40	C	0.459036	-0.237307	-0.221733
C41	C	0.551166	-0.149673	-0.314463
C42	C	0.579994	-0.120438	-0.372393
C43	C	0.639400	-0.056943	-0.402096
C44	C	0.464132	-0.236706	-0.314464
C45	C	0.687394	-0.005646	-0.426092
C46	C	0.431736	-0.261304	-0.426095
C47	C	0.431736	-0.261304	-0.170435
C48	C	0.747605	0.058709	-0.456197
C49	C	0.397486	-0.291409	-0.456201
C50	C	0.397486	-0.291410	-0.106080
C51	C	0.580008	-0.462879	-0.029964
C52	C	0.639417	-0.433174	-0.025878
C53	C	0.551182	-0.520809	-0.030373
C54	C	0.492839	-0.462880	-0.029960
C55	C	0.459045	-0.433178	-0.025869
C56	C	0.464144	-0.520811	-0.030368
C57	C	0.492842	-0.550045	-0.029964
C58	C	0.459052	-0.613540	-0.025878
C59	C	0.551178	-0.433777	-0.030369
C60	C	0.431752	-0.664837	-0.022575
C61	C	0.687412	-0.409177	-0.022576
C62	C	0.431742	-0.409182	-0.022562
C63	C	0.397504	-0.729192	-0.018433
C64	C	0.747625	-0.379070	-0.018434
C65	C	0.397490	-0.379077	-0.018415
O66	O	0.344549	0.249047	-0.014343
O67	O	0.245980	0.080483	0.014226
O68	O	0.344550	0.179042	-0.084342
O69	O	0.245978	0.150488	0.084224
O70	O	0.424607	0.179040	-0.084336
O71	O	0.326036	0.080480	0.014231
O72	O	0.424605	0.249045	-0.014338
Cu73	Cu	0.382630	0.164762	-0.000053
Cu74	Cu	0.287954	0.164765	-0.000059
O75	O	0.326034	0.150486	0.084230
O76	O	0.905273	0.249033	-0.494995
O77	O	0.765273	0.080470	-0.425001
O78	O	0.765270	0.179032	-0.424994
O79	O	0.905276	0.150471	-0.495003
O80	O	0.765272	0.179034	-0.505055
O81	O	0.765275	0.080472	-0.505062
O82	O	0.905275	0.249035	-0.575056
Cu83	Cu	0.835275	0.164754	-0.547369
Cu84	Cu	0.835273	0.164751	-0.452688
O85	O	0.905278	0.150473	-0.575063
O86	O	0.326020	-0.330218	-0.575063
O87	O	0.424588	-0.260215	-0.505065
O88	O	0.326020	-0.260217	-0.505059
O89	O	0.424589	-0.330216	-0.575069
O90	O	0.245961	-0.340275	-0.425000
O91	O	0.344530	-0.340273	-0.425006
O92	O	0.245962	-0.410276	-0.495003
Cu93	Cu	0.287936	-0.382585	-0.452694
Cu94	Cu	0.382614	-0.287906	-0.547374
O95	O	0.344531	-0.410274	-0.495009
C96	C	0.090559	-0.550051	0.372323
C97	C	0.031152	-0.613546	0.402025
C98	C	0.119386	-0.520817	0.401426
C99	C	0.177725	-0.462885	0.285158
C100	C	0.211517	-0.433181	0.221663
C101	C	0.206420	-0.433783	0.314394
C102	C	0.177724	-0.462886	0.372324
C103	C	0.211515	-0.433183	0.402029
C104	C	0.119387	-0.520816	0.314392
C105	C	0.238815	-0.409187	0.426026
C106	C	-0.016842	-0.664843	0.426021
C107	C	0.238818	-0.409184	0.170365
C108	C	0.273064	-0.379082	0.456133
C109	C	-0.077053	-0.729198	0.456125
C110	C	0.273068	-0.379078	0.106010
C111	C	0.177761	-0.120445	-0.372420
C112	C	0.211554	-0.056951	-0.402125
C113	C	0.206457	-0.149682	-0.401521
C114	C	0.090590	-0.207608	-0.285252
C115	C	0.031179	-0.237308	-0.221756
C116	C	0.119418	-0.236712	-0.314485
C117	C	0.177759	-0.207612	-0.372416
C118	C	0.211551	-0.237318	-0.402117
C119	C	0.119420	-0.149677	-0.314489
C120	C	0.238852	-0.261316	-0.426113
C121	C	0.238857	-0.005654	-0.426124
C122	C	-0.016817	-0.261303	-0.170458
C123	C	0.273102	-0.291424	-0.456216
C124	C	0.273109	0.058701	-0.456232
C125	C	-0.077032	-0.291406	-0.106103
C126	C	-0.507174	-0.462860	0.372301
C127	C	-0.540966	-0.433155	0.402003
C128	C	-0.535872	-0.520790	0.401406
C129	C	-0.420004	-0.462864	0.285137
C130	C	-0.360594	-0.433163	0.221642
C131	C	-0.448834	-0.520794	0.314373
C132	C	-0.507175	-0.550027	0.372304
C133	C	-0.540968	-0.613521	0.402010
C134	C	-0.448833	-0.433760	0.314371
C135	C	-0.568270	-0.664818	0.426008
C136	C	-0.568268	-0.409157	0.425999
C137	C	-0.312597	-0.409168	0.170343
C138	C	-0.602522	-0.729173	0.456115
C139	C	-0.602518	-0.379050	0.456103
C140	C	-0.252383	-0.379064	0.105988
C141	C	0.580005	0.194619	-0.372405
C142	C	0.639409	0.190525	-0.402104
C143	C	0.551178	0.195023	-0.401510
C144	C	0.492843	0.194635	-0.285245
C145	C	0.459054	0.190558	-0.221751
C146	C	0.464149	0.195039	-0.314482
C147	C	0.492843	0.194621	-0.372410
C148	C	0.459052	0.190530	-0.402115
C149	C	0.551179	0.195036	-0.314476
C150	C	0.431752	0.187222	-0.426113
C151	C	0.687401	0.187216	-0.426097
C152	C	0.431754	0.187263	-0.170455
C153	C	0.397503	0.183075	-0.456220
C154	C	0.747609	0.183066	-0.456199
C155	C	0.397506	0.183130	-0.106101
O156	O	0.424649	0.249027	-0.575092
O157	O	0.326070	0.080461	-0.505095
O158	O	0.424629	0.179018	-0.505082
O159	O	0.326090	0.150471	-0.575105
O160	O	0.344563	0.179021	-0.425026
O161	O	0.246004	0.080464	-0.425039
O162	O	0.344583	0.249030	-0.495036
Cu163	Cu	0.287983	0.164747	-0.452728
Cu164	Cu	0.382670	0.164744	-0.547403
O165	O	0.246024	0.150474	-0.495049
C166	C	0.177742	0.134906	0.372298
C167	C	0.211532	0.138997	0.402003
C168	C	0.119406	0.134505	0.401398
C169	C	0.177741	0.134893	0.285133
C170	C	0.211531	0.138970	0.221639
C171	C	0.119406	0.134492	0.314364
C172	C	0.090580	0.134909	0.372293
C173	C	0.031176	0.139004	0.401992
C174	C	0.206435	0.134489	0.314370
C175	C	-0.016815	0.142313	0.425985
C176	C	0.238832	0.142304	0.426002
C177	C	0.238831	0.142265	0.170343
C178	C	-0.077023	0.146464	0.456086
C179	C	0.273081	0.146451	0.456109
C180	C	0.273079	0.146398	0.105989
H181	H	0.253368	-0.126194	0.030932
H182	H	0.575304	-0.386180	-0.031019
C183	C	0.086798	-0.117961	0.031152
C184	C	0.080120	-0.108839	-0.019314
C185	C	0.047519	-0.077141	-0.018428
C186	C	0.021596	-0.054564	0.032924
C187	C	0.028274	-0.063685	0.083394
C188	C	0.060875	-0.095384	0.082508
H189	H	0.099310	-0.125553	-0.057331
H190	H	0.042576	-0.070389	-0.055790
H191	H	-0.002537	-0.031099	0.033580
H192	H	0.009084	-0.046972	0.121411
H193	H	0.065818	-0.102135	0.119869
H194	H	0.095249	-0.544287	0.449028
C195	C	0.583764	-0.117963	-0.282758
C196	C	0.552057	-0.150108	-0.218899
C197	C	0.584656	-0.118398	-0.187198
C198	C	0.648962	-0.054544	-0.219355
C199	C	0.680672	-0.022396	-0.283218
C200	C	0.648073	-0.054105	-0.314919
H201	H	0.504451	-0.197379	-0.195091
H202	H	0.561182	-0.142197	-0.139923
H203	H	0.673094	-0.031071	-0.195888
H204	H	0.728279	0.024876	-0.307026
H205	H	0.671548	-0.030307	-0.362195
H206	H	0.417198	-0.544282	-0.031019
H207	H	0.095268	-0.284299	0.030928
C208	C	0.400732	0.195925	-0.282775
C209	C	0.334460	0.145455	-0.273642
C210	C	0.271043	0.146338	-0.241936
C211	C	0.273898	0.197691	-0.219362
C212	C	0.340173	0.248165	-0.228494
C213	C	0.403590	0.247282	-0.260201
H214	H	0.332343	0.107437	-0.290353
H215	H	0.221982	0.108974	-0.235176
H216	H	0.226954	0.198345	-0.195891
H217	H	0.342289	0.286183	-0.211783
H218	H	0.452650	0.284646	-0.266961
H219	H	0.575291	-0.126204	-0.449095
C220	C	0.583766	0.195895	-0.465809
C221	C	0.648058	0.196323	-0.497956
C222	C	0.680642	0.197194	-0.562252
C223	C	0.648934	0.197638	-0.594400
C224	C	0.584638	0.197210	-0.562253
C225	C	0.552054	0.196339	-0.497957
H226	H	0.671533	0.195994	-0.474157
H227	H	0.728238	0.197511	-0.586049
H228	H	0.673054	0.198283	-0.641996
H229	H	0.561163	0.197539	-0.586052
H230	H	0.504458	0.196022	-0.474160
H231	H	0.575312	-0.544278	-0.031030
C232	C	0.400711	-0.301005	-0.282750
C233	C	0.368991	-0.333154	-0.314892
C234	C	0.305569	-0.397449	-0.283178
C235	C	0.273867	-0.429594	-0.219321
C236	C	0.305587	-0.397444	-0.187175
C237	C	0.369009	-0.333150	-0.218890
H238	H	0.392458	-0.309358	-0.362167
H239	H	0.282088	-0.421248	-0.306974
H240	H	0.226918	-0.477188	-0.195843
H241	H	0.282119	-0.421240	-0.139901
H242	H	0.392490	-0.309351	-0.195093
C243	C	0.269842	-0.369484	0.282687
C244	C	0.301562	-0.337334	0.218825
C245	C	0.364984	-0.273040	0.187120
C246	C	0.396685	-0.240895	0.219276
C247	C	0.364965	-0.273046	0.283141
C248	C	0.301543	-0.337340	0.314847
H249	H	0.278095	-0.361130	0.195018
H250	H	0.388465	-0.249241	0.139843
H251	H	0.443634	-0.193301	0.195806
H252	H	0.388432	-0.249250	0.306949
H253	H	0.278061	-0.361139	0.362124
C254	C	0.583757	0.195909	-0.282757
C255	C	0.648042	0.196326	-0.314893
C256	C	0.680612	0.197190	-0.283172
C257	C	0.648898	0.197638	-0.219314
C258	C	0.584609	0.197221	-0.187175
C259	C	0.552039	0.196357	-0.218897
H260	H	0.671522	0.195994	-0.362167
H261	H	0.728202	0.197499	-0.306964
H262	H	0.673008	0.198278	-0.195832
H263	H	0.561129	0.197553	-0.139901
H264	H	0.504449	0.196049	-0.195105
C265	C	0.086773	-0.552508	0.282692
C266	C	0.022460	-0.616358	0.314844
C267	C	-0.010162	-0.648042	0.283150
C268	C	0.021529	-0.615875	0.219304
C269	C	0.085846	-0.552021	0.187149
C270	C	0.118468	-0.520337	0.218843
H271	H	-0.001002	-0.640173	0.362110
H272	H	-0.057773	-0.695311	0.306954
H273	H	-0.002620	-0.639329	0.195843
H274	H	0.109308	-0.528206	0.139883
H275	H	0.166079	-0.473068	0.195039
C276	C	0.086823	-0.301014	-0.282779
C277	C	0.022522	-0.333164	-0.218920
C278	C	-0.010071	-0.397464	-0.187217
C279	C	0.021636	-0.429614	-0.219373
C280	C	0.085940	-0.397464	-0.283236
C281	C	0.118533	-0.333164	-0.314939
H282	H	-0.000952	-0.309364	-0.195112
H283	H	-0.057673	-0.421263	-0.139941
H284	H	-0.002492	-0.477212	-0.195905
H285	H	0.109414	-0.421263	-0.307043
H286	H	0.166135	-0.309365	-0.362214
H287	H	0.095296	-0.126201	-0.291020
C288	C	0.086807	0.133598	0.282659
C289	C	0.118511	0.133147	0.218802
C290	C	0.085911	0.132251	0.187101
C291	C	0.021607	0.131805	0.219255
C292	C	-0.010100	0.132256	0.283115
C293	C	0.022500	0.133152	0.314817
H294	H	0.166116	0.133477	0.194996
H295	H	0.109383	0.131917	0.139827
H296	H	-0.002525	0.131142	0.195788
H297	H	-0.057705	0.131925	0.306921
H298	H	-0.000972	0.133485	0.362090
C299	C	0.086835	0.133666	0.465686
C300	C	0.118559	0.133260	0.497831
C301	C	0.085998	0.132438	0.562111
C302	C	0.021714	0.132022	0.594246
C303	C	-0.010013	0.132428	0.562101
C304	C	0.022547	0.133250	0.497821
H305	H	0.166149	0.133568	0.474043
H306	H	0.109486	0.132137	0.585907
H307	H	-0.002389	0.131413	0.641830
H308	H	-0.057604	0.132120	0.585889
H309	H	-0.000940	0.133550	0.474025
C310	C	0.269875	-0.117981	-0.465823
C311	C	0.301592	-0.054122	-0.497978
C312	C	0.365007	-0.022424	-0.562278
C313	C	0.396704	-0.054584	-0.594423
C314	C	0.364987	-0.118446	-0.562269
C315	C	0.301572	-0.150144	-0.497969
H316	H	0.278128	-0.030312	-0.474182
H317	H	0.388486	0.024851	-0.586080
H318	H	0.443648	-0.031119	-0.642022
H319	H	0.388451	-0.142256	-0.586065
H320	H	0.278093	-0.197419	-0.474166
H321	H	-0.424704	-0.544265	0.290901
C322	C	0.269847	0.133594	0.282664
C323	C	0.301561	0.133161	0.314810
C324	C	0.364969	0.132265	0.283104
C325	C	0.396664	0.131803	0.219252
C326	C	0.364950	0.132237	0.187101
C327	C	0.301542	0.133132	0.218807
H328	H	0.278098	0.133502	0.362081
H329	H	0.388445	0.131944	0.306904
H330	H	0.443603	0.131141	0.195781
H331	H	0.388413	0.131895	0.139831
H332	H	0.278066	0.133453	0.195007
C333	C	-0.599289	-0.552498	0.465708
C334	C	-0.631005	-0.520352	0.497859
C335	C	-0.694420	-0.552060	0.562159
C336	C	-0.726119	-0.615914	0.594308
C337	C	-0.694403	-0.648064	0.562158
C338	C	-0.630988	-0.616356	0.497858
H339	H	-0.607540	-0.473081	0.474060
H340	H	-0.717898	-0.528260	0.585959
H341	H	-0.773062	-0.639386	0.641907
H342	H	-0.717869	-0.695335	0.585957
H343	H	-0.607510	-0.640155	0.474058
C344	C	-0.416235	-0.369459	0.282658
C345	C	-0.447944	-0.337306	0.314800
C346	C	-0.415346	-0.273008	0.283087
C347	C	-0.351038	-0.240863	0.219231
C348	C	-0.319326	-0.273016	0.187085
C349	C	-0.351924	-0.337314	0.218799
H350	H	-0.495552	-0.361101	0.362073
H351	H	-0.438822	-0.249206	0.306884
H352	H	-0.326907	-0.193266	0.195755
H353	H	-0.271718	-0.249221	0.139813
H354	H	-0.328447	-0.361116	0.195002
