data_functionalizedCrystal
_audit_creation_method	'MofGen! by Chris Wilmer'
_symmetry_space_group_name_H-M	'P1'
_symmetry_Int_Tables_number	1
_symmetry_cell_setting	triclinic
loop_
_symmetry_equiv_pos_as_xyz
  x,y,z
_cell_length_a	29.839131
_cell_length_b	10.685904
_cell_length_c	10.685880
_cell_angle_alpha	80.918635
_cell_angle_beta	94.334932
_cell_angle_gamma	94.407826
loop_
_atom_site_label
_atom_site_type_symbol
_atom_site_fract_x
_atom_site_fract_y
_atom_site_fract_z
Zn1	Zn	-0.148026	1.995557	-0.866620
Zn2	Zn	-0.217822	1.979054	-0.654336
Zn3	Zn	-0.148050	1.766996	-0.638092
Zn4	Zn	-0.228478	1.783151	-0.850234
O5	O	-0.185594	1.881189	-0.752320
O6	O	-0.152815	2.171008	-0.852116
O7	O	-0.204118	1.937256	-0.474557
O8	O	-0.085177	1.797461	-0.668466
O9	O	-0.204094	2.158883	-0.696151
O10	O	-0.085159	1.965384	-0.836365
O11	O	-0.152856	1.781458	-0.462623
O12	O	-0.163188	1.591499	-0.652577
O13	O	-0.222255	1.824995	-1.030032
O14	O	-0.222278	1.603368	-0.808437
O15	O	-0.163147	1.981049	-1.042071
O16	O	-0.282105	1.952921	-0.680262
O17	O	-0.289934	1.808992	-0.824188
C18	C	-0.193892	1.551373	-0.726967
C19	C	-0.197454	1.410278	-0.716151
C20	C	-0.302321	1.880955	-0.752240
C21	C	-0.352255	1.880975	-0.752257
C22	C	-0.657805	1.956290	-0.677508
C23	C	-0.845475	1.956451	-0.677570
O24	O	-0.866262	2.020301	-0.613953
N25	N	-0.873032	1.881460	-0.752436
C26	C	-0.853668	1.806430	-0.827299
O27	O	-0.881413	1.742660	-0.890990
C28	C	-0.665999	1.806278	-0.827244
C29	C	-0.638444	1.881263	-0.752363
C30	C	-0.630250	2.031271	-0.602634
C31	C	-0.583336	2.031225	-0.602614
C32	C	-0.563975	1.956198	-0.677469
C33	C	-0.591529	1.881217	-0.752343
C34	C	-0.646636	1.731256	-0.902113
C35	C	-0.599715	1.731227	-0.902095
C36	C	-0.572161	1.806212	-0.827214
C37	C	-0.525254	1.806144	-0.827178
N38	N	-0.497697	1.881135	-0.752311
C39	C	-0.517058	1.956162	-0.677456
C40	C	-0.952197	1.806514	-0.827321
C41	C	-0.999114	1.806550	-0.827334
C42	C	-0.990918	1.956572	-0.677605
C43	C	-0.944000	1.956528	-0.677587
C44	C	-0.924640	1.881504	-0.752455
C45	C	-0.418534	1.956058	-0.677419
C46	C	-0.371615	1.956001	-0.677402
C47	C	-0.379816	1.805985	-0.827135
C48	C	-0.426730	1.806036	-0.827148
C49	C	-0.446088	1.881083	-0.752287
O50	O	-0.504436	1.742338	-0.890771
O51	O	-0.489305	2.019944	-0.613797
C52	C	-0.704719	1.956336	-0.677528
C53	C	-0.732274	1.881356	-0.752402
C54	C	-0.712913	1.806329	-0.827257
C55	C	-0.779191	1.881392	-0.752415
C56	C	-0.798551	1.956419	-0.677560
C57	C	-0.770994	2.031409	-0.602693
C58	C	-0.724080	2.031363	-0.602674
C59	C	-0.740470	1.731338	-0.902124
C60	C	-0.787384	1.731389	-0.902136
C61	C	-0.806745	1.806416	-0.827282
C62	C	-0.068411	1.881461	-0.752432
C63	C	-0.018475	1.881577	-0.752479
C64	C	-0.193887	1.906665	-1.083395
C65	C	-0.197421	1.917521	-1.224479
C66	C	-0.177263	2.212294	-0.777773
C67	C	-0.173713	2.353391	-0.788620
C68	C	-0.177299	1.855886	-0.422540
C69	C	-0.173632	1.845276	-0.281475
H70	H	-0.349181	2.017063	-0.616420
H71	H	-0.701648	2.092424	-0.541698
H72	H	-0.150564	1.775110	-1.222337
Br73	Br	-0.573445	1.629407	-1.003713
H74	H	-0.220501	1.351041	-0.645831
H75	H	-0.786766	2.092495	-0.541740
H76	H	-0.150661	1.412634	-0.858936
Br77	Br	-0.235879	2.034463	-1.323045
H78	H	-0.434289	2.017171	-0.616463
Br79	Br	-0.545947	2.133017	-0.501004
Br80	Br	-0.906609	2.058297	-0.575958
Br81	Br	-1.017202	2.058390	-0.576012
Br82	Br	-0.656516	2.133110	-0.501035
Br83	Br	-1.036504	1.704759	-0.928942
H84	H	-0.364045	1.744894	-0.888077
H85	H	-0.936438	1.745417	-0.888289
Br86	Br	-0.684020	1.629497	-1.003760
Br87	Br	-0.464127	1.704236	-0.928740
H88	H	-0.809816	1.670316	-0.963112
H89	H	-0.724711	1.670244	-0.963081
