data_functionalizedCrystal
_audit_creation_method	'MofGen! by Chris Wilmer'
_symmetry_space_group_name_H-M	'P1'
_symmetry_Int_Tables_number	1
_symmetry_cell_setting	triclinic
loop_
_symmetry_equiv_pos_as_xyz
  x,y,z
_cell_length_a	10.967926
_cell_length_b	15.538117
_cell_length_c	10.065875
_cell_angle_alpha	84.703274
_cell_angle_beta	93.120479
_cell_angle_gamma	113.558071
loop_
_atom_site_label
_atom_site_type_symbol
_atom_site_fract_x
_atom_site_fract_y
_atom_site_fract_z
O1	O	1.542285	-0.161789	0.249262
O2	O	1.191085	-0.164438	0.166659
O3	O	1.435047	-0.028386	0.224032
O4	O	1.298323	-0.297841	0.191890
O5	O	1.388480	-0.054439	0.440069
O6	O	1.144517	-0.190490	0.382697
O7	O	1.495717	-0.187841	0.465299
Zn8	Zn	1.312723	-0.193302	0.458299
Zn9	Zn	1.374079	-0.158977	0.173660
O10	O	1.251755	-0.323893	0.407927
C11	C	1.123951	-0.175303	0.264364
C12	C	0.993296	-0.168852	0.233633
C13	C	0.910922	-0.179472	0.331846
C14	C	0.775883	-0.172804	0.300087
C15	C	1.426069	-0.006819	0.335410
C16	C	1.468681	0.096258	0.345418
C17	C	1.045339	0.398926	0.245874
C18	C	1.085406	0.495782	0.255300
C19	C	1.310786	0.510303	0.308309
C20	C	1.270740	0.413446	0.298881
C21	C	1.138015	0.357765	0.267665
C22	C	1.363415	0.372285	0.320672
C23	C	1.323370	0.275436	0.311252
C24	C	1.190650	0.219748	0.280041
C25	C	1.097969	0.260915	0.258245
C26	C	1.496138	0.427968	0.351897
C27	C	1.588813	0.386807	0.373688
C28	C	1.548771	0.289957	0.364259
C29	C	1.416050	0.234268	0.333048
C30	C	1.641451	0.248789	0.386055
C31	C	1.601406	0.151940	0.376634
C32	C	1.376005	0.137419	0.323627
C33	C	1.562852	-0.176976	0.367592
C34	C	1.693509	-0.183426	0.398314
C35	C	1.260728	0.654540	0.296542
C36	C	1.218102	0.551464	0.286515
N37	N	1.270859	-0.216728	0.652559
N38	N	1.415956	-0.135544	-0.020597
C39	C	1.359508	-0.167121	0.741185
C40	C	1.327294	-0.185158	0.890777
H41	H	0.940375	-0.193494	0.439443
H42	H	1.515704	-0.079715	0.944540
N43	N	0.732484	-0.202007	0.540855
H44	H	0.816987	-0.148007	0.566171
H45	H	0.747552	-0.262311	0.549767
N46	N	1.195161	-0.259103	0.936951
H47	H	1.185366	-0.322566	0.909855
H48	H	1.120790	-0.242697	0.894648
H49	H	0.746440	-0.158773	0.192484
N50	N	1.138726	-0.290667	0.698729
H51	H	1.134442	-0.293069	0.799048
H52	H	1.129012	-0.354088	0.671543
N53	N	1.491625	-0.093178	0.694984
H54	H	1.566089	-0.109490	0.737261
H55	H	1.501292	-0.029744	0.722076
H56	H	1.696878	0.432155	0.399110
H57	H	0.963847	-0.154822	0.126038
N58	N	1.147463	0.115290	0.269874
H59	H	1.110833	0.098775	0.177112
H60	H	1.076351	0.079516	0.337348
H61	H	1.267929	0.092081	0.298198
H62	H	1.418851	0.555651	0.333731
N63	N	0.954804	0.200863	0.224595
H64	H	0.915912	0.150704	0.299601
H65	H	0.950511	0.170072	0.139392
H66	H	0.937263	0.353587	0.220445
N67	N	0.985442	0.540179	0.231798
H68	H	0.895288	0.490206	0.210594
H69	H	1.014409	0.589706	0.154463
N70	N	1.539328	0.532426	0.362065
H71	H	1.521999	0.562567	0.273841
H72	H	1.637457	0.561375	0.385205
H73	H	1.749513	0.294138	0.411484
N74	N	1.701354	0.107535	0.400142
H75	H	1.791511	0.157505	0.421344
H76	H	1.706908	0.077326	0.317302
