data_functionalizedCrystal
_audit_creation_method	'MofGen! by Chris Wilmer'
_symmetry_space_group_name_H-M	'P1'
_symmetry_Int_Tables_number	1
_symmetry_cell_setting	triclinic
loop_
_symmetry_equiv_pos_as_xyz
  x,y,z
_cell_length_a	8.965430
_cell_length_b	10.654550
_cell_length_c	10.654550
_cell_angle_alpha	84.484931
_cell_angle_beta	90.000576
_cell_angle_gamma	89.999396
loop_
_atom_site_label
_atom_site_type_symbol
_atom_site_fract_x
_atom_site_fract_y
_atom_site_fract_z
O1	O	0.123928	-1.667841	-0.176390
O2	O	0.123955	-1.302362	-0.193196
O3	O	0.123931	-1.493505	-0.002053
O4	O	0.123951	-1.476699	-0.367532
O5	O	-0.124148	-1.493489	-0.002066
O6	O	-0.124124	-1.302346	-0.193208
O7	O	-0.124151	-1.667825	-0.176402
Cu8	Cu	-0.146789	-1.485084	-0.184807
Cu9	Cu	0.146593	-1.485103	-0.184792
O10	O	-0.124128	-1.476683	-0.367545
C11	C	-0.000081	-1.255556	-0.191968
C12	C	-0.000071	-1.116113	-0.188276
N13	N	-0.353138	-1.485080	-0.184816
C14	C	-0.000107	-1.492263	0.044738
C15	C	-0.000105	-1.488571	0.184181
C16	C	-0.450433	-1.396655	-0.273184
C17	C	-0.549854	-1.510358	-0.298542
C18	C	-0.549845	-1.371425	-0.159469
C19	C	-0.450370	-1.598841	-0.210232
C20	C	-0.450352	-1.459832	-0.071108
C21	C	-0.549728	-1.573616	-0.096419
N22	N	0.352942	-1.485117	-0.184772
C23	C	-0.000112	-1.714631	-0.177630
C24	C	-0.000112	-1.854074	-0.181322
C25	C	-0.000069	-1.036628	-0.300818
C26	C	-0.000095	-0.905607	-0.297341
C27	C	-0.000119	-0.933570	-0.068772
C28	C	-0.000103	-1.064588	-0.072250
C29	C	-0.000086	-1.477925	-0.414336
C30	C	-0.000079	-1.481616	-0.553779
C31	C	-0.000113	-1.601112	0.263667
C32	C	-0.000094	-1.597636	0.394688
C33	C	-0.000066	-1.369066	0.366725
C34	C	-0.000074	-1.372544	0.235706
H35	H	-0.406835	-1.321947	-0.347983
H36	H	-0.000054	-1.078574	-0.395294
O37	O	-0.607735	-1.244093	-0.131089
H38	H	-0.566181	-1.222491	-0.037417
H39	H	-0.000044	-1.274601	0.408693
H40	H	-0.000097	-1.689279	0.459401
H41	H	-0.406859	-1.694994	-0.231767
O42	O	-0.392406	-1.431461	0.056200
H43	H	-0.433927	-1.503943	0.129700
H44	H	-0.000097	-0.840894	-0.388984
H45	H	-0.000154	-0.891602	0.025693
O46	O	-0.000082	-1.251155	0.149960
H47	H	-0.000087	-1.169891	0.207797
H48	H	-0.000109	-1.129309	0.019401
O49	O	-0.607842	-1.538645	-0.425872
H50	H	-0.568115	-1.465089	-0.499081
O51	O	-0.000115	-1.726248	0.208086
H52	H	-0.000098	-1.803920	0.285375
H53	H	-0.593053	-1.648493	-0.021667
