data_functionalizedCrystal
_audit_creation_method	'MofGen! by Chris Wilmer'
_symmetry_space_group_name_H-M	'P1'
_symmetry_Int_Tables_number	1
_symmetry_cell_setting	triclinic
loop_
_symmetry_equiv_pos_as_xyz
  x,y,z
_cell_length_a	16.959454
_cell_length_b	16.959455
_cell_length_c	16.959447
_cell_angle_alpha	89.982150
_cell_angle_beta	90.026818
_cell_angle_gamma	89.985155
loop_
_atom_site_label
_atom_site_type_symbol
_atom_site_fract_x
_atom_site_fract_y
_atom_site_fract_z
Zn1	Zn	-0.314776	-1.208404	0.446947
Zn2	Zn	-0.446968	-1.208321	0.314777
Zn3	Zn	-0.314796	-1.076227	0.314783
Zn4	Zn	-0.446904	-1.076197	0.446914
O5	O	-0.380861	-1.142287	0.380855
O6	O	-0.332330	-1.319004	0.429427
O7	O	-0.429470	-1.190775	0.204167
O8	O	-0.204182	-1.093807	0.332331
O9	O	-0.429451	-1.318943	0.332322
O10	O	-0.204167	-1.190918	0.429432
O11	O	-0.332364	-1.093726	0.204171
O12	O	-0.332301	-0.965612	0.332299
O13	O	-0.429342	-1.093758	0.557529
O14	O	-0.429361	-0.965590	0.429374
O15	O	-0.332267	-1.190889	0.557554
O16	O	-0.557571	-1.190747	0.332289
O17	O	-0.557523	-1.093677	0.429369
C18	C	-0.380827	-0.936921	0.380834
C19	C	-0.380832	-0.849064	0.380844
C20	C	-0.330255	-0.477576	0.330403
C21	C	-0.431481	-0.477602	0.431332
C22	C	-0.431473	-0.560148	0.431328
C23	C	-0.380856	-0.601411	0.380861
C24	C	-0.330247	-0.560129	0.330396
C25	C	-0.482086	-0.601436	0.481786
C26	C	-0.482081	-0.683987	0.481784
C27	C	-0.431459	-0.725252	0.431320
C28	C	-0.380848	-0.683965	0.380854
C29	C	-0.330231	-0.725228	0.330386
C30	C	-0.279615	-0.683943	0.279924
C31	C	-0.279626	-0.601394	0.279932
C32	C	-0.431448	-0.807801	0.431311
C33	C	-0.330223	-0.807782	0.330379
C34	C	-0.586227	-1.142221	0.380842
C35	C	-0.674084	-1.142265	0.380863
C36	C	-1.045565	-1.091816	0.431399
C37	C	-1.045554	-1.192979	0.330392
C38	C	-0.963008	-1.192951	0.330384
C39	C	-0.921737	-1.142354	0.380885
C40	C	-0.963011	-1.091785	0.431392
C41	C	-0.921727	-1.243514	0.279872
C42	C	-0.839176	-1.243487	0.279862
C43	C	-0.797904	-1.192894	0.330367
C44	C	-0.839183	-1.142323	0.380877
C45	C	-0.797912	-1.091727	0.431377
C46	C	-0.839190	-1.041160	0.481892
C47	C	-0.921738	-1.041192	0.481897
C48	C	-0.715355	-1.192862	0.330362
C49	C	-0.715358	-1.091696	0.431370
C50	C	-0.174693	-1.142375	0.380886
C51	C	-0.086836	-1.142413	0.380899
C52	C	-0.380795	-1.142330	0.587024
C53	C	-0.380767	-1.142348	0.674880
C54	C	-0.380886	-0.348455	0.380873
C55	C	-0.380872	-0.436312	0.380871
C56	C	-0.380869	-1.142291	0.175489
C57	C	-0.380675	-1.142426	0.087633
C58	C	-0.330125	-1.091888	1.046365
C59	C	-0.431243	-1.192946	1.046348
C60	C	-0.431261	-1.192932	0.963802
C61	C	-0.380712	-1.142395	0.922533
C62	C	-0.330143	-1.091871	0.963811
C63	C	-0.481834	-1.243449	0.922518
C64	C	-0.481855	-1.243437	0.839967
C65	C	-0.431301	-1.192903	0.798697
C66	C	-0.380730	-1.142378	0.839980
C67	C	-0.330180	-1.091841	0.798711
C68	C	-0.279605	-1.041319	0.839993
C69	C	-0.279589	-1.041337	0.922541
C70	C	-0.431317	-1.192885	0.716149
C71	C	-0.330199	-1.091824	0.716158
H72	H	-0.523295	-0.717595	0.522874
C73	C	-0.223939	-0.729338	0.224413
H74	H	-0.231186	-0.784413	0.231642
H75	H	-0.235437	-0.715787	0.171285
H76	H	-0.170842	-0.715829	0.236080
H77	H	-0.523301	-0.567834	0.522869
H78	H	-0.238414	-1.000204	0.956160
C79	C	-0.486943	-1.248448	0.670739
H80	H	-0.479717	-1.241198	0.615665
H81	H	-0.475388	-1.301565	0.684277
H82	H	-0.540048	-1.236848	0.684252
C83	C	-0.793778	-1.299115	0.224307
H84	H	-0.830181	-1.329256	0.194237
H85	H	-0.761608	-1.268894	0.189836
H86	H	-0.761543	-1.333528	0.254582
H87	H	-0.238451	-1.000168	0.806381
H88	H	-0.288945	-1.050757	1.079979
H89	H	-0.955354	-1.000022	0.523022
H90	H	-0.472404	-1.234085	1.079953
H91	H	-0.472661	-0.841412	0.472395
C92	C	-0.223958	-0.555983	0.224424
H93	H	-0.193804	-0.592378	0.194371
H94	H	-0.254156	-0.523763	0.189937
H95	H	-0.189557	-0.523797	0.254727
H96	H	-0.472695	-0.444000	0.472416
H97	H	-0.522998	-1.284585	0.956125
C98	C	-0.669966	-1.036039	0.486923
H99	H	-0.706374	-1.005928	0.517002
H100	H	-0.637722	-1.066242	0.521385
H101	H	-0.637806	-1.001599	0.456648
C102	C	-0.274585	-0.432166	0.274896
H103	H	-0.281838	-0.377093	0.282123
H104	H	-0.221490	-0.445711	0.286551
H105	H	-0.286093	-0.445672	0.221764
H106	H	-0.523038	-1.284574	0.806363
H107	H	-0.805577	-0.999960	0.523006
H108	H	-0.288999	-0.841373	0.289286
C109	C	-1.090965	-1.036194	0.486959
H110	H	-1.146040	-1.043453	0.479731
H111	H	-1.077396	-1.047722	0.540076
H112	H	-1.077477	-0.983085	0.475333
C113	C	-1.090950	-1.248634	0.274850
H114	H	-1.146025	-1.241414	0.282093
H115	H	-1.077460	-1.237103	0.221728
H116	H	-1.077382	-1.301732	0.286479
C117	C	-0.967125	-1.299175	0.224338
H118	H	-1.022200	-1.291960	0.231588
H119	H	-0.953644	-1.287645	0.171213
H120	H	-0.953550	-1.352271	0.235967
H121	H	-0.681750	-1.234029	0.289230
C122	C	-0.274598	-1.036227	0.670769
H123	H	-0.244483	-1.006138	0.707179
H124	H	-0.240171	-1.066465	0.638572
H125	H	-0.304845	-1.001763	0.638562
