data_functionalizedCrystal
_audit_creation_method	'MofGen! by Chris Wilmer'
_symmetry_space_group_name_H-M	'P1'
_symmetry_Int_Tables_number	1
_symmetry_cell_setting	triclinic
loop_
_symmetry_equiv_pos_as_xyz
  x,y,z
_cell_length_a	16.120490
_cell_length_b	16.120297
_cell_length_c	16.120531
_cell_angle_alpha	84.389419
_cell_angle_beta	89.829344
_cell_angle_gamma	90.129683
loop_
_atom_site_label
_atom_site_type_symbol
_atom_site_fract_x
_atom_site_fract_y
_atom_site_fract_z
Zn1	Zn	1.224942	-0.554758	0.422327
Zn2	Zn	1.224822	-0.422054	0.555010
Zn3	Zn	1.093682	-0.408005	0.408236
Zn4	Zn	1.078819	-0.553990	0.554234
O5	O	1.155566	-0.484702	0.484952
O6	O	1.340961	-0.543356	0.446149
O7	O	1.213596	-0.303558	0.529967
O8	O	1.117365	-0.421914	0.293476
O9	O	1.340873	-0.445859	0.543631
O10	O	1.213800	-0.529733	0.303828
O11	O	1.117249	-0.293236	0.422133
O12	O	0.975675	-0.421169	0.421381
O13	O	1.092032	-0.670724	0.542309
O14	O	0.964755	-0.528424	0.528645
O15	O	1.199388	-0.671289	0.445397
O16	O	1.199184	-0.445114	0.671536
O17	O	1.091916	-0.542047	0.670966
C18	C	0.940129	-0.473189	0.473401
C19	C	0.847961	-0.468284	0.468480
C20	C	0.632762	-0.510144	0.510469
C21	C	0.679215	-0.459329	0.459504
C22	C	0.773114	-0.464313	0.464500
C23	C	0.538854	-0.505161	0.505474
C24	C	1.144066	-0.702094	0.495339
C25	C	1.139165	-0.794733	0.499765
C26	C	1.130187	-0.964344	0.507826
C27	C	1.181122	-1.005908	0.461836
C28	C	1.176127	-1.100286	0.466321
C29	C	1.135181	-0.869958	0.503342
C30	C	1.371845	-0.496261	0.496548
C31	C	1.464010	-0.501186	0.501490
C32	C	1.143946	-0.495041	0.701494
C33	C	1.139049	-0.499496	0.794137
C34	C	1.167073	-0.268156	0.474547
C35	C	1.172147	-0.175514	0.469895
C36	C	1.130113	-0.507647	0.963758
C37	C	1.181054	-0.461711	1.005304
C38	C	1.176082	-0.466246	1.099687
C39	C	1.135084	-0.503113	0.869367
C40	C	1.167225	-0.474325	1.267564
C41	C	1.172120	-0.469860	1.174920
H42	H	0.663511	-0.557388	0.557851
H43	H	0.648464	-0.412080	0.412119
H44	H	1.228479	-0.970613	0.419093
H45	H	1.082834	-0.999637	0.550565
H46	H	1.082769	-0.550376	0.999071
F47	F	1.242938	-0.405853	0.959147
