data_functionalizedCrystal
_audit_creation_method	'MofGen! by Chris Wilmer'
_symmetry_space_group_name_H-M	'P1'
_symmetry_Int_Tables_number	1
_symmetry_cell_setting	triclinic
loop_
_symmetry_equiv_pos_as_xyz
  x,y,z
_cell_length_a	10.685727
_cell_length_b	10.686285
_cell_length_c	10.686551
_cell_angle_alpha	80.915481
_cell_angle_beta	80.924363
_cell_angle_gamma	80.941179
loop_
_atom_site_label
_atom_site_type_symbol
_atom_site_fract_x
_atom_site_fract_y
_atom_site_fract_z
Zn1	Zn	-2.038245	0.595538	0.823940
Zn2	Zn	-2.038142	0.824111	0.595430
Zn3	Zn	-1.809683	0.595590	0.595449
Zn4	Zn	-1.840094	0.793603	0.793551
O5	O	-1.931541	0.702211	0.702092
O6	O	-2.216770	0.638605	0.806337
O7	O	-1.995066	0.806587	0.416894
O8	O	-1.827318	0.417056	0.638485
O9	O	-2.216694	0.806536	0.638452
O10	O	-1.995242	0.417018	0.806356
O11	O	-1.827218	0.638694	0.416908
O12	O	-1.635179	0.609111	0.609018
O13	O	-1.879149	0.754539	0.976120
O14	O	-1.657522	0.754590	0.754563
O15	O	-2.024730	0.609022	0.998447
O16	O	-2.024554	0.998591	0.608985
O17	O	-1.879049	0.976177	0.754544
C18	C	-1.600058	0.678546	0.678496
C19	C	-1.458252	0.668451	0.668429
C20	C	-1.955343	0.678372	1.034871
C21	C	-1.965487	0.668213	1.176681
C22	C	-1.955127	1.033675	0.678495
C23	C	-1.965337	1.175482	0.668451
C24	C	-1.264318	0.725960	0.725770
C25	C	-1.406123	0.736062	0.735831
C26	C	-1.907900	0.369453	0.725812
C27	C	-1.897825	0.227651	0.735920
C28	C	-1.907898	0.725869	0.370620
C29	C	-1.897977	0.735686	0.228854
H30	H	-1.394395	0.602835	0.603031
Cl31	Cl	-1.504715	0.837361	0.836825
Cl32	Cl	-1.796526	1.129118	0.836972
H33	H	-2.030942	1.239311	0.602989
H34	H	-1.832422	0.801228	1.165031
Cl35	Cl	-2.066721	0.567029	1.275221
