data_functionalizedCrystal
_audit_creation_method	'MofGen! by Chris Wilmer'
_symmetry_space_group_name_H-M	'P1'
_symmetry_Int_Tables_number	1
_symmetry_cell_setting	triclinic
loop_
_symmetry_equiv_pos_as_xyz
  x,y,z
_cell_length_a	23.532407
_cell_length_b	26.210047
_cell_length_c	23.532407
_cell_angle_alpha	90.000177
_cell_angle_beta	82.848678
_cell_angle_gamma	90.003642
loop_
_atom_site_label
_atom_site_type_symbol
_atom_site_fract_x
_atom_site_fract_y
_atom_site_fract_z
O1	O	0.755264	0.042370	0.069127
O2	O	1.088598	0.375704	0.402460
O3	O	1.421931	0.709037	0.735793
O4	O	0.589401	0.042386	0.079130
O5	O	0.922734	0.375720	0.412463
O6	O	1.256068	0.709053	0.745796
O7	O	0.677334	0.042368	-0.008803
O8	O	1.010667	0.375702	0.324530
O9	O	1.344001	0.709035	0.657863
O10	O	0.667331	0.042388	0.157060
O11	O	1.000664	0.375721	0.490393
O12	O	1.333998	0.709055	0.823727
O13	O	0.677317	-0.042490	-0.008790
O14	O	1.010651	0.290844	0.324544
O15	O	1.343984	0.624177	0.657877
O16	O	0.589384	-0.042472	0.079144
O17	O	0.922717	0.290861	0.412477
O18	O	1.256051	0.624195	0.745810
O19	O	0.755247	-0.042488	0.069140
O20	O	1.088581	0.290846	0.402474
O21	O	1.421914	0.624179	0.735807
Cu22	Cu	0.672314	-0.050228	0.074143
Cu23	Cu	1.005647	0.283105	0.407477
Cu24	Cu	1.338981	0.616439	0.740810
Cu25	Cu	0.672334	0.050127	0.074127
Cu26	Cu	1.005667	0.383460	0.407460
Cu27	Cu	1.339001	0.716793	0.740794
O28	O	0.667314	-0.042470	0.157074
O29	O	1.000647	0.290863	0.490407
O30	O	1.333981	0.624197	0.823740
C31	C	0.568176	-0.000041	0.078882
C32	C	0.901510	0.333292	0.412215
C33	C	1.234843	0.666626	0.745549
C34	C	0.504959	-0.000035	0.078116
C35	C	0.838293	0.333298	0.411449
C36	C	1.171626	0.666631	0.744783
N37	N	0.672304	-0.120812	0.074154
N38	N	1.005637	0.212521	0.407488
N39	N	1.338971	0.545855	0.740821
C40	C	0.105856	-0.000053	0.125350
C41	C	0.439190	0.333280	0.458683
C42	C	0.772523	0.666614	0.792016
C43	C	0.046456	-0.000056	0.124638
C44	C	0.379789	0.333277	0.457971
C45	C	0.713123	0.666611	0.791305
O46	O	0.009711	-0.000069	0.168424
O47	O	0.343045	0.333264	0.501757
O48	O	0.676378	0.666597	0.835091
N49	N	0.023830	-0.000061	0.072362
N50	N	0.357163	0.333272	0.405695
N51	N	0.690496	0.666605	0.739028
C52	C	0.060607	-0.000069	0.020794
C53	C	0.393941	0.333265	0.354127
C54	C	0.727274	0.666598	0.687460
O55	O	0.035908	-0.000074	-0.023737
O56	O	0.369241	0.333259	0.309596
O57	O	0.702574	0.666593	0.642930
C58	C	0.120006	-0.000069	0.021506
C59	C	0.453340	0.333264	0.354839
C60	C	0.786673	0.666597	0.688172
C61	C	0.142629	-0.000059	0.073785
C62	C	0.475962	0.333275	0.407119
C63	C	0.809296	0.666608	0.740452
C64	C	0.128479	-0.000043	0.177625
C65	C	0.461813	0.333290	0.510958
C66	C	0.795146	0.666624	0.844292
C67	C	0.187876	-0.000039	0.178336
C68	C	0.521209	0.333295	0.511670
C69	C	0.854542	0.666628	0.845003
C70	C	0.224649	-0.000045	0.126772
C71	C	0.557982	0.333289	0.460105
C72	C	0.891315	0.666622	0.793439
C73	C	0.202025	-0.000055	0.074497
C74	C	0.535359	0.333279	0.407830
C75	C	0.868692	0.666612	0.741163
C76	C	0.156783	-0.000080	-0.030062
C77	C	0.490116	0.333253	0.303271
C78	C	0.823450	0.666586	0.636605
C79	C	0.216185	-0.000081	-0.029345
C80	C	0.549519	0.333252	0.303988
C81	C	0.882852	0.666586	0.637321
C82	C	0.238808	-0.000071	0.022934
C83	C	0.572141	0.333263	0.356268
C84	C	0.905475	0.666596	0.689601
C85	C	0.298194	-0.000056	0.023643
C86	C	0.631528	0.333277	0.356977
C87	C	0.964861	0.666610	0.690310
N88	N	0.320820	-0.000051	0.075920
N89	N	0.654154	0.333282	0.409253
N90	N	0.987487	0.666616	0.742586
C91	C	0.284048	-0.000045	0.127484
C92	C	0.617381	0.333288	0.460817
C93	C	0.950714	0.666622	0.794151
C94	C	-0.064135	-0.000069	0.019302
C95	C	0.269198	0.333265	0.352635
C96	C	0.602532	0.666598	0.685969
C97	C	-0.123533	-0.000065	0.018589
C98	C	0.209800	0.333269	0.351923
C99	C	0.543134	0.666602	0.685256
C100	C	-0.137680	-0.000053	0.122434
C101	C	0.195653	0.333280	0.455768
C102	C	0.528986	0.666614	0.789101
C103	C	-0.078281	-0.000053	0.123146
C104	C	0.255052	0.333280	0.456480
C105	C	0.588385	0.666613	0.789813
C106	C	-0.041509	-0.000063	0.071578
C107	C	0.291824	0.333270	0.404912
C108	C	0.625158	0.666603	0.738245
C109	C	0.408784	-0.000036	0.128974
C110	C	0.742118	0.333297	0.462307
C111	C	1.075451	0.666631	0.795640
C112	C	0.468186	-0.000030	0.129680
C113	C	0.801520	0.333304	0.463014
C114	C	1.134853	0.666637	0.796347
C115	C	0.482329	-0.000044	0.025836
C116	C	0.815662	0.333289	0.359169
C117	C	1.148995	0.666623	0.692503
C118	C	0.422932	-0.000048	0.025129
C119	C	0.756265	0.333286	0.358462
C120	C	1.089598	0.666619	0.691796
C121	C	0.386160	-0.000045	0.076702
C122	C	0.719494	0.333288	0.410036
C123	C	1.052827	0.666621	0.743369
O124	O	0.334974	-0.000045	-0.020119
O125	O	0.668307	0.333288	0.313214
O126	O	1.001640	0.666622	0.646547
O127	O	0.308755	-0.000046	0.172007
O128	O	0.642089	0.333287	0.505340
O129	O	0.975422	0.666620	0.838674
C130	C	0.711267	-0.473334	0.035199
C131	C	1.044600	-0.140000	0.368532
C132	C	1.377934	0.193333	0.701866
C133	C	0.711280	-0.686992	0.035191
C134	C	1.044613	-0.353659	0.368524
C135	C	1.377946	-0.020326	0.701858
O136	O	0.744385	-0.714621	0.002072
O137	O	1.077719	-0.381288	0.335406
O138	O	1.411052	-0.047954	0.668739
N139	N	0.672337	-0.713706	0.074114
N140	N	1.005670	-0.380372	0.407448
N141	N	1.339004	-0.047039	0.740781
C142	C	0.633386	-0.687001	0.113040
C143	C	0.966720	-0.353668	0.446374
C144	C	1.300053	-0.020335	0.779707
O145	O	0.600260	-0.714625	0.146143
O146	O	0.933593	-0.381292	0.479476
O147	O	1.266927	-0.047959	0.812810
C148	C	0.633372	-0.473344	0.113045
C149	C	0.966705	-0.140010	0.446378
C150	C	1.300038	0.193323	0.779712
C151	C	0.672320	-0.446633	0.074123
C152	C	1.005654	-0.113300	0.407456
C153	C	1.338987	0.220034	0.740789
C154	C	0.750212	-0.446623	-0.003721
C155	C	1.083545	-0.113290	0.329613
C156	C	1.416879	0.220044	0.662946
C157	C	0.750211	-0.393212	-0.003716
C158	C	1.083544	-0.059878	0.329617
C159	C	1.416877	0.273455	0.662950
C160	C	0.711264	-0.366511	0.035208
C161	C	1.044597	-0.033178	0.368541
C162	C	1.377931	0.300156	0.701874
C163	C	0.672319	-0.393222	0.074127
C164	C	1.005652	-0.059888	0.407461
C165	C	1.338986	0.273445	0.740794
C166	C	0.594419	-0.446640	0.151968
C167	C	0.927752	-0.113307	0.485301
C168	C	1.261085	0.220026	0.818634
C169	C	0.594417	-0.393222	0.151965
C170	C	0.927751	-0.059889	0.485298
C171	C	1.261084	0.273444	0.818631
C172	C	0.633366	-0.366512	0.113042
C173	C	0.966699	-0.033178	0.446376
C174	C	1.300033	0.300155	0.779709
C175	C	0.633371	-0.313109	0.113056
C176	C	0.966704	0.020224	0.446389
C177	C	1.300037	0.353557	0.779722
N178	N	0.672313	-0.286396	0.074132
N179	N	1.005646	0.046937	0.407465
N180	N	1.338980	0.380271	0.740799
C181	C	0.711260	-0.313097	0.035208
C182	C	1.044593	0.020237	0.368542
C183	C	1.377926	0.353570	0.701875
C184	C	0.633398	-0.799175	0.113036
C185	C	0.966731	-0.465841	0.446369
C186	C	1.300064	-0.132508	0.779702
C187	C	0.633402	-0.852589	0.113035
C188	C	0.966735	-0.519255	0.446369
C189	C	1.300069	-0.185922	0.779702
C190	C	0.711295	-0.852576	0.035185
C191	C	1.044628	-0.519243	0.368518
C192	C	1.377961	-0.185909	0.701852
C193	C	0.711293	-0.799161	0.035189
C194	C	1.044626	-0.465828	0.368522
C195	C	1.377959	-0.132494	0.701855
C196	C	0.672340	-0.772461	0.074112
C197	C	1.005673	-0.439128	0.407446
C198	C	1.339007	-0.105795	0.740779
C199	C	0.711254	-0.200929	0.035221
C200	C	1.044587	0.132405	0.368554
C201	C	1.377921	0.465738	0.701887
C202	C	0.711251	-0.147513	0.035230
C203	C	1.044584	0.185821	0.368564
C204	C	1.377917	0.519154	0.701897
C205	C	0.633356	-0.147530	0.113078
C206	C	0.966690	0.185803	0.446412
C207	C	1.300023	0.519137	0.779745
C208	C	0.633361	-0.200941	0.113071
C209	C	0.966695	0.132392	0.446404
C210	C	1.300028	0.465725	0.779738
C211	C	0.672312	-0.227640	0.074138
C212	C	1.005646	0.105694	0.407471
C213	C	1.338979	0.439027	0.740804
O214	O	0.600278	-0.285448	0.146153
O215	O	0.933611	0.047885	0.479486
O216	O	1.266945	0.381219	0.812819
O217	O	0.744373	-0.285464	0.002102
O218	O	1.077706	0.047870	0.335435
O219	O	1.411040	0.381203	0.668769
C220	C	0.711268	-0.526745	0.035194
C221	C	1.044602	-0.193412	0.368528
C222	C	1.377935	0.139921	0.701861
C223	C	0.672323	-0.553456	0.074114
C224	C	1.005657	-0.220123	0.407447
C225	C	1.338990	0.113211	0.740781
C226	C	0.633377	-0.526755	0.113038
C227	C	0.966710	-0.193422	0.446371
C228	C	1.300043	0.139911	0.779705
C229	C	0.672328	-0.606870	0.074114
C230	C	1.005661	-0.273537	0.407447
C231	C	1.338994	0.059797	0.740780
C232	C	0.711274	-0.633571	0.035190
C233	C	1.044607	-0.300237	0.368523
C234	C	1.377941	0.033096	0.701856
C235	C	0.750217	-0.606857	-0.003734
C236	C	1.083550	-0.273524	0.329599
C237	C	1.416883	0.059809	0.662933
C238	C	0.750215	-0.553446	-0.003730
C239	C	1.083548	-0.220113	0.329604
C240	C	1.416882	0.113221	0.662937
C241	C	0.594434	-0.553469	0.151961
C242	C	0.927768	-0.220135	0.485295
C243	C	1.261101	0.113198	0.818628
C244	C	0.594439	-0.606880	0.151954
C245	C	0.927773	-0.273547	0.485288
C246	C	1.261106	0.059787	0.818621
C247	C	0.633386	-0.633581	0.113030
C248	C	0.966719	-0.300248	0.446364
C249	C	1.300053	0.033086	0.779697
C250	C	0.776472	-0.000059	0.069388
C251	C	1.109805	0.333274	0.402722
C252	C	1.443138	0.666607	0.736055
C253	C	0.839689	-0.000062	0.070154
C254	C	1.173022	0.333272	0.403487
C255	C	1.506355	0.666605	0.736821
C256	C	0.677071	-0.000062	-0.030013
C257	C	1.010404	0.333272	0.303321
C258	C	1.343738	0.666605	0.636654
C259	C	0.676305	-0.000066	-0.093230
C260	C	1.009638	0.333268	0.240104
C261	C	1.342972	0.666601	0.573437
N262	N	0.672349	0.120710	0.074111
N263	N	1.005682	0.454044	0.407445
N264	N	1.339015	0.787377	0.740778
C265	C	0.723539	-0.000042	-0.492333
C266	C	1.056872	0.333291	-0.158999
C267	C	1.390205	0.666624	0.174334
C268	C	0.722827	-0.000038	-0.551733
C269	C	1.056160	0.333295	-0.218400
C270	C	1.389494	0.666628	0.114934
O271	O	0.766613	-0.000024	-0.588478
O272	O	1.099946	0.333310	-0.255144
O273	O	1.433280	0.666643	0.078189
N274	N	0.670551	-0.000034	-0.574359
N275	N	1.003884	0.333300	-0.241026
N276	N	1.337217	0.666633	0.092307
C277	C	0.618983	-0.000028	-0.537582
C278	C	0.952316	0.333306	-0.204248
C279	C	1.285649	0.666639	0.129085
O280	O	0.574452	-0.000023	-0.562281
O281	O	0.907785	0.333310	-0.228948
O282	O	1.241119	0.666644	0.104385
C283	C	0.619695	-0.000028	-0.478182
C284	C	0.953028	0.333305	-0.144849
C285	C	1.286361	0.666639	0.188484
C286	C	0.671974	-0.000038	-0.455560
C287	C	1.005308	0.333295	-0.122227
C288	C	1.338641	0.666629	0.211107
C289	C	0.775814	-0.000051	-0.469710
C290	C	1.109147	0.333282	-0.136376
C291	C	1.442481	0.666615	0.196957
C292	C	0.776525	-0.000056	-0.410313
C293	C	1.109859	0.333277	-0.076980
C294	C	1.443192	0.666610	0.256353
C295	C	0.724961	-0.000052	-0.373540
C296	C	1.058294	0.333281	-0.040207
C297	C	1.391628	0.666615	0.293126
C298	C	0.672685	-0.000043	-0.396164
C299	C	1.006019	0.333291	-0.062830
C300	C	1.339352	0.666624	0.270503
C301	C	0.568127	-0.000019	-0.441406
C302	C	0.901460	0.333315	-0.108073
C303	C	1.234794	0.666648	0.225261
C304	C	0.568844	-0.000019	-0.382004
C305	C	0.902177	0.333315	-0.048670
C306	C	1.235510	0.666648	0.284663
C307	C	0.621123	-0.000028	-0.359381
C308	C	0.954457	0.333305	-0.026048
C309	C	1.287790	0.666638	0.307286
C310	C	0.621832	-0.000043	-0.299995
C311	C	0.955166	0.333290	0.033339
C312	C	1.288499	0.666623	0.366672
N313	N	0.674109	-0.000048	-0.277368
N314	N	1.007442	0.333285	0.055965
N315	N	1.340775	0.666619	0.389298
C316	C	0.725673	-0.000052	-0.314141
C317	C	1.059006	0.333281	0.019192
C318	C	1.392340	0.666614	0.352525
C319	C	0.617491	-0.000026	-0.662324
C320	C	0.950824	0.333307	-0.328991
C321	C	1.284158	0.666640	0.004343
C322	C	0.616778	-0.000030	-0.721722
C323	C	0.950112	0.333304	-0.388389
C324	C	1.283445	0.666637	-0.055055
C325	C	0.720623	-0.000039	-0.735869
C326	C	1.053957	0.333294	-0.402536
C327	C	1.387290	0.666628	-0.069203
C328	C	0.721335	-0.000039	-0.676470
C329	C	1.054669	0.333294	-0.343137
C330	C	1.388002	0.666627	-0.009804
C331	C	0.669767	-0.000031	-0.639698
C332	C	1.003101	0.333302	-0.306365
C333	C	1.336434	0.666636	0.026969
C334	C	0.727163	-0.000063	-0.189405
C335	C	1.060496	0.333270	0.143929
C336	C	1.393829	0.666604	0.477262
C337	C	0.727869	-0.000070	-0.130003
C338	C	1.061203	0.333263	0.203331
C339	C	1.394536	0.666597	0.536664
C340	C	0.624025	-0.000058	-0.115860
C341	C	0.957358	0.333276	0.217473
C342	C	1.290692	0.666609	0.550806
C343	C	0.623318	-0.000054	-0.175257
C344	C	0.956651	0.333280	0.158076
C345	C	1.289985	0.666613	0.491409
C346	C	0.674891	-0.000054	-0.212029
C347	C	1.008225	0.333279	0.121305
C348	C	1.341558	0.666612	0.454638
O349	O	0.578070	-0.000056	-0.263215
O350	O	0.911403	0.333277	0.070118
O351	O	1.244736	0.666611	0.403451
O352	O	0.770196	-0.000050	-0.289433
O353	O	1.103529	0.333283	0.043900
O354	O	1.436863	0.666616	0.377233
C355	C	0.667577	-0.000038	0.178283
C356	C	1.000910	0.333295	0.511616
C357	C	1.334244	0.666628	0.844949
C358	C	0.668343	-0.000031	0.241500
C359	C	1.001676	0.333302	0.574833
C360	C	1.335010	0.666635	0.908167
H361	H	0.486602	-0.000021	0.172255
H362	H	0.819935	0.333313	0.505588
H363	H	1.153269	0.666646	0.838921
H364	H	0.743007	-0.874325	0.003492
H365	H	1.076341	-0.540991	0.336826
H366	H	1.409674	-0.207658	0.670159
F367	F	-0.176828	-0.000049	0.177314
F368	F	0.156506	0.333285	0.510647
F369	F	0.489839	0.666618	0.843981
F370	F	0.552956	-0.364810	0.193393
F371	F	0.886289	-0.031477	0.526726
F372	F	1.219623	0.301857	0.860059
F373	F	0.369658	-0.000034	0.183864
F374	F	0.702991	0.333300	0.517198
F375	F	1.036324	0.666633	0.850531
F376	F	-0.147603	-0.000064	-0.037054
F377	F	0.185730	0.333269	0.296280
F378	F	0.519064	0.666602	0.629613
F379	F	0.591913	-0.229368	0.154503
F380	F	0.925247	0.103965	0.487836
F381	F	1.258580	0.437299	0.821170
F382	F	0.752708	-0.119088	-0.006197
F383	F	1.086041	0.214246	0.327137
F384	F	1.419375	0.547579	0.660470
H385	H	0.742971	-0.222660	0.003517
H386	H	1.076304	0.110673	0.336850
H387	H	1.409638	0.444006	0.670184
F388	F	0.830701	-0.000056	-0.508838
F389	F	1.164034	0.333278	-0.175505
F390	F	1.497367	0.666611	0.157828
F391	F	0.591955	-0.881011	0.154468
F392	F	0.925288	-0.547678	0.487802
F393	F	1.258621	-0.214344	0.821135
F394	F	0.591938	-0.770764	0.154467
F395	F	0.925271	-0.437431	0.487800
F396	F	1.258605	-0.104097	0.821133
F397	F	0.591909	-0.119105	0.154503
F398	F	0.925243	0.214228	0.487837
F399	F	1.258576	0.547562	0.821170
H400	H	0.404512	-0.000049	-0.017441
H401	H	0.737845	0.333285	0.315892
H402	H	1.071178	0.666618	0.649225
H403	H	0.819097	-0.000062	-0.391900
H404	H	1.152430	0.333271	-0.058567
H405	H	1.485763	0.666605	0.274767
F406	F	0.782053	-0.000064	-0.228531
F407	F	1.115386	0.333270	0.104802
F408	F	1.448720	0.666603	0.438135
F409	F	0.569149	-0.000053	-0.076714
F410	F	0.902483	0.333280	0.256619
F411	F	1.235816	0.666613	0.589953
F412	F	0.132720	-0.000084	-0.085706
F413	F	0.466053	0.333249	0.247627
F414	F	0.799386	0.666582	0.580961
H415	H	0.781927	-0.468358	-0.035420
H416	H	1.115260	-0.135025	0.297914
H417	H	1.448594	0.198309	0.631247
H418	H	0.781931	-0.531702	-0.035424
H419	H	1.115264	-0.198369	0.297910
H420	H	1.448597	0.134965	0.631243
H421	H	0.206289	-0.000030	0.220908
H422	H	0.539622	0.333303	0.554241
H423	H	0.872956	0.666637	0.887574
F424	F	0.089351	-0.000037	0.232512
F425	F	0.422684	0.333297	0.565845
F426	F	0.756017	0.666630	0.899179
F427	F	0.567676	-0.000052	-0.199335
F428	F	0.901010	0.333281	0.133999
F429	F	1.234343	0.666614	0.467332
H430	H	-0.034198	-0.000072	-0.022693
H431	H	0.299136	0.333261	0.310640
H432	H	0.632469	0.666594	0.643973
H433	H	0.781924	-0.371467	-0.035412
H434	H	1.115258	-0.038133	0.297922
H435	H	1.448591	0.295200	0.631255
F436	F	0.552963	-0.475058	0.193393
F437	F	0.886297	-0.141725	0.526727
F438	F	1.219630	0.191609	0.860060
F439	F	0.255318	-0.000093	-0.084233
F440	F	0.588652	0.333240	0.249101
F441	F	0.921985	0.666574	0.582434
F442	F	-0.054210	-0.000043	0.178789
F443	F	0.279123	0.333290	0.512122
F444	F	0.612456	0.666623	0.845455
F445	F	0.776978	-0.000050	-0.652399
F446	F	1.110311	0.333284	-0.319066
F447	F	1.443644	0.666617	0.014267
F448	F	0.791668	-0.635283	-0.045158
F449	F	1.125002	-0.301950	0.288175
F450	F	1.458335	0.031383	0.621509
F451	F	0.561135	-0.000028	-0.745792
F452	F	0.894469	0.333305	-0.412459
F453	F	1.227802	0.666638	-0.079125
H454	H	0.512280	-0.000047	-0.016146
H455	H	0.845613	0.333287	0.317187
H456	H	1.178946	0.666620	0.650520
H457	H	0.743008	-0.777416	0.003495
H458	H	1.076341	-0.444083	0.336828
H459	H	1.409674	-0.110750	0.670161
H460	H	0.562724	-0.628624	0.183654
H461	H	0.896057	-0.295291	0.516988
H462	H	1.229390	0.038042	0.850321
F463	F	0.552980	-0.525058	0.193391
F464	F	0.886313	-0.191724	0.526725
F465	F	1.219647	0.141609	0.860058
F466	F	0.783515	-0.000080	-0.105930
F467	F	1.116848	0.333253	0.227403
F468	F	1.450181	0.666587	0.560737
H469	H	0.762610	-0.000041	-0.765821
H470	H	1.095943	0.333293	-0.432488
H471	H	1.429276	0.666626	-0.099154
H472	H	0.575496	-0.000024	-0.632386
H473	H	0.908829	0.333310	-0.299053
H474	H	1.242162	0.666643	0.034280
F475	F	0.512483	-0.000006	-0.465469
F476	F	0.845816	0.333327	-0.132136
F477	F	1.179150	0.666661	0.201197
H478	H	0.526850	-0.000011	-0.352066
H479	H	0.860183	0.333322	-0.018732
H480	H	1.193516	0.666656	0.314601
