data_functionalizedCrystal
_audit_creation_method	'MofGen! by Chris Wilmer'
_symmetry_space_group_name_H-M	'P1'
_symmetry_Int_Tables_number	1
_symmetry_cell_setting	triclinic
loop_
_symmetry_equiv_pos_as_xyz
  x,y,z
_cell_length_a	12.759401
_cell_length_b	12.827892
_cell_length_c	12.759393
_cell_angle_alpha	90.031046
_cell_angle_beta	90.018567
_cell_angle_gamma	90.014436
loop_
_atom_site_label
_atom_site_type_symbol
_atom_site_fract_x
_atom_site_fract_y
_atom_site_fract_z
Zn1	Zn	1.606250	-0.415998	0.593987
Zn2	Zn	1.606143	-0.590779	0.418309
Zn3	Zn	1.430552	-0.416049	0.418326
Zn4	Zn	1.430539	-0.590695	0.593950
O5	O	1.518371	-0.503380	0.506143
O6	O	1.753257	-0.439197	0.570691
O7	O	1.582811	-0.567657	0.271290
O8	O	1.453910	-0.269807	0.441651
O9	O	1.753178	-0.567607	0.441621
O10	O	1.582994	-0.269769	0.570708
O11	O	1.453805	-0.439284	0.271303
O12	O	1.283530	-0.439203	0.441615
O13	O	1.453887	-0.567464	0.740976
O14	O	1.283520	-0.567514	0.570645
O15	O	1.582981	-0.439115	0.741003
O16	O	1.582798	-0.737004	0.441585
O17	O	1.453782	-0.736942	0.570628
C18	C	1.245404	-0.503356	0.506128
C19	C	1.128627	-0.503370	0.506147
C20	C	1.073799	-0.436633	0.573458
C21	C	0.964075	-0.436653	0.573465
C22	C	0.964016	-0.570157	0.438846
C23	C	1.073738	-0.570131	0.438835
C24	C	1.073832	-0.359559	0.651182
C25	C	0.964108	-0.359579	0.651189
C26	C	1.518305	-0.774890	0.506124
C27	C	1.518373	-0.891043	0.506150
C28	C	1.582220	-0.942726	0.570069
C29	C	1.582292	-1.062776	0.570099
C30	C	1.792404	-0.503406	0.506158
C31	C	1.909181	-0.503416	0.506165
C32	C	1.518445	-0.503275	0.780177
C33	C	1.518476	-0.503230	0.896953
C34	C	1.518466	-0.230810	0.506186
C35	C	1.518506	-0.114657	0.506204
C36	C	1.518358	-0.503410	0.233176
C37	C	1.518530	-0.503160	0.116400
C38	C	1.585705	-0.436392	0.951831
C39	C	1.585730	-0.436354	1.061555
C40	C	1.451294	-0.570001	1.061514
C41	C	1.451265	-0.570033	0.951792
C42	C	1.663323	-0.359235	0.951856
C43	C	1.663348	-0.359198	1.061580
H44	H	0.930068	-0.282664	0.622189
C45	C	1.633908	-0.249907	0.911651
N46	N	1.611750	-0.167563	0.881369
H47	H	1.118375	-0.624465	0.384014
C48	C	1.119858	-0.398840	0.755526
N49	N	1.154525	-0.428430	0.834117
C50	C	0.903629	-0.643593	0.364811
N51	N	0.858146	-0.698908	0.309048
C52	C	1.114052	-0.250178	0.621924
N53	N	1.144346	-0.167794	0.599884
H54	H	1.634235	-0.282301	1.095627
C55	C	0.923919	-0.389007	0.761065
N56	N	0.893649	-0.411173	0.843821
C57	C	1.655998	-0.882439	0.643971
N58	N	1.711571	-0.837032	0.699634
H59	H	1.636957	-1.107223	0.624818
C60	C	1.444654	-1.054622	0.432269
N61	N	1.389027	-1.009396	0.376583
C62	C	1.377292	-0.643543	0.891430
N63	N	1.321571	-0.698912	0.845966
H64	H	1.396571	-0.624387	1.106177
H65	H	1.740595	-0.388250	0.917820
C66	C	1.773270	-0.388493	1.101815
N67	N	1.856059	-0.410562	1.132119
H68	H	1.463760	-0.935672	0.451454
