data_functionalizedCrystal
_audit_creation_method	'MofGen! by Chris Wilmer'
_symmetry_space_group_name_H-M	'P1'
_symmetry_Int_Tables_number	1
_symmetry_cell_setting	triclinic
loop_
_symmetry_equiv_pos_as_xyz
  x,y,z
_cell_length_a	23.096457
_cell_length_b	20.875444
_cell_length_c	20.875641
_cell_angle_alpha	64.273268
_cell_angle_beta	89.999562
_cell_angle_gamma	61.739392
loop_
_atom_site_label
_atom_site_type_symbol
_atom_site_fract_x
_atom_site_fract_y
_atom_site_fract_z
Zr1	Zr	0.590480	0.664047	-0.047807
O2	O	0.506758	0.784784	-0.140529
O3	O	0.612145	0.538516	-0.023836
O4	O	0.621779	0.657130	-0.146953
O5	O	0.494075	0.673298	0.084770
O6	O	0.717061	0.657127	-0.146955
O7	O	0.497124	0.666170	-0.017412
O8	O	0.699827	0.444949	0.073278
O9	O	0.511309	0.885477	-0.135463
O10	O	0.697327	0.591923	-0.008235
O11	O	0.623944	0.597245	0.068024
O12	O	0.635287	0.736897	-0.076930
O13	O	0.561904	0.742219	-0.000671
Zr14	Zr	0.737583	0.675412	0.115157
Zr15	Zr	0.742445	0.664043	-0.047811
Zr16	Zr	0.585619	0.675416	0.115160
Zr17	Zr	0.597740	0.824641	-0.039729
Zr18	Zr	0.730324	0.514818	0.107079
O19	O	0.715919	0.800943	0.091186
O20	O	0.722831	0.784778	-0.140534
O21	O	0.499845	0.800949	0.091191
O22	O	0.821306	0.554676	0.207878
O23	O	0.828218	0.538510	-0.023841
O24	O	0.605232	0.554681	0.207883
O25	O	0.833988	0.666161	-0.017420
O26	O	0.706285	0.682329	0.214302
O27	O	0.611002	0.682332	0.214304
O28	O	0.830940	0.673289	0.084761
O29	O	0.632101	0.885473	-0.135466
O30	O	0.695963	0.453986	0.202816
O31	O	0.816754	0.453983	0.202813
O32	O	0.820619	0.444946	0.073275
O33	O	0.507445	0.894514	-0.005926
O34	O	0.628236	0.894510	-0.005929
O35	O	0.692777	0.602562	0.144279
O36	O	0.766160	0.597241	0.068021
O37	O	0.704120	0.742215	-0.000675
O38	O	0.630737	0.747537	0.075584
C39	C	0.654952	0.468851	0.023570
C40	C	0.651870	0.400675	0.020141
C41	C	0.629334	0.022352	-0.004698
C42	C	0.632229	0.086425	-0.001507
C43	C	0.681987	0.066929	0.053588
C44	C	0.728849	-0.016647	0.105501
C45	C	0.725950	-0.080718	0.102312
C46	C	0.695833	0.253027	0.068864
C47	C	0.698729	0.317108	0.072048
C48	C	0.602109	0.420175	-0.034960
C49	C	0.599217	0.356098	-0.038146
C50	C	0.646077	0.272528	0.013768
N51	N	0.684949	0.132422	0.056850
N52	N	0.643111	0.207037	0.010509
C53	C	0.473948	0.669735	0.033679
C54	C	0.409435	0.669736	0.033681
C55	C	0.380812	0.665815	-0.022615
C56	C	0.320199	0.665808	-0.022615
C57	C	0.288205	0.669738	0.033675
C58	C	0.316837	0.673655	0.089981
C59	C	0.377452	0.673654	0.089984
N60	N	0.171559	0.719916	0.053182
N61	N	0.113976	0.719918	0.053174
C62	C	0.105576	0.669738	0.033672
N63	N	0.156929	0.619565	0.014162
N64	N	0.214515	0.619567	0.014166
C65	C	0.222478	0.669738	0.033679
C66	C	0.011230	0.665807	-0.022628
C67	C	-0.049382	0.665794	-0.022624
C68	C	-0.052746	0.673650	0.089971
C69	C	0.007868	0.673654	0.089969
C70	C	0.039851	0.669736	0.033666
C71	C	0.854116	0.669725	0.033670
C72	C	0.918629	0.669723	0.033669
C73	C	0.670113	0.655509	-0.170173
C74	C	0.672177	0.650682	-0.239357
C75	C	0.673112	0.870608	0.043779
C76	C	0.676194	0.938784	0.047209
C77	C	0.640763	0.724088	-0.307718
C78	C	0.642711	0.719548	-0.372722
C79	C	0.676069	0.641602	-0.369363
C80	C	0.707487	0.568191	-0.300994
C81	C	0.705542	0.572731	-0.235992
C82	C	0.685360	0.619907	-0.559923
C83	C	0.687300	0.615371	-0.624932
C84	C	0.622526	0.766729	-0.696655
C85	C	0.620581	0.771263	-0.631649
C86	C	0.652002	0.697852	-0.563287
N87	N	0.678059	0.636959	-0.435806
N88	N	0.650015	0.702496	-0.496845
C89	C	0.657951	0.683951	0.237523
C90	C	0.655887	0.688777	0.306707
C91	C	0.845036	0.468846	0.023565
C92	C	0.906467	0.400668	0.020134
C93	C	0.648871	0.483072	0.227418
C94	C	0.643725	0.419723	0.293173
C95	C	0.838955	0.483067	0.227413
C96	C	0.898322	0.419716	0.293167
C97	C	0.489109	0.856392	-0.160064
C98	C	0.429742	0.919744	-0.225817
C99	C	0.483028	0.870613	0.043784
C100	C	0.421597	0.938791	0.047215
C101	C	0.679193	0.856387	-0.160069
C102	C	0.684339	0.919737	-0.225823
C103	C	0.899386	0.365875	-0.021288
C104	C	0.957102	0.301822	-0.024527
C105	C	1.021898	0.272560	0.013662
C106	C	1.028978	0.307360	0.055086
C107	C	0.971263	0.371416	0.058320
C108	C	0.677239	0.392749	0.363863
C109	C	0.672402	0.333235	0.425653
C110	C	0.634054	0.300690	0.416751
C111	C	0.600537	0.327669	0.346053
C112	C	0.605370	0.387187	0.284265
C113	C	0.964513	0.387187	0.284239
C114	C	1.020301	0.327670	0.346015
C115	C	1.009897	0.300678	0.416718
C116	C	0.943699	0.333213	0.425645
C117	C	0.887913	0.392733	0.363870
C118	C	0.363551	0.952280	-0.216889
C119	C	0.307764	1.011817	-0.278664
C120	C	0.318168	1.038812	-0.349367
C121	C	0.384366	1.006273	-0.358294
C122	C	0.440152	0.946742	-0.296519
C123	C	0.428679	0.973591	0.088631
C124	C	0.370964	1.037660	0.091853
C125	C	0.306168	1.066924	0.053662
C126	C	0.299087	1.032121	0.012241
C127	C	0.356802	0.968057	0.009015
C128	C	0.722691	0.952263	-0.216898
C129	C	0.727539	1.011778	-0.278676
C130	C	0.694030	1.038772	-0.349378
C131	C	0.655676	1.006240	-0.358302
C132	C	0.650832	0.946721	-0.296525
H133	H	0.558698	0.371981	-0.083010
Cl134	Cl	0.977611	0.421113	0.195362
H135	H	0.764107	-0.148763	0.144582
Cl136	Cl	0.510130	0.936819	0.136645
H137	H	0.708465	0.419241	0.371125
Cl138	Cl	0.613546	1.040191	-0.447190
H139	H	0.563958	0.488222	-0.077225
H140	H	0.259178	1.119089	0.056294
H141	H	1.081743	0.283526	0.086177
Cl142	Cl	-0.092959	0.678581	0.160741
H143	H	0.376742	1.065986	0.125585
H144	H	0.272738	1.087286	-0.399662
Cl145	Cl	1.080037	0.225850	0.494372
Cl146	Cl	0.700124	1.113600	-0.427033
H147	H	0.246322	1.055958	-0.018853
H148	H	0.569314	0.301163	0.338816
Cl149	Cl	0.566782	0.046871	-0.073969
Cl150	Cl	0.804702	0.433614	0.375106
H151	H	0.739248	0.301224	0.116918
Cl152	Cl	0.602606	0.905846	-0.307758
Cl153	Cl	0.980177	0.415143	0.110405
H154	H	0.355066	0.930304	-0.159324
Cl155	Cl	0.930631	0.299270	0.514535
Cl156	Cl	0.603216	0.811834	-0.458661
Cl157	Cl	0.573314	0.191483	-0.066761
H158	H	0.351026	0.939725	-0.024708
Cl159	Cl	0.714546	0.299328	0.514521
Cl160	Cl	0.764825	0.918340	-0.128022
Cl161	Cl	0.563238	0.421084	0.195399
H162	H	0.253868	1.038300	-0.271381
Cl163	Cl	0.754742	0.147976	0.134130
Cl164	Cl	0.627986	0.225866	0.494437
H165	H	0.731122	0.512957	-0.180330
Cl166	Cl	0.791398	-0.041156	0.174769
Cl167	Cl	0.421021	0.660884	-0.093391
Cl168	Cl	0.284209	0.660879	-0.093395
H169	H	0.758770	1.038260	-0.271395
H170	H	0.400758	0.676847	0.135828
Cl171	Cl	0.276619	0.678590	0.160750
H172	H	0.714464	0.551895	-0.622189
H173	H	0.613595	0.787560	-0.310462
Cl174	Cl	0.397434	1.040215	-0.447184
H175	H	0.037273	0.662613	-0.068472
H176	H	0.593420	0.834735	-0.634393
Cl177	Cl	-0.085364	0.660857	-0.093398
H178	H	0.031172	0.676852	0.135808
H179	H	0.494046	0.920251	-0.303798
H180	H	0.596946	0.826497	-0.752322
Cl181	Cl	0.724830	0.527618	-0.473990
H182	H	0.734651	0.504725	-0.298264
Cl183	Cl	0.817934	0.402651	-0.069307
H184	H	0.951323	0.273496	-0.058258
Cl185	Cl	1.103513	0.286778	0.334776
Cl186	Cl	1.094448	0.192030	0.009591
