data_functionalizedCrystal
_audit_creation_method	'MofGen! by Chris Wilmer'
_symmetry_space_group_name_H-M	'P1'
_symmetry_Int_Tables_number	1
_symmetry_cell_setting	triclinic
loop_
_symmetry_equiv_pos_as_xyz
  x,y,z
_cell_length_a	8.597340
_cell_length_b	19.188930
_cell_length_c	7.681481
_cell_angle_alpha	95.727723
_cell_angle_beta	76.525094
_cell_angle_gamma	84.247170
loop_
_atom_site_label
_atom_site_type_symbol
_atom_site_fract_x
_atom_site_fract_y
_atom_site_fract_z
O1	O	2.099171	0.096557	-0.172031
O2	O	1.635032	0.107681	-0.101607
O3	O	1.880499	0.000479	-0.138886
O4	O	1.853704	0.203759	-0.134752
O5	O	1.910712	-0.012745	-0.436332
O6	O	1.665245	0.094457	-0.399053
O7	O	2.129384	0.083332	-0.469477
Zn8	Zn	1.902112	0.086795	-0.481491
Zn9	Zn	1.862305	0.104219	-0.089593
O10	O	1.883917	0.190534	-0.432198
C11	C	1.590758	0.100611	-0.241321
C12	C	1.413824	0.099238	-0.214476
C13	C	1.894739	-0.032145	-0.287483
C14	C	1.892136	-0.109654	-0.287103
C15	C	2.036167	-0.154389	-0.308965
C16	C	2.033718	-0.227215	-0.308566
C17	C	1.887233	-0.255304	-0.286338
C18	C	1.743182	-0.210558	-0.264463
C19	C	1.745634	-0.137733	-0.264845
N20	N	1.785545	-0.367956	-0.370575
N21	N	1.783226	-0.437138	-0.370217
C22	C	1.879837	-0.474720	-0.285180
N23	N	1.978880	-0.440511	-0.200541
N24	N	1.981205	-0.371324	-0.200908
C25	C	1.884558	-0.334269	-0.285920
C26	C	2.021221	-0.598422	-0.306608
C27	C	2.018765	-0.671248	-0.306196
C28	C	1.728227	-0.654591	-0.262111
C29	C	1.730686	-0.581765	-0.262505
C30	C	1.877188	-0.553686	-0.284763
C31	C	2.173657	0.090402	-0.329760
C32	C	2.350591	0.091776	-0.356593
C33	C	1.869677	0.223159	-0.283597
C34	C	1.872278	0.300668	-0.283965
N35	N	1.929291	0.074903	-0.748953
N36	N	1.835138	0.116105	0.177867
H37	H	2.155460	-0.131532	-0.327083
O38	O	1.575339	-0.533509	-0.238943
H39	H	1.581834	-0.505328	-0.359294
O40	O	1.707792	0.171802	-0.703204
H41	H	1.711300	0.170246	-0.560100
O42	O	2.056619	0.019192	-0.867887
H43	H	2.053091	0.020737	-1.010989
H44	H	1.332590	0.104577	-0.072249
O45	O	1.590285	-0.089477	-0.241295
H46	H	1.488009	-0.121241	-0.225784
H47	H	1.623913	-0.233433	-0.246361
H48	H	1.431817	0.086433	-0.498810
O49	O	2.174127	-0.719501	-0.329795
H50	H	2.231966	-0.704113	-0.219230
O51	O	2.189071	-0.275480	-0.332170
H52	H	2.291354	-0.243720	-0.347726
O53	O	2.179219	-0.568126	-0.330577
H54	H	2.278962	-0.611470	-0.345678
O55	O	1.570226	-0.684875	-0.238144
H56	H	1.592716	-0.743031	-0.241562
